data_PCOD8315226
_publ_section_title
;
Structure prediction by ZEFSAII (Michael W. Deem and Ramdas Pophale) SiO2 
 PCOD8315226
Probable space group: P 4/N M M
;
_chemical_formula_sum "Si O2"
_cell_formula_units_Z 112
_cell_length_a 13.938138
_cell_length_b 13.938138
_cell_length_c 35.237472
_cell_angle_alpha 90.000000
_cell_angle_beta 90.000000
_cell_angle_gamma 90.000000
_cell_volume 6845.643269
_symmetry_space_group_name_H-M "P 4/N M M"
_symmetry_group_IT_number 129
_symmetry_cell_setting 'tetragonal'
loop_
_space_group_symop_operation_xyz
x,y,z
1/2-y,x,z
1/2-x,1/2-y,z
y,1/2-x,z
1/2+x,-y,-z
-x,1/2+y,-z
1/2+y,1/2+x,-z
-y,-x,-z
-x,-y,-z
1/2+y,-x,-z
1/2+x,1/2+y,-z
-y,1/2+x,-z
1/2-x,y,z
x,1/2-y,z
1/2-y,1/2-x,z
y,x,z
loop_
_atom_site_type_symbol
_atom_site_label
_atom_site_fract_x
_atom_site_fract_y
_atom_site_fract_z
Si Si1 0.136359 0.856492 0.458253
Si Si2 0.859279 0.485617 0.243920
Si Si3 0.639361 0.484079 0.331967
Si Si4 0.017167 0.639703 0.807281
Si Si5 0.143972 0.864607 0.958617
Si Si6 0.988972 0.359420 0.107199
Si Si7 0.019609 0.636083 0.612568
O O1 0.105309 0.894692 0.500000
O O2 0.250000 0.847708 0.457215
O O3 0.092691 0.750000 0.450246
O O4 0.101818 0.931758 0.426761
O O5 0.750000 0.506575 0.232630
O O6 0.868995 0.458018 0.287860
O O7 0.918796 0.581205 0.234004
O O8 0.897843 0.395956 0.219844
O O9 0.750000 0.497633 0.344299
O O10 0.582823 0.582823 0.341341
O O11 0.591625 0.395051 0.353950
O O12 0.993546 0.750000 0.798036
O O13 0.920297 0.579704 0.799708
O O14 0.054205 0.627454 0.850578
O O15 0.250000 0.907250 0.952689
O O16 0.148074 0.750000 0.957488
O O17 0.081135 0.906175 0.924083
O O18 0.103223 0.896778 0.000000
O O19 0.007663 0.250000 0.097118
O O20 0.091796 0.408205 0.104513
O O21 0.002043 0.750000 0.614647
O O22 0.917329 0.582672 0.616460
#
# Coordination Sequence:
#
# PCOD8315226 Si02
#       7
#    16  16  16  16  16  16  16
#     4   8  14  26  45  68  91 113 141 182 230 276
#     4   9  18  32  49  70  95 119 144 176 214 260
#     4   9  18  32  50  72  95 118 144 176 218 267
#     4   9  18  31  45  63  88 116 148 186 223 260
#     4   8  14  25  40  58  81 107 135 170 210 250
#     4   9  17  28  42  61  84 110 140 173 210 252
#     4  10  20  32  46  65  90 122 159 195 228 262
#
# _framework density 16.360771
#
# number of rings (size 3 to 8) (size 9 to 14) (size 15 to 20)
#    0.000    3.143    0.000    1.286    0.000    3.571 
#    0.000    5.714    0.000    0.000    0.000    4.000 
#    0.000    3.714    0.000    0.286    0.000    0.286 
#
# Total GULP energy -1388270.634327 kJ/mol
# GULP energy per Si atom -12395.273521 kJ/mol
# Density = 1.632353 g / cm^3
# Si number density = 16.360771 Si / 1000 Ang^3
#
#
#
# Elastic Constant Matrix: (Units=GPa)
#
#
# Indices 1 2 3 4 5 6 
#
# 1 87.6295 41.3483 50.8139 0.0000 0.0000 0.0000
# 2 41.3483 87.6293 50.8139 0.0000 0.0000 0.0000
# 3 50.8139 50.8139 89.9985 0.0000 0.0000 0.0000
# 4 0.0000 0.0000 0.0000 24.1022 0.0000 0.0000
# 5 0.0000 0.0000 0.0000 0.0000 24.1024 0.0000
# 6 0.0000 0.0000 0.0000 0.0000 0.0000 13.5872
#
#
#
# Elastic Compliance Matrix: (Units=1/GPa)
#
#
# Indices 1 2 3 4 5 6 
#
# 1 0.017787 -0.003820 -0.007886 0.000000 0.000000 0.000000
# 2 -0.003820 0.017787 -0.007886 0.000000 0.000000 0.000000
# 3 -0.007886 -0.007886 0.020016 0.000000 0.000000 0.000000
# 4 0.000000 0.000000 0.000000 0.041490 0.000000 0.000000
# 5 0.000000 0.000000 0.000000 0.000000 0.041490 0.000000
# 6 0.000000 0.000000 0.000000 0.000000 0.000000 0.073599
#
#
# Mechanical properties :
#
#
# Convention : Reuss Voigt Hill
#
# Bulk Modulus (GPa) = 60.95111 61.24552 61.09831
# Shear Modulus (GPa) = 19.46883 20.51044 19.98963
#
# Velocity S-wave (km/s) = 3.45334 3.54451 3.49922
# Velocity P-wave (km/s) = 7.29630 7.36662 7.33154
#
# Compressibility (1/GPa) = 0.01640659
#
# Stress axis : x y z
#
# Youngs Moduli (GPa) = 56.22094 56.22074 49.95977
#
# Poissons Ratio (x) = 0.21477 0.39397
# Poissons Ratio (y) = 0.21477 0.39398
# Poissons Ratio (z) = 0.44335 0.44335
#
# Static dielectric constant tensor:
#      x y z
#    x 2.969870 0.000000 0.000000 
#    y 0.000000 2.969870 0.000000 
#    z 0.000000 0.000000 3.397340 
# 
# 
# High freq. dielectric constant tensor:
#      x y z
#    x 1.610810 0.000000 0.000000 
#    y 0.000000 1.610810 0.000000 
#    z 0.000000 0.000000 1.641700 
# 
# From -- ./inp_files/7929.got.cif
#   From: 2010.03.12/outbox.cif.g09.slc.cpg/sg129_4_cif.got.tgz:7929.got - 2010.04.06 17:19:44.
