data_PCOD8315461
_publ_section_title
;
Structure prediction by ZEFSAII (Michael W. Deem and Ramdas Pophale) SiO2 
 PCOD8315461
Probable space group: P 4/N C C
;
_chemical_formula_sum "Si O2"
_cell_formula_units_Z 80
_cell_length_a 32.536557
_cell_length_b 32.536557
_cell_length_c 5.265129
_cell_angle_alpha 90.000000
_cell_angle_beta 90.000000
_cell_angle_gamma 90.000000
_cell_volume 5573.810568
_symmetry_space_group_name_H-M "P 4/N C C"
_symmetry_group_IT_number 130
_symmetry_cell_setting 'tetragonal'
loop_
_space_group_symop_operation_xyz
x,y,z
1/2-y,x,z
1/2-x,1/2-y,z
y,1/2-x,z
1/2+x,-y,1/2-z
-x,1/2+y,1/2-z
1/2+y,1/2+x,1/2-z
-y,-x,1/2-z
-x,-y,-z
1/2+y,-x,-z
1/2+x,1/2+y,-z
-y,1/2+x,-z
1/2-x,y,1/2+z
x,1/2-y,1/2+z
1/2-y,1/2-x,1/2+z
y,x,1/2+z
loop_
_atom_site_type_symbol
_atom_site_label
_atom_site_fract_x
_atom_site_fract_y
_atom_site_fract_z
Si Si1 0.764255 0.096663 0.249956
Si Si2 0.357986 0.574786 0.736340
Si Si3 0.006289 0.770699 0.273442
Si Si4 0.477117 0.862845 0.769428
Si Si5 0.515242 0.948188 0.757058
O O1 0.753812 0.121724 0.508090
O O2 0.811558 0.087528 0.215642
O O3 0.737339 0.055048 0.280757
O O4 0.384405 0.615596 0.750000
O O5 0.363416 0.554972 0.461078
O O6 0.371380 0.544265 0.960234
O O7 0.986038 0.750152 0.524058
O O8 0.998492 0.819609 0.272219
O O9 0.509324 0.899463 0.728714
O O10 0.543235 0.962636 0.523579
O O11 0.471181 0.971181 0.750000
#
# Coordination Sequence:
#
# PCOD8315461 Si02
#       5
#    16  16  16  16  16
#     4  10  16  30  43  57  86 112 119 159 216 260
#     4  12  21  28  43  68  88 105 136 168 205 267
#     4  10  16  29  46  63  83 108 128 164 222 267
#     4  12  20  32  48  63  83 115 142 174 217 262
#     4  10  21  35  45  57  82 114 148 184 213 238
#
# _framework density 14.35284
#
# number of rings (size 3 to 8) (size 9 to 14) (size 15 to 20)
#    0.000    1.200    8.000    3.000    0.000    1.600 
#    0.000    0.000    0.000    0.000    0.000    0.000 
#    0.000    2.400    0.000    0.000    0.000    0.000 
#
# Total GULP energy -991711.334419 kJ/mol
# GULP energy per Si atom -12396.391680 kJ/mol
# Density = 1.432017 g / cm^3
# Si number density = 14.352840 Si / 1000 Ang^3
#
#
#
# Elastic Constant Matrix: (Units=GPa)
#
#
# Indices 1 2 3 4 5 6 
#
# 1 60.9789 22.3854 8.2844 0.0000 0.0000 0.0000
# 2 22.3854 60.9770 8.2847 0.0000 0.0000 0.0000
# 3 8.2844 8.2847 104.1381 0.0000 0.0000 0.0000
# 4 0.0000 0.0000 0.0000 13.1288 0.0000 0.0000
# 5 0.0000 0.0000 0.0000 0.0000 13.1293 0.0000
# 6 0.0000 0.0000 0.0000 0.0000 0.0000 3.3920
#
#
#
# Elastic Compliance Matrix: (Units=1/GPa)
#
#
# Indices 1 2 3 4 5 6 
#
# 1 0.019050 -0.006862 -0.000970 0.000000 0.000000 0.000000
# 2 -0.006862 0.019050 -0.000970 0.000000 0.000000 0.000000
# 3 -0.000970 -0.000970 0.009757 0.000000 0.000000 0.000000
# 4 0.000000 0.000000 0.000000 0.076169 0.000000 0.000000
# 5 0.000000 0.000000 0.000000 0.000000 0.076165 0.000000
# 6 0.000000 0.000000 0.000000 0.000000 0.000000 0.294813
#
#
# Mechanical properties :
#
#
# Convention : Reuss Voigt Hill
#
# Bulk Modulus (GPa) = 33.05217 33.77811 33.41514
# Shear Modulus (GPa) = 9.56588 18.40599 13.98594
#
# Velocity S-wave (km/s) = 2.58443 3.58494 3.12498
# Velocity P-wave (km/s) = 5.65544 6.38129 6.02930
#
# Compressibility (1/GPa) = 0.03025520
#
# Stress axis : x y z
#
# Youngs Moduli (GPa) = 52.49417 52.49245 102.49152
#
# Poissons Ratio (x) = 0.36018 0.09937
# Poissons Ratio (y) = 0.36020 0.09938
# Poissons Ratio (z) = 0.05090 0.05090
#
# Static dielectric constant tensor:
#      x y z
#    x 2.545860 0.000000 0.000000 
#    y 0.000000 2.545860 0.000000 
#    z 0.000000 0.000000 4.126580 
# 
# 
# High freq. dielectric constant tensor:
#      x y z
#    x 1.506210 0.000000 0.000000 
#    y 0.000000 1.506210 0.000000 
#    z 0.000000 0.000000 1.590470 
# 
# From -- ./inp_files/225.got.cif
#   From: 2010.03.12/outbox.cif.g09.slc.cpg/sg130_1_cif.got.tgz:225.got - 2010.04.06 17:30:23.
