data_PCOD8315464
_publ_section_title
;
Structure prediction by ZEFSAII (Michael W. Deem and Ramdas Pophale) SiO2 
 PCOD8315464
Probable space group: P 4/N C C
;
_chemical_formula_sum "Si O2"
_cell_formula_units_Z 80
_cell_length_a 28.448050
_cell_length_b 28.448050
_cell_length_c 5.276853
_cell_angle_alpha 90.000000
_cell_angle_beta 90.000000
_cell_angle_gamma 90.000000
_cell_volume 4270.512537
_symmetry_space_group_name_H-M "P 4/N C C"
_symmetry_group_IT_number 130
_symmetry_cell_setting 'tetragonal'
loop_
_space_group_symop_operation_xyz
x,y,z
1/2-y,x,z
1/2-x,1/2-y,z
y,1/2-x,z
1/2+x,-y,1/2-z
-x,1/2+y,1/2-z
1/2+y,1/2+x,1/2-z
-y,-x,1/2-z
-x,-y,-z
1/2+y,-x,-z
1/2+x,1/2+y,-z
-y,1/2+x,-z
1/2-x,y,1/2+z
x,1/2-y,1/2+z
1/2-y,1/2-x,1/2+z
y,x,1/2+z
loop_
_atom_site_type_symbol
_atom_site_label
_atom_site_fract_x
_atom_site_fract_y
_atom_site_fract_z
Si Si1 0.054613 0.732975 0.749378
Si Si2 0.418896 0.992348 0.277544
Si Si3 0.049899 0.272784 0.757170
Si Si4 0.876743 0.586827 0.758272
Si Si5 0.049531 0.622983 0.722987
O O1 0.082749 0.747900 0.495369
O O2 0.047863 0.677962 0.768591
O O3 0.005493 0.761806 0.737334
O O4 0.471975 0.971975 0.250000
O O5 0.399764 0.982669 0.559693
O O6 0.418836 0.048408 0.239215
O O7 0.386840 0.969011 0.059197
O O8 0.073578 0.249098 0.509508
O O9 0.058350 0.328268 0.750613
O O10 0.881764 0.620070 0.511894
O O11 0.102379 0.602379 0.750000
#
# Coordination Sequence:
#
# PCOD8315464 Si02
#       5
#    16  16  16  16  16
#     4  10  18  29  50  75 101 133 175 216 266 318
#     4  10  20  34  51  70 102 151 191 215 249 301
#     4  10  19  34  55  74  99 135 174 214 266 318
#     4  12  24  36  52  78 112 142 179 227 267 309
#     4  10  19  33  53  79 108 139 183 230 264 304
#
# _framework density 18.733115999999999
#
# number of rings (size 3 to 8) (size 9 to 14) (size 15 to 20)
#    0.000    1.600    0.000    8.400    0.000    0.800 
#    0.000    0.000    0.000    0.000    0.000    0.000 
#    0.000   30.400    0.000    0.000    0.000    0.000 
#
# Total GULP energy -991556.640116 kJ/mol
# GULP energy per Si atom -12394.458001 kJ/mol
# Density = 1.869048 g / cm^3
# Si number density = 18.733116 Si / 1000 Ang^3
#
#
#
# Elastic Constant Matrix: (Units=GPa)
#
#
# Indices 1 2 3 4 5 6 
#
# 1 61.9699 14.4798 21.9294 0.0000 0.0000 0.0000
# 2 14.4798 61.9699 21.9294 0.0000 0.0000 0.0000
# 3 21.9294 21.9294 160.4609 0.0000 0.0000 0.0000
# 4 0.0000 0.0000 0.0000 20.4956 0.0000 0.0000
# 5 0.0000 0.0000 0.0000 0.0000 20.4956 0.0000
# 6 0.0000 0.0000 0.0000 0.0000 0.0000 14.2120
#
#
#
# Elastic Compliance Matrix: (Units=1/GPa)
#
#
# Indices 1 2 3 4 5 6 
#
# 1 0.017625 -0.003432 -0.001940 0.000000 0.000000 0.000000
# 2 -0.003432 0.017625 -0.001940 0.000000 0.000000 0.000000
# 3 -0.001940 -0.001940 0.006762 0.000000 0.000000 0.000000
# 4 0.000000 0.000000 0.000000 0.048791 0.000000 0.000000
# 5 0.000000 0.000000 0.000000 0.000000 0.048791 0.000000
# 6 0.000000 0.000000 0.000000 0.000000 0.000000 0.070363
#
#
# Mechanical properties :
#
#
# Convention : Reuss Voigt Hill
#
# Bulk Modulus (GPa) = 36.50980 44.56424 40.53702
# Shear Modulus (GPa) = 21.39401 26.11143 23.75272
#
# Velocity S-wave (km/s) = 3.38308 3.73750 3.56470
# Velocity P-wave (km/s) = 5.89848 6.51658 6.21522
#
# Compressibility (1/GPa) = 0.02738991
#
# Stress axis : x y z
#
# Youngs Moduli (GPa) = 56.73708 56.73708 147.88009
#
# Poissons Ratio (x) = 0.19471 0.28685
# Poissons Ratio (y) = 0.19471 0.28685
# Poissons Ratio (z) = 0.11005 0.11005
#
# Static dielectric constant tensor:
#      x y z
#    x 3.140860 0.000000 0.000000 
#    y 0.000000 3.140860 0.000000 
#    z 0.000000 0.000000 5.147550 
# 
# 
# High freq. dielectric constant tensor:
#      x y z
#    x 1.686970 0.000000 0.000000 
#    y 0.000000 1.686970 0.000000 
#    z 0.000000 0.000000 1.775700 
# 
# From -- ./inp_files/222.got.cif
#   From: 2010.03.12/outbox.cif.g09.slc.cpg/sg130_1_cif.got.tgz:222.got - 2010.04.06 17:30:23.
