data_PCOD8315564
_publ_section_title
;
Structure prediction by ZEFSAII (Michael W. Deem and Ramdas Pophale) SiO2 
 PCOD8315564
Probable space group: P 4/N C C
;
_chemical_formula_sum "Si O2"
_cell_formula_units_Z 96
_cell_length_a 15.256014
_cell_length_b 15.256014
_cell_length_c 18.729430
_cell_angle_alpha 90.000000
_cell_angle_beta 90.000000
_cell_angle_gamma 90.000000
_cell_volume 4359.199225
_symmetry_space_group_name_H-M "P 4/N C C"
_symmetry_group_IT_number 130
_symmetry_cell_setting 'tetragonal'
loop_
_space_group_symop_operation_xyz
x,y,z
1/2-y,x,z
1/2-x,1/2-y,z
y,1/2-x,z
1/2+x,-y,1/2-z
-x,1/2+y,1/2-z
1/2+y,1/2+x,1/2-z
-y,-x,1/2-z
-x,-y,-z
1/2+y,-x,-z
1/2+x,1/2+y,-z
-y,1/2+x,-z
1/2-x,y,1/2+z
x,1/2-y,1/2+z
1/2-y,1/2-x,1/2+z
y,x,1/2+z
loop_
_atom_site_type_symbol
_atom_site_label
_atom_site_fract_x
_atom_site_fract_y
_atom_site_fract_z
Si Si1 0.202483 0.842459 0.676188
Si Si2 0.237192 0.027647 0.199014
Si Si3 0.600244 0.894095 0.385365
Si Si4 0.926938 0.118730 0.051198
Si Si5 0.514565 0.702587 0.502635
Si Si6 0.893742 0.730150 0.152022
O O1 0.250000 0.750000 0.670036
O O2 0.149527 0.850474 0.750000
O O3 0.139344 0.851210 0.608806
O O4 0.267385 0.925521 0.677799
O O5 0.137322 0.058114 0.185507
O O6 0.294538 0.081933 0.140370
O O7 0.272104 0.043506 0.278723
O O8 0.506423 0.933969 0.410313
O O9 0.671007 0.905892 0.450526
O O10 0.876144 0.056965 0.995505
O O11 0.969090 0.205835 0.017336
O O12 0.548822 0.715564 0.582227
O O13 0.847351 0.823837 0.153640
#
# Coordination Sequence:
#
# PCOD8315564 Si02
#       6
#    16  16  16  16  16  16
#     4  10  22  43  69 100 133 178 238 287 341 422
#     4  11  22  43  72 101 141 185 235 294 359 423
#     4  11  22  44  69 101 136 182 240 288 349 432
#     4  11  26  43  71  98 140 190 231 298 356 429
#     4  12  25  45  67 101 144 183 242 288 362 424
#     4  11  24  42  70 109 146 183 231 299 361 421
#
# _framework density 22.022393999999998
#
# number of rings (size 3 to 8) (size 9 to 14) (size 15 to 20)
#    0.000    1.000    5.000    2.500    2.333    0.333 
#    0.000    3.333    7.333    0.000    0.000    0.000 
#    0.000    0.000    0.000    0.000    0.000    0.000 
#
# Total GULP energy -1189292.730105 kJ/mol
# GULP energy per Si atom -12388.465939 kJ/mol
# Density = 2.197227 g / cm^3
# Si number density = 22.022394 Si / 1000 Ang^3
#
#
#
# Elastic Constant Matrix: (Units=GPa)
#
#
# Indices 1 2 3 4 5 6 
#
# 1 112.3633 56.4285 44.6324 0.0000 0.0000 0.0000
# 2 56.4285 112.3627 44.6325 0.0000 0.0000 0.0000
# 3 44.6324 44.6325 136.1930 0.0000 0.0000 0.0000
# 4 0.0000 0.0000 0.0000 27.5722 0.0000 0.0000
# 5 0.0000 0.0000 0.0000 0.0000 27.5726 0.0000
# 6 0.0000 0.0000 0.0000 0.0000 0.0000 19.8808
#
#
#
# Elastic Compliance Matrix: (Units=1/GPa)
#
#
# Indices 1 2 3 4 5 6 
#
# 1 0.012522 -0.005356 -0.002349 0.000000 0.000000 0.000000
# 2 -0.005356 0.012522 -0.002349 0.000000 0.000000 0.000000
# 3 -0.002349 -0.002349 0.008882 0.000000 0.000000 0.000000
# 4 0.000000 0.000000 0.000000 0.036268 0.000000 0.000000
# 5 0.000000 0.000000 0.000000 0.000000 0.036268 0.000000
# 6 0.000000 0.000000 0.000000 0.000000 0.000000 0.050300
#
#
# Mechanical properties :
#
#
# Convention : Reuss Voigt Hill
#
# Bulk Modulus (GPa) = 72.35590 72.47843 72.41717
# Shear Modulus (GPa) = 27.55197 29.35348 28.45272
#
# Velocity S-wave (km/s) = 3.54091 3.65484 3.59833
# Velocity P-wave (km/s) = 7.04587 7.12693 7.08652
#
# Compressibility (1/GPa) = 0.01382057
#
# Stress axis : x y z
#
# Youngs Moduli (GPa) = 79.85791 79.85741 112.58924
#
# Poissons Ratio (x) = 0.42770 0.26442
# Poissons Ratio (y) = 0.42770 0.26443
# Poissons Ratio (z) = 0.18755 0.18755
#
# Static dielectric constant tensor:
#      x y z
#    x 3.979230 0.000000 0.000000 
#    y 0.000000 3.979230 0.000000 
#    z 0.000000 0.000000 4.306890 
# 
# 
# High freq. dielectric constant tensor:
#      x y z
#    x 1.860390 0.000000 0.000000 
#    y 0.000000 1.860390 0.000000 
#    z 0.000000 0.000000 1.882410 
# 
# From -- ./inp_files/3778.got.cif
#   From: 2010.03.12/outbox.cif.g09.slc.cpg/sg130_2_cif.got.tgz:3778.got - 2010.04.06 17:30:23.
