data_PCOD8315695
_publ_section_title
;
Structure prediction by ZEFSAII (Michael W. Deem and Ramdas Pophale) SiO2 
 PCOD8315695
Probable space group: P 42/M M C
;
_chemical_formula_sum "Si O2"
_cell_formula_units_Z 88
_cell_length_a 27.892494
_cell_length_b 27.892494
_cell_length_c 9.090530
_cell_angle_alpha 90.000000
_cell_angle_beta 90.000000
_cell_angle_gamma 90.000000
_cell_volume 7072.352539
_symmetry_space_group_name_H-M "P 42/M M C"
_symmetry_group_IT_number 131
_symmetry_cell_setting 'tetragonal'
loop_
_space_group_symop_operation_xyz
x,y,z
-x,-y,z
-y,x,1/2+z
y,-x,1/2+z
-x,y,-z
x,-y,-z
y,x,1/2-z
-y,-x,1/2-z
-x,-y,-z
x,y,-z
y,-x,1/2-z
-y,x,1/2-z
x,-y,z
-x,y,z
-y,-x,1/2+z
y,x,1/2+z
loop_
_atom_site_type_symbol
_atom_site_label
_atom_site_fract_x
_atom_site_fract_y
_atom_site_fract_z
Si Si1 0.736583 0.195334 0.331737
Si Si2 0.056195 0.500000 0.664494
Si Si3 0.672923 0.876293 0.831929
Si Si4 0.055832 0.596953 0.174980
Si Si5 0.947794 0.760018 0.337852
Si Si6 0.819802 0.116971 0.662178
O O1 0.756718 0.243282 0.250000
O O2 0.722385 0.208438 0.500000
O O3 0.689700 0.173351 0.247741
O O4 0.778023 0.156118 0.331581
O O5 0.079616 0.500000 0.500000
O O6 0.071703 0.453701 0.757097
O O7 0.000000 0.500000 0.644780
O O8 0.633242 0.905153 0.740617
O O9 0.717420 0.911011 0.834619
O O10 0.655886 0.865239 0.000000
O O11 0.000000 0.609592 0.216282
O O12 0.061465 0.595357 0.000000
O O13 0.948673 0.782795 0.500000
O O14 0.933002 0.801630 0.226872
O O15 0.000000 0.740439 0.291559
O O16 0.865858 0.134143 0.750000
O O17 0.837673 0.106932 0.500000
#
# Coordination Sequence:
#
# PCOD8315695 Si02
#       6
#    16   8  16  16  16  16
#     4   9  16  26  38  52  69  89 112 136 162 192
#     4   9  17  29  43  55  67  87 115 145 177 213
#     4  10  18  27  39  54  71  92 116 139 164 196
#     4  10  19  29  40  54  72  92 115 145 179 212
#     4   9  17  27  37  50  69  89 106 126 152 180
#     4   9  16  25  37  50  64  83 105 126 147 175
#
# _framework density 12.442819
#
# number of rings (size 3 to 8) (size 9 to 14) (size 15 to 20)
#    0.000    2.636    0.000    3.000    0.000    8.364 
#    0.000    0.000    0.000    0.000    0.000    0.000 
#    0.000    0.364    0.000    3.818    0.000    2.000 
#
# Total GULP energy -1090333.463984 kJ/mol
# GULP energy per Si atom -12390.153000 kJ/mol
# Density = 1.241450 g / cm^3
# Si number density = 12.442819 Si / 1000 Ang^3
#
#
#
# Elastic Constant Matrix: (Units=GPa)
#
#
# Indices 1 2 3 4 5 6 
#
# 1 39.9744 24.7339 34.5108 0.0000 0.0000 0.0000
# 2 24.7339 39.9748 34.5106 0.0000 0.0000 0.0000
# 3 34.5108 34.5106 108.0531 0.0000 0.0000 0.0000
# 4 0.0000 0.0000 0.0000 19.3759 0.0000 0.0000
# 5 0.0000 0.0000 0.0000 0.0000 19.3762 0.0000
# 6 0.0000 0.0000 0.0000 0.0000 0.0000 35.1795
#
#
#
# Elastic Compliance Matrix: (Units=1/GPa)
#
#
# Indices 1 2 3 4 5 6 
#
# 1 0.044527 -0.021087 -0.007486 0.000000 0.000000 0.000000
# 2 -0.021087 0.044526 -0.007486 0.000000 0.000000 0.000000
# 3 -0.007486 -0.007486 0.014037 0.000000 0.000000 0.000000
# 4 0.000000 0.000000 0.000000 0.051610 0.000000 0.000000
# 5 0.000000 0.000000 0.000000 0.000000 0.051610 0.000000
# 6 0.000000 0.000000 0.000000 0.000000 0.000000 0.028426
#
#
# Mechanical properties :
#
#
# Convention : Reuss Voigt Hill
#
# Bulk Modulus (GPa) = 32.28912 41.72366 37.00639
# Shear Modulus (GPa) = 15.76402 21.06946 18.41674
#
# Velocity S-wave (km/s) = 3.56324 4.11944 3.85139
# Velocity P-wave (km/s) = 6.55250 7.49877 7.04155
#
# Compressibility (1/GPa) = 0.03097019
#
# Stress axis : x y z
#
# Youngs Moduli (GPa) = 22.45836 22.45877 71.24223
#
# Poissons Ratio (x) = 0.47360 0.53334
# Poissons Ratio (y) = 0.47359 0.53331
# Poissons Ratio (z) = 0.16813 0.16812
#
# Static dielectric constant tensor:
#      x y z
#    x 2.409850 0.000000 0.000000 
#    y 0.000000 2.409850 0.000000 
#    z 0.000000 0.000000 2.892050 
# 
# 
# High freq. dielectric constant tensor:
#      x y z
#    x 1.432650 0.000000 0.000000 
#    y 0.000000 1.432650 0.000000 
#    z 0.000000 0.000000 1.496000 
# 
# From -- ./inp_files/2480.got.cif
#   From: 2010.03.12/outbox.cif.g09.slc.cpg/sg131_2_cif.got.tgz:2480.got - 2010.04.06 17:36:35.
