data_PCOD8315368
_publ_section_title
;
Structure prediction by ZEFSAII (Michael W. Deem and Ramdas Pophale) SiO2 
 PCOD8315368
Probable space group: P 4/N M M
;
_chemical_formula_sum "Si O2"
_cell_formula_units_Z 128
_cell_length_a 17.336019
_cell_length_b 17.336019
_cell_length_c 24.150995
_cell_angle_alpha 90.000000
_cell_angle_beta 90.000000
_cell_angle_gamma 90.000000
_cell_volume 7258.280983
_symmetry_space_group_name_H-M "P 4/N M M"
_symmetry_group_IT_number 129
_symmetry_cell_setting 'tetragonal'
loop_
_space_group_symop_operation_xyz
x,y,z
1/2-y,x,z
1/2-x,1/2-y,z
y,1/2-x,z
1/2+x,-y,-z
-x,1/2+y,-z
1/2+y,1/2+x,-z
-y,-x,-z
-x,-y,-z
1/2+y,-x,-z
1/2+x,1/2+y,-z
-y,1/2+x,-z
1/2-x,y,z
x,1/2-y,z
1/2-y,1/2-x,z
y,x,z
loop_
_atom_site_type_symbol
_atom_site_label
_atom_site_fract_x
_atom_site_fract_y
_atom_site_fract_z
Si Si1 0.835305 0.956690 0.767050
Si Si2 0.463858 0.161320 0.416482
Si Si3 0.550471 0.421709 0.629580
Si Si4 0.428023 0.556843 0.938738
Si Si5 0.081561 0.546892 0.752769
Si Si6 0.469689 0.339272 0.851180
Si Si7 0.165790 0.046312 0.104586
Si Si8 0.538046 0.662741 0.456564
O O1 0.750000 0.953007 0.739254
O O2 0.892236 0.892236 0.739257
O O3 0.827037 0.936931 0.831095
O O4 0.869036 0.043218 0.761204
O O5 0.447059 0.250000 0.402314
O O6 0.386260 0.113741 0.402728
O O7 0.536752 0.132958 0.379923
O O8 0.487865 0.148868 0.480397
O O9 0.487822 0.487822 0.621590
O O10 0.544856 0.383644 0.690626
O O11 0.534182 0.356764 0.583462
O O12 0.489212 0.489212 0.943318
O O13 0.354782 0.521549 0.906124
O O14 0.462723 0.627437 0.903606
O O15 0.409645 0.590356 0.000000
O O16 0.146473 0.524784 0.797653
O O17 0.012998 0.487003 0.761221
O O18 0.443576 0.250000 0.851435
O O19 0.393347 0.393347 0.849445
O O20 0.250000 0.048442 0.076210
O O21 0.112800 0.112800 0.076399
O O22 0.563742 0.750000 0.446625
O O23 0.611978 0.611978 0.440634
#
# Coordination Sequence:
#
# PCOD8315368 Si02
#       8
#    16  16  16  16  16  16  16  16
#     4   9  16  27  45  68  95 125 155 191 234 279
#     4   9  17  29  46  70  99 129 161 199 244 293
#     4   9  17  29  47  68  91 125 169 208 239 278
#     4   9  17  31  51  72  96 131 172 203 231 280
#     4   9  17  31  49  68  93 129 170 204 236 284
#     4  10  20  35  55  79 105 131 162 202 249 298
#     4   9  16  27  45  69  97 126 156 191 232 277
#     4   9  17  29  46  69  97 126 157 197 245 295
#
# _framework density 17.635028999999999
#
# number of rings (size 3 to 8) (size 9 to 14) (size 15 to 20)
#    0.000    2.875    1.250    0.375    0.000    3.625 
#    0.000    2.500    0.000    1.875    0.000   14.875 
#    0.000    0.000    0.000    0.000    0.000    0.000 
#
# Total GULP energy -1586189.714672 kJ/mol
# GULP energy per Si atom -12392.107146 kJ/mol
# Density = 1.759489 g / cm^3
# Si number density = 17.635029 Si / 1000 Ang^3
#
#
#
# Elastic Constant Matrix: (Units=GPa)
#
#
# Indices 1 2 3 4 5 6 
#
# 1 67.9090 48.6845 25.0433 0.0000 0.0000 0.0000
# 2 48.6845 67.9089 25.0433 0.0000 0.0000 0.0000
# 3 25.0433 25.0433 82.1125 0.0000 0.0000 0.0000
# 4 0.0000 0.0000 0.0000 12.5163 0.0000 0.0000
# 5 0.0000 0.0000 0.0000 0.0000 12.5163 0.0000
# 6 0.0000 0.0000 0.0000 0.0000 0.0000 16.3157
#
#
#
# Elastic Compliance Matrix: (Units=1/GPa)
#
#
# Indices 1 2 3 4 5 6 
#
# 1 0.030944 -0.021074 -0.003010 0.000000 0.000000 0.000000
# 2 -0.021074 0.030944 -0.003010 0.000000 0.000000 0.000000
# 3 -0.003010 -0.003010 0.014015 0.000000 0.000000 0.000000
# 4 0.000000 0.000000 0.000000 0.079896 0.000000 0.000000
# 5 0.000000 0.000000 0.000000 0.000000 0.079896 0.000000
# 6 0.000000 0.000000 0.000000 0.000000 0.000000 0.061291
#
#
# Mechanical properties :
#
#
# Convention : Reuss Voigt Hill
#
# Bulk Modulus (GPa) = 46.05407 46.16364 46.10885
# Shear Modulus (GPa) = 13.95052 16.21361 15.08207
#
# Velocity S-wave (km/s) = 2.81565 3.03545 2.92761
# Velocity P-wave (km/s) = 6.06154 6.20639 6.13440
#
# Compressibility (1/GPa) = 0.02171361
#
# Stress axis : x y z
#
# Youngs Moduli (GPa) = 32.31694 32.31686 71.35425
#
# Poissons Ratio (x) = 0.68103 0.21479
# Poissons Ratio (y) = 0.68103 0.21479
# Poissons Ratio (z) = 0.09728 0.09728
#
# Static dielectric constant tensor:
#      x y z
#    x 3.166270 0.000000 0.000000 
#    y 0.000000 3.166270 0.000000 
#    z 0.000000 0.000000 3.404790 
# 
# 
# High freq. dielectric constant tensor:
#      x y z
#    x 1.655560 0.000000 0.000000 
#    y 0.000000 1.655560 0.000000 
#    z 0.000000 0.000000 1.684280 
# 
# From -- ./inp_files/7363.got.cif
#   From: 2010.03.12/outbox.cif.g09.slc.cpg/sg129_4_cif.got.tgz:7363.got - 2010.04.06 17:19:44.
