data_PCOD8315428
_publ_section_title
;
Structure prediction by ZEFSAII (Michael W. Deem and Ramdas Pophale) SiO2 
 PCOD8315428
Probable space group: P 4/N M M
;
_chemical_formula_sum "Si O2"
_cell_formula_units_Z 40
_cell_length_a 13.992990
_cell_length_b 13.992990
_cell_length_c 7.788513
_cell_angle_alpha 90.000000
_cell_angle_beta 90.000000
_cell_angle_gamma 90.000000
_cell_volume 1525.020201
_symmetry_space_group_name_H-M "P 4/N M M"
_symmetry_group_IT_number 129
_symmetry_cell_setting 'tetragonal'
loop_
_space_group_symop_operation_xyz
x,y,z
1/2-y,x,z
1/2-x,1/2-y,z
y,1/2-x,z
1/2+x,-y,-z
-x,1/2+y,-z
1/2+y,1/2+x,-z
-y,-x,-z
-x,-y,-z
1/2+y,-x,-z
1/2+x,1/2+y,-z
-y,1/2+x,-z
1/2-x,y,z
x,1/2-y,z
1/2-y,1/2-x,z
y,x,z
loop_
_atom_site_type_symbol
_atom_site_label
_atom_site_fract_x
_atom_site_fract_y
_atom_site_fract_z
Si Si1 0.641843 0.141413 0.797306
Si Si2 0.140024 0.140024 0.005439
Si Si3 0.360939 0.360939 0.395324
Si Si4 0.463665 0.036336 0.700320
O O1 0.750000 0.118288 0.740517
O O2 0.614630 0.250000 0.743135
O O3 0.575925 0.062936 0.703173
O O4 0.630511 0.130511 0.000000
O O5 0.250000 0.117061 0.972252
O O6 0.111710 0.111710 0.199126
O O7 0.080773 0.080773 0.870653
O O8 0.250000 0.381815 0.430228
O O9 0.424551 0.424551 0.520643
#
# Coordination Sequence:
#
# PCOD8315428 Si02
#       4
#    16   8   8   8
#     4   9  19  35  55  85 125 163 203 261 327 379
#     4   9  18  31  49  84 132 166 195 253 326 388
#     4   9  18  31  49  84 132 166 195 253 326 388
#     4  12  19  31  62  91 110 158 228 260 294 388
#
# _framework density 26.229163
#
# number of rings (size 3 to 8) (size 9 to 14) (size 15 to 20)
#    0.000    2.400    0.000    6.600    0.000    1.600 
#    0.000    0.000    0.000    7.800    0.000   28.000 
#    0.000   19.200    0.000    3.600    0.000    0.800 
#
# Total GULP energy -496077.757380 kJ/mol
# GULP energy per Si atom -12401.943934 kJ/mol
# Density = 2.616946 g / cm^3
# Si number density = 26.229163 Si / 1000 Ang^3
#
#
#
# Elastic Constant Matrix: (Units=GPa)
#
#
# Indices 1 2 3 4 5 6 
#
# 1 143.1552 97.5685 62.4150 0.0000 0.0000 0.0000
# 2 97.5685 143.1552 62.4150 0.0000 0.0000 0.0000
# 3 62.4150 62.4150 119.0787 0.0000 0.0000 0.0000
# 4 0.0000 0.0000 0.0000 26.7989 0.0000 0.0000
# 5 0.0000 0.0000 0.0000 0.0000 26.7989 0.0000
# 6 0.0000 0.0000 0.0000 0.0000 0.0000 39.0874
#
#
#
# Elastic Compliance Matrix: (Units=1/GPa)
#
#
# Indices 1 2 3 4 5 6 
#
# 1 0.013820 -0.008116 -0.002990 0.000000 0.000000 0.000000
# 2 -0.008116 0.013820 -0.002990 0.000000 0.000000 0.000000
# 3 -0.002990 -0.002990 0.011532 0.000000 0.000000 0.000000
# 4 0.000000 0.000000 0.000000 0.037315 0.000000 0.000000
# 5 0.000000 0.000000 0.000000 0.000000 0.037315 0.000000
# 6 0.000000 0.000000 0.000000 0.000000 0.000000 0.025584
#
#
# Mechanical properties :
#
#
# Convention : Reuss Voigt Hill
#
# Bulk Modulus (GPa) = 91.06405 94.46512 92.76459
# Shear Modulus (GPa) = 29.19892 30.73642 29.96767
#
# Velocity S-wave (km/s) = 3.34012 3.42693 3.38380
# Velocity P-wave (km/s) = 7.04764 7.19388 7.12114
#
# Compressibility (1/GPa) = 0.01098128
#
# Stress axis : x y z
#
# Youngs Moduli (GPa) = 72.35650 72.35650 86.71265
#
# Poissons Ratio (x) = 0.58723 0.25928
# Poissons Ratio (y) = 0.58723 0.25928
# Poissons Ratio (z) = 0.21635 0.21635
#
# Static dielectric constant tensor:
#      x y z
#    x 5.039330 0.000000 0.000000 
#    y 0.000000 5.039330 0.000000 
#    z 0.000000 0.000000 4.618160 
# 
# 
# High freq. dielectric constant tensor:
#      x y z
#    x 2.067640 0.000000 0.000000 
#    y 0.000000 2.067640 0.000000 
#    z 0.000000 0.000000 2.045900 
# 
# From -- ./inp_files/1423.got.cif
#   From: 2010.03.12/outbox.cif.g09.slc.cpg/sg129_1_cif.got.tgz:1423.got - 2010.04.06 17:19:44.
