data_PCOD8315543
_publ_section_title
;
Structure prediction by ZEFSAII (Michael W. Deem and Ramdas Pophale) SiO2 
 PCOD8315543
Probable space group: P 4/N C C
;
_chemical_formula_sum "Si O2"
_cell_formula_units_Z 96
_cell_length_a 15.472995
_cell_length_b 15.472995
_cell_length_c 20.595928
_cell_angle_alpha 90.000000
_cell_angle_beta 90.000000
_cell_angle_gamma 90.000000
_cell_volume 4930.944738
_symmetry_space_group_name_H-M "P 4/N C C"
_symmetry_group_IT_number 130
_symmetry_cell_setting 'tetragonal'
loop_
_space_group_symop_operation_xyz
x,y,z
1/2-y,x,z
1/2-x,1/2-y,z
y,1/2-x,z
1/2+x,-y,1/2-z
-x,1/2+y,1/2-z
1/2+y,1/2+x,1/2-z
-y,-x,1/2-z
-x,-y,-z
1/2+y,-x,-z
1/2+x,1/2+y,-z
-y,1/2+x,-z
1/2-x,y,1/2+z
x,1/2-y,1/2+z
1/2-y,1/2-x,1/2+z
y,x,1/2+z
loop_
_atom_site_type_symbol
_atom_site_label
_atom_site_fract_x
_atom_site_fract_y
_atom_site_fract_z
Si Si1 0.320073 0.950999 0.375153
Si Si2 0.007636 0.240476 0.504891
Si Si3 0.556090 0.567609 0.954375
Si Si4 0.767497 0.346428 0.920051
Si Si5 0.846645 0.383280 0.177292
Si Si6 0.009963 0.009899 0.327462
O O1 0.368830 0.867629 0.405583
O O2 0.252874 0.910589 0.324649
O O3 0.387595 0.013588 0.339642
O O4 0.271515 0.010780 0.427491
O O5 0.046819 0.332540 0.524494
O O6 0.051924 0.158889 0.539927
O O7 0.905932 0.237551 0.521015
O O8 0.530409 0.560922 0.877729
O O9 0.500000 0.500000 0.000000
O O10 0.750000 0.250000 0.943433
O O11 0.706614 0.366258 0.858256
O O12 0.871972 0.371972 0.250000
O O13 0.902588 0.462886 0.149296
O O14 0.997028 0.002973 0.250000
#
# Coordination Sequence:
#
# PCOD8315543 Si02
#       6
#    16  16  16  16  16  16
#     4  11  24  36  64  93 128 168 213 268 336 397
#     4  12  24  40  67  92 132 173 224 275 330 397
#     4  12  24  45  68  95 136 174 226 284 329 397
#     4  10  22  32  57  91 123 157 201 263 331 390
#     4  10  23  39  59  89 128 166 206 267 325 399
#     4  11  23  41  64  93 130 177 215 267 341 398
#
# _framework density 19.468886000000001
#
# number of rings (size 3 to 8) (size 9 to 14) (size 15 to 20)
#    0.000    1.000    5.000    1.000    9.333    2.667 
#    0.000    0.000    0.000    0.500    0.000    0.000 
#    0.000    0.000    0.000    0.000    0.000    0.000 
#
# Total GULP energy -1189526.913878 kJ/mol
# GULP energy per Si atom -12390.905353 kJ/mol
# Density = 1.942457 g / cm^3
# Si number density = 19.468886 Si / 1000 Ang^3
#
#
#
# Elastic Constant Matrix: (Units=GPa)
#
#
# Indices 1 2 3 4 5 6 
#
# 1 100.9253 41.2502 38.6627 0.0000 0.0000 0.0000
# 2 41.2502 100.9254 38.6628 0.0000 0.0000 0.0000
# 3 38.6627 38.6628 93.6818 0.0000 0.0000 0.0000
# 4 0.0000 0.0000 0.0000 26.5654 0.0000 0.0000
# 5 0.0000 0.0000 0.0000 0.0000 26.5653 0.0000
# 6 0.0000 0.0000 0.0000 0.0000 0.0000 34.9227
#
#
#
# Elastic Compliance Matrix: (Units=1/GPa)
#
#
# Indices 1 2 3 4 5 6 
#
# 1 0.012913 -0.003844 -0.003743 0.000000 0.000000 0.000000
# 2 -0.003844 0.012913 -0.003743 0.000000 0.000000 0.000000
# 3 -0.003743 -0.003743 0.013764 0.000000 0.000000 0.000000
# 4 0.000000 0.000000 0.000000 0.037643 0.000000 0.000000
# 5 0.000000 0.000000 0.000000 0.000000 0.037643 0.000000
# 6 0.000000 0.000000 0.000000 0.000000 0.000000 0.028635
#
#
# Mechanical properties :
#
#
# Convention : Reuss Voigt Hill
#
# Bulk Modulus (GPa) = 59.06432 59.18712 59.12572
# Shear Modulus (GPa) = 29.10116 29.40780 29.25448
#
# Velocity S-wave (km/s) = 3.87040 3.89073 3.88058
# Velocity P-wave (km/s) = 7.09767 7.11693 7.10731
#
# Compressibility (1/GPa) = 0.01693070
#
# Stress axis : x y z
#
# Youngs Moduli (GPa) = 77.43953 77.43952 72.65417
#
# Poissons Ratio (x) = 0.29768 0.27194
# Poissons Ratio (y) = 0.29768 0.27194
# Poissons Ratio (z) = 0.28985 0.28985
#
# Static dielectric constant tensor:
#      x y z
#    x 3.832780 0.000000 0.000000 
#    y 0.000000 3.832770 0.000000 
#    z 0.000000 0.000000 3.558880 
# 
# 
# High freq. dielectric constant tensor:
#      x y z
#    x 1.755430 0.000000 0.000000 
#    y 0.000000 1.755430 0.000000 
#    z 0.000000 0.000000 1.763140 
# 
# From -- ./inp_files/3786.got.cif
#   From: 2010.03.12/outbox.cif.g09.slc.cpg/sg130_2_cif.got.tgz:3786.got - 2010.04.06 17:30:23.
