data_PCOD8315160
_publ_section_title
;
Structure prediction by ZEFSAII (Michael W. Deem and Ramdas Pophale) SiO2 
 PCOD8315160
Probable space group: P 4/N M M
;
_chemical_formula_sum "Si O2"
_cell_formula_units_Z 80
_cell_length_a 18.972549
_cell_length_b 18.972549
_cell_length_c 12.538929
_cell_angle_alpha 90.000000
_cell_angle_beta 90.000000
_cell_angle_gamma 90.000000
_cell_volume 4513.482984
_symmetry_space_group_name_H-M "P 4/N M M"
_symmetry_group_IT_number 129
_symmetry_cell_setting 'tetragonal'
loop_
_space_group_symop_operation_xyz
x,y,z
1/2-y,x,z
1/2-x,1/2-y,z
y,1/2-x,z
1/2+x,-y,-z
-x,1/2+y,-z
1/2+y,1/2+x,-z
-y,-x,-z
-x,-y,-z
1/2+y,-x,-z
1/2+x,1/2+y,-z
-y,1/2+x,-z
1/2-x,y,z
x,1/2-y,z
1/2-y,1/2-x,z
y,x,z
loop_
_atom_site_type_symbol
_atom_site_label
_atom_site_fract_x
_atom_site_fract_y
_atom_site_fract_z
Si Si1 0.942590 0.829463 0.001162
Si Si2 0.444662 0.331365 0.356243
Si Si3 0.328632 0.966631 0.797716
Si Si4 0.670808 0.556827 0.402302
Si Si5 0.908437 0.023581 0.823650
O O1 0.932185 0.750000 0.960439
O O2 0.868106 0.868106 0.988099
O O3 0.966561 0.831963 0.123616
O O4 0.001745 0.867212 0.929799
O O5 0.432978 0.250000 0.328161
O O6 0.370194 0.370194 0.336191
O O7 0.470537 0.342890 0.477629
O O8 0.504047 0.364009 0.280805
O O9 0.250000 0.931459 0.807266
O O10 0.391597 0.913543 0.826883
O O11 0.342114 0.992017 0.677116
O O12 0.750000 0.586040 0.391126
O O13 0.620442 0.620442 0.370614
O O14 0.985307 0.985307 0.820752
#
# Coordination Sequence:
#
# PCOD8315160 Si02
#       5
#    16  16  16  16  16
#     4  10  20  33  51  75 101 129 159 192 234 285
#     4   9  18  31  48  72 100 130 162 196 237 285
#     4  10  20  33  49  70  96 125 161 204 243 281
#     4   9  17  29  45  68  98 128 159 195 236 285
#     4  10  19  32  51  72  96 128 164 200 240 284
#
# _framework density 17.72467
#
# number of rings (size 3 to 8) (size 9 to 14) (size 15 to 20)
#    0.000    2.400    0.000    3.000    0.000    3.000 
#    0.000    5.000    0.000    9.600    0.000    5.600 
#    0.000    9.600    0.000    0.200    0.000    0.000 
#
# Total GULP energy -991895.669460 kJ/mol
# GULP energy per Si atom -12398.695868 kJ/mol
# Density = 1.768433 g / cm^3
# Si number density = 17.724670 Si / 1000 Ang^3
#
#
#
# Elastic Constant Matrix: (Units=GPa)
#
#
# Indices 1 2 3 4 5 6 
#
# 1 112.0106 50.9826 30.9015 0.0000 0.0000 0.0000
# 2 50.9826 112.0106 30.9015 0.0000 0.0000 0.0000
# 3 30.9015 30.9015 80.2076 0.0000 0.0000 0.0000
# 4 0.0000 0.0000 0.0000 23.0783 0.0000 0.0000
# 5 0.0000 0.0000 0.0000 0.0000 23.0783 0.0000
# 6 0.0000 0.0000 0.0000 0.0000 0.0000 17.4468
#
#
#
# Elastic Compliance Matrix: (Units=1/GPa)
#
#
# Indices 1 2 3 4 5 6 
#
# 1 0.011785 -0.004601 -0.002768 0.000000 0.000000 0.000000
# 2 -0.004601 0.011785 -0.002768 0.000000 0.000000 0.000000
# 3 -0.002768 -0.002768 0.014601 0.000000 0.000000 0.000000
# 4 0.000000 0.000000 0.000000 0.043331 0.000000 0.000000
# 5 0.000000 0.000000 0.000000 0.000000 0.043331 0.000000
# 6 0.000000 0.000000 0.000000 0.000000 0.000000 0.057317
#
#
# Mechanical properties :
#
#
# Convention : Reuss Voigt Hill
#
# Bulk Modulus (GPa) = 55.87267 58.86668 57.36967
# Shear Modulus (GPa) = 23.99359 25.48358 24.73859
#
# Velocity S-wave (km/s) = 3.68324 3.79588 3.73998
# Velocity P-wave (km/s) = 7.04835 7.24537 7.14754
#
# Compressibility (1/GPa) = 0.01789784
#
# Stress axis : x y z
#
# Youngs Moduli (GPa) = 84.85095 84.85095 68.49052
#
# Poissons Ratio (x) = 0.39036 0.18959
# Poissons Ratio (y) = 0.39036 0.18959
# Poissons Ratio (z) = 0.23488 0.23488
#
# Static dielectric constant tensor:
#      x y z
#    x 3.145600 0.000000 0.000000 
#    y 0.000000 3.145600 0.000000 
#    z 0.000000 0.000000 3.564050 
# 
# 
# High freq. dielectric constant tensor:
#      x y z
#    x 1.665470 0.000000 0.000000 
#    y 0.000000 1.665470 0.000000 
#    z 0.000000 0.000000 1.708700 
# 
# From -- ./inp_files/4590.got.cif
#   From: 2010.03.12/outbox.cif.g09.slc.cpg/sg129_3_cif.got.tgz:4590.got - 2010.04.06 17:19:44.
