data_PCOD8315941
_publ_section_title
;
Structure prediction by ZEFSAII (Michael W. Deem and Ramdas Pophale) SiO2 
 PCOD8315941
Probable space group: P 42/M M C
;
_chemical_formula_sum "Si O2"
_cell_formula_units_Z 48
_cell_length_a 7.780933
_cell_length_b 7.780933
_cell_length_c 37.982663
_cell_angle_alpha 90.000000
_cell_angle_beta 90.000000
_cell_angle_gamma 90.000000
_cell_volume 2299.581265
_symmetry_space_group_name_H-M "P 42/M M C"
_symmetry_group_IT_number 131
_symmetry_cell_setting 'tetragonal'
loop_
_space_group_symop_operation_xyz
x,y,z
-x,-y,z
-y,x,1/2+z
y,-x,1/2+z
-x,y,-z
x,-y,-z
y,x,1/2-z
-y,-x,1/2-z
-x,-y,-z
x,y,-z
y,-x,1/2-z
-y,x,1/2-z
x,-y,z
-x,y,z
-y,-x,1/2+z
y,x,1/2+z
loop_
_atom_site_type_symbol
_atom_site_label
_atom_site_fract_x
_atom_site_fract_y
_atom_site_fract_z
Si Si1 0.795707 0.309329 0.460547
Si Si2 0.000000 0.205602 0.913637
Si Si3 0.000000 0.204353 0.834661
Si Si4 0.691576 0.801127 0.213167
O O1 0.729819 0.267207 0.500000
O O2 0.732613 0.500000 0.449183
O O3 0.721826 0.168797 0.433467
O O4 0.000000 0.303175 0.460277
O O5 0.000000 0.279909 0.874069
O O6 0.000000 0.000000 0.913608
O O7 0.170333 0.272248 0.814655
O O8 0.000000 0.000000 0.836453
O O9 0.702339 0.702339 0.250000
O O10 0.500000 0.774869 0.197483
O O11 0.731160 0.000000 0.220872
#
# Coordination Sequence:
#
# PCOD8315941 Si02
#       4
#    16   8   8  16
#     4   8  13  20  30  45  69 106 153 204 251 299
#     4   9  15  22  33  51  75 109 149 198 258 310
#     4   9  18  29  43  64  93 122 156 212 267 315
#     4  10  19  32  52  72  93 126 163 203 256 313
#
# _framework density 20.873365
#
# number of rings (size 3 to 8) (size 9 to 14) (size 15 to 20)
#    0.000    3.000    1.667    1.500    0.000    3.667 
#    0.000    6.667    0.000    0.000    0.000    0.000 
#    0.000    0.000    0.000    0.000    0.000   13.333 
#
# Total GULP energy -594989.089327 kJ/mol
# GULP energy per Si atom -12395.606028 kJ/mol
# Density = 2.082586 g / cm^3
# Si number density = 20.873365 Si / 1000 Ang^3
#
#
#
# Elastic Constant Matrix: (Units=GPa)
#
#
# Indices 1 2 3 4 5 6 
#
# 1 95.1590 26.8302 61.8730 0.0000 0.0000 0.0000
# 2 26.8302 95.1590 61.8730 0.0000 0.0000 0.0000
# 3 61.8730 61.8730 182.3109 0.0000 0.0000 0.0000
# 4 0.0000 0.0000 0.0000 0.0279 0.0000 0.0000
# 5 0.0000 0.0000 0.0000 0.0000 0.0279 0.0000
# 6 0.0000 0.0000 0.0000 0.0000 0.0000 2.3710
#
#
#
# Elastic Compliance Matrix: (Units=1/GPa)
#
#
# Indices 1 2 3 4 5 6 
#
# 1 0.013568 -0.001067 -0.004243 0.000000 0.000000 0.000000
# 2 -0.001067 0.013568 -0.004243 0.000000 0.000000 0.000000
# 3 -0.004243 -0.004243 0.008365 0.000000 0.000000 0.000000
# 4 0.000000 0.000000 0.000000 35.789611 0.000000 0.000000
# 5 0.000000 0.000000 0.000000 0.000000 35.789611 0.000000
# 6 0.000000 0.000000 0.000000 0.000000 0.000000 0.421770
#
#
# Mechanical properties :
#
#
# Convention : Reuss Voigt Hill
#
# Bulk Modulus (GPa) = 60.98814 74.86460 67.92637
# Shear Modulus (GPa) = 0.06939 15.28888 7.67913
#
# Velocity S-wave (km/s) = 0.18252 2.70933 1.92013
# Velocity P-wave (km/s) = 5.41535 6.76249 6.12606
#
# Compressibility (1/GPa) = 0.01639663
#
# Stress axis : x y z
#
# Youngs Moduli (GPa) = 73.70185 73.70185 119.54687
#
# Poissons Ratio (x) = 0.07864 0.50720
# Poissons Ratio (y) = 0.07864 0.50720
# Poissons Ratio (z) = 0.31269 0.31269
#
# Static dielectric constant tensor:
#      x y z
#    x 3.579590 0.000000 0.000000 
#    y 0.000000 3.579590 0.000000 
#    z 0.000000 0.000000 3.873010 
# 
# 
# High freq. dielectric constant tensor:
#      x y z
#    x 1.794000 0.000000 0.000000 
#    y 0.000000 1.794000 0.000000 
#    z 0.000000 0.000000 1.803820 
# 
# From -- ./inp_files/12885.got.cif
#   From: 2010.03.12/outbox.cif.g09.slc.cpg/sg131_7_cif.got.tgz:12885.got - 2010.04.06 17:36:35.
