data_PCOD8315484
_publ_section_title
;
Structure prediction by ZEFSAII (Michael W. Deem and Ramdas Pophale) SiO2 
 PCOD8315484
Probable space group: P 4/N C C
;
_chemical_formula_sum "Si O2"
_cell_formula_units_Z 112
_cell_length_a 14.704120
_cell_length_b 14.704120
_cell_length_c 25.622310
_cell_angle_alpha 90.000000
_cell_angle_beta 90.000000
_cell_angle_gamma 90.000000
_cell_volume 5539.828982
_symmetry_space_group_name_H-M "P 4/N C C"
_symmetry_group_IT_number 130
_symmetry_cell_setting 'tetragonal'
loop_
_space_group_symop_operation_xyz
x,y,z
1/2-y,x,z
1/2-x,1/2-y,z
y,1/2-x,z
1/2+x,-y,1/2-z
-x,1/2+y,1/2-z
1/2+y,1/2+x,1/2-z
-y,-x,1/2-z
-x,-y,-z
1/2+y,-x,-z
1/2+x,1/2+y,-z
-y,1/2+x,-z
1/2-x,y,1/2+z
x,1/2-y,1/2+z
1/2-y,1/2-x,1/2+z
y,x,1/2+z
loop_
_atom_site_type_symbol
_atom_site_label
_atom_site_fract_x
_atom_site_fract_y
_atom_site_fract_z
Si Si1 0.520874 0.821534 0.316826
Si Si2 0.561079 0.287228 0.543871
Si Si3 0.133419 0.035163 0.136870
Si Si4 0.959826 0.565270 0.623170
Si Si5 0.561783 0.207149 0.436571
Si Si6 0.381848 0.883702 0.391008
Si Si7 0.833635 0.876310 0.214332
O O1 0.590032 0.864302 0.360056
O O2 0.525226 0.712757 0.320014
O O3 0.419046 0.856240 0.332720
O O4 0.556008 0.861031 0.261648
O O5 0.479057 0.328178 0.578419
O O6 0.527529 0.269179 0.484945
O O7 0.643957 0.357480 0.543204
O O8 0.594472 0.193229 0.567883
O O9 0.056951 0.958285 0.150800
O O10 0.931119 0.476767 0.589814
O O11 0.876160 0.580626 0.662573
O O12 0.975344 0.651535 0.585554
O O13 0.600340 0.273080 0.390689
O O14 0.724681 0.874228 0.216591
#
# Coordination Sequence:
#
# PCOD8315484 Si02
#       7
#    16  16  16  16  16  16  16
#     4  10  19  38  59  89 121 153 207 266 319 383
#     4  10  20  35  60  89 121 165 212 256 316 386
#     4   9  20  36  56  88 121 155 203 263 315 372
#     4  10  23  39  57  89 126 163 205 274 320 376
#     4  11  20  38  61  88 128 167 216 258 318 393
#     4  10  21  35  58  89 121 160 208 266 312 381
#     4  11  22  39  67  91 114 163 215 257 325 401
#
# _framework density 20.217230000000001
#
# number of rings (size 3 to 8) (size 9 to 14) (size 15 to 20)
#    0.000    1.857    2.857    1.286    0.000    3.143 
#    5.143    0.000    0.000    0.000    0.000    2.000 
#    0.000    0.000    0.000    0.000    0.000    0.000 
#
# Total GULP energy -1387858.447579 kJ/mol
# GULP energy per Si atom -12391.593282 kJ/mol
# Density = 2.017121 g / cm^3
# Si number density = 20.217230 Si / 1000 Ang^3
#
#
#
# Elastic Constant Matrix: (Units=GPa)
#
#
# Indices 1 2 3 4 5 6 
#
# 1 47.0183 -0.7247 26.7414 0.0000 0.0000 0.0000
# 2 -0.7247 47.0183 26.7414 0.0000 0.0000 0.0000
# 3 26.7414 26.7414 93.0381 0.0000 0.0000 0.0000
# 4 0.0000 0.0000 0.0000 29.8947 0.0000 0.0000
# 5 0.0000 0.0000 0.0000 0.0000 29.8947 0.0000
# 6 0.0000 0.0000 0.0000 0.0000 0.0000 19.0670
#
#
#
# Elastic Compliance Matrix: (Units=1/GPa)
#
#
# Indices 1 2 3 4 5 6 
#
# 1 0.026643 0.005697 -0.009295 0.000000 0.000000 0.000000
# 2 0.005697 0.026643 -0.009295 0.000000 0.000000 0.000000
# 3 -0.009295 -0.009295 0.016092 0.000000 0.000000 0.000000
# 4 0.000000 0.000000 0.000000 0.033451 0.000000 0.000000
# 5 0.000000 0.000000 0.000000 0.000000 0.033451 0.000000
# 6 0.000000 0.000000 0.000000 0.000000 0.000000 0.052447
#
#
# Mechanical properties :
#
#
# Convention : Reuss Voigt Hill
#
# Bulk Modulus (GPa) = 22.94073 32.51009 27.72541
# Shear Modulus (GPa) = 21.83006 24.72575 23.27791
#
# Velocity S-wave (km/s) = 3.28956 3.50094 3.39689
# Velocity P-wave (km/s) = 5.07937 5.69714 5.39710
#
# Compressibility (1/GPa) = 0.04359058
#
# Stress axis : x y z
#
# Youngs Moduli (GPa) = 37.53364 37.53364 62.14398
#
# Poissons Ratio (x) = -0.21384 0.57765
# Poissons Ratio (y) = -0.21384 0.57765
# Poissons Ratio (z) = 0.34889 0.34889
#
# Static dielectric constant tensor:
#      x y z
#    x 3.821770 0.000000 0.000000 
#    y 0.000000 3.821770 0.000000 
#    z 0.000000 0.000000 3.504160 
# 
# 
# High freq. dielectric constant tensor:
#      x y z
#    x 1.791760 0.000000 0.000000 
#    y 0.000000 1.791760 0.000000 
#    z 0.000000 0.000000 1.762370 
# 
# From -- ./inp_files/4310.got.cif
#   From: 2010.03.12/outbox.cif.g09.slc.cpg/sg130_3_cif.got.tgz:4310.got - 2010.04.06 17:30:23.
