data_PCOD8315470
_publ_section_title
;
Structure prediction by ZEFSAII (Michael W. Deem and Ramdas Pophale) SiO2 
 PCOD8315470
Probable space group: P 4/N C C
;
_chemical_formula_sum "Si O2"
_cell_formula_units_Z 64
_cell_length_a 13.622363
_cell_length_b 13.622363
_cell_length_c 18.783283
_cell_angle_alpha 90.000000
_cell_angle_beta 90.000000
_cell_angle_gamma 90.000000
_cell_volume 3485.590792
_symmetry_space_group_name_H-M "P 4/N C C"
_symmetry_group_IT_number 130
_symmetry_cell_setting 'tetragonal'
loop_
_space_group_symop_operation_xyz
x,y,z
1/2-y,x,z
1/2-x,1/2-y,z
y,1/2-x,z
1/2+x,-y,1/2-z
-x,1/2+y,1/2-z
1/2+y,1/2+x,1/2-z
-y,-x,1/2-z
-x,-y,-z
1/2+y,-x,-z
1/2+x,1/2+y,-z
-y,1/2+x,-z
1/2-x,y,1/2+z
x,1/2-y,1/2+z
1/2-y,1/2-x,1/2+z
y,x,1/2+z
loop_
_atom_site_type_symbol
_atom_site_label
_atom_site_fract_x
_atom_site_fract_y
_atom_site_fract_z
Si Si1 0.116575 0.023593 0.569895
Si Si2 0.499186 0.180802 0.134812
Si Si3 0.810219 0.600318 0.220985
Si Si4 0.501524 0.098606 0.410009
O O1 0.094829 0.138126 0.589922
O O2 0.205746 0.982030 0.616856
O O3 0.146208 0.011698 0.487555
O O4 0.015767 0.962845 0.587918
O O5 0.478146 0.163261 0.218265
O O6 0.595376 0.116739 0.113476
O O7 0.876116 0.696327 0.229634
O O8 0.832944 0.557113 0.143666
#
# Coordination Sequence:
#
# PCOD8315470 Si02
#       4
#    16  16  16  16
#     4   9  20  34  56  79 108 146 187 227 280 329
#     4  10  18  36  56  78 111 144 182 225 281 333
#     4  11  21  33  54  86 114 144 181 232 284 330
#     4   9  21  35  52  84 113 144 184 231 281 323
#
# _framework density 18.361305999999999
#
# number of rings (size 3 to 8) (size 9 to 14) (size 15 to 20)
#    1.500    0.750    2.500    0.750    3.500    0.500 
#    0.000    0.000    0.000    5.250    0.000    7.000 
#    0.000    0.000    0.000    0.000    0.000    0.000 
#
# Total GULP energy -792924.520260 kJ/mol
# GULP energy per Si atom -12389.445629 kJ/mol
# Density = 1.831952 g / cm^3
# Si number density = 18.361306 Si / 1000 Ang^3
#
#
#
# Elastic Constant Matrix: (Units=GPa)
#
#
# Indices 1 2 3 4 5 6 
#
# 1 26.5002 14.2437 15.7634 0.0000 0.0000 0.0000
# 2 14.2437 26.5002 15.7634 0.0000 0.0000 0.0000
# 3 15.7634 15.7634 128.3143 0.0000 0.0000 0.0000
# 4 0.0000 0.0000 0.0000 27.7299 0.0000 0.0000
# 5 0.0000 0.0000 0.0000 0.0000 27.7299 0.0000
# 6 0.0000 0.0000 0.0000 0.0000 0.0000 14.4339
#
#
#
# Elastic Compliance Matrix: (Units=1/GPa)
#
#
# Indices 1 2 3 4 5 6 
#
# 1 0.054355 -0.027234 -0.003332 0.000000 0.000000 0.000000
# 2 -0.027234 0.054355 -0.003332 0.000000 0.000000 0.000000
# 3 -0.003332 -0.003332 0.008612 0.000000 0.000000 0.000000
# 4 0.000000 0.000000 0.000000 0.036062 0.000000 0.000000
# 5 0.000000 0.000000 0.000000 0.000000 0.036062 0.000000
# 6 0.000000 0.000000 0.000000 0.000000 0.000000 0.069281
#
#
# Mechanical properties :
#
#
# Convention : Reuss Voigt Hill
#
# Bulk Modulus (GPa) = 20.19070 30.31733 25.25402
# Shear Modulus (GPa) = 14.57585 23.01500 18.79543
#
# Velocity S-wave (km/s) = 2.82056 3.54425 3.20291
# Velocity P-wave (km/s) = 4.65055 5.77030 5.24042
#
# Compressibility (1/GPa) = 0.04952775
#
# Stress axis : x y z
#
# Youngs Moduli (GPa) = 18.39741 18.39741 116.11684
#
# Poissons Ratio (x) = 0.50103 0.38689
# Poissons Ratio (y) = 0.50103 0.38689
# Poissons Ratio (z) = 0.06130 0.06130
#
# Static dielectric constant tensor:
#      x y z
#    x 3.076580 0.000000 0.000000 
#    y 0.000000 3.076580 0.000000 
#    z 0.000000 0.000000 3.348660 
# 
# 
# High freq. dielectric constant tensor:
#      x y z
#    x 1.681790 0.000000 0.000000 
#    y 0.000000 1.681790 0.000000 
#    z 0.000000 0.000000 1.727070 
# 
# From -- ./inp_files/2840.got.cif
#   From: 2010.03.12/outbox.cif.g09.slc.cpg/sg130_2_cif.got.tgz:2840.got - 2010.04.06 17:30:23.
