data_PCOD8315283
_publ_section_title
;
Structure prediction by ZEFSAII (Michael W. Deem and Ramdas Pophale) SiO2 
 PCOD8315283
Probable space group: P 4/N M M
;
_chemical_formula_sum "Si O2"
_cell_formula_units_Z 112
_cell_length_a 13.677702
_cell_length_b 13.677702
_cell_length_c 35.573087
_cell_angle_alpha 90.000000
_cell_angle_beta 90.000000
_cell_angle_gamma 90.000000
_cell_volume 6654.996468
_symmetry_space_group_name_H-M "P 4/N M M"
_symmetry_group_IT_number 129
_symmetry_cell_setting 'tetragonal'
loop_
_space_group_symop_operation_xyz
x,y,z
1/2-y,x,z
1/2-x,1/2-y,z
y,1/2-x,z
1/2+x,-y,-z
-x,1/2+y,-z
1/2+y,1/2+x,-z
-y,-x,-z
-x,-y,-z
1/2+y,-x,-z
1/2+x,1/2+y,-z
-y,1/2+x,-z
1/2-x,y,z
x,1/2-y,z
1/2-y,1/2-x,z
y,x,z
loop_
_atom_site_type_symbol
_atom_site_label
_atom_site_fract_x
_atom_site_fract_y
_atom_site_fract_z
Si Si1 0.137994 0.861792 0.105888
Si Si2 0.135486 0.523598 0.030982
Si Si3 0.860108 0.135483 0.604584
Si Si4 0.977317 0.363316 0.240000
Si Si5 0.638221 0.017605 0.675553
Si Si6 0.022747 0.863853 0.180346
Si Si7 0.475950 0.634441 0.468794
O O1 0.250000 0.876399 0.118273
O O2 0.119099 0.750000 0.093628
O O3 0.110832 0.931435 0.071454
O O4 0.070425 0.891767 0.140613
O O5 0.250000 0.502652 0.025907
O O6 0.078627 0.421374 0.026259
O O7 0.101430 0.601430 0.000000
O O8 0.750000 0.098839 0.595477
O O9 0.861078 0.250000 0.609297
O O10 0.931741 0.102885 0.571307
O O11 0.898948 0.093487 0.644168
O O12 0.999341 0.250000 0.231742
O O13 0.891694 0.401407 0.213087
O O14 0.077544 0.422457 0.232377
O O15 0.939292 0.379659 0.282686
O O16 0.750000 0.991690 0.669188
O O17 0.583892 0.916109 0.670088
O O18 0.998612 0.750000 0.183291
O O19 0.921545 0.921545 0.185076
O O20 0.397430 0.602571 0.500000
O O21 0.494915 0.750000 0.471751
O O22 0.578727 0.578727 0.474670
#
# Coordination Sequence:
#
# PCOD8315283 Si02
#       7
#    16  16  16  16  16  16  16
#     4   9  17  30  50  74  96 120 153 192 233 278
#     4  10  20  33  50  72  98 128 161 197 236 278
#     4   9  17  29  46  68  92 119 153 191 228 267
#     4   9  18  31  47  69  95 123 156 193 234 280
#     4   9  17  29  45  66  93 122 151 185 225 271
#     4  10  20  33  49  69  94 124 158 196 236 278
#     4  10  20  33  50  71  94 122 155 191 232 276
#
# _framework density 16.829460000000001
#
# number of rings (size 3 to 8) (size 9 to 14) (size 15 to 20)
#    0.000    2.571    0.000    2.143    0.000    3.571 
#    0.000    2.857    0.000    0.000    0.000    6.000 
#    0.000    3.429    0.000    0.000    0.000    0.000 
#
# Total GULP energy -1388760.999115 kJ/mol
# GULP energy per Si atom -12399.651778 kJ/mol
# Density = 1.679116 g / cm^3
# Si number density = 16.829460 Si / 1000 Ang^3
#
#
#
# Elastic Constant Matrix: (Units=GPa)
#
#
# Indices 1 2 3 4 5 6 
#
# 1 79.6839 43.1128 52.2474 0.0000 0.0000 0.0000
# 2 43.1128 79.6827 52.2474 0.0000 0.0000 0.0000
# 3 52.2474 52.2474 112.9619 0.0000 0.0000 0.0000
# 4 0.0000 0.0000 0.0000 27.1895 0.0000 0.0000
# 5 0.0000 0.0000 0.0000 0.0000 27.1894 0.0000
# 6 0.0000 0.0000 0.0000 0.0000 0.0000 19.4785
#
#
#
# Elastic Compliance Matrix: (Units=1/GPa)
#
#
# Indices 1 2 3 4 5 6 
#
# 1 0.020387 -0.006958 -0.006211 0.000000 0.000000 0.000000
# 2 -0.006958 0.020387 -0.006211 0.000000 0.000000 0.000000
# 3 -0.006211 -0.006211 0.014598 0.000000 0.000000 0.000000
# 4 0.000000 0.000000 0.000000 0.036779 0.000000 0.000000
# 5 0.000000 0.000000 0.000000 0.000000 0.036779 0.000000
# 6 0.000000 0.000000 0.000000 0.000000 0.000000 0.051339
#
#
# Mechanical properties :
#
#
# Convention : Reuss Voigt Hill
#
# Bulk Modulus (GPa) = 60.19952 63.06039 61.62995
# Shear Modulus (GPa) = 22.26518 23.08621 22.67570
#
# Velocity S-wave (km/s) = 3.64124 3.70776 3.67465
# Velocity P-wave (km/s) = 7.31615 7.47540 7.39621
#
# Compressibility (1/GPa) = 0.01661143
#
# Stress axis : x y z
#
# Youngs Moduli (GPa) = 49.05188 49.05084 68.50135
#
# Poissons Ratio (x) = 0.34128 0.42547
# Poissons Ratio (y) = 0.34129 0.42549
# Poissons Ratio (z) = 0.30467 0.30467
#
# Static dielectric constant tensor:
#      x y z
#    x 3.039980 0.000000 0.000000 
#    y 0.000000 3.039980 0.000000 
#    z 0.000000 0.000000 3.366160 
# 
# 
# High freq. dielectric constant tensor:
#      x y z
#    x 1.641100 0.000000 0.000000 
#    y 0.000000 1.641100 0.000000 
#    z 0.000000 0.000000 1.663310 
# 
# From -- ./inp_files/7908.got.cif
#   From: 2010.03.12/outbox.cif.g09.slc.cpg/sg129_4_cif.got.tgz:7908.got - 2010.04.06 17:19:44.
