data_PCOD8315573
_publ_section_title
;
Structure prediction by ZEFSAII (Michael W. Deem and Ramdas Pophale) SiO2 
 PCOD8315573
Probable space group: P 4/N C C
;
_chemical_formula_sum "Si O2"
_cell_formula_units_Z 56
_cell_length_a 16.001495
_cell_length_b 16.001495
_cell_length_c 9.386665
_cell_angle_alpha 90.000000
_cell_angle_beta 90.000000
_cell_angle_gamma 90.000000
_cell_volume 2403.435319
_symmetry_space_group_name_H-M "P 4/N C C"
_symmetry_group_IT_number 130
_symmetry_cell_setting 'tetragonal'
loop_
_space_group_symop_operation_xyz
x,y,z
1/2-y,x,z
1/2-x,1/2-y,z
y,1/2-x,z
1/2+x,-y,1/2-z
-x,1/2+y,1/2-z
1/2+y,1/2+x,1/2-z
-y,-x,1/2-z
-x,-y,-z
1/2+y,-x,-z
1/2+x,1/2+y,-z
-y,1/2+x,-z
1/2-x,y,1/2+z
x,1/2-y,1/2+z
1/2-y,1/2-x,1/2+z
y,x,1/2+z
loop_
_atom_site_type_symbol
_atom_site_label
_atom_site_fract_x
_atom_site_fract_y
_atom_site_fract_z
Si Si1 0.500889 0.499112 0.750000
Si Si2 0.600945 0.555089 0.000017
Si Si3 0.252432 0.614101 0.278076
Si Si4 0.273399 0.497740 0.529644
O O1 0.580714 0.501556 0.856143
O O2 0.501198 0.578417 0.641991
O O3 0.700027 0.570198 0.000858
O O4 0.548374 0.640134 0.001660
O O5 0.176788 0.676788 0.250000
O O6 0.340488 0.659513 0.250000
O O7 0.258897 0.582243 0.439800
O O8 0.235037 0.529427 0.190191
#
# Coordination Sequence:
#
# PCOD8315573 Si02
#       4
#     8  16  16  16
#     4  10  24  42  68  96 134 174 232 274 318 400
#     4  11  26  43  68 102 132 183 223 278 340 394
#     4  11  26  44  66 101 140 180 220 279 352 406
#     4  12  26  42  72  98 138 182 220 288 328 412
#
# _framework density 23.299983000000001
#
# number of rings (size 3 to 8) (size 9 to 14) (size 15 to 20)
#    0.000    0.857    0.000    5.143   24.000    2.857 
#    0.000    0.000    0.000    6.857    0.000    0.000 
#    0.000    0.000    0.000    0.000    0.000    0.000 
#
# Total GULP energy -694129.190832 kJ/mol
# GULP energy per Si atom -12395.164122 kJ/mol
# Density = 2.324695 g / cm^3
# Si number density = 23.299983 Si / 1000 Ang^3
#
#
#
# Elastic Constant Matrix: (Units=GPa)
#
#
# Indices 1 2 3 4 5 6 
#
# 1 108.3339 68.0156 26.3388 0.0000 0.0000 0.0000
# 2 68.0156 108.3351 26.3391 0.0000 0.0000 0.0000
# 3 26.3388 26.3391 128.8550 0.0000 0.0000 0.0000
# 4 0.0000 0.0000 0.0000 22.1984 0.0000 0.0000
# 5 0.0000 0.0000 0.0000 0.0000 22.1980 0.0000
# 6 0.0000 0.0000 0.0000 0.0000 0.0000 44.5258
#
#
#
# Elastic Compliance Matrix: (Units=1/GPa)
#
#
# Indices 1 2 3 4 5 6 
#
# 1 0.015421 -0.009381 -0.001234 0.000000 0.000000 0.000000
# 2 -0.009381 0.015421 -0.001234 0.000000 0.000000 0.000000
# 3 -0.001234 -0.001234 0.008265 0.000000 0.000000 0.000000
# 4 0.000000 0.000000 0.000000 0.045048 0.000000 0.000000
# 5 0.000000 0.000000 0.000000 0.000000 0.045049 0.000000
# 6 0.000000 0.000000 0.000000 0.000000 0.000000 0.022459
#
#
# Mechanical properties :
#
#
# Convention : Reuss Voigt Hill
#
# Bulk Modulus (GPa) = 64.90974 65.21233 65.06103
# Shear Modulus (GPa) = 27.70091 32.77313 30.23702
#
# Velocity S-wave (km/s) = 3.45176 3.75450 3.60631
# Velocity P-wave (km/s) = 6.61853 6.84426 6.73234
#
# Compressibility (1/GPa) = 0.01540601
#
# Stress axis : x y z
#
# Youngs Moduli (GPa) = 64.84722 64.84792 120.98722
#
# Poissons Ratio (x) = 0.60837 0.14935
# Poissons Ratio (y) = 0.60836 0.14936
# Poissons Ratio (z) = 0.08005 0.08005
#
# Static dielectric constant tensor:
#      x y z
#    x 3.965570 0.000000 0.000000 
#    y 0.000000 3.965560 0.000000 
#    z 0.000000 0.000000 4.437960 
# 
# 
# High freq. dielectric constant tensor:
#      x y z
#    x 1.911590 0.000000 0.000000 
#    y 0.000000 1.911590 0.000000 
#    z 0.000000 0.000000 1.943630 
# 
# From -- ./inp_files/603.got.cif
#   From: 2010.03.12/outbox.cif.g09.slc.cpg/sg130_1_cif.got.tgz:603.got - 2010.04.06 17:30:23.
