data_PCOD8315984
_publ_section_title
;
Structure prediction by ZEFSAII (Michael W. Deem and Ramdas Pophale) SiO2 
 PCOD8315984
Probable space group: P 42/M M C
;
_chemical_formula_sum "Si O2"
_cell_formula_units_Z 88
_cell_length_a 12.431803
_cell_length_b 12.431803
_cell_length_c 30.820823
_cell_angle_alpha 90.000000
_cell_angle_beta 90.000000
_cell_angle_gamma 90.000000
_cell_volume 4763.349745
_symmetry_space_group_name_H-M "P 42/M M C"
_symmetry_group_IT_number 131
_symmetry_cell_setting 'tetragonal'
loop_
_space_group_symop_operation_xyz
x,y,z
-x,-y,z
-y,x,1/2+z
y,-x,1/2+z
-x,y,-z
x,-y,-z
y,x,1/2-z
-y,-x,1/2-z
-x,-y,-z
x,y,-z
y,-x,1/2-z
-y,x,1/2-z
x,-y,z
-x,y,z
-y,-x,1/2+z
y,x,1/2+z
loop_
_atom_site_type_symbol
_atom_site_label
_atom_site_fract_x
_atom_site_fract_y
_atom_site_fract_z
Si Si1 0.376330 0.119260 0.650691
Si Si2 0.269225 0.713326 0.404921
Si Si3 0.881044 0.119865 0.948984
Si Si4 0.878793 0.622770 0.668375
Si Si5 0.500000 0.627566 0.948439
Si Si6 0.289575 0.874941 0.258857
O O1 0.500000 0.101948 0.657690
O O2 0.359643 0.203566 0.611599
O O3 0.333221 0.170381 0.695652
O O4 0.325601 0.000000 0.640741
O O5 0.196204 0.781452 0.437513
O O6 0.199439 0.686352 0.362980
O O7 0.319882 0.607738 0.427758
O O8 0.000000 0.158903 0.932043
O O9 0.858481 0.000000 0.930457
O O10 0.885465 0.115356 0.000000
O O11 0.873625 0.500000 0.654214
O O12 0.842980 0.633080 0.718668
O O13 0.000000 0.668113 0.662797
O O14 0.500000 0.500000 0.938657
O O15 0.500000 0.649694 0.000000
O O16 0.172303 0.827698 0.250000
O O17 0.276320 0.000000 0.263318
#
# Coordination Sequence:
#
# PCOD8315984 Si02
#       6
#    16  16  16  16   8  16
#     4  10  21  36  56  81 109 144 191 239 280 327
#     4  12  20  36  60  83 108 144 187 232 278 339
#     4   9  19  36  57  83 114 144 176 219 275 339
#     4  10  20  34  53  79 110 144 183 224 267 322
#     4  11  26  44  59  81 113 149 188 240 305 355
#     4  10  19  34  53  76 111 150 184 221 273 329
#
# _framework density 18.474395999999999
#
# number of rings (size 3 to 8) (size 9 to 14) (size 15 to 20)
#    0.000    1.727    2.727    3.273    0.000    2.364 
#    0.000    0.000    0.000    2.182    0.000    8.909 
#    0.000    0.000    0.000    0.000    0.000    0.000 
#
# Total GULP energy -1090378.584019 kJ/mol
# GULP energy per Si atom -12390.665727 kJ/mol
# Density = 1.843235 g / cm^3
# Si number density = 18.474396 Si / 1000 Ang^3
#
#
#
# Elastic Constant Matrix: (Units=GPa)
#
#
# Indices 1 2 3 4 5 6 
#
# 1 143.9114 -1.1823 43.8855 0.0000 0.0000 0.0000
# 2 -1.1823 143.9303 43.8845 0.0000 0.0000 0.0000
# 3 43.8855 43.8845 88.5813 0.0000 0.0000 0.0000
# 4 0.0000 0.0000 0.0000 29.3469 0.0000 0.0000
# 5 0.0000 0.0000 0.0000 0.0000 29.3476 0.0000
# 6 0.0000 0.0000 0.0000 0.0000 0.0000 -18.7498
#
#
#
# Elastic Compliance Matrix: (Units=1/GPa)
#
#
# Indices 1 2 3 4 5 6 
#
# 1 0.008484 0.001592 -0.004992 0.000000 0.000000 0.000000
# 2 0.001592 0.008483 -0.004991 0.000000 0.000000 0.000000
# 3 -0.004992 -0.004991 0.016235 0.000000 0.000000 0.000000
# 4 0.000000 0.000000 0.000000 0.034075 0.000000 0.000000
# 5 0.000000 0.000000 0.000000 0.000000 0.034074 0.000000
# 6 0.000000 0.000000 0.000000 0.000000 0.000000 -0.053334
#
#
# Mechanical properties :
#
#
# Convention : Reuss Voigt Hill
#
# Bulk Modulus (GPa) = 60.90405 61.06648 60.98527
# Shear Modulus (GPa) = 71.15186 27.31128 49.23157
#
# Velocity S-wave (km/s) = 6.21268 3.84908 5.16782
# Velocity P-wave (km/s) = 9.19247 7.27188 8.28800
#
# Compressibility (1/GPa) = 0.01641927
#
# Stress axis : x y z
#
# Youngs Moduli (GPa) = 117.86867 117.88787 61.59640
#
# Poissons Ratio (x) = -0.18764 0.30747
# Poissons Ratio (y) = -0.18761 0.30743
# Poissons Ratio (z) = 0.58837 0.58838
#
# Static dielectric constant tensor:
#      x y z
#    x 3.486950 0.000000 0.000000 
#    y 0.000000 3.486940 0.000000 
#    z 0.000000 0.000000 3.103760 
# 
# 
# High freq. dielectric constant tensor:
#      x y z
#    x 1.715820 0.000000 0.000000 
#    y 0.000000 1.715820 0.000000 
#    z 0.000000 0.000000 1.719120 
# 
# From -- ./inp_files/13549.got.cif
#   From: 2010.03.12/outbox.cif.g09.slc.cpg/sg131_7_cif.got.tgz:13549.got - 2010.04.06 17:36:35.
