data_PCOD8315225
_publ_section_title
;
Structure prediction by ZEFSAII (Michael W. Deem and Ramdas Pophale) SiO2 
 PCOD8315225
Probable space group: P 4/N M M
;
_chemical_formula_sum "Si O2"
_cell_formula_units_Z 112
_cell_length_a 13.943875
_cell_length_b 13.943875
_cell_length_c 35.221066
_cell_angle_alpha 90.000000
_cell_angle_beta 90.000000
_cell_angle_gamma 90.000000
_cell_volume 6848.089978
_symmetry_space_group_name_H-M "P 4/N M M"
_symmetry_group_IT_number 129
_symmetry_cell_setting 'tetragonal'
loop_
_space_group_symop_operation_xyz
x,y,z
1/2-y,x,z
1/2-x,1/2-y,z
y,1/2-x,z
1/2+x,-y,-z
-x,1/2+y,-z
1/2+y,1/2+x,-z
-y,-x,-z
-x,-y,-z
1/2+y,-x,-z
1/2+x,1/2+y,-z
-y,1/2+x,-z
1/2-x,y,z
x,1/2-y,z
1/2-y,1/2-x,z
y,x,z
loop_
_atom_site_type_symbol
_atom_site_label
_atom_site_fract_x
_atom_site_fract_y
_atom_site_fract_z
Si Si1 0.017442 0.639556 0.973384
Si Si2 0.360613 0.984103 0.612587
Si Si3 0.636025 0.480550 0.667971
Si Si4 0.143619 0.636030 0.822481
Si Si5 0.489383 0.640633 0.887841
Si Si6 0.359068 0.514026 0.524507
Si Si7 0.642819 0.136523 0.261363
O O1 0.994243 0.750000 0.982658
O O2 0.920738 0.579263 0.981057
O O3 0.054134 0.627517 0.930015
O O4 0.103210 0.603210 0.000000
O O5 0.250000 0.997586 0.624955
O O6 0.417217 0.082784 0.621944
O O7 0.368820 0.958112 0.568445
O O8 0.408420 0.895010 0.634506
O O9 0.750000 0.497850 0.666109
O O10 0.582940 0.582940 0.663915
O O11 0.600651 0.432306 0.707311
O O12 0.250000 0.594463 0.828084
O O13 0.145872 0.750000 0.825878
O O14 0.105800 0.605320 0.780614
O O15 0.079618 0.592498 0.856358
O O16 0.507848 0.750000 0.877654
O O17 0.592586 0.592586 0.885449
O O18 0.396844 0.603157 0.500000
O O19 0.250000 0.492567 0.513196
O O20 0.418486 0.418486 0.514622
O O21 0.750000 0.094483 0.268911
O O22 0.649974 0.250000 0.263569
#
# Coordination Sequence:
#
# PCOD8315225 Si02
#       7
#    16  16  16  16  16  16  16
#     4   9  18  31  45  63  87 114 146 184 225 269
#     4   9  18  32  50  72  95 119 149 187 232 278
#     4  10  20  32  46  65  90 121 156 192 229 270
#     4   8  14  25  41  61  84 109 139 176 215 253
#     4   9  17  28  42  61  86 115 144 174 210 255
#     4   9  18  32  49  70  96 123 152 188 228 271
#     4   8  14  26  44  63  82 107 141 181 222 260
#
# _framework density 16.354925999999999
#
# number of rings (size 3 to 8) (size 9 to 14) (size 15 to 20)
#    0.000    3.143    0.000    1.286    0.000    3.571 
#    0.000    5.714    0.000    0.000    0.000    8.000 
#    0.000    0.286    0.000    3.143    0.000    5.429 
#
# Total GULP energy -1388202.533095 kJ/mol
# GULP energy per Si atom -12394.665474 kJ/mol
# Density = 1.631770 g / cm^3
# Si number density = 16.354926 Si / 1000 Ang^3
#
#
#
# Elastic Constant Matrix: (Units=GPa)
#
#
# Indices 1 2 3 4 5 6 
#
# 1 87.0139 40.2074 50.8827 0.0000 0.0000 0.0000
# 2 40.2074 87.0116 50.8829 0.0000 0.0000 0.0000
# 3 50.8827 50.8829 89.2742 0.0000 0.0000 0.0000
# 4 0.0000 0.0000 0.0000 25.0209 0.0000 0.0000
# 5 0.0000 0.0000 0.0000 0.0000 25.0210 0.0000
# 6 0.0000 0.0000 0.0000 0.0000 0.0000 11.9200
#
#
#
# Elastic Compliance Matrix: (Units=1/GPa)
#
#
# Indices 1 2 3 4 5 6 
#
# 1 0.017906 -0.003459 -0.008234 0.000000 0.000000 0.000000
# 2 -0.003459 0.017907 -0.008235 0.000000 0.000000 0.000000
# 3 -0.008234 -0.008235 0.020588 0.000000 0.000000 0.000000
# 4 0.000000 0.000000 0.000000 0.039967 0.000000 0.000000
# 5 0.000000 0.000000 0.000000 0.000000 0.039966 0.000000
# 6 0.000000 0.000000 0.000000 0.000000 0.000000 0.083893
#
#
# Mechanical properties :
#
#
# Convention : Reuss Voigt Hill
#
# Bulk Modulus (GPa) = 60.44128 60.80506 60.62317
# Shear Modulus (GPa) = 18.82557 20.48082 19.65319
#
# Velocity S-wave (km/s) = 3.39641 3.54258 3.47027
# Velocity P-wave (km/s) = 7.23996 7.34795 7.29416
#
# Compressibility (1/GPa) = 0.01654498
#
# Stress axis : x y z
#
# Youngs Moduli (GPa) = 55.84804 55.84559 48.57212
#
# Poissons Ratio (x) = 0.19317 0.39995
# Poissons Ratio (y) = 0.19318 0.39997
# Poissons Ratio (z) = 0.45986 0.45987
#
# Static dielectric constant tensor:
#      x y z
#    x 2.970790 0.000000 0.000000 
#    y 0.000000 2.970790 0.000000 
#    z 0.000000 0.000000 3.375450 
# 
# 
# High freq. dielectric constant tensor:
#      x y z
#    x 1.610010 0.000000 0.000000 
#    y 0.000000 1.610010 0.000000 
#    z 0.000000 0.000000 1.641480 
# 
# From -- ./inp_files/7887.got.cif
#   From: 2010.03.12/outbox.cif.g09.slc.cpg/sg129_4_cif.got.tgz:7887.got - 2010.04.06 17:19:44.
