data_PCOD8315901
_publ_section_title
;
Structure prediction by ZEFSAII (Michael W. Deem and Ramdas Pophale) SiO2 
 PCOD8315901
Probable space group: P 42/M M C
;
_chemical_formula_sum "Si O2"
_cell_formula_units_Z 72
_cell_length_a 16.130179
_cell_length_b 16.130179
_cell_length_c 17.561733
_cell_angle_alpha 90.000000
_cell_angle_beta 90.000000
_cell_angle_gamma 90.000000
_cell_volume 4569.258662
_symmetry_space_group_name_H-M "P 42/M M C"
_symmetry_group_IT_number 131
_symmetry_cell_setting 'tetragonal'
loop_
_space_group_symop_operation_xyz
x,y,z
-x,-y,z
-y,x,1/2+z
y,-x,1/2+z
-x,y,-z
x,-y,-z
y,x,1/2-z
-y,-x,1/2-z
-x,-y,-z
x,y,-z
y,-x,1/2-z
-y,x,1/2-z
x,-y,z
-x,y,z
-y,-x,1/2+z
y,x,1/2+z
loop_
_atom_site_type_symbol
_atom_site_label
_atom_site_fract_x
_atom_site_fract_y
_atom_site_fract_z
Si Si1 0.092762 0.000000 0.090499
Si Si2 0.901620 0.500000 0.912974
Si Si3 0.832871 0.821945 0.409868
Si Si4 0.902213 0.500000 0.415370
Si Si5 0.670719 0.096153 0.659824
Si Si6 0.903740 0.667291 0.338664
O O1 0.132969 0.915502 0.122654
O O2 0.000000 0.000000 0.120802
O O3 0.098855 0.000000 0.000000
O O4 0.867612 0.416304 0.872571
O O5 0.000000 0.500000 0.906181
O O6 0.871340 0.500000 0.000000
O O7 0.827938 0.828857 0.500000
O O8 0.748896 0.858599 0.376559
O O9 0.842269 0.728023 0.383079
O O10 0.862308 0.500000 0.500000
O O11 0.873276 0.578420 0.367056
O O12 0.000000 0.500000 0.423479
O O13 0.673157 0.110763 0.749315
O O14 0.678385 0.000000 0.638177
O O15 0.000000 0.684641 0.360135
#
# Coordination Sequence:
#
# PCOD8315901 Si02
#       6
#     8   8  16   8  16  16
#     4   9  18  30  44  61  85 121 165 205 239 271
#     4   9  17  31  49  69  89 114 153 200 243 289
#     4  11  20  31  47  66  92 125 163 204 239 280
#     4   9  17  29  49  71  89 116 153 192 239 297
#     4  10  20  32  48  67  93 124 159 198 247 293
#     4  10  19  32  47  66  95 122 155 194 245 291
#
# _framework density 15.757479999999999
#
# number of rings (size 3 to 8) (size 9 to 14) (size 15 to 20)
#    0.000    2.111    1.111    3.333    0.000    5.778 
#    0.000    0.000    0.000    0.000    0.000    0.000 
#    0.000    0.889    0.000    8.889    0.000    5.333 
#
# Total GULP energy -892668.416552 kJ/mol
# GULP energy per Si atom -12398.172452 kJ/mol
# Density = 1.572162 g / cm^3
# Si number density = 15.757480 Si / 1000 Ang^3
#
#
#
# Elastic Constant Matrix: (Units=GPa)
#
#
# Indices 1 2 3 4 5 6 
#
# 1 108.0194 55.8380 42.0100 0.0000 0.0000 0.0000
# 2 55.8380 108.0194 42.0100 0.0000 0.0000 0.0000
# 3 42.0100 42.0100 78.5731 0.0000 0.0000 0.0000
# 4 0.0000 0.0000 0.0000 25.8660 0.0000 0.0000
# 5 0.0000 0.0000 0.0000 0.0000 25.8660 0.0000
# 6 0.0000 0.0000 0.0000 0.0000 0.0000 9.4736
#
#
#
# Elastic Compliance Matrix: (Units=1/GPa)
#
#
# Indices 1 2 3 4 5 6 
#
# 1 0.013786 -0.005378 -0.004495 0.000000 0.000000 0.000000
# 2 -0.005378 0.013786 -0.004495 0.000000 0.000000 0.000000
# 3 -0.004495 -0.004495 0.017534 0.000000 0.000000 0.000000
# 4 0.000000 0.000000 0.000000 0.038661 0.000000 0.000000
# 5 0.000000 0.000000 0.000000 0.000000 0.038661 0.000000
# 6 0.000000 0.000000 0.000000 0.000000 0.000000 0.105557
#
#
# Mechanical properties :
#
#
# Convention : Reuss Voigt Hill
#
# Bulk Modulus (GPa) = 61.09364 63.81421 62.45392
# Shear Modulus (GPa) = 19.07100 22.55803 20.81451
#
# Velocity S-wave (km/s) = 3.48269 3.78772 3.63840
# Velocity P-wave (km/s) = 7.41805 7.72753 7.57437
#
# Compressibility (1/GPa) = 0.01636832
#
# Stress axis : x y z
#
# Youngs Moduli (GPa) = 72.53770 72.53770 57.03192
#
# Poissons Ratio (x) = 0.39011 0.25638
# Poissons Ratio (y) = 0.39011 0.25638
# Poissons Ratio (z) = 0.32609 0.32609
#
# Static dielectric constant tensor:
#      x y z
#    x 2.953600 0.000000 0.000000 
#    y 0.000000 2.953600 0.000000 
#    z 0.000000 0.000000 3.034120 
# 
# 
# High freq. dielectric constant tensor:
#      x y z
#    x 1.584600 0.000000 0.000000 
#    y 0.000000 1.584600 0.000000 
#    z 0.000000 0.000000 1.616300 
# 
# From -- ./inp_files/7656.got.cif
#   From: 2010.03.12/outbox.cif.g09.slc.cpg/sg131_4_cif.got.tgz:7656.got - 2010.04.06 17:36:35.
