data_PCOD8315624
_publ_section_title
;
Structure prediction by ZEFSAII (Michael W. Deem and Ramdas Pophale) SiO2 
 PCOD8315624
Probable space group: P 4/N C C
;
_chemical_formula_sum "Si O2"
_cell_formula_units_Z 64
_cell_length_a 11.796941
_cell_length_b 11.796941
_cell_length_c 19.053996
_cell_angle_alpha 90.000000
_cell_angle_beta 90.000000
_cell_angle_gamma 90.000000
_cell_volume 2651.703028
_symmetry_space_group_name_H-M "P 4/N C C"
_symmetry_group_IT_number 130
_symmetry_cell_setting 'tetragonal'
loop_
_space_group_symop_operation_xyz
x,y,z
1/2-y,x,z
1/2-x,1/2-y,z
y,1/2-x,z
1/2+x,-y,1/2-z
-x,1/2+y,1/2-z
1/2+y,1/2+x,1/2-z
-y,-x,1/2-z
-x,-y,-z
1/2+y,-x,-z
1/2+x,1/2+y,-z
-y,1/2+x,-z
1/2-x,y,1/2+z
x,1/2-y,1/2+z
1/2-y,1/2-x,1/2+z
y,x,1/2+z
loop_
_atom_site_type_symbol
_atom_site_label
_atom_site_fract_x
_atom_site_fract_y
_atom_site_fract_z
Si Si1 0.664896 0.917686 0.426906
Si Si2 0.330950 0.895961 0.471547
Si Si3 0.430647 0.655429 0.678661
Si Si4 0.090192 0.955307 0.324238
O O1 0.599816 0.799675 0.419560
O O2 0.636437 0.976879 0.502071
O O3 0.623042 0.005257 0.368173
O O4 0.383645 0.805747 0.526111
O O5 0.384516 0.869120 0.394112
O O6 0.354513 0.645488 0.750000
O O7 0.465825 0.780207 0.651864
O O8 0.543482 0.582095 0.688228
O O9 0.105071 0.894930 0.250000
#
# Coordination Sequence:
#
# PCOD8315624 Si02
#       4
#    16  16  16  16
#     4  11  26  48  76 112 156 201 250 317 391 457
#     4  11  24  43  75 111 142 196 252 312 378 449
#     4  11  27  49  74 110 152 197 252 315 379 454
#     4  11  27  47  74 108 148 201 250 308 379 454
#
# _framework density 24.135432000000002
#
# number of rings (size 3 to 8) (size 9 to 14) (size 15 to 20)
#    0.000    1.000    2.500    1.500   14.000    3.000 
#    0.000    0.000    0.000    0.000    0.000    0.000 
#    0.000    0.000    0.000    0.000    0.000    0.000 
#
# Total GULP energy -792844.602063 kJ/mol
# GULP energy per Si atom -12388.196907 kJ/mol
# Density = 2.408050 g / cm^3
# Si number density = 24.135432 Si / 1000 Ang^3
#
#
#
# Elastic Constant Matrix: (Units=GPa)
#
#
# Indices 1 2 3 4 5 6 
#
# 1 142.2897 55.1074 43.7600 0.0000 0.0000 0.0000
# 2 55.1074 142.2902 43.7596 0.0000 0.0000 0.0000
# 3 43.7600 43.7596 178.9969 0.0000 0.0000 0.0000
# 4 0.0000 0.0000 0.0000 29.0918 0.0000 0.0000
# 5 0.0000 0.0000 0.0000 0.0000 29.0914 0.0000
# 6 0.0000 0.0000 0.0000 0.0000 0.0000 25.4329
#
#
#
# Elastic Compliance Matrix: (Units=1/GPa)
#
#
# Indices 1 2 3 4 5 6 
#
# 1 0.008576 -0.002894 -0.001389 0.000000 0.000000 0.000000
# 2 -0.002894 0.008576 -0.001389 0.000000 0.000000 0.000000
# 3 -0.001389 -0.001389 0.006266 0.000000 0.000000 0.000000
# 4 0.000000 0.000000 0.000000 0.034374 0.000000 0.000000
# 5 0.000000 0.000000 0.000000 0.000000 0.034374 0.000000
# 6 0.000000 0.000000 0.000000 0.000000 0.000000 0.039319
#
#
# Mechanical properties :
#
#
# Convention : Reuss Voigt Hill
#
# Bulk Modulus (GPa) = 82.82767 83.20340 83.01553
# Shear Modulus (GPa) = 34.04736 38.11988 36.08362
#
# Velocity S-wave (km/s) = 3.75998 3.97850 3.87078
# Velocity P-wave (km/s) = 7.29673 7.46009 7.37886
#
# Compressibility (1/GPa) = 0.01207326
#
# Stress axis : x y z
#
# Youngs Moduli (GPa) = 116.60439 116.60506 159.59523
#
# Poissons Ratio (x) = 0.33748 0.22169
# Poissons Ratio (y) = 0.33748 0.22168
# Poissons Ratio (z) = 0.16197 0.16197
#
# Static dielectric constant tensor:
#      x y z
#    x 4.314430 0.000000 0.000000 
#    y 0.000000 4.314440 0.000000 
#    z 0.000000 0.000000 4.481060 
# 
# 
# High freq. dielectric constant tensor:
#      x y z
#    x 1.959820 0.000000 0.000000 
#    y 0.000000 1.959820 0.000000 
#    z 0.000000 0.000000 1.968430 
# 
# From -- ./inp_files/3498.got.cif
#   From: 2010.03.12/outbox.cif.g09.slc.cpg/sg130_2_cif.got.tgz:3498.got - 2010.04.06 17:30:23.
