data_PCOD8315853
_publ_section_title
;
Structure prediction by ZEFSAII (Michael W. Deem and Ramdas Pophale) SiO2 
 PCOD8315853
Probable space group: P 42/M M C
;
_chemical_formula_sum "Si O2"
_cell_formula_units_Z 96
_cell_length_a 24.076650
_cell_length_b 24.076650
_cell_length_c 9.266332
_cell_angle_alpha 90.000000
_cell_angle_beta 90.000000
_cell_angle_gamma 90.000000
_cell_volume 5371.554362
_symmetry_space_group_name_H-M "P 42/M M C"
_symmetry_group_IT_number 131
_symmetry_cell_setting 'tetragonal'
loop_
_space_group_symop_operation_xyz
x,y,z
-x,-y,z
-y,x,1/2+z
y,-x,1/2+z
-x,y,-z
x,-y,-z
y,x,1/2-z
-y,-x,1/2-z
-x,-y,-z
x,y,-z
y,-x,1/2-z
-y,x,1/2-z
x,-y,z
-x,y,z
-y,-x,1/2+z
y,x,1/2+z
loop_
_atom_site_type_symbol
_atom_site_label
_atom_site_fract_x
_atom_site_fract_y
_atom_site_fract_z
Si Si1 0.937602 0.861746 0.166732
Si Si2 0.230571 0.848428 0.669942
Si Si3 0.272688 0.652044 0.666132
Si Si4 0.146013 0.656559 0.330678
Si Si5 0.937546 0.438036 0.671227
Si Si6 0.437355 0.638935 0.831058
O O1 0.915452 0.915452 0.250000
O O2 0.900920 0.808157 0.202323
O O3 0.000000 0.848484 0.217410
O O4 0.934868 0.877022 0.000000
O O5 0.205945 0.794056 0.750000
O O6 0.236113 0.835423 0.500000
O O7 0.289008 0.866033 0.737540
O O8 0.292933 0.707068 0.750000
O O9 0.282674 0.665537 0.500000
O O10 0.209016 0.637712 0.698467
O O11 0.307724 0.598572 0.716562
O O12 0.135611 0.668929 0.500000
O O13 0.105985 0.607688 0.271089
O O14 0.935138 0.438741 0.500000
O O15 0.921850 0.500000 0.728480
O O16 0.000000 0.422443 0.722785
O O17 0.415714 0.584287 0.750000
O O18 0.500000 0.651073 0.782802
O O19 0.432850 0.627489 0.000000
#
# Coordination Sequence:
#
# PCOD8315853 Si02
#       6
#    16  16  16  16  16  16
#     4   9  19  35  52  71  97 129 164 201 242 288
#     4  10  20  34  51  71  99 132 163 199 243 290
#     4   9  18  31  46  66  93 122 151 187 231 275
#     4  10  19  30  49  76  99 124 162 202 240 287
#     4   8  15  29  48  71 100 130 160 199 244 286
#     4   9  18  32  48  66  90 120 153 189 229 273
#
# _framework density 17.871921
#
# number of rings (size 3 to 8) (size 9 to 14) (size 15 to 20)
#    0.000    2.833    0.000    1.500    0.000    5.000 
#    0.000    5.000    0.000    0.500    0.000    3.500 
#    0.000    0.000    0.000    0.000    0.000    0.000 
#
# Total GULP energy -1190312.584794 kJ/mol
# GULP energy per Si atom -12399.089425 kJ/mol
# Density = 1.783124 g / cm^3
# Si number density = 17.871921 Si / 1000 Ang^3
#
#
#
# Elastic Constant Matrix: (Units=GPa)
#
#
# Indices 1 2 3 4 5 6 
#
# 1 135.3126 75.9491 44.3002 0.0000 0.0000 0.0000
# 2 75.9491 135.3117 44.3000 0.0000 0.0000 0.0000
# 3 44.3002 44.3000 46.4058 0.0000 0.0000 0.0000
# 4 0.0000 0.0000 0.0000 22.6056 0.0000 0.0000
# 5 0.0000 0.0000 0.0000 0.0000 22.6054 0.0000
# 6 0.0000 0.0000 0.0000 0.0000 0.0000 28.3024
#
#
#
# Elastic Compliance Matrix: (Units=1/GPa)
#
#
# Indices 1 2 3 4 5 6 
#
# 1 0.012370 -0.004476 -0.007536 0.000000 0.000000 0.000000
# 2 -0.004476 0.012370 -0.007536 0.000000 0.000000 0.000000
# 3 -0.007536 -0.007536 0.035936 0.000000 0.000000 0.000000
# 4 0.000000 0.000000 0.000000 0.044237 0.000000 0.000000
# 5 0.000000 0.000000 0.000000 0.000000 0.044237 0.000000
# 6 0.000000 0.000000 0.000000 0.000000 0.000000 0.035333
#
#
# Mechanical properties :
#
#
# Convention : Reuss Voigt Hill
#
# Bulk Modulus (GPa) = 46.33592 71.79208 59.06400
# Shear Modulus (GPa) = 21.66657 24.86809 23.26733
#
# Velocity S-wave (km/s) = 3.48562 3.73428 3.61209
# Velocity P-wave (km/s) = 6.49479 7.67142 7.10750
#
# Compressibility (1/GPa) = 0.02158153
#
# Stress axis : x y z
#
# Youngs Moduli (GPa) = 80.84319 80.84283 27.82694
#
# Poissons Ratio (x) = 0.36184 0.20969
# Poissons Ratio (y) = 0.36184 0.20969
# Poissons Ratio (z) = 0.60921 0.60920
#
# Static dielectric constant tensor:
#      x y z
#    x 3.494960 0.000000 0.000000 
#    y 0.000000 3.494960 0.000000 
#    z 0.000000 0.000000 3.120940 
# 
# 
# High freq. dielectric constant tensor:
#      x y z
#    x 1.694340 0.000000 0.000000 
#    y 0.000000 1.694340 0.000000 
#    z 0.000000 0.000000 1.669590 
# 
# From -- ./inp_files/2193.got.cif
#   From: 2010.03.12/outbox.cif.g09.slc.cpg/sg131_2_cif.got.tgz:2193.got - 2010.04.06 17:36:35.
