data_PCOD8315705
_publ_section_title
;
Structure prediction by ZEFSAII (Michael W. Deem and Ramdas Pophale) SiO2 
 PCOD8315705
Probable space group: P 42/M M C
;
_chemical_formula_sum "Si O2"
_cell_formula_units_Z 60
_cell_length_a 12.148544
_cell_length_b 12.148544
_cell_length_c 22.515440
_cell_angle_alpha 90.000000
_cell_angle_beta 90.000000
_cell_angle_gamma 90.000000
_cell_volume 3322.988975
_symmetry_space_group_name_H-M "P 42/M M C"
_symmetry_group_IT_number 131
_symmetry_cell_setting 'tetragonal'
loop_
_space_group_symop_operation_xyz
x,y,z
-x,-y,z
-y,x,1/2+z
y,-x,1/2+z
-x,y,-z
x,-y,-z
y,x,1/2-z
-y,-x,1/2-z
-x,-y,-z
x,y,-z
y,-x,1/2-z
-y,x,1/2-z
x,-y,z
-x,y,z
-y,-x,1/2+z
y,x,1/2+z
loop_
_atom_site_type_symbol
_atom_site_label
_atom_site_fract_x
_atom_site_fract_y
_atom_site_fract_z
Si Si1 0.242495 0.000000 0.431617
Si Si2 0.201758 0.373047 0.432962
Si Si3 0.628327 0.000000 0.152396
Si Si4 0.000000 0.843883 0.283217
Si Si5 0.622765 0.202998 0.429741
Si Si6 0.000000 0.000000 0.611830
O O1 0.301599 0.894243 0.402326
O O2 0.272136 0.000000 0.500000
O O3 0.110791 0.000000 0.426602
O O4 0.166864 0.335888 0.500000
O O5 0.229937 0.500000 0.431947
O O6 0.105109 0.344027 0.387731
O O7 0.314318 0.314744 0.412599
O O8 0.710441 0.000000 0.210008
O O9 0.500000 0.000000 0.173333
O O10 0.890351 0.890351 0.250000
O O11 0.000000 0.889554 0.349691
O O12 0.611870 0.191064 0.500000
O O13 0.500000 0.202170 0.401385
#
# Coordination Sequence:
#
# PCOD8315705 Si02
#       6
#     8  16   8   8  16   4
#     4  10  18  27  42  66  95 124 158 197 234 279
#     4   9  17  28  45  73 105 131 156 190 231 282
#     4  10  18  31  54  78  99 123 152 191 247 303
#     4   9  20  36  53  69  89 117 152 198 239 280
#     4   9  17  27  38  55  87 134 174 195 214 249
#     4  10  18  30  50  70  92 120 148 190 248 296
#
# _framework density 18.056034
#
# number of rings (size 3 to 8) (size 9 to 14) (size 15 to 20)
#    0.000    2.800    0.000    2.600    0.000    3.733 
#    0.000    8.000    0.000   14.400    0.000    0.000 
#    0.000    0.000    0.000    0.000    0.000    0.000 
#
# Total GULP energy -743488.921405 kJ/mol
# GULP energy per Si atom -12391.482023 kJ/mol
# Density = 1.801494 g / cm^3
# Si number density = 18.056034 Si / 1000 Ang^3
#
#
#
# Elastic Constant Matrix: (Units=GPa)
#
#
# Indices 1 2 3 4 5 6 
#
# 1 137.3677 70.4251 29.5203 0.0000 0.0000 0.0000
# 2 70.4251 137.3677 29.5203 0.0000 0.0000 0.0000
# 3 29.5203 29.5203 33.0275 0.0000 0.0000 0.0000
# 4 0.0000 0.0000 0.0000 9.9769 0.0000 0.0000
# 5 0.0000 0.0000 0.0000 0.0000 9.9769 0.0000
# 6 0.0000 0.0000 0.0000 0.0000 0.0000 26.9181
#
#
#
# Elastic Compliance Matrix: (Units=1/GPa)
#
#
# Indices 1 2 3 4 5 6 
#
# 1 0.010694 -0.004244 -0.005766 0.000000 0.000000 0.000000
# 2 -0.004244 0.010694 -0.005766 0.000000 0.000000 0.000000
# 3 -0.005766 -0.005766 0.040585 0.000000 0.000000 0.000000
# 4 0.000000 0.000000 0.000000 0.100232 0.000000 0.000000
# 5 0.000000 0.000000 0.000000 0.000000 0.100232 0.000000
# 6 0.000000 0.000000 0.000000 0.000000 0.000000 0.037150
#
#
# Mechanical properties :
#
#
# Convention : Reuss Voigt Hill
#
# Bulk Modulus (GPa) = 32.86954 62.96603 47.91778
# Shear Modulus (GPa) = 14.65082 21.26087 17.95584
#
# Velocity S-wave (km/s) = 2.85161 3.43519 3.15691
# Velocity P-wave (km/s) = 5.39314 7.11915 6.31539
#
# Compressibility (1/GPa) = 0.03042330
#
# Stress axis : x y z
#
# Youngs Moduli (GPa) = 93.50654 93.50654 24.63984
#
# Poissons Ratio (x) = 0.39682 0.14207
# Poissons Ratio (y) = 0.39682 0.14207
# Poissons Ratio (z) = 0.53913 0.53913
#
# Static dielectric constant tensor:
#      x y z
#    x 3.474970 0.000000 0.000000 
#    y 0.000000 3.474970 0.000000 
#    z 0.000000 0.000000 2.875020 
# 
# 
# High freq. dielectric constant tensor:
#      x y z
#    x 1.706990 0.000000 0.000000 
#    y 0.000000 1.706990 0.000000 
#    z 0.000000 0.000000 1.637030 
# 
# From -- ./inp_files/13184.got.cif
#   From: 2010.03.12/outbox.cif.g09.slc.cpg/sg131_7_cif.got.tgz:13184.got - 2010.04.06 17:36:35.
