data_PCOD8315403
_publ_section_title
;
Structure prediction by ZEFSAII (Michael W. Deem and Ramdas Pophale) SiO2 
 PCOD8315403
Probable space group: P 4/N M M
;
_chemical_formula_sum "Si O2"
_cell_formula_units_Z 80
_cell_length_a 13.364863
_cell_length_b 13.364863
_cell_length_c 25.868259
_cell_angle_alpha 90.000000
_cell_angle_beta 90.000000
_cell_angle_gamma 90.000000
_cell_volume 4620.577118
_symmetry_space_group_name_H-M "P 4/N M M"
_symmetry_group_IT_number 129
_symmetry_cell_setting 'tetragonal'
loop_
_space_group_symop_operation_xyz
x,y,z
1/2-y,x,z
1/2-x,1/2-y,z
y,1/2-x,z
1/2+x,-y,-z
-x,1/2+y,-z
1/2+y,1/2+x,-z
-y,-x,-z
-x,-y,-z
1/2+y,-x,-z
1/2+x,1/2+y,-z
-y,1/2+x,-z
1/2-x,y,z
x,1/2-y,z
1/2-y,1/2-x,z
y,x,z
loop_
_atom_site_type_symbol
_atom_site_label
_atom_site_fract_x
_atom_site_fract_y
_atom_site_fract_z
Si Si1 0.019112 0.636459 0.151551
Si Si2 0.130145 0.639396 0.944149
Si Si3 0.367066 0.530892 0.357029
Si Si4 0.866160 0.470384 0.266708
Si Si5 0.967984 0.367834 0.547774
O O1 0.002681 0.750000 0.137152
O O2 0.080862 0.585229 0.105065
O O3 0.070484 0.622477 0.207807
O O4 0.909587 0.590414 0.153712
O O5 0.250000 0.641988 0.943175
O O6 0.086332 0.750000 0.938171
O O7 0.094817 0.594817 0.000000
O O8 0.250000 0.508993 0.364443
O O9 0.424944 0.424944 0.359704
O O10 0.384853 0.586467 0.302594
O O11 0.407348 0.605418 0.400744
O O12 0.750000 0.489982 0.280243
O O13 0.925238 0.574763 0.275482
O O14 0.898400 0.398400 0.500000
O O15 0.991082 0.250000 0.546225
O O16 0.073752 0.426249 0.545618
#
# Coordination Sequence:
#
# PCOD8315403 Si02
#       5
#    16  16  16  16  16
#     4   9  17  28  42  62  88 116 146 179 216 263
#     4   8  14  25  40  58  81 108 140 181 225 265
#     4  10  21  36  53  74  99 126 159 198 238 283
#     4   9  18  31  46  67  94 122 154 191 230 276
#     4  10  21  36  54  78 106 135 169 206 243 286
#
# _framework density 17.313855
#
# number of rings (size 3 to 8) (size 9 to 14) (size 15 to 20)
#    0.000    2.800    0.000    1.800    0.000    4.600 
#    0.000    4.000    0.000    7.200    0.000    0.000 
#    0.000    0.400    0.000    0.400    0.000    0.200 
#
# Total GULP energy -991432.645155 kJ/mol
# GULP energy per Si atom -12392.908064 kJ/mol
# Density = 1.727445 g / cm^3
# Si number density = 17.313855 Si / 1000 Ang^3
#
#
#
# Elastic Constant Matrix: (Units=GPa)
#
#
# Indices 1 2 3 4 5 6 
#
# 1 93.4214 43.5067 46.7216 0.0000 0.0000 0.0000
# 2 43.5067 93.4214 46.7216 0.0000 0.0000 0.0000
# 3 46.7216 46.7216 128.0381 0.0000 0.0000 0.0000
# 4 0.0000 0.0000 0.0000 23.8304 0.0000 0.0000
# 5 0.0000 0.0000 0.0000 0.0000 23.8304 0.0000
# 6 0.0000 0.0000 0.0000 0.0000 0.0000 12.5001
#
#
#
# Elastic Compliance Matrix: (Units=1/GPa)
#
#
# Indices 1 2 3 4 5 6 
#
# 1 0.014879 -0.005155 -0.003549 0.000000 0.000000 0.000000
# 2 -0.005155 0.014879 -0.003549 0.000000 0.000000 0.000000
# 3 -0.003549 -0.003549 0.010400 0.000000 0.000000 0.000000
# 4 0.000000 0.000000 0.000000 0.041963 0.000000 0.000000
# 5 0.000000 0.000000 0.000000 0.000000 0.041963 0.000000
# 6 0.000000 0.000000 0.000000 0.000000 0.000000 0.079999
#
#
# Mechanical properties :
#
#
# Convention : Reuss Voigt Hill
#
# Bulk Modulus (GPa) = 63.87701 65.42008 64.64854
# Shear Modulus (GPa) = 21.38516 23.89423 22.63969
#
# Velocity S-wave (km/s) = 3.51828 3.71895 3.62001
# Velocity P-wave (km/s) = 7.31287 7.50384 7.40897
#
# Compressibility (1/GPa) = 0.01565508
#
# Stress axis : x y z
#
# Youngs Moduli (GPa) = 67.20667 67.20667 96.15399
#
# Poissons Ratio (x) = 0.34643 0.34121
# Poissons Ratio (y) = 0.34643 0.34121
# Poissons Ratio (z) = 0.23849 0.23849
#
# Static dielectric constant tensor:
#      x y z
#    x 3.043200 0.000000 0.000000 
#    y 0.000000 3.043200 0.000000 
#    z 0.000000 0.000000 3.702590 
# 
# 
# High freq. dielectric constant tensor:
#      x y z
#    x 1.645960 0.000000 0.000000 
#    y 0.000000 1.645960 0.000000 
#    z 0.000000 0.000000 1.695620 
# 
# From -- ./inp_files/7692.got.cif
#   From: 2010.03.12/outbox.cif.g09.slc.cpg/sg129_4_cif.got.tgz:7692.got - 2010.04.06 17:19:44.
