data_PCOD8315128
_publ_section_title
;
Structure prediction by ZEFSAII (Michael W. Deem and Ramdas Pophale) SiO2 
 PCOD8315128
Probable space group: P 4/N M M
;
_chemical_formula_sum "Si O2"
_cell_formula_units_Z 128
_cell_length_a 20.605015
_cell_length_b 20.605015
_cell_length_c 17.403358
_cell_angle_alpha 90.000000
_cell_angle_beta 90.000000
_cell_angle_gamma 90.000000
_cell_volume 7388.885286
_symmetry_space_group_name_H-M "P 4/N M M"
_symmetry_group_IT_number 129
_symmetry_cell_setting 'tetragonal'
loop_
_space_group_symop_operation_xyz
x,y,z
1/2-y,x,z
1/2-x,1/2-y,z
y,1/2-x,z
1/2+x,-y,-z
-x,1/2+y,-z
1/2+y,1/2+x,-z
-y,-x,-z
-x,-y,-z
1/2+y,-x,-z
1/2+x,1/2+y,-z
-y,1/2+x,-z
1/2-x,y,z
x,1/2-y,z
1/2-y,1/2-x,z
y,x,z
loop_
_atom_site_type_symbol
_atom_site_label
_atom_site_fract_x
_atom_site_fract_y
_atom_site_fract_z
Si Si1 0.177150 0.855771 0.085249
Si Si2 0.928238 0.676874 0.586960
Si Si3 0.930433 0.675264 0.412930
Si Si4 0.177403 0.499925 0.131294
Si Si5 0.898224 0.006985 0.292668
Si Si6 0.174609 0.068924 0.979067
Si Si7 0.892671 0.499918 0.708927
Si Si8 0.322933 0.538552 0.857040
O O1 0.250000 0.835941 0.116641
O O2 0.170834 0.932977 0.085453
O O3 0.116768 0.828344 0.134099
O O4 0.171645 0.828356 0.000000
O O5 0.904464 0.750000 0.596354
O O6 0.865961 0.634040 0.607196
O O7 0.953384 0.663603 0.500539
O O8 0.986707 0.663746 0.646871
O O9 0.913739 0.750000 0.396631
O O10 0.865417 0.634584 0.394662
O O11 0.989912 0.653137 0.359102
O O12 0.250000 0.490711 0.163290
O O13 0.129941 0.496433 0.203254
O O14 0.160946 0.444540 0.069141
O O15 0.866267 0.010321 0.210067
O O16 0.929567 0.077298 0.310257
O O17 0.952882 0.952882 0.288565
O O18 0.250000 0.088707 0.966128
O O19 0.128441 0.128441 0.952665
O O20 0.157826 0.002694 0.932779
O O21 0.946927 0.553074 0.695460
O O22 0.250000 0.522820 0.833619
#
# Coordination Sequence:
#
# PCOD8315128 Si02
#       8
#    16  16  16  16  16  16  16  16
#     4  11  21  35  52  73 101 131 168 213 260 311
#     4   9  18  32  51  75 102 132 166 205 252 306
#     4   9  18  33  52  75 102 132 166 206 255 308
#     4  10  19  33  51  71 100 133 166 206 252 300
#     4  10  20  33  50  73 101 132 167 208 253 299
#     4  10  21  36  54  75 101 135 173 215 260 308
#     4  10  19  31  49  73 100 130 166 206 248 295
#     4  11  21  35  52  73 100 132 170 209 257 309
#
# _framework density 17.323315999999998
#
# number of rings (size 3 to 8) (size 9 to 14) (size 15 to 20)
#    0.000    2.000    2.500    1.875    0.000    1.750 
#    0.000    4.375    0.000    0.000    0.000    3.500 
#    0.000    0.000    0.000    5.750    0.000    0.250 
#
# Total GULP energy -1586568.928585 kJ/mol
# GULP energy per Si atom -12395.069755 kJ/mol
# Density = 1.728389 g / cm^3
# Si number density = 17.323316 Si / 1000 Ang^3
#
#
#
# Elastic Constant Matrix: (Units=GPa)
#
#
# Indices 1 2 3 4 5 6 
#
# 1 78.5525 32.0459 38.3590 0.0000 0.0000 0.0000
# 2 32.0459 78.5526 38.3591 0.0000 0.0000 0.0000
# 3 38.3590 38.3591 91.9756 0.0000 0.0000 0.0000
# 4 0.0000 0.0000 0.0000 27.8713 0.0000 0.0000
# 5 0.0000 0.0000 0.0000 0.0000 27.8713 0.0000
# 6 0.0000 0.0000 0.0000 0.0000 0.0000 19.7660
#
#
#
# Elastic Compliance Matrix: (Units=1/GPa)
#
#
# Indices 1 2 3 4 5 6 
#
# 1 0.017112 -0.004390 -0.005306 0.000000 0.000000 0.000000
# 2 -0.004390 0.017112 -0.005306 0.000000 0.000000 0.000000
# 3 -0.005306 -0.005306 0.015298 0.000000 0.000000 0.000000
# 4 0.000000 0.000000 0.000000 0.035879 0.000000 0.000000
# 5 0.000000 0.000000 0.000000 0.000000 0.035879 0.000000
# 6 0.000000 0.000000 0.000000 0.000000 0.000000 0.050592
#
#
# Mechanical properties :
#
#
# Convention : Reuss Voigt Hill
#
# Bulk Modulus (GPa) = 51.23200 51.84540 51.53870
# Shear Modulus (GPa) = 23.99428 24.45616 24.22522
#
# Velocity S-wave (km/s) = 3.72571 3.76140 3.74360
# Velocity P-wave (km/s) = 6.93874 6.98980 6.96431
#
# Compressibility (1/GPa) = 0.01951905
#
# Stress axis : x y z
#
# Youngs Moduli (GPa) = 58.43763 58.43759 65.36728
#
# Poissons Ratio (x) = 0.25654 0.34683
# Poissons Ratio (y) = 0.25654 0.34683
# Poissons Ratio (z) = 0.31006 0.31006
#
# Static dielectric constant tensor:
#      x y z
#    x 3.311620 0.000000 0.000000 
#    y 0.000000 3.311620 0.000000 
#    z 0.000000 0.000000 3.197260 
# 
# 
# High freq. dielectric constant tensor:
#      x y z
#    x 1.665610 0.000000 0.000000 
#    y 0.000000 1.665610 0.000000 
#    z 0.000000 0.000000 1.663380 
# 
# From -- ./inp_files/6105.got.cif
#   From: 2010.03.12/outbox.cif.g09.slc.cpg/sg129_4_cif.got.tgz:6105.got - 2010.04.06 17:19:44.
