data_PCOD8315708
_publ_section_title
;
Structure prediction by ZEFSAII (Michael W. Deem and Ramdas Pophale) SiO2 
 PCOD8315708
Probable space group: P 42/M M C
;
_chemical_formula_sum "Si O2"
_cell_formula_units_Z 80
_cell_length_a 22.220673
_cell_length_b 22.220673
_cell_length_c 14.681122
_cell_angle_alpha 90.000000
_cell_angle_beta 90.000000
_cell_angle_gamma 90.000000
_cell_volume 7248.925967
_symmetry_space_group_name_H-M "P 42/M M C"
_symmetry_group_IT_number 131
_symmetry_cell_setting 'tetragonal'
loop_
_space_group_symop_operation_xyz
x,y,z
-x,-y,z
-y,x,1/2+z
y,-x,1/2+z
-x,y,-z
x,-y,-z
y,x,1/2-z
-y,-x,1/2-z
-x,-y,-z
x,y,-z
y,-x,1/2-z
-y,x,1/2-z
x,-y,z
-x,y,z
-y,-x,1/2+z
y,x,1/2+z
loop_
_atom_site_type_symbol
_atom_site_label
_atom_site_fract_x
_atom_site_fract_y
_atom_site_fract_z
Si Si1 0.615677 0.928237 0.211623
Si Si2 0.934116 0.929188 0.000000
Si Si3 0.431814 0.928478 0.599947
Si Si4 0.500000 0.071641 0.897359
Si Si5 0.860185 0.929086 0.826345
Si Si6 0.269841 0.071140 0.897064
O O1 0.609957 0.904806 0.316652
O O2 0.558872 0.904189 0.154403
O O3 0.675658 0.902229 0.163716
O O4 0.617198 0.000000 0.210534
O O5 0.897562 0.908451 0.913185
O O6 0.000000 0.898516 0.000000
O O7 0.941152 0.000000 0.000000
O O8 0.408074 0.906332 0.500000
O O9 0.500000 0.905319 0.615134
O O10 0.432251 0.000000 0.601781
O O11 0.500000 0.000000 0.898341
O O12 0.500000 0.097106 0.000000
O O13 0.886138 0.886138 0.750000
O O14 0.791117 0.912317 0.844437
O O15 0.868612 0.000000 0.803109
O O16 0.275686 0.000000 0.905769
O O17 0.270968 0.098218 0.000000
#
# Coordination Sequence:
#
# PCOD8315708 Si02
#       6
#    16   8  16   8  16  16
#     4   9  14  20  31  45  62  83 104 122 140 163
#     4   9  16  26  40  56  68  73  85 114 150 193
#     4   8  12  18  28  41  57  78 103 127 144 157
#     4   9  14  18  25  43  65  81 102 128 141 151
#     4  10  18  28  41  54  65  76  93 118 153 198
#     4   9  16  26  37  48  63  83  98 113 145 189
#
# _framework density 11.036118
#
# number of rings (size 3 to 8) (size 9 to 14) (size 15 to 20)
#    0.000    3.000    2.000    1.800    0.000    3.400 
#    0.000    0.000    2.200    0.000    0.000    0.000 
#    0.000    0.000    0.000    0.000    0.000    0.000 
#
# Total GULP energy -991166.384855 kJ/mol
# GULP energy per Si atom -12389.579811 kJ/mol
# Density = 1.101100 g / cm^3
# Si number density = 11.036118 Si / 1000 Ang^3
#
#
#
# Elastic Constant Matrix: (Units=GPa)
#
#
# Indices 1 2 3 4 5 6 
#
# 1 51.4852 14.2429 37.5182 0.0000 0.0000 0.0000
# 2 14.2429 51.4852 37.5182 0.0000 0.0000 0.0000
# 3 37.5182 37.5182 119.5104 0.0000 0.0000 0.0000
# 4 0.0000 0.0000 0.0000 18.4239 0.0000 0.0000
# 5 0.0000 0.0000 0.0000 0.0000 18.4239 0.0000
# 6 0.0000 0.0000 0.0000 0.0000 0.0000 1.7067
#
#
#
# Elastic Compliance Matrix: (Units=1/GPa)
#
#
# Indices 1 2 3 4 5 6 
#
# 1 0.025282 -0.001569 -0.007444 0.000000 0.000000 0.000000
# 2 -0.001569 0.025282 -0.007444 0.000000 0.000000 0.000000
# 3 -0.007444 -0.007444 0.013041 0.000000 0.000000 0.000000
# 4 0.000000 0.000000 0.000000 0.054277 0.000000 0.000000
# 5 0.000000 0.000000 0.000000 0.000000 0.054277 0.000000
# 6 0.000000 0.000000 0.000000 0.000000 0.000000 0.585931
#
#
# Mechanical properties :
#
#
# Convention : Reuss Voigt Hill
#
# Bulk Modulus (GPa) = 32.58393 44.55994 38.57193
# Shear Modulus (GPa) = 6.24036 16.59099 11.41567
#
# Velocity S-wave (km/s) = 2.38050 3.88149 3.21969
# Velocity P-wave (km/s) = 6.09464 7.78152 6.98916
#
# Compressibility (1/GPa) = 0.03068998
#
# Stress axis : x y z
#
# Youngs Moduli (GPa) = 39.55399 39.55399 76.67876
#
# Poissons Ratio (x) = 0.06207 0.57081
# Poissons Ratio (y) = 0.06207 0.57081
# Poissons Ratio (z) = 0.29445 0.29445
#
# Static dielectric constant tensor:
#      x y z
#    x 2.125100 0.000000 0.000000 
#    y 0.000000 2.125100 0.000000 
#    z 0.000000 0.000000 2.667730 
# 
# 
# High freq. dielectric constant tensor:
#      x y z
#    x 1.369060 0.000000 0.000000 
#    y 0.000000 1.369060 0.000000 
#    z 0.000000 0.000000 1.439580 
# 
# From -- ./inp_files/6085.got.cif
#   From: 2010.03.12/outbox.cif.g09.slc.cpg/sg131_4_cif.got.tgz:6085.got - 2010.04.06 17:36:35.
