data_PCOD8315322
_publ_section_title
;
Structure prediction by ZEFSAII (Michael W. Deem and Ramdas Pophale) SiO2 
 PCOD8315322
Probable space group: P 4/N M M
;
_chemical_formula_sum "Si O2"
_cell_formula_units_Z 88
_cell_length_a 13.433007
_cell_length_b 13.433007
_cell_length_c 28.611623
_cell_angle_alpha 90.000000
_cell_angle_beta 90.000000
_cell_angle_gamma 90.000000
_cell_volume 5162.843684
_symmetry_space_group_name_H-M "P 4/N M M"
_symmetry_group_IT_number 129
_symmetry_cell_setting 'tetragonal'
loop_
_space_group_symop_operation_xyz
x,y,z
1/2-y,x,z
1/2-x,1/2-y,z
y,1/2-x,z
1/2+x,-y,-z
-x,1/2+y,-z
1/2+y,1/2+x,-z
-y,-x,-z
-x,-y,-z
1/2+y,-x,-z
1/2+x,1/2+y,-z
-y,1/2+x,-z
1/2-x,y,z
x,1/2-y,z
1/2-y,1/2-x,z
y,x,z
loop_
_atom_site_type_symbol
_atom_site_label
_atom_site_fract_x
_atom_site_fract_y
_atom_site_fract_z
Si Si1 0.021098 0.637580 0.640053
Si Si2 0.136148 0.636148 0.000000
Si Si3 0.030835 0.866978 0.741589
Si Si4 0.529382 0.134530 0.823708
Si Si5 0.971264 0.135457 0.461070
Si Si6 0.866534 0.473280 0.905497
O O1 0.987653 0.750000 0.641219
O O2 0.077028 0.612944 0.689136
O O3 0.078013 0.614632 0.590846
O O4 0.917340 0.582661 0.638946
O O5 0.106946 0.567231 0.043328
O O6 0.118802 0.750000 0.015084
O O7 0.010187 0.750000 0.750390
O O8 0.113024 0.906867 0.777269
O O9 0.927064 0.927064 0.748756
O O10 0.501300 0.250000 0.825529
O O11 0.596940 0.107325 0.868085
O O12 0.426677 0.073324 0.823985
O O13 0.889258 0.110743 0.500000
O O14 0.002731 0.250000 0.466231
O O15 0.069730 0.069730 0.469206
O O16 0.750000 0.492257 0.898948
O O17 0.922047 0.577954 0.897564
#
# Coordination Sequence:
#
# PCOD8315322 Si02
#       6
#    16   8  16  16  16  16
#     4   8  14  25  41  62  89 118 148 183 222 266
#     4   9  17  30  50  74  97 125 164 206 243 277
#     4   9  17  29  46  70  98 125 152 182 219 267
#     4  10  21  36  53  72  93 119 154 196 239 280
#     4   9  17  29  45  65  89 118 151 187 228 272
#     4  10  20  33  50  73 101 132 164 197 234 278
#
# _framework density 17.044871000000001
#
# number of rings (size 3 to 8) (size 9 to 14) (size 15 to 20)
#    0.000    2.818    0.000    1.364    0.000    3.273 
#    0.000    4.545    0.000    6.545    0.000    2.545 
#    0.000    7.273    0.000    0.000    0.000    0.000 
#
# Total GULP energy -1090278.298352 kJ/mol
# GULP energy per Si atom -12389.526118 kJ/mol
# Density = 1.700608 g / cm^3
# Si number density = 17.044871 Si / 1000 Ang^3
#
#
#
# Elastic Constant Matrix: (Units=GPa)
#
#
# Indices 1 2 3 4 5 6 
#
# 1 84.9490 34.3778 52.3074 0.0000 0.0000 0.0000
# 2 34.3778 84.9478 52.3072 0.0000 0.0000 0.0000
# 3 52.3074 52.3072 136.7050 0.0000 0.0000 0.0000
# 4 0.0000 0.0000 0.0000 22.6728 0.0000 0.0000
# 5 0.0000 0.0000 0.0000 0.0000 22.6729 0.0000
# 6 0.0000 0.0000 0.0000 0.0000 0.0000 11.9713
#
#
#
# Elastic Compliance Matrix: (Units=1/GPa)
#
#
# Indices 1 2 3 4 5 6 
#
# 1 0.016192 -0.003582 -0.004825 0.000000 0.000000 0.000000
# 2 -0.003582 0.016193 -0.004825 0.000000 0.000000 0.000000
# 3 -0.004825 -0.004825 0.011008 0.000000 0.000000 0.000000
# 4 0.000000 0.000000 0.000000 0.044106 0.000000 0.000000
# 5 0.000000 0.000000 0.000000 0.000000 0.044106 0.000000
# 6 0.000000 0.000000 0.000000 0.000000 0.000000 0.083533
#
#
# Mechanical properties :
#
#
# Convention : Reuss Voigt Hill
#
# Bulk Modulus (GPa) = 59.07340 64.95406 62.01373
# Shear Modulus (GPa) = 20.22290 22.63734 21.43012
#
# Velocity S-wave (km/s) = 3.44823 3.64827 3.54966
# Velocity P-wave (km/s) = 7.11242 7.47910 7.29806
#
# Compressibility (1/GPa) = 0.01692809
#
# Stress axis : x y z
#
# Youngs Moduli (GPa) = 61.75737 61.75645 90.84665
#
# Poissons Ratio (x) = 0.22120 0.43835
# Poissons Ratio (y) = 0.22120 0.43836
# Poissons Ratio (z) = 0.29799 0.29799
#
# Static dielectric constant tensor:
#      x y z
#    x 2.946970 0.000000 0.000000 
#    y 0.000000 2.946970 0.000000 
#    z 0.000000 0.000000 3.777660 
# 
# 
# High freq. dielectric constant tensor:
#      x y z
#    x 1.636340 0.000000 0.000000 
#    y 0.000000 1.636340 0.000000 
#    z 0.000000 0.000000 1.687140 
# 
# From -- ./inp_files/7785.got.cif
#   From: 2010.03.12/outbox.cif.g09.slc.cpg/sg129_4_cif.got.tgz:7785.got - 2010.04.06 17:19:44.
