data_PCOD8315799
_publ_section_title
;
Structure prediction by ZEFSAII (Michael W. Deem and Ramdas Pophale) SiO2 
 PCOD8315799
Probable space group: P 42/M M C
;
_chemical_formula_sum "Si O2"
_cell_formula_units_Z 88
_cell_length_a 28.339411
_cell_length_b 28.339411
_cell_length_c 8.989606
_cell_angle_alpha 90.000000
_cell_angle_beta 90.000000
_cell_angle_gamma 90.000000
_cell_volume 7219.752290
_symmetry_space_group_name_H-M "P 42/M M C"
_symmetry_group_IT_number 131
_symmetry_cell_setting 'tetragonal'
loop_
_space_group_symop_operation_xyz
x,y,z
-x,-y,z
-y,x,1/2+z
y,-x,1/2+z
-x,y,-z
x,-y,-z
y,x,1/2-z
-y,-x,1/2-z
-x,-y,-z
x,y,-z
y,-x,1/2-z
-y,x,1/2-z
x,-y,z
-x,y,z
-y,-x,1/2+z
y,x,1/2+z
loop_
_atom_site_type_symbol
_atom_site_label
_atom_site_fract_x
_atom_site_fract_y
_atom_site_fract_z
Si Si1 0.811512 0.253119 0.665333
Si Si2 0.945455 0.243046 0.164518
Si Si3 0.890932 0.826895 0.332517
Si Si4 0.595803 0.054712 0.323504
Si Si5 0.055462 0.500000 0.333993
Si Si6 0.678939 0.890480 0.176629
O O1 0.764064 0.235937 0.750000
O O2 0.793946 0.263503 0.500000
O O3 0.849840 0.211884 0.668468
O O4 0.838226 0.300836 0.725682
O O5 0.934705 0.192310 0.236876
O O6 0.928858 0.282565 0.278662
O O7 0.000000 0.249384 0.142439
O O8 0.921317 0.247606 0.000000
O O9 0.873974 0.873974 0.250000
O O10 0.906752 0.838881 0.500000
O O11 0.594596 0.059007 0.500000
O O12 0.545837 0.071104 0.257744
O O13 0.631613 0.093821 0.259910
O O14 0.608024 0.000000 0.278437
O O15 0.078231 0.500000 0.500000
O O16 0.000000 0.500000 0.350608
O O17 0.671139 0.892150 0.000000
#
# Coordination Sequence:
#
# PCOD8315799 Si02
#       6
#    16  16  16  16   8  16
#     4   8  15  25  36  50  66  85 108 132 157 187
#     4  10  19  28  37  51  71  91 109 130 156 184
#     4   9  16  26  39  52  66  85 107 128 150 179
#     4  10  19  29  40  54  71  90 114 144 176 209
#     4   9  17  29  43  55  67  87 113 141 175 211
#     4  10  19  28  38  53  71  91 115 140 166 198
#
# _framework density 12.188784
#
# number of rings (size 3 to 8) (size 9 to 14) (size 15 to 20)
#    0.000    2.636    0.000    4.091    0.000   10.909 
#    0.000    0.000    0.000    0.000    0.000    0.000 
#    0.000    0.364    0.000    3.818    0.000    1.818 
#
# Total GULP energy -1090183.571560 kJ/mol
# GULP energy per Si atom -12388.449677 kJ/mol
# Density = 1.216104 g / cm^3
# Si number density = 12.188784 Si / 1000 Ang^3
#
#
#
# Elastic Constant Matrix: (Units=GPa)
#
#
# Indices 1 2 3 4 5 6 
#
# 1 47.7631 40.4015 28.9096 0.0000 0.0000 0.0000
# 2 40.4015 47.7623 28.9093 0.0000 0.0000 0.0000
# 3 28.9096 28.9093 73.5862 0.0000 0.0000 0.0000
# 4 0.0000 0.0000 0.0000 17.4993 0.0000 0.0000
# 5 0.0000 0.0000 0.0000 0.0000 17.4994 0.0000
# 6 0.0000 0.0000 0.0000 0.0000 0.0000 12.6875
#
#
#
# Elastic Compliance Matrix: (Units=1/GPa)
#
#
# Indices 1 2 3 4 5 6 
#
# 1 0.075563 -0.060284 -0.006003 0.000000 0.000000 0.000000
# 2 -0.060284 0.075564 -0.006003 0.000000 0.000000 0.000000
# 3 -0.006003 -0.006003 0.018306 0.000000 0.000000 0.000000
# 4 0.000000 0.000000 0.000000 0.057145 0.000000 0.000000
# 5 0.000000 0.000000 0.000000 0.000000 0.057145 0.000000
# 6 0.000000 0.000000 0.000000 0.000000 0.000000 0.078818
#
#
# Mechanical properties :
#
#
# Convention : Reuss Voigt Hill
#
# Bulk Modulus (GPa) = 40.23560 40.61691 40.42625
# Shear Modulus (GPa) = 9.70111 14.26331 11.98221
#
# Velocity S-wave (km/s) = 2.82424 3.42453 3.13877
# Velocity P-wave (km/s) = 6.61189 7.00229 6.80989
#
# Compressibility (1/GPa) = 0.02485361
#
# Stress axis : x y z
#
# Youngs Moduli (GPa) = 13.23401 13.23379 54.62713
#
# Poissons Ratio (x) = 0.79779 0.32791
# Poissons Ratio (y) = 0.79781 0.32790
# Poissons Ratio (z) = 0.07944 0.07944
#
# Static dielectric constant tensor:
#      x y z
#    x 2.443600 0.000000 0.000000 
#    y 0.000000 2.443600 0.000000 
#    z 0.000000 0.000000 2.795300 
# 
# 
# High freq. dielectric constant tensor:
#      x y z
#    x 1.424160 0.000000 0.000000 
#    y 0.000000 1.424160 0.000000 
#    z 0.000000 0.000000 1.483740 
# 
# From -- ./inp_files/2418.got.cif
#   From: 2010.03.12/outbox.cif.g09.slc.cpg/sg131_2_cif.got.tgz:2418.got - 2010.04.06 17:36:35.
