data_PCOD8315661
_publ_section_title
;
Structure prediction by ZEFSAII (Michael W. Deem and Ramdas Pophale) SiO2 
 PCOD8315661
Probable space group: P 42/M M C
;
_chemical_formula_sum "Si O2"
_cell_formula_units_Z 64
_cell_length_a 17.198971
_cell_length_b 17.198971
_cell_length_c 14.327991
_cell_angle_alpha 90.000000
_cell_angle_beta 90.000000
_cell_angle_gamma 90.000000
_cell_volume 4238.285696
_symmetry_space_group_name_H-M "P 42/M M C"
_symmetry_group_IT_number 131
_symmetry_cell_setting 'tetragonal'
loop_
_space_group_symop_operation_xyz
x,y,z
-x,-y,z
-y,x,1/2+z
y,-x,1/2+z
-x,y,-z
x,-y,-z
y,x,1/2-z
-y,-x,1/2-z
-x,-y,-z
x,y,-z
y,-x,1/2-z
-y,x,1/2-z
x,-y,z
-x,y,z
-y,-x,1/2+z
y,x,1/2+z
loop_
_atom_site_type_symbol
_atom_site_label
_atom_site_fract_x
_atom_site_fract_y
_atom_site_fract_z
Si Si1 0.913132 0.000000 0.611121
Si Si2 0.907527 0.500000 0.894088
Si Si3 0.139148 0.807573 0.892812
Si Si4 0.344839 0.910245 0.702406
Si Si5 0.087650 0.712766 0.397043
O O1 0.866632 0.924973 0.647318
O O2 0.918863 0.000000 0.500000
O O3 0.000000 0.000000 0.654113
O O4 0.875522 0.423626 0.841515
O O5 0.000000 0.500000 0.890469
O O6 0.876652 0.500000 0.000000
O O7 0.139019 0.727991 0.834761
O O8 0.220988 0.849293 0.880061
O O9 0.121767 0.786548 0.000000
O O10 0.350828 0.901960 0.815135
O O11 0.333398 0.000000 0.672168
O O12 0.100470 0.674754 0.500000
O O13 0.000000 0.748183 0.391812
#
# Coordination Sequence:
#
# PCOD8315661 Si02
#       5
#     8   8  16  16  16
#     4   9  16  24  36  55  80 110 143 177 214 252
#     4   9  18  30  45  63  79  95 122 171 227 270
#     4  10  17  26  41  59  81 109 140 175 216 259
#     4  10  18  29  43  58  79 102 136 177 223 262
#     4   9  18  30  42  56  79 110 142 173 206 245
#
# _framework density 15.100444
#
# number of rings (size 3 to 8) (size 9 to 14) (size 15 to 20)
#    0.000    2.500    1.250    2.250    0.000    4.000 
#    0.000    0.625    0.000    3.750    0.000    0.000 
#    0.000    0.000    0.000    0.000    0.000   10.000 
#
# Total GULP energy -793353.638148 kJ/mol
# GULP energy per Si atom -12396.150596 kJ/mol
# Density = 1.506608 g / cm^3
# Si number density = 15.100444 Si / 1000 Ang^3
#
#
#
# Elastic Constant Matrix: (Units=GPa)
#
#
# Indices 1 2 3 4 5 6 
#
# 1 73.9183 18.0763 43.6017 0.0000 0.0000 0.0000
# 2 18.0763 73.9183 43.6017 0.0000 0.0000 0.0000
# 3 43.6017 43.6017 112.2164 0.0000 0.0000 0.0000
# 4 0.0000 0.0000 0.0000 17.8175 0.0000 0.0000
# 5 0.0000 0.0000 0.0000 0.0000 17.8175 0.0000
# 6 0.0000 0.0000 0.0000 0.0000 0.0000 6.1564
#
#
#
# Elastic Compliance Matrix: (Units=1/GPa)
#
#
# Indices 1 2 3 4 5 6 
#
# 1 0.017558 -0.000350 -0.006686 0.000000 0.000000 0.000000
# 2 -0.000350 0.017558 -0.006686 0.000000 0.000000 0.000000
# 3 -0.006686 -0.006686 0.014107 0.000000 0.000000 0.000000
# 4 0.000000 0.000000 0.000000 0.056125 0.000000 0.000000
# 5 0.000000 0.000000 0.000000 0.000000 0.056125 0.000000
# 6 0.000000 0.000000 0.000000 0.000000 0.000000 0.162432
#
#
# Mechanical properties :
#
#
# Convention : Reuss Voigt Hill
#
# Bulk Modulus (GPa) = 45.91652 52.29030 49.10341
# Shear Modulus (GPa) = 13.94277 18.67651 16.30964
#
# Velocity S-wave (km/s) = 3.04194 3.52066 3.29002
# Velocity P-wave (km/s) = 6.54303 7.15753 6.85717
#
# Compressibility (1/GPa) = 0.02177866
#
# Stress axis : x y z
#
# Youngs Moduli (GPa) = 56.95425 56.95425 70.88552
#
# Poissons Ratio (x) = 0.01992 0.47396
# Poissons Ratio (y) = 0.01992 0.47396
# Poissons Ratio (z) = 0.38081 0.38081
#
# Static dielectric constant tensor:
#      x y z
#    x 2.631880 0.000000 0.000000 
#    y 0.000000 2.631880 0.000000 
#    z 0.000000 0.000000 3.168210 
# 
# 
# High freq. dielectric constant tensor:
#      x y z
#    x 1.535110 0.000000 0.000000 
#    y 0.000000 1.535110 0.000000 
#    z 0.000000 0.000000 1.599950 
# 
# From -- ./inp_files/7384.got.cif
#   From: 2010.03.12/outbox.cif.g09.slc.cpg/sg131_4_cif.got.tgz:7384.got - 2010.04.06 17:36:35.
