data_PCOD8315594
_publ_section_title
;
Structure prediction by ZEFSAII (Michael W. Deem and Ramdas Pophale) SiO2 
 PCOD8315594
Probable space group: P 4/N C C
;
_chemical_formula_sum "Si O2"
_cell_formula_units_Z 96
_cell_length_a 13.444178
_cell_length_b 13.444178
_cell_length_c 24.044117
_cell_angle_alpha 90.000000
_cell_angle_beta 90.000000
_cell_angle_gamma 90.000000
_cell_volume 4345.876098
_symmetry_space_group_name_H-M "P 4/N C C"
_symmetry_group_IT_number 130
_symmetry_cell_setting 'tetragonal'
loop_
_space_group_symop_operation_xyz
x,y,z
1/2-y,x,z
1/2-x,1/2-y,z
y,1/2-x,z
1/2+x,-y,1/2-z
-x,1/2+y,1/2-z
1/2+y,1/2+x,1/2-z
-y,-x,1/2-z
-x,-y,-z
1/2+y,-x,-z
1/2+x,1/2+y,-z
-y,1/2+x,-z
1/2-x,y,1/2+z
x,1/2-y,1/2+z
1/2-y,1/2-x,1/2+z
y,x,1/2+z
loop_
_atom_site_type_symbol
_atom_site_label
_atom_site_fract_x
_atom_site_fract_y
_atom_site_fract_z
Si Si1 0.099865 0.759751 0.773951
Si Si2 0.834319 0.471475 0.890095
Si Si3 0.087611 0.266331 0.294210
Si Si4 0.122559 0.492083 0.583521
Si Si5 0.634998 0.496329 0.042308
Si Si6 0.491621 0.335003 0.907244
O O1 0.176861 0.676861 0.750000
O O2 0.133809 0.866192 0.750000
O O3 0.090669 0.785281 0.839296
O O4 0.990861 0.726541 0.755391
O O5 0.739673 0.525976 0.917071
O O6 0.889470 0.396513 0.932117
O O7 0.911728 0.562452 0.878555
O O8 0.142140 0.161709 0.288396
O O9 0.031395 0.270637 0.352697
O O10 0.089026 0.487248 0.518941
O O11 0.093127 0.603260 0.604116
O O12 0.595823 0.587057 0.079970
O O13 0.755295 0.497421 0.042791
#
# Coordination Sequence:
#
# PCOD8315594 Si02
#       6
#    16  16  16  16  16  16
#     4  11  26  46  69  98 133 176 229 281 345 413
#     4  11  25  44  65  97 136 179 223 285 343 410
#     4  11  24  42  66  99 129 173 229 279 332 398
#     4  11  24  42  66  99 137 182 227 275 350 417
#     4  11  22  41  67 101 139 177 227 282 339 415
#     4  11  21  39  66  95 132 175 226 278 336 399
#
# _framework density 22.089905999999999
#
# number of rings (size 3 to 8) (size 9 to 14) (size 15 to 20)
#    0.000    1.000    1.667    6.000    4.667    3.333 
#    0.000    3.333    0.000    0.000    0.000    0.000 
#    0.000    0.000    0.000    0.000    0.000    0.000 
#
# Total GULP energy -1189643.258354 kJ/mol
# GULP energy per Si atom -12392.117275 kJ/mol
# Density = 2.203963 g / cm^3
# Si number density = 22.089906 Si / 1000 Ang^3
#
#
#
# Elastic Constant Matrix: (Units=GPa)
#
#
# Indices 1 2 3 4 5 6 
#
# 1 125.7157 46.4931 27.9691 0.0000 0.0000 0.0000
# 2 46.4931 125.7143 27.9687 0.0000 0.0000 0.0000
# 3 27.9691 27.9687 100.0506 0.0000 0.0000 0.0000
# 4 0.0000 0.0000 0.0000 29.4877 0.0000 0.0000
# 5 0.0000 0.0000 0.0000 0.0000 29.4882 0.0000
# 6 0.0000 0.0000 0.0000 0.0000 0.0000 16.9044
#
#
#
# Elastic Compliance Matrix: (Units=1/GPa)
#
#
# Indices 1 2 3 4 5 6 
#
# 1 0.009505 -0.003118 -0.001785 0.000000 0.000000 0.000000
# 2 -0.003118 0.009505 -0.001785 0.000000 0.000000 0.000000
# 3 -0.001785 -0.001785 0.010993 0.000000 0.000000 0.000000
# 4 0.000000 0.000000 0.000000 0.033912 0.000000 0.000000
# 5 0.000000 0.000000 0.000000 0.000000 0.033912 0.000000
# 6 0.000000 0.000000 0.000000 0.000000 0.000000 0.059156
#
#
# Mechanical properties :
#
#
# Convention : Reuss Voigt Hill
#
# Bulk Modulus (GPa) = 60.14970 61.81583 60.98276
# Shear Modulus (GPa) = 28.42479 31.77936 30.10207
#
# Velocity S-wave (km/s) = 3.59106 3.79705 3.69549
# Velocity P-wave (km/s) = 6.66955 6.87517 6.77314
#
# Compressibility (1/GPa) = 0.01662519
#
# Stress axis : x y z
#
# Youngs Moduli (GPa) = 105.21019 105.20914 90.96555
#
# Poissons Ratio (x) = 0.32804 0.16241
# Poissons Ratio (y) = 0.32804 0.16241
# Poissons Ratio (z) = 0.18785 0.18784
#
# Static dielectric constant tensor:
#      x y z
#    x 4.010620 0.000000 0.000000 
#    y 0.000000 4.010620 0.000000 
#    z 0.000000 0.000000 3.821430 
# 
# 
# High freq. dielectric constant tensor:
#      x y z
#    x 1.875830 0.000000 0.000000 
#    y 0.000000 1.875830 0.000000 
#    z 0.000000 0.000000 1.861230 
# 
# From -- ./inp_files/3811.got.cif
#   From: 2010.03.12/outbox.cif.g09.slc.cpg/sg130_2_cif.got.tgz:3811.got - 2010.04.06 17:30:23.
