data_PCOD8315655
_publ_section_title
;
Structure prediction by ZEFSAII (Michael W. Deem and Ramdas Pophale) SiO2 
 PCOD8315655
Probable space group: P 42/M M C
;
_chemical_formula_sum "Si O2"
_cell_formula_units_Z 112
_cell_length_a 20.639252
_cell_length_b 20.639252
_cell_length_c 20.622812
_cell_angle_alpha 90.000000
_cell_angle_beta 90.000000
_cell_angle_gamma 90.000000
_cell_volume 8784.879123
_symmetry_space_group_name_H-M "P 42/M M C"
_symmetry_group_IT_number 131
_symmetry_cell_setting 'tetragonal'
loop_
_space_group_symop_operation_xyz
x,y,z
-x,-y,z
-y,x,1/2+z
y,-x,1/2+z
-x,y,-z
x,-y,-z
y,x,1/2-z
-y,-x,1/2-z
-x,-y,-z
x,y,-z
y,-x,1/2-z
-y,x,1/2-z
x,-y,z
-x,y,z
-y,-x,1/2+z
y,x,1/2+z
loop_
_atom_site_type_symbol
_atom_site_label
_atom_site_fract_x
_atom_site_fract_y
_atom_site_fract_z
Si Si1 0.169162 0.927477 0.109050
Si Si2 0.312183 0.923600 0.069775
Si Si3 0.892243 0.208321 0.253051
Si Si4 0.184166 0.927433 0.388271
Si Si5 0.076645 0.571686 0.825611
Si Si6 0.654175 0.923499 0.792599
Si Si7 0.923414 0.324149 0.072807
O O1 0.237095 0.904781 0.078338
O O2 0.176459 0.929553 0.186604
O O3 0.115345 0.875928 0.086159
O O4 0.149850 0.000000 0.085616
O O5 0.353829 0.898925 0.132412
O O6 0.319166 0.000000 0.067011
O O7 0.336575 0.894596 0.000000
O O8 0.818662 0.181339 0.250000
O O9 0.930950 0.187017 0.189357
O O10 0.887983 0.285492 0.258976
O O11 0.251874 0.896309 0.413713
O O12 0.174212 0.000000 0.415601
O O13 0.106143 0.500000 0.837416
O O14 0.093513 0.592070 0.751361
O O15 0.106317 0.622612 0.877546
O O16 0.000000 0.569327 0.834827
O O17 0.669298 0.000000 0.791951
O O18 0.000000 0.320990 0.083410
O O19 0.905061 0.345790 0.000000
#
# Coordination Sequence:
#
# PCOD8315655 Si02
#       7
#    16  16  16  16  16  16  16
#     4   9  17  25  34  49  65  83 114 152 184 218
#     4   8  14  24  37  50  63  82 106 134 167 200
#     4   9  15  23  36  51  64  84 113 143 178 217
#     4  10  17  25  36  46  63  89 114 144 185 227
#     4   9  16  25  39  56  70  85 104 128 162 205
#     4   9  14  23  38  52  69  85 104 134 166 203
#     4   9  17  27  37  49  65  85 108 132 163 208
#
# _framework density 12.749180000000001
#
# number of rings (size 3 to 8) (size 9 to 14) (size 15 to 20)
#    0.000    3.000    1.429    2.143    0.000    1.143 
#    0.000    1.429    0.000    3.000    0.000    7.000 
#    0.000    0.000    0.000    0.000    0.000    0.000 
#
# Total GULP energy -1387595.569815 kJ/mol
# GULP energy per Si atom -12389.246159 kJ/mol
# Density = 1.272016 g / cm^3
# Si number density = 12.749180 Si / 1000 Ang^3
#
#
#
# Elastic Constant Matrix: (Units=GPa)
#
#
# Indices 1 2 3 4 5 6 
#
# 1 50.0936 16.9442 20.3119 0.0000 0.0000 0.0000
# 2 16.9442 50.0934 20.3118 0.0000 0.0000 0.0000
# 3 20.3119 20.3118 82.3497 0.0000 0.0000 0.0000
# 4 0.0000 0.0000 0.0000 7.3007 0.0000 0.0000
# 5 0.0000 0.0000 0.0000 0.0000 7.3008 0.0000
# 6 0.0000 0.0000 0.0000 0.0000 0.0000 2.3379
#
#
#
# Elastic Compliance Matrix: (Units=1/GPa)
#
#
# Indices 1 2 3 4 5 6 
#
# 1 0.023852 -0.006314 -0.004326 0.000000 0.000000 0.000000
# 2 -0.006314 0.023853 -0.004326 0.000000 0.000000 0.000000
# 3 -0.004326 -0.004326 0.014277 0.000000 0.000000 0.000000
# 4 0.000000 0.000000 0.000000 0.136973 0.000000 0.000000
# 5 0.000000 0.000000 0.000000 0.000000 0.136972 0.000000
# 6 0.000000 0.000000 0.000000 0.000000 0.000000 0.427729
#
#
# Mechanical properties :
#
#
# Convention : Reuss Voigt Hill
#
# Bulk Modulus (GPa) = 31.20076 33.07473 32.13774
# Shear Modulus (GPa) = 6.21681 11.71913 8.96797
#
# Velocity S-wave (km/s) = 2.21062 3.03513 2.65508
# Velocity P-wave (km/s) = 5.57150 6.18722 5.88741
#
# Compressibility (1/GPa) = 0.03205050
#
# Stress axis : x y z
#
# Youngs Moduli (GPa) = 41.92443 41.92428 70.04109
#
# Poissons Ratio (x) = 0.26471 0.30299
# Poissons Ratio (y) = 0.26471 0.30299
# Poissons Ratio (z) = 0.18136 0.18136
#
# Static dielectric constant tensor:
#      x y z
#    x 2.351450 0.000000 0.000000 
#    y 0.000000 2.351450 0.000000 
#    z 0.000000 0.000000 2.908610 
# 
# 
# High freq. dielectric constant tensor:
#      x y z
#    x 1.435870 0.000000 0.000000 
#    y 0.000000 1.435870 0.000000 
#    z 0.000000 0.000000 1.505020 
# 
# From -- ./inp_files/10181.got.cif
#   From: 2010.03.12/outbox.cif.g09.slc.cpg/sg131_6_cif.got.tgz:10181.got - 2010.04.06 17:36:35.
