data_PCOD8315445
_publ_section_title
;
Structure prediction by ZEFSAII (Michael W. Deem and Ramdas Pophale) SiO2 
 PCOD8315445
Probable space group: P 4/N M M
;
_chemical_formula_sum "Si O2"
_cell_formula_units_Z 112
_cell_length_a 16.864928
_cell_length_b 16.864928
_cell_length_c 25.970549
_cell_angle_alpha 90.000000
_cell_angle_beta 90.000000
_cell_angle_gamma 90.000000
_cell_volume 7386.694083
_symmetry_space_group_name_H-M "P 4/N M M"
_symmetry_group_IT_number 129
_symmetry_cell_setting 'tetragonal'
loop_
_space_group_symop_operation_xyz
x,y,z
1/2-y,x,z
1/2-x,1/2-y,z
y,1/2-x,z
1/2+x,-y,-z
-x,1/2+y,-z
1/2+y,1/2+x,-z
-y,-x,-z
-x,-y,-z
1/2+y,-x,-z
1/2+x,1/2+y,-z
-y,1/2+x,-z
1/2-x,y,z
x,1/2-y,z
1/2-y,1/2-x,z
y,x,z
loop_
_atom_site_type_symbol
_atom_site_label
_atom_site_fract_x
_atom_site_fract_y
_atom_site_fract_z
Si Si1 0.547307 0.085554 0.622939
Si Si2 0.658659 0.529045 0.168035
Si Si3 0.468744 0.340498 0.416727
Si Si4 0.529933 0.840895 0.284512
Si Si5 0.966832 0.839180 0.466289
Si Si6 0.524023 0.842247 0.976198
Si Si7 0.955274 0.413136 0.925246
O O1 0.540020 0.131928 0.676985
O O2 0.537255 0.144360 0.574317
O O3 0.481995 0.018006 0.618058
O O4 0.632330 0.042249 0.619226
O O5 0.750000 0.550014 0.157405
O O6 0.609273 0.609273 0.157159
O O7 0.645793 0.498953 0.226396
O O8 0.629250 0.458226 0.130570
O O9 0.449296 0.250000 0.404532
O O10 0.388943 0.388943 0.404419
O O11 0.496285 0.355651 0.475644
O O12 0.552101 0.750000 0.294756
O O13 0.609653 0.890348 0.295276
O O14 0.937435 0.750000 0.460527
O O15 0.891119 0.891119 0.451860
O O16 0.545484 0.750000 0.965818
O O17 0.604613 0.895388 0.972410
O O18 0.455798 0.870559 0.935441
O O19 0.481814 0.849527 0.031823
O O20 0.016546 0.483455 0.928958
#
# Coordination Sequence:
#
# PCOD8315445 Si02
#       7
#    16  16  16  16  16  16  16
#     4   9  16  27  41  57  80 108 138 165 188 227
#     4   9  16  26  41  61  85 112 141 171 201 232
#     4   9  17  28  43  62  80  99 125 160 204 249
#     4   9  17  27  41  62  85 111 140 168 198 229
#     4   9  16  25  39  59  82 108 134 161 195 232
#     4   9  16  26  42  63  85 110 139 171 209 248
#     4   8  15  27  41  58  83 115 145 169 197 240
#
# _framework density 15.162398
#
# number of rings (size 3 to 8) (size 9 to 14) (size 15 to 20)
#    0.000    3.143    0.000    2.143    0.000    2.429 
#    0.000    2.857    0.000   15.000    0.000    6.000 
#    0.000    0.000    0.000   11.143    0.000    0.143 
#
# Total GULP energy -1387881.670561 kJ/mol
# GULP energy per Si atom -12391.800630 kJ/mol
# Density = 1.512789 g / cm^3
# Si number density = 15.162398 Si / 1000 Ang^3
#
#
#
# Elastic Constant Matrix: (Units=GPa)
#
#
# Indices 1 2 3 4 5 6 
#
# 1 71.5583 54.0000 47.7720 0.0000 0.0000 0.0000
# 2 54.0000 71.5583 47.7720 0.0000 0.0000 0.0000
# 3 47.7720 47.7720 88.8309 0.0000 0.0000 0.0000
# 4 0.0000 0.0000 0.0000 20.1411 0.0000 0.0000
# 5 0.0000 0.0000 0.0000 0.0000 20.1411 0.0000
# 6 0.0000 0.0000 0.0000 0.0000 0.0000 15.3625
#
#
#
# Elastic Compliance Matrix: (Units=1/GPa)
#
#
# Indices 1 2 3 4 5 6 
#
# 1 0.035217 -0.021736 -0.007250 0.000000 0.000000 0.000000
# 2 -0.021736 0.035217 -0.007250 0.000000 0.000000 0.000000
# 3 -0.007250 -0.007250 0.019055 0.000000 0.000000 0.000000
# 4 0.000000 0.000000 0.000000 0.049650 0.000000 0.000000
# 5 0.000000 0.000000 0.000000 0.000000 0.049650 0.000000
# 6 0.000000 0.000000 0.000000 0.000000 0.000000 0.065094
#
#
# Mechanical properties :
#
#
# Convention : Reuss Voigt Hill
#
# Bulk Modulus (GPa) = 58.76218 59.00393 58.88306
# Shear Modulus (GPa) = 15.05897 16.62248 15.84073
#
# Velocity S-wave (km/s) = 3.15489 3.31463 3.23575
# Velocity P-wave (km/s) = 7.21876 7.32449 7.27182
#
# Compressibility (1/GPa) = 0.01701775
#
# Stress axis : x y z
#
# Youngs Moduli (GPa) = 28.39518 28.39518 52.47866
#
# Poissons Ratio (x) = 0.61719 0.38048
# Poissons Ratio (y) = 0.61719 0.38048
# Poissons Ratio (z) = 0.20587 0.20587
#
# Static dielectric constant tensor:
#      x y z
#    x 2.823260 0.000000 0.000000 
#    y 0.000000 2.823260 0.000000 
#    z 0.000000 0.000000 3.192480 
# 
# 
# High freq. dielectric constant tensor:
#      x y z
#    x 1.561280 0.000000 0.000000 
#    y 0.000000 1.561280 0.000000 
#    z 0.000000 0.000000 1.574650 
# 
# From -- ./inp_files/7211.got.cif
#   From: 2010.03.12/outbox.cif.g09.slc.cpg/sg129_4_cif.got.tgz:7211.got - 2010.04.06 17:19:44.
