data_PCOD8315257
_publ_section_title
;
Structure prediction by ZEFSAII (Michael W. Deem and Ramdas Pophale) SiO2 
 PCOD8315257
Probable space group: P 4/N M M
;
_chemical_formula_sum "Si O2"
_cell_formula_units_Z 96
_cell_length_a 20.585712
_cell_length_b 20.585712
_cell_length_c 12.684238
_cell_angle_alpha 90.000000
_cell_angle_beta 90.000000
_cell_angle_gamma 90.000000
_cell_volume 5375.219053
_symmetry_space_group_name_H-M "P 4/N M M"
_symmetry_group_IT_number 129
_symmetry_cell_setting 'tetragonal'
loop_
_space_group_symop_operation_xyz
x,y,z
1/2-y,x,z
1/2-x,1/2-y,z
y,1/2-x,z
1/2+x,-y,-z
-x,1/2+y,-z
1/2+y,1/2+x,-z
-y,-x,-z
-x,-y,-z
1/2+y,-x,-z
1/2+x,1/2+y,-z
-y,1/2+x,-z
1/2-x,y,z
x,1/2-y,z
1/2-y,1/2-x,z
y,x,z
loop_
_atom_site_type_symbol
_atom_site_label
_atom_site_fract_x
_atom_site_fract_y
_atom_site_fract_z
Si Si1 0.823385 0.571594 0.569592
Si Si2 0.678177 0.923645 0.320381
Si Si3 0.912642 0.484114 0.203293
Si Si4 0.825164 0.177401 0.676321
Si Si5 0.824232 0.386065 0.099431
Si Si6 0.443800 0.600004 0.607047
O O1 0.750000 0.582736 0.612531
O O2 0.869088 0.630913 0.608887
O O3 0.822835 0.568187 0.444605
O O4 0.849800 0.503112 0.610969
O O5 0.750000 0.917368 0.274713
O O6 0.640944 0.859057 0.284720
O O7 0.645981 0.986673 0.271025
O O8 0.877359 0.444288 0.109845
O O9 0.953465 0.441746 0.286854
O O10 0.961063 0.538938 0.154994
O O11 0.750000 0.164359 0.658003
O O12 0.844512 0.250000 0.637828
O O13 0.840326 0.169500 0.799412
O O14 0.864274 0.125616 0.607884
O O15 0.750000 0.412256 0.087073
O O16 0.842370 0.342370 0.000000
O O17 0.444085 0.555916 0.500000
#
# Coordination Sequence:
#
# PCOD8315257 Si02
#       6
#    16  16  16  16  16  16
#     4  10  20  32  48  69  94 129 171 213 256 300
#     4   9  17  29  45  66  94 128 166 206 247 290
#     4  10  20  33  50  72 100 131 163 205 248 295
#     4   9  19  33  47  69 100 133 171 212 255 304
#     4  10  20  34  54  75  96 126 161 201 250 305
#     4  11  20  31  49  71 100 136 174 209 249 300
#
# _framework density 17.859736999999999
#
# number of rings (size 3 to 8) (size 9 to 14) (size 15 to 20)
#    0.000    2.167    1.667    2.000    0.000    4.167 
#    0.000    2.500    0.000    0.000    0.000    0.000 
#    0.000    0.000    0.000    0.000    0.000   30.667 
#
# Total GULP energy -1190121.821224 kJ/mol
# GULP energy per Si atom -12397.102304 kJ/mol
# Density = 1.781909 g / cm^3
# Si number density = 17.859737 Si / 1000 Ang^3
#
#
#
# Elastic Constant Matrix: (Units=GPa)
#
#
# Indices 1 2 3 4 5 6 
#
# 1 103.1950 47.0360 18.6959 0.0000 0.0000 0.0000
# 2 47.0360 103.1957 18.6957 0.0000 0.0000 0.0000
# 3 18.6959 18.6957 40.0853 0.0000 0.0000 0.0000
# 4 0.0000 0.0000 0.0000 16.5922 0.0000 0.0000
# 5 0.0000 0.0000 0.0000 0.0000 16.5921 0.0000
# 6 0.0000 0.0000 0.0000 0.0000 0.0000 29.9883
#
#
#
# Elastic Compliance Matrix: (Units=1/GPa)
#
#
# Indices 1 2 3 4 5 6 
#
# 1 0.012669 -0.005138 -0.003512 0.000000 0.000000 0.000000
# 2 -0.005138 0.012668 -0.003512 0.000000 0.000000 0.000000
# 3 -0.003512 -0.003512 0.028223 0.000000 0.000000 0.000000
# 4 0.000000 0.000000 0.000000 0.060269 0.000000 0.000000
# 5 0.000000 0.000000 0.000000 0.000000 0.060270 0.000000
# 6 0.000000 0.000000 0.000000 0.000000 0.000000 0.033346
#
#
# Mechanical properties :
#
#
# Convention : Reuss Voigt Hill
#
# Bulk Modulus (GPa) = 34.20541 46.14789 40.17665
# Shear Modulus (GPa) = 20.70264 23.43776 22.07020
#
# Velocity S-wave (km/s) = 3.40837 3.62653 3.51914
# Velocity P-wave (km/s) = 5.88924 6.59020 6.24956
#
# Compressibility (1/GPa) = 0.02923515
#
# Stress axis : x y z
#
# Youngs Moduli (GPa) = 78.93541 78.93615 35.43207
#
# Poissons Ratio (x) = 0.40557 0.12445
# Poissons Ratio (y) = 0.40557 0.12444
# Poissons Ratio (z) = 0.27725 0.27724
#
# Static dielectric constant tensor:
#      x y z
#    x 3.473320 0.000000 0.000000 
#    y 0.000000 3.473320 0.000000 
#    z 0.000000 0.000000 2.937930 
# 
# 
# High freq. dielectric constant tensor:
#      x y z
#    x 1.698160 0.000000 0.000000 
#    y 0.000000 1.698160 0.000000 
#    z 0.000000 0.000000 1.649770 
# 
# From -- ./inp_files/3846.got.cif
#   From: 2010.03.12/outbox.cif.g09.slc.cpg/sg129_2_cif.got.tgz:3846.got - 2010.04.06 17:19:44.
