data_PCOD8315748
_publ_section_title
;
Structure prediction by ZEFSAII (Michael W. Deem and Ramdas Pophale) SiO2 
 PCOD8315748
Probable space group: P 42/M M C
;
_chemical_formula_sum "Si O2"
_cell_formula_units_Z 80
_cell_length_a 18.082675
_cell_length_b 18.082675
_cell_length_c 13.331302
_cell_angle_alpha 90.000000
_cell_angle_beta 90.000000
_cell_angle_gamma 90.000000
_cell_volume 4359.110924
_symmetry_space_group_name_H-M "P 42/M M C"
_symmetry_group_IT_number 131
_symmetry_cell_setting 'tetragonal'
loop_
_space_group_symop_operation_xyz
x,y,z
-x,-y,z
-y,x,1/2+z
y,-x,1/2+z
-x,y,-z
x,-y,-z
y,x,1/2-z
-y,-x,1/2-z
-x,-y,-z
x,y,-z
y,-x,1/2-z
-y,x,1/2-z
x,-y,z
-x,y,z
-y,-x,1/2+z
y,x,1/2+z
loop_
_atom_site_type_symbol
_atom_site_label
_atom_site_fract_x
_atom_site_fract_y
_atom_site_fract_z
Si Si1 0.583897 0.238348 0.293701
Si Si2 0.916781 0.384061 0.885845
Si Si3 0.080742 0.224563 0.814167
Si Si4 0.714638 0.323563 0.611069
Si Si5 0.218408 0.850010 0.112206
O O1 0.500000 0.266087 0.305044
O O2 0.585328 0.150063 0.317041
O O3 0.634477 0.288848 0.365518
O O4 0.610762 0.256103 0.181171
O O5 0.914483 0.295809 0.884411
O O6 0.000000 0.410617 0.850537
O O7 0.903135 0.410582 0.000000
O O8 0.097606 0.250869 0.698994
O O9 0.132815 0.161594 0.859872
O O10 0.000000 0.188930 0.816241
O O11 0.712814 0.357337 0.500000
O O12 0.769993 0.255146 0.620471
O O13 0.228032 0.883997 0.000000
#
# Coordination Sequence:
#
# PCOD8315748 Si02
#       5
#    16  16  16  16  16
#     4  11  21  35  56  81 109 142 177 214 260 311
#     4  10  19  31  49  77 113 145 172 206 252 309
#     4  10  18  30  49  75 105 134 169 213 262 307
#     4  10  20  37  56  78 105 135 178 223 259 302
#     4  10  18  32  54  74  97 134 177 220 259 299
#
# _framework density 18.352367000000001
#
# number of rings (size 3 to 8) (size 9 to 14) (size 15 to 20)
#    0.000    1.800    4.000    2.400    0.000    4.000 
#    0.000    1.000    0.000   10.200    0.000   12.600 
#    0.000    0.000    0.000    0.000    0.000    0.000 
#
# Total GULP energy -991379.079805 kJ/mol
# GULP energy per Si atom -12392.238498 kJ/mol
# Density = 1.831060 g / cm^3
# Si number density = 18.352367 Si / 1000 Ang^3
#
#
#
# Elastic Constant Matrix: (Units=GPa)
#
#
# Indices 1 2 3 4 5 6 
#
# 1 87.6574 30.1342 23.7927 0.0000 0.0000 0.0000
# 2 30.1342 87.6574 23.7927 0.0000 0.0000 0.0000
# 3 23.7927 23.7927 95.8907 0.0000 0.0000 0.0000
# 4 0.0000 0.0000 0.0000 5.5609 0.0000 0.0000
# 5 0.0000 0.0000 0.0000 0.0000 5.5609 0.0000
# 6 0.0000 0.0000 0.0000 0.0000 0.0000 11.6803
#
#
#
# Elastic Compliance Matrix: (Units=1/GPa)
#
#
# Indices 1 2 3 4 5 6 
#
# 1 0.013410 -0.003974 -0.002341 0.000000 0.000000 0.000000
# 2 -0.003974 0.013410 -0.002341 0.000000 0.000000 0.000000
# 3 -0.002341 -0.002341 0.011590 0.000000 0.000000 0.000000
# 4 0.000000 0.000000 0.000000 0.179828 0.000000 0.000000
# 5 0.000000 0.000000 0.000000 0.000000 0.179828 0.000000
# 6 0.000000 0.000000 0.000000 0.000000 0.000000 0.085614
#
#
# Mechanical properties :
#
#
# Convention : Reuss Voigt Hill
#
# Bulk Modulus (GPa) = 47.40123 47.40494 47.40308
# Shear Modulus (GPa) = 9.84203 17.45948 13.65076
#
# Velocity S-wave (km/s) = 2.31829 3.08774 2.73025
# Velocity P-wave (km/s) = 5.74895 6.21278 5.98536
#
# Compressibility (1/GPa) = 0.02109650
#
# Stress axis : x y z
#
# Youngs Moduli (GPa) = 74.57227 74.57227 86.27900
#
# Poissons Ratio (x) = 0.29639 0.20199
# Poissons Ratio (y) = 0.29639 0.20199
# Poissons Ratio (z) = 0.17458 0.17458
#
# Static dielectric constant tensor:
#      x y z
#    x 3.218010 0.000000 0.000000 
#    y 0.000000 3.218010 0.000000 
#    z 0.000000 0.000000 3.676580 
# 
# 
# High freq. dielectric constant tensor:
#      x y z
#    x 1.690650 0.000000 0.000000 
#    y 0.000000 1.690650 0.000000 
#    z 0.000000 0.000000 1.718470 
# 
# From -- ./inp_files/5694.got.cif
#   From: 2010.03.12/outbox.cif.g09.slc.cpg/sg131_3_cif.got.tgz:5694.got - 2010.04.06 17:36:35.
