data_PCOD8315025
_publ_section_title
;
Structure prediction by ZEFSAII (Michael W. Deem and Ramdas Pophale) SiO2 
 PCOD8315025
Probable space group: P 4/N M M
;
_chemical_formula_sum "Si O2"
_cell_formula_units_Z 128
_cell_length_a 18.605818
_cell_length_b 18.605818
_cell_length_c 23.401731
_cell_angle_alpha 90.000000
_cell_angle_beta 90.000000
_cell_angle_gamma 90.000000
_cell_volume 8101.128476
_symmetry_space_group_name_H-M "P 4/N M M"
_symmetry_group_IT_number 129
_symmetry_cell_setting 'tetragonal'
loop_
_space_group_symop_operation_xyz
x,y,z
1/2-y,x,z
1/2-x,1/2-y,z
y,1/2-x,z
1/2+x,-y,-z
-x,1/2+y,-z
1/2+y,1/2+x,-z
-y,-x,-z
-x,-y,-z
1/2+y,-x,-z
1/2+x,1/2+y,-z
-y,1/2+x,-z
1/2-x,y,z
x,1/2-y,z
1/2-y,1/2-x,z
y,x,z
loop_
_atom_site_type_symbol
_atom_site_label
_atom_site_fract_x
_atom_site_fract_y
_atom_site_fract_z
Si Si1 0.972781 0.330351 0.922375
Si Si2 0.833039 0.065567 0.532936
Si Si3 0.468524 0.586192 0.873639
Si Si4 0.447822 0.331725 0.037583
Si Si5 0.429811 0.548645 0.756033
Si Si6 0.944719 0.670634 0.188551
Si Si7 0.952576 0.833936 0.435849
Si Si8 0.554501 0.064211 0.629919
O O1 0.937941 0.250000 0.920356
O O2 0.915547 0.390681 0.904021
O O3 0.040564 0.332840 0.879355
O O4 0.998329 0.348733 0.985999
O O5 0.866338 0.133663 0.500000
O O6 0.750000 0.082463 0.545752
O O7 0.874835 0.054586 0.591968
O O8 0.841750 0.992613 0.496527
O O9 0.508955 0.508955 0.881786
O O10 0.513952 0.649226 0.902474
O O11 0.459949 0.602243 0.805542
O O12 0.423890 0.250000 0.039169
O O13 0.375702 0.375702 0.029021
O O14 0.482417 0.482417 0.746869
O O15 0.354589 0.516513 0.778444
O O16 0.421518 0.585145 0.694063
O O17 0.926314 0.750000 0.209580
O O18 0.876602 0.623399 0.204732
O O19 0.937802 0.750000 0.421322
O O20 0.877024 0.877024 0.438417
O O21 0.004928 0.868018 0.387934
O O22 0.508652 0.991349 0.624471
#
# Coordination Sequence:
#
# PCOD8315025 Si02
#       8
#    16  16  16  16  16  16  16  16
#     4   9  16  26  42  64  86 108 138 175 214 254
#     4   9  17  29  45  65  87 110 138 173 212 253
#     4   9  16  28  45  62  82 110 144 180 214 251
#     4  10  19  29  43  63  86 112 141 174 214 260
#     4   8  15  27  42  59  78 103 138 178 215 247
#     4   9  16  25  37  55  81 111 142 175 209 248
#     4   9  17  28  43  65  92 120 148 175 203 239
#     4   9  16  28  46  64  84 112 143 175 211 250
#
# _framework density 15.800267
#
# number of rings (size 3 to 8) (size 9 to 14) (size 15 to 20)
#    0.000    3.000    0.000    2.625    0.000    3.500 
#    0.000    0.625    0.000    2.625    0.000    5.250 
#    0.000    3.000    0.000    7.875    0.000    0.000 
#
# Total GULP energy -1586406.502044 kJ/mol
# GULP energy per Si atom -12393.800797 kJ/mol
# Density = 1.576430 g / cm^3
# Si number density = 15.800267 Si / 1000 Ang^3
#
#
#
# Elastic Constant Matrix: (Units=GPa)
#
#
# Indices 1 2 3 4 5 6 
#
# 1 60.5424 15.9562 28.1757 0.0000 0.0000 0.0000
# 2 15.9562 60.5422 28.1759 0.0000 0.0000 0.0000
# 3 28.1757 28.1759 115.1569 0.0000 0.0000 0.0000
# 4 0.0000 0.0000 0.0000 15.5424 0.0000 0.0000
# 5 0.0000 0.0000 0.0000 0.0000 15.5424 0.0000
# 6 0.0000 0.0000 0.0000 0.0000 0.0000 15.1340
#
#
#
# Elastic Compliance Matrix: (Units=1/GPa)
#
#
# Indices 1 2 3 4 5 6 
#
# 1 0.019187 -0.003241 -0.003902 0.000000 0.000000 0.000000
# 2 -0.003241 0.019187 -0.003902 0.000000 0.000000 0.000000
# 3 -0.003902 -0.003902 0.010593 0.000000 0.000000 0.000000
# 4 0.000000 0.000000 0.000000 0.064340 0.000000 0.000000
# 5 0.000000 0.000000 0.000000 0.000000 0.064340 0.000000
# 6 0.000000 0.000000 0.000000 0.000000 0.000000 0.066077
#
#
# Mechanical properties :
#
#
# Convention : Reuss Voigt Hill
#
# Bulk Modulus (GPa) = 37.20373 42.31747 39.76060
# Shear Modulus (GPa) = 18.19684 20.17266 19.18475
#
# Velocity S-wave (km/s) = 3.39732 3.57701 3.48832
# Velocity P-wave (km/s) = 6.24391 6.62578 6.43768
#
# Compressibility (1/GPa) = 0.02687902
#
# Stress axis : x y z
#
# Youngs Moduli (GPa) = 52.11773 52.11749 94.40158
#
# Poissons Ratio (x) = 0.16892 0.36832
# Poissons Ratio (y) = 0.16892 0.36832
# Poissons Ratio (z) = 0.20334 0.20334
#
# Static dielectric constant tensor:
#      x y z
#    x 2.837250 0.000000 0.000000 
#    y 0.000000 2.837250 0.000000 
#    z 0.000000 0.000000 3.219320 
# 
# 
# High freq. dielectric constant tensor:
#      x y z
#    x 1.584590 0.000000 0.000000 
#    y 0.000000 1.584590 0.000000 
#    z 0.000000 0.000000 1.610890 
# 
# From -- ./inp_files/7251.got.cif
#   From: 2010.03.12/outbox.cif.g09.slc.cpg/sg129_4_cif.got.tgz:7251.got - 2010.04.06 17:19:44.
