data_PCOD8315863
_publ_section_title
;
Structure prediction by ZEFSAII (Michael W. Deem and Ramdas Pophale) SiO2 
 PCOD8315863
Probable space group: P 42/M M C
;
_chemical_formula_sum "Si O2"
_cell_formula_units_Z 112
_cell_length_a 14.362206
_cell_length_b 14.362206
_cell_length_c 30.632577
_cell_angle_alpha 90.000000
_cell_angle_beta 90.000000
_cell_angle_gamma 90.000000
_cell_volume 6318.672367
_symmetry_space_group_name_H-M "P 42/M M C"
_symmetry_group_IT_number 131
_symmetry_cell_setting 'tetragonal'
loop_
_space_group_symop_operation_xyz
x,y,z
-x,-y,z
-y,x,1/2+z
y,-x,1/2+z
-x,y,-z
x,-y,-z
y,x,1/2-z
-y,-x,1/2-z
-x,-y,-z
x,y,-z
y,-x,1/2-z
-y,x,1/2-z
x,-y,z
-x,y,z
-y,-x,1/2+z
y,x,1/2+z
loop_
_atom_site_type_symbol
_atom_site_label
_atom_site_fract_x
_atom_site_fract_y
_atom_site_fract_z
Si Si1 0.207547 0.106323 0.711036
Si Si2 0.892302 0.892871 0.624608
Si Si3 0.294095 0.606712 0.710661
Si Si4 0.610529 0.604238 0.875386
Si Si5 0.262279 0.392841 0.549636
Si Si6 0.752785 0.106365 0.049504
Si Si7 0.103391 0.396251 0.251486
O O1 0.165900 0.165900 0.750000
O O2 0.170539 0.144202 0.664763
O O3 0.319994 0.115935 0.713029
O O4 0.174612 0.000000 0.716925
O O5 0.864811 0.836374 0.581419
O O6 0.000000 0.878494 0.637430
O O7 0.870200 0.000000 0.614203
O O8 0.333945 0.666056 0.750000
O O9 0.324661 0.500000 0.717293
O O10 0.335264 0.646755 0.665649
O O11 0.181476 0.617408 0.710834
O O12 0.652999 0.500000 0.873565
O O13 0.500000 0.598658 0.874474
O O14 0.644079 0.654462 0.919650
O O15 0.296190 0.378966 0.500000
O O16 0.238739 0.500000 0.559822
O O17 0.168369 0.337060 0.559666
O O18 0.722148 0.000000 0.057154
O O19 0.788348 0.121802 0.000000
O O20 0.114039 0.500000 0.230815
O O21 0.000000 0.384617 0.272723
#
# Coordination Sequence:
#
# PCOD8315863 Si02
#       7
#    16  16  16  16  16  16  16
#     4  10  19  31  49  71  96 126 157 192 235 280
#     4   9  18  32  50  73  98 122 153 195 241 288
#     4  10  19  31  48  69  94 123 155 193 237 282
#     4   9  18  32  49  70  95 122 156 198 241 285
#     4   9  18  32  49  70  97 128 160 194 233 278
#     4   9  18  32  50  72  97 126 159 194 233 278
#     4   9  19  34  48  64  90 125 164 200 230 267
#
# _framework density 17.725244
#
# number of rings (size 3 to 8) (size 9 to 14) (size 15 to 20)
#    0.000    2.714    0.000    1.286    0.000    4.571 
#    0.000    6.429    0.000    2.571    0.000    0.000 
#    0.000    0.000    0.000    8.714    0.000    0.429 
#
# Total GULP energy -1388407.753431 kJ/mol
# GULP energy per Si atom -12396.497798 kJ/mol
# Density = 1.768490 g / cm^3
# Si number density = 17.725244 Si / 1000 Ang^3
#
#
#
# Elastic Constant Matrix: (Units=GPa)
#
#
# Indices 1 2 3 4 5 6 
#
# 1 94.6096 50.0976 67.4470 0.0000 0.0000 0.0000
# 2 50.0976 94.6099 67.4463 0.0000 0.0000 0.0000
# 3 67.4470 67.4463 131.7768 0.0000 0.0000 0.0000
# 4 0.0000 0.0000 0.0000 23.1532 0.0000 0.0000
# 5 0.0000 0.0000 0.0000 0.0000 23.1532 0.0000
# 6 0.0000 0.0000 0.0000 0.0000 0.0000 19.6570
#
#
#
# Elastic Compliance Matrix: (Units=1/GPa)
#
#
# Indices 1 2 3 4 5 6 
#
# 1 0.017841 -0.004625 -0.006764 0.000000 0.000000 0.000000
# 2 -0.004625 0.017841 -0.006764 0.000000 0.000000 0.000000
# 3 -0.006764 -0.006764 0.014513 0.000000 0.000000 0.000000
# 4 0.000000 0.000000 0.000000 0.043191 0.000000 0.000000
# 5 0.000000 0.000000 0.000000 0.000000 0.043191 0.000000
# 6 0.000000 0.000000 0.000000 0.000000 0.000000 0.050872
#
#
# Mechanical properties :
#
#
# Convention : Reuss Voigt Hill
#
# Bulk Modulus (GPa) = 72.00589 76.77534 74.39061
# Shear Modulus (GPa) = 21.89290 22.25970 22.07630
#
# Velocity S-wave (km/s) = 3.51825 3.54760 3.53295
# Velocity P-wave (km/s) = 7.56410 7.75814 7.66174
#
# Compressibility (1/GPa) = 0.01388775
#
# Stress axis : x y z
#
# Youngs Moduli (GPa) = 56.05043 56.05142 68.90441
#
# Poissons Ratio (x) = 0.25923 0.46610
# Poissons Ratio (y) = 0.25923 0.46608
# Poissons Ratio (z) = 0.37915 0.37914
#
# Static dielectric constant tensor:
#      x y z
#    x 3.399740 0.000000 0.000000 
#    y 0.000000 3.399740 0.000000 
#    z 0.000000 0.000000 3.279360 
# 
# 
# High freq. dielectric constant tensor:
#      x y z
#    x 1.682030 0.000000 0.000000 
#    y 0.000000 1.682030 0.000000 
#    z 0.000000 0.000000 1.670470 
# 
# From -- ./inp_files/12451.got.cif
#   From: 2010.03.12/outbox.cif.g09.slc.cpg/sg131_7_cif.got.tgz:12451.got - 2010.04.06 17:36:35.
