data_PCOD8315592
_publ_section_title
;
Structure prediction by ZEFSAII (Michael W. Deem and Ramdas Pophale) SiO2 
 PCOD8315592
Probable space group: P 4/N C C
;
_chemical_formula_sum "Si O2"
_cell_formula_units_Z 96
_cell_length_a 15.939305
_cell_length_b 15.939305
_cell_length_c 18.940865
_cell_angle_alpha 90.000000
_cell_angle_beta 90.000000
_cell_angle_gamma 90.000000
_cell_volume 4812.143510
_symmetry_space_group_name_H-M "P 4/N C C"
_symmetry_group_IT_number 130
_symmetry_cell_setting 'tetragonal'
loop_
_space_group_symop_operation_xyz
x,y,z
1/2-y,x,z
1/2-x,1/2-y,z
y,1/2-x,z
1/2+x,-y,1/2-z
-x,1/2+y,1/2-z
1/2+y,1/2+x,1/2-z
-y,-x,1/2-z
-x,-y,-z
1/2+y,-x,-z
1/2+x,1/2+y,-z
-y,1/2+x,-z
1/2-x,y,1/2+z
x,1/2-y,1/2+z
1/2-y,1/2-x,1/2+z
y,x,1/2+z
loop_
_atom_site_type_symbol
_atom_site_label
_atom_site_fract_x
_atom_site_fract_y
_atom_site_fract_z
Si Si1 0.580365 0.011081 0.048457
Si Si2 0.168913 0.142643 0.385274
Si Si3 0.811110 0.364004 0.973296
Si Si4 0.864720 0.820775 0.280237
Si Si5 0.655693 0.281705 0.182321
Si Si6 0.880410 0.459145 0.315940
O O1 0.565110 0.073631 0.112769
O O2 0.609474 0.920728 0.073975
O O3 0.655716 0.048735 0.002578
O O4 0.500000 0.000000 0.000000
O O5 0.266135 0.134367 0.406841
O O6 0.165346 0.123627 0.302639
O O7 0.830679 0.365299 0.889579
O O8 0.858742 0.288044 0.012347
O O9 0.777218 0.863690 0.302077
O O10 0.941620 0.863178 0.320828
O O11 0.750000 0.250000 0.173683
O O12 0.654546 0.345455 0.250000
O O13 0.591535 0.205921 0.194858
O O14 0.940462 0.440462 0.250000
#
# Coordination Sequence:
#
# PCOD8315592 Si02
#       6
#    16  16  16  16  16  16
#     4  12  27  42  63  97 134 176 217 272 340 392
#     4   9  20  41  68  94 122 168 222 268 322 394
#     4  11  22  41  64  92 133 174 211 265 340 403
#     4   9  20  41  68  93 126 172 215 269 335 388
#     4  11  21  38  64  99 126 174 220 257 335 414
#     4  12  22  40  65  99 136 162 215 290 328 393
#
# _framework density 19.949528999999998
#
# number of rings (size 3 to 8) (size 9 to 14) (size 15 to 20)
#    0.000    1.333    6.667    1.000    2.333    1.333 
#    3.000    1.667    0.000    2.000    0.000    0.000 
#    0.000    0.000    0.000    0.000    0.000    0.000 
#
# Total GULP energy -1190414.404984 kJ/mol
# GULP energy per Si atom -12400.150052 kJ/mol
# Density = 1.990412 g / cm^3
# Si number density = 19.949529 Si / 1000 Ang^3
#
#
#
# Elastic Constant Matrix: (Units=GPa)
#
#
# Indices 1 2 3 4 5 6 
#
# 1 76.9441 40.2265 26.1624 0.0000 0.0000 0.0000
# 2 40.2265 76.9439 26.1623 0.0000 0.0000 0.0000
# 3 26.1624 26.1623 117.7408 0.0000 0.0000 0.0000
# 4 0.0000 0.0000 0.0000 24.5603 0.0000 0.0000
# 5 0.0000 0.0000 0.0000 0.0000 24.5606 0.0000
# 6 0.0000 0.0000 0.0000 0.0000 0.0000 30.7063
#
#
#
# Elastic Compliance Matrix: (Units=1/GPa)
#
#
# Indices 1 2 3 4 5 6 
#
# 1 0.018355 -0.008880 -0.002105 0.000000 0.000000 0.000000
# 2 -0.008880 0.018355 -0.002105 0.000000 0.000000 0.000000
# 3 -0.002105 -0.002105 0.009429 0.000000 0.000000 0.000000
# 4 0.000000 0.000000 0.000000 0.040716 0.000000 0.000000
# 5 0.000000 0.000000 0.000000 0.000000 0.040716 0.000000
# 6 0.000000 0.000000 0.000000 0.000000 0.000000 0.032567
#
#
# Mechanical properties :
#
#
# Convention : Reuss Voigt Hill
#
# Bulk Modulus (GPa) = 50.10757 50.74792 50.42775
# Shear Modulus (GPa) = 25.91067 27.90396 26.90731
#
# Velocity S-wave (km/s) = 3.60781 3.74401 3.67654
# Velocity P-wave (km/s) = 6.52126 6.64707 6.58446
#
# Compressibility (1/GPa) = 0.01995706
#
# Stress axis : x y z
#
# Youngs Moduli (GPa) = 54.48158 54.48143 106.05756
#
# Poissons Ratio (x) = 0.48380 0.22329
# Poissons Ratio (y) = 0.48380 0.22328
# Poissons Ratio (z) = 0.11470 0.11470
#
# Static dielectric constant tensor:
#      x y z
#    x 3.612230 0.000000 0.000000 
#    y 0.000000 3.612230 0.000000 
#    z 0.000000 0.000000 3.868110 
# 
# 
# High freq. dielectric constant tensor:
#      x y z
#    x 1.773780 0.000000 0.000000 
#    y 0.000000 1.773780 0.000000 
#    z 0.000000 0.000000 1.780140 
# 
# From -- ./inp_files/3769.got.cif
#   From: 2010.03.12/outbox.cif.g09.slc.cpg/sg130_2_cif.got.tgz:3769.got - 2010.04.06 17:30:23.
