data_PCOD8315974
_publ_section_title
;
Structure prediction by ZEFSAII (Michael W. Deem and Ramdas Pophale) SiO2 
 PCOD8315974
Probable space group: P 42/M M C
;
_chemical_formula_sum "Si O2"
_cell_formula_units_Z 96
_cell_length_a 14.591156
_cell_length_b 14.591156
_cell_length_c 24.197593
_cell_angle_alpha 90.000000
_cell_angle_beta 90.000000
_cell_angle_gamma 90.000000
_cell_volume 5151.711914
_symmetry_space_group_name_H-M "P 42/M M C"
_symmetry_group_IT_number 131
_symmetry_cell_setting 'tetragonal'
loop_
_space_group_symop_operation_xyz
x,y,z
-x,-y,z
-y,x,1/2+z
y,-x,1/2+z
-x,y,-z
x,-y,-z
y,x,1/2-z
-y,-x,1/2-z
-x,-y,-z
x,y,-z
y,-x,1/2-z
-y,x,1/2-z
x,-y,z
-x,y,z
-y,-x,1/2+z
y,x,1/2+z
loop_
_atom_site_type_symbol
_atom_site_label
_atom_site_fract_x
_atom_site_fract_y
_atom_site_fract_z
Si Si1 0.760695 0.604864 0.435148
Si Si2 0.395342 0.741344 0.435726
Si Si3 0.599853 0.106038 0.761110
Si Si4 0.139819 0.898683 0.314095
Si Si5 0.288316 0.102707 0.139097
Si Si6 0.345580 0.897218 0.353067
O O1 0.778122 0.602697 0.500000
O O2 0.764039 0.500000 0.411896
O O3 0.662194 0.649986 0.420883
O O4 0.837815 0.672863 0.411082
O O5 0.386094 0.765169 0.500000
O O6 0.500000 0.721530 0.418838
O O7 0.356425 0.830469 0.404757
O O8 0.500000 0.120693 0.787637
O O9 0.672260 0.148591 0.804258
O O10 0.599656 0.146926 0.699022
O O11 0.625772 0.000000 0.753150
O O12 0.126580 0.873421 0.250000
O O13 0.096560 0.821976 0.354735
O O14 0.244462 0.902172 0.329835
O O15 0.096239 0.000000 0.324955
O O16 0.326642 0.000000 0.130308
O O17 0.379373 0.000000 0.370094
#
# Coordination Sequence:
#
# PCOD8315974 Si02
#       6
#    16  16  16  16  16  16
#     4  10  22  40  60  82 109 141 181 233 289 341
#     4  10  21  37  58  83 110 144 187 232 281 339
#     4   9  17  29  48  77 109 139 173 219 273 324
#     4  11  21  35  55  82 118 157 192 228 274 327
#     4  11  21  35  56  82 111 144 186 231 277 333
#     4  10  19  33  54  80 113 150 186 230 280 332
#
# _framework density 18.634582000000002
#
# number of rings (size 3 to 8) (size 9 to 14) (size 15 to 20)
#    0.000    1.833    3.333    1.500    0.000    4.167 
#    0.000    3.333    0.000    0.500    0.000    1.167 
#    0.000    5.333    0.000    0.000    0.000    0.000 
#
# Total GULP energy -1189478.334535 kJ/mol
# GULP energy per Si atom -12390.399318 kJ/mol
# Density = 1.859217 g / cm^3
# Si number density = 18.634582 Si / 1000 Ang^3
#
#
#
# Elastic Constant Matrix: (Units=GPa)
#
#
# Indices 1 2 3 4 5 6 
#
# 1 116.5061 37.5595 42.1215 0.0000 0.0000 0.0000
# 2 37.5595 116.5065 42.1214 0.0000 0.0000 0.0000
# 3 42.1215 42.1214 60.4729 0.0000 0.0000 0.0000
# 4 0.0000 0.0000 0.0000 22.8043 0.0000 0.0000
# 5 0.0000 0.0000 0.0000 0.0000 22.8036 0.0000
# 6 0.0000 0.0000 0.0000 0.0000 0.0000 19.1030
#
#
#
# Elastic Compliance Matrix: (Units=1/GPa)
#
#
# Indices 1 2 3 4 5 6 
#
# 1 0.011575 -0.001092 -0.007302 0.000000 0.000000 0.000000
# 2 -0.001092 0.011575 -0.007302 0.000000 0.000000 0.000000
# 3 -0.007302 -0.007302 0.026709 0.000000 0.000000 0.000000
# 4 0.000000 0.000000 0.000000 0.043851 0.000000 0.000000
# 5 0.000000 0.000000 0.000000 0.000000 0.043853 0.000000
# 6 0.000000 0.000000 0.000000 0.000000 0.000000 0.052348
#
#
# Mechanical properties :
#
#
# Convention : Reuss Voigt Hill
#
# Bulk Modulus (GPa) = 54.15000 59.67670 56.91335
# Shear Modulus (GPa) = 21.98204 24.38773 23.18488
#
# Velocity S-wave (km/s) = 3.43831 3.62157 3.53113
# Velocity P-wave (km/s) = 6.69960 7.04144 6.87265
#
# Compressibility (1/GPa) = 0.01846722
#
# Stress axis : x y z
#
# Youngs Moduli (GPa) = 86.39175 86.39232 37.44093
#
# Poissons Ratio (x) = 0.09431 0.27340
# Poissons Ratio (y) = 0.09431 0.27340
# Poissons Ratio (z) = 0.63085 0.63085
#
# Static dielectric constant tensor:
#      x y z
#    x 3.570000 0.000000 0.000000 
#    y 0.000000 3.570000 0.000000 
#    z 0.000000 0.000000 3.376170 
# 
# 
# High freq. dielectric constant tensor:
#      x y z
#    x 1.721650 0.000000 0.000000 
#    y 0.000000 1.721650 0.000000 
#    z 0.000000 0.000000 1.708250 
# 
# From -- ./inp_files/9697.got.cif
#   From: 2010.03.12/outbox.cif.g09.slc.cpg/sg131_5_cif.got.tgz:9697.got - 2010.04.06 17:36:35.
