data_PCOD8315273
_publ_section_title
;
Structure prediction by ZEFSAII (Michael W. Deem and Ramdas Pophale) SiO2 
 PCOD8315273
Probable space group: P 4/N M M
;
_chemical_formula_sum "Si O2"
_cell_formula_units_Z 112
_cell_length_a 13.875974
_cell_length_b 13.875974
_cell_length_c 35.790201
_cell_angle_alpha 90.000000
_cell_angle_beta 90.000000
_cell_angle_gamma 90.000000
_cell_volume 6891.140304
_symmetry_space_group_name_H-M "P 4/N M M"
_symmetry_group_IT_number 129
_symmetry_cell_setting 'tetragonal'
loop_
_space_group_symop_operation_xyz
x,y,z
1/2-y,x,z
1/2-x,1/2-y,z
y,1/2-x,z
1/2+x,-y,-z
-x,1/2+y,-z
1/2+y,1/2+x,-z
-y,-x,-z
-x,-y,-z
1/2+y,-x,-z
1/2+x,1/2+y,-z
-y,1/2+x,-z
1/2-x,y,z
x,1/2-y,z
1/2-y,1/2-x,z
y,x,z
loop_
_atom_site_type_symbol
_atom_site_label
_atom_site_fract_x
_atom_site_fract_y
_atom_site_fract_z
Si Si1 0.020559 0.863776 0.666940
Si Si2 0.640979 0.487175 0.109944
Si Si3 0.640448 0.484674 0.475140
Si Si4 0.018783 0.862071 0.190505
Si Si5 0.362635 0.859106 0.261127
Si Si6 0.637276 0.477843 0.028687
Si Si7 0.983091 0.361054 0.611257
O O1 0.001302 0.750000 0.664254
O O2 0.918516 0.918516 0.663751
O O3 0.071007 0.894547 0.705568
O O4 0.092171 0.894689 0.633739
O O5 0.750000 0.519290 0.110189
O O6 0.587583 0.587583 0.109892
O O7 0.617402 0.431957 0.149258
O O8 0.618439 0.432929 0.070638
O O9 0.604325 0.395676 0.500000
O O10 0.750000 0.507937 0.485600
O O11 0.580371 0.580371 0.484763
O O12 0.629468 0.455175 0.432039
O O13 0.994174 0.750000 0.195315
O O14 0.919473 0.919473 0.194846
O O15 0.091502 0.896641 0.222559
O O16 0.250000 0.863509 0.254870
O O17 0.395450 0.750000 0.270816
O O18 0.750000 0.501183 0.022229
O O19 0.576008 0.576008 0.022539
O O20 0.604121 0.395880 0.000000
O O21 0.997840 0.250000 0.622996
O O22 0.082496 0.417505 0.620169
#
# Coordination Sequence:
#
# PCOD8315273 Si02
#       7
#    16  16  16  16  16  16  16
#     4  10  20  33  49  68  90 117 150 188 228 268
#     4   8  14  24  38  57  81 109 139 170 205 246
#     4   9  18  32  49  70  96 124 155 191 228 267
#     4   9  16  26  41  61  86 113 138 167 204 248
#     4   9  17  29  45  64  85 111 144 179 214 253
#     4   9  17  29  44  62  85 112 143 179 217 258
#     4   9  18  32  50  72  96 122 152 186 225 269
#
# _framework density 16.252752000000001
#
# number of rings (size 3 to 8) (size 9 to 14) (size 15 to 20)
#    0.000    3.000    0.000    0.857    0.000    2.571 
#    0.000    6.429    0.000    2.571    0.000    6.000 
#    0.000    0.000    0.000    9.000    0.000    0.143 
#
# Total GULP energy -1387726.302130 kJ/mol
# GULP energy per Si atom -12390.413412 kJ/mol
# Density = 1.621576 g / cm^3
# Si number density = 16.252752 Si / 1000 Ang^3
#
#
#
# Elastic Constant Matrix: (Units=GPa)
#
#
# Indices 1 2 3 4 5 6 
#
# 1 75.3602 37.9719 52.2399 0.0000 0.0000 0.0000
# 2 37.9719 75.3637 52.2402 0.0000 0.0000 0.0000
# 3 52.2399 52.2402 107.2378 0.0000 0.0000 0.0000
# 4 0.0000 0.0000 0.0000 24.9449 0.0000 0.0000
# 5 0.0000 0.0000 0.0000 0.0000 24.9447 0.0000
# 6 0.0000 0.0000 0.0000 0.0000 0.0000 15.1876
#
#
#
# Elastic Compliance Matrix: (Units=1/GPa)
#
#
# Indices 1 2 3 4 5 6 
#
# 1 0.021381 -0.005364 -0.007802 0.000000 0.000000 0.000000
# 2 -0.005364 0.021380 -0.007802 0.000000 0.000000 0.000000
# 3 -0.007802 -0.007802 0.016927 0.000000 0.000000 0.000000
# 4 0.000000 0.000000 0.000000 0.040088 0.000000 0.000000
# 5 0.000000 0.000000 0.000000 0.000000 0.040089 0.000000
# 6 0.000000 0.000000 0.000000 0.000000 0.000000 0.065843
#
#
# Mechanical properties :
#
#
# Convention : Reuss Voigt Hill
#
# Bulk Modulus (GPa) = 56.33713 60.31841 58.32777
# Shear Modulus (GPa) = 19.71903 20.71609 20.21756
#
# Velocity S-wave (km/s) = 3.48699 3.57406 3.53079
# Velocity P-wave (km/s) = 7.13796 7.36377 7.25175
#
# Compressibility (1/GPa) = 0.01775028
#
# Stress axis : x y z
#
# Youngs Moduli (GPa) = 46.76987 46.77294 59.07873
#
# Poissons Ratio (x) = 0.25091 0.46096
# Poissons Ratio (y) = 0.25090 0.46092
# Poissons Ratio (z) = 0.36492 0.36491
#
# Static dielectric constant tensor:
#      x y z
#    x 2.923730 0.000000 0.000000 
#    y 0.000000 2.923720 0.000000 
#    z 0.000000 0.000000 3.521100 
# 
# 
# High freq. dielectric constant tensor:
#      x y z
#    x 1.607680 0.000000 0.000000 
#    y 0.000000 1.607680 0.000000 
#    z 0.000000 0.000000 1.645290 
# 
# From -- ./inp_files/7597.got.cif
#   From: 2010.03.12/outbox.cif.g09.slc.cpg/sg129_4_cif.got.tgz:7597.got - 2010.04.06 17:19:44.
