data_PCOD8315020
_publ_section_title
;
Structure prediction by ZEFSAII (Michael W. Deem and Ramdas Pophale) SiO2 
 PCOD8315020
Probable space group: P 4/N M M
;
_chemical_formula_sum "Si O2"
_cell_formula_units_Z 64
_cell_length_a 13.583522
_cell_length_b 13.583522
_cell_length_c 20.728333
_cell_angle_alpha 90.000000
_cell_angle_beta 90.000000
_cell_angle_gamma 90.000000
_cell_volume 3824.627628
_symmetry_space_group_name_H-M "P 4/N M M"
_symmetry_group_IT_number 129
_symmetry_cell_setting 'tetragonal'
loop_
_space_group_symop_operation_xyz
x,y,z
1/2-y,x,z
1/2-x,1/2-y,z
y,1/2-x,z
1/2+x,-y,-z
-x,1/2+y,-z
1/2+y,1/2+x,-z
-y,-x,-z
-x,-y,-z
1/2+y,-x,-z
1/2+x,1/2+y,-z
-y,1/2+x,-z
1/2-x,y,z
x,1/2-y,z
1/2-y,1/2-x,z
y,x,z
loop_
_atom_site_type_symbol
_atom_site_label
_atom_site_fract_x
_atom_site_fract_y
_atom_site_fract_z
Si Si1 0.132902 0.640778 0.429475
Si Si2 0.366414 0.859508 0.181841
Si Si3 0.366393 0.973720 0.055027
Si Si4 0.633880 0.477979 0.693563
O O1 0.099940 0.599940 0.500000
O O2 0.250000 0.647459 0.428104
O O3 0.089069 0.750000 0.417513
O O4 0.095690 0.569511 0.373127
O O5 0.250000 0.850683 0.180962
O O6 0.412782 0.750000 0.176161
O O7 0.400986 0.926840 0.122586
O O8 0.401468 0.907478 0.248693
O O9 0.250000 0.994385 0.052379
O O10 0.422810 0.077191 0.045324
O O11 0.395917 0.895917 0.000000
O O12 0.750000 0.495422 0.694694
O O13 0.584097 0.584097 0.701550
#
# Coordination Sequence:
#
# PCOD8315020 Si02
#       4
#    16  16  16  16
#     4   8  14  26  44  64  85 109 140 183 232 272
#     4   9  17  30  48  67  87 113 147 189 233 272
#     4  10  20  33  50  73 100 130 163 197 236 283
#     4  10  19  29  42  62  89 120 151 182 220 269
#
# _framework density 16.733654000000001
#
# number of rings (size 3 to 8) (size 9 to 14) (size 15 to 20)
#    0.000    2.750    0.000    3.000    0.000    5.250 
#    0.000    0.000    0.000    4.500    0.000    0.000 
#    0.000   22.000    0.000    0.000    0.000    0.250 
#
# Total GULP energy -793374.195928 kJ/mol
# GULP energy per Si atom -12396.471811 kJ/mol
# Density = 1.669557 g / cm^3
# Si number density = 16.733654 Si / 1000 Ang^3
#
#
#
# Elastic Constant Matrix: (Units=GPa)
#
#
# Indices 1 2 3 4 5 6 
#
# 1 71.1441 39.3385 37.2335 0.0000 0.0000 0.0000
# 2 39.3385 71.1441 37.2335 0.0000 0.0000 0.0000
# 3 37.2335 37.2335 133.0728 0.0000 0.0000 0.0000
# 4 0.0000 0.0000 0.0000 18.1562 0.0000 0.0000
# 5 0.0000 0.0000 0.0000 0.0000 18.1562 0.0000
# 6 0.0000 0.0000 0.0000 0.0000 0.0000 17.6265
#
#
#
# Elastic Compliance Matrix: (Units=1/GPa)
#
#
# Indices 1 2 3 4 5 6 
#
# 1 0.021298 -0.010143 -0.003121 0.000000 0.000000 0.000000
# 2 -0.010143 0.021298 -0.003121 0.000000 0.000000 0.000000
# 3 -0.003121 -0.003121 0.009261 0.000000 0.000000 0.000000
# 4 0.000000 0.000000 0.000000 0.055078 0.000000 0.000000
# 5 0.000000 0.000000 0.000000 0.000000 0.055078 0.000000
# 6 0.000000 0.000000 0.000000 0.000000 0.000000 0.056733
#
#
# Mechanical properties :
#
#
# Convention : Reuss Voigt Hill
#
# Bulk Modulus (GPa) = 52.39294 55.88580 54.13937
# Shear Modulus (GPa) = 19.38903 21.55815 20.47359
#
# Velocity S-wave (km/s) = 3.40764 3.59320 3.50165
# Velocity P-wave (km/s) = 6.84548 7.11931 6.98373
#
# Compressibility (1/GPa) = 0.01908654
#
# Stress axis : x y z
#
# Youngs Moduli (GPa) = 46.95293 46.95293 107.97676
#
# Poissons Ratio (x) = 0.47625 0.33701
# Poissons Ratio (y) = 0.47625 0.33701
# Poissons Ratio (z) = 0.14655 0.14655
#
# Static dielectric constant tensor:
#      x y z
#    x 2.897680 0.000000 0.000000 
#    y 0.000000 2.897680 0.000000 
#    z 0.000000 0.000000 3.546880 
# 
# 
# High freq. dielectric constant tensor:
#      x y z
#    x 1.617150 0.000000 0.000000 
#    y 0.000000 1.617150 0.000000 
#    z 0.000000 0.000000 1.668530 
# 
# From -- ./inp_files/5368.got.cif
#   From: 2010.03.12/outbox.cif.g09.slc.cpg/sg129_3_cif.got.tgz:5368.got - 2010.04.06 17:19:44.
