data_PCOD8315742
_publ_section_title
;
Structure prediction by ZEFSAII (Michael W. Deem and Ramdas Pophale) SiO2 
 PCOD8315742
Probable space group: P 42/M M C
;
_chemical_formula_sum "Si O2"
_cell_formula_units_Z 104
_cell_length_a 18.585106
_cell_length_b 18.585106
_cell_length_c 17.719167
_cell_angle_alpha 90.000000
_cell_angle_beta 90.000000
_cell_angle_gamma 90.000000
_cell_volume 6120.309521
_symmetry_space_group_name_H-M "P 42/M M C"
_symmetry_group_IT_number 131
_symmetry_cell_setting 'tetragonal'
loop_
_space_group_symop_operation_xyz
x,y,z
-x,-y,z
-y,x,1/2+z
y,-x,1/2+z
-x,y,-z
x,-y,-z
y,x,1/2-z
-y,-x,1/2-z
-x,-y,-z
x,y,-z
y,-x,1/2-z
-y,x,1/2-z
x,-y,z
-x,y,z
-y,-x,1/2+z
y,x,1/2+z
loop_
_atom_site_type_symbol
_atom_site_label
_atom_site_fract_x
_atom_site_fract_y
_atom_site_fract_z
Si Si1 0.421356 0.205059 0.087215
Si Si2 0.585694 0.639966 0.327468
Si Si3 0.500000 0.415972 0.918729
Si Si4 0.920037 0.079780 0.160221
Si Si5 0.288440 0.299992 0.910650
Si Si6 0.795769 0.820052 0.838062
Si Si7 0.916815 0.680553 0.587279
O O1 0.500000 0.216821 0.126517
O O2 0.359923 0.258176 0.118831
O O3 0.396283 0.122381 0.098993
O O4 0.429619 0.222255 0.000000
O O5 0.626000 0.626000 0.250000
O O6 0.500000 0.650939 0.318420
O O7 0.607225 0.571069 0.376328
O O8 0.621726 0.708854 0.369526
O O9 0.500000 0.500000 0.929883
O O10 0.500000 0.376805 0.000000
O O11 0.919692 0.080309 0.250000
O O12 0.869139 0.143870 0.130631
O O13 0.000000 0.095082 0.129186
O O14 0.894449 0.000000 0.132560
O O15 0.219636 0.253746 0.883577
O O16 0.284267 0.310479 0.000000
O O17 0.800709 0.800709 0.750000
O O18 0.735747 0.880403 0.854607
O O19 0.905991 0.706297 0.500000
O O20 0.000000 0.671399 0.608156
#
# Coordination Sequence:
#
# PCOD8315742 Si02
#       7
#    16  16   8  16  16  16  16
#     4   8  15  27  42  63  90 121 159 199 232 270
#     4  11  21  34  50  71  98 123 155 207 261 306
#     4   9  18  30  46  66  90 122 155 187 235 298
#     4   8  14  25  44  72 102 130 161 199 243 291
#     4  10  21  34  48  66  93 133 174 206 243 296
#     4  10  18  30  47  69  98 130 167 206 246 290
#     4   9  17  29  46  68  95 128 161 194 238 291
#
# _framework density 16.992604
#
# number of rings (size 3 to 8) (size 9 to 14) (size 15 to 20)
#    0.000    2.692    0.769    3.231    1.077    1.846 
#    0.000    1.538    0.000    1.846    0.000    5.385 
#    0.000    0.615    0.000    1.385    0.000    0.000 
#
# Total GULP energy -1288539.138292 kJ/mol
# GULP energy per Si atom -12389.799407 kJ/mol
# Density = 1.695393 g / cm^3
# Si number density = 16.992604 Si / 1000 Ang^3
#
#
#
# Elastic Constant Matrix: (Units=GPa)
#
#
# Indices 1 2 3 4 5 6 
#
# 1 78.9176 42.3589 28.9444 0.0000 0.0000 0.0000
# 2 42.3589 78.9177 28.9444 0.0000 0.0000 0.0000
# 3 28.9444 28.9444 76.2040 0.0000 0.0000 0.0000
# 4 0.0000 0.0000 0.0000 20.3924 0.0000 0.0000
# 5 0.0000 0.0000 0.0000 0.0000 20.3924 0.0000
# 6 0.0000 0.0000 0.0000 0.0000 0.0000 33.0349
#
#
#
# Elastic Compliance Matrix: (Units=1/GPa)
#
#
# Indices 1 2 3 4 5 6 
#
# 1 0.018712 -0.008641 -0.003825 0.000000 0.000000 0.000000
# 2 -0.008641 0.018712 -0.003825 0.000000 0.000000 0.000000
# 3 -0.003825 -0.003825 0.016029 0.000000 0.000000 0.000000
# 4 0.000000 0.000000 0.000000 0.049038 0.000000 0.000000
# 5 0.000000 0.000000 0.000000 0.000000 0.049038 0.000000
# 6 0.000000 0.000000 0.000000 0.000000 0.000000 0.030271
#
#
# Mechanical properties :
#
#
# Convention : Reuss Voigt Hill
#
# Bulk Modulus (GPa) = 47.91554 48.28160 48.09857
# Shear Modulus (GPa) = 22.58962 23.68337 23.13649
#
# Velocity S-wave (km/s) = 3.65002 3.73734 3.69394
# Velocity P-wave (km/s) = 6.78400 6.86284 6.82353
#
# Compressibility (1/GPa) = 0.02087006
#
# Stress axis : x y z
#
# Youngs Moduli (GPa) = 53.44040 53.44044 62.38801
#
# Poissons Ratio (x) = 0.46177 0.23866
# Poissons Ratio (y) = 0.46177 0.23866
# Poissons Ratio (z) = 0.20444 0.20444
#
# Static dielectric constant tensor:
#      x y z
#    x 3.321790 0.000000 0.000000 
#    y 0.000000 3.321780 0.000000 
#    z 0.000000 0.000000 3.085480 
# 
# 
# High freq. dielectric constant tensor:
#      x y z
#    x 1.647120 0.000000 0.000000 
#    y 0.000000 1.647120 0.000000 
#    z 0.000000 0.000000 1.631200 
# 
# From -- ./inp_files/8090.got.cif
#   From: 2010.03.12/outbox.cif.g09.slc.cpg/sg131_5_cif.got.tgz:8090.got - 2010.04.06 17:36:35.
