data_PCOD8315704
_publ_section_title
;
Structure prediction by ZEFSAII (Michael W. Deem and Ramdas Pophale) SiO2 
 PCOD8315704
Probable space group: P 42/M M C
;
_chemical_formula_sum "Si O2"
_cell_formula_units_Z 128
_cell_length_a 21.981575
_cell_length_b 21.981575
_cell_length_c 18.161198
_cell_angle_alpha 90.000000
_cell_angle_beta 90.000000
_cell_angle_gamma 90.000000
_cell_volume 8775.302714
_symmetry_space_group_name_H-M "P 42/M M C"
_symmetry_group_IT_number 131
_symmetry_cell_setting 'tetragonal'
loop_
_space_group_symop_operation_xyz
x,y,z
-x,-y,z
-y,x,1/2+z
y,-x,1/2+z
-x,y,-z
x,-y,-z
y,x,1/2-z
-y,-x,1/2-z
-x,-y,-z
x,y,-z
y,-x,1/2-z
-y,x,1/2-z
x,-y,z
-x,y,z
-y,-x,1/2+z
y,x,1/2+z
loop_
_atom_site_type_symbol
_atom_site_label
_atom_site_fract_x
_atom_site_fract_y
_atom_site_fract_z
Si Si1 0.139435 0.931195 0.693145
Si Si2 0.676914 0.643008 0.583850
Si Si3 0.178055 0.678054 0.741987
Si Si4 0.569580 0.249879 0.198579
Si Si5 0.930420 0.250121 0.301418
Si Si6 0.176914 0.856994 0.916150
Si Si7 0.258633 0.758634 0.634459
Si Si8 0.639435 0.431196 0.193146
O O1 0.085848 0.914153 0.750000
O O2 0.202694 0.922543 0.735354
O O3 0.139783 0.889015 0.621569
O O4 0.129567 0.000000 0.666395
O O5 0.669558 0.621884 0.500000
O O6 0.722547 0.596026 0.623211
O O7 0.702858 0.711623 0.585408
O O8 0.610985 0.639786 0.621571
O O9 0.190489 0.607513 0.723121
O O10 0.107513 0.690488 0.723121
O O11 0.221038 0.721038 0.694050
O O12 0.194498 0.694498 0.826423
O O13 0.500000 0.230791 0.185689
O O14 0.577454 0.297307 0.264643
O O15 0.903975 0.222547 0.376787
O O16 0.000000 0.269209 0.314306
O O17 0.202857 0.788379 0.914591
O O18 0.169561 0.878118 0.000000
O O19 0.585847 0.414154 0.250000
O O20 0.629565 0.500000 0.166393
#
# Coordination Sequence:
#
# PCOD8315704 Si02
#       8
#    16  16  16  16  16  16  16  16
#     4   9  17  29  43  59  81 112 149 182 210 247
#     4  10  18  27  42  64  90 115 137 172 219 260
#     4   9  14  26  48  63  82 109 140 179 210 247
#     4   9  17  29  45  63  83 112 147 177 211 257
#     4   9  17  29  45  63  83 112 147 177 211 257
#     4  10  18  27  42  64  90 115 137 172 219 260
#     4   9  15  26  42  66  88 107 136 170 214 265
#     4   9  17  29  43  59  81 112 149 182 210 247
#
# _framework density 14.586391000000001
#
# number of rings (size 3 to 8) (size 9 to 14) (size 15 to 20)
#    0.000    2.750    2.500    0.375    0.000    1.250 
#    0.000    0.000    0.000    0.375    0.000    7.000 
#    0.000    0.000    0.000    9.125    0.000    7.625 
#
# Total GULP energy -1586880.672770 kJ/mol
# GULP energy per Si atom -12397.505256 kJ/mol
# Density = 1.455319 g / cm^3
# Si number density = 14.586391 Si / 1000 Ang^3
#
#
#
# Elastic Constant Matrix: (Units=GPa)
#
#
# Indices 1 2 3 4 5 6 
#
# 1 88.2272 54.4560 30.8256 0.0000 0.0000 0.0000
# 2 54.4560 88.2244 30.8247 0.0000 0.0000 0.0000
# 3 30.8256 30.8247 76.1825 0.0000 0.0000 0.0000
# 4 0.0000 0.0000 0.0000 11.5555 0.0000 0.0000
# 5 0.0000 0.0000 0.0000 0.0000 11.5558 0.0000
# 6 0.0000 0.0000 0.0000 0.0000 0.0000 15.6230
#
#
#
# Elastic Compliance Matrix: (Units=1/GPa)
#
#
# Indices 1 2 3 4 5 6 
#
# 1 0.019053 -0.010559 -0.003437 0.000000 0.000000 0.000000
# 2 -0.010559 0.019053 -0.003437 0.000000 0.000000 0.000000
# 3 -0.003437 -0.003437 0.015907 0.000000 0.000000 0.000000
# 4 0.000000 0.000000 0.000000 0.086539 0.000000 0.000000
# 5 0.000000 0.000000 0.000000 0.000000 0.086537 0.000000
# 6 0.000000 0.000000 0.000000 0.000000 0.000000 0.064008
#
#
# Mechanical properties :
#
#
# Convention : Reuss Voigt Hill
#
# Bulk Modulus (GPa) = 52.22517 53.87185 53.04851
# Shear Modulus (GPa) = 15.04460 16.84871 15.94666
#
# Velocity S-wave (km/s) = 3.21505 3.40236 3.31003
# Velocity P-wave (km/s) = 7.04726 7.24209 7.14534
#
# Compressibility (1/GPa) = 0.01914785
#
# Stress axis : x y z
#
# Youngs Moduli (GPa) = 52.48619 52.48475 62.86350
#
# Poissons Ratio (x) = 0.55421 0.21605
# Poissons Ratio (y) = 0.55422 0.21604
# Poissons Ratio (z) = 0.18038 0.18037
#
# Static dielectric constant tensor:
#      x y z
#    x 2.796880 0.000000 0.000000 
#    y 0.000000 2.796880 0.000000 
#    z 0.000000 0.000000 2.644680 
# 
# 
# High freq. dielectric constant tensor:
#      x y z
#    x 1.542610 0.000000 0.000000 
#    y 0.000000 1.542610 0.000000 
#    z 0.000000 0.000000 1.545530 
# 
# From -- ./inp_files/8419.got.cif
#   From: 2010.03.12/outbox.cif.g09.slc.cpg/sg131_5_cif.got.tgz:8419.got - 2010.04.06 17:36:35.
