data_PCOD8315913
_publ_section_title
;
Structure prediction by ZEFSAII (Michael W. Deem and Ramdas Pophale) SiO2 
 PCOD8315913
Probable space group: P 42/M M C
;
_chemical_formula_sum "Si O2"
_cell_formula_units_Z 64
_cell_length_a 21.090887
_cell_length_b 21.090887
_cell_length_c 8.553773
_cell_angle_alpha 90.000000
_cell_angle_beta 90.000000
_cell_angle_gamma 90.000000
_cell_volume 3804.936475
_symmetry_space_group_name_H-M "P 42/M M C"
_symmetry_group_IT_number 131
_symmetry_cell_setting 'tetragonal'
loop_
_space_group_symop_operation_xyz
x,y,z
-x,-y,z
-y,x,1/2+z
y,-x,1/2+z
-x,y,-z
x,-y,-z
y,x,1/2-z
-y,-x,1/2-z
-x,-y,-z
x,y,-z
y,-x,1/2-z
-y,x,1/2-z
x,-y,z
-x,y,z
-y,-x,1/2+z
y,x,1/2+z
loop_
_atom_site_type_symbol
_atom_site_label
_atom_site_fract_x
_atom_site_fract_y
_atom_site_fract_z
Si Si1 0.000000 0.383729 0.315927
Si Si2 0.428336 0.140663 0.818232
Si Si3 0.749631 0.000000 0.318089
Si Si4 0.683003 0.222013 0.682000
Si Si5 0.128464 0.783508 0.317558
O O1 0.065913 0.419392 0.272824
O O2 0.000000 0.364992 0.500000
O O3 0.000000 0.325221 0.199093
O O4 0.500000 0.158586 0.772555
O O5 0.384573 0.195001 0.740610
O O6 0.414891 0.146982 0.000000
O O7 0.779318 0.056021 0.220463
O O8 0.768699 0.000000 0.500000
O O9 0.710698 0.289303 0.750000
O O10 0.676967 0.233317 0.500000
O O11 0.731331 0.166224 0.720022
O O12 0.148609 0.851392 0.250000
O O13 0.142919 0.774552 0.500000
#
# Coordination Sequence:
#
# PCOD8315913 Si02
#       5
#     8  16   8  16  16
#     4  10  19  32  50  72 102 142 179 212 249 299
#     4  10  20  34  52  75 106 143 179 213 256 309
#     4  12  22  33  51  76 102 131 167 212 257 307
#     4  11  21  34  52  74 101 133 172 218 260 303
#     4  11  21  35  53  74  98 128 165 212 262 311
#
# _framework density 16.820253999999998
#
# number of rings (size 3 to 8) (size 9 to 14) (size 15 to 20)
#    0.000    1.250    2.500    7.500    0.000    2.000 
#    0.000    0.000    0.000    2.625    0.000    2.625 
#    0.000    0.500    0.000    5.250    0.000    2.250 
#
# Total GULP energy -792878.638130 kJ/mol
# GULP energy per Si atom -12388.728721 kJ/mol
# Density = 1.678197 g / cm^3
# Si number density = 16.820254 Si / 1000 Ang^3
#
#
#
# Elastic Constant Matrix: (Units=GPa)
#
#
# Indices 1 2 3 4 5 6 
#
# 1 98.9136 61.1201 43.7512 0.0000 0.0000 0.0000
# 2 61.1201 98.9083 43.7518 0.0000 0.0000 0.0000
# 3 43.7512 43.7518 83.9844 0.0000 0.0000 0.0000
# 4 0.0000 0.0000 0.0000 24.7800 0.0000 0.0000
# 5 0.0000 0.0000 0.0000 0.0000 24.7805 0.0000
# 6 0.0000 0.0000 0.0000 0.0000 0.0000 28.7144
#
#
#
# Elastic Compliance Matrix: (Units=1/GPa)
#
#
# Indices 1 2 3 4 5 6 
#
# 1 0.017599 -0.008862 -0.004551 0.000000 0.000000 0.000000
# 2 -0.008862 0.017600 -0.004552 0.000000 0.000000 0.000000
# 3 -0.004551 -0.004552 0.016650 0.000000 0.000000 0.000000
# 4 0.000000 0.000000 0.000000 0.040355 0.000000 0.000000
# 5 0.000000 0.000000 0.000000 0.000000 0.040354 0.000000
# 6 0.000000 0.000000 0.000000 0.000000 0.000000 0.034826
#
#
# Mechanical properties :
#
#
# Convention : Reuss Voigt Hill
#
# Bulk Modulus (GPa) = 62.82426 64.33918 63.58172
# Shear Modulus (GPa) = 23.96689 24.53384 24.25037
#
# Velocity S-wave (km/s) = 3.77886 3.82329 3.80114
# Velocity P-wave (km/s) = 7.51473 7.60422 7.55961
#
# Compressibility (1/GPa) = 0.01591742
#
# Stress axis : x y z
#
# Youngs Moduli (GPa) = 56.82174 56.81731 60.06158
#
# Poissons Ratio (x) = 0.50351 0.27337
# Poissons Ratio (y) = 0.50355 0.27342
# Poissons Ratio (z) = 0.25862 0.25865
#
# Static dielectric constant tensor:
#      x y z
#    x 3.087550 0.000000 0.000000 
#    y 0.000000 3.087620 0.000000 
#    z 0.000000 0.000000 3.210280 
# 
# 
# High freq. dielectric constant tensor:
#      x y z
#    x 1.632840 0.000000 0.000000 
#    y 0.000000 1.632840 0.000000 
#    z 0.000000 0.000000 1.658720 
# 
# From -- ./inp_files/1641.got.cif
#   From: 2010.03.12/outbox.cif.g09.slc.cpg/sg131_1_cif.got.tgz:1641.got - 2010.04.06 17:36:35.
