data_PCOD8315833
_publ_section_title
;
Structure prediction by ZEFSAII (Michael W. Deem and Ramdas Pophale) SiO2 
 PCOD8315833
Probable space group: P 42/M M C
;
_chemical_formula_sum "Si O2"
_cell_formula_units_Z 120
_cell_length_a 17.879583
_cell_length_b 17.879583
_cell_length_c 25.405117
_cell_angle_alpha 90.000000
_cell_angle_beta 90.000000
_cell_angle_gamma 90.000000
_cell_volume 8121.494802
_symmetry_space_group_name_H-M "P 42/M M C"
_symmetry_group_IT_number 131
_symmetry_cell_setting 'tetragonal'
loop_
_space_group_symop_operation_xyz
x,y,z
-x,-y,z
-y,x,1/2+z
y,-x,1/2+z
-x,y,-z
x,-y,-z
y,x,1/2-z
-y,-x,1/2-z
-x,-y,-z
x,y,-z
y,-x,1/2-z
-y,x,1/2-z
x,-y,z
-x,y,z
-y,-x,1/2+z
y,x,1/2+z
loop_
_atom_site_type_symbol
_atom_site_label
_atom_site_fract_x
_atom_site_fract_y
_atom_site_fract_z
Si Si1 0.416139 0.910766 0.856934
Si Si2 0.823770 0.912589 0.788355
Si Si3 0.702613 0.914136 0.940736
Si Si4 0.000000 0.087121 0.057868
Si Si5 0.849897 0.152361 0.100022
Si Si6 0.911757 0.339048 0.251805
Si Si7 0.912785 0.697648 0.060939
Si Si8 0.583075 0.911804 0.647856
O O1 0.500000 0.880103 0.866835
O O2 0.360581 0.879904 0.902240
O O3 0.387034 0.880258 0.800815
O O4 0.416325 0.000000 0.858050
O O5 0.892601 0.892601 0.750000
O O6 0.827592 0.862024 0.840029
O O7 0.747703 0.890623 0.758243
O O8 0.826883 0.000000 0.803425
O O9 0.781918 0.873068 0.936756
O O10 0.717287 0.000000 0.925371
O O11 0.672359 0.905863 0.000000
O O12 0.925876 0.108066 0.089081
O O13 0.000000 0.000000 0.049715
O O14 0.000000 0.126778 0.000000
O O15 0.863099 0.239065 0.088219
O O16 0.877511 0.370588 0.197217
O O17 0.000000 0.347816 0.250678
O O18 0.893226 0.622028 0.092255
O O19 0.000000 0.719595 0.067175
O O20 0.891387 0.686068 0.000000
O O21 0.500000 0.876604 0.646932
O O22 0.577823 0.000000 0.655486
#
# Coordination Sequence:
#
# PCOD8315833 Si02
#       8
#    16  16  16   8  16  16  16  16
#     4   9  16  27  44  64  84 108 135 173 225 276
#     4  11  23  34  45  61  84 115 149 192 241 280
#     4  10  19  30  44  62  84 112 147 191 232 267
#     4  11  22  32  46  62  77 109 161 209 242 268
#     4  12  21  34  48  60  84 117 154 197 233 277
#     4   9  16  30  46  62  85 106 137 177 224 277
#     4  10  20  33  47  64  87 115 148 187 233 277
#     4   9  17  29  48  70  87 106 135 176 225 280
#
# _framework density 14.775606
#
# number of rings (size 3 to 8) (size 9 to 14) (size 15 to 20)
#    0.000    1.933    2.000    3.600    0.933    4.400 
#    0.000    2.667    0.000    0.000    0.000    0.000 
#    0.000    0.000    0.000    0.000    0.000    0.667 
#
# Total GULP energy -1487831.913498 kJ/mol
# GULP energy per Si atom -12398.599279 kJ/mol
# Density = 1.474198 g / cm^3
# Si number density = 14.775606 Si / 1000 Ang^3
#
#
#
# Elastic Constant Matrix: (Units=GPa)
#
#
# Indices 1 2 3 4 5 6 
#
# 1 67.0782 26.0623 39.8848 0.0000 0.0000 0.0000
# 2 26.0623 67.0782 39.8848 0.0000 0.0000 0.0000
# 3 39.8848 39.8848 115.9943 0.0000 0.0000 0.0000
# 4 0.0000 0.0000 0.0000 19.6881 0.0000 0.0000
# 5 0.0000 0.0000 0.0000 0.0000 19.6881 0.0000
# 6 0.0000 0.0000 0.0000 0.0000 0.0000 1.7543
#
#
#
# Elastic Compliance Matrix: (Units=1/GPa)
#
#
# Indices 1 2 3 4 5 6 
#
# 1 0.019799 -0.004581 -0.005233 0.000000 0.000000 0.000000
# 2 -0.004581 0.019799 -0.005233 0.000000 0.000000 0.000000
# 3 -0.005233 -0.005233 0.012220 0.000000 0.000000 0.000000
# 4 0.000000 0.000000 0.000000 0.050792 0.000000 0.000000
# 5 0.000000 0.000000 0.000000 0.000000 0.050792 0.000000
# 6 0.000000 0.000000 0.000000 0.000000 0.000000 0.570028
#
#
# Mechanical properties :
#
#
# Convention : Reuss Voigt Hill
#
# Bulk Modulus (GPa) = 46.03042 51.31275 48.67158
# Shear Modulus (GPa) = 6.57232 17.84732 12.20982
#
# Velocity S-wave (km/s) = 2.11134 3.47924 2.87775
# Velocity P-wave (km/s) = 6.09625 7.13748 6.63731
#
# Compressibility (1/GPa) = 0.02172476
#
# Stress axis : x y z
#
# Youngs Moduli (GPa) = 50.50650 50.50650 81.83516
#
# Poissons Ratio (x) = 0.23139 0.42822
# Poissons Ratio (y) = 0.23139 0.42822
# Poissons Ratio (z) = 0.26429 0.26429
#
# Static dielectric constant tensor:
#      x y z
#    x 2.706210 0.000000 0.000000 
#    y 0.000000 2.706210 0.000000 
#    z 0.000000 0.000000 3.078930 
# 
# 
# High freq. dielectric constant tensor:
#      x y z
#    x 1.528780 0.000000 0.000000 
#    y 0.000000 1.528780 0.000000 
#    z 0.000000 0.000000 1.587520 
# 
# From -- ./inp_files/12548.got.cif
#   From: 2010.03.12/outbox.cif.g09.slc.cpg/sg131_7_cif.got.tgz:12548.got - 2010.04.06 17:36:35.
