data_PCOD8315858
_publ_section_title
;
Structure prediction by ZEFSAII (Michael W. Deem and Ramdas Pophale) SiO2 
 PCOD8315858
Probable space group: P 42/M M C
;
_chemical_formula_sum "Si O2"
_cell_formula_units_Z 96
_cell_length_a 25.262394
_cell_length_b 25.262394
_cell_length_c 8.732377
_cell_angle_alpha 90.000000
_cell_angle_beta 90.000000
_cell_angle_gamma 90.000000
_cell_volume 5572.903021
_symmetry_space_group_name_H-M "P 42/M M C"
_symmetry_group_IT_number 131
_symmetry_cell_setting 'tetragonal'
loop_
_space_group_symop_operation_xyz
x,y,z
-x,-y,z
-y,x,1/2+z
y,-x,1/2+z
-x,y,-z
x,-y,-z
y,x,1/2-z
-y,-x,1/2-z
-x,-y,-z
x,y,-z
y,-x,1/2-z
-y,x,1/2-z
x,-y,z
-x,y,z
-y,-x,1/2+z
y,x,1/2+z
loop_
_atom_site_type_symbol
_atom_site_label
_atom_site_fract_x
_atom_site_fract_y
_atom_site_fract_z
Si Si1 0.669284 0.750575 0.182687
Si Si2 0.663634 0.864513 0.678161
Si Si3 0.748961 0.062087 0.176881
Si Si4 0.140927 0.938257 0.677556
Si Si5 0.130677 0.442262 0.671342
Si Si6 0.743676 0.444140 0.328608
O O1 0.716254 0.716254 0.250000
O O2 0.677540 0.810998 0.231629
O O3 0.612360 0.727239 0.246765
O O4 0.669908 0.748223 0.000000
O O5 0.666329 0.851888 0.500000
O O6 0.705487 0.908928 0.721828
O O7 0.605374 0.887693 0.719080
O O8 0.806432 0.080228 0.234592
O O9 0.741113 0.000000 0.203180
O O10 0.742730 0.078010 0.000000
O O11 0.091287 0.908714 0.750000
O O12 0.147193 0.923749 0.500000
O O13 0.130305 0.000000 0.702229
O O14 0.108750 0.431852 0.500000
O O15 0.110148 0.500000 0.730510
O O16 0.193515 0.443196 0.666083
O O17 0.720728 0.446027 0.500000
O O18 0.725322 0.500000 0.245614
#
# Coordination Sequence:
#
# PCOD8315858 Si02
#       6
#    16  16  16  16  16  16
#     4  10  19  31  46  67  98 130 162 199 241 290
#     4  11  21  32  49  73 100 129 162 199 243 292
#     4  10  21  38  58  76  96 126 165 204 241 286
#     4  10  21  37  57  81 107 132 160 196 238 284
#     4   8  14  27  47  69  94 125 161 199 239 285
#     4   7  11  22  41  62  84 116 156 193 230 277
#
# _framework density 17.226209000000001
#
# number of rings (size 3 to 8) (size 9 to 14) (size 15 to 20)
#    0.000    2.667    0.000    5.000    0.000    3.167 
#    0.000    4.167    0.000    2.000    0.000    3.500 
#    0.000    0.333    0.000    4.167    0.000    0.167 
#
# Total GULP energy -1189393.756924 kJ/mol
# GULP energy per Si atom -12389.518301 kJ/mol
# Density = 1.718700 g / cm^3
# Si number density = 17.226209 Si / 1000 Ang^3
#
#
#
# Elastic Constant Matrix: (Units=GPa)
#
#
# Indices 1 2 3 4 5 6 
#
# 1 68.9335 48.1039 30.6184 0.0000 0.0000 0.0000
# 2 48.1039 68.9218 30.6213 0.0000 0.0000 0.0000
# 3 30.6184 30.6213 73.6591 0.0000 0.0000 0.0000
# 4 0.0000 0.0000 0.0000 21.2935 0.0000 0.0000
# 5 0.0000 0.0000 0.0000 0.0000 21.2938 0.0000
# 6 0.0000 0.0000 0.0000 0.0000 0.0000 -0.5951
#
#
#
# Elastic Compliance Matrix: (Units=1/GPa)
#
#
# Indices 1 2 3 4 5 6 
#
# 1 0.029467 -0.018551 -0.004537 0.000000 0.000000 0.000000
# 2 -0.018551 0.029475 -0.004542 0.000000 0.000000 0.000000
# 3 -0.004537 -0.004542 0.017350 0.000000 0.000000 0.000000
# 4 0.000000 0.000000 0.000000 0.046963 0.000000 0.000000
# 5 0.000000 0.000000 0.000000 0.000000 0.046962 0.000000
# 6 0.000000 0.000000 0.000000 0.000000 0.000000 -1.680434
#
#
# Mechanical properties :
#
#
# Convention : Reuss Voigt Hill
#
# Bulk Modulus (GPa) = 47.54544 47.80018 47.67281
# Shear Modulus (GPa) = -3.45317 15.20982 5.87833
#
# Velocity S-wave (km/s) = -1.41738 2.97467 1.84928
# Velocity P-wave (km/s) = 4.99820 6.29340 5.68282
#
# Compressibility (1/GPa) = 0.02103251
#
# Stress axis : x y z
#
# Youngs Moduli (GPa) = 33.93572 33.92723 57.63650
#
# Poissons Ratio (x) = 0.62939 0.26149
# Poissons Ratio (y) = 0.62954 0.26178
# Poissons Ratio (z) = 0.15397 0.15409
#
# Static dielectric constant tensor:
#      x y z
#    x 3.365000 0.000000 0.000000 
#    y 0.000000 3.365000 0.000000 
#    z 0.000000 0.000000 3.169610 
# 
# 
# High freq. dielectric constant tensor:
#      x y z
#    x 1.651460 0.000000 0.000000 
#    y 0.000000 1.651460 0.000000 
#    z 0.000000 0.000000 1.656680 
# 
# From -- ./inp_files/2261.got.cif
#   From: 2010.03.12/outbox.cif.g09.slc.cpg/sg131_2_cif.got.tgz:2261.got - 2010.04.06 17:36:35.
