data_PCOD8315777
_publ_section_title
;
Structure prediction by ZEFSAII (Michael W. Deem and Ramdas Pophale) SiO2 
 PCOD8315777
Probable space group: P 42/M M C
;
_chemical_formula_sum "Si O2"
_cell_formula_units_Z 128
_cell_length_a 19.755014
_cell_length_b 19.755014
_cell_length_c 19.486477
_cell_angle_alpha 90.000000
_cell_angle_beta 90.000000
_cell_angle_gamma 90.000000
_cell_volume 7604.803780
_symmetry_space_group_name_H-M "P 42/M M C"
_symmetry_group_IT_number 131
_symmetry_cell_setting 'tetragonal'
loop_
_space_group_symop_operation_xyz
x,y,z
-x,-y,z
-y,x,1/2+z
y,-x,1/2+z
-x,y,-z
x,-y,-z
y,x,1/2-z
-y,-x,1/2-z
-x,-y,-z
x,y,-z
y,-x,1/2-z
-y,x,1/2-z
x,-y,z
-x,y,z
-y,-x,1/2+z
y,x,1/2+z
loop_
_atom_site_type_symbol
_atom_site_label
_atom_site_fract_x
_atom_site_fract_y
_atom_site_fract_z
Si Si1 0.119133 0.922789 0.173911
Si Si2 0.578993 0.683650 0.921829
Si Si3 0.077543 0.191532 0.925249
Si Si4 0.687901 0.575563 0.077571
Si Si5 0.808133 0.579817 0.171576
Si Si6 0.243155 0.857687 0.785978
Si Si7 0.653433 0.251398 0.795432
Si Si8 0.315775 0.920406 0.337709
O O1 0.090227 0.909774 0.250000
O O2 0.081341 0.875785 0.119688
O O3 0.200296 0.907833 0.165248
O O4 0.105167 0.000000 0.153439
O O5 0.500000 0.674190 0.904885
O O6 0.615835 0.611794 0.915111
O O7 0.614214 0.729367 0.864453
O O8 0.588466 0.712490 0.000000
O O9 0.108612 0.257779 0.888488
O O10 0.000000 0.209195 0.935561
O O11 0.112337 0.181332 0.000000
O O12 0.674034 0.500000 0.103594
O O13 0.747595 0.607737 0.123191
O O14 0.714533 0.577707 0.000000
O O15 0.819535 0.500000 0.164037
O O16 0.787434 0.598900 0.248729
O O17 0.877841 0.615954 0.148905
O O18 0.183241 0.816760 0.750000
O O19 0.290257 0.801788 0.822478
O O20 0.288419 0.905273 0.738033
O O21 0.688029 0.311972 0.750000
O O22 0.331762 0.000000 0.345902
#
# Coordination Sequence:
#
# PCOD8315777 Si02
#       8
#    16  16  16  16  16  16  16  16
#     4  11  20  32  52  76 102 132 174 220 263 306
#     4  10  20  33  51  75 103 136 172 213 258 304
#     4  10  21  35  49  69 100 138 174 207 254 312
#     4   9  18  32  48  68  97 133 172 209 250 305
#     4  10  20  33  53  78 103 136 170 214 266 306
#     4   9  17  30  52  74  98 126 168 214 256 304
#     4  10  18  32  52  75 103 134 169 212 259 308
#     4  10  19  34  53  74 102 136 172 212 257 309
#
# _framework density 16.831467
#
# number of rings (size 3 to 8) (size 9 to 14) (size 15 to 20)
#    0.000    2.125    3.750    1.125    0.000    2.125 
#    0.000    3.750    0.000    0.000    0.000    3.500 
#    0.000    4.500    0.000   40.125    0.000    0.125 
#
# Total GULP energy -1585904.081800 kJ/mol
# GULP energy per Si atom -12389.875639 kJ/mol
# Density = 1.679316 g / cm^3
# Si number density = 16.831467 Si / 1000 Ang^3
#
#
#
# Elastic Constant Matrix: (Units=GPa)
#
#
# Indices 1 2 3 4 5 6 
#
# 1 94.7676 46.5283 36.7033 0.0000 0.0000 0.0000
# 2 46.5283 94.7678 36.7042 0.0000 0.0000 0.0000
# 3 36.7033 36.7042 81.1810 0.0000 0.0000 0.0000
# 4 0.0000 0.0000 0.0000 16.6506 0.0000 0.0000
# 5 0.0000 0.0000 0.0000 0.0000 16.6512 0.0000
# 6 0.0000 0.0000 0.0000 0.0000 0.0000 26.0246
#
#
#
# Elastic Compliance Matrix: (Units=1/GPa)
#
#
# Indices 1 2 3 4 5 6 
#
# 1 0.014990 -0.005740 -0.004182 0.000000 0.000000 0.000000
# 2 -0.005740 0.014990 -0.004182 0.000000 0.000000 0.000000
# 3 -0.004182 -0.004182 0.016100 0.000000 0.000000 0.000000
# 4 0.000000 0.000000 0.000000 0.060058 0.000000 0.000000
# 5 0.000000 0.000000 0.000000 0.000000 0.060056 0.000000
# 6 0.000000 0.000000 0.000000 0.000000 0.000000 0.038425
#
#
# Mechanical properties :
#
#
# Convention : Reuss Voigt Hill
#
# Bulk Modulus (GPa) = 55.95546 56.73202 56.34374
# Shear Modulus (GPa) = 20.93936 21.91729 21.42833
#
# Velocity S-wave (km/s) = 3.53095 3.61246 3.57194
# Velocity P-wave (km/s) = 7.06684 7.15395 7.11053
#
# Compressibility (1/GPa) = 0.01787136
#
# Stress axis : x y z
#
# Youngs Moduli (GPa) = 66.71122 66.71070 62.11229
#
# Poissons Ratio (x) = 0.38291 0.25976
# Poissons Ratio (y) = 0.38292 0.25977
# Poissons Ratio (z) = 0.27899 0.27901
#
# Static dielectric constant tensor:
#      x y z
#    x 3.204490 0.000000 0.000000 
#    y 0.000000 3.204490 0.000000 
#    z 0.000000 0.000000 3.192670 
# 
# 
# High freq. dielectric constant tensor:
#      x y z
#    x 1.645160 0.000000 0.000000 
#    y 0.000000 1.645160 0.000000 
#    z 0.000000 0.000000 1.631930 
# 
# From -- ./inp_files/8460.got.cif
#   From: 2010.03.12/outbox.cif.g09.slc.cpg/sg131_5_cif.got.tgz:8460.got - 2010.04.06 17:36:35.
