data_PCOD8315482
_publ_section_title
;
Structure prediction by ZEFSAII (Michael W. Deem and Ramdas Pophale) SiO2 
 PCOD8315482
Probable space group: P 4/N C C
;
_chemical_formula_sum "Si O2"
_cell_formula_units_Z 112
_cell_length_a 13.740533
_cell_length_b 13.740533
_cell_length_c 30.039642
_cell_angle_alpha 90.000000
_cell_angle_beta 90.000000
_cell_angle_gamma 90.000000
_cell_volume 5671.551912
_symmetry_space_group_name_H-M "P 4/N C C"
_symmetry_group_IT_number 130
_symmetry_cell_setting 'tetragonal'
loop_
_space_group_symop_operation_xyz
x,y,z
1/2-y,x,z
1/2-x,1/2-y,z
y,1/2-x,z
1/2+x,-y,1/2-z
-x,1/2+y,1/2-z
1/2+y,1/2+x,1/2-z
-y,-x,1/2-z
-x,-y,-z
1/2+y,-x,-z
1/2+x,1/2+y,-z
-y,1/2+x,-z
1/2-x,y,1/2+z
x,1/2-y,1/2+z
1/2-y,1/2-x,1/2+z
y,x,1/2+z
loop_
_atom_site_type_symbol
_atom_site_label
_atom_site_fract_x
_atom_site_fract_y
_atom_site_fract_z
Si Si1 0.849386 0.193839 0.134840
Si Si2 0.506985 0.836679 0.905383
Si Si3 0.529855 0.909521 0.621875
Si Si4 0.847358 0.867574 0.826972
Si Si5 0.269020 0.088870 0.504079
Si Si6 0.037733 0.549885 0.301586
Si Si7 0.009473 0.708182 0.086214
O O1 0.750000 0.250000 0.148990
O O2 0.930875 0.271103 0.121797
O O3 0.894763 0.131259 0.175284
O O4 0.828567 0.120187 0.093660
O O5 0.611559 0.845388 0.880277
O O6 0.464537 0.945514 0.906000
O O7 0.522901 0.786855 0.952689
O O8 0.508130 0.795235 0.621514
O O9 0.627670 0.928268 0.594919
O O10 0.549943 0.946890 0.672649
O O11 0.737732 0.884376 0.811711
O O12 0.921197 0.939799 0.803897
O O13 0.356861 0.165838 0.502743
O O14 0.263003 0.009235 0.464742
O O15 0.059072 0.559072 0.250000
#
# Coordination Sequence:
#
# PCOD8315482 Si02
#       7
#    16  16  16  16  16  16  16
#     4  11  23  43  66  94 132 172 217 255 336 400
#     4  11  22  40  61  95 130 170 213 274 320 380
#     4  10  23  41  65  86 128 178 208 265 336 376
#     4  10  19  37  65  92 128 165 195 259 339 379
#     4  11  24  38  62  97 126 170 232 267 308 387
#     4  10  23  44  66  98 128 165 220 271 320 396
#     4  11  22  42  64  91 129 175 214 261 325 385
#
# _framework density 19.747679999999999
#
# number of rings (size 3 to 8) (size 9 to 14) (size 15 to 20)
#    0.000    1.429    4.286    0.857    4.000    3.429 
#    5.143    0.000    0.000    0.000    0.000    0.000 
#    0.000    0.000    0.000    0.000    0.000    0.000 
#
# Total GULP energy -1387663.150355 kJ/mol
# GULP energy per Si atom -12389.849557 kJ/mol
# Density = 1.970273 g / cm^3
# Si number density = 19.747680 Si / 1000 Ang^3
#
#
#
# Elastic Constant Matrix: (Units=GPa)
#
#
# Indices 1 2 3 4 5 6 
#
# 1 94.0652 24.1369 34.4863 0.0000 0.0000 0.0000
# 2 24.1369 94.0652 34.4863 0.0000 0.0000 0.0000
# 3 34.4863 34.4863 127.5154 0.0000 0.0000 0.0000
# 4 0.0000 0.0000 0.0000 18.9762 0.0000 0.0000
# 5 0.0000 0.0000 0.0000 0.0000 18.9762 0.0000
# 6 0.0000 0.0000 0.0000 0.0000 0.0000 23.6822
#
#
#
# Elastic Compliance Matrix: (Units=1/GPa)
#
#
# Indices 1 2 3 4 5 6 
#
# 1 0.012173 -0.002128 -0.002717 0.000000 0.000000 0.000000
# 2 -0.002128 0.012173 -0.002717 0.000000 0.000000 0.000000
# 3 -0.002717 -0.002717 0.009312 0.000000 0.000000 0.000000
# 4 0.000000 0.000000 0.000000 0.052698 0.000000 0.000000
# 5 0.000000 0.000000 0.000000 0.000000 0.052698 0.000000
# 6 0.000000 0.000000 0.000000 0.000000 0.000000 0.042226
#
#
# Mechanical properties :
#
#
# Convention : Reuss Voigt Hill
#
# Bulk Modulus (GPa) = 53.95089 55.76278 54.85684
# Shear Modulus (GPa) = 24.68173 27.16265 25.92219
#
# Velocity S-wave (km/s) = 3.53916 3.71278 3.62701
# Velocity P-wave (km/s) = 6.63930 6.83217 6.73643
#
# Compressibility (1/GPa) = 0.01853537
#
# Stress axis : x y z
#
# Youngs Moduli (GPa) = 82.14996 82.14996 107.39213
#
# Poissons Ratio (x) = 0.17477 0.29176
# Poissons Ratio (y) = 0.17477 0.29176
# Poissons Ratio (z) = 0.22318 0.22318
#
# Static dielectric constant tensor:
#      x y z
#    x 3.766680 0.000000 0.000000 
#    y 0.000000 3.766680 0.000000 
#    z 0.000000 0.000000 3.359240 
# 
# 
# High freq. dielectric constant tensor:
#      x y z
#    x 1.781710 0.000000 0.000000 
#    y 0.000000 1.781710 0.000000 
#    z 0.000000 0.000000 1.739310 
# 
# From -- ./inp_files/4597.got.cif
#   From: 2010.03.12/outbox.cif.g09.slc.cpg/sg130_3_cif.got.tgz:4597.got - 2010.04.06 17:30:23.
