data_PCOD8315789
_publ_section_title
;
Structure prediction by ZEFSAII (Michael W. Deem and Ramdas Pophale) SiO2 
 PCOD8315789
Probable space group: P 42/M M C
;
_chemical_formula_sum "Si O2"
_cell_formula_units_Z 96
_cell_length_a 23.685599
_cell_length_b 23.685599
_cell_length_c 9.826663
_cell_angle_alpha 90.000000
_cell_angle_beta 90.000000
_cell_angle_gamma 90.000000
_cell_volume 5512.832626
_symmetry_space_group_name_H-M "P 42/M M C"
_symmetry_group_IT_number 131
_symmetry_cell_setting 'tetragonal'
loop_
_space_group_symop_operation_xyz
x,y,z
-x,-y,z
-y,x,1/2+z
y,-x,1/2+z
-x,y,-z
x,-y,-z
y,x,1/2-z
-y,-x,1/2-z
-x,-y,-z
x,y,-z
y,-x,1/2-z
-y,x,1/2-z
x,-y,z
-x,y,z
-y,-x,1/2+z
y,x,1/2+z
loop_
_atom_site_type_symbol
_atom_site_label
_atom_site_fract_x
_atom_site_fract_y
_atom_site_fract_z
Si Si1 0.933047 0.351367 0.154870
Si Si2 0.770763 0.066507 0.265278
Si Si3 0.640424 0.567034 0.157045
Si Si4 0.434598 0.133523 0.157488
Si Si5 0.567002 0.260534 0.848923
Si Si6 0.934047 0.144610 0.000000
Si Si7 0.067041 0.831216 0.500000
O O1 0.907662 0.290467 0.199401
O O2 0.908896 0.399700 0.250393
O O3 0.000000 0.352049 0.169684
O O4 0.914787 0.363365 0.000000
O O5 0.817838 0.083101 0.372825
O O6 0.763168 0.000000 0.260754
O O7 0.794475 0.090369 0.124614
O O8 0.588909 0.588909 0.250000
O O9 0.637135 0.500000 0.158072
O O10 0.697560 0.589334 0.231079
O O11 0.638022 0.588942 0.000000
O O12 0.500000 0.126879 0.196930
O O13 0.413220 0.197216 0.186446
O O14 0.425056 0.117868 0.000000
O O15 0.500000 0.261798 0.853793
O O16 0.589622 0.278147 0.000000
O O17 0.895457 0.089088 0.000000
O O18 0.000000 0.126349 0.000000
O O19 0.000000 0.837170 0.500000
#
# Coordination Sequence:
#
# PCOD8315789 Si02
#       7
#    16  16  16  16  16   8   8
#     4  10  20  34  52  74 102 139 177 210 249 298
#     4   9  18  33  50  72 100 134 175 211 248 300
#     4  10  20  32  49  74 101 132 170 209 251 299
#     4   9  19  34  53  80 108 133 163 205 258 306
#     4   8  15  31  52  72  97 129 164 200 244 300
#     4  10  18  33  54  72 103 139 163 205 265 317
#     4  10  20  31  50  80 103 127 171 217 259 311
#
# _framework density 17.413916
#
# number of rings (size 3 to 8) (size 9 to 14) (size 15 to 20)
#    0.000    2.667    0.833    2.000    1.167    3.000 
#    0.000    4.167    0.000    5.000    0.000    0.000 
#    0.000    0.000    0.000    0.000    0.000    0.000 
#
# Total GULP energy -1189875.845323 kJ/mol
# GULP energy per Si atom -12394.540055 kJ/mol
# Density = 1.737428 g / cm^3
# Si number density = 17.413916 Si / 1000 Ang^3
#
#
#
# Elastic Constant Matrix: (Units=GPa)
#
#
# Indices 1 2 3 4 5 6 
#
# 1 60.3090 34.5437 48.3159 0.0000 0.0000 0.0000
# 2 34.5437 60.3090 48.3159 0.0000 0.0000 0.0000
# 3 48.3159 48.3159 148.5003 0.0000 0.0000 0.0000
# 4 0.0000 0.0000 0.0000 43.2041 0.0000 0.0000
# 5 0.0000 0.0000 0.0000 0.0000 43.2041 0.0000
# 6 0.0000 0.0000 0.0000 0.0000 0.0000 6.4579
#
#
#
# Elastic Compliance Matrix: (Units=1/GPa)
#
#
# Indices 1 2 3 4 5 6 
#
# 1 0.027291 -0.011521 -0.005131 0.000000 0.000000 0.000000
# 2 -0.011521 0.027291 -0.005131 0.000000 0.000000 0.000000
# 3 -0.005131 -0.005131 0.010073 0.000000 0.000000 0.000000
# 4 0.000000 0.000000 0.000000 0.023146 0.000000 0.000000
# 5 0.000000 0.000000 0.000000 0.000000 0.023146 0.000000
# 6 0.000000 0.000000 0.000000 0.000000 0.000000 0.154849
#
#
# Mechanical properties :
#
#
# Convention : Reuss Voigt Hill
#
# Bulk Modulus (GPa) = 47.41840 59.05215 53.23527
# Shear Modulus (GPa) = 15.80330 27.76944 21.78637
#
# Velocity S-wave (km/s) = 3.01576 3.99766 3.54091
# Velocity P-wave (km/s) = 6.27819 7.43592 6.88145
#
# Compressibility (1/GPa) = 0.02108886
#
# Stress axis : x y z
#
# Youngs Moduli (GPa) = 36.64244 36.64244 99.27826
#
# Poissons Ratio (x) = 0.42216 0.50938
# Poissons Ratio (y) = 0.42216 0.50938
# Poissons Ratio (z) = 0.18801 0.18801
#
# Static dielectric constant tensor:
#      x y z
#    x 3.093750 0.000000 0.000000 
#    y 0.000000 3.093750 0.000000 
#    z 0.000000 0.000000 3.458890 
# 
# 
# High freq. dielectric constant tensor:
#      x y z
#    x 1.652150 0.000000 0.000000 
#    y 0.000000 1.652150 0.000000 
#    z 0.000000 0.000000 1.689550 
# 
# From -- ./inp_files/2310.got.cif
#   From: 2010.03.12/outbox.cif.g09.slc.cpg/sg131_2_cif.got.tgz:2310.got - 2010.04.06 17:36:35.
