data_PCOD8315937
_publ_section_title
;
Structure prediction by ZEFSAII (Michael W. Deem and Ramdas Pophale) SiO2 
 PCOD8315937
Probable space group: P 42/M M C
;
_chemical_formula_sum "Si O2"
_cell_formula_units_Z 88
_cell_length_a 18.648262
_cell_length_b 18.648262
_cell_length_c 14.404429
_cell_angle_alpha 90.000000
_cell_angle_beta 90.000000
_cell_angle_gamma 90.000000
_cell_volume 5009.250748
_symmetry_space_group_name_H-M "P 42/M M C"
_symmetry_group_IT_number 131
_symmetry_cell_setting 'tetragonal'
loop_
_space_group_symop_operation_xyz
x,y,z
-x,-y,z
-y,x,1/2+z
y,-x,1/2+z
-x,y,-z
x,-y,-z
y,x,1/2-z
-y,-x,1/2-z
-x,-y,-z
x,y,-z
y,-x,1/2-z
-y,x,1/2-z
x,-y,z
-x,y,z
-y,-x,1/2+z
y,x,1/2+z
loop_
_atom_site_type_symbol
_atom_site_label
_atom_site_fract_x
_atom_site_fract_y
_atom_site_fract_z
Si Si1 0.922107 0.915429 0.000000
Si Si2 0.278071 0.415239 0.895317
Si Si3 0.582439 0.193295 0.780069
Si Si4 0.420581 0.336308 0.891050
Si Si5 0.917224 0.325973 0.607561
Si Si6 0.083072 0.834482 0.325051
O O1 0.879885 0.889944 0.088753
O O2 0.000000 0.878647 0.000000
O O3 0.928906 0.000000 0.000000
O O4 0.282357 0.500000 0.892590
O O5 0.216577 0.388985 0.823080
O O6 0.356706 0.389492 0.861040
O O7 0.259821 0.387833 0.000000
O O8 0.500000 0.170410 0.773459
O O9 0.594692 0.259688 0.847323
O O10 0.623094 0.125981 0.823211
O O11 0.500000 0.365156 0.860224
O O12 0.419111 0.325075 0.000000
O O13 0.890738 0.329855 0.500000
O O14 0.906617 0.247508 0.648865
O O15 0.000000 0.349120 0.611824
O O16 0.140451 0.859550 0.250000
O O17 0.000000 0.850796 0.297051
#
# Coordination Sequence:
#
# PCOD8315937 Si02
#       6
#     8  16  16  16  16  16
#     4   9  16  28  48  74 103 135 172 206 235 278
#     4   9  18  32  50  74 105 141 178 213 250 300
#     4  10  20  34  53  75  99 130 171 217 264 313
#     4   9  17  29  47  74 107 140 174 215 258 301
#     4  10  21  38  57  76 102 131 162 212 271 318
#     4  10  19  32  51  77 107 140 173 204 245 297
#
# _framework density 17.567498000000001
#
# number of rings (size 3 to 8) (size 9 to 14) (size 15 to 20)
#    0.000    2.455    0.909    1.636    0.000    4.182 
#    0.000    2.727    2.000    3.818    0.000    2.545 
#    0.000    0.000    0.000    0.000    0.000    0.000 
#
# Total GULP energy -1090516.130498 kJ/mol
# GULP energy per Si atom -12392.228756 kJ/mol
# Density = 1.752751 g / cm^3
# Si number density = 17.567498 Si / 1000 Ang^3
#
#
#
# Elastic Constant Matrix: (Units=GPa)
#
#
# Indices 1 2 3 4 5 6 
#
# 1 74.0365 49.1416 57.6918 0.0000 0.0000 0.0000
# 2 49.1416 74.0376 57.6924 0.0000 0.0000 0.0000
# 3 57.6918 57.6924 95.0826 0.0000 0.0000 0.0000
# 4 0.0000 0.0000 0.0000 32.0273 0.0000 0.0000
# 5 0.0000 0.0000 0.0000 0.0000 32.0267 0.0000
# 6 0.0000 0.0000 0.0000 0.0000 0.0000 30.5199
#
#
#
# Elastic Compliance Matrix: (Units=1/GPa)
#
#
# Indices 1 2 3 4 5 6 
#
# 1 0.029488 -0.010680 -0.011412 0.000000 0.000000 0.000000
# 2 -0.010680 0.029488 -0.011412 0.000000 0.000000 0.000000
# 3 -0.011412 -0.011412 0.024366 0.000000 0.000000 0.000000
# 4 0.000000 0.000000 0.000000 0.031223 0.000000 0.000000
# 5 0.000000 0.000000 0.000000 0.000000 0.031224 0.000000
# 6 0.000000 0.000000 0.000000 0.000000 0.000000 0.032765
#
#
# Mechanical properties :
#
#
# Convention : Reuss Voigt Hill
#
# Bulk Modulus (GPa) = 61.22148 63.57872 62.40010
# Shear Modulus (GPa) = 19.91972 24.15684 22.03828
#
# Velocity S-wave (km/s) = 3.37099 3.71224 3.54572
# Velocity P-wave (km/s) = 7.07647 7.39216 7.23603
#
# Compressibility (1/GPa) = 0.01633414
#
# Stress axis : x y z
#
# Youngs Moduli (GPa) = 33.91182 33.91210 41.04112
#
# Poissons Ratio (x) = 0.36218 0.46836
# Poissons Ratio (y) = 0.36218 0.46836
# Poissons Ratio (z) = 0.38700 0.38701
#
# Static dielectric constant tensor:
#      x y z
#    x 3.202960 0.000000 0.000000 
#    y 0.000000 3.202960 0.000000 
#    z 0.000000 0.000000 3.669230 
# 
# 
# High freq. dielectric constant tensor:
#      x y z
#    x 1.663610 0.000000 0.000000 
#    y 0.000000 1.663610 0.000000 
#    z 0.000000 0.000000 1.693220 
# 
# From -- ./inp_files/5915.got.cif
#   From: 2010.03.12/outbox.cif.g09.slc.cpg/sg131_3_cif.got.tgz:5915.got - 2010.04.06 17:36:35.
