data_PCOD8315357
_publ_section_title
;
Structure prediction by ZEFSAII (Michael W. Deem and Ramdas Pophale) SiO2 
 PCOD8315357
Probable space group: P 4/N M M
;
_chemical_formula_sum "Si O2"
_cell_formula_units_Z 80
_cell_length_a 12.922364
_cell_length_b 12.922364
_cell_length_c 26.770890
_cell_angle_alpha 90.000000
_cell_angle_beta 90.000000
_cell_angle_gamma 90.000000
_cell_volume 4470.403762
_symmetry_space_group_name_H-M "P 4/N M M"
_symmetry_group_IT_number 129
_symmetry_cell_setting 'tetragonal'
loop_
_space_group_symop_operation_xyz
x,y,z
1/2-y,x,z
1/2-x,1/2-y,z
y,1/2-x,z
1/2+x,-y,-z
-x,1/2+y,-z
1/2+y,1/2+x,-z
-y,-x,-z
-x,-y,-z
1/2+y,-x,-z
1/2+x,1/2+y,-z
-y,1/2+x,-z
1/2-x,y,z
x,1/2-y,z
1/2-y,1/2-x,z
y,x,z
loop_
_atom_site_type_symbol
_atom_site_label
_atom_site_fract_x
_atom_site_fract_y
_atom_site_fract_z
Si Si1 0.628113 0.132190 0.844047
Si Si2 0.631826 0.461543 0.355258
Si Si3 0.538331 0.368493 0.452118
Si Si4 0.498655 0.498655 0.079332
Si Si5 0.369784 0.536698 0.260790
Si Si6 0.372835 0.127166 0.998823
O O1 0.750000 0.122099 0.851150
O O2 0.591031 0.250000 0.848250
O O3 0.575174 0.068489 0.887518
O O4 0.593435 0.090345 0.790188
O O5 0.750000 0.496029 0.358421
O O6 0.566234 0.566234 0.353501
O O7 0.603736 0.392870 0.402925
O O8 0.614548 0.392832 0.305998
O O9 0.608849 0.391152 0.500000
O O10 0.504568 0.250000 0.451836
O O11 0.432997 0.432997 0.454010
O O12 0.424864 0.424864 0.046947
O O13 0.574294 0.574294 0.048933
O O14 0.250000 0.508172 0.259275
O O15 0.429592 0.429592 0.269003
O O16 0.395007 0.250000 0.998653
#
# Coordination Sequence:
#
# PCOD8315357 Si02
#       6
#    16  16  16   8  16   8
#     4  10  20  34  54  80 108 139 176 220 268 315
#     4  10  21  36  55  79 107 143 184 226 275 328
#     4  10  21  36  54  79 109 141 183 232 278 330
#     4  11  20  36  58  80 108 142 179 222 262 312
#     4  10  20  35  54  79 110 142 177 218 264 320
#     4  10  22  38  56  80 110 144 180 218 264 314
#
# _framework density 17.895475000000001
#
# number of rings (size 3 to 8) (size 9 to 14) (size 15 to 20)
#    0.000    1.900    1.000    3.000    0.000    4.000 
#    0.000    0.000    0.000   12.000    0.000    0.000 
#    0.000    0.000    0.000    0.000    0.000    0.000 
#
# Total GULP energy -992276.906719 kJ/mol
# GULP energy per Si atom -12403.461334 kJ/mol
# Density = 1.785474 g / cm^3
# Si number density = 17.895475 Si / 1000 Ang^3
#
#
#
# Elastic Constant Matrix: (Units=GPa)
#
#
# Indices 1 2 3 4 5 6 
#
# 1 96.2229 45.3659 49.3602 0.0000 0.0000 0.0000
# 2 45.3659 96.2222 49.3600 0.0000 0.0000 0.0000
# 3 49.3602 49.3600 147.4887 0.0000 0.0000 0.0000
# 4 0.0000 0.0000 0.0000 52.5099 0.0000 0.0000
# 5 0.0000 0.0000 0.0000 0.0000 52.5061 0.0000
# 6 0.0000 0.0000 0.0000 0.0000 0.0000 20.2146
#
#
#
# Elastic Compliance Matrix: (Units=1/GPa)
#
#
# Indices 1 2 3 4 5 6 
#
# 1 0.014438 -0.005225 -0.003083 0.000000 0.000000 0.000000
# 2 -0.005225 0.014438 -0.003083 0.000000 0.000000 0.000000
# 3 -0.003083 -0.003083 0.008844 0.000000 0.000000 0.000000
# 4 0.000000 0.000000 0.000000 0.019044 0.000000 0.000000
# 5 0.000000 0.000000 0.000000 0.000000 0.019045 0.000000
# 6 0.000000 0.000000 0.000000 0.000000 0.000000 0.049469
#
#
# Mechanical properties :
#
#
# Convention : Reuss Voigt Hill
#
# Bulk Modulus (GPa) = 66.95171 69.78956 68.37064
# Shear Modulus (GPa) = 32.67121 38.10261 35.38691
#
# Velocity S-wave (km/s) = 4.27742 4.61930 4.45165
# Velocity P-wave (km/s) = 7.86695 8.21789 8.04434
#
# Compressibility (1/GPa) = 0.01493614
#
# Stress axis : x y z
#
# Youngs Moduli (GPa) = 69.26314 69.26271 113.07310
#
# Poissons Ratio (x) = 0.36192 0.34862
# Poissons Ratio (y) = 0.36193 0.34862
# Poissons Ratio (z) = 0.21355 0.21354
#
# Static dielectric constant tensor:
#      x y z
#    x 3.246330 0.000000 0.000000 
#    y 0.000000 3.246330 0.000000 
#    z 0.000000 0.000000 3.637700 
# 
# 
# High freq. dielectric constant tensor:
#      x y z
#    x 1.694810 0.000000 0.000000 
#    y 0.000000 1.694810 0.000000 
#    z 0.000000 0.000000 1.712230 
# 
# From -- ./inp_files/7715.got.cif
#   From: 2010.03.12/outbox.cif.g09.slc.cpg/sg129_4_cif.got.tgz:7715.got - 2010.04.06 17:19:44.
