data_PCOD8315990
_publ_section_title
;
Structure prediction by ZEFSAII (Michael W. Deem and Ramdas Pophale) SiO2 
 PCOD8315990
Probable space group: P 42/M M C
;
_chemical_formula_sum "Si O2"
_cell_formula_units_Z 48
_cell_length_a 13.104912
_cell_length_b 13.104912
_cell_length_c 14.805833
_cell_angle_alpha 90.000000
_cell_angle_beta 90.000000
_cell_angle_gamma 90.000000
_cell_volume 2542.734786
_symmetry_space_group_name_H-M "P 42/M M C"
_symmetry_group_IT_number 131
_symmetry_cell_setting 'tetragonal'
loop_
_space_group_symop_operation_xyz
x,y,z
-x,-y,z
-y,x,1/2+z
y,-x,1/2+z
-x,y,-z
x,-y,-z
y,x,1/2-z
-y,-x,1/2-z
-x,-y,-z
x,y,-z
y,-x,1/2-z
-y,x,1/2-z
x,-y,z
-x,y,z
-y,-x,1/2+z
y,x,1/2+z
loop_
_atom_site_type_symbol
_atom_site_label
_atom_site_fract_x
_atom_site_fract_y
_atom_site_fract_z
Si Si1 0.881830 0.118171 0.750000
Si Si2 0.000000 0.387257 0.893399
Si Si3 0.257912 0.195275 0.606867
Si Si4 0.613655 0.613142 0.606744
O O1 0.818686 0.152583 0.838863
O O2 0.000000 0.140316 0.766636
O O3 0.897775 0.330125 0.862563
O O4 0.000000 0.500000 0.849647
O O5 0.000000 0.396502 0.000000
O O6 0.234955 0.195328 0.500000
O O7 0.309129 0.300458 0.641432
O O8 0.606364 0.621414 0.500000
O O9 0.652440 0.500000 0.635433
O O10 0.500000 0.632021 0.646877
#
# Coordination Sequence:
#
# PCOD8315990 Si02
#       4
#     8   8  16  16
#     4  11  24  40  56  75 102 134 180 237 280 322
#     4   9  16  28  51  83 110 133 169 221 277 323
#     4  10  19  34  56  80 108 142 178 219 271 324
#     4   8  14  27  51  82 113 145 177 210 256 318
#
# _framework density 18.877312
#
# number of rings (size 3 to 8) (size 9 to 14) (size 15 to 20)
#    0.000    2.667    1.667    2.000    0.000    4.667 
#    0.000    5.000    0.000    2.000    0.000    4.667 
#    0.000    0.000    0.000    0.000    0.000    0.000 
#
# Total GULP energy -594952.708732 kJ/mol
# GULP energy per Si atom -12394.848099 kJ/mol
# Density = 1.883435 g / cm^3
# Si number density = 18.877312 Si / 1000 Ang^3
#
#
#
# Elastic Constant Matrix: (Units=GPa)
#
#
# Indices 1 2 3 4 5 6 
#
# 1 124.7282 61.5612 31.6878 0.0000 0.0000 0.0000
# 2 61.5612 124.7284 31.6878 0.0000 0.0000 0.0000
# 3 31.6878 31.6878 56.7878 0.0000 0.0000 0.0000
# 4 0.0000 0.0000 0.0000 11.2111 0.0000 0.0000
# 5 0.0000 0.0000 0.0000 0.0000 11.2116 0.0000
# 6 0.0000 0.0000 0.0000 0.0000 0.0000 30.7300
#
#
#
# Elastic Compliance Matrix: (Units=1/GPa)
#
#
# Indices 1 2 3 4 5 6 
#
# 1 0.011228 -0.004603 -0.003697 0.000000 0.000000 0.000000
# 2 -0.004603 0.011228 -0.003697 0.000000 0.000000 0.000000
# 3 -0.003697 -0.003697 0.021736 0.000000 0.000000 0.000000
# 4 0.000000 0.000000 0.000000 0.089198 0.000000 0.000000
# 5 0.000000 0.000000 0.000000 0.000000 0.089194 0.000000
# 6 0.000000 0.000000 0.000000 0.000000 0.000000 0.032542
#
#
# Mechanical properties :
#
#
# Convention : Reuss Voigt Hill
#
# Bulk Modulus (GPa) = 49.50923 61.79090 55.65006
# Shear Modulus (GPa) = 17.49158 22.71769 20.10463
#
# Velocity S-wave (km/s) = 3.04730 3.47282 3.26700
# Velocity P-wave (km/s) = 6.21813 6.99175 6.61626
#
# Compressibility (1/GPa) = 0.02019826
#
# Stress axis : x y z
#
# Youngs Moduli (GPa) = 89.05983 89.05991 46.00759
#
# Poissons Ratio (x) = 0.40991 0.17010
# Poissons Ratio (y) = 0.40991 0.17010
# Poissons Ratio (z) = 0.32927 0.32927
#
# Static dielectric constant tensor:
#      x y z
#    x 3.624260 0.000000 0.000000 
#    y 0.000000 3.624290 0.000000 
#    z 0.000000 0.000000 3.080960 
# 
# 
# High freq. dielectric constant tensor:
#      x y z
#    x 1.730950 0.000000 0.000000 
#    y 0.000000 1.730950 0.000000 
#    z 0.000000 0.000000 1.705900 
# 
# From -- ./inp_files/7048.got.cif
#   From: 2010.03.12/outbox.cif.g09.slc.cpg/sg131_4_cif.got.tgz:7048.got - 2010.04.06 17:36:35.
