data_PCOD8315372
_publ_section_title
;
Structure prediction by ZEFSAII (Michael W. Deem and Ramdas Pophale) SiO2 
 PCOD8315372
Probable space group: P 4/N M M
;
_chemical_formula_sum "Si O2"
_cell_formula_units_Z 128
_cell_length_a 23.905100
_cell_length_b 23.905100
_cell_length_c 11.465500
_cell_angle_alpha 90.000000
_cell_angle_beta 90.000000
_cell_angle_gamma 90.000000
_cell_volume 6552.003613
_symmetry_space_group_name_H-M "P 4/N M M"
_symmetry_group_IT_number 129
_symmetry_cell_setting 'tetragonal'
loop_
_space_group_symop_operation_xyz
x,y,z
1/2-y,x,z
1/2-x,1/2-y,z
y,1/2-x,z
1/2+x,-y,-z
-x,1/2+y,-z
1/2+y,1/2+x,-z
-y,-x,-z
-x,-y,-z
1/2+y,-x,-z
1/2+x,1/2+y,-z
-y,1/2+x,-z
1/2-x,y,z
x,1/2-y,z
1/2-y,1/2-x,z
y,x,z
loop_
_atom_site_type_symbol
_atom_site_label
_atom_site_fract_x
_atom_site_fract_y
_atom_site_fract_z
Si Si1 0.689246 0.008343 0.578373
Si Si2 0.687014 0.097687 0.032392
Si Si3 0.515007 0.155585 0.160606
Si Si4 0.113478 0.477450 0.619269
Si Si5 0.866732 0.187874 0.396929
Si Si6 0.098744 0.187272 0.774661
Si Si7 0.314295 0.096140 0.047416
Si Si8 0.586224 0.389536 0.761494
O O1 0.750000 0.984549 0.540687
O O2 0.685693 0.003717 0.717201
O O3 0.684364 0.072914 0.541344
O O4 0.640912 0.975286 0.509442
O O5 0.750000 0.112477 0.072063
O O6 0.653412 0.067081 0.137668
O O7 0.654813 0.154813 0.000000
O O8 0.691634 0.054902 0.924161
O O9 0.454080 0.149366 0.103074
O O10 0.548293 0.097303 0.184120
O O11 0.055031 0.444970 0.613300
O O12 0.155857 0.451157 0.711056
O O13 0.102177 0.540361 0.661357
O O14 0.822704 0.177297 0.500000
O O15 0.855821 0.250000 0.344765
O O16 0.863887 0.143439 0.291901
O O17 0.103284 0.250000 0.726940
O O18 0.157619 0.157619 0.747065
O O19 0.085101 0.185946 0.910533
O O20 0.250000 0.098472 0.094129
O O21 0.345446 0.154555 0.077860
#
# Coordination Sequence:
#
# PCOD8315372 Si02
#       8
#    16  16  16  16  16  16  16  16
#     4  10  20  35  58  79 107 148 185 227 277 336
#     4  10  21  37  58  82 111 150 192 237 286 335
#     4  10  21  37  57  80 109 147 193 228 271 334
#     4  11  22  36  56  85 116 144 183 235 287 340
#     4  10  20  37  56  77 109 145 186 231 278 334
#     4   9  19  35  56  84 116 149 187 233 282 338
#     4  10  20  35  57  83 111 143 181 227 278 335
#     4  10  22  38  57  82 113 149 188 232 286 341
#
# _framework density 19.536009
#
# number of rings (size 3 to 8) (size 9 to 14) (size 15 to 20)
#    0.000    2.000    1.250    2.250    0.000    7.500 
#    0.000    5.625    0.000    4.500    0.000    0.000 
#    0.000    3.000    0.000    0.000    0.000    0.000 
#
# Total GULP energy -1586708.078969 kJ/mol
# GULP energy per Si atom -12396.156867 kJ/mol
# Density = 1.949154 g / cm^3
# Si number density = 19.536009 Si / 1000 Ang^3
#
#
#
# Elastic Constant Matrix: (Units=GPa)
#
#
# Indices 1 2 3 4 5 6 
#
# 1 103.9519 43.3521 43.4144 0.0000 0.0000 0.0000
# 2 43.3521 103.9519 43.4142 0.0000 0.0000 0.0000
# 3 43.4144 43.4142 81.3667 0.0000 0.0000 0.0000
# 4 0.0000 0.0000 0.0000 23.2206 0.0000 0.0000
# 5 0.0000 0.0000 0.0000 0.0000 23.2207 0.0000
# 6 0.0000 0.0000 0.0000 0.0000 0.0000 16.4620
#
#
#
# Elastic Compliance Matrix: (Units=1/GPa)
#
#
# Indices 1 2 3 4 5 6 
#
# 1 0.013203 -0.003299 -0.005284 0.000000 0.000000 0.000000
# 2 -0.003299 0.013203 -0.005284 0.000000 0.000000 0.000000
# 3 -0.005284 -0.005284 0.017929 0.000000 0.000000 0.000000
# 4 0.000000 0.000000 0.000000 0.043065 0.000000 0.000000
# 5 0.000000 0.000000 0.000000 0.000000 0.043065 0.000000
# 6 0.000000 0.000000 0.000000 0.000000 0.000000 0.060746
#
#
# Mechanical properties :
#
#
# Convention : Reuss Voigt Hill
#
# Bulk Modulus (GPa) = 60.24362 61.07021 60.65691
# Shear Modulus (GPa) = 22.27392 23.18666 22.73029
#
# Velocity S-wave (km/s) = 3.38027 3.44883 3.41472
# Velocity P-wave (km/s) = 6.79258 6.86931 6.83105
#
# Compressibility (1/GPa) = 0.01659927
#
# Stress axis : x y z
#
# Youngs Moduli (GPa) = 75.74285 75.74307 55.77606
#
# Poissons Ratio (x) = 0.24989 0.29473
# Poissons Ratio (y) = 0.24989 0.29472
# Poissons Ratio (z) = 0.40023 0.40023
#
# Static dielectric constant tensor:
#      x y z
#    x 3.508460 0.000000 0.000000 
#    y 0.000000 3.508460 0.000000 
#    z 0.000000 0.000000 3.495500 
# 
# 
# High freq. dielectric constant tensor:
#      x y z
#    x 1.750560 0.000000 0.000000 
#    y 0.000000 1.750560 0.000000 
#    z 0.000000 0.000000 1.760700 
# 
# From -- ./inp_files/4238.got.cif
#   From: 2010.03.12/outbox.cif.g09.slc.cpg/sg129_3_cif.got.tgz:4238.got - 2010.04.06 17:19:44.
