data_PCOD8315586
_publ_section_title
;
Structure prediction by ZEFSAII (Michael W. Deem and Ramdas Pophale) SiO2 
 PCOD8315586
Probable space group: P 4/N C C
;
_chemical_formula_sum "Si O2"
_cell_formula_units_Z 96
_cell_length_a 19.176777
_cell_length_b 19.176777
_cell_length_c 12.865913
_cell_angle_alpha 90.000000
_cell_angle_beta 90.000000
_cell_angle_gamma 90.000000
_cell_volume 4731.423759
_symmetry_space_group_name_H-M "P 4/N C C"
_symmetry_group_IT_number 130
_symmetry_cell_setting 'tetragonal'
loop_
_space_group_symop_operation_xyz
x,y,z
1/2-y,x,z
1/2-x,1/2-y,z
y,1/2-x,z
1/2+x,-y,1/2-z
-x,1/2+y,1/2-z
1/2+y,1/2+x,1/2-z
-y,-x,1/2-z
-x,-y,-z
1/2+y,-x,-z
1/2+x,1/2+y,-z
-y,1/2+x,-z
1/2-x,y,1/2+z
x,1/2-y,1/2+z
1/2-y,1/2-x,1/2+z
y,x,1/2+z
loop_
_atom_site_type_symbol
_atom_site_label
_atom_site_fract_x
_atom_site_fract_y
_atom_site_fract_z
Si Si1 0.373541 0.010246 0.474585
Si Si2 0.887879 0.439604 0.845107
Si Si3 0.269796 0.013839 0.054887
Si Si4 0.262618 0.361389 0.203969
Si Si5 0.929556 0.530474 0.297787
Si Si6 0.408635 0.154003 0.377419
O O1 0.294575 0.982946 0.489530
O O2 0.368606 0.082394 0.408125
O O3 0.418478 0.948865 0.424068
O O4 0.409666 0.022662 0.583644
O O5 0.883825 0.383825 0.750000
O O6 0.811290 0.448630 0.894648
O O7 0.907425 0.513655 0.791868
O O8 0.237069 0.067087 0.139060
O O9 0.325012 0.049172 0.978367
O O10 0.189314 0.326485 0.171786
O O11 0.277774 0.367887 0.330045
O O12 0.959515 0.459515 0.250000
O O13 0.863289 0.547013 0.226135
#
# Coordination Sequence:
#
# PCOD8315586 Si02
#       6
#    16  16  16  16  16  16
#     4  12  23  40  64  94 132 174 217 282 341 398
#     4  11  23  40  66  95 128 164 223 283 342 390
#     4  12  25  39  63  94 131 171 220 272 338 403
#     4  11  24  41  59  88 135 186 228 257 312 405
#     4  11  20  38  63  92 127 163 218 283 338 381
#     4  12  22  39  63  94 128 175 221 275 330 385
#
# _framework density 20.289876
#
# number of rings (size 3 to 8) (size 9 to 14) (size 15 to 20)
#    0.000    0.500    6.667    4.500    2.333    0.000 
#    0.000    1.667    0.000    0.500    0.000    1.167 
#    0.000    0.000    0.000    0.000    0.000    0.000 
#
# Total GULP energy -1189268.129079 kJ/mol
# GULP energy per Si atom -12388.209678 kJ/mol
# Density = 2.024370 g / cm^3
# Si number density = 20.289876 Si / 1000 Ang^3
#
#
#
# Elastic Constant Matrix: (Units=GPa)
#
#
# Indices 1 2 3 4 5 6 
#
# 1 72.9616 38.6063 34.1753 0.0000 0.0000 0.0000
# 2 38.6063 72.9616 34.1753 0.0000 0.0000 0.0000
# 3 34.1753 34.1753 116.9978 0.0000 0.0000 0.0000
# 4 0.0000 0.0000 0.0000 34.7854 0.0000 0.0000
# 5 0.0000 0.0000 0.0000 0.0000 34.7854 0.0000
# 6 0.0000 0.0000 0.0000 0.0000 0.0000 18.9887
#
#
#
# Elastic Compliance Matrix: (Units=1/GPa)
#
#
# Indices 1 2 3 4 5 6 
#
# 1 0.020012 -0.009095 -0.003189 0.000000 0.000000 0.000000
# 2 -0.009095 0.020012 -0.003189 0.000000 0.000000 0.000000
# 3 -0.003189 -0.003189 0.010410 0.000000 0.000000 0.000000
# 4 0.000000 0.000000 0.000000 0.028748 0.000000 0.000000
# 5 0.000000 0.000000 0.000000 0.000000 0.028748 0.000000
# 6 0.000000 0.000000 0.000000 0.000000 0.000000 0.052663
#
#
# Mechanical properties :
#
#
# Convention : Reuss Voigt Hill
#
# Bulk Modulus (GPa) = 51.31273 52.98163 52.14718
# Shear Modulus (GPa) = 25.24810 28.10952 26.67881
#
# Velocity S-wave (km/s) = 3.53139 3.72613 3.63007
# Velocity P-wave (km/s) = 6.47861 6.68439 6.58230
#
# Compressibility (1/GPa) = 0.01948834
#
# Stress axis : x y z
#
# Youngs Moduli (GPa) = 49.96972 49.96972 96.06080
#
# Poissons Ratio (x) = 0.45449 0.30632
# Poissons Ratio (y) = 0.45449 0.30632
# Poissons Ratio (z) = 0.15934 0.15934
#
# Static dielectric constant tensor:
#      x y z
#    x 3.695510 0.000000 0.000000 
#    y 0.000000 3.695510 0.000000 
#    z 0.000000 0.000000 4.096440 
# 
# 
# High freq. dielectric constant tensor:
#      x y z
#    x 1.767480 0.000000 0.000000 
#    y 0.000000 1.767480 0.000000 
#    z 0.000000 0.000000 1.818000 
# 
# From -- ./inp_files/1784.got.cif
#   From: 2010.03.12/outbox.cif.g09.slc.cpg/sg130_1_cif.got.tgz:1784.got - 2010.04.06 17:30:23.
