data_PCOD8315606
_publ_section_title
;
Structure prediction by ZEFSAII (Michael W. Deem and Ramdas Pophale) SiO2 
 PCOD8315606
Probable space group: P 4/N C C
;
_chemical_formula_sum "Si O2"
_cell_formula_units_Z 96
_cell_length_a 14.493096
_cell_length_b 14.493096
_cell_length_c 19.693645
_cell_angle_alpha 90.000000
_cell_angle_beta 90.000000
_cell_angle_gamma 90.000000
_cell_volume 4136.646817
_symmetry_space_group_name_H-M "P 4/N C C"
_symmetry_group_IT_number 130
_symmetry_cell_setting 'tetragonal'
loop_
_space_group_symop_operation_xyz
x,y,z
1/2-y,x,z
1/2-x,1/2-y,z
y,1/2-x,z
1/2+x,-y,1/2-z
-x,1/2+y,1/2-z
1/2+y,1/2+x,1/2-z
-y,-x,1/2-z
-x,-y,-z
1/2+y,-x,-z
1/2+x,1/2+y,-z
-y,1/2+x,-z
1/2-x,y,1/2+z
x,1/2-y,1/2+z
1/2-y,1/2-x,1/2+z
y,x,1/2+z
loop_
_atom_site_type_symbol
_atom_site_label
_atom_site_fract_x
_atom_site_fract_y
_atom_site_fract_z
Si Si1 0.069181 0.705950 0.212000
Si Si2 0.893613 0.950077 0.399786
Si Si3 0.665093 0.194608 0.412318
Si Si4 0.974900 0.797945 0.036858
Si Si5 0.458116 0.390717 0.395283
Si Si6 0.511082 0.287798 0.658844
O O1 0.132764 0.632764 0.250000
O O2 0.128901 0.749969 0.152685
O O3 0.981470 0.652440 0.178352
O O4 0.037803 0.790883 0.261149
O O5 0.838755 0.927271 0.469471
O O6 0.933171 0.858970 0.363849
O O7 0.818849 0.982880 0.345928
O O8 0.969660 0.028514 0.414164
O O9 0.750000 0.250000 0.444487
O O10 0.585335 0.187954 0.468946
O O11 0.695956 0.093586 0.392563
O O12 0.957087 0.689378 0.047007
O O13 0.936019 0.855890 0.102190
#
# Coordination Sequence:
#
# PCOD8315606 Si02
#       6
#    16  16  16  16  16  16
#     4  11  22  43  71 104 143 183 251 311 372 455
#     4  12  26  46  71 106 149 198 248 310 382 449
#     4  11  22  41  69 106 140 191 243 314 382 428
#     4  11  25  44  72 102 150 193 253 305 371 465
#     4  11  24  46  69 107 142 197 248 309 381 441
#     4  12  25  43  70 103 146 195 244 307 377 454
#
# _framework density 23.207204000000001
#
# number of rings (size 3 to 8) (size 9 to 14) (size 15 to 20)
#    0.000    0.667    5.000    3.000    2.333    3.333 
#    3.000    1.667    0.000    4.000    0.000    0.000 
#    0.000    0.000    0.000    0.000    0.000    0.000 
#
# Total GULP energy -1190151.669919 kJ/mol
# GULP energy per Si atom -12397.413228 kJ/mol
# Density = 2.315438 g / cm^3
# Si number density = 23.207204 Si / 1000 Ang^3
#
#
#
# Elastic Constant Matrix: (Units=GPa)
#
#
# Indices 1 2 3 4 5 6 
#
# 1 74.6917 47.3282 10.8008 0.0000 0.0000 0.0000
# 2 47.3282 74.6917 10.8008 0.0000 0.0000 0.0000
# 3 10.8008 10.8008 90.8218 0.0000 0.0000 0.0000
# 4 0.0000 0.0000 0.0000 28.3818 0.0000 0.0000
# 5 0.0000 0.0000 0.0000 0.0000 28.3818 0.0000
# 6 0.0000 0.0000 0.0000 0.0000 0.0000 43.6751
#
#
#
# Elastic Compliance Matrix: (Units=1/GPa)
#
#
# Indices 1 2 3 4 5 6 
#
# 1 0.022458 -0.014087 -0.000996 0.000000 0.000000 0.000000
# 2 -0.014087 0.022458 -0.000996 0.000000 0.000000 0.000000
# 3 -0.000996 -0.000996 0.011247 0.000000 0.000000 0.000000
# 4 0.000000 0.000000 0.000000 0.035234 0.000000 0.000000
# 5 0.000000 0.000000 0.000000 0.000000 0.035234 0.000000
# 6 0.000000 0.000000 0.000000 0.000000 0.000000 0.022896
#
#
# Mechanical properties :
#
#
# Convention : Reuss Voigt Hill
#
# Bulk Modulus (GPa) = 41.65223 42.00720 41.82972
# Shear Modulus (GPa) = 26.35932 31.50612 28.93272
#
# Velocity S-wave (km/s) = 3.37386 3.68856 3.53471
# Velocity P-wave (km/s) = 5.75883 6.02336 5.89258
#
# Compressibility (1/GPa) = 0.02400832
#
# Stress axis : x y z
#
# Youngs Moduli (GPa) = 44.52701 44.52701 88.90974
#
# Poissons Ratio (x) = 0.62724 0.08852
# Poissons Ratio (y) = 0.62724 0.08852
# Poissons Ratio (z) = 0.04433 0.04433
#
# Static dielectric constant tensor:
#      x y z
#    x 4.405560 0.000000 0.000000 
#    y 0.000000 4.405560 0.000000 
#    z 0.000000 0.000000 4.170030 
# 
# 
# High freq. dielectric constant tensor:
#      x y z
#    x 1.920150 0.000000 0.000000 
#    y 0.000000 1.920150 0.000000 
#    z 0.000000 0.000000 1.918990 
# 
# From -- ./inp_files/3782.got.cif
#   From: 2010.03.12/outbox.cif.g09.slc.cpg/sg130_2_cif.got.tgz:3782.got - 2010.04.06 17:30:23.
