data_PCOD8315968
_publ_section_title
;
Structure prediction by ZEFSAII (Michael W. Deem and Ramdas Pophale) SiO2 
 PCOD8315968
Probable space group: P 42/M M C
;
_chemical_formula_sum "Si O2"
_cell_formula_units_Z 80
_cell_length_a 22.704555
_cell_length_b 22.704555
_cell_length_c 9.057611
_cell_angle_alpha 90.000000
_cell_angle_beta 90.000000
_cell_angle_gamma 90.000000
_cell_volume 4669.169647
_symmetry_space_group_name_H-M "P 42/M M C"
_symmetry_group_IT_number 131
_symmetry_cell_setting 'tetragonal'
loop_
_space_group_symop_operation_xyz
x,y,z
-x,-y,z
-y,x,1/2+z
y,-x,1/2+z
-x,y,-z
x,-y,-z
y,x,1/2-z
-y,-x,1/2-z
-x,-y,-z
x,y,-z
y,-x,1/2-z
-y,x,1/2-z
x,-y,z
-x,y,z
-y,-x,1/2+z
y,x,1/2+z
loop_
_atom_site_type_symbol
_atom_site_label
_atom_site_fract_x
_atom_site_fract_y
_atom_site_fract_z
Si Si1 0.681079 0.063825 0.329299
Si Si2 0.583940 0.500000 0.172960
Si Si3 0.217680 0.391360 0.333490
Si Si4 0.500000 0.299626 0.170056
Si Si5 0.088715 0.434495 0.330967
Si Si6 0.810917 0.275851 0.174945
O O1 0.670030 0.075504 0.500000
O O2 0.616792 0.056894 0.258293
O O3 0.718945 0.120091 0.270737
O O4 0.713309 0.000000 0.302496
O O5 0.557508 0.557508 0.250000
O O6 0.652202 0.500000 0.203886
O O7 0.570082 0.500000 0.000000
O O8 0.223840 0.366783 0.500000
O O9 0.266192 0.439552 0.296738
O O10 0.157996 0.427007 0.312731
O O11 0.222713 0.335378 0.224575
O O12 0.500000 0.322076 0.000000
O O13 0.069076 0.428338 0.500000
O O14 0.071343 0.500000 0.272772
O O15 0.781425 0.218576 0.250000
O O16 0.805851 0.268506 0.000000
#
# Coordination Sequence:
#
# PCOD8315968 Si02
#       6
#    16   8  16   8  16  16
#     4   9  19  34  49  68  96 129 164 201 241 286
#     4  11  23  40  57  70  86 109 139 181 236 298
#     4   9  17  31  50  71  97 128 160 197 239 281
#     4  10  19  33  54  76  96 121 154 196 242 287
#     4   9  16  28  46  68  95 128 164 199 237 276
#     4  10  20  34  52  73  98 130 165 203 245 290
#
# _framework density 17.133666999999999
#
# number of rings (size 3 to 8) (size 9 to 14) (size 15 to 20)
#    0.000    2.500    1.000    1.800    0.000    3.600 
#    0.000    2.000    0.000    0.000    0.000    0.000 
#    0.000    0.400    0.000    5.000    0.000    0.000 
#
# Total GULP energy -991291.427834 kJ/mol
# GULP energy per Si atom -12391.142848 kJ/mol
# Density = 1.709467 g / cm^3
# Si number density = 17.133667 Si / 1000 Ang^3
#
#
#
# Elastic Constant Matrix: (Units=GPa)
#
#
# Indices 1 2 3 4 5 6 
#
# 1 102.1096 50.4455 38.7726 0.0000 0.0000 0.0000
# 2 50.4455 102.1121 38.7726 0.0000 0.0000 0.0000
# 3 38.7726 38.7726 68.9406 0.0000 0.0000 0.0000
# 4 0.0000 0.0000 0.0000 17.0648 0.0000 0.0000
# 5 0.0000 0.0000 0.0000 0.0000 17.0647 0.0000
# 6 0.0000 0.0000 0.0000 0.0000 0.0000 13.0171
#
#
#
# Elastic Compliance Matrix: (Units=1/GPa)
#
#
# Indices 1 2 3 4 5 6 
#
# 1 0.014267 -0.005088 -0.005162 0.000000 0.000000 0.000000
# 2 -0.005088 0.014267 -0.005162 0.000000 0.000000 0.000000
# 3 -0.005162 -0.005162 0.020312 0.000000 0.000000 0.000000
# 4 0.000000 0.000000 0.000000 0.058600 0.000000 0.000000
# 5 0.000000 0.000000 0.000000 0.000000 0.058600 0.000000
# 6 0.000000 0.000000 0.000000 0.000000 0.000000 0.076822
#
#
# Mechanical properties :
#
#
# Convention : Reuss Voigt Hill
#
# Bulk Modulus (GPa) = 55.49209 58.79373 57.14291
# Shear Modulus (GPa) = 17.87621 19.10743 18.49182
#
# Velocity S-wave (km/s) = 3.23358 3.34308 3.28879
# Velocity P-wave (km/s) = 6.81171 7.02074 6.91702
#
# Compressibility (1/GPa) = 0.01802059
#
# Stress axis : x y z
#
# Youngs Moduli (GPa) = 70.08998 70.09209 49.23228
#
# Poissons Ratio (x) = 0.35664 0.25416
# Poissons Ratio (y) = 0.35663 0.25415
# Poissons Ratio (z) = 0.36183 0.36183
#
# Static dielectric constant tensor:
#      x y z
#    x 3.278410 0.000000 0.000000 
#    y 0.000000 3.278410 0.000000 
#    z 0.000000 0.000000 3.190580 
# 
# 
# High freq. dielectric constant tensor:
#      x y z
#    x 1.647780 0.000000 0.000000 
#    y 0.000000 1.647780 0.000000 
#    z 0.000000 0.000000 1.659400 
# 
# From -- ./inp_files/2075.got.cif
#   From: 2010.03.12/outbox.cif.g09.slc.cpg/sg131_2_cif.got.tgz:2075.got - 2010.04.06 17:36:35.
