data_PCOD8315479
_publ_section_title
;
Structure prediction by ZEFSAII (Michael W. Deem and Ramdas Pophale) SiO2 
 PCOD8315479
Probable space group: P 4/N C C
;
_chemical_formula_sum "Si O2"
_cell_formula_units_Z 96
_cell_length_a 23.565758
_cell_length_b 23.565758
_cell_length_c 9.599792
_cell_angle_alpha 90.000000
_cell_angle_beta 90.000000
_cell_angle_gamma 90.000000
_cell_volume 5331.196009
_symmetry_space_group_name_H-M "P 4/N C C"
_symmetry_group_IT_number 130
_symmetry_cell_setting 'tetragonal'
loop_
_space_group_symop_operation_xyz
x,y,z
1/2-y,x,z
1/2-x,1/2-y,z
y,1/2-x,z
1/2+x,-y,1/2-z
-x,1/2+y,1/2-z
1/2+y,1/2+x,1/2-z
-y,-x,1/2-z
-x,-y,-z
1/2+y,-x,-z
1/2+x,1/2+y,-z
-y,1/2+x,-z
1/2-x,y,1/2+z
x,1/2-y,1/2+z
1/2-y,1/2-x,1/2+z
y,x,1/2+z
loop_
_atom_site_type_symbol
_atom_site_label
_atom_site_fract_x
_atom_site_fract_y
_atom_site_fract_z
Si Si1 0.130343 0.194345 0.016845
Si Si2 0.703932 0.630406 0.797185
Si Si3 0.004337 0.801784 0.987588
Si Si4 0.429155 0.508218 0.133668
Si Si5 0.025587 0.575122 0.377956
Si Si6 0.200461 0.000533 0.202394
O O1 0.157137 0.244159 0.113759
O O2 0.148974 0.138082 0.102429
O O3 0.063179 0.195844 0.007179
O O4 0.156328 0.195886 0.859114
O O5 0.718394 0.565067 0.777152
O O6 0.026571 0.859480 0.919518
O O7 0.027296 0.747544 0.900111
O O8 0.028822 0.797463 0.145145
O O9 0.446996 0.553005 0.250000
O O10 0.461625 0.447762 0.156617
O O11 0.361701 0.501364 0.135781
O O12 0.446753 0.533660 0.988512
O O13 0.068193 0.568193 0.250000
#
# Coordination Sequence:
#
# PCOD8315479 Si02
#       6
#    16  16  16  16  16  16
#     4  10  20  34  50  68  93 126 168 214 259 304
#     4  10  20  34  49  69  92 126 168 213 259 305
#     4  10  21  36  51  76 106 139 176 212 260 319
#     4  10  19  36  55  79 111 146 179 223 273 317
#     4  10  21  34  55  83 110 142 184 223 267 323
#     4  10  21  35  53  74 106 141 174 213 261 317
#
# _framework density 18.007217000000001
#
# number of rings (size 3 to 8) (size 9 to 14) (size 15 to 20)
#    0.000    2.000    1.667    2.000    2.333    1.667 
#    0.000    1.667    0.000    0.000    0.000    0.000 
#    0.000    4.000    0.000    0.000    0.000    0.000 
#
# Total GULP energy -1189659.157179 kJ/mol
# GULP energy per Si atom -12392.282887 kJ/mol
# Density = 1.796623 g / cm^3
# Si number density = 18.007217 Si / 1000 Ang^3
#
#
#
# Elastic Constant Matrix: (Units=GPa)
#
#
# Indices 1 2 3 4 5 6 
#
# 1 80.6991 1.6528 32.6333 0.0000 0.0000 0.0000
# 2 1.6528 80.6980 32.6324 0.0000 0.0000 0.0000
# 3 32.6333 32.6324 142.2568 0.0000 0.0000 0.0000
# 4 0.0000 0.0000 0.0000 26.5430 0.0000 0.0000
# 5 0.0000 0.0000 0.0000 0.0000 26.5432 0.0000
# 6 0.0000 0.0000 0.0000 0.0000 0.0000 19.4731
#
#
#
# Elastic Compliance Matrix: (Units=1/GPa)
#
#
# Indices 1 2 3 4 5 6 
#
# 1 0.013746 0.001095 -0.003405 0.000000 0.000000 0.000000
# 2 0.001095 0.013746 -0.003404 0.000000 0.000000 0.000000
# 3 -0.003405 -0.003404 0.008591 0.000000 0.000000 0.000000
# 4 0.000000 0.000000 0.000000 0.037675 0.000000 0.000000
# 5 0.000000 0.000000 0.000000 0.000000 0.037674 0.000000
# 6 0.000000 0.000000 0.000000 0.000000 0.000000 0.051353
#
#
# Mechanical properties :
#
#
# Convention : Reuss Voigt Hill
#
# Bulk Modulus (GPa) = 40.55808 48.61011 44.58409
# Shear Modulus (GPa) = 27.40749 30.29422 28.85086
#
# Velocity S-wave (km/s) = 3.90555 4.10608 4.00707
# Velocity P-wave (km/s) = 6.55056 7.03799 6.79865
#
# Compressibility (1/GPa) = 0.02465600
#
# Stress axis : x y z
#
# Youngs Moduli (GPa) = 72.74834 72.74774 116.39434
#
# Poissons Ratio (x) = -0.07967 0.39627
# Poissons Ratio (y) = -0.07967 0.39626
# Poissons Ratio (z) = 0.24767 0.24767
#
# Static dielectric constant tensor:
#      x y z
#    x 3.063400 0.000000 0.000000 
#    y 0.000000 3.063400 0.000000 
#    z 0.000000 0.000000 3.757040 
# 
# 
# High freq. dielectric constant tensor:
#      x y z
#    x 1.663450 0.000000 0.000000 
#    y 0.000000 1.663450 0.000000 
#    z 0.000000 0.000000 1.725160 
# 
# From -- ./inp_files/906.got.cif
#   From: 2010.03.12/outbox.cif.g09.slc.cpg/sg130_1_cif.got.tgz:906.got - 2010.04.06 17:30:23.
