data_PCOD8315531
_publ_section_title
;
Structure prediction by ZEFSAII (Michael W. Deem and Ramdas Pophale) SiO2 
 PCOD8315531
Probable space group: P 4/N C C
;
_chemical_formula_sum "Si O2"
_cell_formula_units_Z 116
_cell_length_a 15.959076
_cell_length_b 15.959076
_cell_length_c 19.981195
_cell_angle_alpha 90.000000
_cell_angle_beta 90.000000
_cell_angle_gamma 90.000000
_cell_volume 5089.052650
_symmetry_space_group_name_H-M "P 4/N C C"
_symmetry_group_IT_number 130
_symmetry_cell_setting 'tetragonal'
loop_
_space_group_symop_operation_xyz
x,y,z
1/2-y,x,z
1/2-x,1/2-y,z
y,1/2-x,z
1/2+x,-y,1/2-z
-x,1/2+y,1/2-z
1/2+y,1/2+x,1/2-z
-y,-x,1/2-z
-x,-y,-z
1/2+y,-x,-z
1/2+x,1/2+y,-z
-y,1/2+x,-z
1/2-x,y,1/2+z
x,1/2-y,1/2+z
1/2-y,1/2-x,1/2+z
y,x,1/2+z
loop_
_atom_site_type_symbol
_atom_site_label
_atom_site_fract_x
_atom_site_fract_y
_atom_site_fract_z
Si Si1 0.321540 0.841601 0.384627
Si Si2 0.376009 0.209207 0.478764
Si Si3 0.624981 0.587059 0.654443
Si Si4 0.774928 0.497712 0.705332
Si Si5 0.299418 0.894182 0.690876
Si Si6 0.250000 0.750000 0.500000
Si Si7 0.462118 0.934826 0.912155
Si Si8 0.619134 0.482726 0.455915
O O1 0.281882 0.922258 0.348689
O O2 0.318724 0.753032 0.343535
O O3 0.271631 0.830355 0.454156
O O4 0.420381 0.853018 0.397793
O O5 0.354394 0.303081 0.500860
O O6 0.378835 0.193873 0.398546
O O7 0.465506 0.196242 0.513300
O O8 0.681838 0.537122 0.706619
O O9 0.568934 0.655468 0.693906
O O10 0.562084 0.525062 0.617812
O O11 0.773406 0.455860 0.778926
O O12 0.356912 0.856912 0.750000
O O13 0.357471 0.939930 0.635808
O O14 0.560951 0.944623 0.924062
O O15 0.421362 0.925630 0.985513
#
# Coordination Sequence:
#
# PCOD8315531 Si02
#       8
#    16  16  16  16  16   4  16  16
#     4  12  27  45  67 103 140 181 233 293 367 427
#     4  10  21  36  65 103 141 180 227 290 356 423
#     4  11  22  42  71 101 135 177 239 286 346 415
#     4  12  26  45  70 103 139 185 241 295 345 433
#     4  12  26  47  73  98 141 188 236 293 355 429
#     4  12  28  40  70 100 144 180 228 298 364 436
#     4  10  22  45  70 104 134 182 231 288 357 420
#     4  10  23  41  72 102 142 177 230 295 355 435
#
# _framework density 22.794027
#
# number of rings (size 3 to 8) (size 9 to 14) (size 15 to 20)
#    0.000    0.966    4.138    2.069    5.793    1.931 
#    2.483    0.000    0.000    0.000    0.000    0.000 
#    0.000    0.000    0.000    0.000    0.000    0.000 
#
# Total GULP energy -1437579.051583 kJ/mol
# GULP energy per Si atom -12392.922858 kJ/mol
# Density = 2.274215 g / cm^3
# Si number density = 22.794027 Si / 1000 Ang^3
#
#
#
# Elastic Constant Matrix: (Units=GPa)
#
#
# Indices 1 2 3 4 5 6 
#
# 1 76.1376 41.5390 44.4128 0.0000 0.0000 0.0000
# 2 41.5390 76.1376 44.4128 0.0000 0.0000 0.0000
# 3 44.4128 44.4128 100.3684 0.0000 0.0000 0.0000
# 4 0.0000 0.0000 0.0000 32.9689 0.0000 0.0000
# 5 0.0000 0.0000 0.0000 0.0000 32.9689 0.0000
# 6 0.0000 0.0000 0.0000 0.0000 0.0000 11.5841
#
#
#
# Elastic Compliance Matrix: (Units=1/GPa)
#
#
# Indices 1 2 3 4 5 6 
#
# 1 0.020831 -0.008072 -0.005646 0.000000 0.000000 0.000000
# 2 -0.008072 0.020831 -0.005646 0.000000 0.000000 0.000000
# 3 -0.005646 -0.005646 0.014960 0.000000 0.000000 0.000000
# 4 0.000000 0.000000 0.000000 0.030332 0.000000 0.000000
# 5 0.000000 0.000000 0.000000 0.000000 0.030332 0.000000
# 6 0.000000 0.000000 0.000000 0.000000 0.000000 0.086326
#
#
# Mechanical properties :
#
#
# Convention : Reuss Voigt Hill
#
# Bulk Modulus (GPa) = 55.88161 57.04141 56.46151
# Shear Modulus (GPa) = 20.13660 23.65632 21.89646
#
# Velocity S-wave (km/s) = 2.97546 3.22503 3.10275
# Velocity P-wave (km/s) = 6.03105 6.24074 6.13679
#
# Compressibility (1/GPa) = 0.01789497
#
# Stress axis : x y z
#
# Youngs Moduli (GPa) = 48.00471 48.00471 66.84438
#
# Poissons Ratio (x) = 0.38747 0.37741
# Poissons Ratio (y) = 0.38747 0.37741
# Poissons Ratio (z) = 0.27104 0.27104
#
# Static dielectric constant tensor:
#      x y z
#    x 4.106000 0.000000 0.000000 
#    y 0.000000 4.106000 0.000000 
#    z 0.000000 0.000000 4.072370 
# 
# 
# High freq. dielectric constant tensor:
#      x y z
#    x 1.904770 0.000000 0.000000 
#    y 0.000000 1.904770 0.000000 
#    z 0.000000 0.000000 1.886450 
# 
# From -- ./inp_files/3220.got.cif
#   From: 2010.03.12/outbox.cif.g09.slc.cpg/sg130_2_cif.got.tgz:3220.got - 2010.04.06 17:30:23.
