data_PCOD8315950
_publ_section_title
;
Structure prediction by ZEFSAII (Michael W. Deem and Ramdas Pophale) SiO2 
 PCOD8315950
Probable space group: P 42/M M C
;
_chemical_formula_sum "Si O2"
_cell_formula_units_Z 120
_cell_length_a 20.165180
_cell_length_b 20.165180
_cell_length_c 15.718869
_cell_angle_alpha 90.000000
_cell_angle_beta 90.000000
_cell_angle_gamma 90.000000
_cell_volume 6391.834192
_symmetry_space_group_name_H-M "P 42/M M C"
_symmetry_group_IT_number 131
_symmetry_cell_setting 'tetragonal'
loop_
_space_group_symop_operation_xyz
x,y,z
-x,-y,z
-y,x,1/2+z
y,-x,1/2+z
-x,y,-z
x,-y,-z
y,x,1/2-z
-y,-x,1/2-z
-x,-y,-z
x,y,-z
y,-x,1/2-z
-y,x,1/2-z
x,-y,z
-x,y,z
-y,-x,1/2+z
y,x,1/2+z
loop_
_atom_site_type_symbol
_atom_site_label
_atom_site_fract_x
_atom_site_fract_y
_atom_site_fract_z
Si Si1 0.690844 0.428103 0.901218
Si Si2 0.154964 0.762388 0.594063
Si Si3 0.072925 0.183273 0.260491
Si Si4 0.078403 0.500000 0.899218
Si Si5 0.109413 0.243124 0.908438
Si Si6 0.334371 0.761829 0.196382
Si Si7 0.576315 0.668982 0.100026
Si Si8 0.377068 0.166256 0.648640
O O1 0.691278 0.500000 0.855496
O O2 0.626284 0.388724 0.868704
O O3 0.759684 0.391678 0.883975
O O4 0.682884 0.438467 0.000000
O O5 0.126135 0.745359 0.500000
O O6 0.097241 0.767465 0.664657
O O7 0.191276 0.831743 0.592014
O O8 0.209769 0.708412 0.619075
O O9 0.120490 0.120490 0.250000
O O10 0.065103 0.225655 0.173290
O O11 0.000000 0.156823 0.284590
O O12 0.114519 0.436898 0.858592
O O13 0.000000 0.500000 0.876779
O O14 0.089994 0.500000 0.000000
O O15 0.136420 0.317602 0.905563
O O16 0.071462 0.236420 0.000000
O O17 0.291302 0.708699 0.250000
O O18 0.401516 0.731775 0.156288
O O19 0.355737 0.824681 0.253466
O O20 0.500000 0.650316 0.120496
O O21 0.585106 0.684371 0.000000
#
# Coordination Sequence:
#
# PCOD8315950 Si02
#       8
#    16  16  16   8  16  16  16  16
#     4  10  19  32  53  79 108 151 202 244 291 358
#     4  10  19  36  59  85 116 148 189 246 302 345
#     4  10  21  38  57  86 122 156 198 238 282 346
#     4  11  26  44  58  82 120 158 196 235 290 374
#     4  10  19  33  58  87 116 148 183 233 292 345
#     4  12  20  35  56  88 117 144 193 250 306 364
#     4  10  22  37  53  78 115 156 201 256 309 353
#     4  12  21  35  60  85 116 150 191 239 293 361
#
# _framework density 18.773954
#
# number of rings (size 3 to 8) (size 9 to 14) (size 15 to 20)
#    0.000    1.400    4.667    2.000    0.933    3.600 
#    0.000    1.333    0.000    0.000    0.000    3.733 
#    0.000    1.067    0.000    0.000    0.000    0.000 
#
# Total GULP energy -1487192.616405 kJ/mol
# GULP energy per Si atom -12393.271803 kJ/mol
# Density = 1.873122 g / cm^3
# Si number density = 18.773954 Si / 1000 Ang^3
#
#
#
# Elastic Constant Matrix: (Units=GPa)
#
#
# Indices 1 2 3 4 5 6 
#
# 1 97.4086 36.8305 37.8154 0.0000 0.0000 0.0000
# 2 36.8305 97.4076 37.8151 0.0000 0.0000 0.0000
# 3 37.8154 37.8151 103.6673 0.0000 0.0000 0.0000
# 4 0.0000 0.0000 0.0000 10.8871 0.0000 0.0000
# 5 0.0000 0.0000 0.0000 0.0000 10.8871 0.0000
# 6 0.0000 0.0000 0.0000 0.0000 0.0000 14.0006
#
#
#
# Elastic Compliance Matrix: (Units=1/GPa)
#
#
# Indices 1 2 3 4 5 6 
#
# 1 0.012942 -0.003566 -0.003420 0.000000 0.000000 0.000000
# 2 -0.003566 0.012942 -0.003420 0.000000 0.000000 0.000000
# 3 -0.003420 -0.003420 0.012142 0.000000 0.000000 0.000000
# 4 0.000000 0.000000 0.000000 0.091852 0.000000 0.000000
# 5 0.000000 0.000000 0.000000 0.000000 0.091852 0.000000
# 6 0.000000 0.000000 0.000000 0.000000 0.000000 0.071426
#
#
# Mechanical properties :
#
#
# Convention : Reuss Voigt Hill
#
# Bulk Modulus (GPa) = 58.09489 58.15616 58.12553
# Shear Modulus (GPa) = 15.63941 19.55646 17.59794
#
# Velocity S-wave (km/s) = 2.88937 3.23101 3.06495
# Velocity P-wave (km/s) = 6.49175 6.70548 6.59948
#
# Compressibility (1/GPa) = 0.01721322
#
# Stress axis : x y z
#
# Youngs Moduli (GPa) = 77.26770 77.26697 82.36206
#
# Poissons Ratio (x) = 0.27551 0.28170
# Poissons Ratio (y) = 0.27551 0.28170
# Poissons Ratio (z) = 0.26428 0.26428
#
# Static dielectric constant tensor:
#      x y z
#    x 3.411080 0.000000 0.000000 
#    y 0.000000 3.411080 0.000000 
#    z 0.000000 0.000000 4.020110 
# 
# 
# High freq. dielectric constant tensor:
#      x y z
#    x 1.715720 0.000000 0.000000 
#    y 0.000000 1.715720 0.000000 
#    z 0.000000 0.000000 1.737530 
# 
# From -- ./inp_files/6331.got.cif
#   From: 2010.03.12/outbox.cif.g09.slc.cpg/sg131_4_cif.got.tgz:6331.got - 2010.04.06 17:36:35.
