data_PCOD8315623
_publ_section_title
;
Structure prediction by ZEFSAII (Michael W. Deem and Ramdas Pophale) SiO2 
 PCOD8315623
Probable space group: P 4/N C C
;
_chemical_formula_sum "Si O2"
_cell_formula_units_Z 64
_cell_length_a 15.383257
_cell_length_b 15.383257
_cell_length_c 13.189040
_cell_angle_alpha 90.000000
_cell_angle_beta 90.000000
_cell_angle_gamma 90.000000
_cell_volume 3121.115041
_symmetry_space_group_name_H-M "P 4/N C C"
_symmetry_group_IT_number 130
_symmetry_cell_setting 'tetragonal'
loop_
_space_group_symop_operation_xyz
x,y,z
1/2-y,x,z
1/2-x,1/2-y,z
y,1/2-x,z
1/2+x,-y,1/2-z
-x,1/2+y,1/2-z
1/2+y,1/2+x,1/2-z
-y,-x,1/2-z
-x,-y,-z
1/2+y,-x,-z
1/2+x,1/2+y,-z
-y,1/2+x,-z
1/2-x,y,1/2+z
x,1/2-y,1/2+z
1/2-y,1/2-x,1/2+z
y,x,1/2+z
loop_
_atom_site_type_symbol
_atom_site_label
_atom_site_fract_x
_atom_site_fract_y
_atom_site_fract_z
Si Si1 0.297424 0.383762 0.133224
Si Si2 0.797424 0.883762 0.633224
Si Si3 0.250000 0.527635 1.000000
Si Si4 0.177423 0.677423 0.130792
O O1 0.197190 0.358938 0.107914
O O2 0.307776 0.410077 0.250000
O O3 0.318161 0.467183 0.063066
O O4 0.697190 0.858938 0.607914
O O5 0.818161 0.967183 0.563066
O O6 0.298130 0.585398 0.916792
O O7 0.201870 0.585398 0.083208
O O8 0.250000 0.750000 0.104784
O O9 0.165787 0.665787 0.250000
#
# Coordination Sequence:
#
# PCOD8315623 Si02
#       4
#    16  16  16  16
#     4   9  19  36  59  89 123 155 188 229 278 335
#     4   9  19  36  59  89 123 155 188 229 278 335
#     4  12  19  37  60  88 106 154 196 235 281 340
#     4  11  24  42  59  80 110 148 196 244 291 338
#
# _framework density 20.505493999999999
#
# number of rings (size 3 to 8) (size 9 to 14) (size 15 to 20)
#    0.000    1.750    2.500    4.500    0.000    2.000 
#    0.000    5.000    0.000    6.000    0.000    0.000 
#    0.000    0.000    0.000    0.000    0.000    0.000 
#
# Total GULP energy -793315.193945 kJ/mol
# GULP energy per Si atom -12395.549905 kJ/mol
# Density = 2.045882 g / cm^3
# Si number density = 20.505494 Si / 1000 Ang^3
#
#
#
# Elastic Constant Matrix: (Units=GPa)
#
#
# Indices 1 2 3 4 5 6 
#
# 1 90.3116 14.2108 58.5104 0.0000 0.0000 0.0000
# 2 14.2108 90.3116 58.5104 0.0000 0.0000 0.0000
# 3 58.5104 58.5104 130.9008 0.0000 0.0000 0.0000
# 4 0.0000 0.0000 0.0000 41.0901 0.0000 0.0000
# 5 0.0000 0.0000 0.0000 0.0000 41.0901 0.0000
# 6 0.0000 0.0000 0.0000 0.0000 0.0000 14.0659
#
#
#
# Elastic Compliance Matrix: (Units=1/GPa)
#
#
# Indices 1 2 3 4 5 6 
#
# 1 0.016146 0.003005 -0.008560 0.000000 0.000000 0.000000
# 2 0.003005 0.016146 -0.008560 0.000000 0.000000 0.000000
# 3 -0.008560 -0.008560 0.015292 0.000000 0.000000 0.000000
# 4 0.000000 0.000000 0.000000 0.024337 0.000000 0.000000
# 5 0.000000 0.000000 0.000000 0.000000 0.024337 0.000000
# 6 0.000000 0.000000 0.000000 0.000000 0.000000 0.071094
#
#
# Mechanical properties :
#
#
# Convention : Reuss Voigt Hill
#
# Bulk Modulus (GPa) = 51.67071 63.77633 57.72352
# Shear Modulus (GPa) = 24.74850 31.26872 28.00861
#
# Velocity S-wave (km/s) = 3.47784 3.90923 3.69983
# Velocity P-wave (km/s) = 6.43276 7.17953 6.81638
#
# Compressibility (1/GPa) = 0.01935332
#
# Stress axis : x y z
#
# Youngs Moduli (GPa) = 61.93549 61.93549 65.39391
#
# Poissons Ratio (x) = -0.18614 0.55979
# Poissons Ratio (y) = -0.18614 0.55979
# Poissons Ratio (z) = 0.53018 0.53018
#
# Static dielectric constant tensor:
#      x y z
#    x 3.590630 0.000000 0.000000 
#    y 0.000000 3.590630 0.000000 
#    z 0.000000 0.000000 4.086870 
# 
# 
# High freq. dielectric constant tensor:
#      x y z
#    x 1.773300 0.000000 0.000000 
#    y 0.000000 1.773300 0.000000 
#    z 0.000000 0.000000 1.847080 
# 
# From -- ./inp_files/2162.got.cif
#   From: 2010.03.12/outbox.cif.g09.slc.cpg/sg130_2_cif.got.tgz:2162.got - 2010.04.06 17:30:23.
