data_PCOD8315746
_publ_section_title
;
Structure prediction by ZEFSAII (Michael W. Deem and Ramdas Pophale) SiO2 
 PCOD8315746
Probable space group: P 42/M M C
;
_chemical_formula_sum "Si O2"
_cell_formula_units_Z 112
_cell_length_a 14.584313
_cell_length_b 14.584313
_cell_length_c 30.403964
_cell_angle_alpha 90.000000
_cell_angle_beta 90.000000
_cell_angle_gamma 90.000000
_cell_volume 6466.989596
_symmetry_space_group_name_H-M "P 42/M M C"
_symmetry_group_IT_number 131
_symmetry_cell_setting 'tetragonal'
loop_
_space_group_symop_operation_xyz
x,y,z
-x,-y,z
-y,x,1/2+z
y,-x,1/2+z
-x,y,-z
x,-y,-z
y,x,1/2-z
-y,-x,1/2-z
-x,-y,-z
x,y,-z
y,-x,1/2-z
-y,x,1/2-z
x,-y,z
-x,y,z
-y,-x,1/2+z
y,x,1/2+z
loop_
_atom_site_type_symbol
_atom_site_label
_atom_site_fract_x
_atom_site_fract_y
_atom_site_fract_z
Si Si1 0.899105 0.781919 0.118801
Si Si2 0.395303 0.105576 0.665836
Si Si3 0.146114 0.898625 0.200478
Si Si4 0.106841 0.783238 0.549490
Si Si5 0.892490 0.598853 0.412004
Si Si6 0.642521 0.104800 0.813986
Si Si7 0.756239 0.601344 0.243259
O O1 0.874917 0.674059 0.125230
O O2 0.898951 0.827127 0.167155
O O3 0.833309 0.829428 0.084165
O O4 0.000000 0.791836 0.098583
O O5 0.500000 0.121159 0.649935
O O6 0.367707 0.177402 0.703649
O O7 0.382481 0.000000 0.682570
O O8 0.112572 0.887429 0.250000
O O9 0.253853 0.886094 0.200706
O O10 0.118873 0.000000 0.183887
O O11 0.125797 0.817829 0.500000
O O12 0.133805 0.675755 0.552231
O O13 0.000000 0.798356 0.562336
O O14 0.846894 0.500000 0.423841
O O15 0.861339 0.631946 0.363938
O O16 0.000000 0.586021 0.411644
O O17 0.587613 0.177780 0.785145
O O18 0.606184 0.000000 0.807673
O O19 0.675229 0.675229 0.250000
O O20 0.713185 0.500000 0.234174
#
# Coordination Sequence:
#
# PCOD8315746 Si02
#       7
#    16  16  16  16  16  16  16
#     4  11  21  34  53  74 101 138 174 210 253 300
#     4   9  19  36  56  77  99 127 170 222 270 310
#     4  11  21  31  45  70 106 142 175 209 245 291
#     4  10  21  36  52  74 106 141 174 207 246 301
#     4   9  17  30  49  73  99 129 166 208 254 298
#     4  10  18  30  49  72  99 129 165 211 256 295
#     4  11  22  33  48  71 101 138 174 207 246 298
#
# _framework density 17.318722999999999
#
# number of rings (size 3 to 8) (size 9 to 14) (size 15 to 20)
#    0.000    1.857    1.429    3.857    0.000    6.286 
#    0.000    2.143    0.000    0.429    0.000    2.000 
#    0.000    0.000    0.000    1.286    0.000    0.143 
#
# Total GULP energy -1388039.966690 kJ/mol
# GULP energy per Si atom -12393.213988 kJ/mol
# Density = 1.727930 g / cm^3
# Si number density = 17.318723 Si / 1000 Ang^3
#
#
#
# Elastic Constant Matrix: (Units=GPa)
#
#
# Indices 1 2 3 4 5 6 
#
# 1 94.1456 47.6627 35.4025 0.0000 0.0000 0.0000
# 2 47.6627 94.1445 35.4015 0.0000 0.0000 0.0000
# 3 35.4025 35.4015 74.1381 0.0000 0.0000 0.0000
# 4 0.0000 0.0000 0.0000 12.1272 0.0000 0.0000
# 5 0.0000 0.0000 0.0000 0.0000 12.1239 0.0000
# 6 0.0000 0.0000 0.0000 0.0000 0.0000 20.3795
#
#
#
# Elastic Compliance Matrix: (Units=1/GPa)
#
#
# Indices 1 2 3 4 5 6 
#
# 1 0.015386 -0.006127 -0.004422 0.000000 0.000000 0.000000
# 2 -0.006127 0.015387 -0.004421 0.000000 0.000000 0.000000
# 3 -0.004422 -0.004421 0.017711 0.000000 0.000000 0.000000
# 4 0.000000 0.000000 0.000000 0.082459 0.000000 0.000000
# 5 0.000000 0.000000 0.000000 0.000000 0.082482 0.000000
# 6 0.000000 0.000000 0.000000 0.000000 0.000000 0.049069
#
#
# Mechanical properties :
#
#
# Convention : Reuss Voigt Hill
#
# Bulk Modulus (GPa) = 53.92628 55.48463 54.70545
# Shear Modulus (GPa) = 16.74395 18.52355 17.63375
#
# Velocity S-wave (km/s) = 3.11273 3.27397 3.19437
# Velocity P-wave (km/s) = 6.64259 6.81166 6.72766
#
# Compressibility (1/GPa) = 0.01854384
#
# Stress axis : x y z
#
# Youngs Moduli (GPa) = 64.99212 64.99197 56.46198
#
# Poissons Ratio (x) = 0.39821 0.24966
# Poissons Ratio (y) = 0.39821 0.24964
# Poissons Ratio (z) = 0.28737 0.28735
#
# Static dielectric constant tensor:
#      x y z
#    x 3.335020 0.000000 0.000000 
#    y 0.000000 3.335020 0.000000 
#    z 0.000000 0.000000 3.004360 
# 
# 
# High freq. dielectric constant tensor:
#      x y z
#    x 1.662220 0.000000 0.000000 
#    y 0.000000 1.662220 0.000000 
#    z 0.000000 0.000000 1.644320 
# 
# From -- ./inp_files/12481.got.cif
#   From: 2010.03.12/outbox.cif.g09.slc.cpg/sg131_7_cif.got.tgz:12481.got - 2010.04.06 17:36:35.
