data_PCOD8315006
_publ_section_title
;
Structure prediction by ZEFSAII (Michael W. Deem and Ramdas Pophale) SiO2 
 PCOD8315006
Probable space group: P 4/N M M
;
_chemical_formula_sum "Si O2"
_cell_formula_units_Z 104
_cell_length_a 14.026445
_cell_length_b 14.026445
_cell_length_c 33.242297
_cell_angle_alpha 90.000000
_cell_angle_beta 90.000000
_cell_angle_gamma 90.000000
_cell_volume 6540.128051
_symmetry_space_group_name_H-M "P 4/N M M"
_symmetry_group_IT_number 129
_symmetry_cell_setting 'tetragonal'
loop_
_space_group_symop_operation_xyz
x,y,z
1/2-y,x,z
1/2-x,1/2-y,z
y,1/2-x,z
1/2+x,-y,-z
-x,1/2+y,-z
1/2+y,1/2+x,-z
-y,-x,-z
-x,-y,-z
1/2+y,-x,-z
1/2+x,1/2+y,-z
-y,1/2+x,-z
1/2-x,y,z
x,1/2-y,z
1/2-y,1/2-x,z
y,x,z
loop_
_atom_site_type_symbol
_atom_site_label
_atom_site_fract_x
_atom_site_fract_y
_atom_site_fract_z
Si Si1 0.361409 0.516244 0.229763
Si Si2 0.016388 0.861396 0.076624
Si Si3 0.515353 0.361902 0.617018
Si Si4 0.136726 0.644119 0.544377
Si Si5 0.359751 0.640250 0.000000
Si Si6 0.140718 0.640305 0.693888
Si Si7 0.859803 0.140251 0.153216
O O1 0.250000 0.492123 0.229684
O O2 0.416841 0.416841 0.229477
O O3 0.391010 0.576104 0.268851
O O4 0.390990 0.577489 0.191068
O O5 0.991949 0.750000 0.076673
O O6 0.077117 0.890751 0.037757
O O7 0.077158 0.890935 0.115460
O O8 0.917105 0.917105 0.076607
O O9 0.494372 0.250000 0.613995
O O10 0.414362 0.414362 0.619723
O O11 0.571919 0.401141 0.578110
O O12 0.577512 0.387900 0.655807
O O13 0.106615 0.606615 0.500000
O O14 0.250000 0.650817 0.546655
O O15 0.094175 0.750000 0.552294
O O16 0.250000 0.622993 0.011718
O O17 0.250000 0.623415 0.706522
O O18 0.123626 0.750000 0.682025
O O19 0.750000 0.123128 0.164805
O O20 0.877370 0.250000 0.141572
#
# Coordination Sequence:
#
# PCOD8315006 Si02
#       7
#    16  16  16  16   8  16  16
#     4  10  19  30  45  65  90 117 142 170 206 252
#     4  10  19  30  45  65  90 118 145 175 212 256
#     4  10  19  29  42  61  86 115 143 170 203 247
#     4   8  14  26  44  64  84 105 133 174 219 253
#     4   9  17  30  48  68  87 109 142 184 224 255
#     4   9  17  30  48  67  84 104 136 180 223 253
#     4   9  17  30  48  68  87 109 142 183 221 250
#
# _framework density 15.901828999999999
#
# number of rings (size 3 to 8) (size 9 to 14) (size 15 to 20)
#    0.000    2.692    0.000    3.000    0.000    6.308 
#    0.000    0.000    0.000    0.000    0.000    0.000 
#    0.000   24.923    0.000    0.615    0.000    0.000 
#
# Total GULP energy -1289599.312686 kJ/mol
# GULP energy per Si atom -12399.993391 kJ/mol
# Density = 1.586564 g / cm^3
# Si number density = 15.901829 Si / 1000 Ang^3
#
#
#
# Elastic Constant Matrix: (Units=GPa)
#
#
# Indices 1 2 3 4 5 6 
#
# 1 70.1546 52.0311 59.8696 0.0000 0.0000 0.0000
# 2 52.0311 70.1550 59.8695 0.0000 0.0000 0.0000
# 3 59.8696 59.8695 139.6290 0.0000 0.0000 0.0000
# 4 0.0000 0.0000 0.0000 9.1711 0.0000 0.0000
# 5 0.0000 0.0000 0.0000 0.0000 9.1715 0.0000
# 6 0.0000 0.0000 0.0000 0.0000 0.0000 29.6180
#
#
#
# Elastic Compliance Matrix: (Units=1/GPa)
#
#
# Indices 1 2 3 4 5 6 
#
# 1 0.034646 -0.020531 -0.006052 0.000000 0.000000 0.000000
# 2 -0.020531 0.034646 -0.006052 0.000000 0.000000 0.000000
# 3 -0.006052 -0.006052 0.012352 0.000000 0.000000 0.000000
# 4 0.000000 0.000000 0.000000 0.109038 0.000000 0.000000
# 5 0.000000 0.000000 0.000000 0.000000 0.109034 0.000000
# 6 0.000000 0.000000 0.000000 0.000000 0.000000 0.033763
#
#
# Mechanical properties :
#
#
# Convention : Reuss Voigt Hill
#
# Bulk Modulus (GPa) = 61.07447 69.27544 65.17496
# Shear Modulus (GPa) = 12.36990 16.80334 14.58662
#
# Velocity S-wave (km/s) = 2.79210 3.25421 3.03197
# Velocity P-wave (km/s) = 6.99178 7.60124 7.30287
#
# Compressibility (1/GPa) = 0.01637345
#
# Stress axis : x y z
#
# Youngs Moduli (GPa) = 28.86328 28.86359 80.95836
#
# Poissons Ratio (x) = 0.59258 0.48999
# Poissons Ratio (y) = 0.59258 0.48998
# Poissons Ratio (z) = 0.17469 0.17469
#
# Static dielectric constant tensor:
#      x y z
#    x 2.836810 0.000000 0.000000 
#    y 0.000000 2.836800 0.000000 
#    z 0.000000 0.000000 3.246070 
# 
# 
# High freq. dielectric constant tensor:
#      x y z
#    x 1.594050 0.000000 0.000000 
#    y 0.000000 1.594050 0.000000 
#    z 0.000000 0.000000 1.627900 
# 
# From -- ./inp_files/7896.got.cif
#   From: 2010.03.12/outbox.cif.g09.slc.cpg/sg129_4_cif.got.tgz:7896.got - 2010.04.06 17:19:44.
