data_PCOD8315277
_publ_section_title
;
Structure prediction by ZEFSAII (Michael W. Deem and Ramdas Pophale) SiO2 
 PCOD8315277
Probable space group: P 4/N M M
;
_chemical_formula_sum "Si O2"
_cell_formula_units_Z 112
_cell_length_a 13.777514
_cell_length_b 13.777514
_cell_length_c 35.943645
_cell_angle_alpha 90.000000
_cell_angle_beta 90.000000
_cell_angle_gamma 90.000000
_cell_volume 6822.818813
_symmetry_space_group_name_H-M "P 4/N M M"
_symmetry_group_IT_number 129
_symmetry_cell_setting 'tetragonal'
loop_
_space_group_symop_operation_xyz
x,y,z
1/2-y,x,z
1/2-x,1/2-y,z
y,1/2-x,z
1/2+x,-y,-z
-x,1/2+y,-z
1/2+y,1/2+x,-z
-y,-x,-z
-x,-y,-z
1/2+y,-x,-z
1/2+x,1/2+y,-z
-y,1/2+x,-z
1/2-x,y,z
x,1/2-y,z
1/2-y,1/2-x,z
y,x,z
loop_
_atom_site_type_symbol
_atom_site_label
_atom_site_fract_x
_atom_site_fract_y
_atom_site_fract_z
Si Si1 0.976501 0.363077 0.529127
Si Si2 0.022006 0.864474 0.168564
Si Si3 0.635099 0.357584 0.239810
Si Si4 0.522307 0.363343 0.690427
Si Si5 0.360241 0.517209 0.025763
Si Si6 0.980932 0.361909 0.111422
Si Si7 0.640494 0.014544 0.390044
O O1 0.894577 0.394577 0.500000
O O2 0.001482 0.250000 0.523067
O O3 0.074862 0.425139 0.523036
O O4 0.930704 0.382321 0.570815
O O5 0.001621 0.750000 0.167700
O O6 0.073628 0.899670 0.206440
O O7 0.092977 0.892385 0.134706
O O8 0.919171 0.919171 0.165084
O O9 0.750000 0.349647 0.239001
O O10 0.589544 0.250000 0.235278
O O11 0.599458 0.400925 0.279156
O O12 0.497656 0.250000 0.696735
O O13 0.422432 0.422432 0.694966
O O14 0.570527 0.381749 0.649051
O O15 0.250000 0.491429 0.016325
O O16 0.421287 0.421287 0.016304
O O17 0.394023 0.605978 0.000000
O O18 0.372886 0.548953 0.068468
O O19 0.997310 0.250000 0.122484
O O20 0.080830 0.419171 0.120042
O O21 0.750000 0.981054 0.390065
O O22 0.586076 0.913925 0.389784
#
# Coordination Sequence:
#
# PCOD8315277 Si02
#       7
#    16  16  16  16  16  16  16
#     4   9  17  29  44  62  85 113 145 182 224 268
#     4  10  20  33  49  69  93 121 153 189 230 277
#     4   9  17  29  44  61  83 113 147 180 213 250
#     4   9  16  26  41  62  88 115 142 173 210 256
#     4   9  18  32  49  70  96 124 156 195 236 278
#     4   9  18  32  50  72  96 123 156 194 235 276
#     4   8  14  24  38  57  82 111 141 174 212 255
#
# _framework density 16.415503000000001
#
# number of rings (size 3 to 8) (size 9 to 14) (size 15 to 20)
#    0.000    3.000    0.000    0.857    0.000    2.571 
#    0.000    6.429    0.000    5.143    0.000    4.000 
#    0.000    2.571    0.000    0.000    0.000    2.857 
#
# Total GULP energy -1387743.062171 kJ/mol
# GULP energy per Si atom -12390.563055 kJ/mol
# Density = 1.637814 g / cm^3
# Si number density = 16.415503 Si / 1000 Ang^3
#
#
#
# Elastic Constant Matrix: (Units=GPa)
#
#
# Indices 1 2 3 4 5 6 
#
# 1 79.5590 33.9468 50.1378 0.0000 0.0000 0.0000
# 2 33.9468 79.5561 50.1380 0.0000 0.0000 0.0000
# 3 50.1378 50.1380 113.2114 0.0000 0.0000 0.0000
# 4 0.0000 0.0000 0.0000 24.0650 0.0000 0.0000
# 5 0.0000 0.0000 0.0000 0.0000 24.0651 0.0000
# 6 0.0000 0.0000 0.0000 0.0000 0.0000 11.0413
#
#
#
# Elastic Compliance Matrix: (Units=1/GPa)
#
#
# Indices 1 2 3 4 5 6 
#
# 1 0.018198 -0.003726 -0.006409 0.000000 0.000000 0.000000
# 2 -0.003726 0.018199 -0.006410 0.000000 0.000000 0.000000
# 3 -0.006409 -0.006410 0.014510 0.000000 0.000000 0.000000
# 4 0.000000 0.000000 0.000000 0.041554 0.000000 0.000000
# 5 0.000000 0.000000 0.000000 0.000000 0.041554 0.000000
# 6 0.000000 0.000000 0.000000 0.000000 0.000000 0.090569
#
#
# Mechanical properties :
#
#
# Convention : Reuss Voigt Hill
#
# Bulk Modulus (GPa) = 56.12438 60.08573 58.10506
# Shear Modulus (GPa) = 18.96714 21.04122 20.00418
#
# Velocity S-wave (km/s) = 3.40286 3.58409 3.49465
# Velocity P-wave (km/s) = 7.05006 7.33554 7.19422
#
# Compressibility (1/GPa) = 0.01781757
#
# Stress axis : x y z
#
# Youngs Moduli (GPa) = 54.95038 54.94745 68.91696
#
# Poissons Ratio (x) = 0.20473 0.44171
# Poissons Ratio (y) = 0.20474 0.44174
# Poissons Ratio (z) = 0.35219 0.35220
#
# Static dielectric constant tensor:
#      x y z
#    x 2.934130 0.000000 0.000000 
#    y 0.000000 2.934130 0.000000 
#    z 0.000000 0.000000 3.574880 
# 
# 
# High freq. dielectric constant tensor:
#      x y z
#    x 1.609600 0.000000 0.000000 
#    y 0.000000 1.609600 0.000000 
#    z 0.000000 0.000000 1.653980 
# 
# From -- ./inp_files/7928.got.cif
#   From: 2010.03.12/outbox.cif.g09.slc.cpg/sg129_4_cif.got.tgz:7928.got - 2010.04.06 17:19:44.
