data_PCOD8315791
_publ_section_title
;
Structure prediction by ZEFSAII (Michael W. Deem and Ramdas Pophale) SiO2 
 PCOD8315791
Probable space group: P 42/M M C
;
_chemical_formula_sum "Si O2"
_cell_formula_units_Z 96
_cell_length_a 23.664767
_cell_length_b 23.664767
_cell_length_c 9.490143
_cell_angle_alpha 90.000000
_cell_angle_beta 90.000000
_cell_angle_gamma 90.000000
_cell_volume 5314.681244
_symmetry_space_group_name_H-M "P 42/M M C"
_symmetry_group_IT_number 131
_symmetry_cell_setting 'tetragonal'
loop_
_space_group_symop_operation_xyz
x,y,z
-x,-y,z
-y,x,1/2+z
y,-x,1/2+z
-x,y,-z
x,-y,-z
y,x,1/2-z
-y,-x,1/2-z
-x,-y,-z
x,y,-z
y,-x,1/2-z
-y,x,1/2-z
x,-y,z
-x,y,z
-y,-x,1/2+z
y,x,1/2+z
loop_
_atom_site_type_symbol
_atom_site_label
_atom_site_fract_x
_atom_site_fract_y
_atom_site_fract_z
Si Si1 0.933095 0.355922 0.341397
Si Si2 0.767189 0.066314 0.230642
Si Si3 0.642152 0.567014 0.161983
Si Si4 0.433696 0.142281 0.664326
Si Si5 0.567010 0.251256 0.839417
Si Si6 0.932799 0.170987 0.000000
Si Si7 0.065657 0.857038 0.500000
O O1 0.915499 0.374128 0.500000
O O2 0.907180 0.293301 0.311944
O O3 0.910891 0.400096 0.226151
O O4 0.000000 0.355465 0.326165
O O5 0.790364 0.090831 0.375407
O O6 0.757357 0.000000 0.236044
O O7 0.818096 0.081377 0.129442
O O8 0.588046 0.588046 0.250000
O O9 0.640566 0.500000 0.160602
O O10 0.696513 0.590222 0.247225
O O11 0.642419 0.589469 0.000000
O O12 0.418829 0.151828 0.500000
O O13 0.500000 0.130609 0.682956
O O14 0.413455 0.195626 0.756194
O O15 0.500000 0.254156 0.845828
O O16 0.591344 0.251995 0.000000
O O17 0.910975 0.106567 0.000000
O O18 0.000000 0.164705 0.000000
O O19 0.000000 0.877435 0.500000
#
# Coordination Sequence:
#
# PCOD8315791 Si02
#       7
#    16  16  16  16  16   8   8
#     4  10  20  35  55  77 103 140 181 217 257 309
#     4   9  18  33  51  74 102 137 180 217 254 307
#     4  10  20  33  51  76 106 140 178 221 267 315
#     4  10  21  35  53  81 112 138 167 211 266 316
#     4   9  17  32  54  77 102 136 177 213 252 310
#     4  10  20  31  50  80 107 135 173 219 269 319
#     4  10  18  33  54  74 105 141 173 215 265 317
#
# _framework density 18.063172000000002
#
# number of rings (size 3 to 8) (size 9 to 14) (size 15 to 20)
#    0.000    2.333    0.833    2.000    1.167    5.000 
#    0.000    2.500    0.000    5.000    0.000    0.000 
#    0.000    0.000    0.000    0.000    0.000    0.000 
#
# Total GULP energy -1189789.101305 kJ/mol
# GULP energy per Si atom -12393.636472 kJ/mol
# Density = 1.802206 g / cm^3
# Si number density = 18.063172 Si / 1000 Ang^3
#
#
#
# Elastic Constant Matrix: (Units=GPa)
#
#
# Indices 1 2 3 4 5 6 
#
# 1 54.3304 29.7282 44.6011 0.0000 0.0000 0.0000
# 2 29.7282 54.3304 44.6011 0.0000 0.0000 0.0000
# 3 44.6011 44.6011 174.6145 0.0000 0.0000 0.0000
# 4 0.0000 0.0000 0.0000 34.3486 0.0000 0.0000
# 5 0.0000 0.0000 0.0000 0.0000 34.3486 0.0000
# 6 0.0000 0.0000 0.0000 0.0000 0.0000 7.7388
#
#
#
# Elastic Compliance Matrix: (Units=1/GPa)
#
#
# Indices 1 2 3 4 5 6 
#
# 1 0.028483 -0.012163 -0.004169 0.000000 0.000000 0.000000
# 2 -0.012163 0.028483 -0.004169 0.000000 0.000000 0.000000
# 3 -0.004169 -0.004169 0.007856 0.000000 0.000000 0.000000
# 4 0.000000 0.000000 0.000000 0.029113 0.000000 0.000000
# 5 0.000000 0.000000 0.000000 0.000000 0.029113 0.000000
# 6 0.000000 0.000000 0.000000 0.000000 0.000000 0.129218
#
#
# Mechanical properties :
#
#
# Convention : Reuss Voigt Hill
#
# Bulk Modulus (GPa) = 41.97742 57.90403 49.94072
# Shear Modulus (GPa) = 16.59973 26.24355 21.42164
#
# Velocity S-wave (km/s) = 3.03476 3.81580 3.44747
# Velocity P-wave (km/s) = 5.96401 7.17912 6.59959
#
# Compressibility (1/GPa) = 0.02382233
#
# Stress axis : x y z
#
# Youngs Moduli (GPa) = 35.10814 35.10814 127.28424
#
# Poissons Ratio (x) = 0.42703 0.53060
# Poissons Ratio (y) = 0.42703 0.53060
# Poissons Ratio (z) = 0.14635 0.14635
#
# Static dielectric constant tensor:
#      x y z
#    x 3.144530 0.000000 0.000000 
#    y 0.000000 3.144530 0.000000 
#    z 0.000000 0.000000 3.653450 
# 
# 
# High freq. dielectric constant tensor:
#      x y z
#    x 1.676840 0.000000 0.000000 
#    y 0.000000 1.676840 0.000000 
#    z 0.000000 0.000000 1.724770 
# 
# From -- ./inp_files/2308.got.cif
#   From: 2010.03.12/outbox.cif.g09.slc.cpg/sg131_2_cif.got.tgz:2308.got - 2010.04.06 17:36:35.
