data_PCOD8315985
_publ_section_title
;
Structure prediction by ZEFSAII (Michael W. Deem and Ramdas Pophale) SiO2 
 PCOD8315985
Probable space group: P 42/M M C
;
_chemical_formula_sum "Si O2"
_cell_formula_units_Z 104
_cell_length_a 26.082668
_cell_length_b 26.082668
_cell_length_c 8.797450
_cell_angle_alpha 90.000000
_cell_angle_beta 90.000000
_cell_angle_gamma 90.000000
_cell_volume 5984.954237
_symmetry_space_group_name_H-M "P 42/M M C"
_symmetry_group_IT_number 131
_symmetry_cell_setting 'tetragonal'
loop_
_space_group_symop_operation_xyz
x,y,z
-x,-y,z
-y,x,1/2+z
y,-x,1/2+z
-x,y,-z
x,-y,-z
y,x,1/2-z
-y,-x,1/2-z
-x,-y,-z
x,y,-z
y,-x,1/2-z
-y,x,1/2-z
x,-y,z
-x,y,z
-y,-x,1/2+z
y,x,1/2+z
loop_
_atom_site_type_symbol
_atom_site_label
_atom_site_fract_x
_atom_site_fract_y
_atom_site_fract_z
Si Si1 0.686892 0.146047 0.322803
Si Si2 0.444888 0.764193 0.173402
Si Si3 0.057989 0.250267 0.326144
Si Si4 0.878600 0.584111 0.326343
Si Si5 0.331655 0.253243 0.181978
Si Si6 0.130325 0.944590 0.173345
Si Si7 0.939973 0.500000 0.830062
O O1 0.691484 0.158246 0.500000
O O2 0.727601 0.102770 0.278597
O O3 0.632612 0.121914 0.282703
O O4 0.694575 0.200023 0.234496
O O5 0.500000 0.745254 0.247806
O O6 0.446125 0.825421 0.184922
O O7 0.391098 0.743199 0.244171
O O8 0.445330 0.746161 0.000000
O O9 0.066373 0.267911 0.500000
O O10 0.064746 0.190124 0.309820
O O11 0.000000 0.266496 0.274420
O O12 0.889487 0.600899 0.500000
O O13 0.924086 0.549461 0.265177
O O14 0.301372 0.301372 0.250000
O O15 0.330464 0.254431 0.000000
O O16 0.101746 0.898254 0.250000
O O17 0.115819 0.000000 0.246087
O O18 0.113609 0.945198 0.000000
O O19 0.000000 0.500000 0.844578
O O20 0.915411 0.500000 0.000000
#
# Coordination Sequence:
#
# PCOD8315985 Si02
#       7
#    16  16  16  16  16  16   8
#     4  11  22  35  53  77 104 134 171 215 267 318
#     4   8  14  28  52  77  96 125 170 214 253 301
#     4   9  19  37  56  72  95 129 170 212 254 306
#     4  10  19  34  54  72  94 128 172 214 256 314
#     4  10  20  34  53  77 110 144 177 218 263 316
#     4   9  19  35  54  76 100 125 154 191 236 290
#     4  11  23  35  47  69 101 131 165 219 276 315
#
# _framework density 17.376908
#
# number of rings (size 3 to 8) (size 9 to 14) (size 15 to 20)
#    0.000    2.385    0.769    4.385    0.000    3.231 
#    0.000    3.846    0.000    0.000    0.000    0.000 
#    0.000    0.308    0.000    3.846    0.000    0.000 
#
# Total GULP energy -1288666.816527 kJ/mol
# GULP energy per Si atom -12391.027082 kJ/mol
# Density = 1.733736 g / cm^3
# Si number density = 17.376908 Si / 1000 Ang^3
#
#
#
# Elastic Constant Matrix: (Units=GPa)
#
#
# Indices 1 2 3 4 5 6 
#
# 1 79.1387 55.8517 34.9140 0.0000 0.0000 0.0000
# 2 55.8517 79.1553 34.9091 0.0000 0.0000 0.0000
# 3 34.9140 34.9091 75.3415 0.0000 0.0000 0.0000
# 4 0.0000 0.0000 0.0000 25.6294 0.0000 0.0000
# 5 0.0000 0.0000 0.0000 0.0000 25.6291 0.0000
# 6 0.0000 0.0000 0.0000 0.0000 0.0000 11.7924
#
#
#
# Elastic Compliance Matrix: (Units=1/GPa)
#
#
# Indices 1 2 3 4 5 6 
#
# 1 0.026339 -0.016592 -0.004518 0.000000 0.000000 0.000000
# 2 -0.016592 0.026330 -0.004511 0.000000 0.000000 0.000000
# 3 -0.004518 -0.004511 0.017457 0.000000 0.000000 0.000000
# 4 0.000000 0.000000 0.000000 0.039018 0.000000 0.000000
# 5 0.000000 0.000000 0.000000 0.000000 0.039018 0.000000
# 6 0.000000 0.000000 0.000000 0.000000 0.000000 0.084801
#
#
# Mechanical properties :
#
#
# Convention : Reuss Voigt Hill
#
# Bulk Modulus (GPa) = 52.95544 53.88724 53.42134
# Shear Modulus (GPa) = 17.21173 19.80756 18.50964
#
# Velocity S-wave (km/s) = 3.15063 3.37987 3.26726
# Velocity P-wave (km/s) = 6.61635 6.80511 6.71139
#
# Compressibility (1/GPa) = 0.01888380
#
# Stress axis : x y z
#
# Youngs Moduli (GPa) = 37.96621 37.97895 57.28479
#
# Poissons Ratio (x) = 0.63016 0.25880
# Poissons Ratio (y) = 0.62995 0.25841
# Poissons Ratio (z) = 0.17153 0.17132
#
# Static dielectric constant tensor:
#      x y z
#    x 3.386190 0.000000 0.000000 
#    y 0.000000 3.386290 0.000000 
#    z 0.000000 0.000000 3.193810 
# 
# 
# High freq. dielectric constant tensor:
#      x y z
#    x 1.662380 0.000000 0.000000 
#    y 0.000000 1.662380 0.000000 
#    z 0.000000 0.000000 1.661610 
# 
# From -- ./inp_files/2539.got.cif
#   From: 2010.03.12/outbox.cif.g09.slc.cpg/sg131_2_cif.got.tgz:2539.got - 2010.04.06 17:36:35.
