data_PCOD8315651
_publ_section_title
;
Structure prediction by ZEFSAII (Michael W. Deem and Ramdas Pophale) SiO2 
 PCOD8315651
Probable space group: P 42/M M C
;
_chemical_formula_sum "Si O2"
_cell_formula_units_Z 104
_cell_length_a 22.098443
_cell_length_b 22.098443
_cell_length_c 13.735273
_cell_angle_alpha 90.000000
_cell_angle_beta 90.000000
_cell_angle_gamma 90.000000
_cell_volume 6707.499466
_symmetry_space_group_name_H-M "P 42/M M C"
_symmetry_group_IT_number 131
_symmetry_cell_setting 'tetragonal'
loop_
_space_group_symop_operation_xyz
x,y,z
-x,-y,z
-y,x,1/2+z
y,-x,1/2+z
-x,y,-z
x,-y,-z
y,x,1/2-z
-y,-x,1/2-z
-x,-y,-z
x,y,-z
y,-x,1/2-z
-y,x,1/2-z
x,-y,z
-x,y,z
-y,-x,1/2+z
y,x,1/2+z
loop_
_atom_site_type_symbol
_atom_site_label
_atom_site_fract_x
_atom_site_fract_y
_atom_site_fract_z
Si Si1 0.000000 0.427921 0.756594
Si Si2 0.272322 0.315406 0.889249
Si Si3 0.778477 0.778477 0.250000
Si Si4 0.128752 0.726760 0.388032
Si Si5 0.322416 0.000000 0.886529
Si Si6 0.223309 0.377456 0.393171
Si Si7 0.234585 0.568064 0.804840
Si Si8 0.893167 0.428866 0.893091
O O1 0.942340 0.405120 0.817410
O O2 0.000000 0.500000 0.733230
O O3 0.000000 0.389627 0.658080
O O4 0.223807 0.279171 0.823166
O O5 0.336842 0.283129 0.882656
O O6 0.282265 0.383170 0.846347
O O7 0.248603 0.316893 0.000000
O O8 0.775199 0.840238 0.185990
O O9 0.133607 0.750426 0.500000
O O10 0.059188 0.716463 0.356739
O O11 0.164033 0.663474 0.378630
O O12 0.335474 0.000000 0.000000
O O13 0.221585 0.408284 0.500000
O O14 0.226078 0.429301 0.311787
O O15 0.254443 0.500000 0.833148
O O16 0.172771 0.588175 0.855883
O O17 0.901062 0.500000 0.901180
O O18 0.903385 0.399734 0.000000
#
# Coordination Sequence:
#
# PCOD8315651 Si02
#       8
#     8  16   8  16   8  16  16  16
#     4  10  19  29  44  59  79 120 168 201 226 258
#     4  10  18  29  46  63  83 113 146 185 225 270
#     4  10  16  30  52  68  86 115 157 192 224 272
#     4   9  17  30  49  69  89 120 154 189 230 271
#     4  10  20  32  45  64  96 122 150 196 238 276
#     4   9  17  31  47  63  84 115 153 182 220 274
#     4  11  19  28  42  63  89 113 141 183 234 273
#     4   9  18  30  41  54  77 111 151 190 223 260
#
# _framework density 15.505032999999999
#
# number of rings (size 3 to 8) (size 9 to 14) (size 15 to 20)
#    0.000    2.308    3.077    3.000    0.000    2.308 
#    0.000    0.000    0.000    5.538    0.000    0.000 
#    0.000    5.231    0.000   16.308    0.000    0.000 
#
# Total GULP energy -1289001.904713 kJ/mol
# GULP energy per Si atom -12394.249084 kJ/mol
# Density = 1.546974 g / cm^3
# Si number density = 15.505033 Si / 1000 Ang^3
#
#
#
# Elastic Constant Matrix: (Units=GPa)
#
#
# Indices 1 2 3 4 5 6 
#
# 1 70.4623 25.3536 33.2706 0.0000 0.0000 0.0000
# 2 25.3536 70.4623 33.2706 0.0000 0.0000 0.0000
# 3 33.2706 33.2706 105.0354 0.0000 0.0000 0.0000
# 4 0.0000 0.0000 0.0000 28.3750 0.0000 0.0000
# 5 0.0000 0.0000 0.0000 0.0000 28.3750 0.0000
# 6 0.0000 0.0000 0.0000 0.0000 0.0000 7.5396
#
#
#
# Elastic Compliance Matrix: (Units=1/GPa)
#
#
# Indices 1 2 3 4 5 6 
#
# 1 0.017774 -0.004394 -0.004238 0.000000 0.000000 0.000000
# 2 -0.004394 0.017774 -0.004238 0.000000 0.000000 0.000000
# 3 -0.004238 -0.004238 0.012206 0.000000 0.000000 0.000000
# 4 0.000000 0.000000 0.000000 0.035242 0.000000 0.000000
# 5 0.000000 0.000000 0.000000 0.000000 0.035242 0.000000
# 6 0.000000 0.000000 0.000000 0.000000 0.000000 0.132633
#
#
# Mechanical properties :
#
#
# Convention : Reuss Voigt Hill
#
# Bulk Modulus (GPa) = 45.42821 47.74993 46.58907
# Shear Modulus (GPa) = 17.60869 23.12894 20.36882
#
# Velocity S-wave (km/s) = 3.37364 3.86645 3.62842
# Velocity P-wave (km/s) = 6.67367 7.12712 6.90412
#
# Compressibility (1/GPa) = 0.02201275
#
# Stress axis : x y z
#
# Youngs Moduli (GPa) = 56.26093 56.26093 81.93005
#
# Poissons Ratio (x) = 0.24723 0.34723
# Poissons Ratio (y) = 0.24723 0.34723
# Poissons Ratio (z) = 0.23844 0.23844
#
# Static dielectric constant tensor:
#      x y z
#    x 2.798500 0.000000 0.000000 
#    y 0.000000 2.798500 0.000000 
#    z 0.000000 0.000000 3.338050 
# 
# 
# High freq. dielectric constant tensor:
#      x y z
#    x 1.560570 0.000000 0.000000 
#    y 0.000000 1.560570 0.000000 
#    z 0.000000 0.000000 1.619930 
# 
# From -- ./inp_files/6305.got.cif
#   From: 2010.03.12/outbox.cif.g09.slc.cpg/sg131_4_cif.got.tgz:6305.got - 2010.04.06 17:36:35.
