data_PCOD8315209
_publ_section_title
;
Structure prediction by ZEFSAII (Michael W. Deem and Ramdas Pophale) SiO2 
 PCOD8315209
Probable space group: P 4/N M M
;
_chemical_formula_sum "Si O2"
_cell_formula_units_Z 128
_cell_length_a 23.827167
_cell_length_b 23.827167
_cell_length_c 12.682931
_cell_angle_alpha 90.000000
_cell_angle_beta 90.000000
_cell_angle_gamma 90.000000
_cell_volume 7200.529718
_symmetry_space_group_name_H-M "P 4/N M M"
_symmetry_group_IT_number 129
_symmetry_cell_setting 'tetragonal'
loop_
_space_group_symop_operation_xyz
x,y,z
1/2-y,x,z
1/2-x,1/2-y,z
y,1/2-x,z
1/2+x,-y,-z
-x,1/2+y,-z
1/2+y,1/2+x,-z
-y,-x,-z
-x,-y,-z
1/2+y,-x,-z
1/2+x,1/2+y,-z
-y,1/2+x,-z
1/2-x,y,z
x,1/2-y,z
1/2-y,1/2-x,z
y,x,z
loop_
_atom_site_type_symbol
_atom_site_label
_atom_site_fract_x
_atom_site_fract_y
_atom_site_fract_z
Si Si1 0.186361 0.620011 0.415388
Si Si2 0.494597 0.184844 0.354871
Si Si3 0.390411 0.482740 0.164651
Si Si4 0.813258 0.315594 0.797776
Si Si5 0.882428 0.529234 0.076262
Si Si6 0.591393 0.394923 0.879696
Si Si7 0.685612 0.593256 0.467566
Si Si8 0.899578 0.813104 0.232975
O O1 0.141901 0.641901 0.500000
O O2 0.250000 0.617339 0.461205
O O3 0.166630 0.558893 0.376402
O O4 0.184119 0.664864 0.321886
O O5 0.492615 0.250000 0.326961
O O6 0.466331 0.154141 0.254603
O O7 0.458795 0.169649 0.458110
O O8 0.447224 0.447224 0.180630
O O9 0.400473 0.548687 0.187125
O O10 0.365059 0.473749 0.047369
O O11 0.750000 0.327018 0.842829
O O12 0.827814 0.250000 0.804840
O O13 0.859902 0.349266 0.863371
O O14 0.946582 0.553419 0.083976
O O15 0.872867 0.471435 0.140999
O O16 0.841512 0.570496 0.135379
O O17 0.587771 0.412230 0.000000
O O18 0.750000 0.612659 0.485814
O O19 0.645729 0.645729 0.494210
O O20 0.678013 0.570823 0.347267
O O21 0.894435 0.750000 0.199281
O O22 0.836988 0.836988 0.244474
#
# Coordination Sequence:
#
# PCOD8315209 Si02
#       8
#    16  16  16  16  16  16  16  16
#     4  10  20  35  54  75 101 134 174 217 262 314
#     4  10  20  34  53  78 108 140 174 221 270 315
#     4  10  19  34  56  78 104 140 179 217 263 319
#     4  10  21  36  52  73 103 136 172 216 265 316
#     4   9  19  34  53  78 106 137 174 220 266 311
#     4  10  20  34  53  75 100 132 172 215 260 311
#     4   9  18  33  53  77 107 142 177 218 268 319
#     4   9  18  33  52  76 107 139 174 216 261 314
#
# _framework density 17.77647
#
# number of rings (size 3 to 8) (size 9 to 14) (size 15 to 20)
#    0.000    2.375    1.250    1.125    0.000    4.875 
#    0.000    5.625    0.000    0.750    0.000    0.000 
#    0.000    3.000    0.000    0.000    0.000    0.000 
#
# Total GULP energy -1586293.578074 kJ/mol
# GULP energy per Si atom -12392.918579 kJ/mol
# Density = 1.773601 g / cm^3
# Si number density = 17.776470 Si / 1000 Ang^3
#
#
#
# Elastic Constant Matrix: (Units=GPa)
#
#
# Indices 1 2 3 4 5 6 
#
# 1 99.5485 49.7024 41.3751 0.0000 0.0000 0.0000
# 2 49.7024 99.5474 41.3744 0.0000 0.0000 0.0000
# 3 41.3751 41.3744 79.5504 0.0000 0.0000 0.0000
# 4 0.0000 0.0000 0.0000 28.5650 0.0000 0.0000
# 5 0.0000 0.0000 0.0000 0.0000 28.5650 0.0000
# 6 0.0000 0.0000 0.0000 0.0000 0.0000 24.4350
#
#
#
# Elastic Compliance Matrix: (Units=1/GPa)
#
#
# Indices 1 2 3 4 5 6 
#
# 1 0.014739 -0.005323 -0.004897 0.000000 0.000000 0.000000
# 2 -0.005323 0.014739 -0.004897 0.000000 0.000000 0.000000
# 3 -0.004897 -0.004897 0.017664 0.000000 0.000000 0.000000
# 4 0.000000 0.000000 0.000000 0.035008 0.000000 0.000000
# 5 0.000000 0.000000 0.000000 0.000000 0.035008 0.000000
# 6 0.000000 0.000000 0.000000 0.000000 0.000000 0.040925
#
#
# Mechanical properties :
#
#
# Convention : Reuss Voigt Hill
#
# Bulk Modulus (GPa) = 59.14638 60.39447 59.77042
# Shear Modulus (GPa) = 25.77952 26.05929 25.91941
#
# Velocity S-wave (km/s) = 3.81229 3.83292 3.82262
# Velocity P-wave (km/s) = 7.26103 7.32369 7.29243
#
# Compressibility (1/GPa) = 0.01690721
#
# Stress axis : x y z
#
# Youngs Moduli (GPa) = 67.84929 67.84905 56.61085
#
# Poissons Ratio (x) = 0.36119 0.27722
# Poissons Ratio (y) = 0.36119 0.27721
# Poissons Ratio (z) = 0.33226 0.33224
#
# Static dielectric constant tensor:
#      x y z
#    x 3.335820 0.000000 0.000000 
#    y 0.000000 3.335820 0.000000 
#    z 0.000000 0.000000 3.245790 
# 
# 
# High freq. dielectric constant tensor:
#      x y z
#    x 1.685060 0.000000 0.000000 
#    y 0.000000 1.685060 0.000000 
#    z 0.000000 0.000000 1.686240 
# 
# From -- ./inp_files/4211.got.cif
#   From: 2010.03.12/outbox.cif.g09.slc.cpg/sg129_3_cif.got.tgz:4211.got - 2010.04.06 17:19:44.
