data_PCOD8315046
_publ_section_title
;
Structure prediction by ZEFSAII (Michael W. Deem and Ramdas Pophale) SiO2 
 PCOD8315046
Probable space group: P 4/N M M
;
_chemical_formula_sum "Si O2"
_cell_formula_units_Z 88
_cell_length_a 14.380075
_cell_length_b 14.380075
_cell_length_c 27.898589
_cell_angle_alpha 90.000000
_cell_angle_beta 90.000000
_cell_angle_gamma 90.000000
_cell_volume 5769.053165
_symmetry_space_group_name_H-M "P 4/N M M"
_symmetry_group_IT_number 129
_symmetry_cell_setting 'tetragonal'
loop_
_space_group_symop_operation_xyz
x,y,z
1/2-y,x,z
1/2-x,1/2-y,z
y,1/2-x,z
1/2+x,-y,-z
-x,1/2+y,-z
1/2+y,1/2+x,-z
-y,-x,-z
-x,-y,-z
1/2+y,-x,-z
1/2+x,1/2+y,-z
-y,1/2+x,-z
1/2-x,y,z
x,1/2-y,z
1/2-y,1/2-x,z
y,x,z
loop_
_atom_site_type_symbol
_atom_site_label
_atom_site_fract_x
_atom_site_fract_y
_atom_site_fract_z
Si Si1 0.143842 0.857621 0.176628
Si Si2 0.352854 0.860737 0.552693
Si Si3 0.012883 0.858682 0.089230
Si Si4 0.005909 0.642893 0.631253
Si Si5 0.356276 0.643725 0.000000
Si Si6 0.143947 0.993186 0.260657
O O1 0.250000 0.879520 0.160933
O O2 0.131597 0.750000 0.188537
O O3 0.074893 0.888690 0.134534
O O4 0.115659 0.911014 0.224873
O O5 0.390508 0.890508 0.500000
O O6 0.250000 0.902399 0.561579
O O7 0.347668 0.750000 0.554763
O O8 0.419242 0.899777 0.594361
O O9 0.985204 0.750000 0.091524
O O10 0.918703 0.918703 0.088012
O O11 0.074526 0.880557 0.042864
O O12 0.986277 0.750000 0.619840
O O13 0.908507 0.591493 0.624099
O O14 0.043964 0.628205 0.685244
O O15 0.250000 0.629695 0.017538
O O16 0.250000 0.024341 0.253092
O O17 0.083200 0.083200 0.249130
#
# Coordination Sequence:
#
# PCOD8315046 Si02
#       6
#    16  16  16  16   8  16
#     4   9  17  29  45  64  83 104 133 169 208 243
#     4   8  14  25  40  57  77 100 127 162 202 239
#     4  10  19  30  45  64  87 114 140 167 200 239
#     4   9  17  27  39  57  80 106 134 161 192 233
#     4   9  17  30  48  68  87 107 136 174 210 241
#     4   9  17  28  41  58  81 107 134 164 196 234
#
# _framework density 15.253802
#
# number of rings (size 3 to 8) (size 9 to 14) (size 15 to 20)
#    0.000    3.000    0.000    1.909    0.000    3.818 
#    0.000    5.455    0.000    0.000    0.000    0.000 
#    0.000   13.455    0.000    4.000    0.000    6.909 
#
# Total GULP energy -1090913.246950 kJ/mol
# GULP energy per Si atom -12396.741443 kJ/mol
# Density = 1.521908 g / cm^3
# Si number density = 15.253802 Si / 1000 Ang^3
#
#
#
# Elastic Constant Matrix: (Units=GPa)
#
#
# Indices 1 2 3 4 5 6 
#
# 1 70.3609 47.7283 59.6668 0.0000 0.0000 0.0000
# 2 47.7283 70.3614 59.6667 0.0000 0.0000 0.0000
# 3 59.6668 59.6667 120.0870 0.0000 0.0000 0.0000
# 4 0.0000 0.0000 0.0000 21.8663 0.0000 0.0000
# 5 0.0000 0.0000 0.0000 0.0000 21.8663 0.0000
# 6 0.0000 0.0000 0.0000 0.0000 0.0000 23.3049
#
#
#
# Elastic Compliance Matrix: (Units=1/GPa)
#
#
# Indices 1 2 3 4 5 6 
#
# 1 0.030596 -0.013588 -0.008451 0.000000 0.000000 0.000000
# 2 -0.013588 0.030595 -0.008450 0.000000 0.000000 0.000000
# 3 -0.008451 -0.008450 0.016725 0.000000 0.000000 0.000000
# 4 0.000000 0.000000 0.000000 0.045732 0.000000 0.000000
# 5 0.000000 0.000000 0.000000 0.000000 0.045732 0.000000
# 6 0.000000 0.000000 0.000000 0.000000 0.000000 0.042909
#
#
# Mechanical properties :
#
#
# Convention : Reuss Voigt Hill
#
# Bulk Modulus (GPa) = 59.03823 66.10366 62.57095
# Shear Modulus (GPa) = 17.92668 19.65735 18.79202
#
# Velocity S-wave (km/s) = 3.43188 3.59372 3.51373
# Velocity P-wave (km/s) = 7.38185 7.78779 7.58754
#
# Compressibility (1/GPa) = 0.01693818
#
# Stress axis : x y z
#
# Youngs Moduli (GPa) = 32.68420 32.68475 59.79160
#
# Poissons Ratio (x) = 0.44412 0.50528
# Poissons Ratio (y) = 0.44411 0.50526
# Poissons Ratio (z) = 0.27620 0.27620
#
# Static dielectric constant tensor:
#      x y z
#    x 2.830250 0.000000 0.000000 
#    y 0.000000 2.830240 0.000000 
#    z 0.000000 0.000000 3.145300 
# 
# 
# High freq. dielectric constant tensor:
#      x y z
#    x 1.568010 0.000000 0.000000 
#    y 0.000000 1.568010 0.000000 
#    z 0.000000 0.000000 1.596750 
# 
# From -- ./inp_files/6955.got.cif
#   From: 2010.03.12/outbox.cif.g09.slc.cpg/sg129_4_cif.got.tgz:6955.got - 2010.04.06 17:19:44.
