data_PCOD8315296
_publ_section_title
;
Structure prediction by ZEFSAII (Michael W. Deem and Ramdas Pophale) SiO2 
 PCOD8315296
Probable space group: P 4/N M M
;
_chemical_formula_sum "Si O2"
_cell_formula_units_Z 96
_cell_length_a 13.845485
_cell_length_b 13.845485
_cell_length_c 30.634336
_cell_angle_alpha 90.000000
_cell_angle_beta 90.000000
_cell_angle_gamma 90.000000
_cell_volume 5872.524243
_symmetry_space_group_name_H-M "P 4/N M M"
_symmetry_group_IT_number 129
_symmetry_cell_setting 'tetragonal'
loop_
_space_group_symop_operation_xyz
x,y,z
1/2-y,x,z
1/2-x,1/2-y,z
y,1/2-x,z
1/2+x,-y,-z
-x,1/2+y,-z
1/2+y,1/2+x,-z
-y,-x,-z
-x,-y,-z
1/2+y,-x,-z
1/2+x,1/2+y,-z
-y,1/2+x,-z
1/2-x,y,z
x,1/2-y,z
1/2-y,1/2-x,z
y,x,z
loop_
_atom_site_type_symbol
_atom_site_label
_atom_site_fract_x
_atom_site_fract_y
_atom_site_fract_z
Si Si1 0.638989 0.016232 0.322792
Si Si2 0.635431 0.021864 0.843514
Si Si3 0.361701 0.638300 0.500000
Si Si4 0.136645 0.521805 0.914041
Si Si5 0.637290 0.358976 0.758960
Si Si6 0.638491 0.484289 0.419608
Si Si7 0.859470 0.140531 0.000000
O O1 0.750000 0.989397 0.316585
O O2 0.582947 0.917054 0.316096
O O3 0.604433 0.091824 0.286373
O O4 0.620255 0.060586 0.371236
O O5 0.750000 0.004339 0.848337
O O6 0.600278 0.096847 0.880032
O O7 0.607048 0.068663 0.797280
O O8 0.580724 0.919276 0.848197
O O9 0.250000 0.616485 0.493599
O O10 0.402305 0.588071 0.543701
O O11 0.250000 0.502833 0.905287
O O12 0.118567 0.565591 0.961698
O O13 0.079505 0.420496 0.909762
O O14 0.750000 0.361121 0.751310
O O15 0.603268 0.250000 0.770852
O O16 0.750000 0.505632 0.427520
O O17 0.586381 0.586381 0.424243
O O18 0.750000 0.126675 0.982664
#
# Coordination Sequence:
#
# PCOD8315296 Si02
#       7
#    16  16   8  16  16  16   8
#     4   9  17  28  42  61  85 112 141 173 209 250
#     4  10  20  33  50  71  94 121 153 190 232 276
#     4   9  17  28  42  60  81 105 134 170 212 255
#     4  10  20  33  50  72  98 128 161 196 233 274
#     4   9  17  29  46  67  89 114 145 180 217 259
#     4   9  17  28  42  60  82 109 139 171 208 250
#     4   9  17  30  50  74  97 123 158 198 235 273
#
# _framework density 16.347314000000001
#
# number of rings (size 3 to 8) (size 9 to 14) (size 15 to 20)
#    0.000    2.667    0.000    2.000    0.000    3.000 
#    0.000    5.000    0.000    0.000    0.000    4.667 
#    0.000    0.000    0.000   31.000    0.000    0.833 
#
# Total GULP energy -1190082.569145 kJ/mol
# GULP energy per Si atom -12396.693429 kJ/mol
# Density = 1.631011 g / cm^3
# Si number density = 16.347314 Si / 1000 Ang^3
#
#
#
# Elastic Constant Matrix: (Units=GPa)
#
#
# Indices 1 2 3 4 5 6 
#
# 1 72.1500 46.8335 52.0348 0.0000 0.0000 0.0000
# 2 46.8335 72.1513 52.0346 0.0000 0.0000 0.0000
# 3 52.0348 52.0346 115.4778 0.0000 0.0000 0.0000
# 4 0.0000 0.0000 0.0000 26.3729 0.0000 0.0000
# 5 0.0000 0.0000 0.0000 0.0000 26.3729 0.0000
# 6 0.0000 0.0000 0.0000 0.0000 0.0000 21.7714
#
#
#
# Elastic Compliance Matrix: (Units=1/GPa)
#
#
# Indices 1 2 3 4 5 6 
#
# 1 0.026686 -0.012814 -0.006251 0.000000 0.000000 0.000000
# 2 -0.012814 0.026685 -0.006250 0.000000 0.000000 0.000000
# 3 -0.006251 -0.006250 0.014293 0.000000 0.000000 0.000000
# 4 0.000000 0.000000 0.000000 0.037918 0.000000 0.000000
# 5 0.000000 0.000000 0.000000 0.000000 0.037918 0.000000
# 6 0.000000 0.000000 0.000000 0.000000 0.000000 0.045932
#
#
# Mechanical properties :
#
#
# Convention : Reuss Voigt Hill
#
# Bulk Modulus (GPa) = 58.70770 62.39832 60.55301
# Shear Modulus (GPa) = 20.34688 22.16185 21.25436
#
# Velocity S-wave (km/s) = 3.53180 3.68596 3.60971
# Velocity P-wave (km/s) = 7.25412 7.50788 7.38209
#
# Compressibility (1/GPa) = 0.01703354
#
# Stress axis : x y z
#
# Youngs Moduli (GPa) = 37.47331 37.47454 69.96571
#
# Poissons Ratio (x) = 0.48019 0.43734
# Poissons Ratio (y) = 0.48017 0.43731
# Poissons Ratio (z) = 0.23424 0.23423
#
# Static dielectric constant tensor:
#      x y z
#    x 2.989740 0.000000 0.000000 
#    y 0.000000 2.989720 0.000000 
#    z 0.000000 0.000000 3.367940 
# 
# 
# High freq. dielectric constant tensor:
#      x y z
#    x 1.618770 0.000000 0.000000 
#    y 0.000000 1.618770 0.000000 
#    z 0.000000 0.000000 1.644870 
# 
# From -- ./inp_files/7516.got.cif
#   From: 2010.03.12/outbox.cif.g09.slc.cpg/sg129_4_cif.got.tgz:7516.got - 2010.04.06 17:19:44.
