data_PCOD8315576
_publ_section_title
;
Structure prediction by ZEFSAII (Michael W. Deem and Ramdas Pophale) SiO2 
 PCOD8315576
Probable space group: P 4/N C C
;
_chemical_formula_sum "Si O2"
_cell_formula_units_Z 88
_cell_length_a 16.709633
_cell_length_b 16.709633
_cell_length_c 14.344412
_cell_angle_alpha 90.000000
_cell_angle_beta 90.000000
_cell_angle_gamma 90.000000
_cell_volume 4005.129596
_symmetry_space_group_name_H-M "P 4/N C C"
_symmetry_group_IT_number 130
_symmetry_cell_setting 'tetragonal'
loop_
_space_group_symop_operation_xyz
x,y,z
1/2-y,x,z
1/2-x,1/2-y,z
y,1/2-x,z
1/2+x,-y,1/2-z
-x,1/2+y,1/2-z
1/2+y,1/2+x,1/2-z
-y,-x,1/2-z
-x,-y,-z
1/2+y,-x,-z
1/2+x,1/2+y,-z
-y,1/2+x,-z
1/2-x,y,1/2+z
x,1/2-y,1/2+z
1/2-y,1/2-x,1/2+z
y,x,1/2+z
loop_
_atom_site_type_symbol
_atom_site_label
_atom_site_fract_x
_atom_site_fract_y
_atom_site_fract_z
Si Si1 0.143737 0.502766 0.406255
Si Si2 0.757413 0.377184 0.494316
Si Si3 0.472158 0.223856 0.619094
Si Si4 0.985610 0.485610 0.750000
Si Si5 0.438827 0.098881 0.089140
Si Si6 0.878006 0.782253 0.701775
O O1 0.209932 0.571263 0.419343
O O2 0.089008 0.521664 0.318635
O O3 0.087501 0.495905 0.498570
O O4 0.195709 0.420532 0.395526
O O5 0.828480 0.317274 0.464083
O O6 0.734210 0.433416 0.405387
O O7 0.425251 0.305539 0.597488
O O8 0.440373 0.146511 0.562834
O O9 0.450535 0.201753 0.725548
O O10 0.981271 0.564610 0.816170
O O11 0.806930 0.846029 0.713033
#
# Coordination Sequence:
#
# PCOD8315576 Si02
#       6
#    16  16  16   8  16  16
#     4  11  25  43  72 101 136 184 233 293 349 420
#     4  10  24  46  69  93 136 185 238 294 342 412
#     4  11  21  45  67 100 137 181 227 291 349 425
#     4  12  22  46  66  99 142 179 234 294 348 422
#     4  11  25  41  68 101 141 181 232 287 359 418
#     4  11  23  43  69 103 145 181 226 287 353 432
#
# _framework density 21.971823000000001
#
# number of rings (size 3 to 8) (size 9 to 14) (size 15 to 20)
#    0.000    1.091    3.636    1.636    5.091    1.818 
#    6.545    0.000    0.000    0.000    0.000    0.000 
#    0.000    0.000    0.000    0.000    0.000    0.000 
#
# Total GULP energy -1090201.650614 kJ/mol
# GULP energy per Si atom -12388.655121 kJ/mol
# Density = 2.192181 g / cm^3
# Si number density = 21.971823 Si / 1000 Ang^3
#
#
#
# Elastic Constant Matrix: (Units=GPa)
#
#
# Indices 1 2 3 4 5 6 
#
# 1 127.7266 73.5541 49.3605 0.0000 0.0000 0.0000
# 2 73.5541 127.7266 49.3605 0.0000 0.0000 0.0000
# 3 49.3605 49.3605 120.4150 0.0000 0.0000 0.0000
# 4 0.0000 0.0000 0.0000 32.6612 0.0000 0.0000
# 5 0.0000 0.0000 0.0000 0.0000 32.6612 0.0000
# 6 0.0000 0.0000 0.0000 0.0000 0.0000 38.3511
#
#
#
# Elastic Compliance Matrix: (Units=1/GPa)
#
#
# Indices 1 2 3 4 5 6 
#
# 1 0.012339 -0.006121 -0.002549 0.000000 0.000000 0.000000
# 2 -0.006121 0.012339 -0.002549 0.000000 0.000000 0.000000
# 3 -0.002549 -0.002549 0.010394 0.000000 0.000000 0.000000
# 4 0.000000 0.000000 0.000000 0.030617 0.000000 0.000000
# 5 0.000000 0.000000 0.000000 0.000000 0.030617 0.000000
# 6 0.000000 0.000000 0.000000 0.000000 0.000000 0.026075
#
#
# Mechanical properties :
#
#
# Convention : Reuss Voigt Hill
#
# Bulk Modulus (GPa) = 79.14495 80.04646 79.59571
# Shear Modulus (GPa) = 33.55007 34.30757 33.92882
#
# Velocity S-wave (km/s) = 3.91187 3.95579 3.93389
# Velocity P-wave (km/s) = 7.51684 7.57462 7.54579
#
# Compressibility (1/GPa) = 0.01263505
#
# Stress axis : x y z
#
# Youngs Moduli (GPa) = 81.04401 81.04401 96.20540
#
# Poissons Ratio (x) = 0.49604 0.24523
# Poissons Ratio (y) = 0.49604 0.24523
# Poissons Ratio (z) = 0.20659 0.20659
#
# Static dielectric constant tensor:
#      x y z
#    x 4.120680 0.000000 0.000000 
#    y 0.000000 4.120680 0.000000 
#    z 0.000000 0.000000 4.229920 
# 
# 
# High freq. dielectric constant tensor:
#      x y z
#    x 1.871830 0.000000 0.000000 
#    y 0.000000 1.871830 0.000000 
#    z 0.000000 0.000000 1.853540 
# 
# From -- ./inp_files/2363.got.cif
#   From: 2010.03.12/outbox.cif.g09.slc.cpg/sg130_2_cif.got.tgz:2363.got - 2010.04.06 17:30:23.
