data_PCOD8315804
_publ_section_title
;
Structure prediction by ZEFSAII (Michael W. Deem and Ramdas Pophale) SiO2 
 PCOD8315804
Probable space group: P 42/M M C
;
_chemical_formula_sum "Si O2"
_cell_formula_units_Z 96
_cell_length_a 18.648537
_cell_length_b 18.648537
_cell_length_c 20.587620
_cell_angle_alpha 90.000000
_cell_angle_beta 90.000000
_cell_angle_gamma 90.000000
_cell_volume 7159.714037
_symmetry_space_group_name_H-M "P 42/M M C"
_symmetry_group_IT_number 131
_symmetry_cell_setting 'tetragonal'
loop_
_space_group_symop_operation_xyz
x,y,z
-x,-y,z
-y,x,1/2+z
y,-x,1/2+z
-x,y,-z
x,-y,-z
y,x,1/2-z
-y,-x,1/2-z
-x,-y,-z
x,y,-z
y,-x,1/2-z
-y,x,1/2-z
x,-y,z
-x,y,z
-y,-x,1/2+z
y,x,1/2+z
loop_
_atom_site_type_symbol
_atom_site_label
_atom_site_fract_x
_atom_site_fract_y
_atom_site_fract_z
Si Si1 0.417016 0.189761 0.572852
Si Si2 0.577869 0.583783 0.181382
Si Si3 0.799620 0.416413 0.425128
Si Si4 0.338671 0.346303 0.072616
Si Si5 0.584959 0.080027 0.174276
Si Si6 0.415048 0.079588 0.680984
O O1 0.413758 0.156992 0.500000
O O2 0.500000 0.213335 0.587590
O O3 0.359710 0.254062 0.577425
O O4 0.387469 0.132717 0.625010
O O5 0.611989 0.611989 0.250000
O O6 0.568879 0.500000 0.191091
O O7 0.500000 0.619396 0.167914
O O8 0.628016 0.596920 0.120969
O O9 0.822920 0.407213 0.500000
O O10 0.780243 0.500000 0.410861
O O11 0.733320 0.364228 0.407861
O O12 0.864210 0.387777 0.379927
O O13 0.366403 0.363146 0.000000
O O14 0.500000 0.077096 0.171735
O O15 0.609746 0.104640 0.246738
O O16 0.615101 0.000000 0.159121
O O17 0.500000 0.077018 0.678375
O O18 0.384353 0.000000 0.666986
#
# Coordination Sequence:
#
# PCOD8315804 Si02
#       6
#    16  16  16  16  16  16
#     4   9  17  27  38  53  72  94 121 152 184 217
#     4   9  18  30  40  50  64  84 116 158 197 227
#     4   9  17  27  38  53  72  94 121 152 184 217
#     4  10  19  29  39  52  72  96 122 151 183 220
#     4   8  14  25  40  56  72  89 111 142 180 220
#     4   8  14  25  40  56  72  89 111 142 180 220
#
# _framework density 13.408357000000001
#
# number of rings (size 3 to 8) (size 9 to 14) (size 15 to 20)
#    0.000    3.167    0.000    2.500    0.000    4.000 
#    0.000    7.500    0.000    0.000    0.000    0.000 
#    0.000    0.000    0.000    0.000    0.000    0.833 
#
# Total GULP energy -1189331.977165 kJ/mol
# GULP energy per Si atom -12388.874762 kJ/mol
# Density = 1.337784 g / cm^3
# Si number density = 13.408357 Si / 1000 Ang^3
#
#
#
# Elastic Constant Matrix: (Units=GPa)
#
#
# Indices 1 2 3 4 5 6 
#
# 1 48.5257 25.5849 42.1549 0.0000 0.0000 0.0000
# 2 25.5849 48.5257 42.1549 0.0000 0.0000 0.0000
# 3 42.1549 42.1549 101.3846 0.0000 0.0000 0.0000
# 4 0.0000 0.0000 0.0000 17.0501 0.0000 0.0000
# 5 0.0000 0.0000 0.0000 0.0000 17.0501 0.0000
# 6 0.0000 0.0000 0.0000 0.0000 0.0000 7.0120
#
#
#
# Elastic Compliance Matrix: (Units=1/GPa)
#
#
# Indices 1 2 3 4 5 6 
#
# 1 0.034598 -0.008993 -0.010646 0.000000 0.000000 0.000000
# 2 -0.008993 0.034598 -0.010646 0.000000 0.000000 0.000000
# 3 -0.010646 -0.010646 0.018717 0.000000 0.000000 0.000000
# 4 0.000000 0.000000 0.000000 0.058651 0.000000 0.000000
# 5 0.000000 0.000000 0.000000 0.000000 0.058651 0.000000
# 6 0.000000 0.000000 0.000000 0.000000 0.000000 0.142613
#
#
# Mechanical properties :
#
#
# Convention : Reuss Voigt Hill
#
# Bulk Modulus (GPa) = 36.57486 46.46949 41.52217
# Shear Modulus (GPa) = 11.97576 14.12521 13.05048
#
# Velocity S-wave (km/s) = 2.99181 3.24923 3.12318
# Velocity P-wave (km/s) = 6.26670 6.98635 6.63628
#
# Compressibility (1/GPa) = 0.02734119
#
# Stress axis : x y z
#
# Youngs Moduli (GPa) = 28.90375 28.90375 53.42829
#
# Poissons Ratio (x) = 0.25993 0.56881
# Poissons Ratio (y) = 0.25993 0.56881
# Poissons Ratio (z) = 0.30772 0.30772
#
# Static dielectric constant tensor:
#      x y z
#    x 2.512460 0.000000 0.000000 
#    y 0.000000 2.512460 0.000000 
#    z 0.000000 0.000000 2.976760 
# 
# 
# High freq. dielectric constant tensor:
#      x y z
#    x 1.471830 0.000000 0.000000 
#    y 0.000000 1.471830 0.000000 
#    z 0.000000 0.000000 1.532270 
# 
# From -- ./inp_files/6149.got.cif
#   From: 2010.03.12/outbox.cif.g09.slc.cpg/sg131_4_cif.got.tgz:6149.got - 2010.04.06 17:36:35.
