data_PCOD8315637
_publ_section_title
;
Structure prediction by ZEFSAII (Michael W. Deem and Ramdas Pophale) SiO2 
 PCOD8315637
Probable space group: P 42/M M C
;
_chemical_formula_sum "Si O2"
_cell_formula_units_Z 76
_cell_length_a 11.331079
_cell_length_b 11.331079
_cell_length_c 30.072884
_cell_angle_alpha 90.000000
_cell_angle_beta 90.000000
_cell_angle_gamma 90.000000
_cell_volume 3861.158360
_symmetry_space_group_name_H-M "P 42/M M C"
_symmetry_group_IT_number 131
_symmetry_cell_setting 'tetragonal'
loop_
_space_group_symop_operation_xyz
x,y,z
-x,-y,z
-y,x,1/2+z
y,-x,1/2+z
-x,y,-z
x,-y,-z
y,x,1/2-z
-y,-x,1/2-z
-x,-y,-z
x,y,-z
y,-x,1/2-z
-y,x,1/2-z
x,-y,z
-x,y,z
-y,-x,1/2+z
y,x,1/2+z
loop_
_atom_site_type_symbol
_atom_site_label
_atom_site_fract_x
_atom_site_fract_y
_atom_site_fract_z
Si Si1 0.139168 0.631035 0.549056
Si Si2 0.235018 0.639654 0.288718
Si Si3 0.500000 0.130747 0.609354
Si Si4 0.000000 0.273421 0.747325
Si Si5 0.000000 0.139977 0.833435
Si Si6 0.000000 0.500000 0.193315
Si Si7 0.739762 0.228502 0.624332
O O1 0.183232 0.672303 0.500000
O O2 0.189672 0.500000 0.559248
O O3 0.175849 0.721083 0.586895
O O4 0.000000 0.625785 0.549243
O O5 0.327846 0.672155 0.250000
O O6 0.208050 0.500000 0.286903
O O7 0.115960 0.718451 0.283272
O O8 0.285207 0.675835 0.336802
O O9 0.618206 0.201836 0.597849
O O10 0.500000 0.000000 0.586567
O O11 0.500000 0.117328 0.663203
O O12 0.000000 0.384752 0.778572
O O13 0.000000 0.159897 0.779862
O O14 0.888005 0.201565 0.855671
O O15 0.000000 0.000000 0.841784
#
# Coordination Sequence:
#
# PCOD8315637 Si02
#       7
#    16  16   8   8   8   4  16
#     4   9  20  42  70  96 125 159 195 244 313 376
#     4  12  26  38  58  84 119 161 208 254 295 352
#     4  10  20  40  66  80 115 176 210 238 305 371
#     4  12  22  42  58  79 117 169 209 247 304 363
#     4  12  24  38  57  91 126 154 199 256 314 363
#     4  10  14  38  62  68 109 176 213 230 290 362
#     4  12  23  41  63  90 122 160 208 256 299 366
#
# _framework density 19.683212999999999
#
# number of rings (size 3 to 8) (size 9 to 14) (size 15 to 20)
#    0.316    0.632    6.316    1.895    4.421    0.211 
#    1.895    2.632    0.000    3.789    0.000    0.000 
#    0.000    0.000    0.000    0.000    0.000    0.000 
#
# Total GULP energy -942149.274496 kJ/mol
# GULP energy per Si atom -12396.700980 kJ/mol
# Density = 1.963841 g / cm^3
# Si number density = 19.683213 Si / 1000 Ang^3
#
#
#
# Elastic Constant Matrix: (Units=GPa)
#
#
# Indices 1 2 3 4 5 6 
#
# 1 87.3036 29.5945 30.4929 0.0000 0.0000 0.0000
# 2 29.5945 87.3043 30.4929 0.0000 0.0000 0.0000
# 3 30.4929 30.4929 91.8668 0.0000 0.0000 0.0000
# 4 0.0000 0.0000 0.0000 17.7636 0.0000 0.0000
# 5 0.0000 0.0000 0.0000 0.0000 17.7634 0.0000
# 6 0.0000 0.0000 0.0000 0.0000 0.0000 28.8720
#
#
#
# Elastic Compliance Matrix: (Units=1/GPa)
#
#
# Indices 1 2 3 4 5 6 
#
# 1 0.013837 -0.003491 -0.003434 0.000000 0.000000 0.000000
# 2 -0.003491 0.013837 -0.003434 0.000000 0.000000 0.000000
# 3 -0.003434 -0.003434 0.013165 0.000000 0.000000 0.000000
# 4 0.000000 0.000000 0.000000 0.056295 0.000000 0.000000
# 5 0.000000 0.000000 0.000000 0.000000 0.056296 0.000000
# 6 0.000000 0.000000 0.000000 0.000000 0.000000 0.034636
#
#
# Mechanical properties :
#
#
# Convention : Reuss Voigt Hill
#
# Bulk Modulus (GPa) = 49.70017 49.73727 49.71872
# Shear Modulus (GPa) = 23.20285 24.60609 23.90447
#
# Velocity S-wave (km/s) = 3.43711 3.53952 3.48869
# Velocity P-wave (km/s) = 6.40753 6.48290 6.44533
#
# Compressibility (1/GPa) = 0.02012065
#
# Stress axis : x y z
#
# Youngs Moduli (GPa) = 72.26917 72.26981 75.95868
#
# Poissons Ratio (x) = 0.25230 0.26085
# Poissons Ratio (y) = 0.25230 0.26085
# Poissons Ratio (z) = 0.24818 0.24818
#
# Static dielectric constant tensor:
#      x y z
#    x 3.742190 0.000000 0.000000 
#    y 0.000000 3.742180 0.000000 
#    z 0.000000 0.000000 3.434970 
# 
# 
# High freq. dielectric constant tensor:
#      x y z
#    x 1.768470 0.000000 0.000000 
#    y 0.000000 1.768470 0.000000 
#    z 0.000000 0.000000 1.744910 
# 
# From -- ./inp_files/13506.got.cif
#   From: 2010.03.12/outbox.cif.g09.slc.cpg/sg131_7_cif.got.tgz:13506.got - 2010.04.06 17:36:35.
