data_PCOD8315616
_publ_section_title
;
Structure prediction by ZEFSAII (Michael W. Deem and Ramdas Pophale) SiO2 
 PCOD8315616
Probable space group: P 4/N C C
;
_chemical_formula_sum "Si O2"
_cell_formula_units_Z 88
_cell_length_a 17.052882
_cell_length_b 17.052882
_cell_length_c 13.727737
_cell_angle_alpha 90.000000
_cell_angle_beta 90.000000
_cell_angle_gamma 90.000000
_cell_volume 3992.036689
_symmetry_space_group_name_H-M "P 4/N C C"
_symmetry_group_IT_number 130
_symmetry_cell_setting 'tetragonal'
loop_
_space_group_symop_operation_xyz
x,y,z
1/2-y,x,z
1/2-x,1/2-y,z
y,1/2-x,z
1/2+x,-y,1/2-z
-x,1/2+y,1/2-z
1/2+y,1/2+x,1/2-z
-y,-x,1/2-z
-x,-y,-z
1/2+y,-x,-z
1/2+x,1/2+y,-z
-y,1/2+x,-z
1/2-x,y,1/2+z
x,1/2-y,1/2+z
1/2-y,1/2-x,1/2+z
y,x,1/2+z
loop_
_atom_site_type_symbol
_atom_site_label
_atom_site_fract_x
_atom_site_fract_y
_atom_site_fract_z
Si Si1 0.640946 0.202006 0.379419
Si Si2 0.077359 0.922642 0.250000
Si Si3 0.924172 0.648148 0.790626
Si Si4 0.865478 0.194094 0.109835
Si Si5 0.696277 0.957267 0.888850
Si Si6 0.371540 0.296931 0.916160
O O1 0.575564 0.151218 0.324918
O O2 0.635769 0.295712 0.351925
O O3 0.721963 0.159935 0.346430
O O4 0.633824 0.196217 0.494048
O O5 0.992743 0.916799 0.299370
O O6 0.844860 0.604085 0.817670
O O7 0.946874 0.711747 0.871367
O O8 0.913666 0.687848 0.685920
O O9 0.953723 0.169856 0.139479
O O10 0.679203 0.934715 0.001033
O O11 0.294306 0.349952 0.926576
#
# Coordination Sequence:
#
# PCOD8315616 Si02
#       6
#    16   8  16  16  16  16
#     4   9  19  39  68  91 131 171 225 271 339 403
#     4  12  24  45  64 100 140 175 226 294 342 406
#     4  12  26  44  68 102 141 178 232 288 345 420
#     4   9  19  39  66  99 123 175 225 275 331 414
#     4  12  23  45  69 100 141 181 224 288 348 402
#     4  11  23  41  72 103 132 182 236 279 341 415
#
# _framework density 22.043883999999998
#
# number of rings (size 3 to 8) (size 9 to 14) (size 15 to 20)
#    0.000    1.273    5.455    2.182    0.000    1.818 
#    3.273    5.455    0.000    0.000    0.000    0.000 
#    0.000    0.000    0.000    0.000    0.000    0.000 
#
# Total GULP energy -1090842.253270 kJ/mol
# GULP energy per Si atom -12395.934696 kJ/mol
# Density = 2.199371 g / cm^3
# Si number density = 22.043884 Si / 1000 Ang^3
#
#
#
# Elastic Constant Matrix: (Units=GPa)
#
#
# Indices 1 2 3 4 5 6 
#
# 1 90.5520 24.7797 18.5184 0.0000 0.0000 0.0000
# 2 24.7797 90.5513 18.5184 0.0000 0.0000 0.0000
# 3 18.5184 18.5184 68.7472 0.0000 0.0000 0.0000
# 4 0.0000 0.0000 0.0000 22.7096 0.0000 0.0000
# 5 0.0000 0.0000 0.0000 0.0000 22.7111 0.0000
# 6 0.0000 0.0000 0.0000 0.0000 0.0000 23.9537
#
#
#
# Elastic Compliance Matrix: (Units=1/GPa)
#
#
# Indices 1 2 3 4 5 6 
#
# 1 0.012348 -0.002856 -0.002557 0.000000 0.000000 0.000000
# 2 -0.002856 0.012348 -0.002557 0.000000 0.000000 0.000000
# 3 -0.002557 -0.002557 0.015923 0.000000 0.000000 0.000000
# 4 0.000000 0.000000 0.000000 0.044034 0.000000 0.000000
# 5 0.000000 0.000000 0.000000 0.000000 0.044031 0.000000
# 6 0.000000 0.000000 0.000000 0.000000 0.000000 0.041747
#
#
# Mechanical properties :
#
#
# Convention : Reuss Voigt Hill
#
# Bulk Modulus (GPa) = 40.51892 41.49816 41.00854
# Shear Modulus (GPa) = 25.69401 26.41050 26.05225
#
# Velocity S-wave (km/s) = 3.41777 3.46510 3.44151
# Velocity P-wave (km/s) = 5.83059 5.90553 5.86818
#
# Compressibility (1/GPa) = 0.02467983
#
# Stress axis : x y z
#
# Youngs Moduli (GPa) = 80.98581 80.98512 62.80035
#
# Poissons Ratio (x) = 0.23131 0.16057
# Poissons Ratio (y) = 0.23131 0.16057
# Poissons Ratio (z) = 0.20706 0.20706
#
# Static dielectric constant tensor:
#      x y z
#    x 3.966130 0.000000 0.000000 
#    y 0.000000 3.966120 0.000000 
#    z 0.000000 0.000000 3.874290 
# 
# 
# High freq. dielectric constant tensor:
#      x y z
#    x 1.857700 0.000000 0.000000 
#    y 0.000000 1.857690 0.000000 
#    z 0.000000 0.000000 1.874690 
# 
# From -- ./inp_files/2401.got.cif
#   From: 2010.03.12/outbox.cif.g09.slc.cpg/sg130_2_cif.got.tgz:2401.got - 2010.04.06 17:30:23.
