data_PCOD8315613
_publ_section_title
;
Structure prediction by ZEFSAII (Michael W. Deem and Ramdas Pophale) SiO2 
 PCOD8315613
Probable space group: P 4/N C C
;
_chemical_formula_sum "Si O2"
_cell_formula_units_Z 96
_cell_length_a 23.096669
_cell_length_b 23.096669
_cell_length_c 9.824771
_cell_angle_alpha 90.000000
_cell_angle_beta 90.000000
_cell_angle_gamma 90.000000
_cell_volume 5241.084207
_symmetry_space_group_name_H-M "P 4/N C C"
_symmetry_group_IT_number 130
_symmetry_cell_setting 'tetragonal'
loop_
_space_group_symop_operation_xyz
x,y,z
1/2-y,x,z
1/2-x,1/2-y,z
y,1/2-x,z
1/2+x,-y,1/2-z
-x,1/2+y,1/2-z
1/2+y,1/2+x,1/2-z
-y,-x,1/2-z
-x,-y,-z
1/2+y,-x,-z
1/2+x,1/2+y,-z
-y,1/2+x,-z
1/2-x,y,1/2+z
x,1/2-y,1/2+z
1/2-y,1/2-x,1/2+z
y,x,1/2+z
loop_
_atom_site_type_symbol
_atom_site_label
_atom_site_fract_x
_atom_site_fract_y
_atom_site_fract_z
Si Si1 0.463153 0.868834 0.405011
Si Si2 0.629148 0.039280 0.588365
Si Si3 0.630664 0.871103 0.220199
Si Si4 0.247171 0.422064 0.731487
Si Si5 0.250046 0.501159 0.982499
Si Si6 0.921636 0.572838 0.468989
O O1 0.400385 0.897904 0.426815
O O2 0.478976 0.863793 0.245844
O O3 0.460964 0.804965 0.470512
O O4 0.511167 0.908981 0.477230
O O5 0.692454 0.041305 0.519029
O O6 0.586955 0.993046 0.516130
O O7 0.699693 0.872989 0.238514
O O8 0.607759 0.808791 0.260476
O O9 0.601426 0.919879 0.315652
O O10 0.615418 0.884479 0.064528
O O11 0.238968 0.446631 0.580177
O O12 0.239252 0.476018 0.832945
#
# Coordination Sequence:
#
# PCOD8315613 Si02
#       6
#    16  16  16  16  16  16
#     4  11  23  38  61  91 120 153 193 244 304 358
#     4  11  23  38  61  91 120 153 193 244 304 358
#     4  12  22  35  59  82 114 166 206 246 281 343
#     4  12  22  37  58  80 120 161 214 236 290 340
#     4  12  20  40  60  84 116 160 190 246 292 360
#     4  12  19  38  56  87 116 150 198 249 302 344
#
# _framework density 18.316821000000001
#
# number of rings (size 3 to 8) (size 9 to 14) (size 15 to 20)
#    0.000    0.333   10.000    0.500    0.000    0.333 
#    0.000    2.500    0.000    4.500    0.000    2.333 
#    0.000    0.000    0.000    0.000    0.000    0.000 
#
# Total GULP energy -1190758.980102 kJ/mol
# GULP energy per Si atom -12403.739376 kJ/mol
# Density = 1.827513 g / cm^3
# Si number density = 18.316821 Si / 1000 Ang^3
#
#
#
# Elastic Constant Matrix: (Units=GPa)
#
#
# Indices 1 2 3 4 5 6 
#
# 1 96.8786 54.9201 23.1973 0.0000 0.0000 0.0000
# 2 54.9201 96.8786 23.1973 0.0000 0.0000 0.0000
# 3 23.1973 23.1973 59.5570 0.0000 0.0000 0.0000
# 4 0.0000 0.0000 0.0000 25.8733 0.0000 0.0000
# 5 0.0000 0.0000 0.0000 0.0000 25.8733 0.0000
# 6 0.0000 0.0000 0.0000 0.0000 0.0000 34.3864
#
#
#
# Elastic Compliance Matrix: (Units=1/GPa)
#
#
# Indices 1 2 3 4 5 6 
#
# 1 0.015655 -0.008178 -0.002913 0.000000 0.000000 0.000000
# 2 -0.008178 0.015655 -0.002913 0.000000 0.000000 0.000000
# 3 -0.002913 -0.002913 0.019060 0.000000 0.000000 0.000000
# 4 0.000000 0.000000 0.000000 0.038650 0.000000 0.000000
# 5 0.000000 0.000000 0.000000 0.000000 0.038650 0.000000
# 6 0.000000 0.000000 0.000000 0.000000 0.000000 0.029081
#
#
# Mechanical properties :
#
#
# Convention : Reuss Voigt Hill
#
# Bulk Modulus (GPa) = 44.71309 50.66043 47.68676
# Shear Modulus (GPa) = 26.01295 27.35992 26.68644
#
# Velocity S-wave (km/s) = 3.77260 3.86904 3.82112
# Velocity P-wave (km/s) = 6.59095 6.90487 6.74973
#
# Compressibility (1/GPa) = 0.02236481
#
# Stress axis : x y z
#
# Youngs Moduli (GPa) = 63.87547 63.87547 52.46717
#
# Poissons Ratio (x) = 0.52235 0.15282
# Poissons Ratio (y) = 0.52235 0.15282
# Poissons Ratio (z) = 0.18604 0.18604
#
# Static dielectric constant tensor:
#      x y z
#    x 3.299540 0.000000 0.000000 
#    y 0.000000 3.299540 0.000000 
#    z 0.000000 0.000000 3.597550 
# 
# 
# High freq. dielectric constant tensor:
#      x y z
#    x 1.694620 0.000000 0.000000 
#    y 0.000000 1.694620 0.000000 
#    z 0.000000 0.000000 1.724570 
# 
# From -- ./inp_files/909.got.cif
#   From: 2010.03.12/outbox.cif.g09.slc.cpg/sg130_1_cif.got.tgz:909.got - 2010.04.06 17:30:23.
