data_PCOD8315079
_publ_section_title
;
Structure prediction by ZEFSAII (Michael W. Deem and Ramdas Pophale) SiO2 
 PCOD8315079
Probable space group: P 4/N M M
;
_chemical_formula_sum "Si O2"
_cell_formula_units_Z 128
_cell_length_a 17.462137
_cell_length_b 17.462137
_cell_length_c 24.456968
_cell_angle_alpha 90.000000
_cell_angle_beta 90.000000
_cell_angle_gamma 90.000000
_cell_volume 7457.571015
_symmetry_space_group_name_H-M "P 4/N M M"
_symmetry_group_IT_number 129
_symmetry_cell_setting 'tetragonal'
loop_
_space_group_symop_operation_xyz
x,y,z
1/2-y,x,z
1/2-x,1/2-y,z
y,1/2-x,z
1/2+x,-y,-z
-x,1/2+y,-z
1/2+y,1/2+x,-z
-y,-x,-z
-x,-y,-z
1/2+y,-x,-z
1/2+x,1/2+y,-z
-y,1/2+x,-z
1/2-x,y,z
x,1/2-y,z
1/2-y,1/2-x,z
y,x,z
loop_
_atom_site_type_symbol
_atom_site_label
_atom_site_fract_x
_atom_site_fract_y
_atom_site_fract_z
Si Si1 0.332396 0.049900 0.498870
Si Si2 0.078814 0.548427 0.178314
Si Si3 0.465373 0.338997 0.270679
Si Si4 0.163721 0.040540 0.094176
Si Si5 0.960332 0.336628 0.983810
Si Si6 0.666519 0.107363 0.444187
Si Si7 0.012283 0.891325 0.613296
Si Si8 0.032430 0.159164 0.867407
O O1 0.250000 0.089236 0.498691
O O2 0.391103 0.108898 0.524290
O O3 0.335671 0.980330 0.539841
O O4 0.351074 0.028196 0.437145
O O5 0.125317 0.534879 0.234634
O O6 0.136866 0.534679 0.127813
O O7 0.011519 0.488482 0.172384
O O8 0.036229 0.631282 0.173843
O O9 0.450854 0.250000 0.255530
O O10 0.386855 0.386855 0.260687
O O11 0.492253 0.343868 0.333031
O O12 0.250000 0.059934 0.111190
O O13 0.113953 0.113953 0.110967
O O14 0.156298 0.025085 0.029973
O O15 0.928651 0.250000 0.980031
O O16 0.001635 0.360364 0.927843
O O17 0.889950 0.389950 0.000000
O O18 0.654638 0.154638 0.500000
O O19 0.750000 0.130368 0.420209
O O20 0.603328 0.116177 0.396862
O O21 0.978760 0.978760 0.618198
O O22 0.047843 0.250000 0.858568
O O23 0.111736 0.111736 0.857788
#
# Coordination Sequence:
#
# PCOD8315079 Si02
#       8
#    16  16  16  16  16  16  16  16
#     4   9  16  26  42  65  93 124 156 190 231 279
#     4   9  18  33  52  70  93 127 165 198 232 282
#     4  10  20  34  53  75  99 128 162 200 240 282
#     4  10  19  30  47  70  96 127 161 198 239 283
#     4  10  19  31  49  73 101 132 166 202 241 289
#     4   9  17  29  45  65  89 118 155 198 240 283
#     4   9  17  30  47  66  91 125 161 195 234 283
#     4  10  20  34  54  78 102 129 161 200 246 294
#
# _framework density 17.163765999999999
#
# number of rings (size 3 to 8) (size 9 to 14) (size 15 to 20)
#    0.000    2.500    1.250    1.500    0.000    3.250 
#    0.000    0.625    0.000    9.000    0.000    0.000 
#    0.000    0.000    0.000    7.875    0.000    0.000 
#
# Total GULP energy -1586077.349784 kJ/mol
# GULP energy per Si atom -12391.229295 kJ/mol
# Density = 1.712470 g / cm^3
# Si number density = 17.163766 Si / 1000 Ang^3
#
#
#
# Elastic Constant Matrix: (Units=GPa)
#
#
# Indices 1 2 3 4 5 6 
#
# 1 110.6105 42.8725 13.3500 0.0000 0.0000 0.0000
# 2 42.8725 110.6105 13.3500 0.0000 0.0000 0.0000
# 3 13.3500 13.3500 41.0415 0.0000 0.0000 0.0000
# 4 0.0000 0.0000 0.0000 17.1915 0.0000 0.0000
# 5 0.0000 0.0000 0.0000 0.0000 17.1915 0.0000
# 6 0.0000 0.0000 0.0000 0.0000 0.0000 17.6326
#
#
#
# Elastic Compliance Matrix: (Units=1/GPa)
#
#
# Indices 1 2 3 4 5 6 
#
# 1 0.010834 -0.003928 -0.002246 0.000000 0.000000 0.000000
# 2 -0.003928 0.010834 -0.002246 0.000000 0.000000 0.000000
# 3 -0.002246 -0.002246 0.025827 0.000000 0.000000 0.000000
# 4 0.000000 0.000000 0.000000 0.058168 0.000000 0.000000
# 5 0.000000 0.000000 0.000000 0.000000 0.058168 0.000000
# 6 0.000000 0.000000 0.000000 0.000000 0.000000 0.056713
#
#
# Mechanical properties :
#
#
# Convention : Reuss Voigt Hill
#
# Bulk Modulus (GPa) = 32.62260 44.60083 38.61171
# Shear Modulus (GPa) = 20.19335 23.24910 21.72123
#
# Velocity S-wave (km/s) = 3.43375 3.68441 3.56129
# Velocity P-wave (km/s) = 5.89651 6.64392 6.28134
#
# Compressibility (1/GPa) = 0.03065360
#
# Stress axis : x y z
#
# Youngs Moduli (GPa) = 92.29800 92.29800 38.71912
#
# Poissons Ratio (x) = 0.36257 0.08698
# Poissons Ratio (y) = 0.36257 0.08698
# Poissons Ratio (z) = 0.20734 0.20734
#
# Static dielectric constant tensor:
#      x y z
#    x 3.396330 0.000000 0.000000 
#    y 0.000000 3.396330 0.000000 
#    z 0.000000 0.000000 3.080360 
# 
# 
# High freq. dielectric constant tensor:
#      x y z
#    x 1.656800 0.000000 0.000000 
#    y 0.000000 1.656800 0.000000 
#    z 0.000000 0.000000 1.644700 
# 
# From -- ./inp_files/7332.got.cif
#   From: 2010.03.12/outbox.cif.g09.slc.cpg/sg129_4_cif.got.tgz:7332.got - 2010.04.06 17:19:44.
