data_PCOD8315043
_publ_section_title
;
Structure prediction by ZEFSAII (Michael W. Deem and Ramdas Pophale) SiO2 
 PCOD8315043
Probable space group: P 4/N M M
;
_chemical_formula_sum "Si O2"
_cell_formula_units_Z 72
_cell_length_a 15.228895
_cell_length_b 15.228895
_cell_length_c 19.097473
_cell_angle_alpha 90.000000
_cell_angle_beta 90.000000
_cell_angle_gamma 90.000000
_cell_volume 4429.071480
_symmetry_space_group_name_H-M "P 4/N M M"
_symmetry_group_IT_number 129
_symmetry_cell_setting 'tetragonal'
loop_
_space_group_symop_operation_xyz
x,y,z
1/2-y,x,z
1/2-x,1/2-y,z
y,1/2-x,z
1/2+x,-y,-z
-x,1/2+y,-z
1/2+y,1/2+x,-z
-y,-x,-z
-x,-y,-z
1/2+y,-x,-z
1/2+x,1/2+y,-z
-y,1/2+x,-z
1/2-x,y,z
x,1/2-y,z
1/2-y,1/2-x,z
y,x,z
loop_
_atom_site_type_symbol
_atom_site_label
_atom_site_fract_x
_atom_site_fract_y
_atom_site_fract_z
Si Si1 0.515018 0.655722 0.468346
Si Si2 0.350527 0.649474 0.000000
Si Si3 0.151367 0.907411 0.399877
Si Si4 0.351052 0.004431 0.106190
Si Si5 0.651113 0.989791 0.734705
O O1 0.561157 0.750000 0.456632
O O2 0.579242 0.579242 0.441691
O O3 0.424074 0.659037 0.424395
O O4 0.493535 0.643107 0.550519
O O5 0.373043 0.583074 0.062738
O O6 0.250000 0.636059 0.973942
O O7 0.250000 0.866831 0.407522
O O8 0.132729 0.931395 0.319191
O O9 0.250000 0.034715 0.094037
O O10 0.414842 0.085159 0.084295
O O11 0.367342 0.976860 0.186646
O O12 0.750000 0.955829 0.726737
O O13 0.591988 0.908013 0.714464
#
# Coordination Sequence:
#
# PCOD8315043 Si02
#       5
#    16   8  16  16  16
#     4  10  19  30  45  63  85 115 147 180 217 255
#     4   9  17  30  46  62  83 113 148 182 212 243
#     4   9  17  30  47  64  84 111 142 177 218 260
#     4   9  17  28  44  66  90 116 142 170 208 252
#     4   9  16  26  41  62  88 115 141 171 209 255
#
# _framework density 16.256228
#
# number of rings (size 3 to 8) (size 9 to 14) (size 15 to 20)
#    0.000    2.778    0.000    3.000    0.000    1.111 
#    0.000    5.556    0.000    8.000    0.000    0.000 
#    0.000    0.000    0.000   12.000    0.000    0.222 
#
# Total GULP energy -892224.361980 kJ/mol
# GULP energy per Si atom -12392.005027 kJ/mol
# Density = 1.621923 g / cm^3
# Si number density = 16.256228 Si / 1000 Ang^3
#
#
#
# Elastic Constant Matrix: (Units=GPa)
#
#
# Indices 1 2 3 4 5 6 
#
# 1 79.6923 46.3668 39.2860 0.0000 0.0000 0.0000
# 2 46.3668 79.6934 39.2857 0.0000 0.0000 0.0000
# 3 39.2860 39.2857 80.1272 0.0000 0.0000 0.0000
# 4 0.0000 0.0000 0.0000 19.2266 0.0000 0.0000
# 5 0.0000 0.0000 0.0000 0.0000 19.2267 0.0000
# 6 0.0000 0.0000 0.0000 0.0000 0.0000 16.4979
#
#
#
# Elastic Compliance Matrix: (Units=1/GPa)
#
#
# Indices 1 2 3 4 5 6 
#
# 1 0.020715 -0.009291 -0.005601 0.000000 0.000000 0.000000
# 2 -0.009291 0.020715 -0.005601 0.000000 0.000000 0.000000
# 3 -0.005601 -0.005601 0.017972 0.000000 0.000000 0.000000
# 4 0.000000 0.000000 0.000000 0.052011 0.000000 0.000000
# 5 0.000000 0.000000 0.000000 0.000000 0.052011 0.000000
# 6 0.000000 0.000000 0.000000 0.000000 0.000000 0.060614
#
#
# Mechanical properties :
#
#
# Convention : Reuss Voigt Hill
#
# Bulk Modulus (GPa) = 54.30066 54.37666 54.33866
# Shear Modulus (GPa) = 18.43901 18.62855 18.53378
#
# Velocity S-wave (km/s) = 3.37155 3.38884 3.38020
# Velocity P-wave (km/s) = 6.97366 6.98818 6.98092
#
# Compressibility (1/GPa) = 0.01841598
#
# Stress axis : x y z
#
# Youngs Moduli (GPa) = 48.27318 48.27436 55.64077
#
# Poissons Ratio (x) = 0.44854 0.31166
# Poissons Ratio (y) = 0.44852 0.31163
# Poissons Ratio (z) = 0.27039 0.27038
#
# Static dielectric constant tensor:
#      x y z
#    x 2.997950 0.000000 0.000000 
#    y 0.000000 2.997940 0.000000 
#    z 0.000000 0.000000 3.103140 
# 
# 
# High freq. dielectric constant tensor:
#      x y z
#    x 1.615560 0.000000 0.000000 
#    y 0.000000 1.615560 0.000000 
#    z 0.000000 0.000000 1.615010 
# 
# From -- ./inp_files/5519.got.cif
#   From: 2010.03.12/outbox.cif.g09.slc.cpg/sg129_3_cif.got.tgz:5519.got - 2010.04.06 17:19:44.
