data_PCOD8315198
_publ_section_title
;
Structure prediction by ZEFSAII (Michael W. Deem and Ramdas Pophale) SiO2 
 PCOD8315198
Probable space group: P 4/N M M
;
_chemical_formula_sum "Si O2"
_cell_formula_units_Z 128
_cell_length_a 19.634741
_cell_length_b 19.634741
_cell_length_c 20.084039
_cell_angle_alpha 90.000000
_cell_angle_beta 90.000000
_cell_angle_gamma 90.000000
_cell_volume 7742.860055
_symmetry_space_group_name_H-M "P 4/N M M"
_symmetry_group_IT_number 129
_symmetry_cell_setting 'tetragonal'
loop_
_space_group_symop_operation_xyz
x,y,z
1/2-y,x,z
1/2-x,1/2-y,z
y,1/2-x,z
1/2+x,-y,-z
-x,1/2+y,-z
1/2+y,1/2+x,-z
-y,-x,-z
-x,-y,-z
1/2+y,-x,-z
1/2+x,1/2+y,-z
-y,1/2+x,-z
1/2-x,y,z
x,1/2-y,z
1/2-y,1/2-x,z
y,x,z
loop_
_atom_site_type_symbol
_atom_site_label
_atom_site_fract_x
_atom_site_fract_y
_atom_site_fract_z
Si Si1 0.437289 0.173540 0.418287
Si Si2 0.671781 0.561082 0.433708
Si Si3 0.500341 0.890725 0.309576
Si Si4 0.112489 0.497402 0.294995
Si Si5 0.554566 0.172414 0.816459
Si Si6 0.007865 0.897939 0.960469
Si Si7 0.059855 0.170052 0.919671
Si Si8 0.435227 0.670444 0.830378
O O1 0.411181 0.250000 0.412329
O O2 0.371579 0.128422 0.406164
O O3 0.469253 0.160554 0.491835
O O4 0.492334 0.158604 0.361084
O O5 0.750000 0.577696 0.418998
O O6 0.631951 0.631951 0.425610
O O7 0.644957 0.505262 0.381460
O O8 0.484004 0.834719 0.253886
O O9 0.570663 0.929338 0.291544
O O10 0.439297 0.943272 0.312115
O O11 0.072346 0.427655 0.279242
O O12 0.159347 0.513884 0.231545
O O13 0.574425 0.250000 0.829012
O O14 0.501859 0.146150 0.872115
O O15 0.625250 0.131900 0.819520
O O16 0.028532 0.853435 0.897483
O O17 0.074149 0.925852 0.000000
O O18 0.962615 0.962615 0.937150
O O19 0.963489 0.847382 0.005859
O O20 0.076260 0.250000 0.912117
O O21 0.127677 0.127677 0.900853
O O22 0.415316 0.750000 0.835393
#
# Coordination Sequence:
#
# PCOD8315198 Si02
#       8
#    16  16  16  16  16  16  16  16
#     4   9  17  29  44  64  92 123 154 188 228 277
#     4   9  17  28  43  64  91 123 156 191 231 277
#     4   9  17  29  47  69  90 115 153 198 241 282
#     4   9  18  31  48  70  93 119 153 194 241 288
#     4  10  20  33  49  68  94 128 163 196 236 288
#     4  10  19  33  54  76  98 125 160 200 237 282
#     4  10  20  34  53  76 101 130 162 198 241 287
#     4  11  21  33  51  73  98 125 158 201 244 286
#
# _framework density 16.531358000000001
#
# number of rings (size 3 to 8) (size 9 to 14) (size 15 to 20)
#    0.000    2.375    1.250    1.875    0.000    2.125 
#    0.000    3.750    0.000    0.000    0.000    1.750 
#    0.000    9.000    0.000   23.250    0.000    0.500 
#
# Total GULP energy -1586968.218940 kJ/mol
# GULP energy per Si atom -12398.189210 kJ/mol
# Density = 1.649373 g / cm^3
# Si number density = 16.531358 Si / 1000 Ang^3
#
#
#
# Elastic Constant Matrix: (Units=GPa)
#
#
# Indices 1 2 3 4 5 6 
#
# 1 80.6007 32.7039 47.3981 0.0000 0.0000 0.0000
# 2 32.7039 80.6012 47.3981 0.0000 0.0000 0.0000
# 3 47.3981 47.3981 122.9096 0.0000 0.0000 0.0000
# 4 0.0000 0.0000 0.0000 25.9367 0.0000 0.0000
# 5 0.0000 0.0000 0.0000 0.0000 25.9365 0.0000
# 6 0.0000 0.0000 0.0000 0.0000 0.0000 13.9724
#
#
#
# Elastic Compliance Matrix: (Units=1/GPa)
#
#
# Indices 1 2 3 4 5 6 
#
# 1 0.016954 -0.003924 -0.005025 0.000000 0.000000 0.000000
# 2 -0.003924 0.016954 -0.005025 0.000000 0.000000 0.000000
# 3 -0.005025 -0.005025 0.012011 0.000000 0.000000 0.000000
# 4 0.000000 0.000000 0.000000 0.038555 0.000000 0.000000
# 5 0.000000 0.000000 0.000000 0.000000 0.038556 0.000000
# 6 0.000000 0.000000 0.000000 0.000000 0.000000 0.071570
#
#
# Mechanical properties :
#
#
# Convention : Reuss Voigt Hill
#
# Bulk Modulus (GPa) = 55.64206 59.90130 57.77168
# Shear Modulus (GPa) = 21.87821 23.60987 22.74404
#
# Velocity S-wave (km/s) = 3.64185 3.78324 3.71322
# Velocity P-wave (km/s) = 7.17047 7.44295 7.30798
#
# Compressibility (1/GPa) = 0.01797202
#
# Stress axis : x y z
#
# Youngs Moduli (GPa) = 58.98332 58.98378 83.25400
#
# Poissons Ratio (x) = 0.23147 0.41833
# Poissons Ratio (y) = 0.23146 0.41832
# Poissons Ratio (z) = 0.29637 0.29637
#
# Static dielectric constant tensor:
#      x y z
#    x 2.994330 0.000000 0.000000 
#    y 0.000000 2.994330 0.000000 
#    z 0.000000 0.000000 3.337550 
# 
# 
# High freq. dielectric constant tensor:
#      x y z
#    x 1.625100 0.000000 0.000000 
#    y 0.000000 1.625100 0.000000 
#    z 0.000000 0.000000 1.651080 
# 
# From -- ./inp_files/6111.got.cif
#   From: 2010.03.12/outbox.cif.g09.slc.cpg/sg129_4_cif.got.tgz:6111.got - 2010.04.06 17:19:44.
