data_PCOD8315741
_publ_section_title
;
Structure prediction by ZEFSAII (Michael W. Deem and Ramdas Pophale) SiO2 
 PCOD8315741
Probable space group: P 42/M M C
;
_chemical_formula_sum "Si O2"
_cell_formula_units_Z 120
_cell_length_a 14.537880
_cell_length_b 14.537880
_cell_length_c 34.118524
_cell_angle_alpha 90.000000
_cell_angle_beta 90.000000
_cell_angle_gamma 90.000000
_cell_volume 7210.948508
_symmetry_space_group_name_H-M "P 42/M M C"
_symmetry_group_IT_number 131
_symmetry_cell_setting 'tetragonal'
loop_
_space_group_symop_operation_xyz
x,y,z
-x,-y,z
-y,x,1/2+z
y,-x,1/2+z
-x,y,-z
x,-y,-z
y,x,1/2-z
-y,-x,1/2-z
-x,-y,-z
x,y,-z
y,-x,1/2-z
-y,x,1/2-z
x,-y,z
-x,y,z
-y,-x,1/2+z
y,x,1/2+z
loop_
_atom_site_type_symbol
_atom_site_label
_atom_site_fract_x
_atom_site_fract_y
_atom_site_fract_z
Si Si1 0.102496 0.394912 0.389176
Si Si2 0.402453 0.277780 0.273664
Si Si3 0.395623 0.391525 0.500000
Si Si4 0.103953 0.760626 0.672508
Si Si5 0.679439 0.898755 0.745923
Si Si6 0.252951 0.606163 0.137333
Si Si7 0.256357 0.103486 0.659220
Si Si8 0.296537 0.607675 0.578970
O O1 0.108171 0.500000 0.374935
O O2 0.117926 0.334525 0.350614
O O3 0.185568 0.375761 0.420099
O O4 0.000000 0.375184 0.407685
O O5 0.320717 0.320717 0.250000
O O6 0.500000 0.321200 0.261359
O O7 0.404709 0.170292 0.261930
O O8 0.385990 0.294132 0.319288
O O9 0.500000 0.349762 0.500000
O O10 0.404020 0.500000 0.500000
O O11 0.337183 0.358886 0.462493
O O12 0.133765 0.742844 0.717590
O O13 0.164045 0.838785 0.651198
O O14 0.000000 0.796372 0.670344
O O15 0.737793 0.900769 0.706129
O O16 0.638988 0.000000 0.755315
O O17 0.236400 0.500000 0.124938
O O18 0.154853 0.659044 0.137161
O O19 0.329885 0.653144 0.110850
O O20 0.249947 0.000000 0.641854
O O21 0.319438 0.500000 0.586833
#
# Coordination Sequence:
#
# PCOD8315741 Si02
#       8
#    16  16   8  16  16  16  16  16
#     4   9  18  31  48  73 103 132 162 195 236 294
#     4  10  21  33  45  62  90 124 163 205 243 286
#     4   9  18  32  51  79 108 132 162 199 239 289
#     4  10  18  30  47  68  96 127 163 206 249 296
#     4   9  18  31  47  64  87 121 161 208 258 298
#     4  10  20  34  49  68  93 127 167 203 247 296
#     4  10  19  32  47  66  93 125 166 211 255 297
#     4  10  19  33  54  77 104 133 160 197 244 294
#
# _framework density 16.641362999999998
#
# number of rings (size 3 to 8) (size 9 to 14) (size 15 to 20)
#    0.000    2.333    1.333    2.400    0.000    2.800 
#    0.000    5.667    0.000    4.400    0.000    0.467 
#    0.000    1.600    0.000    2.933    0.000    0.133 
#
# Total GULP energy -1486949.552756 kJ/mol
# GULP energy per Si atom -12391.246273 kJ/mol
# Density = 1.660349 g / cm^3
# Si number density = 16.641363 Si / 1000 Ang^3
#
#
#
# Elastic Constant Matrix: (Units=GPa)
#
#
# Indices 1 2 3 4 5 6 
#
# 1 105.5670 57.2009 46.0677 0.0000 0.0000 0.0000
# 2 57.2009 105.5670 46.0677 0.0000 0.0000 0.0000
# 3 46.0677 46.0677 57.0993 0.0000 0.0000 0.0000
# 4 0.0000 0.0000 0.0000 17.5904 0.0000 0.0000
# 5 0.0000 0.0000 0.0000 0.0000 17.5904 0.0000
# 6 0.0000 0.0000 0.0000 0.0000 0.0000 17.2815
#
#
#
# Elastic Compliance Matrix: (Units=1/GPa)
#
#
# Indices 1 2 3 4 5 6 
#
# 1 0.015992 -0.004684 -0.009123 0.000000 0.000000 0.000000
# 2 -0.004684 0.015992 -0.009123 0.000000 0.000000 0.000000
# 3 -0.009123 -0.009123 0.032235 0.000000 0.000000 0.000000
# 4 0.000000 0.000000 0.000000 0.056849 0.000000 0.000000
# 5 0.000000 0.000000 0.000000 0.000000 0.056849 0.000000
# 6 0.000000 0.000000 0.000000 0.000000 0.000000 0.057865
#
#
# Mechanical properties :
#
#
# Convention : Reuss Voigt Hill
#
# Bulk Modulus (GPa) = 54.47358 62.98957 58.73157
# Shear Modulus (GPa) = 17.37547 18.41893 17.89720
#
# Velocity S-wave (km/s) = 3.23478 3.33049 3.28299
# Velocity P-wave (km/s) = 6.83788 7.26106 7.05265
#
# Compressibility (1/GPa) = 0.01835752
#
# Stress axis : x y z
#
# Youngs Moduli (GPa) = 62.53198 62.53198 31.02244
#
# Poissons Ratio (x) = 0.29289 0.28303
# Poissons Ratio (y) = 0.29289 0.28303
# Poissons Ratio (z) = 0.57050 0.57050
#
# Static dielectric constant tensor:
#      x y z
#    x 3.259860 0.000000 0.000000 
#    y 0.000000 3.259860 0.000000 
#    z 0.000000 0.000000 2.911730 
# 
# 
# High freq. dielectric constant tensor:
#      x y z
#    x 1.641870 0.000000 0.000000 
#    y 0.000000 1.641870 0.000000 
#    z 0.000000 0.000000 1.601910 
# 
# From -- ./inp_files/13927.got.cif
#   From: 2010.03.12/outbox.cif.g09.slc.cpg/sg131_7_cif.got.tgz:13927.got - 2010.04.06 17:36:35.
