data_PCOD8315700
_publ_section_title
;
Structure prediction by ZEFSAII (Michael W. Deem and Ramdas Pophale) SiO2 
 PCOD8315700
Probable space group: P 42/M M C
;
_chemical_formula_sum "Si O2"
_cell_formula_units_Z 120
_cell_length_a 17.537851
_cell_length_b 17.537851
_cell_length_c 25.666324
_cell_angle_alpha 90.000000
_cell_angle_beta 90.000000
_cell_angle_gamma 90.000000
_cell_volume 7894.350858
_symmetry_space_group_name_H-M "P 42/M M C"
_symmetry_group_IT_number 131
_symmetry_cell_setting 'tetragonal'
loop_
_space_group_symop_operation_xyz
x,y,z
-x,-y,z
-y,x,1/2+z
y,-x,1/2+z
-x,y,-z
x,-y,-z
y,x,1/2-z
-y,-x,1/2-z
-x,-y,-z
x,y,-z
y,-x,1/2-z
-y,x,1/2-z
x,-y,z
-x,y,z
-y,-x,1/2+z
y,x,1/2+z
loop_
_atom_site_type_symbol
_atom_site_label
_atom_site_fract_x
_atom_site_fract_y
_atom_site_fract_z
Si Si1 0.090284 0.500000 0.557086
Si Si2 0.300586 0.589195 0.778938
Si Si3 0.088946 0.348493 0.614192
Si Si4 0.186201 0.775736 0.562121
Si Si5 0.583328 0.415481 0.938733
Si Si6 0.800083 0.588322 0.683567
Si Si7 0.687424 0.689192 0.377534
Si Si8 0.914957 0.914769 0.438276
O O1 0.127912 0.500000 0.500000
O O2 0.117560 0.425078 0.586299
O O3 0.000000 0.500000 0.552834
O O4 0.373957 0.626044 0.750000
O O5 0.318707 0.500000 0.789087
O O6 0.225864 0.599130 0.743040
O O7 0.278284 0.632821 0.832066
O O8 0.118900 0.281469 0.577778
O O9 0.126013 0.357639 0.672011
O O10 0.000000 0.338633 0.621000
O O11 0.202804 0.771252 0.500000
O O12 0.261692 0.756333 0.596110
O O13 0.152695 0.857976 0.579761
O O14 0.596687 0.500000 0.915563
O O15 0.500000 0.385841 0.919154
O O16 0.653082 0.363118 0.922489
O O17 0.583350 0.418949 0.000000
O O18 0.816932 0.500000 0.671864
O O19 0.735858 0.619146 0.644537
O O20 0.918858 0.912879 0.500000
O O21 0.000000 0.891950 0.417089
O O22 0.894163 0.000000 0.418575
#
# Coordination Sequence:
#
# PCOD8315700 Si02
#       8
#     8  16  16  16  16  16  16  16
#     4   9  16  24  34  52  82 118 151 177 196 223
#     4   9  18  31  46  63  82 105 140 190 242 280
#     4  10  18  27  41  60  86 120 154 182 207 248
#     4  10  19  28  41  64  93 122 150 181 218 268
#     4   9  17  28  41  57  80 113 150 182 210 248
#     4   9  17  29  42  57  78 106 141 181 223 258
#     4  10  18  28  42  60  84 113 141 177 224 272
#     4   8  14  26  44  64  86 113 144 178 217 258
#
# _framework density 15.200742999999999
#
# number of rings (size 3 to 8) (size 9 to 14) (size 15 to 20)
#    0.000    2.733    0.667    2.800    0.000    2.000 
#    0.000    0.000    0.000    0.800    0.000    0.000 
#    0.000    1.600    0.000   49.333    0.000    3.067 
#
# Total GULP energy -1486717.013397 kJ/mol
# GULP energy per Si atom -12389.308445 kJ/mol
# Density = 1.516615 g / cm^3
# Si number density = 15.200743 Si / 1000 Ang^3
#
#
#
# Elastic Constant Matrix: (Units=GPa)
#
#
# Indices 1 2 3 4 5 6 
#
# 1 87.9371 42.2240 38.4252 0.0000 0.0000 0.0000
# 2 42.2240 87.9373 38.4251 0.0000 0.0000 0.0000
# 3 38.4252 38.4251 61.7281 0.0000 0.0000 0.0000
# 4 0.0000 0.0000 0.0000 14.5410 0.0000 0.0000
# 5 0.0000 0.0000 0.0000 0.0000 14.5409 0.0000
# 6 0.0000 0.0000 0.0000 0.0000 0.0000 25.3910
#
#
#
# Elastic Compliance Matrix: (Units=1/GPa)
#
#
# Indices 1 2 3 4 5 6 
#
# 1 0.017011 -0.004864 -0.007562 0.000000 0.000000 0.000000
# 2 -0.004864 0.017011 -0.007562 0.000000 0.000000 0.000000
# 3 -0.007562 -0.007562 0.025614 0.000000 0.000000 0.000000
# 4 0.000000 0.000000 0.000000 0.068771 0.000000 0.000000
# 5 0.000000 0.000000 0.000000 0.000000 0.068771 0.000000
# 6 0.000000 0.000000 0.000000 0.000000 0.000000 0.039384
#
#
# Mechanical properties :
#
#
# Convention : Reuss Voigt Hill
#
# Bulk Modulus (GPa) = 50.85852 52.86125 51.85989
# Shear Modulus (GPa) = 17.66210 18.79647 18.22928
#
# Velocity S-wave (km/s) = 3.41240 3.52028 3.46676
# Velocity P-wave (km/s) = 7.00403 7.16757 7.08627
#
# Compressibility (1/GPa) = 0.01966239
#
# Stress axis : x y z
#
# Youngs Moduli (GPa) = 58.78389 58.78411 39.04096
#
# Poissons Ratio (x) = 0.28593 0.29521
# Poissons Ratio (y) = 0.28593 0.29521
# Poissons Ratio (z) = 0.44450 0.44450
#
# Static dielectric constant tensor:
#      x y z
#    x 3.000120 0.000000 0.000000 
#    y 0.000000 3.000120 0.000000 
#    z 0.000000 0.000000 2.866670 
# 
# 
# High freq. dielectric constant tensor:
#      x y z
#    x 1.573340 0.000000 0.000000 
#    y 0.000000 1.573340 0.000000 
#    z 0.000000 0.000000 1.562990 
# 
# From -- ./inp_files/12560.got.cif
#   From: 2010.03.12/outbox.cif.g09.slc.cpg/sg131_7_cif.got.tgz:12560.got - 2010.04.06 17:36:35.
