data_PCOD8315286
_publ_section_title
;
Structure prediction by ZEFSAII (Michael W. Deem and Ramdas Pophale) SiO2 
 PCOD8315286
Probable space group: P 4/N M M
;
_chemical_formula_sum "Si O2"
_cell_formula_units_Z 88
_cell_length_a 13.309207
_cell_length_b 13.309207
_cell_length_c 27.937702
_cell_angle_alpha 90.000000
_cell_angle_beta 90.000000
_cell_angle_gamma 90.000000
_cell_volume 4948.744591
_symmetry_space_group_name_H-M "P 4/N M M"
_symmetry_group_IT_number 129
_symmetry_cell_setting 'tetragonal'
loop_
_space_group_symop_operation_xyz
x,y,z
1/2-y,x,z
1/2-x,1/2-y,z
y,1/2-x,z
1/2+x,-y,-z
-x,1/2+y,-z
1/2+y,1/2+x,-z
-y,-x,-z
-x,-y,-z
1/2+y,-x,-z
1/2+x,1/2+y,-z
-y,1/2+x,-z
1/2-x,y,z
x,1/2-y,z
1/2-y,1/2-x,z
y,x,z
loop_
_atom_site_type_symbol
_atom_site_label
_atom_site_fract_x
_atom_site_fract_y
_atom_site_fract_z
Si Si1 0.473391 0.865846 0.404066
Si Si2 0.528082 0.133937 0.215966
Si Si3 0.468815 0.632785 0.132485
Si Si4 0.135756 0.527155 0.324947
Si Si5 0.633586 0.133586 0.500000
Si Si6 0.632315 0.032526 0.955652
O O1 0.500310 0.750000 0.407055
O O2 0.396467 0.883491 0.360347
O O3 0.425153 0.905046 0.453447
O O4 0.576481 0.923520 0.394189
O O5 0.511692 0.250000 0.202559
O O6 0.614136 0.084457 0.183427
O O7 0.564373 0.120175 0.270566
O O8 0.421864 0.078137 0.206981
O O9 0.491182 0.750000 0.125905
O O10 0.574966 0.574966 0.128827
O O11 0.392819 0.593576 0.092215
O O12 0.250000 0.497101 0.334513
O O13 0.071945 0.428056 0.336495
O O14 0.612732 0.250000 0.490532
O O15 0.750000 0.007674 0.957386
O O16 0.572990 0.927010 0.957461
O O17 0.602356 0.102356 0.000000
#
# Coordination Sequence:
#
# PCOD8315286 Si02
#       6
#    16  16  16  16   8  16
#     4  10  20  33  49  69  95 127 162 200 239 280
#     4   9  18  32  50  74 102 130 161 197 239 290
#     4  10  21  36  53  74 100 130 167 209 250 294
#     4   9  18  32  50  73 100 128 159 197 241 289
#     4   9  17  30  50  74  95 117 150 192 239 291
#     4  10  21  36  54  78 106 135 169 207 247 294
#
# _framework density 17.782288999999999
#
# number of rings (size 3 to 8) (size 9 to 14) (size 15 to 20)
#    0.000    2.455    0.000    1.909    0.000    5.091 
#    0.000    3.636    0.000    6.545    0.000    7.636 
#    0.000    0.000    0.000    0.000    0.000    0.000 
#
# Total GULP energy -1091361.655691 kJ/mol
# GULP energy per Si atom -12401.836996 kJ/mol
# Density = 1.774182 g / cm^3
# Si number density = 17.782289 Si / 1000 Ang^3
#
#
#
# Elastic Constant Matrix: (Units=GPa)
#
#
# Indices 1 2 3 4 5 6 
#
# 1 105.8673 47.2734 47.9075 0.0000 0.0000 0.0000
# 2 47.2734 105.8673 47.9075 0.0000 0.0000 0.0000
# 3 47.9075 47.9075 108.6435 0.0000 0.0000 0.0000
# 4 0.0000 0.0000 0.0000 25.1429 0.0000 0.0000
# 5 0.0000 0.0000 0.0000 0.0000 25.1429 0.0000
# 6 0.0000 0.0000 0.0000 0.0000 0.0000 13.5836
#
#
#
# Elastic Compliance Matrix: (Units=1/GPa)
#
#
# Indices 1 2 3 4 5 6 
#
# 1 0.013042 -0.004024 -0.003977 0.000000 0.000000 0.000000
# 2 -0.004024 0.013042 -0.003977 0.000000 0.000000 0.000000
# 3 -0.003977 -0.003977 0.012711 0.000000 0.000000 0.000000
# 4 0.000000 0.000000 0.000000 0.039773 0.000000 0.000000
# 5 0.000000 0.000000 0.000000 0.000000 0.039773 0.000000
# 6 0.000000 0.000000 0.000000 0.000000 0.000000 0.073618
#
#
# Mechanical properties :
#
#
# Convention : Reuss Voigt Hill
#
# Bulk Modulus (GPa) = 67.38055 67.39500 67.38778
# Shear Modulus (GPa) = 22.63864 24.59319 23.61592
#
# Velocity S-wave (km/s) = 3.57192 3.72293 3.64821
# Velocity P-wave (km/s) = 7.41524 7.51416 7.46486
#
# Compressibility (1/GPa) = 0.01484108
#
# Stress axis : x y z
#
# Youngs Moduli (GPa) = 76.67374 76.67374 78.66946
#
# Poissons Ratio (x) = 0.30856 0.31283
# Poissons Ratio (y) = 0.30856 0.31283
# Poissons Ratio (z) = 0.30490 0.30490
#
# Static dielectric constant tensor:
#      x y z
#    x 3.138370 0.000000 0.000000 
#    y 0.000000 3.138370 0.000000 
#    z 0.000000 0.000000 3.570630 
# 
# 
# High freq. dielectric constant tensor:
#      x y z
#    x 1.679370 0.000000 0.000000 
#    y 0.000000 1.679370 0.000000 
#    z 0.000000 0.000000 1.706710 
# 
# From -- ./inp_files/7765.got.cif
#   From: 2010.03.12/outbox.cif.g09.slc.cpg/sg129_4_cif.got.tgz:7765.got - 2010.04.06 17:19:44.
