data_PCOD8315236
_publ_section_title
;
Structure prediction by ZEFSAII (Michael W. Deem and Ramdas Pophale) SiO2 
 PCOD8315236
Probable space group: P 4/N M M
;
_chemical_formula_sum "Si O2"
_cell_formula_units_Z 112
_cell_length_a 13.932627
_cell_length_b 13.932627
_cell_length_c 35.284942
_cell_angle_alpha 90.000000
_cell_angle_beta 90.000000
_cell_angle_gamma 90.000000
_cell_volume 6849.445727
_symmetry_space_group_name_H-M "P 4/N M M"
_symmetry_group_IT_number 129
_symmetry_cell_setting 'tetragonal'
loop_
_space_group_symop_operation_xyz
x,y,z
1/2-y,x,z
1/2-x,1/2-y,z
y,1/2-x,z
1/2+x,-y,-z
-x,1/2+y,-z
1/2+y,1/2+x,-z
-y,-x,-z
-x,-y,-z
1/2+y,-x,-z
1/2+x,1/2+y,-z
-y,1/2+x,-z
1/2-x,y,z
x,1/2-y,z
1/2-y,1/2-x,z
y,x,z
loop_
_atom_site_type_symbol
_atom_site_label
_atom_site_fract_x
_atom_site_fract_y
_atom_site_fract_z
Si Si1 0.982718 0.360321 0.164284
Si Si2 0.484897 0.859783 0.112541
Si Si3 0.988680 0.359502 0.249737
Si Si4 0.144303 0.636132 0.684795
Si Si5 0.635373 0.021274 0.469602
Si Si6 0.859657 0.485112 0.025117
Si Si7 0.643633 0.363765 0.601905
O O1 0.006309 0.250000 0.155004
O O2 0.079527 0.420474 0.156703
O O3 0.945751 0.372414 0.207529
O O4 0.897494 0.396147 0.137312
O O5 0.506238 0.750000 0.122987
O O6 0.581062 0.918938 0.122135
O O7 0.455495 0.871662 0.068816
O O8 0.007667 0.250000 0.259900
O O9 0.091459 0.408542 0.252523
O O10 0.918104 0.406817 0.280792
O O11 0.250000 0.590131 0.688575
O O12 0.151709 0.750000 0.688717
O O13 0.098628 0.610720 0.643526
O O14 0.599049 0.099049 0.500000
O O15 0.750000 0.005371 0.473858
O O16 0.606045 0.064937 0.428920
O O17 0.580589 0.919412 0.474674
O O18 0.750000 0.506803 0.014684
O O19 0.918750 0.581251 0.015533
O O20 0.896783 0.396783 0.000000
O O21 0.750000 0.404786 0.591388
O O22 0.651863 0.250000 0.604234
#
# Coordination Sequence:
#
# PCOD8315236 Si02
#       7
#    16  16  16  16  16  16  16
#     4   9  18  31  45  63  88 117 151 189 226 266
#     4   9  18  32  49  69  92 117 146 181 221 265
#     4   9  17  28  42  61  85 114 146 178 214 256
#     4   8  14  25  41  62  87 112 140 177 218 256
#     4  10  20  32  47  68  91 116 148 183 220 263
#     4   9  18  32  49  69  93 120 149 182 219 259
#     4   8  14  26  44  64  86 112 142 178 217 255
#
# _framework density 16.351689
#
# number of rings (size 3 to 8) (size 9 to 14) (size 15 to 20)
#    0.000    3.143    0.000    1.286    0.000    3.571 
#    0.000    5.714    0.000    0.000    0.000    4.000 
#    0.000    3.714    0.000    0.286    0.000    0.143 
#
# Total GULP energy -1388238.043213 kJ/mol
# GULP energy per Si atom -12394.982529 kJ/mol
# Density = 1.631447 g / cm^3
# Si number density = 16.351689 Si / 1000 Ang^3
#
#
#
# Elastic Constant Matrix: (Units=GPa)
#
#
# Indices 1 2 3 4 5 6 
#
# 1 85.0139 39.1120 50.7177 0.0000 0.0000 0.0000
# 2 39.1120 85.0139 50.7177 0.0000 0.0000 0.0000
# 3 50.7177 50.7177 92.8054 0.0000 0.0000 0.0000
# 4 0.0000 0.0000 0.0000 23.6102 0.0000 0.0000
# 5 0.0000 0.0000 0.0000 0.0000 23.6102 0.0000
# 6 0.0000 0.0000 0.0000 0.0000 0.0000 13.6488
#
#
#
# Elastic Compliance Matrix: (Units=1/GPa)
#
#
# Indices 1 2 3 4 5 6 
#
# 1 0.018172 -0.003614 -0.007956 0.000000 0.000000 0.000000
# 2 -0.003614 0.018172 -0.007956 0.000000 0.000000 0.000000
# 3 -0.007956 -0.007956 0.019471 0.000000 0.000000 0.000000
# 4 0.000000 0.000000 0.000000 0.042355 0.000000 0.000000
# 5 0.000000 0.000000 0.000000 0.000000 0.042355 0.000000
# 6 0.000000 0.000000 0.000000 0.000000 0.000000 0.073267
#
#
# Mechanical properties :
#
#
# Convention : Reuss Voigt Hill
#
# Bulk Modulus (GPa) = 59.65407 60.43646 60.04527
# Shear Modulus (GPa) = 19.34770 20.32620 19.83695
#
# Velocity S-wave (km/s) = 3.44353 3.52954 3.48680
# Velocity P-wave (km/s) = 7.23683 7.32467 7.28088
#
# Compressibility (1/GPa) = 0.01676332
#
# Stress axis : x y z
#
# Youngs Moduli (GPa) = 55.03071 55.03071 51.35891
#
# Poissons Ratio (x) = 0.19888 0.40860
# Poissons Ratio (y) = 0.19888 0.40860
# Poissons Ratio (z) = 0.43781 0.43781
#
# Static dielectric constant tensor:
#      x y z
#    x 2.966650 0.000000 0.000000 
#    y 0.000000 2.966650 0.000000 
#    z 0.000000 0.000000 3.389320 
# 
# 
# High freq. dielectric constant tensor:
#      x y z
#    x 1.609650 0.000000 0.000000 
#    y 0.000000 1.609650 0.000000 
#    z 0.000000 0.000000 1.641900 
# 
# From -- ./inp_files/7603.got.cif
#   From: 2010.03.12/outbox.cif.g09.slc.cpg/sg129_4_cif.got.tgz:7603.got - 2010.04.06 17:19:44.
