data_PCOD8315885
_publ_section_title
;
Structure prediction by ZEFSAII (Michael W. Deem and Ramdas Pophale) SiO2 
 PCOD8315885
Probable space group: P 42/M M C
;
_chemical_formula_sum "Si O2"
_cell_formula_units_Z 58
_cell_length_a 12.465362
_cell_length_b 12.465362
_cell_length_c 22.099578
_cell_angle_alpha 90.000000
_cell_angle_beta 90.000000
_cell_angle_gamma 90.000000
_cell_volume 3433.948448
_symmetry_space_group_name_H-M "P 42/M M C"
_symmetry_group_IT_number 131
_symmetry_cell_setting 'tetragonal'
loop_
_space_group_symop_operation_xyz
x,y,z
-x,-y,z
-y,x,1/2+z
y,-x,1/2+z
-x,y,-z
x,-y,-z
y,x,1/2-z
-y,-x,1/2-z
-x,-y,-z
x,y,-z
y,-x,1/2-z
-y,x,1/2-z
x,-y,z
-x,y,z
-y,-x,1/2+z
y,x,1/2+z
loop_
_atom_site_type_symbol
_atom_site_label
_atom_site_fract_x
_atom_site_fract_y
_atom_site_fract_z
Si Si1 0.381738 0.500000 0.367777
Si Si2 0.500000 0.500000 0.250000
Si Si3 0.879040 0.879040 0.250000
Si Si4 0.124550 0.216845 0.125489
Si Si5 0.625972 0.710932 0.429325
Si Si6 0.126457 0.000000 0.069037
O O1 0.500000 0.500000 0.398318
O O2 0.394410 0.500000 0.293913
O O3 0.325723 0.392268 0.393074
O O4 0.859713 0.791527 0.197786
O O5 0.000000 0.866940 0.276626
O O6 0.184495 0.318858 0.098433
O O7 0.174612 0.108169 0.097611
O O8 0.000000 0.230353 0.108128
O O9 0.652830 0.698691 0.500000
O O10 0.500000 0.725657 0.417672
O O11 0.000000 0.000000 0.080516
O O12 0.159725 0.000000 0.000000
#
# Coordination Sequence:
#
# PCOD8315885 Si02
#       6
#     8   2   8  16  16   8
#     4   8  17  34  54  74  98 129 171 211 249 290
#     4   8  16  32  58  80  96 116 176 230 248 284
#     4   9  16  31  52  73 101 132 176 214 251 301
#     4  10  19  31  50  77 103 136 169 208 256 304
#     4  10  20  34  52  76 104 135 169 208 255 306
#     4   9  16  28  46  71 101 131 169 209 241 287
#
# _framework density 16.890177000000001
#
# number of rings (size 3 to 8) (size 9 to 14) (size 15 to 20)
#    0.414    2.207    1.379    1.241    0.000    4.966 
#    0.000    1.379    0.000    0.828    0.000    2.897 
#    0.000    0.000    0.000    0.000    0.000    0.000 
#
# Total GULP energy -718833.968051 kJ/mol
# GULP energy per Si atom -12393.689104 kJ/mol
# Density = 1.685173 g / cm^3
# Si number density = 16.890177 Si / 1000 Ang^3
#
#
#
# Elastic Constant Matrix: (Units=GPa)
#
#
# Indices 1 2 3 4 5 6 
#
# 1 69.6650 43.9269 44.6739 0.0000 0.0000 0.0000
# 2 43.9269 69.6650 44.6739 0.0000 0.0000 0.0000
# 3 44.6739 44.6739 103.2839 0.0000 0.0000 0.0000
# 4 0.0000 0.0000 0.0000 24.0385 0.0000 0.0000
# 5 0.0000 0.0000 0.0000 0.0000 24.0385 0.0000
# 6 0.0000 0.0000 0.0000 0.0000 0.0000 18.8442
#
#
#
# Elastic Compliance Matrix: (Units=1/GPa)
#
#
# Indices 1 2 3 4 5 6 
#
# 1 0.026098 -0.012755 -0.005771 0.000000 0.000000 0.000000
# 2 -0.012755 0.026098 -0.005771 0.000000 0.000000 0.000000
# 3 -0.005771 -0.005771 0.014675 0.000000 0.000000 0.000000
# 4 0.000000 0.000000 0.000000 0.041600 0.000000 0.000000
# 5 0.000000 0.000000 0.000000 0.000000 0.041600 0.000000
# 6 0.000000 0.000000 0.000000 0.000000 0.000000 0.053067
#
#
# Mechanical properties :
#
#
# Convention : Reuss Voigt Hill
#
# Bulk Modulus (GPa) = 54.71847 56.57370 55.64608
# Shear Modulus (GPa) = 19.39308 20.67353 20.03331
#
# Velocity S-wave (km/s) = 3.39217 3.50236 3.44771
# Velocity P-wave (km/s) = 6.91443 7.06563 6.99044
#
# Compressibility (1/GPa) = 0.01827537
#
# Stress axis : x y z
#
# Youngs Moduli (GPa) = 38.31717 38.31717 68.14480
#
# Poissons Ratio (x) = 0.48873 0.39328
# Poissons Ratio (y) = 0.48873 0.39328
# Poissons Ratio (z) = 0.22114 0.22114
#
# Static dielectric constant tensor:
#      x y z
#    x 2.946390 0.000000 0.000000 
#    y 0.000000 2.946390 0.000000 
#    z 0.000000 0.000000 3.188910 
# 
# 
# High freq. dielectric constant tensor:
#      x y z
#    x 1.622610 0.000000 0.000000 
#    y 0.000000 1.622610 0.000000 
#    z 0.000000 0.000000 1.665140 
# 
# From -- ./inp_files/10732.got.cif
#   From: 2010.03.12/outbox.cif.g09.slc.cpg/sg131_6_cif.got.tgz:10732.got - 2010.04.06 17:36:35.
