data_PCOD8315147
_publ_section_title
;
Structure prediction by ZEFSAII (Michael W. Deem and Ramdas Pophale) SiO2 
 PCOD8315147
Probable space group: P 4/N M M
;
_chemical_formula_sum "Si O2"
_cell_formula_units_Z 96
_cell_length_a 18.522130
_cell_length_b 18.522130
_cell_length_c 16.566155
_cell_angle_alpha 90.000000
_cell_angle_beta 90.000000
_cell_angle_gamma 90.000000
_cell_volume 5683.339195
_symmetry_space_group_name_H-M "P 4/N M M"
_symmetry_group_IT_number 129
_symmetry_cell_setting 'tetragonal'
loop_
_space_group_symop_operation_xyz
x,y,z
1/2-y,x,z
1/2-x,1/2-y,z
y,1/2-x,z
1/2+x,-y,-z
-x,1/2+y,-z
1/2+y,1/2+x,-z
-y,-x,-z
-x,-y,-z
1/2+y,-x,-z
1/2+x,1/2+y,-z
-y,1/2+x,-z
1/2-x,y,z
x,1/2-y,z
1/2-y,1/2-x,z
y,x,z
loop_
_atom_site_type_symbol
_atom_site_label
_atom_site_fract_x
_atom_site_fract_y
_atom_site_fract_z
Si Si1 0.946157 0.331707 0.815014
Si Si2 0.667874 0.949167 0.864295
Si Si3 0.665989 0.433206 0.733954
Si Si4 0.447470 0.832582 0.003914
Si Si5 0.550679 0.666064 0.325347
Si Si6 0.445427 0.563845 0.408093
O O1 0.920942 0.250000 0.801014
O O2 0.875446 0.377600 0.792449
O O3 0.976010 0.343985 0.905248
O O4 0.015592 0.350427 0.761375
O O5 0.750000 0.927950 0.883740
O O6 0.624103 0.875898 0.856752
O O7 0.662074 0.990283 0.779103
O O8 0.635535 0.996305 0.938674
O O9 0.750000 0.409925 0.721591
O O10 0.626029 0.438090 0.647608
O O11 0.432810 0.750000 0.981497
O O12 0.370716 0.870716 0.000000
O O13 0.561144 0.750000 0.344287
O O14 0.628951 0.628951 0.328962
O O15 0.496357 0.632053 0.390152
O O16 0.422915 0.577086 0.500000
O O17 0.489072 0.489072 0.395515
#
# Coordination Sequence:
#
# PCOD8315147 Si02
#       6
#    16  16  16  16  16  16
#     4   9  18  32  48  68 100 134 162 196 242 293
#     4  10  21  35  50  71  98 128 167 210 251 295
#     4  10  19  32  50  74  99 125 163 205 243 290
#     4  10  19  32  48  72 101 130 167 204 242 288
#     4   9  18  32  50  72  98 128 163 202 243 289
#     4   9  18  33  52  73  98 129 162 196 244 301
#
# _framework density 16.891477999999999
#
# number of rings (size 3 to 8) (size 9 to 14) (size 15 to 20)
#    0.000    2.500    1.667    0.500    0.000    3.167 
#    0.000    1.667    0.000    0.000    0.000    7.000 
#    0.000    4.000    0.000    0.000    0.000    0.000 
#
# Total GULP energy -1190126.365516 kJ/mol
# GULP energy per Si atom -12397.149641 kJ/mol
# Density = 1.685303 g / cm^3
# Si number density = 16.891478 Si / 1000 Ang^3
#
#
#
# Elastic Constant Matrix: (Units=GPa)
#
#
# Indices 1 2 3 4 5 6 
#
# 1 95.1854 53.1941 39.0041 0.0000 0.0000 0.0000
# 2 53.1941 95.1853 39.0041 0.0000 0.0000 0.0000
# 3 39.0041 39.0041 102.7557 0.0000 0.0000 0.0000
# 4 0.0000 0.0000 0.0000 20.1032 0.0000 0.0000
# 5 0.0000 0.0000 0.0000 0.0000 20.1031 0.0000
# 6 0.0000 0.0000 0.0000 0.0000 0.0000 25.3454
#
#
#
# Elastic Compliance Matrix: (Units=1/GPa)
#
#
# Indices 1 2 3 4 5 6 
#
# 1 0.016117 -0.007697 -0.003196 0.000000 0.000000 0.000000
# 2 -0.007697 0.016117 -0.003196 0.000000 0.000000 0.000000
# 3 -0.003196 -0.003196 0.012158 0.000000 0.000000 0.000000
# 4 0.000000 0.000000 0.000000 0.049743 0.000000 0.000000
# 5 0.000000 0.000000 0.000000 0.000000 0.049743 0.000000
# 6 0.000000 0.000000 0.000000 0.000000 0.000000 0.039455
#
#
# Mechanical properties :
#
#
# Convention : Reuss Voigt Hill
#
# Bulk Modulus (GPa) = 61.67646 61.72567 61.70107
# Shear Modulus (GPa) = 23.05027 23.90528 23.47778
#
# Velocity S-wave (km/s) = 3.69807 3.76603 3.73221
# Velocity P-wave (km/s) = 7.40452 7.45201 7.42830
#
# Compressibility (1/GPa) = 0.01621364
#
# Stress axis : x y z
#
# Youngs Moduli (GPa) = 62.04592 62.04583 82.24987
#
# Poissons Ratio (x) = 0.47759 0.26287
# Poissons Ratio (y) = 0.47759 0.26287
# Poissons Ratio (z) = 0.19830 0.19830
#
# Static dielectric constant tensor:
#      x y z
#    x 3.058210 0.000000 0.000000 
#    y 0.000000 3.058210 0.000000 
#    z 0.000000 0.000000 3.339040 
# 
# 
# High freq. dielectric constant tensor:
#      x y z
#    x 1.642540 0.000000 0.000000 
#    y 0.000000 1.642540 0.000000 
#    z 0.000000 0.000000 1.656290 
# 
# From -- ./inp_files/5690.got.cif
#   From: 2010.03.12/outbox.cif.g09.slc.cpg/sg129_3_cif.got.tgz:5690.got - 2010.04.06 17:19:44.
