data_PCOD8315610
_publ_section_title
;
Structure prediction by ZEFSAII (Michael W. Deem and Ramdas Pophale) SiO2 
 PCOD8315610
Probable space group: P 4/N C C
;
_chemical_formula_sum "Si O2"
_cell_formula_units_Z 112
_cell_length_a 13.868489
_cell_length_b 13.868489
_cell_length_c 26.577099
_cell_angle_alpha 90.000000
_cell_angle_beta 90.000000
_cell_angle_gamma 90.000000
_cell_volume 5111.705994
_symmetry_space_group_name_H-M "P 4/N C C"
_symmetry_group_IT_number 130
_symmetry_cell_setting 'tetragonal'
loop_
_space_group_symop_operation_xyz
x,y,z
1/2-y,x,z
1/2-x,1/2-y,z
y,1/2-x,z
1/2+x,-y,1/2-z
-x,1/2+y,1/2-z
1/2+y,1/2+x,1/2-z
-y,-x,1/2-z
-x,-y,-z
1/2+y,-x,-z
1/2+x,1/2+y,-z
-y,1/2+x,-z
1/2-x,y,1/2+z
x,1/2-y,1/2+z
1/2-y,1/2-x,1/2+z
y,x,1/2+z
loop_
_atom_site_type_symbol
_atom_site_label
_atom_site_fract_x
_atom_site_fract_y
_atom_site_fract_z
Si Si1 0.396380 0.850118 0.624719
Si Si2 0.780181 0.593742 0.288774
Si Si3 0.427334 0.029216 0.956148
Si Si4 0.959973 0.284383 0.626222
Si Si5 0.475856 0.413998 0.789488
Si Si6 0.599264 0.797104 0.463624
Si Si7 0.522562 0.136206 0.866885
O O1 0.434898 0.904493 0.575653
O O2 0.280549 0.862678 0.619435
O O3 0.432672 0.905301 0.674204
O O4 0.437264 0.743057 0.628106
O O5 0.862634 0.674284 0.289422
O O6 0.780654 0.527863 0.338193
O O7 0.809503 0.536885 0.237925
O O8 0.474051 0.110699 0.920417
O O9 0.325487 0.065063 0.980138
O O10 0.500000 0.000000 0.000000
O O11 0.930585 0.386987 0.649095
O O12 0.011910 0.313969 0.574519
O O13 0.501671 0.498330 0.750000
O O14 0.380785 0.444479 0.822059
O O15 0.630624 0.687914 0.454508
#
# Coordination Sequence:
#
# PCOD8315610 Si02
#       7
#    16  16  16  16  16  16  16
#     4  11  25  41  66  98 138 180 233 285 342 424
#     4  11  23  39  66  98 130 172 229 293 347 404
#     4  11  22  44  68  95 136 186 230 287 350 416
#     4  12  23  41  65  97 141 177 232 280 346 422
#     4  11  22  44  67  95 133 184 229 288 353 415
#     4  11  23  39  66  99 132 176 232 288 344 403
#     4  11  25  43  69 101 137 189 232 283 356 429
#
# _framework density 21.910492999999999
#
# number of rings (size 3 to 8) (size 9 to 14) (size 15 to 20)
#    0.000    0.857    2.857    4.714    4.000    1.143 
#    0.000    0.000    3.143    6.857    0.000    0.000 
#    0.000    0.000    0.000    0.000    0.000    0.000 
#
# Total GULP energy -1388086.240768 kJ/mol
# GULP energy per Si atom -12393.627150 kJ/mol
# Density = 2.186062 g / cm^3
# Si number density = 21.910493 Si / 1000 Ang^3
#
#
#
# Elastic Constant Matrix: (Units=GPa)
#
#
# Indices 1 2 3 4 5 6 
#
# 1 90.3230 20.2693 46.5523 0.0000 0.0000 0.0000
# 2 20.2693 90.3225 46.5521 0.0000 0.0000 0.0000
# 3 46.5523 46.5521 141.6045 0.0000 0.0000 0.0000
# 4 0.0000 0.0000 0.0000 29.5346 0.0000 0.0000
# 5 0.0000 0.0000 0.0000 0.0000 29.5350 0.0000
# 6 0.0000 0.0000 0.0000 0.0000 0.0000 32.9180
#
#
#
# Elastic Compliance Matrix: (Units=1/GPa)
#
#
# Indices 1 2 3 4 5 6 
#
# 1 0.013389 -0.000886 -0.004110 0.000000 0.000000 0.000000
# 2 -0.000886 0.013389 -0.004110 0.000000 0.000000 0.000000
# 3 -0.004110 -0.004110 0.009764 0.000000 0.000000 0.000000
# 4 0.000000 0.000000 0.000000 0.033859 0.000000 0.000000
# 5 0.000000 0.000000 0.000000 0.000000 0.033858 0.000000
# 6 0.000000 0.000000 0.000000 0.000000 0.000000 0.030379
#
#
# Mechanical properties :
#
#
# Convention : Reuss Voigt Hill
#
# Bulk Modulus (GPa) = 54.55946 60.99971 57.77959
# Shear Modulus (GPa) = 31.45455 32.32259 31.88857
#
# Velocity S-wave (km/s) = 3.79303 3.84501 3.81911
# Velocity P-wave (km/s) = 6.64364 6.90022 6.77314
#
# Compressibility (1/GPa) = 0.01832863
#
# Stress axis : x y z
#
# Youngs Moduli (GPa) = 74.69038 74.68998 102.41350
#
# Poissons Ratio (x) = 0.06619 0.42094
# Poissons Ratio (y) = 0.06619 0.42094
# Poissons Ratio (z) = 0.30699 0.30699
#
# Static dielectric constant tensor:
#      x y z
#    x 3.949250 0.000000 0.000000 
#    y 0.000000 3.949250 0.000000 
#    z 0.000000 0.000000 4.088830 
# 
# 
# High freq. dielectric constant tensor:
#      x y z
#    x 1.863240 0.000000 0.000000 
#    y 0.000000 1.863240 0.000000 
#    z 0.000000 0.000000 1.866730 
# 
# From -- ./inp_files/4312.got.cif
#   From: 2010.03.12/outbox.cif.g09.slc.cpg/sg130_3_cif.got.tgz:4312.got - 2010.04.06 17:30:23.
