data_PCOD8315463
_publ_section_title
;
Structure prediction by ZEFSAII (Michael W. Deem and Ramdas Pophale) SiO2 
 PCOD8315463
Probable space group: P 4/N C C
;
_chemical_formula_sum "Si O2"
_cell_formula_units_Z 80
_cell_length_a 35.252030
_cell_length_b 35.252030
_cell_length_c 5.224589
_cell_angle_alpha 90.000000
_cell_angle_beta 90.000000
_cell_angle_gamma 90.000000
_cell_volume 6492.626108
_symmetry_space_group_name_H-M "P 4/N C C"
_symmetry_group_IT_number 130
_symmetry_cell_setting 'tetragonal'
loop_
_space_group_symop_operation_xyz
x,y,z
1/2-y,x,z
1/2-x,1/2-y,z
y,1/2-x,z
1/2+x,-y,1/2-z
-x,1/2+y,1/2-z
1/2+y,1/2+x,1/2-z
-y,-x,1/2-z
-x,-y,-z
1/2+y,-x,-z
1/2+x,1/2+y,-z
-y,1/2+x,-z
1/2-x,y,1/2+z
x,1/2-y,1/2+z
1/2-y,1/2-x,1/2+z
y,x,1/2+z
loop_
_atom_site_type_symbol
_atom_site_label
_atom_site_fract_x
_atom_site_fract_y
_atom_site_fract_z
Si Si1 0.413255 0.770535 0.291416
Si Si2 0.731092 0.175254 0.815764
Si Si3 0.547354 0.983305 0.252972
Si Si4 0.606654 0.456245 0.747500
Si Si5 0.139904 0.576034 0.251815
O O1 0.431342 0.752002 0.548788
O O2 0.369120 0.763124 0.311619
O O3 0.417580 0.815499 0.268608
O O4 0.687907 0.187907 0.750000
O O5 0.757556 0.192356 0.590438
O O6 0.542347 0.956629 0.500083
O O7 0.515802 0.015802 0.250000
O O8 0.589572 0.001322 0.260861
O O9 0.571516 0.428485 0.750000
O O10 0.629254 0.450765 0.484966
O O11 0.633205 0.447521 0.989300
O O12 0.115518 0.615518 0.250000
#
# Coordination Sequence:
#
# PCOD8315463 Si02
#       5
#    16  16  16  16  16
#     4  10  20  32  43  54  66  82 104 130 165 204
#     4  10  20  31  42  54  66  78  94 116 147 194
#     4   9  15  23  35  51  74  98 114 129 147 171
#     4   9  17  26  38  57  73  90 114 132 153 184
#     4  10  18  29  43  55  70  87 107 138 167 196
#
# _framework density 12.321671
#
# number of rings (size 3 to 8) (size 9 to 14) (size 15 to 20)
#    0.000    2.400    0.000    3.600    0.000    6.000 
#    0.000    6.000    0.000    0.000    0.000    0.000 
#    0.000    0.000    0.000    0.000    0.000    0.000 
#
# Total GULP energy -991275.745810 kJ/mol
# GULP energy per Si atom -12390.946823 kJ/mol
# Density = 1.229363 g / cm^3
# Si number density = 12.321671 Si / 1000 Ang^3
#
#
#
# Elastic Constant Matrix: (Units=GPa)
#
#
# Indices 1 2 3 4 5 6 
#
# 1 26.7494 30.3606 27.2195 0.0000 0.0000 0.0000
# 2 30.3606 26.7503 27.2241 0.0000 0.0000 0.0000
# 3 27.2195 27.2241 112.6838 0.0000 0.0000 0.0000
# 4 0.0000 0.0000 0.0000 25.6516 0.0000 0.0000
# 5 0.0000 0.0000 0.0000 0.0000 25.6703 0.0000
# 6 0.0000 0.0000 0.0000 0.0000 0.0000 19.6840
#
#
#
# Elastic Compliance Matrix: (Units=1/GPa)
#
#
# Indices 1 2 3 4 5 6 
#
# 1 -0.127099 0.149852 -0.005502 0.000000 0.000000 0.000000
# 2 0.149852 -0.127107 -0.005489 0.000000 0.000000 0.000000
# 3 -0.005502 -0.005489 0.011530 0.000000 0.000000 0.000000
# 4 0.000000 0.000000 0.000000 0.038984 0.000000 0.000000
# 5 0.000000 0.000000 0.000000 0.000000 0.038956 0.000000
# 6 0.000000 0.000000 0.000000 0.000000 0.000000 0.050803
#
#
# Mechanical properties :
#
#
# Convention : Reuss Voigt Hill
#
# Bulk Modulus (GPa) = 28.53476 37.31021 32.92248
# Shear Modulus (GPa) = -13.15879 19.62646 3.23384
#
# Velocity S-wave (km/s) = -3.27148 3.99537 1.62179
# Velocity P-wave (km/s) = 2.98971 7.18539 5.50310
#
# Compressibility (1/GPa) = 0.03504498
#
# Stress axis : x y z
#
# Youngs Moduli (GPa) = -7.86789 -7.86737 86.73317
#
# Poissons Ratio (x) = 1.17894 0.47723
# Poissons Ratio (y) = 1.17902 0.47607
# Poissons Ratio (z) = -0.04329 -0.04318
#
# Static dielectric constant tensor:
#      x y z
#    x 2.321450 0.000000 0.000000 
#    y 0.000000 2.321460 0.000000 
#    z 0.000000 0.000000 2.853800 
# 
# 
# High freq. dielectric constant tensor:
#      x y z
#    x 1.425170 0.000000 0.000000 
#    y 0.000000 1.425170 0.000000 
#    z 0.000000 0.000000 1.497830 
# 
# From -- ./inp_files/234.got.cif
#   From: 2010.03.12/outbox.cif.g09.slc.cpg/sg130_1_cif.got.tgz:234.got - 2010.04.06 17:30:23.
