data_PCOD8315537
_publ_section_title
;
Structure prediction by ZEFSAII (Michael W. Deem and Ramdas Pophale) SiO2 
 PCOD8315537
Probable space group: P 4/N C C
;
_chemical_formula_sum "Si O2"
_cell_formula_units_Z 96
_cell_length_a 15.672714
_cell_length_b 15.672714
_cell_length_c 20.220227
_cell_angle_alpha 90.000000
_cell_angle_beta 90.000000
_cell_angle_gamma 90.000000
_cell_volume 4966.774514
_symmetry_space_group_name_H-M "P 4/N C C"
_symmetry_group_IT_number 130
_symmetry_cell_setting 'tetragonal'
loop_
_space_group_symop_operation_xyz
x,y,z
1/2-y,x,z
1/2-x,1/2-y,z
y,1/2-x,z
1/2+x,-y,1/2-z
-x,1/2+y,1/2-z
1/2+y,1/2+x,1/2-z
-y,-x,1/2-z
-x,-y,-z
1/2+y,-x,-z
1/2+x,1/2+y,-z
-y,1/2+x,-z
1/2-x,y,1/2+z
x,1/2-y,1/2+z
1/2-y,1/2-x,1/2+z
y,x,1/2+z
loop_
_atom_site_type_symbol
_atom_site_label
_atom_site_fract_x
_atom_site_fract_y
_atom_site_fract_z
Si Si1 0.054612 0.878020 0.679281
Si Si2 0.405602 0.895606 0.968323
Si Si3 0.877706 0.794131 0.705049
Si Si4 0.766032 0.148994 0.080241
Si Si5 0.062570 0.022475 0.579272
Si Si6 0.371921 0.302174 0.138898
O O1 0.087597 0.912404 0.750000
O O2 0.129277 0.820224 0.646325
O O3 0.970713 0.820103 0.681070
O O4 0.025794 0.954886 0.631759
O O5 0.326159 0.897610 0.917395
O O6 0.495384 0.897907 0.927447
O O7 0.390533 0.814903 0.016483
O O8 0.413026 0.983524 0.008609
O O9 0.802167 0.857391 0.679961
O O10 0.877759 0.800245 0.783161
O O11 0.750000 0.250000 0.073808
O O12 0.155018 0.045961 0.607800
O O13 0.293388 0.360277 0.113438
#
# Coordination Sequence:
#
# PCOD8315537 Si02
#       6
#    16  16  16  16  16  16
#     4  11  23  39  60  93 129 153 200 263 309 377
#     4  10  21  39  58  86 111 158 206 241 300 369
#     4   9  19  38  60  82 117 160 195 235 306 372
#     4  11  22  41  65  83 120 166 204 251 314 371
#     4  10  22  35  59  88 119 153 198 252 305 357
#     4   9  18  33  56  83 112 153 195 241 296 353
#
# _framework density 19.328440000000001
#
# number of rings (size 3 to 8) (size 9 to 14) (size 15 to 20)
#    0.000    2.000    3.333    1.000    4.667    0.333 
#    0.000    0.000    0.000    0.000    0.000    0.000 
#    0.000    0.000    0.000    0.000    0.000    0.000 
#
# Total GULP energy -1189378.149265 kJ/mol
# GULP energy per Si atom -12389.355722 kJ/mol
# Density = 1.928445 g / cm^3
# Si number density = 19.328440 Si / 1000 Ang^3
#
#
#
# Elastic Constant Matrix: (Units=GPa)
#
#
# Indices 1 2 3 4 5 6 
#
# 1 69.8570 48.8932 23.9109 0.0000 0.0000 0.0000
# 2 48.8932 69.8574 23.9109 0.0000 0.0000 0.0000
# 3 23.9109 23.9109 62.3747 0.0000 0.0000 0.0000
# 4 0.0000 0.0000 0.0000 22.8035 0.0000 0.0000
# 5 0.0000 0.0000 0.0000 0.0000 22.8037 0.0000
# 6 0.0000 0.0000 0.0000 0.0000 0.0000 48.0285
#
#
#
# Elastic Compliance Matrix: (Units=1/GPa)
#
#
# Indices 1 2 3 4 5 6 
#
# 1 0.028830 -0.018871 -0.003818 0.000000 0.000000 0.000000
# 2 -0.018871 0.028829 -0.003817 0.000000 0.000000 0.000000
# 3 -0.003818 -0.003817 0.018959 0.000000 0.000000 0.000000
# 4 0.000000 0.000000 0.000000 0.043853 0.000000 0.000000
# 5 0.000000 0.000000 0.000000 0.000000 0.043852 0.000000
# 6 0.000000 0.000000 0.000000 0.000000 0.000000 0.020821
#
#
# Mechanical properties :
#
#
# Convention : Reuss Voigt Hill
#
# Bulk Modulus (GPa) = 42.36250 43.94657 43.15453
# Shear Modulus (GPa) = 20.32312 25.75209 23.03761
#
# Velocity S-wave (km/s) = 3.24614 3.65409 3.45614
# Velocity P-wave (km/s) = 6.00122 6.37097 6.18886
#
# Compressibility (1/GPa) = 0.02360578
#
# Stress axis : x y z
#
# Youngs Moduli (GPa) = 34.68652 34.68673 52.74553
#
# Poissons Ratio (x) = 0.65458 0.20136
# Poissons Ratio (y) = 0.65458 0.20135
# Poissons Ratio (z) = 0.13242 0.13241
#
# Static dielectric constant tensor:
#      x y z
#    x 3.841620 0.000000 0.000000 
#    y 0.000000 3.841620 0.000000 
#    z 0.000000 0.000000 3.390400 
# 
# 
# High freq. dielectric constant tensor:
#      x y z
#    x 1.756400 0.000000 0.000000 
#    y 0.000000 1.756400 0.000000 
#    z 0.000000 0.000000 1.731680 
# 
# From -- ./inp_files/3789.got.cif
#   From: 2010.03.12/outbox.cif.g09.slc.cpg/sg130_2_cif.got.tgz:3789.got - 2010.04.06 17:30:23.
