data_PCOD8315030
_publ_section_title
;
Structure prediction by ZEFSAII (Michael W. Deem and Ramdas Pophale) SiO2 
 PCOD8315030
Probable space group: P 4/N M M
;
_chemical_formula_sum "Si O2"
_cell_formula_units_Z 96
_cell_length_a 20.671060
_cell_length_b 20.671060
_cell_length_c 12.799170
_cell_angle_alpha 90.000000
_cell_angle_beta 90.000000
_cell_angle_gamma 90.000000
_cell_volume 5468.992183
_symmetry_space_group_name_H-M "P 4/N M M"
_symmetry_group_IT_number 129
_symmetry_cell_setting 'tetragonal'
loop_
_space_group_symop_operation_xyz
x,y,z
1/2-y,x,z
1/2-x,1/2-y,z
y,1/2-x,z
1/2+x,-y,-z
-x,1/2+y,-z
1/2+y,1/2+x,-z
-y,-x,-z
-x,-y,-z
1/2+y,-x,-z
1/2+x,1/2+y,-z
-y,1/2+x,-z
1/2-x,y,z
x,1/2-y,z
1/2-y,1/2-x,z
y,x,z
loop_
_atom_site_type_symbol
_atom_site_label
_atom_site_fract_x
_atom_site_fract_y
_atom_site_fract_z
Si Si1 0.580235 0.820838 0.602069
Si Si2 0.323363 0.856120 0.381260
Si Si3 0.820340 0.024298 0.757020
Si Si4 0.556472 0.176962 0.737695
Si Si5 0.448350 0.555248 0.123284
Si Si6 0.996020 0.402988 0.550850
O O1 0.582635 0.750000 0.550648
O O2 0.653121 0.846880 0.612408
O O3 0.549240 0.819018 0.717375
O O4 0.538721 0.869027 0.534330
O O5 0.346998 0.846998 0.500000
O O6 0.250000 0.830113 0.371252
O O7 0.328320 0.931366 0.347413
O O8 0.368252 0.818313 0.297609
O O9 0.750000 0.040455 0.810185
O O10 0.879151 0.030706 0.836421
O O11 0.533350 0.250000 0.766527
O O12 0.541898 0.128467 0.834211
O O13 0.517547 0.148995 0.639870
O O14 0.506659 0.506659 0.158350
O O15 0.443136 0.556865 0.000000
O O16 0.035529 0.464472 0.597907
O O17 0.929284 0.429284 0.500000
#
# Coordination Sequence:
#
# PCOD8315030 Si02
#       6
#    16  16  16  16  16  16
#     4  10  19  30  46  69  98 131 162 192 231 282
#     4  10  19  29  43  66  98 133 164 192 223 264
#     4   9  18  32  50  72  96 123 158 200 244 287
#     4  11  21  32  48  70  97 126 160 202 243 286
#     4  10  21  37  55  72  92 121 158 202 254 308
#     4  10  19  31  49  72  99 130 163 199 240 287
#
# _framework density 17.553508999999998
#
# number of rings (size 3 to 8) (size 9 to 14) (size 15 to 20)
#    0.000    2.000    0.000    5.500    0.000    4.667 
#    0.000    0.000    0.000    0.500    0.000    2.333 
#    0.000    3.000    0.000   12.333    0.000    0.333 
#
# Total GULP energy -1189469.497095 kJ/mol
# GULP energy per Si atom -12390.307261 kJ/mol
# Density = 1.751356 g / cm^3
# Si number density = 17.553509 Si / 1000 Ang^3
#
#
#
# Elastic Constant Matrix: (Units=GPa)
#
#
# Indices 1 2 3 4 5 6 
#
# 1 211.2691 -38.3228 39.0941 0.0000 0.0000 0.0000
# 2 -38.3228 211.2662 39.0929 0.0000 0.0000 0.0000
# 3 39.0941 39.0929 74.3501 0.0000 0.0000 0.0000
# 4 0.0000 0.0000 0.0000 16.2862 0.0000 0.0000
# 5 0.0000 0.0000 0.0000 0.0000 16.2862 0.0000
# 6 0.0000 0.0000 0.0000 0.0000 0.0000 18.4882
#
#
#
# Elastic Compliance Matrix: (Units=1/GPa)
#
#
# Indices 1 2 3 4 5 6 
#
# 1 0.005796 0.001789 -0.003988 0.000000 0.000000 0.000000
# 2 0.001789 0.005796 -0.003988 0.000000 0.000000 0.000000
# 3 -0.003988 -0.003988 0.017644 0.000000 0.000000 0.000000
# 4 0.000000 0.000000 0.000000 0.061402 0.000000 0.000000
# 5 0.000000 0.000000 0.000000 0.000000 0.061402 0.000000
# 6 0.000000 0.000000 0.000000 0.000000 0.000000 0.054088
#
#
# Mechanical properties :
#
#
# Convention : Reuss Voigt Hill
#
# Bulk Modulus (GPa) = 59.30780 64.06820 61.68800
# Shear Modulus (GPa) = 22.30916 40.68019 31.49467
#
# Velocity S-wave (km/s) = 3.56887 4.81926 4.24041
# Velocity P-wave (km/s) = 7.13040 8.21858 7.69375
#
# Compressibility (1/GPa) = 0.01686119
#
# Stress axis : x y z
#
# Youngs Moduli (GPa) = 172.53549 172.53399 56.67620
#
# Poissons Ratio (x) = -0.30873 0.22605
# Poissons Ratio (y) = -0.30873 0.22605
# Poissons Ratio (z) = 0.68814 0.68813
#
# Static dielectric constant tensor:
#      x y z
#    x 3.535940 0.000000 0.000000 
#    y 0.000000 3.535940 0.000000 
#    z 0.000000 0.000000 2.896640 
# 
# 
# High freq. dielectric constant tensor:
#      x y z
#    x 1.684240 0.000000 0.000000 
#    y 0.000000 1.684240 0.000000 
#    z 0.000000 0.000000 1.640260 
# 
# From -- ./inp_files/3837.got.cif
#   From: 2010.03.12/outbox.cif.g09.slc.cpg/sg129_2_cif.got.tgz:3837.got - 2010.04.06 17:19:44.
