data_PCOD8315621
_publ_section_title
;
Structure prediction by ZEFSAII (Michael W. Deem and Ramdas Pophale) SiO2 
 PCOD8315621
Probable space group: P 4/N C C
;
_chemical_formula_sum "Si O2"
_cell_formula_units_Z 88
_cell_length_a 10.854289
_cell_length_b 10.854289
_cell_length_c 29.009296
_cell_angle_alpha 90.000000
_cell_angle_beta 90.000000
_cell_angle_gamma 90.000000
_cell_volume 3417.747315
_symmetry_space_group_name_H-M "P 4/N C C"
_symmetry_group_IT_number 130
_symmetry_cell_setting 'tetragonal'
loop_
_space_group_symop_operation_xyz
x,y,z
1/2-y,x,z
1/2-x,1/2-y,z
y,1/2-x,z
1/2+x,-y,1/2-z
-x,1/2+y,1/2-z
1/2+y,1/2+x,1/2-z
-y,-x,1/2-z
-x,-y,-z
1/2+y,-x,-z
1/2+x,1/2+y,-z
-y,1/2+x,-z
1/2-x,y,1/2+z
x,1/2-y,1/2+z
1/2-y,1/2-x,1/2+z
y,x,1/2+z
loop_
_atom_site_type_symbol
_atom_site_label
_atom_site_fract_x
_atom_site_fract_y
_atom_site_fract_z
Si Si1 0.399816 0.600185 0.750000
Si Si2 0.417109 0.366375 0.327680
Si Si3 0.772081 0.950852 0.798447
Si Si4 0.085428 0.366376 0.929894
Si Si5 0.139700 0.914043 0.009390
Si Si6 0.308925 0.058587 0.596444
O O1 0.490533 0.567838 0.707289
O O2 0.424594 0.742342 0.768486
O O3 0.280471 0.418696 0.320261
O O4 0.465791 0.401313 0.379149
O O5 0.642893 0.879765 0.785060
O O6 0.801601 0.987845 0.850910
O O7 0.082303 0.220910 0.935233
O O8 0.007155 0.427181 0.972129
O O9 0.140356 0.951382 0.063394
O O10 0.280660 0.917595 0.992947
O O11 0.399778 0.170823 0.585702
#
# Coordination Sequence:
#
# PCOD8315621 Si02
#       6
#     8  16  16  16  16  16
#     4  12  20  30  64  94 110 150 204 238 294 360
#     4   9  20  39  60  85 121 155 195 253 297 340
#     4   9  20  39  60  85 121 155 195 253 297 340
#     4   9  19  38  62  86 113 153 204 250 290 346
#     4  11  24  37  54  86 128 161 184 239 310 362
#     4   9  19  38  62  86 113 153 204 250 290 346
#
# _framework density 25.747952999999999
#
# number of rings (size 3 to 8) (size 9 to 14) (size 15 to 20)
#    0.000    2.364    0.000    4.364    2.545    5.818 
#    9.818    0.000    0.000    8.727    0.000    0.000 
#    0.000    0.000    0.000    0.000    0.000    0.000 
#
# Total GULP energy -1090253.666757 kJ/mol
# GULP energy per Si atom -12389.246213 kJ/mol
# Density = 2.568935 g / cm^3
# Si number density = 25.747953 Si / 1000 Ang^3
#
#
#
# Elastic Constant Matrix: (Units=GPa)
#
#
# Indices 1 2 3 4 5 6 
#
# 1 41.6454 -11.2189 36.6279 0.0000 0.0000 0.0000
# 2 -11.2189 41.6457 36.6273 0.0000 0.0000 0.0000
# 3 36.6279 36.6273 155.3971 0.0000 0.0000 0.0000
# 4 0.0000 0.0000 0.0000 44.3955 0.0000 0.0000
# 5 0.0000 0.0000 0.0000 0.0000 44.3954 0.0000
# 6 0.0000 0.0000 0.0000 0.0000 0.0000 17.2681
#
#
#
# Elastic Compliance Matrix: (Units=1/GPa)
#
#
# Indices 1 2 3 4 5 6 
#
# 1 0.047452 0.028535 -0.017910 0.000000 0.000000 0.000000
# 2 0.028535 0.047451 -0.017910 0.000000 0.000000 0.000000
# 3 -0.017910 -0.017910 0.014878 0.000000 0.000000 0.000000
# 4 0.000000 0.000000 0.000000 0.022525 0.000000 0.000000
# 5 0.000000 0.000000 0.000000 0.000000 0.022525 0.000000
# 6 0.000000 0.000000 0.000000 0.000000 0.000000 0.057910
#
#
# Mechanical properties :
#
#
# Convention : Reuss Voigt Hill
#
# Bulk Modulus (GPa) = 10.50303 40.30676 25.40489
# Shear Modulus (GPa) = 19.30136 32.98860 26.14498
#
# Velocity S-wave (km/s) = 2.74090 3.58329 3.19002
# Velocity P-wave (km/s) = 3.75563 5.72785 4.84319
#
# Compressibility (1/GPa) = 0.09521064
#
# Stress axis : x y z
#
# Youngs Moduli (GPa) = 21.07393 21.07425 67.21248
#
# Poissons Ratio (x) = -0.60136 1.20381
# Poissons Ratio (y) = -0.60135 1.20379
# Poissons Ratio (z) = 0.37744 0.37745
#
# Static dielectric constant tensor:
#      x y z
#    x 4.541550 0.000000 0.000000 
#    y 0.000000 4.541540 0.000000 
#    z 0.000000 0.000000 4.928720 
# 
# 
# High freq. dielectric constant tensor:
#      x y z
#    x 2.023590 0.000000 0.000000 
#    y 0.000000 2.023590 0.000000 
#    z 0.000000 0.000000 2.051270 
# 
# From -- ./inp_files/4830.got.cif
#   From: 2010.03.12/outbox.cif.g09.slc.cpg/sg130_3_cif.got.tgz:4830.got - 2010.04.06 17:30:23.
