data_PCOD8315550
_publ_section_title
;
Structure prediction by ZEFSAII (Michael W. Deem and Ramdas Pophale) SiO2 
 PCOD8315550
Probable space group: P 4/N C C
;
_chemical_formula_sum "Si O2"
_cell_formula_units_Z 96
_cell_length_a 15.478188
_cell_length_b 15.478188
_cell_length_c 18.987770
_cell_angle_alpha 90.000000
_cell_angle_beta 90.000000
_cell_angle_gamma 90.000000
_cell_volume 4548.981778
_symmetry_space_group_name_H-M "P 4/N C C"
_symmetry_group_IT_number 130
_symmetry_cell_setting 'tetragonal'
loop_
_space_group_symop_operation_xyz
x,y,z
1/2-y,x,z
1/2-x,1/2-y,z
y,1/2-x,z
1/2+x,-y,1/2-z
-x,1/2+y,1/2-z
1/2+y,1/2+x,1/2-z
-y,-x,1/2-z
-x,-y,-z
1/2+y,-x,-z
1/2+x,1/2+y,-z
-y,1/2+x,-z
1/2-x,y,1/2+z
x,1/2-y,1/2+z
1/2-y,1/2-x,1/2+z
y,x,1/2+z
loop_
_atom_site_type_symbol
_atom_site_label
_atom_site_fract_x
_atom_site_fract_y
_atom_site_fract_z
Si Si1 0.979108 0.567245 0.150293
Si Si2 0.646498 0.848775 0.040214
Si Si3 0.352517 0.679876 0.030543
Si Si4 0.865003 0.994569 0.439457
Si Si5 0.881113 0.118888 0.250000
Si Si6 0.417441 0.767792 0.845862
Si Si7 0.076282 0.576282 0.750000
O O1 0.908325 0.619049 0.106503
O O2 0.927711 0.492370 0.188396
O O3 0.050966 0.522158 0.102356
O O4 0.025732 0.626280 0.210156
O O5 0.628947 0.747586 0.042209
O O6 0.618291 0.896822 0.967404
O O7 0.323538 0.647253 0.106340
O O8 0.284632 0.647390 0.970154
O O9 0.446078 0.643555 0.009566
O O10 0.777259 0.005354 0.391950
O O11 0.866123 0.190552 0.190972
O O12 0.445889 0.830388 0.783264
#
# Coordination Sequence:
#
# PCOD8315550 Si02
#       7
#    16  16  16  16   8  16   8
#     4  10  23  42  64  92 125 163 219 256 322 386
#     4  11  26  42  66  96 123 167 221 280 322 371
#     4   9  19  34  58  99 127 159 200 255 325 386
#     4  10  22  40  67  91 128 165 206 276 329 379
#     4   9  22  41  60  90 128 173 200 253 308 394
#     4  10  22  37  61  92 130 168 202 251 316 387
#     4  11  24  37  62  96 122 171 210 249 318 398
#
# _framework density 21.103624
#
# number of rings (size 3 to 8) (size 9 to 14) (size 15 to 20)
#    0.000    2.000    0.000    1.500    9.333    7.000 
#    0.000    0.000    0.000    0.000    0.000    0.000 
#    0.000    0.000    0.000    0.000    0.000    0.000 
#
# Total GULP energy -1189655.094277 kJ/mol
# GULP energy per Si atom -12392.240565 kJ/mol
# Density = 2.105559 g / cm^3
# Si number density = 21.103624 Si / 1000 Ang^3
#
#
#
# Elastic Constant Matrix: (Units=GPa)
#
#
# Indices 1 2 3 4 5 6 
#
# 1 70.3075 58.3508 48.2388 0.0000 0.0000 0.0000
# 2 58.3508 70.3069 48.2397 0.0000 0.0000 0.0000
# 3 48.2388 48.2397 106.8498 0.0000 0.0000 0.0000
# 4 0.0000 0.0000 0.0000 22.2404 0.0000 0.0000
# 5 0.0000 0.0000 0.0000 0.0000 22.2403 0.0000
# 6 0.0000 0.0000 0.0000 0.0000 0.0000 20.4332
#
#
#
# Elastic Compliance Matrix: (Units=1/GPa)
#
#
# Indices 1 2 3 4 5 6 
#
# 1 0.047693 -0.035943 -0.005304 0.000000 0.000000 0.000000
# 2 -0.035943 0.047695 -0.005306 0.000000 0.000000 0.000000
# 3 -0.005304 -0.005306 0.014149 0.000000 0.000000 0.000000
# 4 0.000000 0.000000 0.000000 0.044963 0.000000 0.000000
# 5 0.000000 0.000000 0.000000 0.000000 0.044963 0.000000
# 6 0.000000 0.000000 0.000000 0.000000 0.000000 0.048940
#
#
# Mechanical properties :
#
#
# Convention : Reuss Voigt Hill
#
# Bulk Modulus (GPa) = 60.86342 61.90254 61.38298
# Shear Modulus (GPa) = 14.40978 19.15846 16.78412
#
# Velocity S-wave (km/s) = 2.61590 3.01629 2.82320
# Velocity P-wave (km/s) = 6.16659 6.44414 6.30689
#
# Compressibility (1/GPa) = 0.01643023
#
# Stress axis : x y z
#
# Youngs Moduli (GPa) = 20.96736 20.96678 70.67602
#
# Poissons Ratio (x) = 0.75361 0.37490
# Poissons Ratio (y) = 0.75363 0.37499
# Poissons Ratio (z) = 0.11122 0.11124
#
# Static dielectric constant tensor:
#      x y z
#    x 3.875610 0.000000 0.000000 
#    y 0.000000 3.875620 0.000000 
#    z 0.000000 0.000000 4.187610 
# 
# 
# High freq. dielectric constant tensor:
#      x y z
#    x 1.820770 0.000000 0.000000 
#    y 0.000000 1.820770 0.000000 
#    z 0.000000 0.000000 1.836580 
# 
# From -- ./inp_files/3824.got.cif
#   From: 2010.03.12/outbox.cif.g09.slc.cpg/sg130_2_cif.got.tgz:3824.got - 2010.04.06 17:30:23.
