data_PCOD8315635
_publ_section_title
;
Structure prediction by ZEFSAII (Michael W. Deem and Ramdas Pophale) SiO2 
 PCOD8315635
Probable space group: P 4/N C C
;
_chemical_formula_sum "Si O2"
_cell_formula_units_Z 80
_cell_length_a 10.371582
_cell_length_b 10.371582
_cell_length_c 36.675000
_cell_angle_alpha 90.000000
_cell_angle_beta 90.000000
_cell_angle_gamma 90.000000
_cell_volume 3945.119231
_symmetry_space_group_name_H-M "P 4/N C C"
_symmetry_group_IT_number 130
_symmetry_cell_setting 'tetragonal'
loop_
_space_group_symop_operation_xyz
x,y,z
1/2-y,x,z
1/2-x,1/2-y,z
y,1/2-x,z
1/2+x,-y,1/2-z
-x,1/2+y,1/2-z
1/2+y,1/2+x,1/2-z
-y,-x,1/2-z
-x,-y,-z
1/2+y,-x,-z
1/2+x,1/2+y,-z
-y,1/2+x,-z
1/2-x,y,1/2+z
x,1/2-y,1/2+z
1/2-y,1/2-x,1/2+z
y,x,1/2+z
loop_
_atom_site_type_symbol
_atom_site_label
_atom_site_fract_x
_atom_site_fract_y
_atom_site_fract_z
Si Si1 0.575513 0.638580 0.898003
Si Si2 0.646195 0.341810 0.152337
Si Si3 0.892475 0.904839 0.483223
Si Si4 0.538006 0.744071 0.787501
Si Si5 0.460101 0.259510 0.293388
O O1 0.710369 0.575525 0.886335
O O2 0.450119 0.586887 0.876385
O O3 0.565198 0.608346 0.940487
O O4 0.750000 0.250000 0.131502
O O5 0.572547 0.257362 0.182575
O O6 0.734423 0.442819 0.173386
O O7 0.742431 0.930078 0.494647
O O8 0.000000 0.000000 0.500000
O O9 0.626830 0.619177 0.793264
O O10 0.476088 0.739326 0.746949
O O11 0.371184 0.383365 0.297394
#
# Coordination Sequence:
#
# PCOD8315635 Si02
#       5
#    16  16  16  16  16
#     4   9  20  41  64  84 118 158 193 237 292 355
#     4  12  24  33  53  87 112 145 196 249 297 359
#     4   9  19  40  67  99 130 166 207 253 305 366
#     4   9  19  37  58  75  98 144 203 255 309 360
#     4   9  21  39  53  70 106 153 195 248 314 364
#
# _framework density 20.278220000000001
#
# number of rings (size 3 to 8) (size 9 to 14) (size 15 to 20)
#    0.000    2.400    0.000    4.200    5.600    3.600 
#    7.200    0.000    0.000    2.400    0.000    0.000 
#    0.000    0.000    0.000    0.000    0.000    0.000 
#
# Total GULP energy -991063.794976 kJ/mol
# GULP energy per Si atom -12388.297437 kJ/mol
# Density = 2.023207 g / cm^3
# Si number density = 20.278220 Si / 1000 Ang^3
#
#
#
# Elastic Constant Matrix: (Units=GPa)
#
#
# Indices 1 2 3 4 5 6 
#
# 1 81.7311 35.3555 32.9135 0.0000 0.0000 0.0000
# 2 35.3555 81.7311 32.9135 0.0000 0.0000 0.0000
# 3 32.9135 32.9135 63.0078 0.0000 0.0000 0.0000
# 4 0.0000 0.0000 0.0000 29.6552 0.0000 0.0000
# 5 0.0000 0.0000 0.0000 0.0000 29.6552 0.0000
# 6 0.0000 0.0000 0.0000 0.0000 0.0000 30.0045
#
#
#
# Elastic Compliance Matrix: (Units=1/GPa)
#
#
# Indices 1 2 3 4 5 6 
#
# 1 0.016827 -0.004736 -0.006316 0.000000 0.000000 0.000000
# 2 -0.004736 0.016827 -0.006316 0.000000 0.000000 0.000000
# 3 -0.006316 -0.006316 0.022470 0.000000 0.000000 0.000000
# 4 0.000000 0.000000 0.000000 0.033721 0.000000 0.000000
# 5 0.000000 0.000000 0.000000 0.000000 0.033721 0.000000
# 6 0.000000 0.000000 0.000000 0.000000 0.000000 0.033328
#
#
# Mechanical properties :
#
#
# Convention : Reuss Voigt Hill
#
# Bulk Modulus (GPa) = 46.75511 47.64833 47.20172
# Shear Modulus (GPa) = 25.15577 26.21546 25.68562
#
# Velocity S-wave (km/s) = 3.52594 3.59944 3.56288
# Velocity P-wave (km/s) = 6.29946 6.38928 6.34453
#
# Compressibility (1/GPa) = 0.02138804
#
# Stress axis : x y z
#
# Youngs Moduli (GPa) = 59.42671 59.42671 44.50353
#
# Poissons Ratio (x) = 0.28142 0.28110
# Poissons Ratio (y) = 0.28142 0.28110
# Poissons Ratio (z) = 0.37537 0.37537
#
# Static dielectric constant tensor:
#      x y z
#    x 3.679380 0.000000 0.000000 
#    y 0.000000 3.679380 0.000000 
#    z 0.000000 0.000000 3.511830 
# 
# 
# High freq. dielectric constant tensor:
#      x y z
#    x 1.789310 0.000000 0.000000 
#    y 0.000000 1.789310 0.000000 
#    z 0.000000 0.000000 1.771300 
# 
# From -- ./inp_files/4791.got.cif
#   From: 2010.03.12/outbox.cif.g09.slc.cpg/sg130_3_cif.got.tgz:4791.got - 2010.04.06 17:30:23.
