data_PCOD8315170
_publ_section_title
;
Structure prediction by ZEFSAII (Michael W. Deem and Ramdas Pophale) SiO2 
 PCOD8315170
Probable space group: P 4/N M M
;
_chemical_formula_sum "Si O2"
_cell_formula_units_Z 112
_cell_length_a 17.597254
_cell_length_b 17.597254
_cell_length_c 21.569874
_cell_angle_alpha 90.000000
_cell_angle_beta 90.000000
_cell_angle_gamma 90.000000
_cell_volume 6679.399406
_symmetry_space_group_name_H-M "P 4/N M M"
_symmetry_group_IT_number 129
_symmetry_cell_setting 'tetragonal'
loop_
_space_group_symop_operation_xyz
x,y,z
1/2-y,x,z
1/2-x,1/2-y,z
y,1/2-x,z
1/2+x,-y,-z
-x,1/2+y,-z
1/2+y,1/2+x,-z
-y,-x,-z
-x,-y,-z
1/2+y,-x,-z
1/2+x,1/2+y,-z
-y,1/2+x,-z
1/2-x,y,z
x,1/2-y,z
1/2-y,1/2-x,z
y,x,z
loop_
_atom_site_type_symbol
_atom_site_label
_atom_site_fract_x
_atom_site_fract_y
_atom_site_fract_z
Si Si1 0.542817 0.837658 0.241832
Si Si2 0.336797 0.663204 0.926959
Si Si3 0.462416 0.662854 0.633752
Si Si4 0.437659 0.937659 0.159252
Si Si5 0.542815 0.662342 0.758169
Si Si6 0.336148 0.957789 0.500000
Si Si7 0.337146 0.962417 0.633752
O O1 0.550333 0.750000 0.224566
O O2 0.622997 0.877004 0.226888
O O3 0.476686 0.873401 0.200634
O O4 0.525298 0.852345 0.314230
O O5 0.250000 0.644013 0.907011
O O6 0.355988 0.750000 0.907010
O O7 0.396113 0.603886 0.897507
O O8 0.345628 0.654373 0.000000
O O9 0.434431 0.750000 0.637850
O O10 0.525297 0.647655 0.685770
O O11 0.500654 0.645131 0.565385
O O12 0.389683 0.610317 0.645860
O O13 0.500000 0.000001 0.135972
O O14 0.373400 0.976684 0.200634
O O15 0.550333 0.750000 0.775434
O O16 0.622994 0.622994 0.773113
O O17 0.378428 0.878428 0.500000
O O18 0.250000 0.933401 0.500000
O O19 0.354869 0.000654 0.565385
O O20 0.250000 0.934432 0.637850
#
# Coordination Sequence:
#
# PCOD8315170 Si02
#       7
#    16  16  16  16  16  16  16
#     4  10  20  33  49  68  93 125 159 198 240 282
#     4   9  18  33  53  77 106 137 164 190 222 268
#     4   9  16  27  42  62  90 120 154 195 238 287
#     4  10  19  32  52  75 101 128 158 199 239 274
#     4  10  20  33  49  68  93 125 159 198 240 282
#     4   8  14  23  37  57  82 116 152 189 236 285
#     4   9  16  27  42  62  90 120 154 195 238 287
#
# _framework density 16.767975
#
# number of rings (size 3 to 8) (size 9 to 14) (size 15 to 20)
#    0.000    2.714    1.429    1.286    0.000    1.000 
#    0.000    3.571    0.000    2.571    0.000    0.000 
#    0.000    5.714    0.000   26.571    0.000    0.000 
#
# Total GULP energy -1387479.932374 kJ/mol
# GULP energy per Si atom -12388.213682 kJ/mol
# Density = 1.672981 g / cm^3
# Si number density = 16.767975 Si / 1000 Ang^3
#
#
#
# Elastic Constant Matrix: (Units=GPa)
#
#
# Indices 1 2 3 4 5 6 
#
# 1 91.6926 55.9124 40.7625 0.0000 0.0000 0.0000
# 2 55.9124 91.6927 40.7626 0.0000 0.0000 0.0000
# 3 40.7625 40.7626 74.6444 0.0000 0.0000 0.0000
# 4 0.0000 0.0000 0.0000 21.8539 0.0000 0.0000
# 5 0.0000 0.0000 0.0000 0.0000 21.8539 0.0000
# 6 0.0000 0.0000 0.0000 0.0000 0.0000 22.1700
#
#
#
# Elastic Compliance Matrix: (Units=1/GPa)
#
#
# Indices 1 2 3 4 5 6 
#
# 1 0.018825 -0.009124 -0.005297 0.000000 0.000000 0.000000
# 2 -0.009124 0.018825 -0.005297 0.000000 0.000000 0.000000
# 3 -0.005297 -0.005297 0.019183 0.000000 0.000000 0.000000
# 4 0.000000 0.000000 0.000000 0.045758 0.000000 0.000000
# 5 0.000000 0.000000 0.000000 0.000000 0.045759 0.000000
# 6 0.000000 0.000000 0.000000 0.000000 0.000000 0.045106
#
#
# Mechanical properties :
#
#
# Convention : Reuss Voigt Hill
#
# Bulk Modulus (GPa) = 57.49037 59.21163 58.35100
# Shear Modulus (GPa) = 20.94765 21.21504 21.08134
#
# Velocity S-wave (km/s) = 3.53833 3.56084 3.54960
# Velocity P-wave (km/s) = 7.14516 7.23154 7.18848
#
# Compressibility (1/GPa) = 0.01739422
#
# Stress axis : x y z
#
# Youngs Moduli (GPa) = 53.12210 53.12211 52.13048
#
# Poissons Ratio (x) = 0.48468 0.27616
# Poissons Ratio (y) = 0.48468 0.27616
# Poissons Ratio (z) = 0.28141 0.28141
#
# Static dielectric constant tensor:
#      x y z
#    x 2.986720 0.000000 0.000000 
#    y 0.000000 2.986720 0.000000 
#    z 0.000000 0.000000 3.260070 
# 
# 
# High freq. dielectric constant tensor:
#      x y z
#    x 1.632580 0.000000 0.000000 
#    y 0.000000 1.632580 0.000000 
#    z 0.000000 0.000000 1.647260 
# 
# From -- ./inp_files/6646.got.cif
#   From: 2010.03.12/outbox.cif.g09.slc.cpg/sg129_4_cif.got.tgz:6646.got - 2010.04.06 17:19:44.
