data_PCOD8315478
_publ_section_title
;
Structure prediction by ZEFSAII (Michael W. Deem and Ramdas Pophale) SiO2 
 PCOD8315478
Probable space group: P 4/N C C
;
_chemical_formula_sum "Si O2"
_cell_formula_units_Z 80
_cell_length_a 14.312680
_cell_length_b 14.312680
_cell_length_c 15.982429
_cell_angle_alpha 90.000000
_cell_angle_beta 90.000000
_cell_angle_gamma 90.000000
_cell_volume 3274.045472
_symmetry_space_group_name_H-M "P 4/N C C"
_symmetry_group_IT_number 130
_symmetry_cell_setting 'tetragonal'
loop_
_space_group_symop_operation_xyz
x,y,z
1/2-y,x,z
1/2-x,1/2-y,z
y,1/2-x,z
1/2+x,-y,1/2-z
-x,1/2+y,1/2-z
1/2+y,1/2+x,1/2-z
-y,-x,1/2-z
-x,-y,-z
1/2+y,-x,-z
1/2+x,1/2+y,-z
-y,1/2+x,-z
1/2-x,y,1/2+z
x,1/2-y,1/2+z
1/2-y,1/2-x,1/2+z
y,x,1/2+z
loop_
_atom_site_type_symbol
_atom_site_label
_atom_site_fract_x
_atom_site_fract_y
_atom_site_fract_z
Si Si1 0.822776 0.176315 0.379157
Si Si2 0.169744 0.121217 0.020375
Si Si3 0.068660 0.517981 0.425465
Si Si4 0.920098 0.928552 0.805844
Si Si5 0.753545 0.031640 0.251134
O O1 0.750000 0.250000 0.419682
O O2 0.878264 0.112035 0.445547
O O3 0.758449 0.110541 0.322323
O O4 0.911964 0.224439 0.333332
O O5 0.279586 0.122045 0.016625
O O6 0.137482 0.077239 0.107746
O O7 0.144044 0.063955 0.935839
O O8 0.000000 0.500000 0.500000
O O9 0.018344 0.517973 0.332581
O O10 0.947531 0.828515 0.765976
O O11 0.851196 0.988193 0.745827
#
# Coordination Sequence:
#
# PCOD8315478 Si02
#       5
#    16  16  16  16  16
#     4  10  22  44  63  92 135 173 224 279 352 412
#     4  10  19  35  61  89 128 172 220 282 337 403
#     4   9  21  40  65  95 132 175 225 281 338 408
#     4  10  19  36  63  91 127 170 229 273 341 416
#     4  10  20  37  62  95 125 176 224 282 338 421
#
# _framework density 24.434602000000002
#
# number of rings (size 3 to 8) (size 9 to 14) (size 15 to 20)
#    0.000    2.200    2.000    1.200    0.000    2.000 
#   18.000    0.000    0.000    4.800    0.000    0.000 
#    0.000    0.000    0.000    0.000    0.000    0.000 
#
# Total GULP energy -991118.202217 kJ/mol
# GULP energy per Si atom -12388.977528 kJ/mol
# Density = 2.437899 g / cm^3
# Si number density = 24.434602 Si / 1000 Ang^3
#
#
#
# Elastic Constant Matrix: (Units=GPa)
#
#
# Indices 1 2 3 4 5 6 
#
# 1 119.5271 41.4021 12.5302 0.0000 0.0000 0.0000
# 2 41.4021 119.5271 12.5302 0.0000 0.0000 0.0000
# 3 12.5302 12.5302 35.5852 0.0000 0.0000 0.0000
# 4 0.0000 0.0000 0.0000 31.9057 0.0000 0.0000
# 5 0.0000 0.0000 0.0000 0.0000 31.9057 0.0000
# 6 0.0000 0.0000 0.0000 0.0000 0.0000 68.5438
#
#
#
# Elastic Compliance Matrix: (Units=1/GPa)
#
#
# Indices 1 2 3 4 5 6 
#
# 1 0.009687 -0.003113 -0.002315 0.000000 0.000000 0.000000
# 2 -0.003113 0.009687 -0.002315 0.000000 0.000000 0.000000
# 3 -0.002315 -0.002315 0.029732 0.000000 0.000000 0.000000
# 4 0.000000 0.000000 0.000000 0.031342 0.000000 0.000000
# 5 0.000000 0.000000 0.000000 0.000000 0.031342 0.000000
# 6 0.000000 0.000000 0.000000 0.000000 0.000000 0.014589
#
#
# Mechanical properties :
#
#
# Convention : Reuss Voigt Hill
#
# Bulk Modulus (GPa) = 29.74351 45.28494 37.51423
# Shear Modulus (GPa) = 32.66424 40.34951 36.50687
#
# Velocity S-wave (km/s) = 3.66020 4.06806 3.86951
# Velocity P-wave (km/s) = 5.48287 6.37486 5.94562
#
# Compressibility (1/GPa) = 0.03362078
#
# Stress axis : x y z
#
# Youngs Moduli (GPa) = 103.22903 103.22903 33.63398
#
# Poissons Ratio (x) = 0.32133 0.07786
# Poissons Ratio (y) = 0.32133 0.07786
# Poissons Ratio (z) = 0.23897 0.23897
#
# Static dielectric constant tensor:
#      x y z
#    x 6.140780 0.000000 0.000000 
#    y 0.000000 6.140780 0.000000 
#    z 0.000000 0.000000 3.675920 
# 
# 
# High freq. dielectric constant tensor:
#      x y z
#    x 1.981070 0.000000 0.000000 
#    y 0.000000 1.981070 0.000000 
#    z 0.000000 0.000000 1.946090 
# 
# From -- ./inp_files/3620.got.cif
#   From: 2010.03.12/outbox.cif.g09.slc.cpg/sg130_2_cif.got.tgz:3620.got - 2010.04.06 17:30:23.
