data_PCOD8315608
_publ_section_title
;
Structure prediction by ZEFSAII (Michael W. Deem and Ramdas Pophale) SiO2 
 PCOD8315608
Probable space group: P 4/N C C
;
_chemical_formula_sum "Si O2"
_cell_formula_units_Z 72
_cell_length_a 15.522308
_cell_length_b 15.522308
_cell_length_c 14.404869
_cell_angle_alpha 90.000000
_cell_angle_beta 90.000000
_cell_angle_gamma 90.000000
_cell_volume 3470.738604
_symmetry_space_group_name_H-M "P 4/N C C"
_symmetry_group_IT_number 130
_symmetry_cell_setting 'tetragonal'
loop_
_space_group_symop_operation_xyz
x,y,z
1/2-y,x,z
1/2-x,1/2-y,z
y,1/2-x,z
1/2+x,-y,1/2-z
-x,1/2+y,1/2-z
1/2+y,1/2+x,1/2-z
-y,-x,1/2-z
-x,-y,-z
1/2+y,-x,-z
1/2+x,1/2+y,-z
-y,1/2+x,-z
1/2-x,y,1/2+z
x,1/2-y,1/2+z
1/2-y,1/2-x,1/2+z
y,x,1/2+z
loop_
_atom_site_type_symbol
_atom_site_label
_atom_site_fract_x
_atom_site_fract_y
_atom_site_fract_z
Si Si1 0.014794 0.514794 0.750000
Si Si2 0.836714 0.490293 0.854484
Si Si3 0.215206 0.385203 0.984222
Si Si4 0.201504 0.669917 0.357807
Si Si5 0.003056 0.793411 0.183311
O O1 0.932089 0.512866 0.817540
O O2 0.105050 0.514431 0.802937
O O3 0.840447 0.394293 0.896766
O O4 0.763259 0.506438 0.776719
O O5 0.810928 0.543206 0.943407
O O6 0.146600 0.310972 0.001871
O O7 0.215289 0.418090 0.878543
O O8 0.250000 0.750000 0.406742
O O9 0.189853 0.689853 0.250000
O O10 0.258025 0.584803 0.374137
#
# Coordination Sequence:
#
# PCOD8315608 Si02
#       5
#     8  16  16  16  16
#     4  12  22  38  72  98 128 188 218 278 356 400
#     4  11  22  44  65  99 135 171 235 281 346 412
#     4  11  26  44  64  94 135 182 228 281 337 403
#     4   9  18  38  63  88 129 167 211 281 340 401
#     4  11  22  42  66  96 134 170 230 278 339 410
#
# _framework density 20.744864
#
# number of rings (size 3 to 8) (size 9 to 14) (size 15 to 20)
#    0.000    1.333    3.333    5.333    0.000    0.889 
#    8.000    2.222    0.000    0.000    0.000    0.000 
#    0.000    0.000    0.000    0.000    0.000    0.000 
#
# Total GULP energy -892534.844771 kJ/mol
# GULP energy per Si atom -12396.317288 kJ/mol
# Density = 2.069765 g / cm^3
# Si number density = 20.744864 Si / 1000 Ang^3
#
#
#
# Elastic Constant Matrix: (Units=GPa)
#
#
# Indices 1 2 3 4 5 6 
#
# 1 175.2831 52.4079 37.1761 0.0000 0.0000 0.0000
# 2 52.4079 175.2831 37.1761 0.0000 0.0000 0.0000
# 3 37.1761 37.1761 58.8482 0.0000 0.0000 0.0000
# 4 0.0000 0.0000 0.0000 38.7546 0.0000 0.0000
# 5 0.0000 0.0000 0.0000 0.0000 38.7546 0.0000
# 6 0.0000 0.0000 0.0000 0.0000 0.0000 143.9562
#
#
#
# Elastic Compliance Matrix: (Units=1/GPa)
#
#
# Indices 1 2 3 4 5 6 
#
# 1 0.006836 -0.001302 -0.003496 0.000000 0.000000 0.000000
# 2 -0.001302 0.006836 -0.003496 0.000000 0.000000 0.000000
# 3 -0.003496 -0.003496 0.021409 0.000000 0.000000 0.000000
# 4 0.000000 0.000000 0.000000 0.025803 0.000000 0.000000
# 5 0.000000 0.000000 0.000000 0.000000 0.025803 0.000000
# 6 0.000000 0.000000 0.000000 0.000000 0.000000 0.006947
#
#
# Mechanical properties :
#
#
# Convention : Reuss Voigt Hill
#
# Bulk Modulus (GPa) = 54.07218 73.65940 63.86579
# Shear Modulus (GPa) = 42.96034 63.13672 53.04853
#
# Velocity S-wave (km/s) = 4.55564 5.52277 5.06235
# Velocity P-wave (km/s) = 7.33442 8.73226 8.06368
#
# Compressibility (1/GPa) = 0.01849380
#
# Stress axis : x y z
#
# Youngs Moduli (GPa) = 146.28718 146.28718 46.70838
#
# Poissons Ratio (x) = 0.19053 0.16327
# Poissons Ratio (y) = 0.19053 0.16327
# Poissons Ratio (z) = 0.51136 0.51136
#
# Static dielectric constant tensor:
#      x y z
#    x 4.272080 0.000000 0.000000 
#    y 0.000000 4.272080 0.000000 
#    z 0.000000 0.000000 3.382450 
# 
# 
# High freq. dielectric constant tensor:
#      x y z
#    x 1.832000 0.000000 0.000000 
#    y 0.000000 1.832000 0.000000 
#    z 0.000000 0.000000 1.789340 
# 
# From -- ./inp_files/2955.got.cif
#   From: 2010.03.12/outbox.cif.g09.slc.cpg/sg130_2_cif.got.tgz:2955.got - 2010.04.06 17:30:23.
