data_PCOD8315118
_publ_section_title
;
Structure prediction by ZEFSAII (Michael W. Deem and Ramdas Pophale) SiO2 
 PCOD8315118
Probable space group: P 4/N M M
;
_chemical_formula_sum "Si O2"
_cell_formula_units_Z 72
_cell_length_a 19.260942
_cell_length_b 19.260942
_cell_length_c 11.410344
_cell_angle_alpha 90.000000
_cell_angle_beta 90.000000
_cell_angle_gamma 90.000000
_cell_volume 4233.053766
_symmetry_space_group_name_H-M "P 4/N M M"
_symmetry_group_IT_number 129
_symmetry_cell_setting 'tetragonal'
loop_
_space_group_symop_operation_xyz
x,y,z
1/2-y,x,z
1/2-x,1/2-y,z
y,1/2-x,z
1/2+x,-y,-z
-x,1/2+y,-z
1/2+y,1/2+x,-z
-y,-x,-z
-x,-y,-z
1/2+y,-x,-z
1/2+x,1/2+y,-z
-y,1/2+x,-z
1/2-x,y,z
x,1/2-y,z
1/2-y,1/2-x,z
y,x,z
loop_
_atom_site_type_symbol
_atom_site_label
_atom_site_fract_x
_atom_site_fract_y
_atom_site_fract_z
Si Si1 0.169323 0.938217 0.186743
Si Si2 0.055960 0.168957 0.741991
Si Si3 0.939377 0.828314 0.989060
Si Si4 0.047649 0.565418 0.364199
Si Si5 0.829057 0.329057 0.000000
O O1 0.250000 0.939474 0.226308
O O2 0.121171 0.942207 0.299930
O O3 0.149233 0.868769 0.117226
O O4 0.151294 0.999508 0.097707
O O5 0.065782 0.250000 0.708174
O O6 0.128221 0.128221 0.715455
O O7 0.992879 0.136376 0.667388
O O8 0.035355 0.159655 0.878004
O O9 0.914929 0.750000 0.970579
O O10 0.873666 0.873666 0.955527
O O11 0.065687 0.565687 0.500000
O O12 0.999790 0.500211 0.328718
O O13 0.845049 0.250000 0.968659
#
# Coordination Sequence:
#
# PCOD8315118 Si02
#       5
#    16  16  16  16   8
#     4  10  19  31  49  71  93 122 160 197 234 280
#     4   9  18  32  51  75 100 127 158 193 238 288
#     4   9  17  29  47  72  99 125 154 191 237 288
#     4  10  21  35  49  67  94 128 164 202 244 284
#     4   9  18  32  49  70  96 122 147 182 232 285
#
# _framework density 17.008997000000001
#
# number of rings (size 3 to 8) (size 9 to 14) (size 15 to 20)
#    0.000    2.556    0.000    2.000    0.000    4.000 
#    0.000    6.667    0.000    0.000    0.000    1.556 
#    0.000    5.333    0.000    0.000    0.000    0.000 
#
# Total GULP energy -892767.465825 kJ/mol
# GULP energy per Si atom -12399.548136 kJ/mol
# Density = 1.697028 g / cm^3
# Si number density = 17.008997 Si / 1000 Ang^3
#
#
#
# Elastic Constant Matrix: (Units=GPa)
#
#
# Indices 1 2 3 4 5 6 
#
# 1 107.3686 61.5150 60.0876 0.0000 0.0000 0.0000
# 2 61.5150 107.3686 60.0876 0.0000 0.0000 0.0000
# 3 60.0876 60.0876 86.7116 0.0000 0.0000 0.0000
# 4 0.0000 0.0000 0.0000 21.5347 0.0000 0.0000
# 5 0.0000 0.0000 0.0000 0.0000 21.5347 0.0000
# 6 0.0000 0.0000 0.0000 0.0000 0.0000 24.2912
#
#
#
# Elastic Compliance Matrix: (Units=1/GPa)
#
#
# Indices 1 2 3 4 5 6 
#
# 1 0.016745 -0.005064 -0.008095 0.000000 0.000000 0.000000
# 2 -0.005064 0.016745 -0.008095 0.000000 0.000000 0.000000
# 3 -0.008095 -0.008095 0.022751 0.000000 0.000000 0.000000
# 4 0.000000 0.000000 0.000000 0.046437 0.000000 0.000000
# 5 0.000000 0.000000 0.000000 0.000000 0.046437 0.000000
# 6 0.000000 0.000000 0.000000 0.000000 0.000000 0.041167
#
#
# Mechanical properties :
#
#
# Convention : Reuss Voigt Hill
#
# Bulk Modulus (GPa) = 72.80687 73.86990 73.33838
# Shear Modulus (GPa) = 21.06457 21.45603 21.26030
#
# Velocity S-wave (km/s) = 3.52296 3.55555 3.53929
# Velocity P-wave (km/s) = 7.71013 7.77046 7.74036
#
# Compressibility (1/GPa) = 0.01373497
#
# Stress axis : x y z
#
# Youngs Moduli (GPa) = 59.71969 59.71969 43.95419
#
# Poissons Ratio (x) = 0.30240 0.35579
# Poissons Ratio (y) = 0.30240 0.35579
# Poissons Ratio (z) = 0.48341 0.48341
#
# Static dielectric constant tensor:
#      x y z
#    x 3.272770 0.000000 0.000000 
#    y 0.000000 3.272770 0.000000 
#    z 0.000000 0.000000 2.136070 
# 
# 
# High freq. dielectric constant tensor:
#      x y z
#    x 1.662280 0.000000 0.000000 
#    y 0.000000 1.662280 0.000000 
#    z 0.000000 0.000000 1.636590 
# 
# From -- ./inp_files/2296.got.cif
#   From: 2010.03.12/outbox.cif.g09.slc.cpg/sg129_2_cif.got.tgz:2296.got - 2010.04.06 17:19:44.
