data_PCOD8315603
_publ_section_title
;
Structure prediction by ZEFSAII (Michael W. Deem and Ramdas Pophale) SiO2 
 PCOD8315603
Probable space group: P 4/N C C
;
_chemical_formula_sum "Si O2"
_cell_formula_units_Z 96
_cell_length_a 24.741043
_cell_length_b 24.741043
_cell_length_c 8.611100
_cell_angle_alpha 90.000000
_cell_angle_beta 90.000000
_cell_angle_gamma 90.000000
_cell_volume 5271.019718
_symmetry_space_group_name_H-M "P 4/N C C"
_symmetry_group_IT_number 130
_symmetry_cell_setting 'tetragonal'
loop_
_space_group_symop_operation_xyz
x,y,z
1/2-y,x,z
1/2-x,1/2-y,z
y,1/2-x,z
1/2+x,-y,1/2-z
-x,1/2+y,1/2-z
1/2+y,1/2+x,1/2-z
-y,-x,1/2-z
-x,-y,-z
1/2+y,-x,-z
1/2+x,1/2+y,-z
-y,1/2+x,-z
1/2-x,y,1/2+z
x,1/2-y,1/2+z
1/2-y,1/2-x,1/2+z
y,x,1/2+z
loop_
_atom_site_type_symbol
_atom_site_label
_atom_site_fract_x
_atom_site_fract_y
_atom_site_fract_z
Si Si1 0.484357 0.684730 0.848696
Si Si2 0.863593 0.321536 0.603853
Si Si3 0.638056 0.203881 0.152365
Si Si4 0.913712 0.006264 0.822736
Si Si5 0.798834 0.476862 0.206104
Si Si6 0.076998 0.005360 0.811523
O O1 0.422809 0.665291 0.833872
O O2 0.499334 0.741362 0.765854
O O3 0.516142 0.636279 0.763551
O O4 0.496409 0.692695 0.030369
O O5 0.824065 0.324065 0.750000
O O6 0.844865 0.364541 0.473630
O O7 0.860469 0.258605 0.551608
O O8 0.692901 0.192901 0.250000
O O9 0.588083 0.201664 0.272724
O O10 0.942050 0.957422 0.732015
O O11 0.849315 0.000663 0.802458
O O12 0.937656 0.062345 0.750000
O O13 0.923586 0.000935 0.004381
O O14 0.049199 0.950802 0.750000
#
# Coordination Sequence:
#
# PCOD8315603 Si02
#       6
#    16  16  16  16  16  16
#     4  11  23  38  55  78 105 141 180 222 274 332
#     4  11  24  33  51  66  93 127 176 223 278 325
#     4  11  22  37  48  68  91 130 173 227 277 322
#     4  11  22  37  59  84 112 143 181 228 277 329
#     4  11  23  37  56  76 106 140 179 222 274 330
#     4  11  22  37  58  84 111 142 182 227 278 330
#
# _framework density 18.212793999999999
#
# number of rings (size 3 to 8) (size 9 to 14) (size 15 to 20)
#    0.000    1.000    1.667    7.000   11.667    2.000 
#    0.000    0.000    0.000    0.000    0.000    0.000 
#    0.000    0.667    0.000    6.667    0.000    4.000 
#
# Total GULP energy -1189731.657673 kJ/mol
# GULP energy per Si atom -12393.038101 kJ/mol
# Density = 1.817134 g / cm^3
# Si number density = 18.212794 Si / 1000 Ang^3
#
#
#
# Elastic Constant Matrix: (Units=GPa)
#
#
# Indices 1 2 3 4 5 6 
#
# 1 71.9617 19.8733 11.1570 0.0000 0.0000 0.0000
# 2 19.8733 71.9590 11.1555 0.0000 0.0000 0.0000
# 3 11.1570 11.1555 105.6300 0.0000 0.0000 0.0000
# 4 0.0000 0.0000 0.0000 28.6371 0.0000 0.0000
# 5 0.0000 0.0000 0.0000 0.0000 28.6371 0.0000
# 6 0.0000 0.0000 0.0000 0.0000 0.0000 21.8164
#
#
#
# Elastic Compliance Matrix: (Units=1/GPa)
#
#
# Indices 1 2 3 4 5 6 
#
# 1 0.015187 -0.004011 -0.001180 0.000000 0.000000 0.000000
# 2 -0.004011 0.015188 -0.001180 0.000000 0.000000 0.000000
# 3 -0.001180 -0.001180 0.009716 0.000000 0.000000 0.000000
# 4 0.000000 0.000000 0.000000 0.034920 0.000000 0.000000
# 5 0.000000 0.000000 0.000000 0.000000 0.034920 0.000000
# 6 0.000000 0.000000 0.000000 0.000000 0.000000 0.045837
#
#
# Mechanical properties :
#
#
# Convention : Reuss Voigt Hill
#
# Bulk Modulus (GPa) = 36.56714 37.10245 36.83480
# Shear Modulus (GPa) = 28.14884 29.64245 28.89565
#
# Velocity S-wave (km/s) = 3.93562 4.03868 3.98748
# Velocity P-wave (km/s) = 6.38541 6.49337 6.43961
#
# Compressibility (1/GPa) = 0.02734696
#
# Stress axis : x y z
#
# Youngs Moduli (GPa) = 65.84546 65.84322 102.91937
#
# Poissons Ratio (x) = 0.26412 0.12149
# Poissons Ratio (y) = 0.26412 0.12147
# Poissons Ratio (z) = 0.07773 0.07771
#
# Static dielectric constant tensor:
#      x y z
#    x 3.224300 0.000000 0.000000 
#    y 0.000000 3.224300 0.000000 
#    z 0.000000 0.000000 3.533830 
# 
# 
# High freq. dielectric constant tensor:
#      x y z
#    x 1.675890 0.000000 0.000000 
#    y 0.000000 1.675890 0.000000 
#    z 0.000000 0.000000 1.733980 
# 
# From -- ./inp_files/929.got.cif
#   From: 2010.03.12/outbox.cif.g09.slc.cpg/sg130_1_cif.got.tgz:929.got - 2010.04.06 17:30:23.
