data_PCOD8315841
_publ_section_title
;
Structure prediction by ZEFSAII (Michael W. Deem and Ramdas Pophale) SiO2 
 PCOD8315841
Probable space group: P 42/M M C
;
_chemical_formula_sum "Si O2"
_cell_formula_units_Z 120
_cell_length_a 17.951786
_cell_length_b 17.951786
_cell_length_c 24.036120
_cell_angle_alpha 90.000000
_cell_angle_beta 90.000000
_cell_angle_gamma 90.000000
_cell_volume 7746.039164
_symmetry_space_group_name_H-M "P 42/M M C"
_symmetry_group_IT_number 131
_symmetry_cell_setting 'tetragonal'
loop_
_space_group_symop_operation_xyz
x,y,z
-x,-y,z
-y,x,1/2+z
y,-x,1/2+z
-x,y,-z
x,-y,-z
y,x,1/2-z
-y,-x,1/2-z
-x,-y,-z
x,y,-z
y,-x,1/2-z
-y,x,1/2-z
x,-y,z
-x,y,z
-y,-x,1/2+z
y,x,1/2+z
loop_
_atom_site_type_symbol
_atom_site_label
_atom_site_fract_x
_atom_site_fract_y
_atom_site_fract_z
Si Si1 0.415158 0.793445 0.244334
Si Si2 0.583650 0.361720 0.807034
Si Si3 0.086531 0.771841 0.138604
Si Si4 0.414408 0.277165 0.363302
Si Si5 0.837668 0.651248 0.065845
Si Si6 0.141033 0.915178 0.808073
Si Si7 0.500000 0.083002 0.566026
Si Si8 0.702745 0.915818 0.757459
O O1 0.500000 0.819998 0.238395
O O2 0.397769 0.724823 0.203611
O O3 0.398502 0.768599 0.307146
O O4 0.363510 0.861285 0.225452
O O5 0.592501 0.407500 0.750000
O O6 0.500000 0.371868 0.828781
O O7 0.636701 0.393851 0.854740
O O8 0.127044 0.727099 0.089366
O O9 0.114993 0.857279 0.144265
O O10 0.103471 0.729708 0.195692
O O11 0.000000 0.773941 0.123967
O O12 0.500000 0.270715 0.382117
O O13 0.360166 0.246050 0.411546
O O14 0.879714 0.576356 0.087734
O O15 0.838266 0.658098 0.000000
O O16 0.098246 0.901755 0.750000
O O17 0.229209 0.904007 0.799743
O O18 0.123879 0.000000 0.827377
O O19 0.500000 0.084060 0.500000
O O20 0.500000 0.000000 0.590198
O O21 0.672626 0.000000 0.760540
#
# Coordination Sequence:
#
# PCOD8315841 Si02
#       8
#    16  16  16  16  16  16   8  16
#     4   9  17  28  42  65  95 126 156 181 217 271
#     4   9  18  29  46  70  95 122 151 186 223 266
#     4  10  20  31  46  68  91 120 156 190 229 274
#     4  10  19  30  46  67  89 120 157 188 226 271
#     4  11  21  33  47  66  90 117 157 199 232 271
#     4   9  18  30  48  72  96 123 153 188 226 271
#     4   9  18  32  48  62  83 115 145 187 238 270
#     4   9  17  28  42  65  96 126 154 181 218 270
#
# _framework density 15.491789000000001
#
# number of rings (size 3 to 8) (size 9 to 14) (size 15 to 20)
#    0.000    2.467    2.000    2.800    1.867    4.533 
#    0.000    0.000    0.000    0.800    0.000    1.867 
#    0.000    0.000    0.000    0.000    0.000   11.733 
#
# Total GULP energy -1487820.047465 kJ/mol
# GULP energy per Si atom -12398.500396 kJ/mol
# Density = 1.545653 g / cm^3
# Si number density = 15.491789 Si / 1000 Ang^3
#
#
#
# Elastic Constant Matrix: (Units=GPa)
#
#
# Indices 1 2 3 4 5 6 
#
# 1 97.9585 58.9585 31.9348 0.0000 0.0000 0.0000
# 2 58.9585 97.9571 31.9351 0.0000 0.0000 0.0000
# 3 31.9348 31.9351 48.5874 0.0000 0.0000 0.0000
# 4 0.0000 0.0000 0.0000 14.8157 0.0000 0.0000
# 5 0.0000 0.0000 0.0000 0.0000 14.8159 0.0000
# 6 0.0000 0.0000 0.0000 0.0000 0.0000 30.5684
#
#
#
# Elastic Compliance Matrix: (Units=1/GPa)
#
#
# Indices 1 2 3 4 5 6 
#
# 1 0.017171 -0.008471 -0.005718 0.000000 0.000000 0.000000
# 2 -0.008471 0.017171 -0.005719 0.000000 0.000000 0.000000
# 3 -0.005718 -0.005719 0.028099 0.000000 0.000000 0.000000
# 4 0.000000 0.000000 0.000000 0.067496 0.000000 0.000000
# 5 0.000000 0.000000 0.000000 0.000000 0.067495 0.000000
# 6 0.000000 0.000000 0.000000 0.000000 0.000000 0.032714
#
#
# Mechanical properties :
#
#
# Convention : Reuss Voigt Hill
#
# Bulk Modulus (GPa) = 44.19800 54.46220 49.33010
# Shear Modulus (GPa) = 18.01788 20.15163 19.08475
#
# Velocity S-wave (km/s) = 3.41407 3.61057 3.51369
# Velocity P-wave (km/s) = 6.64327 7.25351 6.95509
#
# Compressibility (1/GPa) = 0.02262546
#
# Stress axis : x y z
#
# Youngs Moduli (GPa) = 58.23848 58.23718 35.58889
#
# Poissons Ratio (x) = 0.49330 0.20351
# Poissons Ratio (y) = 0.49331 0.20352
# Poissons Ratio (z) = 0.33303 0.33304
#
# Static dielectric constant tensor:
#      x y z
#    x 3.043080 0.000000 0.000000 
#    y 0.000000 3.043080 0.000000 
#    z 0.000000 0.000000 2.524590 
# 
# 
# High freq. dielectric constant tensor:
#      x y z
#    x 1.600290 0.000000 0.000000 
#    y 0.000000 1.600290 0.000000 
#    z 0.000000 0.000000 1.536550 
# 
# From -- ./inp_files/11531.got.cif
#   From: 2010.03.12/outbox.cif.g09.slc.cpg/sg131_6_cif.got.tgz:11531.got - 2010.04.06 17:36:35.
