data_PCOD8315177
_publ_section_title
;
Structure prediction by ZEFSAII (Michael W. Deem and Ramdas Pophale) SiO2 
 PCOD8315177
Probable space group: P 4/N M M
;
_chemical_formula_sum "Si O2"
_cell_formula_units_Z 64
_cell_length_a 12.479733
_cell_length_b 12.479733
_cell_length_c 24.246867
_cell_angle_alpha 90.000000
_cell_angle_beta 90.000000
_cell_angle_gamma 90.000000
_cell_volume 3776.297647
_symmetry_space_group_name_H-M "P 4/N M M"
_symmetry_group_IT_number 129
_symmetry_cell_setting 'tetragonal'
loop_
_space_group_symop_operation_xyz
x,y,z
1/2-y,x,z
1/2-x,1/2-y,z
y,1/2-x,z
1/2+x,-y,-z
-x,1/2+y,-z
1/2+y,1/2+x,-z
-y,-x,-z
-x,-y,-z
1/2+y,-x,-z
1/2+x,1/2+y,-z
-y,1/2+x,-z
1/2-x,y,z
x,1/2-y,z
1/2-y,1/2-x,z
y,x,z
loop_
_atom_site_type_symbol
_atom_site_label
_atom_site_fract_x
_atom_site_fract_y
_atom_site_fract_z
Si Si1 0.122556 0.750000 0.242889
Si Si2 0.052243 0.876009 0.559464
Si Si3 0.623031 0.250000 0.632996
Si Si4 0.539448 0.367676 0.049953
Si Si5 0.624956 0.049534 0.827054
O O1 0.250000 0.750000 0.241874
O O2 0.076995 0.750000 0.304974
O O3 0.080965 0.856179 0.212005
O O4 0.102257 0.897744 0.500000
O O5 0.025057 0.750000 0.566189
O O6 0.141785 0.916149 0.602893
O O7 0.943498 0.943498 0.569191
O O8 0.750000 0.250000 0.632720
O O9 0.491409 0.250000 0.052494
O O10 0.440025 0.440025 0.034368
O O11 0.589341 0.395287 0.109918
O O12 0.624986 0.375015 0.000000
O O13 0.750000 0.024592 0.815748
O O14 0.558607 0.941394 0.814603
#
# Coordination Sequence:
#
# PCOD8315177 Si02
#       5
#     8  16   8  16  16
#     4   9  18  32  50  73  99 131 167 204 245 292
#     4  10  19  32  52  77 106 137 171 212 253 297
#     4   9  18  32  52  73  99 135 171 206 241 292
#     4   9  18  30  45  68  95 124 160 201 248 299
#     4   9  18  32  50  72  99 130 165 208 254 301
#
# _framework density 16.947818000000002
#
# number of rings (size 3 to 8) (size 9 to 14) (size 15 to 20)
#    0.000    2.750    1.250    0.000    1.750    2.000 
#    0.000    2.500    0.000    0.750    0.000    8.750 
#    0.000    0.000    0.000    0.000    0.000    0.000 
#
# Total GULP energy -793204.553166 kJ/mol
# GULP energy per Si atom -12393.821143 kJ/mol
# Density = 1.690924 g / cm^3
# Si number density = 16.947818 Si / 1000 Ang^3
#
#
#
# Elastic Constant Matrix: (Units=GPa)
#
#
# Indices 1 2 3 4 5 6 
#
# 1 87.4104 47.3618 51.4727 0.0000 0.0000 0.0000
# 2 47.3618 87.4110 51.4729 0.0000 0.0000 0.0000
# 3 51.4727 51.4729 135.1575 0.0000 0.0000 0.0000
# 4 0.0000 0.0000 0.0000 19.8919 0.0000 0.0000
# 5 0.0000 0.0000 0.0000 0.0000 19.8919 0.0000
# 6 0.0000 0.0000 0.0000 0.0000 0.0000 16.1684
#
#
#
# Elastic Compliance Matrix: (Units=1/GPa)
#
#
# Indices 1 2 3 4 5 6 
#
# 1 0.017717 -0.007253 -0.003985 0.000000 0.000000 0.000000
# 2 -0.007253 0.017717 -0.003985 0.000000 0.000000 0.000000
# 3 -0.003985 -0.003985 0.010434 0.000000 0.000000 0.000000
# 4 0.000000 0.000000 0.000000 0.050272 0.000000 0.000000
# 5 0.000000 0.000000 0.000000 0.000000 0.050272 0.000000
# 6 0.000000 0.000000 0.000000 0.000000 0.000000 0.061849
#
#
# Mechanical properties :
#
#
# Convention : Reuss Voigt Hill
#
# Bulk Modulus (GPa) = 64.84368 67.84376 66.34372
# Shear Modulus (GPa) = 20.50474 21.83520 21.16997
#
# Velocity S-wave (km/s) = 3.48210 3.59329 3.53813
# Velocity P-wave (km/s) = 7.38312 7.57189 7.47810
#
# Compressibility (1/GPa) = 0.01542170
#
# Stress axis : x y z
#
# Youngs Moduli (GPa) = 56.44385 56.44425 95.84015
#
# Poissons Ratio (x) = 0.40938 0.38192
# Poissons Ratio (y) = 0.40938 0.38192
# Poissons Ratio (z) = 0.22493 0.22493
#
# Static dielectric constant tensor:
#      x y z
#    x 3.036200 0.000000 0.000000 
#    y 0.000000 3.036200 0.000000 
#    z 0.000000 0.000000 3.507850 
# 
# 
# High freq. dielectric constant tensor:
#      x y z
#    x 1.636170 0.000000 0.000000 
#    y 0.000000 1.636170 0.000000 
#    z 0.000000 0.000000 1.664540 
# 
# From -- ./inp_files/6901.got.cif
#   From: 2010.03.12/outbox.cif.g09.slc.cpg/sg129_4_cif.got.tgz:6901.got - 2010.04.06 17:19:44.
