data_PCOD8315893
_publ_section_title
;
Structure prediction by ZEFSAII (Michael W. Deem and Ramdas Pophale) SiO2 
 PCOD8315893
Probable space group: P 42/M M C
;
_chemical_formula_sum "Si O2"
_cell_formula_units_Z 96
_cell_length_a 24.056121
_cell_length_b 24.056121
_cell_length_c 9.145755
_cell_angle_alpha 90.000000
_cell_angle_beta 90.000000
_cell_angle_gamma 90.000000
_cell_volume 5292.620593
_symmetry_space_group_name_H-M "P 42/M M C"
_symmetry_group_IT_number 131
_symmetry_cell_setting 'tetragonal'
loop_
_space_group_symop_operation_xyz
x,y,z
-x,-y,z
-y,x,1/2+z
y,-x,1/2+z
-x,y,-z
x,-y,-z
y,x,1/2-z
-y,-x,1/2-z
-x,-y,-z
x,y,-z
y,-x,1/2-z
-y,x,1/2-z
x,-y,z
-x,y,z
-y,-x,1/2+z
y,x,1/2+z
loop_
_atom_site_type_symbol
_atom_site_label
_atom_site_fract_x
_atom_site_fract_y
_atom_site_fract_z
Si Si1 0.936901 0.748273 0.831796
Si Si2 0.939113 0.437870 0.173867
Si Si3 0.355480 0.563818 0.671063
Si Si4 0.858055 0.065027 0.835892
Si Si5 0.265002 0.653659 0.327418
Si Si6 0.147581 0.649905 0.171469
O O1 0.918194 0.800084 0.735951
O O2 0.891141 0.702407 0.796745
O O3 0.000000 0.728158 0.792734
O O4 0.934781 0.766163 0.000000
O O5 0.928556 0.500000 0.230009
O O6 0.888592 0.401301 0.233217
O O7 0.000000 0.417124 0.229403
O O8 0.939345 0.434727 0.000000
O O9 0.408044 0.591957 0.750000
O O10 0.367965 0.566525 0.500000
O O11 0.348797 0.500000 0.724232
O O12 0.298640 0.596903 0.708800
O O13 0.908734 0.091267 0.750000
O O14 0.867821 0.000000 0.830169
O O15 0.857447 0.088036 0.000000
O O16 0.294656 0.705345 0.250000
O O17 0.262692 0.664781 0.500000
O O18 0.203321 0.650166 0.264714
O O19 0.162349 0.644742 0.000000
#
# Coordination Sequence:
#
# PCOD8315893 Si02
#       6
#    16  16  16  16  16  16
#     4   9  18  33  52  73  99 131 166 207 254 300
#     4   8  14  26  46  74 107 138 168 206 249 292
#     4   9  19  36  56  78 105 136 169 206 249 297
#     4  10  21  36  54  76 101 129 162 201 246 298
#     4  10  21  37  54  72  99 135 171 208 251 297
#     4  10  19  31  51  78 103 131 171 213 252 298
#
# _framework density 18.138463000000002
#
# number of rings (size 3 to 8) (size 9 to 14) (size 15 to 20)
#    0.000    2.667    0.000    2.000    0.000    6.333 
#    0.000    1.667    0.000    1.500    0.000    1.167 
#    0.000    0.000    0.000    0.000    0.000    0.000 
#
# Total GULP energy -1190107.542734 kJ/mol
# GULP energy per Si atom -12396.953570 kJ/mol
# Density = 1.809718 g / cm^3
# Si number density = 18.138463 Si / 1000 Ang^3
#
#
#
# Elastic Constant Matrix: (Units=GPa)
#
#
# Indices 1 2 3 4 5 6 
#
# 1 125.5310 73.8022 53.3839 0.0000 0.0000 0.0000
# 2 73.8022 125.5431 53.3883 0.0000 0.0000 0.0000
# 3 53.3839 53.3883 73.3279 0.0000 0.0000 0.0000
# 4 0.0000 0.0000 0.0000 23.9008 0.0000 0.0000
# 5 0.0000 0.0000 0.0000 0.0000 23.9005 0.0000
# 6 0.0000 0.0000 0.0000 0.0000 0.0000 53.5651
#
#
#
# Elastic Compliance Matrix: (Units=1/GPa)
#
#
# Indices 1 2 3 4 5 6 
#
# 1 0.013777 -0.005553 -0.005987 0.000000 0.000000 0.000000
# 2 -0.005553 0.013776 -0.005987 0.000000 0.000000 0.000000
# 3 -0.005987 -0.005987 0.022355 0.000000 0.000000 0.000000
# 4 0.000000 0.000000 0.000000 0.041840 0.000000 0.000000
# 5 0.000000 0.000000 0.000000 0.000000 0.041840 0.000000
# 6 0.000000 0.000000 0.000000 0.000000 0.000000 0.018669
#
#
# Mechanical properties :
#
#
# Convention : Reuss Voigt Hill
#
# Bulk Modulus (GPa) = 67.32303 76.17233 71.74768
# Shear Modulus (GPa) = 26.00624 29.86180 27.93402
#
# Velocity S-wave (km/s) = 3.79061 4.06189 3.92860
# Velocity P-wave (km/s) = 7.50700 8.00529 7.76015
#
# Compressibility (1/GPa) = 0.01485376
#
# Stress axis : x y z
#
# Youngs Moduli (GPa) = 72.58568 72.59052 44.73269
#
# Poissons Ratio (x) = 0.40309 0.26780
# Poissons Ratio (y) = 0.40307 0.26783
# Poissons Ratio (z) = 0.43455 0.43462
#
# Static dielectric constant tensor:
#      x y z
#    x 3.467580 0.000000 0.000000 
#    y 0.000000 3.467580 0.000000 
#    z 0.000000 0.000000 3.255230 
# 
# 
# High freq. dielectric constant tensor:
#      x y z
#    x 1.706890 0.000000 0.000000 
#    y 0.000000 1.706890 0.000000 
#    z 0.000000 0.000000 1.685110 
# 
# From -- ./inp_files/2270.got.cif
#   From: 2010.03.12/outbox.cif.g09.slc.cpg/sg131_2_cif.got.tgz:2270.got - 2010.04.06 17:36:35.
