data_PCOD8315820
_publ_section_title
;
Structure prediction by ZEFSAII (Michael W. Deem and Ramdas Pophale) SiO2 
 PCOD8315820
Probable space group: P 42/M M C
;
_chemical_formula_sum "Si O2"
_cell_formula_units_Z 88
_cell_length_a 17.448041
_cell_length_b 17.448041
_cell_length_c 17.514372
_cell_angle_alpha 90.000000
_cell_angle_beta 90.000000
_cell_angle_gamma 90.000000
_cell_volume 5331.972685
_symmetry_space_group_name_H-M "P 42/M M C"
_symmetry_group_IT_number 131
_symmetry_cell_setting 'tetragonal'
loop_
_space_group_symop_operation_xyz
x,y,z
-x,-y,z
-y,x,1/2+z
y,-x,1/2+z
-x,y,-z
x,-y,-z
y,x,1/2-z
-y,-x,1/2-z
-x,-y,-z
x,y,-z
y,-x,1/2-z
-y,x,1/2-z
x,-y,z
-x,y,z
-y,-x,1/2+z
y,x,1/2+z
loop_
_atom_site_type_symbol
_atom_site_label
_atom_site_fract_x
_atom_site_fract_y
_atom_site_fract_z
Si Si1 0.087191 0.299299 0.584780
Si Si2 0.324981 0.206349 0.714865
Si Si3 0.589029 0.209054 0.137694
Si Si4 0.318041 0.644695 0.088190
Si Si5 0.788102 0.089877 0.764694
Si Si6 0.500000 0.586247 0.409242
O O1 0.102938 0.265275 0.500000
O O2 0.134649 0.376615 0.596933
O O3 0.107668 0.234304 0.647063
O O4 0.000000 0.324971 0.594675
O O5 0.266401 0.266401 0.750000
O O6 0.398008 0.202196 0.771083
O O7 0.351573 0.236469 0.632242
O O8 0.279483 0.125118 0.710695
O O9 0.500000 0.215020 0.119231
O O10 0.631026 0.280931 0.100322
O O11 0.368052 0.574144 0.120268
O O12 0.296742 0.633950 0.000000
O O13 0.869831 0.130169 0.750000
O O14 0.796084 0.000000 0.747030
O O15 0.500000 0.500000 0.374770
O O16 0.500000 0.581204 0.500000
#
# Coordination Sequence:
#
# PCOD8315820 Si02
#       6
#    16  16  16  16  16   8
#     4   9  18  32  49  70  97 127 155 184 227 282
#     4   8  17  32  46  63  90 122 156 191 228 283
#     4  10  19  29  45  67  93 122 152 192 237 282
#     4  10  19  31  48  66  88 123 163 199 242 289
#     4   9  17  31  51  73  97 125 155 190 230 275
#     4   9  18  30  44  66  93 117 150 203 253 289
#
# _framework density 16.504208999999999
#
# number of rings (size 3 to 8) (size 9 to 14) (size 15 to 20)
#    0.000    2.818    0.000    2.182    1.273    2.727 
#    0.000    0.909    0.000    2.182    0.000    2.545 
#    0.000    2.182    0.000    0.000    0.000    0.000 
#
# Total GULP energy -1090855.777824 kJ/mol
# GULP energy per Si atom -12396.088384 kJ/mol
# Density = 1.646664 g / cm^3
# Si number density = 16.504209 Si / 1000 Ang^3
#
#
#
# Elastic Constant Matrix: (Units=GPa)
#
#
# Indices 1 2 3 4 5 6 
#
# 1 86.6120 35.9480 47.2509 0.0000 0.0000 0.0000
# 2 35.9480 86.6135 47.2501 0.0000 0.0000 0.0000
# 3 47.2509 47.2501 87.1034 0.0000 0.0000 0.0000
# 4 0.0000 0.0000 0.0000 19.3556 0.0000 0.0000
# 5 0.0000 0.0000 0.0000 0.0000 19.3559 0.0000
# 6 0.0000 0.0000 0.0000 0.0000 0.0000 15.8795
#
#
#
# Elastic Compliance Matrix: (Units=1/GPa)
#
#
# Indices 1 2 3 4 5 6 
#
# 1 0.016882 -0.002856 -0.007609 0.000000 0.000000 0.000000
# 2 -0.002856 0.016881 -0.007608 0.000000 0.000000 0.000000
# 3 -0.007609 -0.007608 0.019735 0.000000 0.000000 0.000000
# 4 0.000000 0.000000 0.000000 0.051665 0.000000 0.000000
# 5 0.000000 0.000000 0.000000 0.000000 0.051664 0.000000
# 6 0.000000 0.000000 0.000000 0.000000 0.000000 0.062974
#
#
# Mechanical properties :
#
#
# Convention : Reuss Voigt Hill
#
# Bulk Modulus (GPa) = 57.62730 57.91409 57.77070
# Shear Modulus (GPa) = 19.10354 19.57685 19.34020
#
# Velocity S-wave (km/s) = 3.40589 3.44782 3.42692
# Velocity P-wave (km/s) = 7.10347 7.14259 7.12306
#
# Compressibility (1/GPa) = 0.01735289
#
# Stress axis : x y z
#
# Youngs Moduli (GPa) = 59.23465 59.23696 50.67065
#
# Poissons Ratio (x) = 0.16917 0.38554
# Poissons Ratio (y) = 0.16917 0.38551
# Poissons Ratio (z) = 0.45070 0.45069
#
# Static dielectric constant tensor:
#      x y z
#    x 3.162380 0.000000 0.000000 
#    y 0.000000 3.162380 0.000000 
#    z 0.000000 0.000000 3.235690 
# 
# 
# High freq. dielectric constant tensor:
#      x y z
#    x 1.627790 0.000000 0.000000 
#    y 0.000000 1.627790 0.000000 
#    z 0.000000 0.000000 1.625400 
# 
# From -- ./inp_files/5869.got.cif
#   From: 2010.03.12/outbox.cif.g09.slc.cpg/sg131_3_cif.got.tgz:5869.got - 2010.04.06 17:36:35.
