data_PCOD8315297
_publ_section_title
;
Structure prediction by ZEFSAII (Michael W. Deem and Ramdas Pophale) SiO2 
 PCOD8315297
Probable space group: P 4/N M M
;
_chemical_formula_sum "Si O2"
_cell_formula_units_Z 96
_cell_length_a 18.528698
_cell_length_b 18.528698
_cell_length_c 16.309232
_cell_angle_alpha 90.000000
_cell_angle_beta 90.000000
_cell_angle_gamma 90.000000
_cell_volume 5599.165650
_symmetry_space_group_name_H-M "P 4/N M M"
_symmetry_group_IT_number 129
_symmetry_cell_setting 'tetragonal'
loop_
_space_group_symop_operation_xyz
x,y,z
1/2-y,x,z
1/2-x,1/2-y,z
y,1/2-x,z
1/2+x,-y,-z
-x,1/2+y,-z
1/2+y,1/2+x,-z
-y,-x,-z
-x,-y,-z
1/2+y,-x,-z
1/2+x,1/2+y,-z
-y,1/2+x,-z
1/2-x,y,z
x,1/2-y,z
1/2-y,1/2-x,z
y,x,z
loop_
_atom_site_type_symbol
_atom_site_label
_atom_site_fract_x
_atom_site_fract_y
_atom_site_fract_z
Si Si1 0.443620 0.328738 0.652818
Si Si2 0.551819 0.667533 0.821386
Si Si3 0.435394 0.947396 0.093925
Si Si4 0.053252 0.831655 0.672483
Si Si5 0.667440 0.422150 0.233893
Si Si6 0.452600 0.165650 0.469119
O O1 0.407805 0.250000 0.646874
O O2 0.382725 0.382725 0.680985
O O3 0.500952 0.330357 0.724376
O O4 0.476451 0.347650 0.563322
O O5 0.564187 0.750000 0.846956
O O6 0.629446 0.629446 0.816449
O O7 0.501391 0.630460 0.889021
O O8 0.512924 0.659196 0.734603
O O9 0.428790 0.874958 0.148071
O O10 0.511616 0.988385 0.111040
O O11 0.425743 0.925743 0.000000
O O12 0.078911 0.750000 0.664451
O O13 0.124822 0.872208 0.701926
O O14 0.020923 0.860030 0.585987
O O15 0.750000 0.394091 0.218978
O O16 0.435045 0.250000 0.450463
O O17 0.381131 0.118869 0.448801
#
# Coordination Sequence:
#
# PCOD8315297 Si02
#       6
#    16  16  16  16  16  16
#     4   9  18  31  47  70  98 127 161 199 238 281
#     4   9  17  29  46  69  96 124 153 186 228 281
#     4   9  18  33  52  72  94 122 155 191 236 288
#     4   9  18  32  47  64  91 125 158 194 237 282
#     4  10  20  33  50  71  94 121 156 198 239 282
#     4   9  17  29  46  69  97 129 164 200 238 281
#
# _framework density 17.145412
#
# number of rings (size 3 to 8) (size 9 to 14) (size 15 to 20)
#    0.000    2.833    0.000    1.000    0.000    4.167 
#    0.000    3.333    0.000    3.000    0.000    7.000 
#    0.000    4.000    0.000    0.000    0.000    0.167 
#
# Total GULP energy -1189879.198651 kJ/mol
# GULP energy per Si atom -12394.574986 kJ/mol
# Density = 1.710639 g / cm^3
# Si number density = 17.145412 Si / 1000 Ang^3
#
#
#
# Elastic Constant Matrix: (Units=GPa)
#
#
# Indices 1 2 3 4 5 6 
#
# 1 98.8780 46.0131 34.4944 0.0000 0.0000 0.0000
# 2 46.0131 98.8780 34.4944 0.0000 0.0000 0.0000
# 3 34.4944 34.4944 70.2427 0.0000 0.0000 0.0000
# 4 0.0000 0.0000 0.0000 21.3062 0.0000 0.0000
# 5 0.0000 0.0000 0.0000 0.0000 21.3062 0.0000
# 6 0.0000 0.0000 0.0000 0.0000 0.0000 16.3310
#
#
#
# Elastic Compliance Matrix: (Units=1/GPa)
#
#
# Indices 1 2 3 4 5 6 
#
# 1 0.013962 -0.004954 -0.004424 0.000000 0.000000 0.000000
# 2 -0.004954 0.013962 -0.004424 0.000000 0.000000 0.000000
# 3 -0.004424 -0.004424 0.018581 0.000000 0.000000 0.000000
# 4 0.000000 0.000000 0.000000 0.046935 0.000000 0.000000
# 5 0.000000 0.000000 0.000000 0.000000 0.046935 0.000000
# 6 0.000000 0.000000 0.000000 0.000000 0.000000 0.061233
#
#
# Mechanical properties :
#
#
# Convention : Reuss Voigt Hill
#
# Bulk Modulus (GPa) = 52.90279 55.33360 54.11820
# Shear Modulus (GPa) = 21.23044 21.98849 21.60946
#
# Velocity S-wave (km/s) = 3.52271 3.58504 3.55401
# Velocity P-wave (km/s) = 6.88972 7.03420 6.96233
#
# Compressibility (1/GPa) = 0.01890259
#
# Stress axis : x y z
#
# Youngs Moduli (GPa) = 71.62261 71.62261 53.81850
#
# Poissons Ratio (x) = 0.35482 0.23807
# Poissons Ratio (y) = 0.35482 0.23807
# Poissons Ratio (z) = 0.31683 0.31683
#
# Static dielectric constant tensor:
#      x y z
#    x 3.236540 0.000000 0.000000 
#    y 0.000000 3.236540 0.000000 
#    z 0.000000 0.000000 3.185310 
# 
# 
# High freq. dielectric constant tensor:
#      x y z
#    x 1.655680 0.000000 0.000000 
#    y 0.000000 1.655680 0.000000 
#    z 0.000000 0.000000 1.659350 
# 
# From -- ./inp_files/5663.got.cif
#   From: 2010.03.12/outbox.cif.g09.slc.cpg/sg129_3_cif.got.tgz:5663.got - 2010.04.06 17:19:44.
