data_PCOD8315488
_publ_section_title
;
Structure prediction by ZEFSAII (Michael W. Deem and Ramdas Pophale) SiO2 
 PCOD8315488
Probable space group: P 4/N C C
;
_chemical_formula_sum "Si O2"
_cell_formula_units_Z 88
_cell_length_a 35.333811
_cell_length_b 35.333811
_cell_length_c 5.152922
_cell_angle_alpha 90.000000
_cell_angle_beta 90.000000
_cell_angle_gamma 90.000000
_cell_volume 6433.310782
_symmetry_space_group_name_H-M "P 4/N C C"
_symmetry_group_IT_number 130
_symmetry_cell_setting 'tetragonal'
loop_
_space_group_symop_operation_xyz
x,y,z
1/2-y,x,z
1/2-x,1/2-y,z
y,1/2-x,z
1/2+x,-y,1/2-z
-x,1/2+y,1/2-z
1/2+y,1/2+x,1/2-z
-y,-x,1/2-z
-x,-y,-z
1/2+y,-x,-z
1/2+x,1/2+y,-z
-y,1/2+x,-z
1/2-x,y,1/2+z
x,1/2-y,1/2+z
1/2-y,1/2-x,1/2+z
y,x,1/2+z
loop_
_atom_site_type_symbol
_atom_site_label
_atom_site_fract_x
_atom_site_fract_y
_atom_site_fract_z
Si Si1 0.149316 0.935910 0.663093
Si Si2 0.355574 0.729900 0.575126
Si Si3 0.649440 0.350561 0.250000
Si Si4 0.046974 0.016736 0.236214
Si Si5 0.105885 0.544401 0.674789
Si Si6 0.230929 0.944063 0.854719
O O1 0.152265 0.890867 0.603883
O O2 0.139444 0.954906 0.387368
O O3 0.188435 0.952980 0.766468
O O4 0.118709 0.945589 0.883880
O O5 0.336974 0.751521 0.331985
O O6 0.347802 0.684777 0.551308
O O7 0.399852 0.738324 0.601502
O O8 0.046996 0.039065 0.508128
O O9 0.087381 0.997196 0.182055
O O10 0.014719 0.985282 0.250000
O O11 0.075480 0.575480 0.750000
O O12 0.258754 0.961955 0.634673
#
# Coordination Sequence:
#
# PCOD8315488 Si02
#       6
#    16  16   8  16  16  16
#     4  11  20  29  43  63  78  93 112 147 180 204
#     4   9  19  31  44  59  71  86 107 128 151 200
#     4  10  20  32  48  59  74  90 106 130 176 204
#     4   9  17  28  41  53  73 104 126 139 160 197
#     4  11  19  29  40  61  81  94 118 148 175 200
#     4   9  17  30  42  55  74  95 115 133 165 215
#
# _framework density 13.678805000000001
#
# number of rings (size 3 to 8) (size 9 to 14) (size 15 to 20)
#    0.000    2.182    1.818    2.182    0.000    9.455 
#    0.000    0.000    0.000    1.636    0.000    0.000 
#    0.000    0.000    0.000    0.000    0.000    0.000 
#
# Total GULP energy -1090623.738364 kJ/mol
# GULP energy per Si atom -12393.451572 kJ/mol
# Density = 1.364767 g / cm^3
# Si number density = 13.678805 Si / 1000 Ang^3
#
#
#
# Elastic Constant Matrix: (Units=GPa)
#
#
# Indices 1 2 3 4 5 6 
#
# 1 33.7070 25.8633 15.7230 0.0000 0.0000 0.0000
# 2 25.8633 33.7082 15.7230 0.0000 0.0000 0.0000
# 3 15.7230 15.7230 86.0996 0.0000 0.0000 0.0000
# 4 0.0000 0.0000 0.0000 14.2954 0.0000 0.0000
# 5 0.0000 0.0000 0.0000 0.0000 14.2950 0.0000
# 6 0.0000 0.0000 0.0000 0.0000 0.0000 8.0168
#
#
#
# Elastic Compliance Matrix: (Units=1/GPa)
#
#
# Indices 1 2 3 4 5 6 
#
# 1 0.073031 -0.054452 -0.003393 0.000000 0.000000 0.000000
# 2 -0.054452 0.073028 -0.003392 0.000000 0.000000 0.000000
# 3 -0.003393 -0.003392 0.012854 0.000000 0.000000 0.000000
# 4 0.000000 0.000000 0.000000 0.069953 0.000000 0.000000
# 5 0.000000 0.000000 0.000000 0.000000 0.069955 0.000000
# 6 0.000000 0.000000 0.000000 0.000000 0.000000 0.124738
#
#
# Mechanical properties :
#
#
# Convention : Reuss Voigt Hill
#
# Bulk Modulus (GPa) = 27.44350 29.79260 28.61805
# Shear Modulus (GPa) = 8.95774 13.73513 11.34644
#
# Velocity S-wave (km/s) = 2.56180 3.17222 2.88321
# Velocity P-wave (km/s) = 5.37185 5.93673 5.66134
#
# Compressibility (1/GPa) = 0.03643851
#
# Stress axis : x y z
#
# Youngs Moduli (GPa) = 13.69290 13.69345 77.79978
#
# Poissons Ratio (x) = 0.74563 0.26396
# Poissons Ratio (y) = 0.74560 0.26392
# Poissons Ratio (z) = 0.04646 0.04645
#
# Static dielectric constant tensor:
#      x y z
#    x 2.506230 0.000000 0.000000 
#    y 0.000000 2.506230 0.000000 
#    z 0.000000 0.000000 3.062980 
# 
# 
# High freq. dielectric constant tensor:
#      x y z
#    x 1.474590 0.000000 0.000000 
#    y 0.000000 1.474590 0.000000 
#    z 0.000000 0.000000 1.543620 
# 
# From -- ./inp_files/239.got.cif
#   From: 2010.03.12/outbox.cif.g09.slc.cpg/sg130_1_cif.got.tgz:239.got - 2010.04.06 17:30:23.
