data_PCOD8315089
_publ_section_title
;
Structure prediction by ZEFSAII (Michael W. Deem and Ramdas Pophale) SiO2 
 PCOD8315089
Probable space group: P 4/N M M
;
_chemical_formula_sum "Si O2"
_cell_formula_units_Z 64
_cell_length_a 13.181765
_cell_length_b 13.181765
_cell_length_c 21.511982
_cell_angle_alpha 90.000000
_cell_angle_beta 90.000000
_cell_angle_gamma 90.000000
_cell_volume 3737.898943
_symmetry_space_group_name_H-M "P 4/N M M"
_symmetry_group_IT_number 129
_symmetry_cell_setting 'tetragonal'
loop_
_space_group_symop_operation_xyz
x,y,z
1/2-y,x,z
1/2-x,1/2-y,z
y,1/2-x,z
1/2+x,-y,-z
-x,1/2+y,-z
1/2+y,1/2+x,-z
-y,-x,-z
-x,-y,-z
1/2+y,-x,-z
1/2+x,1/2+y,-z
-y,1/2+x,-z
1/2-x,y,z
x,1/2-y,z
1/2-y,1/2-x,z
y,x,z
loop_
_atom_site_type_symbol
_atom_site_label
_atom_site_fract_x
_atom_site_fract_y
_atom_site_fract_z
Si Si1 0.001142 0.498859 0.096456
Si Si2 0.633069 0.026652 0.688987
Si Si3 0.871032 0.362499 0.567607
Si Si4 0.867318 0.364434 0.814517
Si Si5 0.628297 0.871703 0.001310
O O1 0.933889 0.428059 0.139007
O O2 0.074823 0.425178 0.057346
O O3 0.925858 0.574143 0.059602
O O4 0.750000 0.998223 0.683089
O O5 0.576448 0.923553 0.706351
O O6 0.589012 0.068706 0.623891
O O7 0.613118 0.108435 0.742677
O O8 0.905896 0.405896 0.500000
O O9 0.750000 0.356960 0.568930
O O10 0.916023 0.250000 0.577349
O O11 0.750000 0.377317 0.831421
O O12 0.904259 0.250000 0.824211
O O13 0.607613 0.750000 0.001497
#
# Coordination Sequence:
#
# PCOD8315089 Si02
#       5
#     8  16  16  16   8
#     4  11  20  36  58  80 105 136 170 206 247 292
#     4  10  19  31  46  68  99 132 166 208 253 299
#     4   8  14  26  45  68  93 123 162 208 254 296
#     4  10  20  34  53  77 103 132 169 212 255 296
#     4  10  22  38  56  80 110 140 168 200 242 296
#
# _framework density 17.121918999999998
#
# number of rings (size 3 to 8) (size 9 to 14) (size 15 to 20)
#    0.000    2.375    1.250    3.000    0.000    3.750 
#    0.000    0.000    0.000    6.000    0.000    0.000 
#    0.000    0.000    0.000    0.000    0.000    0.000 
#
# Total GULP energy -793231.110444 kJ/mol
# GULP energy per Si atom -12394.236101 kJ/mol
# Density = 1.708295 g / cm^3
# Si number density = 17.121919 Si / 1000 Ang^3
#
#
#
# Elastic Constant Matrix: (Units=GPa)
#
#
# Indices 1 2 3 4 5 6 
#
# 1 90.3992 53.1480 52.9372 0.0000 0.0000 0.0000
# 2 53.1480 90.3992 52.9372 0.0000 0.0000 0.0000
# 3 52.9372 52.9372 115.6118 0.0000 0.0000 0.0000
# 4 0.0000 0.0000 0.0000 28.1683 0.0000 0.0000
# 5 0.0000 0.0000 0.0000 0.0000 28.1683 0.0000
# 6 0.0000 0.0000 0.0000 0.0000 0.0000 28.1545
#
#
#
# Elastic Compliance Matrix: (Units=1/GPa)
#
#
# Indices 1 2 3 4 5 6 
#
# 1 0.018682 -0.008163 -0.004816 0.000000 0.000000 0.000000
# 2 -0.008163 0.018682 -0.004816 0.000000 0.000000 0.000000
# 3 -0.004816 -0.004816 0.013060 0.000000 0.000000 0.000000
# 4 0.000000 0.000000 0.000000 0.035501 0.000000 0.000000
# 5 0.000000 0.000000 0.000000 0.000000 0.035501 0.000000
# 6 0.000000 0.000000 0.000000 0.000000 0.000000 0.035518
#
#
# Mechanical properties :
#
#
# Convention : Reuss Voigt Hill
#
# Bulk Modulus (GPa) = 67.42069 68.27278 67.84673
# Shear Modulus (GPa) = 25.31904 26.05738 25.68821
#
# Velocity S-wave (km/s) = 3.84962 3.90535 3.87759
# Velocity P-wave (km/s) = 7.69557 7.76510 7.73041
#
# Compressibility (1/GPa) = 0.01483224
#
# Stress axis : x y z
#
# Youngs Moduli (GPa) = 53.52814 53.52814 76.56751
#
# Poissons Ratio (x) = 0.43695 0.36878
# Poissons Ratio (y) = 0.43695 0.36878
# Poissons Ratio (z) = 0.25781 0.25781
#
# Static dielectric constant tensor:
#      x y z
#    x 3.102140 0.000000 0.000000 
#    y 0.000000 3.102140 0.000000 
#    z 0.000000 0.000000 3.460650 
# 
# 
# High freq. dielectric constant tensor:
#      x y z
#    x 1.648700 0.000000 0.000000 
#    y 0.000000 1.648700 0.000000 
#    z 0.000000 0.000000 1.678400 
# 
# From -- ./inp_files/5406.got.cif
#   From: 2010.03.12/outbox.cif.g09.slc.cpg/sg129_3_cif.got.tgz:5406.got - 2010.04.06 17:19:44.
