data_PCOD8315517
_publ_section_title
;
Structure prediction by ZEFSAII (Michael W. Deem and Ramdas Pophale) SiO2 
 PCOD8315517
Probable space group: P 4/N C C
;
_chemical_formula_sum "Si O2"
_cell_formula_units_Z 56
_cell_length_a 13.717042
_cell_length_b 13.717042
_cell_length_c 12.183108
_cell_angle_alpha 90.000000
_cell_angle_beta 90.000000
_cell_angle_gamma 90.000000
_cell_volume 2292.339991
_symmetry_space_group_name_H-M "P 4/N C C"
_symmetry_group_IT_number 130
_symmetry_cell_setting 'tetragonal'
loop_
_space_group_symop_operation_xyz
x,y,z
1/2-y,x,z
1/2-x,1/2-y,z
y,1/2-x,z
1/2+x,-y,1/2-z
-x,1/2+y,1/2-z
1/2+y,1/2+x,1/2-z
-y,-x,1/2-z
-x,-y,-z
1/2+y,-x,-z
1/2+x,1/2+y,-z
-y,1/2+x,-z
1/2-x,y,1/2+z
x,1/2-y,1/2+z
1/2-y,1/2-x,1/2+z
y,x,1/2+z
loop_
_atom_site_type_symbol
_atom_site_label
_atom_site_fract_x
_atom_site_fract_y
_atom_site_fract_z
Si Si1 0.298089 0.103811 0.501789
Si Si2 0.385072 0.174837 0.742110
Si Si3 0.692912 0.110578 0.529507
Si Si4 0.912692 0.087309 0.250000
O O1 0.374488 0.186347 0.546529
O O2 0.305882 0.118118 0.371574
O O3 0.326769 0.992851 0.530383
O O4 0.383997 0.288432 0.696832
O O5 0.476927 0.107539 0.709490
O O6 0.633414 0.191960 0.463552
O O7 0.661849 0.111304 0.654658
#
# Coordination Sequence:
#
# PCOD8315517 Si02
#       4
#    16  16  16   8
#     4   8  15  32  59  87 115 148 187 235 287 338
#     4   8  15  32  60  91 118 148 196 245 283 341
#     4  10  22  38  56  84 116 149 192 237 283 344
#     4  10  20  39  62  83 114 158 194 234 302 345
#
# _framework density 24.429186000000001
#
# number of rings (size 3 to 8) (size 9 to 14) (size 15 to 20)
#    0.000    3.143    0.000    1.714    0.000    3.429 
#    0.000   25.714    0.000    3.429    0.000    4.000 
#    0.000    0.000    0.000    6.286    0.000    0.571 
#
# Total GULP energy -694312.513931 kJ/mol
# GULP energy per Si atom -12398.437749 kJ/mol
# Density = 2.437358 g / cm^3
# Si number density = 24.429186 Si / 1000 Ang^3
#
#
#
# Elastic Constant Matrix: (Units=GPa)
#
#
# Indices 1 2 3 4 5 6 
#
# 1 195.5461 90.7514 64.3770 0.0000 0.0000 0.0000
# 2 90.7514 195.5440 64.3777 0.0000 0.0000 0.0000
# 3 64.3770 64.3777 74.3153 0.0000 0.0000 0.0000
# 4 0.0000 0.0000 0.0000 43.5188 0.0000 0.0000
# 5 0.0000 0.0000 0.0000 0.0000 43.5183 0.0000
# 6 0.0000 0.0000 0.0000 0.0000 0.0000 39.7484
#
#
#
# Elastic Compliance Matrix: (Units=1/GPa)
#
#
# Indices 1 2 3 4 5 6 
#
# 1 0.007632 -0.001910 -0.004957 0.000000 0.000000 0.000000
# 2 -0.001910 0.007632 -0.004957 0.000000 0.000000 0.000000
# 3 -0.004957 -0.004957 0.022044 0.000000 0.000000 0.000000
# 4 0.000000 0.000000 0.000000 0.022979 0.000000 0.000000
# 5 0.000000 0.000000 0.000000 0.000000 0.022979 0.000000
# 6 0.000000 0.000000 0.000000 0.000000 0.000000 0.025158
#
#
# Mechanical properties :
#
#
# Convention : Reuss Voigt Hill
#
# Bulk Modulus (GPa) = 73.20195 100.49084 86.84639
# Shear Modulus (GPa) = 36.59613 41.75040 39.17326
#
# Velocity S-wave (km/s) = 3.87466 4.13854 4.00877
# Velocity P-wave (km/s) = 7.07442 8.00384 7.55344
#
# Compressibility (1/GPa) = 0.01366084
#
# Stress axis : x y z
#
# Youngs Moduli (GPa) = 131.02274 131.01965 45.36316
#
# Poissons Ratio (x) = 0.25027 0.22486
# Poissons Ratio (y) = 0.25028 0.22487
# Poissons Ratio (z) = 0.64946 0.64947
#
# Static dielectric constant tensor:
#      x y z
#    x 4.757200 0.000000 0.000000 
#    y 0.000000 4.757200 0.000000 
#    z 0.000000 0.000000 4.856960 
# 
# 
# High freq. dielectric constant tensor:
#      x y z
#    x 1.967060 0.000000 0.000000 
#    y 0.000000 1.967060 0.000000 
#    z 0.000000 0.000000 2.023660 
# 
# From -- ./inp_files/2101.got.cif
#   From: 2010.03.12/outbox.cif.g09.slc.cpg/sg130_2_cif.got.tgz:2101.got - 2010.04.06 17:30:23.
