data_PCOD8315096
_publ_section_title
;
Structure prediction by ZEFSAII (Michael W. Deem and Ramdas Pophale) SiO2 
 PCOD8315096
Probable space group: P 4/N M M
;
_chemical_formula_sum "Si O2"
_cell_formula_units_Z 128
_cell_length_a 18.295592
_cell_length_b 18.295592
_cell_length_c 23.231294
_cell_angle_alpha 90.000000
_cell_angle_beta 90.000000
_cell_angle_gamma 90.000000
_cell_volume 7776.180529
_symmetry_space_group_name_H-M "P 4/N M M"
_symmetry_group_IT_number 129
_symmetry_cell_setting 'tetragonal'
loop_
_space_group_symop_operation_xyz
x,y,z
1/2-y,x,z
1/2-x,1/2-y,z
y,1/2-x,z
1/2+x,-y,-z
-x,1/2+y,-z
1/2+y,1/2+x,-z
-y,-x,-z
-x,-y,-z
1/2+y,-x,-z
1/2+x,1/2+y,-z
-y,1/2+x,-z
1/2-x,y,z
x,1/2-y,z
1/2-y,1/2-x,z
y,x,z
loop_
_atom_site_type_symbol
_atom_site_label
_atom_site_fract_x
_atom_site_fract_y
_atom_site_fract_z
Si Si1 0.558869 0.440595 0.247725
Si Si2 0.332847 0.917622 0.545956
Si Si3 0.834742 0.164963 0.823600
Si Si4 0.964897 0.418436 0.372935
Si Si5 0.948270 0.668509 0.105098
Si Si6 0.669327 0.942918 0.240060
Si Si7 0.601463 0.333836 0.944281
Si Si8 0.449549 0.332215 0.463171
O O1 0.489075 0.489075 0.221464
O O2 0.600715 0.383775 0.205662
O O3 0.533808 0.398129 0.305112
O O4 0.618560 0.498378 0.271482
O O5 0.355978 0.855978 0.500000
O O6 0.250000 0.901861 0.565423
O O7 0.382763 0.917394 0.602666
O O8 0.341337 0.995998 0.516418
O O9 0.750000 0.153695 0.806106
O O10 0.859139 0.250000 0.808182
O O11 0.841939 0.153564 0.892082
O O12 0.002350 0.497651 0.383671
O O13 0.012221 0.356599 0.404095
O O14 0.927400 0.750000 0.085392
O O15 0.882543 0.617458 0.085170
O O16 0.963312 0.666607 0.172892
O O17 0.021546 0.640511 0.075295
O O18 0.750000 0.946245 0.266166
O O19 0.638930 0.861071 0.249526
O O20 0.602157 0.250000 0.963084
O O21 0.619628 0.380372 0.000000
O O22 0.423336 0.250000 0.454840
O O23 0.378811 0.378811 0.478057
#
# Coordination Sequence:
#
# PCOD8315096 Si02
#       8
#    16  16  16  16  16  16  16  16
#     4  10  19  31  48  68  93 123 155 194 235 274
#     4   9  17  29  45  66  92 122 154 190 227 266
#     4  10  20  33  49  69  95 126 156 190 236 288
#     4   9  18  31  47  67  89 120 158 189 222 268
#     4   9  17  29  45  66  92 121 151 185 225 268
#     4   9  16  27  43  62  88 120 151 184 220 258
#     4  10  19  31  47  67  91 119 153 192 232 279
#     4   9  17  30  48  68  91 116 144 184 229 271
#
# _framework density 16.460522999999998
#
# number of rings (size 3 to 8) (size 9 to 14) (size 15 to 20)
#    0.000    2.625    1.250    1.125    0.000    4.375 
#    0.000    1.250    0.000    0.000    0.000    0.000 
#    0.000    3.250    0.000    0.000    0.000    1.125 
#
# Total GULP energy -1586221.122815 kJ/mol
# GULP energy per Si atom -12392.352522 kJ/mol
# Density = 1.642306 g / cm^3
# Si number density = 16.460523 Si / 1000 Ang^3
#
#
#
# Elastic Constant Matrix: (Units=GPa)
#
#
# Indices 1 2 3 4 5 6 
#
# 1 81.4396 35.4332 14.0034 0.0000 0.0000 0.0000
# 2 35.4332 81.4396 14.0034 0.0000 0.0000 0.0000
# 3 14.0034 14.0034 37.8682 0.0000 0.0000 0.0000
# 4 0.0000 0.0000 0.0000 17.5203 0.0000 0.0000
# 5 0.0000 0.0000 0.0000 0.0000 17.5203 0.0000
# 6 0.0000 0.0000 0.0000 0.0000 0.0000 23.9456
#
#
#
# Elastic Compliance Matrix: (Units=1/GPa)
#
#
# Indices 1 2 3 4 5 6 
#
# 1 0.015562 -0.006174 -0.003472 0.000000 0.000000 0.000000
# 2 -0.006174 0.015562 -0.003472 0.000000 0.000000 0.000000
# 3 -0.003472 -0.003472 0.028975 0.000000 0.000000 0.000000
# 4 0.000000 0.000000 0.000000 0.057077 0.000000 0.000000
# 5 0.000000 0.000000 0.000000 0.000000 0.057077 0.000000
# 6 0.000000 0.000000 0.000000 0.000000 0.000000 0.041761
#
#
# Mechanical properties :
#
#
# Convention : Reuss Voigt Hill
#
# Bulk Modulus (GPa) = 29.52929 36.40304 32.96616
# Shear Modulus (GPa) = 19.72100 20.95107 20.33604
#
# Velocity S-wave (km/s) = 3.46508 3.57151 3.51870
# Velocity P-wave (km/s) = 5.82988 6.25867 6.04808
#
# Compressibility (1/GPa) = 0.03386468
#
# Stress axis : x y z
#
# Youngs Moduli (GPa) = 64.25840 64.25840 34.51249
#
# Poissons Ratio (x) = 0.39673 0.11982
# Poissons Ratio (y) = 0.39673 0.11982
# Poissons Ratio (z) = 0.22309 0.22309
#
# Static dielectric constant tensor:
#      x y z
#    x 3.152610 0.000000 0.000000 
#    y 0.000000 3.152610 0.000000 
#    z 0.000000 0.000000 2.887130 
# 
# 
# High freq. dielectric constant tensor:
#      x y z
#    x 1.630010 0.000000 0.000000 
#    y 0.000000 1.630010 0.000000 
#    z 0.000000 0.000000 1.609360 
# 
# From -- ./inp_files/7298.got.cif
#   From: 2010.03.12/outbox.cif.g09.slc.cpg/sg129_4_cif.got.tgz:7298.got - 2010.04.06 17:19:44.
