data_PCOD8315903
_publ_section_title
;
Structure prediction by ZEFSAII (Michael W. Deem and Ramdas Pophale) SiO2 
 PCOD8315903
Probable space group: P 42/M M C
;
_chemical_formula_sum "Si O2"
_cell_formula_units_Z 120
_cell_length_a 27.688354
_cell_length_b 27.688354
_cell_length_c 8.874487
_cell_angle_alpha 90.000000
_cell_angle_beta 90.000000
_cell_angle_gamma 90.000000
_cell_volume 6803.580618
_symmetry_space_group_name_H-M "P 42/M M C"
_symmetry_group_IT_number 131
_symmetry_cell_setting 'tetragonal'
loop_
_space_group_symop_operation_xyz
x,y,z
-x,-y,z
-y,x,1/2+z
y,-x,1/2+z
-x,y,-z
x,-y,-z
y,x,1/2-z
-y,-x,1/2-z
-x,-y,-z
x,y,-z
y,-x,1/2-z
-y,x,1/2-z
x,-y,z
-x,y,z
-y,-x,1/2+z
y,x,1/2+z
loop_
_atom_site_type_symbol
_atom_site_label
_atom_site_fract_x
_atom_site_fract_y
_atom_site_fract_z
Si Si1 0.764629 0.053531 0.678992
Si Si2 0.120527 0.581455 0.679486
Si Si3 0.782329 0.716257 0.668589
Si Si4 0.681531 0.123878 0.678821
Si Si5 0.445410 0.227964 0.179080
Si Si6 0.298033 0.635630 0.333696
Si Si7 0.945175 0.871996 0.822728
Si Si8 0.943365 0.500000 0.177704
O O1 0.764142 0.052845 0.500000
O O2 0.725369 0.091087 0.740027
O O3 0.818134 0.068772 0.734326
O O4 0.751875 0.000000 0.739753
O O5 0.118113 0.578361 0.500000
O O6 0.105507 0.634010 0.737174
O O7 0.174510 0.568390 0.738434
O O8 0.081025 0.546553 0.749723
O O9 0.765557 0.765557 0.750000
O O10 0.802012 0.727572 0.500000
O O11 0.821684 0.691639 0.773524
O O12 0.737949 0.680225 0.655847
O O13 0.674573 0.120469 0.500000
O O14 0.500000 0.240323 0.229404
O O15 0.409464 0.269485 0.245117
O O16 0.439730 0.227339 0.000000
O O17 0.347025 0.652976 0.250000
O O18 0.314602 0.619659 0.500000
O O19 0.910381 0.910381 0.750000
O O20 0.000000 0.883848 0.774734
O O21 0.939306 0.875310 0.000000
O O22 0.000000 0.500000 0.216897
O O23 0.934421 0.500000 0.000000
#
# Coordination Sequence:
#
# PCOD8315903 Si02
#       8
#    16  16  16  16  16  16  16   8
#     4   8  17  35  54  70  93 129 168 204 248 303
#     4  11  21  37  58  79 105 136 177 226 274 329
#     4  10  19  32  48  70 102 137 173 212 257 310
#     4  11  21  33  53  79 105 136 175 219 268 319
#     4   9  16  30  53  77 101 137 179 219 261 311
#     4   9  17  30  48  71 101 137 173 209 255 307
#     4   9  18  34  55  77 102 132 165 202 249 308
#     4  11  25  43  59  79 107 137 175 227 288 347
#
# _framework density 17.63777
#
# number of rings (size 3 to 8) (size 9 to 14) (size 15 to 20)
#    0.000    2.333    2.000    2.200    0.000    2.533 
#    0.000    4.667    0.000    2.800    0.000    0.000 
#    0.000    0.267    0.000    3.333    0.000    0.000 
#
# Total GULP energy -1487511.321427 kJ/mol
# GULP energy per Si atom -12395.927679 kJ/mol
# Density = 1.759763 g / cm^3
# Si number density = 17.637770 Si / 1000 Ang^3
#
#
#
# Elastic Constant Matrix: (Units=GPa)
#
#
# Indices 1 2 3 4 5 6 
#
# 1 110.3825 72.3864 38.6943 0.0000 0.0000 0.0000
# 2 72.3864 110.3843 38.6945 0.0000 0.0000 0.0000
# 3 38.6943 38.6945 52.0754 0.0000 0.0000 0.0000
# 4 0.0000 0.0000 0.0000 23.1696 0.0000 0.0000
# 5 0.0000 0.0000 0.0000 0.0000 23.1695 0.0000
# 6 0.0000 0.0000 0.0000 0.0000 0.0000 31.6322
#
#
#
# Elastic Compliance Matrix: (Units=1/GPa)
#
#
# Indices 1 2 3 4 5 6 
#
# 1 0.017151 -0.009167 -0.005932 0.000000 0.000000 0.000000
# 2 -0.009167 0.017150 -0.005932 0.000000 0.000000 0.000000
# 3 -0.005932 -0.005932 0.028018 0.000000 0.000000 0.000000
# 4 0.000000 0.000000 0.000000 0.043160 0.000000 0.000000
# 5 0.000000 0.000000 0.000000 0.000000 0.043160 0.000000
# 6 0.000000 0.000000 0.000000 0.000000 0.000000 0.031613
#
#
# Mechanical properties :
#
#
# Convention : Reuss Voigt Hill
#
# Bulk Modulus (GPa) = 49.36543 63.59919 56.48231
# Shear Modulus (GPa) = 21.82770 23.79872 22.81321
#
# Velocity S-wave (km/s) = 3.52171 3.67727 3.60033
# Velocity P-wave (km/s) = 6.67726 7.35979 7.02682
#
# Compressibility (1/GPa) = 0.02025709
#
# Stress axis : x y z
#
# Youngs Moduli (GPa) = 58.30707 58.30806 35.69131
#
# Poissons Ratio (x) = 0.53454 0.21171
# Poissons Ratio (y) = 0.53453 0.21171
# Poissons Ratio (z) = 0.34586 0.34587
#
# Static dielectric constant tensor:
#      x y z
#    x 2.699420 0.000000 0.000000 
#    y 0.000000 2.699270 0.000000 
#    z 0.000000 0.000000 3.189700 
# 
# 
# High freq. dielectric constant tensor:
#      x y z
#    x 1.675410 0.000000 0.000000 
#    y 0.000000 1.675410 0.000000 
#    z 0.000000 0.000000 1.663730 
# 
# From -- ./inp_files/2634.got.cif
#   From: 2010.03.12/outbox.cif.g09.slc.cpg/sg131_2_cif.got.tgz:2634.got - 2010.04.06 17:36:35.
