data_PCOD8315932
_publ_section_title
;
Structure prediction by ZEFSAII (Michael W. Deem and Ramdas Pophale) SiO2 
 PCOD8315932
Probable space group: P 42/M M C
;
_chemical_formula_sum "Si O2"
_cell_formula_units_Z 104
_cell_length_a 25.030489
_cell_length_b 25.030489
_cell_length_c 9.017730
_cell_angle_alpha 90.000000
_cell_angle_beta 90.000000
_cell_angle_gamma 90.000000
_cell_volume 5649.836711
_symmetry_space_group_name_H-M "P 42/M M C"
_symmetry_group_IT_number 131
_symmetry_cell_setting 'tetragonal'
loop_
_space_group_symop_operation_xyz
x,y,z
-x,-y,z
-y,x,1/2+z
y,-x,1/2+z
-x,y,-z
x,-y,-z
y,x,1/2-z
-y,-x,1/2-z
-x,-y,-z
x,y,-z
y,-x,1/2-z
-y,x,1/2-z
x,-y,z
-x,y,z
-y,-x,1/2+z
y,x,1/2+z
loop_
_atom_site_type_symbol
_atom_site_label
_atom_site_fract_x
_atom_site_fract_y
_atom_site_fract_z
Si Si1 0.756587 0.939506 0.675595
Si Si2 0.898073 0.436800 0.164170
Si Si3 0.000000 0.436042 0.665854
Si Si4 0.829333 0.749362 0.323170
Si Si5 0.791170 0.559577 0.327000
Si Si6 0.940183 0.866328 0.663670
Si Si7 0.739410 0.334200 0.671572
O O1 0.751408 0.931305 0.500000
O O2 0.731149 0.887698 0.758789
O O3 0.817058 0.935919 0.726407
O O4 0.734372 0.000000 0.718505
O O5 0.904343 0.500000 0.156082
O O6 0.844220 0.421031 0.245774
O O7 0.948179 0.412434 0.252069
O O8 0.897720 0.411759 0.000000
O O9 0.000000 0.500000 0.665884
O O10 0.000000 0.413553 0.500000
O O11 0.803974 0.803974 0.250000
O O12 0.833281 0.757417 0.500000
O O13 0.790845 0.700123 0.279098
O O14 0.804766 0.559930 0.500000
O O15 0.772843 0.500000 0.276215
O O16 0.746278 0.603135 0.287145
O O17 0.914273 0.914273 0.750000
O O18 0.914374 0.854198 0.500000
O O19 0.000000 0.884099 0.636677
O O20 0.685804 0.314197 0.750000
O O21 0.729497 0.326627 0.500000
#
# Coordination Sequence:
#
# PCOD8315932 Si02
#       7
#    16  16   8  16  16  16  16
#     4  10  20  33  49  68  90 116 149 191 239 290
#     4   9  16  25  39  62  91 123 162 208 255 300
#     4   9  15  23  37  57  83 119 163 209 255 301
#     4  10  19  32  51  73  97 124 158 198 242 294
#     4   9  17  31  51  74 102 135 171 208 248 299
#     4  10  20  32  45  61  82 109 141 178 224 279
#     4   9  19  34  53  78 105 135 170 206 249 295
#
# _framework density 18.407612
#
# number of rings (size 3 to 8) (size 9 to 14) (size 15 to 20)
#    0.000    2.538    0.000    2.538    0.000    6.000 
#    0.000    0.769    1.692    0.000    0.000    0.000 
#    0.000    0.308    0.000    3.846    0.000    0.000 
#
# Total GULP energy -1288582.658401 kJ/mol
# GULP energy per Si atom -12390.217869 kJ/mol
# Density = 1.836572 g / cm^3
# Si number density = 18.407612 Si / 1000 Ang^3
#
#
#
# Elastic Constant Matrix: (Units=GPa)
#
#
# Indices 1 2 3 4 5 6 
#
# 1 82.2251 43.6863 39.5491 0.0000 0.0000 0.0000
# 2 43.6863 82.2210 39.5508 0.0000 0.0000 0.0000
# 3 39.5491 39.5508 78.4718 0.0000 0.0000 0.0000
# 4 0.0000 0.0000 0.0000 17.4865 0.0000 0.0000
# 5 0.0000 0.0000 0.0000 0.0000 17.4871 0.0000
# 6 0.0000 0.0000 0.0000 0.0000 0.0000 17.1925
#
#
#
# Elastic Compliance Matrix: (Units=1/GPa)
#
#
# Indices 1 2 3 4 5 6 
#
# 1 0.018785 -0.007164 -0.005857 0.000000 0.000000 0.000000
# 2 -0.007164 0.018787 -0.005858 0.000000 0.000000 0.000000
# 3 -0.005857 -0.005858 0.018648 0.000000 0.000000 0.000000
# 4 0.000000 0.000000 0.000000 0.057187 0.000000 0.000000
# 5 0.000000 0.000000 0.000000 0.000000 0.057185 0.000000
# 6 0.000000 0.000000 0.000000 0.000000 0.000000 0.058165
#
#
# Mechanical properties :
#
#
# Convention : Reuss Voigt Hill
#
# Bulk Modulus (GPa) = 54.16578 54.27669 54.22123
# Shear Modulus (GPa) = 18.33735 18.44200 18.38968
#
# Velocity S-wave (km/s) = 3.15966 3.16866 3.16417
# Velocity P-wave (km/s) = 6.54224 6.55265 6.54745
#
# Compressibility (1/GPa) = 0.01846184
#
# Stress axis : x y z
#
# Youngs Moduli (GPa) = 53.23454 53.22951 53.62540
#
# Poissons Ratio (x) = 0.38131 0.31407
# Poissons Ratio (y) = 0.38135 0.31415
# Poissons Ratio (z) = 0.31179 0.31183
#
# Static dielectric constant tensor:
#      x y z
#    x 3.284870 0.000000 0.000000 
#    y 0.000000 3.284870 0.000000 
#    z 0.000000 0.000000 3.661630 
# 
# 
# High freq. dielectric constant tensor:
#      x y z
#    x 1.686400 0.000000 0.000000 
#    y 0.000000 1.686400 0.000000 
#    z 0.000000 0.000000 1.726580 
# 
# From -- ./inp_files/2558.got.cif
#   From: 2010.03.12/outbox.cif.g09.slc.cpg/sg131_2_cif.got.tgz:2558.got - 2010.04.06 17:36:35.
