data_PCOD8315102
_publ_section_title
;
Structure prediction by ZEFSAII (Michael W. Deem and Ramdas Pophale) SiO2 
 PCOD8315102
Probable space group: P 4/N M M
;
_chemical_formula_sum "Si O2"
_cell_formula_units_Z 96
_cell_length_a 19.312501
_cell_length_b 19.312501
_cell_length_c 15.217666
_cell_angle_alpha 90.000000
_cell_angle_beta 90.000000
_cell_angle_gamma 90.000000
_cell_volume 5675.773898
_symmetry_space_group_name_H-M "P 4/N M M"
_symmetry_group_IT_number 129
_symmetry_cell_setting 'tetragonal'
loop_
_space_group_symop_operation_xyz
x,y,z
1/2-y,x,z
1/2-x,1/2-y,z
y,1/2-x,z
1/2+x,-y,-z
-x,1/2+y,-z
1/2+y,1/2+x,-z
-y,-x,-z
-x,-y,-z
1/2+y,-x,-z
1/2+x,1/2+y,-z
-y,1/2+x,-z
1/2-x,y,z
x,1/2-y,z
1/2-y,1/2-x,z
y,x,z
loop_
_atom_site_type_symbol
_atom_site_label
_atom_site_fract_x
_atom_site_fract_y
_atom_site_fract_z
Si Si1 0.108265 0.500968 0.389629
Si Si2 0.171616 0.923667 0.236755
Si Si3 0.444864 0.330956 0.901900
Si Si4 0.116301 0.493045 0.582803
Si Si5 0.938355 0.170968 0.036642
Si Si6 0.956187 0.326911 0.750034
O O1 0.160343 0.516217 0.309465
O O2 0.147257 0.502410 0.484429
O O3 0.074214 0.425787 0.373322
O O4 0.047867 0.556972 0.394513
O O5 0.250000 0.895415 0.245891
O O6 0.158103 0.952998 0.139463
O O7 0.118242 0.862523 0.255314
O O8 0.425655 0.250000 0.889558
O O9 0.373972 0.373972 0.906655
O O10 0.491891 0.360047 0.821562
O O11 0.488633 0.344143 0.990169
O O12 0.083584 0.416417 0.590939
O O13 0.175054 0.505047 0.655695
O O14 0.914518 0.250000 0.018598
O O15 0.878011 0.121990 0.000000
O O16 0.939810 0.250000 0.781516
#
# Coordination Sequence:
#
# PCOD8315102 Si02
#       6
#    16  16  16  16  16  16
#     4   8  15  28  46  67  90 119 157 199 244 293
#     4  10  20  32  47  69 100 131 163 205 249 294
#     4  10  21  36  53  75 101 127 162 207 255 307
#     4   8  14  27  46  66  89 119 157 201 245 285
#     4  10  20  35  50  71 100 131 171 211 248 293
#     4  10  19  31  47  70  98 130 168 204 239 289
#
# _framework density 16.913993000000001
#
# number of rings (size 3 to 8) (size 9 to 14) (size 15 to 20)
#    0.000    2.667    1.667    1.500    0.000    3.000 
#    0.000    1.667    0.000    0.000    0.000    4.667 
#    0.000    0.333    0.000    3.667    0.000    6.333 
#
# Total GULP energy -1189729.960395 kJ/mol
# GULP energy per Si atom -12393.020421 kJ/mol
# Density = 1.687550 g / cm^3
# Si number density = 16.913993 Si / 1000 Ang^3
#
#
#
# Elastic Constant Matrix: (Units=GPa)
#
#
# Indices 1 2 3 4 5 6 
#
# 1 69.6646 44.7433 42.3616 0.0000 0.0000 0.0000
# 2 44.7433 69.6638 42.3620 0.0000 0.0000 0.0000
# 3 42.3616 42.3620 145.4521 0.0000 0.0000 0.0000
# 4 0.0000 0.0000 0.0000 22.6912 0.0000 0.0000
# 5 0.0000 0.0000 0.0000 0.0000 22.6913 0.0000
# 6 0.0000 0.0000 0.0000 0.0000 0.0000 22.9289
#
#
#
# Elastic Compliance Matrix: (Units=1/GPa)
#
#
# Indices 1 2 3 4 5 6 
#
# 1 0.025635 -0.014491 -0.003246 0.000000 0.000000 0.000000
# 2 -0.014491 0.025636 -0.003246 0.000000 0.000000 0.000000
# 3 -0.003246 -0.003246 0.008766 0.000000 0.000000 0.000000
# 4 0.000000 0.000000 0.000000 0.044070 0.000000 0.000000
# 5 0.000000 0.000000 0.000000 0.000000 0.044070 0.000000
# 6 0.000000 0.000000 0.000000 0.000000 0.000000 0.043613
#
#
# Mechanical properties :
#
#
# Convention : Reuss Voigt Hill
#
# Bulk Modulus (GPa) = 55.33588 60.41272 57.87430
# Shear Modulus (GPa) = 20.85252 24.01651 22.43452
#
# Velocity S-wave (km/s) = 3.51501 3.77227 3.64591
# Velocity P-wave (km/s) = 7.01861 7.40057 7.21212
#
# Compressibility (1/GPa) = 0.01807146
#
# Stress axis : x y z
#
# Youngs Moduli (GPa) = 39.00851 39.00779 114.08133
#
# Poissons Ratio (x) = 0.56528 0.37026
# Poissons Ratio (y) = 0.56529 0.37029
# Poissons Ratio (z) = 0.12660 0.12661
#
# Static dielectric constant tensor:
#      x y z
#    x 2.973900 0.000000 0.000000 
#    y 0.000000 2.973900 0.000000 
#    z 0.000000 0.000000 3.616490 
# 
# 
# High freq. dielectric constant tensor:
#      x y z
#    x 1.625460 0.000000 0.000000 
#    y 0.000000 1.625460 0.000000 
#    z 0.000000 0.000000 1.674660 
# 
# From -- ./inp_files/4942.got.cif
#   From: 2010.03.12/outbox.cif.g09.slc.cpg/sg129_3_cif.got.tgz:4942.got - 2010.04.06 17:19:44.
