data_PCOD8315568
_publ_section_title
;
Structure prediction by ZEFSAII (Michael W. Deem and Ramdas Pophale) SiO2 
 PCOD8315568
Probable space group: P 4/N C C
;
_chemical_formula_sum "Si O2"
_cell_formula_units_Z 112
_cell_length_a 14.685392
_cell_length_b 14.685392
_cell_length_c 25.235285
_cell_angle_alpha 90.000000
_cell_angle_beta 90.000000
_cell_angle_gamma 90.000000
_cell_volume 5442.260192
_symmetry_space_group_name_H-M "P 4/N C C"
_symmetry_group_IT_number 130
_symmetry_cell_setting 'tetragonal'
loop_
_space_group_symop_operation_xyz
x,y,z
1/2-y,x,z
1/2-x,1/2-y,z
y,1/2-x,z
1/2+x,-y,1/2-z
-x,1/2+y,1/2-z
1/2+y,1/2+x,1/2-z
-y,-x,1/2-z
-x,-y,-z
1/2+y,-x,-z
1/2+x,1/2+y,-z
-y,1/2+x,-z
1/2-x,y,1/2+z
x,1/2-y,1/2+z
1/2-y,1/2-x,1/2+z
y,x,1/2+z
loop_
_atom_site_type_symbol
_atom_site_label
_atom_site_fract_x
_atom_site_fract_y
_atom_site_fract_z
Si Si1 0.703311 0.492311 0.248532
Si Si2 0.205566 0.654983 0.441962
Si Si3 0.602597 0.961503 0.273293
Si Si4 0.616953 0.385854 0.339057
Si Si5 0.957585 0.563554 0.888588
Si Si6 0.555577 0.375815 0.969094
Si Si7 0.835024 0.873834 0.475200
O O1 0.644456 0.581186 0.263181
O O2 0.808185 0.515004 0.241030
O O3 0.690106 0.422058 0.296908
O O4 0.677762 0.453625 0.191468
O O5 0.250000 0.750000 0.461159
O O6 0.168883 0.672281 0.383130
O O7 0.123438 0.622694 0.480350
O O8 0.281102 0.575392 0.439229
O O9 0.621485 0.979865 0.335727
O O10 0.517270 0.017270 0.250000
O O11 0.556021 0.461356 0.368378
O O12 0.863536 0.599178 0.915239
O O13 0.039020 0.574317 0.930847
O O14 0.449665 0.380151 0.986419
O O15 0.726757 0.875463 0.484988
#
# Coordination Sequence:
#
# PCOD8315568 Si02
#       7
#    16  16  16  16  16  16  16
#     4  10  23  45  69  95 138 168 220 280 330 396
#     4  12  25  40  63 100 135 169 221 267 329 403
#     4  11  24  44  68 100 132 173 221 274 335 398
#     4  10  23  43  64  99 131 173 220 276 326 397
#     4  11  24  41  70  93 129 180 218 268 335 386
#     4  12  24  42  65  94 134 176 213 274 329 387
#     4  11  26  43  64  94 130 172 225 272 319 390
#
# _framework density 20.579685999999999
#
# number of rings (size 3 to 8) (size 9 to 14) (size 15 to 20)
#    0.000    1.000    5.714    1.286   10.000    0.286 
#    0.000    1.429    0.000    0.000    0.000    0.000 
#    0.000    0.000    0.000    0.000    0.000    0.000 
#
# Total GULP energy -1388452.485319 kJ/mol
# GULP energy per Si atom -12396.897190 kJ/mol
# Density = 2.053285 g / cm^3
# Si number density = 20.579686 Si / 1000 Ang^3
#
#
#
# Elastic Constant Matrix: (Units=GPa)
#
#
# Indices 1 2 3 4 5 6 
#
# 1 90.2928 20.2968 20.0627 0.0000 0.0000 0.0000
# 2 20.2968 90.2928 20.0627 0.0000 0.0000 0.0000
# 3 20.0627 20.0627 88.9536 0.0000 0.0000 0.0000
# 4 0.0000 0.0000 0.0000 30.8753 0.0000 0.0000
# 5 0.0000 0.0000 0.0000 0.0000 30.8753 0.0000
# 6 0.0000 0.0000 0.0000 0.0000 0.0000 15.5510
#
#
#
# Elastic Compliance Matrix: (Units=1/GPa)
#
#
# Indices 1 2 3 4 5 6 
#
# 1 0.012067 -0.002219 -0.002221 0.000000 0.000000 0.000000
# 2 -0.002219 0.012067 -0.002221 0.000000 0.000000 0.000000
# 3 -0.002221 -0.002221 0.012244 0.000000 0.000000 0.000000
# 4 0.000000 0.000000 0.000000 0.032388 0.000000 0.000000
# 5 0.000000 0.000000 0.000000 0.000000 0.032388 0.000000
# 6 0.000000 0.000000 0.000000 0.000000 0.000000 0.064305
#
#
# Mechanical properties :
#
#
# Convention : Reuss Voigt Hill
#
# Bulk Modulus (GPa) = 43.37332 43.37596 43.37464
# Shear Modulus (GPa) = 26.81421 29.40145 28.10783
#
# Velocity S-wave (km/s) = 3.61355 3.78387 3.69969
# Velocity P-wave (km/s) = 6.20740 6.34137 6.27475
#
# Compressibility (1/GPa) = 0.02305565
#
# Stress axis : x y z
#
# Youngs Moduli (GPa) = 82.86758 82.86758 81.67419
#
# Poissons Ratio (x) = 0.18389 0.18142
# Poissons Ratio (y) = 0.18389 0.18142
# Poissons Ratio (z) = 0.18407 0.18407
#
# Static dielectric constant tensor:
#      x y z
#    x 3.684990 0.000000 0.000000 
#    y 0.000000 3.684990 0.000000 
#    z 0.000000 0.000000 3.895630 
# 
# 
# High freq. dielectric constant tensor:
#      x y z
#    x 1.801500 0.000000 0.000000 
#    y 0.000000 1.801500 0.000000 
#    z 0.000000 0.000000 1.813640 
# 
# From -- ./inp_files/4601.got.cif
#   From: 2010.03.12/outbox.cif.g09.slc.cpg/sg130_3_cif.got.tgz:4601.got - 2010.04.06 17:30:23.
