data_PCOD8315386
_publ_section_title
;
Structure prediction by ZEFSAII (Michael W. Deem and Ramdas Pophale) SiO2 
 PCOD8315386
Probable space group: P 4/N M M
;
_chemical_formula_sum "Si O2"
_cell_formula_units_Z 80
_cell_length_a 22.795535
_cell_length_b 22.795535
_cell_length_c 7.985170
_cell_angle_alpha 90.000000
_cell_angle_beta 90.000000
_cell_angle_gamma 90.000000
_cell_volume 4149.385119
_symmetry_space_group_name_H-M "P 4/N M M"
_symmetry_group_IT_number 129
_symmetry_cell_setting 'tetragonal'
loop_
_space_group_symop_operation_xyz
x,y,z
1/2-y,x,z
1/2-x,1/2-y,z
y,1/2-x,z
1/2+x,-y,-z
-x,1/2+y,-z
1/2+y,1/2+x,-z
-y,-x,-z
-x,-y,-z
1/2+y,-x,-z
1/2+x,1/2+y,-z
-y,1/2+x,-z
1/2-x,y,z
x,1/2-y,z
1/2-y,1/2-x,z
y,x,z
loop_
_atom_site_type_symbol
_atom_site_label
_atom_site_fract_x
_atom_site_fract_y
_atom_site_fract_z
Si Si1 0.127798 0.627798 0.000000
Si Si2 0.346763 0.250000 0.189281
Si Si3 0.750000 0.923537 0.486676
Si Si4 0.750000 0.535657 0.007890
Si Si5 0.373762 0.565279 0.654095
Si Si6 0.250000 0.561110 0.503162
Si Si7 0.442601 0.149915 0.748669
Si Si8 0.250000 0.912329 0.132903
O O1 0.092780 0.607580 0.166943
O O2 0.195515 0.616922 0.039983
O O3 0.307918 0.307918 0.165248
O O4 0.377308 0.250000 0.366805
O O5 0.398019 0.250000 0.054840
O O6 0.691678 0.909086 0.381811
O O7 0.750000 0.991767 0.540694
O O8 0.809635 0.527044 0.111484
O O9 0.750000 0.483435 0.875126
O O10 0.412314 0.587687 0.500000
O O11 0.305691 0.578885 0.614873
O O12 0.385272 0.495507 0.660910
O O13 0.250000 0.599500 0.332437
O O14 0.396169 0.103832 0.824350
#
# Coordination Sequence:
#
# PCOD8315386 Si02
#       8
#     8   8   8   8  16   8  16   8
#     4  12  24  41  65  96 126 158 206 256 311 373
#     4  11  22  34  54  91 129 159 208 268 312 358
#     4   9  19  35  59  82 113 160 212 243 304 357
#     4  11  21  39  62  86 117 171 206 246 311 378
#     4  11  22  38  63  90 123 162 203 255 311 370
#     4  10  20  39  63  89 112 166 211 242 296 378
#     4  10  21  38  60  87 119 159 211 256 299 371
#     4  12  22  40  68  88 123 160 203 249 315 372
#
# _framework density 19.279966000000002
#
# number of rings (size 3 to 8) (size 9 to 14) (size 15 to 20)
#    0.000    1.300    5.000    2.400    0.000    0.600 
#    0.000    0.500    0.000    5.100    0.000    0.000 
#    0.000    0.000    0.000    0.000    0.000    0.000 
#
# Total GULP energy -991815.411194 kJ/mol
# GULP energy per Si atom -12397.692640 kJ/mol
# Density = 1.923608 g / cm^3
# Si number density = 19.279966 Si / 1000 Ang^3
#
#
#
# Elastic Constant Matrix: (Units=GPa)
#
#
# Indices 1 2 3 4 5 6 
#
# 1 92.3756 46.9900 31.2538 0.0000 0.0000 0.0000
# 2 46.9900 92.3754 31.2536 0.0000 0.0000 0.0000
# 3 31.2538 31.2536 111.9507 0.0000 0.0000 0.0000
# 4 0.0000 0.0000 0.0000 44.5599 0.0000 0.0000
# 5 0.0000 0.0000 0.0000 0.0000 44.5599 0.0000
# 6 0.0000 0.0000 0.0000 0.0000 0.0000 30.4442
#
#
#
# Elastic Compliance Matrix: (Units=1/GPa)
#
#
# Indices 1 2 3 4 5 6 
#
# 1 0.015118 -0.006916 -0.002290 0.000000 0.000000 0.000000
# 2 -0.006916 0.015118 -0.002290 0.000000 0.000000 0.000000
# 3 -0.002290 -0.002290 0.010211 0.000000 0.000000 0.000000
# 4 0.000000 0.000000 0.000000 0.022442 0.000000 0.000000
# 5 0.000000 0.000000 0.000000 0.000000 0.022442 0.000000
# 6 0.000000 0.000000 0.000000 0.000000 0.000000 0.032847
#
#
# Mechanical properties :
#
#
# Convention : Reuss Voigt Hill
#
# Bulk Modulus (GPa) = 57.28588 57.29963 57.29275
# Shear Modulus (GPa) = 34.01665 36.39308 35.20487
#
# Velocity S-wave (km/s) = 4.20498 4.34938 4.27779
# Velocity P-wave (km/s) = 7.30431 7.41668 7.36071
#
# Compressibility (1/GPa) = 0.01745631
#
# Stress axis : x y z
#
# Youngs Moduli (GPa) = 66.14653 66.14646 97.93295
#
# Poissons Ratio (x) = 0.45744 0.22426
# Poissons Ratio (y) = 0.45744 0.22426
# Poissons Ratio (z) = 0.15147 0.15147
#
# Static dielectric constant tensor:
#      x y z
#    x 3.464640 0.000000 0.000000 
#    y 0.000000 3.464640 0.000000 
#    z 0.000000 0.000000 3.668870 
# 
# 
# High freq. dielectric constant tensor:
#      x y z
#    x 1.745210 0.000000 0.000000 
#    y 0.000000 1.745210 0.000000 
#    z 0.000000 0.000000 1.757850 
# 
# From -- ./inp_files/2584.got.cif
#   From: 2010.03.12/outbox.cif.g09.slc.cpg/sg129_2_cif.got.tgz:2584.got - 2010.04.06 17:19:44.
