data_PCOD8315871
_publ_section_title
;
Structure prediction by ZEFSAII (Michael W. Deem and Ramdas Pophale) SiO2 
 PCOD8315871
Probable space group: P 42/M M C
;
_chemical_formula_sum "Si O2"
_cell_formula_units_Z 112
_cell_length_a 15.077390
_cell_length_b 15.077390
_cell_length_c 25.960377
_cell_angle_alpha 90.000000
_cell_angle_beta 90.000000
_cell_angle_gamma 90.000000
_cell_volume 5901.512514
_symmetry_space_group_name_H-M "P 42/M M C"
_symmetry_group_IT_number 131
_symmetry_cell_setting 'tetragonal'
loop_
_space_group_symop_operation_xyz
x,y,z
-x,-y,z
-y,x,1/2+z
y,-x,1/2+z
-x,y,-z
x,-y,-z
y,x,1/2-z
-y,-x,1/2-z
-x,-y,-z
x,y,-z
y,-x,1/2-z
-y,x,1/2-z
x,-y,z
-x,y,z
-y,-x,1/2+z
y,x,1/2+z
loop_
_atom_site_type_symbol
_atom_site_label
_atom_site_fract_x
_atom_site_fract_y
_atom_site_fract_z
Si Si1 0.601057 0.783613 0.000000
Si Si2 0.900523 0.769849 0.653036
Si Si3 0.098055 0.758345 0.870779
Si Si4 0.399535 0.785817 0.605499
Si Si5 0.601542 0.270846 0.717805
Si Si6 0.098226 0.696408 0.757637
Si Si7 0.600530 0.899881 0.908734
Si Si8 0.401246 0.320761 0.500000
O O1 0.641531 0.829938 0.949611
O O2 0.607546 0.677031 0.000000
O O3 0.500000 0.813101 0.000000
O O4 0.838090 0.833139 0.618519
O O5 0.875469 0.767845 0.713504
O O6 0.890474 0.665980 0.639152
O O7 0.000000 0.804581 0.643278
O O8 0.131299 0.667126 0.896688
O O9 0.093281 0.751407 0.809729
O O10 0.000000 0.779509 0.893278
O O11 0.500000 0.822066 0.611299
O O12 0.377325 0.724549 0.655919
O O13 0.388885 0.735070 0.551868
O O14 0.661262 0.338738 0.750000
O O15 0.500000 0.296303 0.728416
O O16 0.618712 0.170918 0.737601
O O17 0.000000 0.655376 0.745714
O O18 0.500000 0.875460 0.891442
O O19 0.603241 0.000000 0.931471
O O20 0.500000 0.364703 0.500000
#
# Coordination Sequence:
#
# PCOD8315871 Si02
#       8
#     8  16  16  16  16  16  16   8
#     4  10  19  31  50  74  99 127 160 199 246 302
#     4  10  19  31  48  72 104 137 168 203 245 302
#     4  10  19  32  51  73 100 133 168 210 258 308
#     4   9  19  36  56  76  98 130 173 219 265 305
#     4  10  20  34  53  77 107 140 173 210 251 304
#     4   9  18  32  50  71  97 131 169 211 258 302
#     4   9  18  32  50  73 100 129 162 201 243 289
#     4  10  20  36  56  74  99 135 173 216 263 311
#
# _framework density 18.978185
#
# number of rings (size 3 to 8) (size 9 to 14) (size 15 to 20)
#    0.000    2.429    0.000    3.214    0.000    2.571 
#    0.000    6.786    0.000    6.429    0.000    0.000 
#    0.000    5.714    0.000    0.000    0.000    0.286 
#
# Total GULP energy -1387892.355819 kJ/mol
# GULP energy per Si atom -12391.896034 kJ/mol
# Density = 1.893499 g / cm^3
# Si number density = 18.978185 Si / 1000 Ang^3
#
#
#
# Elastic Constant Matrix: (Units=GPa)
#
#
# Indices 1 2 3 4 5 6 
#
# 1 91.4470 46.2132 28.9221 0.0000 0.0000 0.0000
# 2 46.2132 91.4481 28.9213 0.0000 0.0000 0.0000
# 3 28.9221 28.9213 68.3337 0.0000 0.0000 0.0000
# 4 0.0000 0.0000 0.0000 18.5939 0.0000 0.0000
# 5 0.0000 0.0000 0.0000 0.0000 18.5939 0.0000
# 6 0.0000 0.0000 0.0000 0.0000 0.0000 25.1048
#
#
#
# Elastic Compliance Matrix: (Units=1/GPa)
#
#
# Indices 1 2 3 4 5 6 
#
# 1 0.015472 -0.006636 -0.003740 0.000000 0.000000 0.000000
# 2 -0.006636 0.015471 -0.003739 0.000000 0.000000 0.000000
# 3 -0.003740 -0.003739 0.017800 0.000000 0.000000 0.000000
# 4 0.000000 0.000000 0.000000 0.053781 0.000000 0.000000
# 5 0.000000 0.000000 0.000000 0.000000 0.053781 0.000000
# 6 0.000000 0.000000 0.000000 0.000000 0.000000 0.039833
#
#
# Mechanical properties :
#
#
# Convention : Reuss Voigt Hill
#
# Bulk Modulus (GPa) = 48.75107 51.03798 49.89453
# Shear Modulus (GPa) = 21.62588 22.27002 21.94795
#
# Velocity S-wave (km/s) = 3.37933 3.42929 3.40440
# Velocity P-wave (km/s) = 6.40080 6.52927 6.46535
#
# Compressibility (1/GPa) = 0.02051237
#
# Stress axis : x y z
#
# Youngs Moduli (GPa) = 64.63496 64.63636 56.18117
#
# Poissons Ratio (x) = 0.42891 0.21010
# Poissons Ratio (y) = 0.42890 0.21008
# Poissons Ratio (z) = 0.24172 0.24170
#
# Static dielectric constant tensor:
#      x y z
#    x 3.460020 0.000000 0.000000 
#    y 0.000000 3.460020 0.000000 
#    z 0.000000 0.000000 3.484890 
# 
# 
# High freq. dielectric constant tensor:
#      x y z
#    x 1.728360 0.000000 0.000000 
#    y 0.000000 1.728360 0.000000 
#    z 0.000000 0.000000 1.729280 
# 
# From -- ./inp_files/12510.got.cif
#   From: 2010.03.12/outbox.cif.g09.slc.cpg/sg131_7_cif.got.tgz:12510.got - 2010.04.06 17:36:35.
