data_PCOD8315121
_publ_section_title
;
Structure prediction by ZEFSAII (Michael W. Deem and Ramdas Pophale) SiO2 
 PCOD8315121
Probable space group: P 4/N M M
;
_chemical_formula_sum "Si O2"
_cell_formula_units_Z 96
_cell_length_a 16.634484
_cell_length_b 16.634484
_cell_length_c 20.800997
_cell_angle_alpha 90.000000
_cell_angle_beta 90.000000
_cell_angle_gamma 90.000000
_cell_volume 5755.761881
_symmetry_space_group_name_H-M "P 4/N M M"
_symmetry_group_IT_number 129
_symmetry_cell_setting 'tetragonal'
loop_
_space_group_symop_operation_xyz
x,y,z
1/2-y,x,z
1/2-x,1/2-y,z
y,1/2-x,z
1/2+x,-y,-z
-x,1/2+y,-z
1/2+y,1/2+x,-z
-y,-x,-z
-x,-y,-z
1/2+y,-x,-z
1/2+x,1/2+y,-z
-y,1/2+x,-z
1/2-x,y,z
x,1/2-y,z
1/2-y,1/2-x,z
y,x,z
loop_
_atom_site_type_symbol
_atom_site_label
_atom_site_fract_x
_atom_site_fract_y
_atom_site_fract_z
Si Si1 0.157781 0.472314 0.890175
Si Si2 0.339849 0.030938 0.035593
Si Si3 0.477841 0.342667 0.534778
Si Si4 0.092645 0.542078 0.153410
Si Si5 0.977182 0.658154 0.719834
Si Si6 0.959715 0.406552 0.406560
O O1 0.250000 0.455141 0.874271
O O2 0.109998 0.390003 0.876011
O O3 0.127051 0.545519 0.845365
O O4 0.142054 0.500815 0.963765
O O5 0.250000 0.063209 0.039520
O O6 0.392973 0.107028 0.053654
O O7 0.353536 0.961611 0.088730
O O8 0.456726 0.250000 0.551398
O O9 0.396506 0.396506 0.540051
O O10 0.548218 0.374348 0.582903
O O11 0.516515 0.345979 0.463686
O O12 0.146272 0.530924 0.216588
O O13 0.026431 0.473570 0.149773
O O14 0.946810 0.750000 0.716909
O O15 0.898628 0.601373 0.718531
O O16 0.037456 0.640549 0.660729
O O17 0.024152 0.475849 0.406788
#
# Coordination Sequence:
#
# PCOD8315121 Si02
#       6
#    16  16  16  16  16  16
#     4   9  17  29  46  66  86 110 143 185 230 272
#     4   9  16  26  42  64  89 116 146 182 222 263
#     4   9  16  28  48  71  95 122 153 191 230 267
#     4   9  17  29  44  63  88 120 153 178 209 262
#     4  10  19  31  49  71  95 122 150 181 216 257
#     4   8  16  30  46  66  93 128 161 182 213 267
#
# _framework density 16.678939
#
# number of rings (size 3 to 8) (size 9 to 14) (size 15 to 20)
#    0.000    3.000    0.000    2.500    0.000    2.667 
#    0.000    2.500    0.000   17.500    0.000    4.667 
#    0.000    6.667    0.000    0.000    0.000    0.167 
#
# Total GULP energy -1189621.422532 kJ/mol
# GULP energy per Si atom -12391.889818 kJ/mol
# Density = 1.664098 g / cm^3
# Si number density = 16.678939 Si / 1000 Ang^3
#
#
#
# Elastic Constant Matrix: (Units=GPa)
#
#
# Indices 1 2 3 4 5 6 
#
# 1 80.9119 53.9236 38.8579 0.0000 0.0000 0.0000
# 2 53.9236 80.9119 38.8579 0.0000 0.0000 0.0000
# 3 38.8579 38.8579 71.8936 0.0000 0.0000 0.0000
# 4 0.0000 0.0000 0.0000 18.6793 0.0000 0.0000
# 5 0.0000 0.0000 0.0000 0.0000 18.6793 0.0000
# 6 0.0000 0.0000 0.0000 0.0000 0.0000 15.8923
#
#
#
# Elastic Compliance Matrix: (Units=1/GPa)
#
#
# Indices 1 2 3 4 5 6 
#
# 1 0.023913 -0.013140 -0.005822 0.000000 0.000000 0.000000
# 2 -0.013140 0.023913 -0.005822 0.000000 0.000000 0.000000
# 3 -0.005822 -0.005822 0.020203 0.000000 0.000000 0.000000
# 4 0.000000 0.000000 0.000000 0.053535 0.000000 0.000000
# 5 0.000000 0.000000 0.000000 0.000000 0.053535 0.000000
# 6 0.000000 0.000000 0.000000 0.000000 0.000000 0.062924
#
#
# Mechanical properties :
#
#
# Convention : Reuss Voigt Hill
#
# Bulk Modulus (GPa) = 54.17547 55.22180 54.69863
# Shear Modulus (GPa) = 17.02153 17.45537 17.23845
#
# Velocity S-wave (km/s) = 3.19806 3.23855 3.21837
# Velocity P-wave (km/s) = 6.79622 6.86767 6.83204
#
# Compressibility (1/GPa) = 0.01845854
#
# Stress axis : x y z
#
# Youngs Moduli (GPa) = 41.81888 41.81888 49.49684
#
# Poissons Ratio (x) = 0.54951 0.28819
# Poissons Ratio (y) = 0.54951 0.28819
# Poissons Ratio (z) = 0.24348 0.24348
#
# Static dielectric constant tensor:
#      x y z
#    x 3.032090 0.000000 0.000000 
#    y 0.000000 3.032090 0.000000 
#    z 0.000000 0.000000 3.740850 
# 
# 
# High freq. dielectric constant tensor:
#      x y z
#    x 1.624500 0.000000 0.000000 
#    y 0.000000 1.624500 0.000000 
#    z 0.000000 0.000000 1.637080 
# 
# From -- ./inp_files/6583.got.cif
#   From: 2010.03.12/outbox.cif.g09.slc.cpg/sg129_4_cif.got.tgz:6583.got - 2010.04.06 17:19:44.
