data_PCOD8315218
_publ_section_title
;
Structure prediction by ZEFSAII (Michael W. Deem and Ramdas Pophale) SiO2 
 PCOD8315218
Probable space group: P 4/N M M
;
_chemical_formula_sum "Si O2"
_cell_formula_units_Z 112
_cell_length_a 21.902974
_cell_length_b 21.902974
_cell_length_c 13.847746
_cell_angle_alpha 90.000000
_cell_angle_beta 90.000000
_cell_angle_gamma 90.000000
_cell_volume 6643.321406
_symmetry_space_group_name_H-M "P 4/N M M"
_symmetry_group_IT_number 129
_symmetry_cell_setting 'tetragonal'
loop_
_space_group_symop_operation_xyz
x,y,z
1/2-y,x,z
1/2-x,1/2-y,z
y,1/2-x,z
1/2+x,-y,-z
-x,1/2+y,-z
1/2+y,1/2+x,-z
-y,-x,-z
-x,-y,-z
1/2+y,-x,-z
1/2+x,1/2+y,-z
-y,1/2+x,-z
1/2-x,y,z
x,1/2-y,z
1/2-y,1/2-x,z
y,x,z
loop_
_atom_site_type_symbol
_atom_site_label
_atom_site_fract_x
_atom_site_fract_y
_atom_site_fract_z
Si Si1 0.680135 0.915203 0.410588
Si Si2 0.585039 0.682956 0.187168
Si Si3 0.913634 0.484157 0.856852
Si Si4 0.357429 0.818276 0.395845
Si Si5 0.063049 0.679486 0.697652
Si Si6 0.994115 0.606790 0.068292
Si Si7 0.532101 0.129864 0.506507
O O1 0.750000 0.917454 0.449678
O O2 0.652597 0.847404 0.428552
O O3 0.677592 0.931950 0.298718
O O4 0.633550 0.962117 0.461829
O O5 0.607123 0.750000 0.160197
O O6 0.640163 0.640163 0.155684
O O7 0.524499 0.667510 0.125771
O O8 0.864262 0.470663 0.774289
O O9 0.962775 0.537226 0.825831
O O10 0.944475 0.419682 0.884395
O O11 0.878277 0.503606 0.954423
O O12 0.324468 0.824468 0.500000
O O13 0.348855 0.750000 0.355919
O O14 0.331041 0.863825 0.313869
O O15 0.428677 0.833010 0.414044
O O16 0.050737 0.750000 0.725891
O O17 0.033840 0.664119 0.595051
O O18 0.945463 0.554538 0.088010
O O19 0.560606 0.060606 0.500000
#
# Coordination Sequence:
#
# PCOD8315218 Si02
#       7
#    16  16  16  16  16  16  16
#     4  10  20  33  49  71 103 137 167 201 239 289
#     4   9  18  30  48  73  99 129 162 198 239 286
#     4   9  18  33  51  68  92 125 156 194 241 290
#     4   9  17  30  48  67  93 131 166 195 233 283
#     4  10  20  31  46  72 100 122 152 199 241 280
#     4   8  16  32  51  69  90 119 158 199 238 281
#     4   9  19  33  48  69  98 129 162 204 251 285
#
# _framework density 16.859036
#
# number of rings (size 3 to 8) (size 9 to 14) (size 15 to 20)
#    0.000    3.143    0.000    3.429    4.000    2.714 
#    0.000    1.429    0.000    1.286    0.000    0.000 
#    0.000    0.286    0.000    0.286    0.000    0.286 
#
# Total GULP energy -1387572.075478 kJ/mol
# GULP energy per Si atom -12389.036388 kJ/mol
# Density = 1.682066 g / cm^3
# Si number density = 16.859036 Si / 1000 Ang^3
#
#
#
# Elastic Constant Matrix: (Units=GPa)
#
#
# Indices 1 2 3 4 5 6 
#
# 1 90.5035 46.8408 43.0320 0.0000 0.0000 0.0000
# 2 46.8408 90.5035 43.0320 0.0000 0.0000 0.0000
# 3 43.0320 43.0320 56.1641 0.0000 0.0000 0.0000
# 4 0.0000 0.0000 0.0000 20.2467 0.0000 0.0000
# 5 0.0000 0.0000 0.0000 0.0000 20.2467 0.0000
# 6 0.0000 0.0000 0.0000 0.0000 0.0000 12.4496
#
#
#
# Elastic Compliance Matrix: (Units=1/GPa)
#
#
# Indices 1 2 3 4 5 6 
#
# 1 0.018454 -0.004449 -0.010730 0.000000 0.000000 0.000000
# 2 -0.004449 0.018454 -0.010730 0.000000 0.000000 0.000000
# 3 -0.010730 -0.010730 0.034248 0.000000 0.000000 0.000000
# 4 0.000000 0.000000 0.000000 0.049391 0.000000 0.000000
# 5 0.000000 0.000000 0.000000 0.000000 0.049391 0.000000
# 6 0.000000 0.000000 0.000000 0.000000 0.000000 0.080324
#
#
# Mechanical properties :
#
#
# Convention : Reuss Voigt Hill
#
# Bulk Modulus (GPa) = 51.71629 55.88676 53.80152
# Shear Modulus (GPa) = 16.20612 17.53970 16.87291
#
# Velocity S-wave (km/s) = 3.10380 3.22898 3.16701
# Velocity P-wave (km/s) = 6.60205 6.86463 6.73462
#
# Compressibility (1/GPa) = 0.01933627
#
# Stress axis : x y z
#
# Youngs Moduli (GPa) = 54.18912 54.18912 29.19890
#
# Poissons Ratio (x) = 0.24108 0.31332
# Poissons Ratio (y) = 0.24108 0.31332
# Poissons Ratio (z) = 0.58147 0.58147
#
# Static dielectric constant tensor:
#      x y z
#    x 3.207780 0.000000 0.000000 
#    y 0.000000 3.207780 0.000000 
#    z 0.000000 0.000000 3.008110 
# 
# 
# High freq. dielectric constant tensor:
#      x y z
#    x 1.639930 0.000000 0.000000 
#    y 0.000000 1.639930 0.000000 
#    z 0.000000 0.000000 1.627790 
# 
# From -- ./inp_files/4122.got.cif
#   From: 2010.03.12/outbox.cif.g09.slc.cpg/sg129_3_cif.got.tgz:4122.got - 2010.04.06 17:19:44.
