data_PCOD8315677
_publ_section_title
;
Structure prediction by ZEFSAII (Michael W. Deem and Ramdas Pophale) SiO2 
 PCOD8315677
Probable space group: P 42/M M C
;
_chemical_formula_sum "Si O2"
_cell_formula_units_Z 80
_cell_length_a 15.057536
_cell_length_b 15.057536
_cell_length_c 19.326277
_cell_angle_alpha 90.000000
_cell_angle_beta 90.000000
_cell_angle_gamma 90.000000
_cell_volume 4381.835003
_symmetry_space_group_name_H-M "P 42/M M C"
_symmetry_group_IT_number 131
_symmetry_cell_setting 'tetragonal'
loop_
_space_group_symop_operation_xyz
x,y,z
-x,-y,z
-y,x,1/2+z
y,-x,1/2+z
-x,y,-z
x,-y,-z
y,x,1/2-z
-y,-x,1/2-z
-x,-y,-z
x,y,-z
y,-x,1/2-z
-y,x,1/2-z
x,-y,z
-x,y,z
-y,-x,1/2+z
y,x,1/2+z
loop_
_atom_site_type_symbol
_atom_site_label
_atom_site_fract_x
_atom_site_fract_y
_atom_site_fract_z
Si Si1 0.773359 0.903948 0.839439
Si Si2 0.689300 0.597887 0.339943
Si Si3 0.599913 0.144826 0.920390
Si Si4 0.101073 0.249685 0.823745
Si Si5 0.769214 0.400661 0.806127
O O1 0.676561 0.899018 0.874601
O O2 0.843966 0.828815 0.862540
O O3 0.763194 0.898852 0.757677
O O4 0.813859 0.000000 0.859402
O O5 0.644924 0.500000 0.331098
O O6 0.748871 0.601678 0.408735
O O7 0.615070 0.673740 0.343114
O O8 0.756644 0.617233 0.275765
O O9 0.500000 0.109486 0.900714
O O10 0.620253 0.124025 0.000000
O O11 0.154208 0.340126 0.839394
O O12 0.000000 0.253861 0.852708
O O13 0.799832 0.500000 0.821316
#
# Coordination Sequence:
#
# PCOD8315677 Si02
#       5
#    16  16  16  16  16
#     4  10  19  33  51  71 100 133 164 202 248 297
#     4   9  16  29  47  70 103 133 163 202 244 296
#     4  10  19  31  50  75 104 139 172 199 235 290
#     4  10  19  32  50  73 100 128 163 207 256 300
#     4  10  17  28  49  73  99 130 162 201 255 305
#
# _framework density 18.257192
#
# number of rings (size 3 to 8) (size 9 to 14) (size 15 to 20)
#    0.000    2.200    4.000    1.200    0.000    2.000 
#    0.000    7.000    0.000    1.200    0.000    4.200 
#    0.000    1.600    0.000    0.000    0.000    0.000 
#
# Total GULP energy -991259.584296 kJ/mol
# GULP energy per Si atom -12390.744804 kJ/mol
# Density = 1.821564 g / cm^3
# Si number density = 18.257192 Si / 1000 Ang^3
#
#
#
# Elastic Constant Matrix: (Units=GPa)
#
#
# Indices 1 2 3 4 5 6 
#
# 1 135.3163 78.3282 16.5026 0.0000 0.0000 0.0000
# 2 78.3282 135.3163 16.5026 0.0000 0.0000 0.0000
# 3 16.5026 16.5026 28.8428 0.0000 0.0000 0.0000
# 4 0.0000 0.0000 0.0000 7.1466 0.0000 0.0000
# 5 0.0000 0.0000 0.0000 0.0000 7.1466 0.0000
# 6 0.0000 0.0000 0.0000 0.0000 0.0000 11.4417
#
#
#
# Elastic Compliance Matrix: (Units=1/GPa)
#
#
# Indices 1 2 3 4 5 6 
#
# 1 0.011341 -0.006206 -0.002938 0.000000 0.000000 0.000000
# 2 -0.006206 0.011341 -0.002938 0.000000 0.000000 0.000000
# 3 -0.002938 -0.002938 0.038032 0.000000 0.000000 0.000000
# 4 0.000000 0.000000 0.000000 0.139927 0.000000 0.000000
# 5 0.000000 0.000000 0.000000 0.000000 0.139927 0.000000
# 6 0.000000 0.000000 0.000000 0.000000 0.000000 0.087400
#
#
# Mechanical properties :
#
#
# Convention : Reuss Voigt Hill
#
# Bulk Modulus (GPa) = 27.35945 58.01582 42.68764
# Shear Modulus (GPa) = 10.76854 17.68978 14.22916
#
# Velocity S-wave (km/s) = 2.43127 3.11613 2.79475
# Velocity P-wave (km/s) = 4.78534 6.69275 5.81775
#
# Compressibility (1/GPa) = 0.03655044
#
# Stress axis : x y z
#
# Youngs Moduli (GPa) = 88.17558 88.17558 26.29335
#
# Poissons Ratio (x) = 0.54726 0.07724
# Poissons Ratio (y) = 0.54726 0.07724
# Poissons Ratio (z) = 0.25904 0.25904
#
# Static dielectric constant tensor:
#      x y z
#    x 3.520860 0.000000 0.000000 
#    y 0.000000 3.520860 0.000000 
#    z 0.000000 0.000000 2.925800 
# 
# 
# High freq. dielectric constant tensor:
#      x y z
#    x 1.708780 0.000000 0.000000 
#    y 0.000000 1.708780 0.000000 
#    z 0.000000 0.000000 1.645920 
# 
# From -- ./inp_files/9439.got.cif
#   From: 2010.03.12/outbox.cif.g09.slc.cpg/sg131_5_cif.got.tgz:9439.got - 2010.04.06 17:36:35.
