data_PCOD8315074
_publ_section_title
;
Structure prediction by ZEFSAII (Michael W. Deem and Ramdas Pophale) SiO2 
 PCOD8315074
Probable space group: P 4/N M M
;
_chemical_formula_sum "Si O2"
_cell_formula_units_Z 64
_cell_length_a 15.247840
_cell_length_b 15.247840
_cell_length_c 15.987459
_cell_angle_alpha 90.000000
_cell_angle_beta 90.000000
_cell_angle_gamma 90.000000
_cell_volume 3717.030254
_symmetry_space_group_name_H-M "P 4/N M M"
_symmetry_group_IT_number 129
_symmetry_cell_setting 'tetragonal'
loop_
_space_group_symop_operation_xyz
x,y,z
1/2-y,x,z
1/2-x,1/2-y,z
y,1/2-x,z
1/2+x,-y,-z
-x,1/2+y,-z
1/2+y,1/2+x,-z
-y,-x,-z
-x,-y,-z
1/2+y,-x,-z
1/2+x,1/2+y,-z
-y,1/2+x,-z
1/2-x,y,z
x,1/2-y,z
1/2-y,1/2-x,z
y,x,z
loop_
_atom_site_type_symbol
_atom_site_label
_atom_site_fract_x
_atom_site_fract_y
_atom_site_fract_z
Si Si1 0.512806 0.652686 0.563606
Si Si2 0.491790 0.351113 0.796469
Si Si3 0.152909 0.853519 0.093710
Si Si4 0.652512 0.059910 0.384980
O O1 0.544229 0.750000 0.587345
O O2 0.584309 0.584309 0.597809
O O3 0.504776 0.641927 0.463730
O O4 0.419404 0.636481 0.608508
O O5 0.473483 0.250000 0.821465
O O6 0.409013 0.409013 0.825762
O O7 0.579960 0.387750 0.841244
O O8 0.502757 0.361869 0.697447
O O9 0.250000 0.894076 0.113473
O O10 0.161176 0.750000 0.101421
O O11 0.121834 0.878167 0.000000
O O12 0.750000 0.102963 0.384534
#
# Coordination Sequence:
#
# PCOD8315074 Si02
#       4
#    16  16  16  16
#     4  10  19  31  47  65  90 121 150 185 225 267
#     4  10  19  30  46  68  94 122 150 180 216 264
#     4   8  15  29  47  66  89 116 147 186 228 263
#     4   9  18  32  48  65  87 117 152 190 230 264
#
# _framework density 17.218048
#
# number of rings (size 3 to 8) (size 9 to 14) (size 15 to 20)
#    0.000    2.750    0.000    3.750    0.000    2.500 
#    0.000    5.000    0.000    4.500    0.000    0.000 
#    0.000    0.500    0.000    0.500    0.000    0.000 
#
# Total GULP energy -793288.301385 kJ/mol
# GULP energy per Si atom -12395.129709 kJ/mol
# Density = 1.717886 g / cm^3
# Si number density = 17.218048 Si / 1000 Ang^3
#
#
#
# Elastic Constant Matrix: (Units=GPa)
#
#
# Indices 1 2 3 4 5 6 
#
# 1 103.3212 68.6932 30.2689 0.0000 0.0000 0.0000
# 2 68.6932 103.3209 30.2689 0.0000 0.0000 0.0000
# 3 30.2689 30.2689 44.9521 0.0000 0.0000 0.0000
# 4 0.0000 0.0000 0.0000 14.2938 0.0000 0.0000
# 5 0.0000 0.0000 0.0000 0.0000 14.2941 0.0000
# 6 0.0000 0.0000 0.0000 0.0000 0.0000 19.5011
#
#
#
# Elastic Compliance Matrix: (Units=1/GPa)
#
#
# Indices 1 2 3 4 5 6 
#
# 1 0.018249 -0.010630 -0.005130 0.000000 0.000000 0.000000
# 2 -0.010630 0.018249 -0.005130 0.000000 0.000000 0.000000
# 3 -0.005130 -0.005130 0.029155 0.000000 0.000000 0.000000
# 4 0.000000 0.000000 0.000000 0.069960 0.000000 0.000000
# 5 0.000000 0.000000 0.000000 0.000000 0.069959 0.000000
# 6 0.000000 0.000000 0.000000 0.000000 0.000000 0.051279
#
#
# Mechanical properties :
#
#
# Convention : Reuss Voigt Hill
#
# Bulk Modulus (GPa) = 41.89056 56.67291 49.28174
# Shear Modulus (GPa) = 16.30850 17.77537 17.04193
#
# Velocity S-wave (km/s) = 3.08096 3.21653 3.14948
# Velocity P-wave (km/s) = 6.08594 6.83967 6.47378
#
# Compressibility (1/GPa) = 0.02387173
#
# Stress axis : x y z
#
# Youngs Moduli (GPa) = 54.79833 54.79817 34.29938
#
# Poissons Ratio (x) = 0.58249 0.17597
# Poissons Ratio (y) = 0.58249 0.17597
# Poissons Ratio (z) = 0.28113 0.28113
#
# Static dielectric constant tensor:
#      x y z
#    x 3.186640 0.000000 0.000000 
#    y 0.000000 3.186650 0.000000 
#    z 0.000000 0.000000 3.212250 
# 
# 
# High freq. dielectric constant tensor:
#      x y z
#    x 1.646890 0.000000 0.000000 
#    y 0.000000 1.646890 0.000000 
#    z 0.000000 0.000000 1.650690 
# 
# From -- ./inp_files/4458.got.cif
#   From: 2010.03.12/outbox.cif.g09.slc.cpg/sg129_3_cif.got.tgz:4458.got - 2010.04.06 17:19:44.
