data_PCOD8315415
_publ_section_title
;
Structure prediction by ZEFSAII (Michael W. Deem and Ramdas Pophale) SiO2 
 PCOD8315415
Probable space group: P 4/N M M
;
_chemical_formula_sum "Si O2"
_cell_formula_units_Z 112
_cell_length_a 28.882821
_cell_length_b 28.882821
_cell_length_c 6.770090
_cell_angle_alpha 90.000000
_cell_angle_beta 90.000000
_cell_angle_gamma 90.000000
_cell_volume 5647.726532
_symmetry_space_group_name_H-M "P 4/N M M"
_symmetry_group_IT_number 129
_symmetry_cell_setting 'tetragonal'
loop_
_space_group_symop_operation_xyz
x,y,z
1/2-y,x,z
1/2-x,1/2-y,z
y,1/2-x,z
1/2+x,-y,-z
-x,1/2+y,-z
1/2+y,1/2+x,-z
-y,-x,-z
-x,-y,-z
1/2+y,-x,-z
1/2+x,1/2+y,-z
-y,1/2+x,-z
1/2-x,y,z
x,1/2-y,z
1/2-y,1/2-x,z
y,x,z
loop_
_atom_site_type_symbol
_atom_site_label
_atom_site_fract_x
_atom_site_fract_y
_atom_site_fract_z
Si Si1 0.827659 0.459604 0.272694
Si Si2 0.083860 0.647434 0.883685
Si Si3 0.026943 0.593561 0.574494
Si Si4 0.300697 0.877743 0.464177
Si Si5 0.949433 0.698961 0.113324
Si Si6 0.636365 0.937016 0.749512
Si Si7 0.195840 0.380243 0.551817
O O1 0.876117 0.462900 0.382714
O O2 0.799183 0.417539 0.368663
O O3 0.802348 0.509320 0.277522
O O4 0.833530 0.452461 0.039450
O O5 0.061450 0.607146 0.751376
O O6 0.098842 0.690162 0.746937
O O7 0.128154 0.628154 0.000000
O O8 0.041082 0.541082 0.500000
O O9 0.974564 0.602268 0.645174
O O10 0.339166 0.839166 0.500000
O O11 0.250000 0.854427 0.460797
O O12 0.947906 0.750000 0.017626
O O13 0.901485 0.689822 0.229258
O O14 0.957649 0.661655 0.940859
O O15 0.604013 0.895988 0.825175
O O16 0.674675 0.917297 0.600731
O O17 0.250000 0.371502 0.501656
O O18 0.168493 0.331508 0.541972
#
# Coordination Sequence:
#
# PCOD8315415 Si02
#       7
#    16  16  16  16  16  16  16
#     4  11  20  38  60  87 116 149 188 249 305 355
#     4  11  19  38  62  83 111 150 190 243 305 354
#     4  11  21  35  61  87 118 158 204 245 293 355
#     4  11  24  39  58  85 115 151 198 248 303 367
#     4  11  22  37  62  92 120 154 198 249 306 364
#     4  11  23  39  58  85 126 166 203 245 293 353
#     4  10  22  41  64  91 125 162 202 252 307 365
#
# _framework density 19.83099
#
# number of rings (size 3 to 8) (size 9 to 14) (size 15 to 20)
#    0.000    1.143    5.714    2.143    0.000    1.714 
#    0.000    0.000    0.000    1.286    0.000    2.000 
#    0.000    0.000    0.000    0.000    0.000    0.000 
#
# Total GULP energy -1388122.809348 kJ/mol
# GULP energy per Si atom -12393.953655 kJ/mol
# Density = 1.978585 g / cm^3
# Si number density = 19.830990 Si / 1000 Ang^3
#
#
#
# Elastic Constant Matrix: (Units=GPa)
#
#
# Indices 1 2 3 4 5 6 
#
# 1 105.7993 55.0278 40.8623 0.0000 0.0000 0.0000
# 2 55.0278 105.7993 40.8623 0.0000 0.0000 0.0000
# 3 40.8623 40.8623 106.3963 0.0000 0.0000 0.0000
# 4 0.0000 0.0000 0.0000 20.6256 0.0000 0.0000
# 5 0.0000 0.0000 0.0000 0.0000 20.6256 0.0000
# 6 0.0000 0.0000 0.0000 0.0000 0.0000 14.3485
#
#
#
# Elastic Compliance Matrix: (Units=1/GPa)
#
#
# Indices 1 2 3 4 5 6 
#
# 1 0.013711 -0.005985 -0.002967 0.000000 0.000000 0.000000
# 2 -0.005985 0.013711 -0.002967 0.000000 0.000000 0.000000
# 3 -0.002967 -0.002967 0.011678 0.000000 0.000000 0.000000
# 4 0.000000 0.000000 0.000000 0.048484 0.000000 0.000000
# 5 0.000000 0.000000 0.000000 0.000000 0.048484 0.000000
# 6 0.000000 0.000000 0.000000 0.000000 0.000000 0.069693
#
#
# Mechanical properties :
#
#
# Convention : Reuss Voigt Hill
#
# Bulk Modulus (GPa) = 65.52751 65.72217 65.62484
# Shear Modulus (GPa) = 21.30509 23.20278 22.25393
#
# Velocity S-wave (km/s) = 3.28126 3.42428 3.35353
# Velocity P-wave (km/s) = 6.88987 6.98908 6.93965
#
# Compressibility (1/GPa) = 0.01526077
#
# Stress axis : x y z
#
# Youngs Moduli (GPa) = 72.93508 72.93508 85.63205
#
# Poissons Ratio (x) = 0.43653 0.25408
# Poissons Ratio (y) = 0.43653 0.25408
# Poissons Ratio (z) = 0.21640 0.21640
#
# Static dielectric constant tensor:
#      x y z
#    x 3.500920 0.000000 0.000000 
#    y 0.000000 3.500920 0.000000 
#    z 0.000000 0.000000 3.639100 
# 
# 
# High freq. dielectric constant tensor:
#      x y z
#    x 1.765120 0.000000 0.000000 
#    y 0.000000 1.765120 0.000000 
#    z 0.000000 0.000000 1.778580 
# 
# From -- ./inp_files/1181.got.cif
#   From: 2010.03.12/outbox.cif.g09.slc.cpg/sg129_1_cif.got.tgz:1181.got - 2010.04.06 17:19:44.
