data_PCOD8315795
_publ_section_title
;
Structure prediction by ZEFSAII (Michael W. Deem and Ramdas Pophale) SiO2 
 PCOD8315795
Probable space group: P 42/M M C
;
_chemical_formula_sum "Si O2"
_cell_formula_units_Z 40
_cell_length_a 7.424218
_cell_length_b 7.424218
_cell_length_c 33.070852
_cell_angle_alpha 90.000000
_cell_angle_beta 90.000000
_cell_angle_gamma 90.000000
_cell_volume 1822.832718
_symmetry_space_group_name_H-M "P 42/M M C"
_symmetry_group_IT_number 131
_symmetry_cell_setting 'tetragonal'
loop_
_space_group_symop_operation_xyz
x,y,z
-x,-y,z
-y,x,1/2+z
y,-x,1/2+z
-x,y,-z
x,-y,-z
y,x,1/2-z
-y,-x,1/2-z
-x,-y,-z
x,y,-z
y,-x,1/2-z
-y,x,1/2-z
x,-y,z
-x,y,z
-y,-x,1/2+z
y,x,1/2+z
loop_
_atom_site_type_symbol
_atom_site_label
_atom_site_fract_x
_atom_site_fract_y
_atom_site_fract_z
Si Si1 0.209800 0.300269 0.585789
Si Si2 0.290403 0.000000 0.736501
Si Si3 0.785326 0.000000 0.645329
Si Si4 0.200303 0.788448 0.500000
O O1 0.245945 0.500000 0.601709
O O2 0.288064 0.170798 0.620115
O O3 0.300389 0.274860 0.541273
O O4 0.000000 0.253089 0.580781
O O5 0.180246 0.180246 0.750000
O O6 0.308977 0.000000 0.688369
O O7 0.500000 0.000000 0.753346
O O8 0.000000 0.000000 0.651890
O O9 0.000000 0.702737 0.500000
O O10 0.191874 0.000000 0.500000
#
# Coordination Sequence:
#
# PCOD8315795 Si02
#       4
#    16   8   8   8
#     4   9  16  24  41  71 111 158 205 256 315 372
#     4  11  25  48  74 102 135 172 216 273 341 414
#     4  10  18  34  55  84 117 154 205 261 319 388
#     4   9  13  21  35  60 107 158 206 260 310 360
#
# _framework density 21.943868999999999
#
# number of rings (size 3 to 8) (size 9 to 14) (size 15 to 20)
#    0.000    2.400    4.000    0.600    0.000    4.400 
#    0.000    0.000    0.000    0.000    0.000    2.800 
#    0.000    3.200    0.000    0.000    0.000    0.000 
#
# Total GULP energy -495575.021775 kJ/mol
# GULP energy per Si atom -12389.375544 kJ/mol
# Density = 2.189392 g / cm^3
# Si number density = 21.943869 Si / 1000 Ang^3
#
#
#
# Elastic Constant Matrix: (Units=GPa)
#
#
# Indices 1 2 3 4 5 6 
#
# 1 112.7261 25.8078 37.1859 0.0000 0.0000 0.0000
# 2 25.8078 112.7261 37.1859 0.0000 0.0000 0.0000
# 3 37.1859 37.1859 167.2950 0.0000 0.0000 0.0000
# 4 0.0000 0.0000 0.0000 -16.4664 0.0000 0.0000
# 5 0.0000 0.0000 0.0000 0.0000 -16.4664 0.0000
# 6 0.0000 0.0000 0.0000 0.0000 0.0000 1.4824
#
#
#
# Elastic Compliance Matrix: (Units=1/GPa)
#
#
# Indices 1 2 3 4 5 6 
#
# 1 0.009851 -0.001654 -0.001822 0.000000 0.000000 0.000000
# 2 -0.001654 0.009851 -0.001822 0.000000 0.000000 0.000000
# 3 -0.001822 -0.001822 0.006787 0.000000 0.000000 0.000000
# 4 0.000000 0.000000 0.000000 -0.060730 0.000000 0.000000
# 5 0.000000 0.000000 0.000000 0.000000 -0.060730 0.000000
# 6 0.000000 0.000000 0.000000 0.000000 0.000000 0.674585
#
#
# Mechanical properties :
#
#
# Convention : Reuss Voigt Hill
#
# Bulk Modulus (GPa) = 62.92133 65.90070 64.41102
# Shear Modulus (GPa) = 8.39619 13.21442 10.80530
#
# Velocity S-wave (km/s) = 1.95819 2.45662 2.22143
# Velocity P-wave (km/s) = 5.81796 6.17603 5.99967
#
# Compressibility (1/GPa) = 0.01589286
#
# Stress axis : x y z
#
# Youngs Moduli (GPa) = 101.51461 101.51461 147.33181
#
# Poissons Ratio (x) = 0.16793 0.26842
# Poissons Ratio (y) = 0.16793 0.26842
# Poissons Ratio (z) = 0.18495 0.18495
#
# Static dielectric constant tensor:
#      x y z
#    x 3.654760 0.000000 0.000000 
#    y 0.000000 3.654760 0.000000 
#    z 0.000000 0.000000 4.101200 
# 
# 
# High freq. dielectric constant tensor:
#      x y z
#    x 1.838600 0.000000 0.000000 
#    y 0.000000 1.838600 0.000000 
#    z 0.000000 0.000000 1.864250 
# 
# From -- ./inp_files/11738.got.cif
#   From: 2010.03.12/outbox.cif.g09.slc.cpg/sg131_6_cif.got.tgz:11738.got - 2010.04.06 17:36:35.
