data_PCOD8315012
_publ_section_title
;
Structure prediction by ZEFSAII (Michael W. Deem and Ramdas Pophale) SiO2 
 PCOD8315012
Probable space group: P 4/N M M
;
_chemical_formula_sum "Si O2"
_cell_formula_units_Z 80
_cell_length_a 19.345980
_cell_length_b 19.345980
_cell_length_c 13.887915
_cell_angle_alpha 90.000000
_cell_angle_beta 90.000000
_cell_angle_gamma 90.000000
_cell_volume 5197.787480
_symmetry_space_group_name_H-M "P 4/N M M"
_symmetry_group_IT_number 129
_symmetry_cell_setting 'tetragonal'
loop_
_space_group_symop_operation_xyz
x,y,z
1/2-y,x,z
1/2-x,1/2-y,z
y,1/2-x,z
1/2+x,-y,-z
-x,1/2+y,-z
1/2+y,1/2+x,-z
-y,-x,-z
-x,-y,-z
1/2+y,-x,-z
1/2+x,1/2+y,-z
-y,1/2+x,-z
1/2-x,y,z
x,1/2-y,z
1/2-y,1/2-x,z
y,x,z
loop_
_atom_site_type_symbol
_atom_site_label
_atom_site_fract_x
_atom_site_fract_y
_atom_site_fract_z
Si Si1 0.424958 0.539902 0.195737
Si Si2 0.992404 0.327666 0.876181
Si Si3 0.826660 0.937198 0.320934
Si Si4 0.169865 0.057494 0.082357
Si Si5 0.424978 0.540358 0.600590
O O1 0.494571 0.494571 0.179836
O O2 0.434407 0.613454 0.141046
O O3 0.358173 0.501405 0.154443
O O4 0.411234 0.552512 0.309658
O O5 0.959015 0.250000 0.877026
O O6 0.049960 0.332157 0.793098
O O7 0.031580 0.342632 0.974811
O O8 0.750000 0.920450 0.355240
O O9 0.871553 0.871553 0.350131
O O10 0.851199 0.006126 0.376238
O O11 0.250000 0.071028 0.105339
O O12 0.128942 0.128942 0.098743
O O13 0.417992 0.582009 0.500000
O O14 0.479829 0.479829 0.588466
#
# Coordination Sequence:
#
# PCOD8315012 Si02
#       5
#    16  16  16  16  16
#     4   9  16  27  44  63  82 107 142 181 216 252
#     4   9  16  26  42  64  88 112 140 175 213 251
#     4   9  16  25  38  59  86 113 139 166 201 249
#     4  10  19  29  42  61  86 117 150 181 212 247
#     4   8  14  26  43  60  77  99 131 174 218 251
#
# _framework density 15.391164
#
# number of rings (size 3 to 8) (size 9 to 14) (size 15 to 20)
#    0.000    3.000    0.000    3.600    0.000    2.000 
#    0.000    1.000    0.000    4.200    0.000    2.800 
#    0.000   10.000    0.000    0.200    0.000    0.400 
#
# Total GULP energy -991554.775328 kJ/mol
# GULP energy per Si atom -12394.434692 kJ/mol
# Density = 1.535613 g / cm^3
# Si number density = 15.391164 Si / 1000 Ang^3
#
#
#
# Elastic Constant Matrix: (Units=GPa)
#
#
# Indices 1 2 3 4 5 6 
#
# 1 86.1660 49.2060 48.0281 0.0000 0.0000 0.0000
# 2 49.2060 86.1659 48.0281 0.0000 0.0000 0.0000
# 3 48.0281 48.0281 86.9291 0.0000 0.0000 0.0000
# 4 0.0000 0.0000 0.0000 13.4423 0.0000 0.0000
# 5 0.0000 0.0000 0.0000 0.0000 13.4425 0.0000
# 6 0.0000 0.0000 0.0000 0.0000 0.0000 15.6955
#
#
#
# Elastic Compliance Matrix: (Units=1/GPa)
#
#
# Indices 1 2 3 4 5 6 
#
# 1 0.019603 -0.007453 -0.006713 0.000000 0.000000 0.000000
# 2 -0.007453 0.019603 -0.006713 0.000000 0.000000 0.000000
# 3 -0.006713 -0.006713 0.018922 0.000000 0.000000 0.000000
# 4 0.000000 0.000000 0.000000 0.074392 0.000000 0.000000
# 5 0.000000 0.000000 0.000000 0.000000 0.074391 0.000000
# 6 0.000000 0.000000 0.000000 0.000000 0.000000 0.063712
#
#
# Mechanical properties :
#
#
# Convention : Reuss Voigt Hill
#
# Bulk Modulus (GPa) = 61.08694 61.08727 61.08710
# Shear Modulus (GPa) = 15.73125 16.11599 15.92362
#
# Velocity S-wave (km/s) = 3.20049 3.23939 3.22000
# Velocity P-wave (km/s) = 7.30981 7.33264 7.32123
#
# Compressibility (1/GPa) = 0.01637011
#
# Stress axis : x y z
#
# Youngs Moduli (GPa) = 51.01163 51.01145 52.84972
#
# Poissons Ratio (x) = 0.38018 0.35478
# Poissons Ratio (y) = 0.38019 0.35479
# Poissons Ratio (z) = 0.34245 0.34245
#
# Static dielectric constant tensor:
#      x y z
#    x 2.848730 0.000000 0.000000 
#    y 0.000000 2.848730 0.000000 
#    z 0.000000 0.000000 3.164740 
# 
# 
# High freq. dielectric constant tensor:
#      x y z
#    x 1.568460 0.000000 0.000000 
#    y 0.000000 1.568460 0.000000 
#    z 0.000000 0.000000 1.589810 
# 
# From -- ./inp_files/4556.got.cif
#   From: 2010.03.12/outbox.cif.g09.slc.cpg/sg129_3_cif.got.tgz:4556.got - 2010.04.06 17:19:44.
