data_PCOD8315758
_publ_section_title
;
Structure prediction by ZEFSAII (Michael W. Deem and Ramdas Pophale) SiO2 
 PCOD8315758
Probable space group: P 42/M M C
;
_chemical_formula_sum "Si O2"
_cell_formula_units_Z 80
_cell_length_a 22.511278
_cell_length_b 22.511278
_cell_length_c 9.140715
_cell_angle_alpha 90.000000
_cell_angle_beta 90.000000
_cell_angle_gamma 90.000000
_cell_volume 4632.127136
_symmetry_space_group_name_H-M "P 42/M M C"
_symmetry_group_IT_number 131
_symmetry_cell_setting 'tetragonal'
loop_
_space_group_symop_operation_xyz
x,y,z
-x,-y,z
-y,x,1/2+z
y,-x,1/2+z
-x,y,-z
x,-y,-z
y,x,1/2-z
-y,-x,1/2-z
-x,-y,-z
x,y,-z
y,-x,1/2-z
-y,x,1/2-z
x,-y,z
-x,y,z
-y,-x,1/2+z
y,x,1/2+z
loop_
_atom_site_type_symbol
_atom_site_label
_atom_site_fract_x
_atom_site_fract_y
_atom_site_fract_z
Si Si1 0.500000 0.273705 0.166984
Si Si2 0.933635 0.153850 0.170347
Si Si3 0.714868 0.371246 0.333930
Si Si4 0.382331 0.851663 0.827432
Si Si5 0.846830 0.500000 0.826664
Si Si6 0.931174 0.290556 0.832633
O O1 0.561114 0.310760 0.188178
O O2 0.500000 0.222373 0.286784
O O3 0.500000 0.246565 0.000000
O O4 0.886757 0.113244 0.250000
O O5 0.917899 0.222059 0.201844
O O6 0.000000 0.139738 0.228047
O O7 0.930091 0.140197 0.000000
O O8 0.675419 0.324582 0.250000
O O9 0.710491 0.351118 0.500000
O O10 0.783348 0.369398 0.282241
O O11 0.440935 0.875816 0.743820
O O12 0.327335 0.891394 0.778982
O O13 0.392463 0.857520 0.000000
O O14 0.856728 0.500000 0.000000
O O15 0.000000 0.305388 0.805068
O O16 0.914044 0.305602 0.000000
#
# Coordination Sequence:
#
# PCOD8315758 Si02
#       6
#     8  16  16  16   8  16
#     4   8  16  32  48  66  98 134 163 201 250 292
#     4   9  19  35  53  74 101 132 166 206 251 298
#     4   9  18  31  48  71  99 128 160 200 244 289
#     4  10  20  34  51  73 102 132 162 202 248 291
#     4  10  18  30  51  75  97 127 166 204 243 289
#     4   9  19  36  54  72  98 131 165 202 245 293
#
# _framework density 17.270682999999998
#
# number of rings (size 3 to 8) (size 9 to 14) (size 15 to 20)
#    0.000    2.800    0.000    3.900    0.000    6.600 
#    0.000    7.500    0.000    3.300    0.000    2.100 
#    0.000    0.000    0.000    0.000    0.000    0.000 
#
# Total GULP energy -991561.399206 kJ/mol
# GULP energy per Si atom -12394.517490 kJ/mol
# Density = 1.723137 g / cm^3
# Si number density = 17.270683 Si / 1000 Ang^3
#
#
#
# Elastic Constant Matrix: (Units=GPa)
#
#
# Indices 1 2 3 4 5 6 
#
# 1 91.4849 70.1081 52.9278 0.0000 0.0000 0.0000
# 2 70.1081 91.4786 52.9317 0.0000 0.0000 0.0000
# 3 52.9278 52.9317 82.6217 0.0000 0.0000 0.0000
# 4 0.0000 0.0000 0.0000 32.5226 0.0000 0.0000
# 5 0.0000 0.0000 0.0000 0.0000 32.5229 0.0000
# 6 0.0000 0.0000 0.0000 0.0000 0.0000 -34.1577
#
#
#
# Elastic Compliance Matrix: (Units=1/GPa)
#
#
# Indices 1 2 3 4 5 6 
#
# 1 0.028723 -0.018061 -0.006829 0.000000 0.000000 0.000000
# 2 -0.018061 0.028728 -0.006835 0.000000 0.000000 0.000000
# 3 -0.006829 -0.006835 0.020856 0.000000 0.000000 0.000000
# 4 0.000000 0.000000 0.000000 0.030748 0.000000 0.000000
# 5 0.000000 0.000000 0.000000 0.000000 0.030748 0.000000
# 6 0.000000 0.000000 0.000000 0.000000 0.000000 -0.029276
#
#
# Mechanical properties :
#
#
# Convention : Reuss Voigt Hill
#
# Bulk Modulus (GPa) = 67.30453 68.61337 67.95895
# Shear Modulus (GPa) = 27.94411 12.15207 20.04809
#
# Velocity S-wave (km/s) = 4.02681 2.65547 3.41077
# Velocity P-wave (km/s) = 7.78943 7.01545 7.41255
#
# Compressibility (1/GPa) = 0.01485784
#
# Stress axis : x y z
#
# Youngs Moduli (GPa) = 34.81588 34.80901 47.94673
#
# Poissons Ratio (x) = 0.62870 0.32742
# Poissons Ratio (y) = 0.62882 0.32770
# Poissons Ratio (z) = 0.23775 0.23791
#
# Static dielectric constant tensor:
#      x y z
#    x 3.238420 0.000000 0.000000 
#    y 0.000000 3.238430 0.000000 
#    z 0.000000 0.000000 3.136050 
# 
# 
# High freq. dielectric constant tensor:
#      x y z
#    x 1.658860 0.000000 0.000000 
#    y 0.000000 1.658860 0.000000 
#    z 0.000000 0.000000 1.667890 
# 
# From -- ./inp_files/2094.got.cif
#   From: 2010.03.12/outbox.cif.g09.slc.cpg/sg131_2_cif.got.tgz:2094.got - 2010.04.06 17:36:35.
