data_PCOD8315364
_publ_section_title
;
Structure prediction by ZEFSAII (Michael W. Deem and Ramdas Pophale) SiO2 
 PCOD8315364
Probable space group: P 4/N M M
;
_chemical_formula_sum "Si O2"
_cell_formula_units_Z 128
_cell_length_a 23.321914
_cell_length_b 23.321914
_cell_length_c 12.930267
_cell_angle_alpha 90.000000
_cell_angle_beta 90.000000
_cell_angle_gamma 90.000000
_cell_volume 7032.923151
_symmetry_space_group_name_H-M "P 4/N M M"
_symmetry_group_IT_number 129
_symmetry_cell_setting 'tetragonal'
loop_
_space_group_symop_operation_xyz
x,y,z
1/2-y,x,z
1/2-x,1/2-y,z
y,1/2-x,z
1/2+x,-y,-z
-x,1/2+y,-z
1/2+y,1/2+x,-z
-y,-x,-z
-x,-y,-z
1/2+y,-x,-z
1/2+x,1/2+y,-z
-y,1/2+x,-z
1/2-x,y,z
x,1/2-y,z
1/2-y,1/2-x,z
y,x,z
loop_
_atom_site_type_symbol
_atom_site_label
_atom_site_fract_x
_atom_site_fract_y
_atom_site_fract_z
Si Si1 0.604824 0.101455 0.749686
Si Si2 0.092765 0.185318 0.396849
Si Si3 0.184711 0.684542 0.377771
Si Si4 0.884234 0.187390 0.064539
Si Si5 0.972749 0.876558 0.772734
Si Si6 0.684650 0.990228 0.991419
Si Si7 0.093661 0.315573 0.627635
Si Si8 0.526284 0.619583 0.198582
O O1 0.636399 0.140729 0.664205
O O2 0.638575 0.111261 0.853161
O O3 0.539457 0.117186 0.769374
O O4 0.605364 0.033985 0.726274
O O5 0.112324 0.250000 0.382814
O O6 0.149273 0.149273 0.376720
O O7 0.046420 0.170306 0.310521
O O8 0.067219 0.175252 0.512409
O O9 0.180920 0.680920 0.500000
O O10 0.250000 0.667974 0.342707
O O11 0.171246 0.750000 0.341106
O O12 0.876361 0.250000 0.115282
O O13 0.941171 0.186007 0.994209
O O14 0.827295 0.172705 0.000000
O O15 0.932113 0.932113 0.775770
O O16 0.973727 0.847820 0.885674
O O17 0.750000 0.966212 0.988509
O O18 0.650659 0.963917 0.088493
O O19 0.101846 0.250000 0.656314
O O20 0.156333 0.343668 0.632605
O O21 0.052410 0.343120 0.710648
O O22 0.557100 0.557100 0.192740
#
# Coordination Sequence:
#
# PCOD8315364 Si02
#       8
#    16  16  16  16  16  16  16  16
#     4  11  22  36  55  80 106 144 187 226 271 328
#     4   9  18  34  55  80 110 140 175 221 273 330
#     4   9  20  39  60  83 111 144 188 240 288 336
#     4  10  20  35  51  74 104 134 172 220 269 319
#     4  10  21  36  55  80 111 148 189 230 274 325
#     4  10  20  35  56  79 106 141 184 228 272 327
#     4   9  19  35  55  80 108 139 175 219 273 331
#     4  11  22  36  55  79 111 148 186 228 275 327
#
# _framework density 18.200112000000001
#
# number of rings (size 3 to 8) (size 9 to 14) (size 15 to 20)
#    0.000    2.125    1.250    2.250    0.000    4.375 
#    0.000    5.625    0.000    3.750    0.000    0.000 
#    0.000    9.000    0.000    0.000    0.000    0.000 
#
# Total GULP energy -1586282.681415 kJ/mol
# GULP energy per Si atom -12392.833449 kJ/mol
# Density = 1.815869 g / cm^3
# Si number density = 18.200112 Si / 1000 Ang^3
#
#
#
# Elastic Constant Matrix: (Units=GPa)
#
#
# Indices 1 2 3 4 5 6 
#
# 1 114.0573 45.7831 45.3311 0.0000 0.0000 0.0000
# 2 45.7831 114.0573 45.3296 0.0000 0.0000 0.0000
# 3 45.3311 45.3296 85.9088 0.0000 0.0000 0.0000
# 4 0.0000 0.0000 0.0000 29.6963 0.0000 0.0000
# 5 0.0000 0.0000 0.0000 0.0000 29.6959 0.0000
# 6 0.0000 0.0000 0.0000 0.0000 0.0000 20.4191
#
#
#
# Elastic Compliance Matrix: (Units=1/GPa)
#
#
# Indices 1 2 3 4 5 6 
#
# 1 0.011788 -0.002859 -0.004711 0.000000 0.000000 0.000000
# 2 -0.002859 0.011787 -0.004711 0.000000 0.000000 0.000000
# 3 -0.004711 -0.004711 0.016612 0.000000 0.000000 0.000000
# 4 0.000000 0.000000 0.000000 0.033674 0.000000 0.000000
# 5 0.000000 0.000000 0.000000 0.000000 0.033675 0.000000
# 6 0.000000 0.000000 0.000000 0.000000 0.000000 0.048974
#
#
# Mechanical properties :
#
#
# Convention : Reuss Voigt Hill
#
# Bulk Modulus (GPa) = 64.00314 65.21233 64.60773
# Shear Modulus (GPa) = 26.84121 27.80090 27.32106
#
# Velocity S-wave (km/s) = 3.84446 3.91258 3.87867
# Velocity P-wave (km/s) = 7.41277 7.50464 7.45884
#
# Compressibility (1/GPa) = 0.01562423
#
# Stress axis : x y z
#
# Youngs Moduli (GPa) = 84.83424 84.83575 60.19763
#
# Poissons Ratio (x) = 0.24256 0.28361
# Poissons Ratio (y) = 0.24256 0.28359
# Poissons Ratio (z) = 0.39968 0.39965
#
# Static dielectric constant tensor:
#      x y z
#    x 3.216100 0.000000 0.000000 
#    y 0.000000 3.216210 0.000000 
#    z 0.000000 0.000000 3.420520 
# 
# 
# High freq. dielectric constant tensor:
#      x y z
#    x 1.707640 0.000000 0.000000 
#    y 0.000000 1.707640 0.000000 
#    z 0.000000 0.000000 1.709540 
# 
# From -- ./inp_files/4224.got.cif
#   From: 2010.03.12/outbox.cif.g09.slc.cpg/sg129_3_cif.got.tgz:4224.got - 2010.04.06 17:19:44.
