data_PCOD8315978
_publ_section_title
;
Structure prediction by ZEFSAII (Michael W. Deem and Ramdas Pophale) SiO2 
 PCOD8315978
Probable space group: P 42/M M C
;
_chemical_formula_sum "Si O2"
_cell_formula_units_Z 120
_cell_length_a 17.781647
_cell_length_b 17.781647
_cell_length_c 19.800523
_cell_angle_alpha 90.000000
_cell_angle_beta 90.000000
_cell_angle_gamma 90.000000
_cell_volume 6260.667372
_symmetry_space_group_name_H-M "P 42/M M C"
_symmetry_group_IT_number 131
_symmetry_cell_setting 'tetragonal'
loop_
_space_group_symop_operation_xyz
x,y,z
-x,-y,z
-y,x,1/2+z
y,-x,1/2+z
-x,y,-z
x,-y,-z
y,x,1/2-z
-y,-x,1/2-z
-x,-y,-z
x,y,-z
y,-x,1/2-z
-y,x,1/2-z
x,-y,z
-x,y,z
-y,-x,1/2+z
y,x,1/2+z
loop_
_atom_site_type_symbol
_atom_site_label
_atom_site_fract_x
_atom_site_fract_y
_atom_site_fract_z
Si Si1 0.580782 0.086747 0.265067
Si Si2 0.801805 0.801427 0.170795
Si Si3 0.338756 0.696867 0.824276
Si Si4 0.412373 0.414314 0.577141
Si Si5 0.159432 0.415838 0.628969
Si Si6 0.277179 0.087502 0.075410
Si Si7 0.911184 0.688805 0.876309
Si Si8 0.586049 0.089108 0.500000
O O1 0.500000 0.124240 0.283832
O O2 0.596813 0.096924 0.186561
O O3 0.648272 0.120493 0.308681
O O4 0.576342 0.000000 0.284097
O O5 0.818682 0.818682 0.250000
O O6 0.740770 0.735798 0.162282
O O7 0.776808 0.877819 0.133075
O O8 0.873924 0.771201 0.128633
O O9 0.340106 0.659895 0.750000
O O10 0.353879 0.630756 0.877381
O O11 0.402884 0.759720 0.835981
O O12 0.385884 0.403602 0.500000
O O13 0.395213 0.500000 0.600270
O O14 0.500000 0.397012 0.584190
O O15 0.157376 0.500000 0.598321
O O16 0.134589 0.355717 0.572843
O O17 0.290337 0.000000 0.092705
O O18 0.242391 0.095944 0.000000
O O19 0.882955 0.634669 0.936281
O O20 0.000000 0.701606 0.880412
O O21 0.500000 0.122137 0.500000
O O22 0.579312 0.000000 0.500000
#
# Coordination Sequence:
#
# PCOD8315978 Si02
#       8
#    16  16  16  16  16  16  16   8
#     4   9  16  27  47  75 108 145 179 215 264 321
#     4  10  22  38  57  83 112 144 185 232 275 331
#     4  10  20  34  51  74 106 140 176 225 277 325
#     4   9  19  36  54  70  93 130 178 229 277 327
#     4  10  20  33  52  80 110 141 184 232 277 327
#     4  10  22  39  59  83 114 151 183 222 281 344
#     4  10  19  33  55  79 107 146 188 229 273 328
#     4   9  18  32  50  78 115 149 184 227 275 333
#
# _framework density 19.167286000000001
#
# number of rings (size 3 to 8) (size 9 to 14) (size 15 to 20)
#    0.000    2.333    0.000    4.000    0.933    7.467 
#    0.000    2.667    0.000    0.400    0.000    1.867 
#    0.000    0.000    0.000    0.000    0.000    0.000 
#
# Total GULP energy -1487193.334763 kJ/mol
# GULP energy per Si atom -12393.277790 kJ/mol
# Density = 1.912366 g / cm^3
# Si number density = 19.167286 Si / 1000 Ang^3
#
#
#
# Elastic Constant Matrix: (Units=GPa)
#
#
# Indices 1 2 3 4 5 6 
#
# 1 66.2484 37.8445 40.0210 0.0000 0.0000 0.0000
# 2 37.8445 66.2488 40.0210 0.0000 0.0000 0.0000
# 3 40.0210 40.0210 98.2904 0.0000 0.0000 0.0000
# 4 0.0000 0.0000 0.0000 28.0570 0.0000 0.0000
# 5 0.0000 0.0000 0.0000 0.0000 28.0569 0.0000
# 6 0.0000 0.0000 0.0000 0.0000 0.0000 26.9333
#
#
#
# Elastic Compliance Matrix: (Units=1/GPa)
#
#
# Indices 1 2 3 4 5 6 
#
# 1 0.024596 -0.010610 -0.005695 0.000000 0.000000 0.000000
# 2 -0.010610 0.024596 -0.005694 0.000000 0.000000 0.000000
# 3 -0.005695 -0.005694 0.014811 0.000000 0.000000 0.000000
# 4 0.000000 0.000000 0.000000 0.035642 0.000000 0.000000
# 5 0.000000 0.000000 0.000000 0.000000 0.035642 0.000000
# 6 0.000000 0.000000 0.000000 0.000000 0.000000 0.037129
#
#
# Mechanical properties :
#
#
# Convention : Reuss Voigt Hill
#
# Bulk Modulus (GPa) = 49.98929 51.84006 50.91468
# Shear Modulus (GPa) = 22.41327 24.13618 23.27473
#
# Velocity S-wave (km/s) = 3.42329 3.55242 3.48845
# Velocity P-wave (km/s) = 6.46238 6.62806 6.54574
#
# Compressibility (1/GPa) = 0.02000428
#
# Stress axis : x y z
#
# Youngs Moduli (GPa) = 40.65708 40.65739 67.51638
#
# Poissons Ratio (x) = 0.43139 0.38448
# Poissons Ratio (y) = 0.43138 0.38447
# Poissons Ratio (z) = 0.23152 0.23152
#
# Static dielectric constant tensor:
#      x y z
#    x 3.403640 0.000000 0.000000 
#    y 0.000000 3.403640 0.000000 
#    z 0.000000 0.000000 3.563650 
# 
# 
# High freq. dielectric constant tensor:
#      x y z
#    x 1.730590 0.000000 0.000000 
#    y 0.000000 1.730590 0.000000 
#    z 0.000000 0.000000 1.746410 
# 
# From -- ./inp_files/10152.got.cif
#   From: 2010.03.12/outbox.cif.g09.slc.cpg/sg131_6_cif.got.tgz:10152.got - 2010.04.06 17:36:35.
