data_PCOD8315015
_publ_section_title
;
Structure prediction by ZEFSAII (Michael W. Deem and Ramdas Pophale) SiO2 
 PCOD8315015
Probable space group: P 4/N M M
;
_chemical_formula_sum "Si O2"
_cell_formula_units_Z 80
_cell_length_a 13.478941
_cell_length_b 13.478941
_cell_length_c 25.773665
_cell_angle_alpha 90.000000
_cell_angle_beta 90.000000
_cell_angle_gamma 90.000000
_cell_volume 4682.607151
_symmetry_space_group_name_H-M "P 4/N M M"
_symmetry_group_IT_number 129
_symmetry_cell_setting 'tetragonal'
loop_
_space_group_symop_operation_xyz
x,y,z
1/2-y,x,z
1/2-x,1/2-y,z
y,1/2-x,z
1/2+x,-y,-z
-x,1/2+y,-z
1/2+y,1/2+x,-z
-y,-x,-z
-x,-y,-z
1/2+y,-x,-z
1/2+x,1/2+y,-z
-y,1/2+x,-z
1/2-x,y,z
x,1/2-y,z
1/2-y,1/2-x,z
y,x,z
loop_
_atom_site_type_symbol
_atom_site_label
_atom_site_fract_x
_atom_site_fract_y
_atom_site_fract_z
Si Si1 0.366480 0.979313 0.654806
Si Si2 0.360174 0.631637 0.443447
Si Si3 0.367212 0.530340 0.952579
Si Si4 0.638091 0.365250 0.243437
Si Si5 0.366849 0.973089 0.138936
O O1 0.250000 0.990162 0.652290
O O2 0.409310 0.927257 0.603140
O O3 0.401318 0.918841 0.705195
O O4 0.411141 0.088860 0.658116
O O5 0.402104 0.597896 0.500000
O O6 0.250000 0.588409 0.434947
O O7 0.356057 0.750000 0.442270
O O8 0.250000 0.508600 0.955689
O O9 0.425148 0.425148 0.953756
O O10 0.391428 0.591266 0.900613
O O11 0.400857 0.599144 0.000000
O O12 0.750000 0.399497 0.229488
O O13 0.636427 0.250000 0.256159
O O14 0.566240 0.391509 0.196127
O O15 0.250000 0.988996 0.129902
O O16 0.421619 0.078382 0.130304
#
# Coordination Sequence:
#
# PCOD8315015 Si02
#       5
#    16  16  16  16  16
#     4  10  19  29  42  61  87 118 148 178 214 260
#     4   8  14  26  44  64  84 105 134 178 227 266
#     4  10  21  36  54  77 103 131 165 203 242 285
#     4   9  17  30  49  70  89 112 147 192 238 277
#     4  10  20  33  50  73 100 129 161 196 235 281
#
# _framework density 17.084499999999998
#
# number of rings (size 3 to 8) (size 9 to 14) (size 15 to 20)
#    0.000    2.600    0.000    3.000    0.000    5.600 
#    0.000    0.000    0.000    3.600    0.000    2.800 
#    0.000    3.600    0.000    0.800    0.000    0.000 
#
# Total GULP energy -991769.110535 kJ/mol
# GULP energy per Si atom -12397.113882 kJ/mol
# Density = 1.704562 g / cm^3
# Si number density = 17.084500 Si / 1000 Ang^3
#
#
#
# Elastic Constant Matrix: (Units=GPa)
#
#
# Indices 1 2 3 4 5 6 
#
# 1 81.3439 49.2330 49.8243 0.0000 0.0000 0.0000
# 2 49.2330 81.3439 49.8242 0.0000 0.0000 0.0000
# 3 49.8243 49.8242 128.5264 0.0000 0.0000 0.0000
# 4 0.0000 0.0000 0.0000 17.7225 0.0000 0.0000
# 5 0.0000 0.0000 0.0000 0.0000 17.7224 0.0000
# 6 0.0000 0.0000 0.0000 0.0000 0.0000 21.1877
#
#
#
# Elastic Compliance Matrix: (Units=1/GPa)
#
#
# Indices 1 2 3 4 5 6 
#
# 1 0.021009 -0.010133 -0.004216 0.000000 0.000000 0.000000
# 2 -0.010133 0.021009 -0.004216 0.000000 0.000000 0.000000
# 3 -0.004216 -0.004216 0.011049 0.000000 0.000000 0.000000
# 4 0.000000 0.000000 0.000000 0.056425 0.000000 0.000000
# 5 0.000000 0.000000 0.000000 0.000000 0.056426 0.000000
# 6 0.000000 0.000000 0.000000 0.000000 0.000000 0.047197
#
#
# Mechanical properties :
#
#
# Convention : Reuss Voigt Hill
#
# Bulk Modulus (GPa) = 62.74888 65.44191 64.09540
# Shear Modulus (GPa) = 19.56501 20.81537 20.19019
#
# Velocity S-wave (km/s) = 3.38774 3.49431 3.44144
# Velocity P-wave (km/s) = 7.21877 7.39380 7.30681
#
# Compressibility (1/GPa) = 0.01593654
#
# Stress axis : x y z
#
# Youngs Moduli (GPa) = 47.59881 47.59889 90.50346
#
# Poissons Ratio (x) = 0.48233 0.38157
# Poissons Ratio (y) = 0.48232 0.38157
# Poissons Ratio (z) = 0.20068 0.20068
#
# Static dielectric constant tensor:
#      x y z
#    x 2.994490 0.000000 0.000000 
#    y 0.000000 2.994490 0.000000 
#    z 0.000000 0.000000 3.517230 
# 
# 
# High freq. dielectric constant tensor:
#      x y z
#    x 1.640420 0.000000 0.000000 
#    y 0.000000 1.640420 0.000000 
#    z 0.000000 0.000000 1.682170 
# 
# From -- ./inp_files/7693.got.cif
#   From: 2010.03.12/outbox.cif.g09.slc.cpg/sg129_4_cif.got.tgz:7693.got - 2010.04.06 17:19:44.
