data_PCOD8315149
_publ_section_title
;
Structure prediction by ZEFSAII (Michael W. Deem and Ramdas Pophale) SiO2 
 PCOD8315149
Probable space group: P 4/N M M
;
_chemical_formula_sum "Si O2"
_cell_formula_units_Z 80
_cell_length_a 13.206382
_cell_length_b 13.206382
_cell_length_c 26.556919
_cell_angle_alpha 90.000000
_cell_angle_beta 90.000000
_cell_angle_gamma 90.000000
_cell_volume 4631.753085
_symmetry_space_group_name_H-M "P 4/N M M"
_symmetry_group_IT_number 129
_symmetry_cell_setting 'tetragonal'
loop_
_space_group_symop_operation_xyz
x,y,z
1/2-y,x,z
1/2-x,1/2-y,z
y,1/2-x,z
1/2+x,-y,-z
-x,1/2+y,-z
1/2+y,1/2+x,-z
-y,-x,-z
-x,-y,-z
1/2+y,-x,-z
1/2+x,1/2+y,-z
-y,1/2+x,-z
1/2-x,y,z
x,1/2-y,z
1/2-y,1/2-x,z
y,x,z
loop_
_atom_site_type_symbol
_atom_site_label
_atom_site_fract_x
_atom_site_fract_y
_atom_site_fract_z
Si Si1 0.632375 0.134853 0.849478
Si Si2 0.631737 0.366113 0.354628
Si Si3 0.632685 0.470867 0.456523
Si Si4 0.499199 0.499199 0.077948
Si Si5 0.367568 0.528639 0.252854
Si Si6 0.371606 0.128395 0.999234
O O1 0.750000 0.119419 0.861438
O O2 0.598629 0.250000 0.857346
O O3 0.608099 0.106256 0.791930
O O4 0.571714 0.067324 0.888064
O O5 0.750000 0.379497 0.345501
O O6 0.603432 0.250000 0.364564
O O7 0.594895 0.428187 0.403037
O O8 0.576758 0.407290 0.304851
O O9 0.611343 0.388658 0.500000
O O10 0.750000 0.497051 0.455393
O O11 0.574059 0.574059 0.468859
O O12 0.574291 0.574291 0.047975
O O13 0.425272 0.425272 0.046622
O O14 0.250000 0.502751 0.255705
O O15 0.423664 0.423664 0.242545
O O16 0.392133 0.250000 0.999144
#
# Coordination Sequence:
#
# PCOD8315149 Si02
#       6
#    16  16  16   8  16   8
#     4  10  20  34  53  78 105 134 172 216 259 303
#     4   9  17  30  50  74  98 129 169 211 257 306
#     4  10  20  33  50  73 100 131 171 217 263 311
#     4  11  20  36  58  80 106 138 175 214 254 298
#     4  10  19  32  49  72 103 136 170 210 255 307
#     4  10  22  38  56  80 110 142 174 208 252 306
#
# _framework density 17.272076999999999
#
# number of rings (size 3 to 8) (size 9 to 14) (size 15 to 20)
#    0.000    2.100    1.000    3.000    0.000    3.800 
#    0.000    0.000    0.000    4.800    0.000    2.800 
#    0.000    0.000    0.000    0.000    0.000    0.000 
#
# Total GULP energy -991924.521599 kJ/mol
# GULP energy per Si atom -12399.056520 kJ/mol
# Density = 1.723276 g / cm^3
# Si number density = 17.272077 Si / 1000 Ang^3
#
#
#
# Elastic Constant Matrix: (Units=GPa)
#
#
# Indices 1 2 3 4 5 6 
#
# 1 92.8754 45.9467 57.7854 0.0000 0.0000 0.0000
# 2 45.9467 92.8740 57.7861 0.0000 0.0000 0.0000
# 3 57.7854 57.7861 127.5579 0.0000 0.0000 0.0000
# 4 0.0000 0.0000 0.0000 29.4055 0.0000 0.0000
# 5 0.0000 0.0000 0.0000 0.0000 29.4055 0.0000
# 6 0.0000 0.0000 0.0000 0.0000 0.0000 29.2405
#
#
#
# Elastic Compliance Matrix: (Units=1/GPa)
#
#
# Indices 1 2 3 4 5 6 
#
# 1 0.016437 -0.004872 -0.005239 0.000000 0.000000 0.000000
# 2 -0.004872 0.016438 -0.005239 0.000000 0.000000 0.000000
# 3 -0.005239 -0.005239 0.012587 0.000000 0.000000 0.000000
# 4 0.000000 0.000000 0.000000 0.034007 0.000000 0.000000
# 5 0.000000 0.000000 0.000000 0.000000 0.034007 0.000000
# 6 0.000000 0.000000 0.000000 0.000000 0.000000 0.034199
#
#
# Mechanical properties :
#
#
# Convention : Reuss Voigt Hill
#
# Bulk Modulus (GPa) = 67.75042 70.70484 69.22763
# Shear Modulus (GPa) = 27.27835 27.72959 27.50397
#
# Velocity S-wave (km/s) = 3.97839 4.01116 3.99481
# Velocity P-wave (km/s) = 7.77265 7.90426 7.83873
#
# Compressibility (1/GPa) = 0.01476006
#
# Stress axis : x y z
#
# Youngs Moduli (GPa) = 60.83835 60.83647 79.45020
#
# Poissons Ratio (x) = 0.29639 0.41625
# Poissons Ratio (y) = 0.29640 0.41627
# Poissons Ratio (z) = 0.31874 0.31875
#
# Static dielectric constant tensor:
#      x y z
#    x 3.153450 0.000000 0.000000 
#    y 0.000000 3.153450 0.000000 
#    z 0.000000 0.000000 3.420260 
# 
# 
# High freq. dielectric constant tensor:
#      x y z
#    x 1.664360 0.000000 0.000000 
#    y 0.000000 1.664360 0.000000 
#    z 0.000000 0.000000 1.682980 
# 
# From -- ./inp_files/7717.got.cif
#   From: 2010.03.12/outbox.cif.g09.slc.cpg/sg129_4_cif.got.tgz:7717.got - 2010.04.06 17:19:44.
