data_PCOD8315535
_publ_section_title
;
Structure prediction by ZEFSAII (Michael W. Deem and Ramdas Pophale) SiO2 
 PCOD8315535
Probable space group: P 4/N C C
;
_chemical_formula_sum "Si O2"
_cell_formula_units_Z 120
_cell_length_a 15.002809
_cell_length_b 15.002809
_cell_length_c 30.245683
_cell_angle_alpha 90.000000
_cell_angle_beta 90.000000
_cell_angle_gamma 90.000000
_cell_volume 6807.827717
_symmetry_space_group_name_H-M "P 4/N C C"
_symmetry_group_IT_number 130
_symmetry_cell_setting 'tetragonal'
loop_
_space_group_symop_operation_xyz
x,y,z
1/2-y,x,z
1/2-x,1/2-y,z
y,1/2-x,z
1/2+x,-y,1/2-z
-x,1/2+y,1/2-z
1/2+y,1/2+x,1/2-z
-y,-x,1/2-z
-x,-y,-z
1/2+y,-x,-z
1/2+x,1/2+y,-z
-y,1/2+x,-z
1/2-x,y,1/2+z
x,1/2-y,1/2+z
1/2-y,1/2-x,1/2+z
y,x,1/2+z
loop_
_atom_site_type_symbol
_atom_site_label
_atom_site_fract_x
_atom_site_fract_y
_atom_site_fract_z
Si Si1 0.653078 0.224704 0.205748
Si Si2 0.118152 0.996522 0.165512
Si Si3 0.316516 0.382883 0.087120
Si Si4 0.118988 0.184659 0.491163
Si Si5 0.898303 0.101698 0.250000
Si Si6 0.553913 0.579180 0.682449
Si Si7 0.673657 0.623885 0.756002
Si Si8 0.316231 0.117360 0.395927
O O1 0.750000 0.250000 0.185728
O O2 0.665395 0.165395 0.250000
O O3 0.595280 0.173027 0.169697
O O4 0.599115 0.313180 0.218141
O O5 0.148062 0.045631 0.121426
O O6 0.132170 0.060088 0.207193
O O7 0.015972 0.968396 0.161820
O O8 0.210962 0.367281 0.093667
O O9 0.338147 0.426471 0.038459
O O10 0.211018 0.133442 0.490911
O O11 0.071678 0.161096 0.444200
O O12 0.984644 0.107249 0.280195
O O13 0.649654 0.583133 0.707716
O O14 0.551499 0.649300 0.642117
O O15 0.779243 0.629135 0.761312
O O16 0.367858 0.211020 0.391008
#
# Coordination Sequence:
#
# PCOD8315535 Si02
#       8
#    16  16  16  16   8  16  16  16
#     4   9  21  39  55  64  90 139 190 226 252 297
#     4  12  22  33  49  76 105 136 177 216 260 317
#     4   9  18  32  54  81 109 136 165 211 271 326
#     4   7  12  28  52  77 103 133 164 202 258 320
#     4  10  21  38  50  68  95 138 180 220 264 294
#     4  12  22  33  46  76 107 139 166 211 264 312
#     4  11  22  35  53  74 103 138 170 218 272 315
#     4   9  18  33  55  79 104 133 170 211 259 321
#
# _framework density 17.626768999999999
#
# number of rings (size 3 to 8) (size 9 to 14) (size 15 to 20)
#    0.000    2.267    1.333    4.800    1.867    5.333 
#    0.000    0.667    0.000    0.000    0.000    0.000 
#    0.000    1.333    0.000    0.000    0.000    0.000 
#
# Total GULP energy -1486963.595108 kJ/mol
# GULP energy per Si atom -12391.363293 kJ/mol
# Density = 1.758665 g / cm^3
# Si number density = 17.626769 Si / 1000 Ang^3
#
#
#
# Elastic Constant Matrix: (Units=GPa)
#
#
# Indices 1 2 3 4 5 6 
#
# 1 66.0885 30.4847 35.5721 0.0000 0.0000 0.0000
# 2 30.4847 66.0881 35.5716 0.0000 0.0000 0.0000
# 3 35.5721 35.5716 133.1941 0.0000 0.0000 0.0000
# 4 0.0000 0.0000 0.0000 19.5742 0.0000 0.0000
# 5 0.0000 0.0000 0.0000 0.0000 19.5744 0.0000
# 6 0.0000 0.0000 0.0000 0.0000 0.0000 24.3586
#
#
#
# Elastic Compliance Matrix: (Units=1/GPa)
#
#
# Indices 1 2 3 4 5 6 
#
# 1 0.020489 -0.007598 -0.003443 0.000000 0.000000 0.000000
# 2 -0.007598 0.020489 -0.003443 0.000000 0.000000 0.000000
# 3 -0.003443 -0.003443 0.009347 0.000000 0.000000 0.000000
# 4 0.000000 0.000000 0.000000 0.051088 0.000000 0.000000
# 5 0.000000 0.000000 0.000000 0.000000 0.051087 0.000000
# 6 0.000000 0.000000 0.000000 0.000000 0.000000 0.041053
#
#
# Mechanical properties :
#
#
# Convention : Reuss Voigt Hill
#
# Bulk Modulus (GPa) = 46.82135 52.06974 49.44554
# Shear Modulus (GPa) = 21.77327 23.61759 22.69543
#
# Velocity S-wave (km/s) = 3.51841 3.66440 3.59214
# Velocity P-wave (km/s) = 6.56703 6.89261 6.73179
#
# Compressibility (1/GPa) = 0.02135778
#
# Stress axis : x y z
#
# Youngs Moduli (GPa) = 48.80649 48.80641 106.98889
#
# Poissons Ratio (x) = 0.37083 0.36835
# Poissons Ratio (y) = 0.37083 0.36834
# Poissons Ratio (z) = 0.16803 0.16803
#
# Static dielectric constant tensor:
#      x y z
#    x 3.171370 0.000000 0.000000 
#    y 0.000000 3.171370 0.000000 
#    z 0.000000 0.000000 3.583070 
# 
# 
# High freq. dielectric constant tensor:
#      x y z
#    x 1.664700 0.000000 0.000000 
#    y 0.000000 1.664700 0.000000 
#    z 0.000000 0.000000 1.680300 
# 
# From -- ./inp_files/5001.got.cif
#   From: 2010.03.12/outbox.cif.g09.slc.cpg/sg130_3_cif.got.tgz:5001.got - 2010.04.06 17:30:23.
