data_PCOD8315505
_publ_section_title
;
Structure prediction by ZEFSAII (Michael W. Deem and Ramdas Pophale) SiO2 
 PCOD8315505
Probable space group: P 4/N C C
;
_chemical_formula_sum "Si O2"
_cell_formula_units_Z 44
_cell_length_a 7.919190
_cell_length_b 7.919190
_cell_length_c 32.175179
_cell_angle_alpha 90.000000
_cell_angle_beta 90.000000
_cell_angle_gamma 90.000000
_cell_volume 2017.820349
_symmetry_space_group_name_H-M "P 4/N C C"
_symmetry_group_IT_number 130
_symmetry_cell_setting 'tetragonal'
loop_
_space_group_symop_operation_xyz
x,y,z
1/2-y,x,z
1/2-x,1/2-y,z
y,1/2-x,z
1/2+x,-y,1/2-z
-x,1/2+y,1/2-z
1/2+y,1/2+x,1/2-z
-y,-x,1/2-z
-x,-y,-z
1/2+y,-x,-z
1/2+x,1/2+y,-z
-y,1/2+x,-z
1/2-x,y,1/2+z
x,1/2-y,1/2+z
1/2-y,1/2-x,1/2+z
y,x,1/2+z
loop_
_atom_site_type_symbol
_atom_site_label
_atom_site_fract_x
_atom_site_fract_y
_atom_site_fract_z
Si Si1 0.332757 0.983460 0.070649
Si Si2 0.339873 0.515271 0.209239
Si Si3 0.250000 0.750000 0.359615
Si Si4 0.750000 0.250000 0.500000
O O1 0.459793 0.137714 0.071935
O O2 0.367048 0.867416 0.110967
O O3 0.359667 0.876747 0.028594
O O4 0.461727 0.355478 0.207944
O O5 0.374911 0.625090 0.250000
O O6 0.371485 0.634483 0.169321
#
# Coordination Sequence:
#
# PCOD8315505 Si02
#       4
#    16  16   8   4
#     4  10  21  37  58  85 118 156 197 246 306 370
#     4  11  23  40  63  90 123 163 207 257 311 369
#     4  11  21  35  57  84 116 156 203 245 295 361
#     4  10  20  36  62  88 114 148 194 248 304 370
#
# _framework density 21.805710000000001
#
# number of rings (size 3 to 8) (size 9 to 14) (size 15 to 20)
#    0.000    1.455    0.000    6.000    0.000    2.909 
#    0.000    0.000    0.000   40.364    0.000    0.000 
#    0.000    0.000    0.000    0.000    0.000    0.000 
#
# Total GULP energy -545646.804161 kJ/mol
# GULP energy per Si atom -12401.063731 kJ/mol
# Density = 2.175608 g / cm^3
# Si number density = 21.805710 Si / 1000 Ang^3
#
#
#
# Elastic Constant Matrix: (Units=GPa)
#
#
# Indices 1 2 3 4 5 6 
#
# 1 100.2305 23.7574 50.0427 0.0000 0.0000 0.0000
# 2 23.7574 100.2302 50.0426 0.0000 0.0000 0.0000
# 3 50.0427 50.0426 184.3724 0.0000 0.0000 0.0000
# 4 0.0000 0.0000 0.0000 28.9350 0.0000 0.0000
# 5 0.0000 0.0000 0.0000 0.0000 28.9350 0.0000
# 6 0.0000 0.0000 0.0000 0.0000 0.0000 28.6860
#
#
#
# Elastic Compliance Matrix: (Units=1/GPa)
#
#
# Indices 1 2 3 4 5 6 
#
# 1 0.011702 -0.001374 -0.002803 0.000000 0.000000 0.000000
# 2 -0.001374 0.011702 -0.002803 0.000000 0.000000 0.000000
# 3 -0.002803 -0.002803 0.006946 0.000000 0.000000 0.000000
# 4 0.000000 0.000000 0.000000 0.034560 0.000000 0.000000
# 5 0.000000 0.000000 0.000000 0.000000 0.034560 0.000000
# 6 0.000000 0.000000 0.000000 0.000000 0.000000 0.034860
#
#
# Mechanical properties :
#
#
# Convention : Reuss Voigt Hill
#
# Bulk Modulus (GPa) = 61.01743 70.27981 65.64862
# Shear Modulus (GPa) = 32.51918 34.71055 33.61487
#
# Velocity S-wave (km/s) = 3.86594 3.99408 3.93053
# Velocity P-wave (km/s) = 6.92607 7.31917 7.12533
#
# Compressibility (1/GPa) = 0.01638876
#
# Stress axis : x y z
#
# Youngs Moduli (GPa) = 85.45302 85.45285 143.97706
#
# Poissons Ratio (x) = 0.11743 0.40361
# Poissons Ratio (y) = 0.11743 0.40361
# Poissons Ratio (z) = 0.23955 0.23955
#
# Static dielectric constant tensor:
#      x y z
#    x 3.825880 0.000000 0.000000 
#    y 0.000000 3.825880 0.000000 
#    z 0.000000 0.000000 4.172050 
# 
# 
# High freq. dielectric constant tensor:
#      x y z
#    x 1.845890 0.000000 0.000000 
#    y 0.000000 1.845890 0.000000 
#    z 0.000000 0.000000 1.881350 
# 
# From -- ./inp_files/4671.got.cif
#   From: 2010.03.12/outbox.cif.g09.slc.cpg/sg130_3_cif.got.tgz:4671.got - 2010.04.06 17:30:23.
