data_PCOD8315449
_publ_section_title
;
Structure prediction by ZEFSAII (Michael W. Deem and Ramdas Pophale) SiO2 
 PCOD8315449
Probable space group: P 4/N M M
;
_chemical_formula_sum "Si O2"
_cell_formula_units_Z 96
_cell_length_a 27.434012
_cell_length_b 27.434012
_cell_length_c 9.991263
_cell_angle_alpha 90.000000
_cell_angle_beta 90.000000
_cell_angle_gamma 90.000000
_cell_volume 7519.674459
_symmetry_space_group_name_H-M "P 4/N M M"
_symmetry_group_IT_number 129
_symmetry_cell_setting 'tetragonal'
loop_
_space_group_symop_operation_xyz
x,y,z
1/2-y,x,z
1/2-x,1/2-y,z
y,1/2-x,z
1/2+x,-y,-z
-x,1/2+y,-z
1/2+y,1/2+x,-z
-y,-x,-z
-x,-y,-z
1/2+y,-x,-z
1/2+x,1/2+y,-z
-y,1/2+x,-z
1/2-x,y,z
x,1/2-y,z
1/2-y,1/2-x,z
y,x,z
loop_
_atom_site_type_symbol
_atom_site_label
_atom_site_fract_x
_atom_site_fract_y
_atom_site_fract_z
Si Si1 0.193346 0.113497 0.980845
Si Si2 0.694856 0.884116 0.714048
Si Si3 0.867018 0.948874 0.212269
Si Si4 0.861533 0.943705 0.514946
Si Si5 0.016071 0.566001 0.613290
Si Si6 0.557580 0.475369 0.135369
O O1 0.250000 0.124574 0.950619
O O2 0.162772 0.162772 0.950235
O O3 0.175385 0.068958 0.887784
O O4 0.185259 0.096987 0.134735
O O5 0.750000 0.867483 0.695413
O O6 0.663248 0.836753 0.682263
O O7 0.683339 0.926368 0.606706
O O8 0.909857 0.909857 0.214269
O O9 0.845097 0.954464 0.362221
O O10 0.889348 0.000403 0.161524
O O11 0.903264 0.903264 0.515707
O O12 0.881363 0.992782 0.584804
O O13 0.055628 0.555628 0.500000
O O14 0.044574 0.564598 0.752830
O O15 0.974416 0.525585 0.610507
O O16 0.518126 0.518126 0.133182
O O17 0.555923 0.444078 0.000000
#
# Coordination Sequence:
#
# PCOD8315449 Si02
#       6
#    16  16  16  16  16  16
#     4   9  18  30  42  54  68  87 114 152 196 237
#     4   9  18  30  42  55  68  86 115 152 196 238
#     4   9  16  26  37  52  72  91 112 138 172 213
#     4   9  16  25  38  53  70  91 112 138 172 213
#     4   9  14  22  34  50  72  94 112 128 155 199
#     4   9  16  22  32  52  74  94 112 131 158 199
#
# _framework density 12.766510999999999
#
# number of rings (size 3 to 8) (size 9 to 14) (size 15 to 20)
#    0.000    3.000    1.667    0.000    2.333    1.000 
#    0.000    1.667    0.000    0.000    0.000    4.667 
#    0.000    0.000    0.000    0.000    0.000    0.000 
#
# Total GULP energy -1189775.527546 kJ/mol
# GULP energy per Si atom -12393.495079 kJ/mol
# Density = 1.273745 g / cm^3
# Si number density = 12.766511 Si / 1000 Ang^3
#
#
#
# Elastic Constant Matrix: (Units=GPa)
#
#
# Indices 1 2 3 4 5 6 
#
# 1 40.5645 38.8640 41.5410 0.0000 0.0000 0.0000
# 2 38.8640 40.5648 41.5410 0.0000 0.0000 0.0000
# 3 41.5410 41.5410 115.7912 0.0000 0.0000 0.0000
# 4 0.0000 0.0000 0.0000 17.7682 0.0000 0.0000
# 5 0.0000 0.0000 0.0000 0.0000 17.7682 0.0000
# 6 0.0000 0.0000 0.0000 0.0000 0.0000 12.9025
#
#
#
# Elastic Compliance Matrix: (Units=1/GPa)
#
#
# Indices 1 2 3 4 5 6 
#
# 1 0.304087 -0.283933 -0.007230 0.000000 0.000000 0.000000
# 2 -0.283933 0.304084 -0.007229 0.000000 0.000000 0.000000
# 3 -0.007230 -0.007229 0.013824 0.000000 0.000000 0.000000
# 4 0.000000 0.000000 0.000000 0.056280 0.000000 0.000000
# 5 0.000000 0.000000 0.000000 0.000000 0.056280 0.000000
# 6 0.000000 0.000000 0.000000 0.000000 0.000000 0.077504
#
#
# Mechanical properties :
#
#
# Convention : Reuss Voigt Hill
#
# Bulk Modulus (GPa) = 39.66826 48.97917 44.32372
# Shear Modulus (GPa) = 3.52796 14.68607 9.10702
#
# Velocity S-wave (km/s) = 1.66417 3.39537 2.67376
# Velocity P-wave (km/s) = 5.90188 7.33622 6.65779
#
# Compressibility (1/GPa) = 0.02520907
#
# Stress axis : x y z
#
# Youngs Moduli (GPa) = 3.28853 3.28856 72.33952
#
# Poissons Ratio (x) = 0.93373 0.52304
# Poissons Ratio (y) = 0.93372 0.52296
# Poissons Ratio (z) = 0.02378 0.02377
#
# Static dielectric constant tensor:
#      x y z
#    x 2.365940 0.000000 0.000000 
#    y 0.000000 2.365940 0.000000 
#    z 0.000000 0.000000 2.865880 
# 
# 
# High freq. dielectric constant tensor:
#      x y z
#    x 1.444350 0.000000 0.000000 
#    y 0.000000 1.444350 0.000000 
#    z 0.000000 0.000000 1.504970 
# 
# From -- ./inp_files/2775.got.cif
#   From: 2010.03.12/outbox.cif.g09.slc.cpg/sg129_2_cif.got.tgz:2775.got - 2010.04.06 17:19:44.
