data_PCOD8315959
_publ_section_title
;
Structure prediction by ZEFSAII (Michael W. Deem and Ramdas Pophale) SiO2 
 PCOD8315959
Probable space group: P 42/M M C
;
_chemical_formula_sum "Si O2"
_cell_formula_units_Z 72
_cell_length_a 21.307363
_cell_length_b 21.307363
_cell_length_c 8.871455
_cell_angle_alpha 90.000000
_cell_angle_beta 90.000000
_cell_angle_gamma 90.000000
_cell_volume 4027.673554
_symmetry_space_group_name_H-M "P 42/M M C"
_symmetry_group_IT_number 131
_symmetry_cell_setting 'tetragonal'
loop_
_space_group_symop_operation_xyz
x,y,z
-x,-y,z
-y,x,1/2+z
y,-x,1/2+z
-x,y,-z
x,-y,-z
y,x,1/2-z
-y,-x,1/2-z
-x,-y,-z
x,y,-z
y,-x,1/2-z
-y,x,1/2-z
x,-y,z
-x,y,z
-y,-x,1/2+z
y,x,1/2+z
loop_
_atom_site_type_symbol
_atom_site_label
_atom_site_fract_x
_atom_site_fract_y
_atom_site_fract_z
Si Si1 0.000000 0.569196 0.821763
Si Si2 0.671899 0.763480 0.177444
Si Si3 0.000000 0.906293 0.180700
Si Si4 0.897860 0.332990 0.178247
Si Si5 0.570982 0.337512 0.177658
Si Si6 0.000000 0.236083 0.821813
O O1 0.062479 0.605995 0.772117
O O2 0.000000 0.500000 0.747396
O O3 0.000000 0.564417 0.000000
O O4 0.734319 0.734319 0.250000
O O5 0.663344 0.833521 0.233537
O O6 0.611016 0.723340 0.227693
O O7 0.680739 0.763069 0.000000
O O8 0.061665 0.938336 0.250000
O O9 0.000000 0.834788 0.237972
O O10 0.000000 0.912747 0.000000
O O11 0.936999 0.271709 0.232230
O O12 0.885128 0.331501 0.000000
O O13 0.599868 0.400133 0.250000
O O14 0.500000 0.328457 0.236380
O O15 0.572799 0.346299 0.000000
O O16 0.000000 0.237845 0.000000
#
# Coordination Sequence:
#
# PCOD8315959 Si02
#       6
#     8  16   8  16  16   8
#     4   8  15  29  50  75 102 133 167 200 237 289
#     4  10  20  34  51  72  99 130 164 202 245 293
#     4  10  19  33  50  69  93 120 153 190 233 281
#     4   9  17  32  52  73  99 130 164 202 242 283
#     4   9  19  35  52  71  98 130 162 199 244 292
#     4   8  17  33  51  70  97 131 161 194 239 287
#
# _framework density 17.876325999999999
#
# number of rings (size 3 to 8) (size 9 to 14) (size 15 to 20)
#    0.000    2.889    0.000    2.667    0.000    3.333 
#    0.000    7.778    0.000    0.667    0.000    0.000 
#    0.000    0.000    0.000    0.000    0.000    0.000 
#
# Total GULP energy -892661.726179 kJ/mol
# GULP energy per Si atom -12398.079530 kJ/mol
# Density = 1.783564 g / cm^3
# Si number density = 17.876326 Si / 1000 Ang^3
#
#
#
# Elastic Constant Matrix: (Units=GPa)
#
#
# Indices 1 2 3 4 5 6 
#
# 1 164.1544 78.6396 36.1748 0.0000 0.0000 0.0000
# 2 78.6396 164.1528 36.1749 0.0000 0.0000 0.0000
# 3 36.1748 36.1749 44.7347 0.0000 0.0000 0.0000
# 4 0.0000 0.0000 0.0000 23.3620 0.0000 0.0000
# 5 0.0000 0.0000 0.0000 0.0000 23.3625 0.0000
# 6 0.0000 0.0000 0.0000 0.0000 0.0000 14.3821
#
#
#
# Elastic Compliance Matrix: (Units=1/GPa)
#
#
# Indices 1 2 3 4 5 6 
#
# 1 0.008560 -0.003134 -0.004388 0.000000 0.000000 0.000000
# 2 -0.003134 0.008560 -0.004388 0.000000 0.000000 0.000000
# 3 -0.004388 -0.004388 0.029451 0.000000 0.000000 0.000000
# 4 0.000000 0.000000 0.000000 0.042805 0.000000 0.000000
# 5 0.000000 0.000000 0.000000 0.000000 0.042804 0.000000
# 6 0.000000 0.000000 0.000000 0.000000 0.000000 0.069531
#
#
# Mechanical properties :
#
#
# Convention : Reuss Voigt Hill
#
# Bulk Modulus (GPa) = 43.95340 75.00228 59.47784
# Shear Modulus (GPa) = 21.44878 27.02483 24.23680
#
# Velocity S-wave (km/s) = 3.46763 3.89236 3.68612
# Velocity P-wave (km/s) = 6.37758 7.88974 7.17361
#
# Compressibility (1/GPa) = 0.02275137
#
# Stress axis : x y z
#
# Youngs Moduli (GPa) = 116.82118 116.81962 33.95501
#
# Poissons Ratio (x) = 0.36609 0.14899
# Poissons Ratio (y) = 0.36610 0.14900
# Poissons Ratio (z) = 0.51260 0.51261
#
# Static dielectric constant tensor:
#      x y z
#    x 3.587200 0.000000 0.000000 
#    y 0.000000 3.587200 0.000000 
#    z 0.000000 0.000000 3.055270 
# 
# 
# High freq. dielectric constant tensor:
#      x y z
#    x 1.696730 0.000000 0.000000 
#    y 0.000000 1.696730 0.000000 
#    z 0.000000 0.000000 1.671260 
# 
# From -- ./inp_files/1900.got.cif
#   From: 2010.03.12/outbox.cif.g09.slc.cpg/sg131_1_cif.got.tgz:1900.got - 2010.04.06 17:36:35.
