data_PCOD8315964
_publ_section_title
;
Structure prediction by ZEFSAII (Michael W. Deem and Ramdas Pophale) SiO2 
 PCOD8315964
Probable space group: P 42/M M C
;
_chemical_formula_sum "Si O2"
_cell_formula_units_Z 88
_cell_length_a 18.213427
_cell_length_b 18.213427
_cell_length_c 14.959178
_cell_angle_alpha 90.000000
_cell_angle_beta 90.000000
_cell_angle_gamma 90.000000
_cell_volume 4962.392008
_symmetry_space_group_name_H-M "P 42/M M C"
_symmetry_group_IT_number 131
_symmetry_cell_setting 'tetragonal'
loop_
_space_group_symop_operation_xyz
x,y,z
-x,-y,z
-y,x,1/2+z
y,-x,1/2+z
-x,y,-z
x,-y,-z
y,x,1/2-z
-y,-x,1/2-z
-x,-y,-z
x,y,-z
y,-x,1/2-z
-y,x,1/2-z
x,-y,z
-x,y,z
-y,-x,1/2+z
y,x,1/2+z
loop_
_atom_site_type_symbol
_atom_site_label
_atom_site_fract_x
_atom_site_fract_y
_atom_site_fract_z
Si Si1 0.867226 0.078245 0.163048
Si Si2 0.586792 0.419986 0.000000
Si Si3 0.804512 0.667580 0.605236
Si Si4 0.232023 0.835915 0.599479
Si Si5 0.586917 0.332382 0.828973
Si Si6 0.294216 0.081417 0.761055
O O1 0.918830 0.081171 0.250000
O O2 0.874528 0.150916 0.102140
O O3 0.785323 0.075557 0.197995
O O4 0.884448 0.000000 0.112774
O O5 0.614155 0.378497 0.913281
O O6 0.500000 0.425290 0.000000
O O7 0.623235 0.500000 0.000000
O O8 0.819990 0.653158 0.500000
O O9 0.772937 0.749420 0.621132
O O10 0.750768 0.607091 0.647385
O O11 0.878272 0.656253 0.663894
O O12 0.263190 0.848403 0.500000
O O13 0.288987 0.872538 0.668545
O O14 0.635160 0.364841 0.750000
O O15 0.500000 0.339466 0.808822
O O16 0.326690 0.000000 0.742067
#
# Coordination Sequence:
#
# PCOD8315964 Si02
#       6
#    16   8  16  16  16  16
#     4   8  14  24  37  55  82 119 161 205 255 308
#     4   9  18  32  48  72 107 143 178 208 235 282
#     4  10  19  33  53  76 103 135 175 223 272 315
#     4   9  17  28  44  67  96 127 163 214 267 317
#     4  11  21  34  54  80 111 148 181 211 249 297
#     4   9  17  30  47  67  94 127 168 218 268 321
#
# _framework density 17.733381999999999
#
# number of rings (size 3 to 8) (size 9 to 14) (size 15 to 20)
#    0.000    2.636    0.909    3.273    0.000    2.182 
#    0.000    3.636    0.000    0.545    0.000    6.364 
#    0.000    0.000    0.000    6.182    0.000    0.182 
#
# Total GULP energy -1090293.903615 kJ/mol
# GULP energy per Si atom -12389.703450 kJ/mol
# Density = 1.769302 g / cm^3
# Si number density = 17.733382 Si / 1000 Ang^3
#
#
#
# Elastic Constant Matrix: (Units=GPa)
#
#
# Indices 1 2 3 4 5 6 
#
# 1 49.1746 14.9494 24.3415 0.0000 0.0000 0.0000
# 2 14.9494 49.1752 24.3420 0.0000 0.0000 0.0000
# 3 24.3415 24.3420 109.8368 0.0000 0.0000 0.0000
# 4 0.0000 0.0000 0.0000 -11.1326 0.0000 0.0000
# 5 0.0000 0.0000 0.0000 0.0000 -11.1728 0.0000
# 6 0.0000 0.0000 0.0000 0.0000 0.0000 7.3596
#
#
#
# Elastic Compliance Matrix: (Units=1/GPa)
#
#
# Indices 1 2 3 4 5 6 
#
# 1 0.023984 -0.005234 -0.004155 0.000000 0.000000 0.000000
# 2 -0.005234 0.023984 -0.004155 0.000000 0.000000 0.000000
# 3 -0.004155 -0.004155 0.010946 0.000000 0.000000 0.000000
# 4 0.000000 0.000000 0.000000 -0.089826 0.000000 0.000000
# 5 0.000000 0.000000 0.000000 0.000000 -0.089503 0.000000
# 6 0.000000 0.000000 0.000000 0.000000 0.000000 0.135877
#
#
# Mechanical properties :
#
#
# Convention : Reuss Voigt Hill
#
# Bulk Modulus (GPa) = 31.42275 37.27251 34.34763
# Shear Modulus (GPa) = 94.05803 6.64775 50.35289
#
# Velocity S-wave (km/s) = 7.29076 1.93826 5.33442
# Velocity P-wave (km/s) = 9.41444 5.10618 7.57313
#
# Compressibility (1/GPa) = 0.03182408
#
# Stress axis : x y z
#
# Youngs Moduli (GPa) = 41.69485 41.69523 91.35647
#
# Poissons Ratio (x) = 0.21825 0.37960
# Poissons Ratio (y) = 0.21825 0.37961
# Poissons Ratio (z) = 0.17325 0.17325
#
# Static dielectric constant tensor:
#      x y z
#    x 3.298230 0.000000 0.000000 
#    y 0.000000 3.298230 0.000000 
#    z 0.000000 0.000000 3.397610 
# 
# 
# High freq. dielectric constant tensor:
#      x y z
#    x 1.657530 0.000000 0.000000 
#    y 0.000000 1.657530 0.000000 
#    z 0.000000 0.000000 1.689570 
# 
# From -- ./inp_files/5835.got.cif
#   From: 2010.03.12/outbox.cif.g09.slc.cpg/sg131_3_cif.got.tgz:5835.got - 2010.04.06 17:36:35.
