data_PCOD8315439
_publ_section_title
;
Structure prediction by ZEFSAII (Michael W. Deem and Ramdas Pophale) SiO2 
 PCOD8315439
Probable space group: P 4/N M M
;
_chemical_formula_sum "Si O2"
_cell_formula_units_Z 96
_cell_length_a 14.327332
_cell_length_b 14.327332
_cell_length_c 30.229004
_cell_angle_alpha 90.000000
_cell_angle_beta 90.000000
_cell_angle_gamma 90.000000
_cell_volume 6205.181478
_symmetry_space_group_name_H-M "P 4/N M M"
_symmetry_group_IT_number 129
_symmetry_cell_setting 'tetragonal'
loop_
_space_group_symop_operation_xyz
x,y,z
1/2-y,x,z
1/2-x,1/2-y,z
y,1/2-x,z
1/2+x,-y,-z
-x,1/2+y,-z
1/2+y,1/2+x,-z
-y,-x,-z
-x,-y,-z
1/2+y,-x,-z
1/2+x,1/2+y,-z
-y,1/2+x,-z
1/2-x,y,z
x,1/2-y,z
1/2-y,1/2-x,z
y,x,z
loop_
_atom_site_type_symbol
_atom_site_label
_atom_site_fract_x
_atom_site_fract_y
_atom_site_fract_z
Si Si1 0.642555 0.009429 0.721534
Si Si2 0.853443 0.139587 0.202816
Si Si3 0.142935 0.506490 0.378409
Si Si4 0.856545 0.007241 0.871616
Si Si5 0.646790 0.361188 0.451417
Si Si6 0.010581 0.641565 0.973683
O O1 0.750000 0.984098 0.731703
O O2 0.584017 0.915983 0.730300
O O3 0.630383 0.045921 0.671299
O O4 0.605757 0.091161 0.753633
O O5 0.750000 0.094137 0.202816
O O6 0.843960 0.250000 0.203467
O O7 0.907434 0.107265 0.158562
O O8 0.250000 0.486055 0.389526
O O9 0.091251 0.408750 0.384146
O O10 0.099586 0.580750 0.412732
O O11 0.750000 0.981755 0.860163
O O12 0.915505 0.915505 0.860487
O O13 0.867648 0.037590 0.922348
O O14 0.608767 0.391234 0.500000
O O15 0.750000 0.402990 0.443355
O O16 0.651910 0.250000 0.449570
O O17 0.996526 0.750000 0.987245
O O18 0.914627 0.585374 0.984086
O O19 0.097264 0.597264 0.000000
#
# Coordination Sequence:
#
# PCOD8315439 Si02
#       6
#    16  16  16  16  16  16
#     4   9  17  28  41  58  81 107 135 167 200 239
#     4   9  17  28  41  58  81 108 136 165 199 239
#     4   9  17  27  39  57  80 106 134 162 196 240
#     4   9  17  29  45  65  89 115 142 173 209 251
#     4   8  14  25  40  57  77 101 131 168 205 237
#     4   9  18  31  46  66  91 118 150 187 224 263
#
# _framework density 15.470941
#
# number of rings (size 3 to 8) (size 9 to 14) (size 15 to 20)
#    0.000    3.167    0.000    1.000    0.000    2.500 
#    0.000    8.333    0.000    3.000    0.000    0.000 
#    0.000    5.667    0.000    7.333    0.000    2.000 
#
# Total GULP energy -1189991.599897 kJ/mol
# GULP energy per Si atom -12395.745832 kJ/mol
# Density = 1.543573 g / cm^3
# Si number density = 15.470941 Si / 1000 Ang^3
#
#
#
# Elastic Constant Matrix: (Units=GPa)
#
#
# Indices 1 2 3 4 5 6 
#
# 1 83.4307 42.9557 53.9012 0.0000 0.0000 0.0000
# 2 42.9557 83.4306 53.9012 0.0000 0.0000 0.0000
# 3 53.9012 53.9012 100.2158 0.0000 0.0000 0.0000
# 4 0.0000 0.0000 0.0000 23.1175 0.0000 0.0000
# 5 0.0000 0.0000 0.0000 0.0000 23.1176 0.0000
# 6 0.0000 0.0000 0.0000 0.0000 0.0000 13.6900
#
#
#
# Elastic Compliance Matrix: (Units=1/GPa)
#
#
# Indices 1 2 3 4 5 6 
#
# 1 0.019663 -0.005044 -0.007863 0.000000 0.000000 0.000000
# 2 -0.005044 0.019663 -0.007863 0.000000 0.000000 0.000000
# 3 -0.007863 -0.007863 0.018437 0.000000 0.000000 0.000000
# 4 0.000000 0.000000 0.000000 0.043257 0.000000 0.000000
# 5 0.000000 0.000000 0.000000 0.000000 0.043257 0.000000
# 6 0.000000 0.000000 0.000000 0.000000 0.000000 0.073046
#
#
# Mechanical properties :
#
#
# Convention : Reuss Voigt Hill
#
# Bulk Modulus (GPa) = 61.64049 63.17705 62.40877
# Shear Modulus (GPa) = 18.92012 19.73962 19.32987
#
# Velocity S-wave (km/s) = 3.50086 3.57587 3.53856
# Velocity P-wave (km/s) = 7.50137 7.61405 7.55792
#
# Compressibility (1/GPa) = 0.01622310
#
# Stress axis : x y z
#
# Youngs Moduli (GPa) = 50.85756 50.85746 54.24021
#
# Poissons Ratio (x) = 0.25652 0.42648
# Poissons Ratio (y) = 0.25652 0.42648
# Poissons Ratio (z) = 0.39988 0.39988
#
# Static dielectric constant tensor:
#      x y z
#    x 2.882650 0.000000 0.000000 
#    y 0.000000 2.882660 0.000000 
#    z 0.000000 0.000000 3.210910 
# 
# 
# High freq. dielectric constant tensor:
#      x y z
#    x 1.569020 0.000000 0.000000 
#    y 0.000000 1.569020 0.000000 
#    z 0.000000 0.000000 1.607870 
# 
# From -- ./inp_files/7826.got.cif
#   From: 2010.03.12/outbox.cif.g09.slc.cpg/sg129_4_cif.got.tgz:7826.got - 2010.04.06 17:19:44.
