data_PCOD8315221
_publ_section_title
;
Structure prediction by ZEFSAII (Michael W. Deem and Ramdas Pophale) SiO2 
 PCOD8315221
Probable space group: P 4/N M M
;
_chemical_formula_sum "Si O2"
_cell_formula_units_Z 88
_cell_length_a 15.088527
_cell_length_b 15.088527
_cell_length_c 23.807896
_cell_angle_alpha 90.000000
_cell_angle_beta 90.000000
_cell_angle_gamma 90.000000
_cell_volume 5420.192431
_symmetry_space_group_name_H-M "P 4/N M M"
_symmetry_group_IT_number 129
_symmetry_cell_setting 'tetragonal'
loop_
_space_group_symop_operation_xyz
x,y,z
1/2-y,x,z
1/2-x,1/2-y,z
y,1/2-x,z
1/2+x,-y,-z
-x,1/2+y,-z
1/2+y,1/2+x,-z
-y,-x,-z
-x,-y,-z
1/2+y,-x,-z
1/2+x,1/2+y,-z
-y,1/2+x,-z
1/2-x,y,z
x,1/2-y,z
1/2-y,1/2-x,z
y,x,z
loop_
_atom_site_type_symbol
_atom_site_label
_atom_site_fract_x
_atom_site_fract_y
_atom_site_fract_z
Si Si1 0.994877 0.648238 0.714997
Si Si2 0.351174 0.851174 0.500000
Si Si3 0.984250 0.843875 0.981744
Si Si4 0.150477 0.853121 0.797093
Si Si5 0.849773 0.399211 0.080621
Si Si6 0.351085 0.005089 0.414957
O O1 0.969535 0.750000 0.727793
O O2 0.911186 0.588815 0.733187
O O3 0.081476 0.617941 0.749333
O O4 0.018333 0.634321 0.649995
O O5 0.365322 0.750000 0.479389
O O6 0.374352 0.915871 0.448590
O O7 0.934648 0.750000 0.973275
O O8 0.922443 0.922443 0.959456
O O9 0.075661 0.837189 0.946958
O O10 0.006558 0.856667 0.047977
O O11 0.250000 0.871769 0.774600
O O12 0.139295 0.750000 0.812914
O O13 0.130890 0.910347 0.853136
O O14 0.750000 0.359130 0.073075
O O15 0.250000 0.035674 0.426213
O O16 0.414799 0.085202 0.434343
#
# Coordination Sequence:
#
# PCOD8315221 Si02
#       6
#    16   8  16  16  16  16
#     4   9  18  30  44  64  89 118 149 178 210 250
#     4   9  17  28  44  66  89 115 146 180 222 267
#     4  10  20  32  46  65  89 116 144 174 209 253
#     4   9  17  29  45  65  87 110 138 175 219 261
#     4   9  17  30  48  67  85 106 137 178 221 258
#     4   9  17  29  44  63  88 117 149 182 214 251
#
# _framework density 16.235586999999999
#
# number of rings (size 3 to 8) (size 9 to 14) (size 15 to 20)
#    0.000    2.818    0.000    1.909    0.000    4.545 
#    0.000    9.091    0.000    0.000    0.000    2.545 
#    0.000    0.364    0.000    4.000    0.000    9.818 
#
# Total GULP energy -1090485.001341 kJ/mol
# GULP energy per Si atom -12391.875015 kJ/mol
# Density = 1.619863 g / cm^3
# Si number density = 16.235587 Si / 1000 Ang^3
#
#
#
# Elastic Constant Matrix: (Units=GPa)
#
#
# Indices 1 2 3 4 5 6 
#
# 1 96.6281 63.9154 52.8383 0.0000 0.0000 0.0000
# 2 63.9154 96.6281 52.8383 0.0000 0.0000 0.0000
# 3 52.8383 52.8383 79.3675 0.0000 0.0000 0.0000
# 4 0.0000 0.0000 0.0000 20.2915 0.0000 0.0000
# 5 0.0000 0.0000 0.0000 0.0000 20.2915 0.0000
# 6 0.0000 0.0000 0.0000 0.0000 0.0000 19.2040
#
#
#
# Elastic Compliance Matrix: (Units=1/GPa)
#
#
# Indices 1 2 3 4 5 6 
#
# 1 0.020828 -0.009741 -0.007382 0.000000 0.000000 0.000000
# 2 -0.009741 0.020828 -0.007382 0.000000 0.000000 0.000000
# 3 -0.007382 -0.007382 0.022428 0.000000 0.000000 0.000000
# 4 0.000000 0.000000 0.000000 0.049282 0.000000 0.000000
# 5 0.000000 0.000000 0.000000 0.000000 0.049282 0.000000
# 6 0.000000 0.000000 0.000000 0.000000 0.000000 0.052072
#
#
# Mechanical properties :
#
#
# Convention : Reuss Voigt Hill
#
# Bulk Modulus (GPa) = 66.32517 67.97862 67.15190
# Shear Modulus (GPa) = 18.60436 18.82618 18.71527
#
# Velocity S-wave (km/s) = 3.38879 3.40893 3.39887
# Velocity P-wave (km/s) = 7.50015 7.57994 7.54015
#
# Compressibility (1/GPa) = 0.01507723
#
# Stress axis : x y z
#
# Youngs Moduli (GPa) = 48.01131 48.01131 44.58710
#
# Poissons Ratio (x) = 0.46767 0.32912
# Poissons Ratio (y) = 0.46767 0.32912
# Poissons Ratio (z) = 0.35440 0.35440
#
# Static dielectric constant tensor:
#      x y z
#    x 3.019400 0.000000 0.000000 
#    y 0.000000 3.019400 0.000000 
#    z 0.000000 0.000000 3.021210 
# 
# 
# High freq. dielectric constant tensor:
#      x y z
#    x 1.613960 0.000000 0.000000 
#    y 0.000000 1.613960 0.000000 
#    z 0.000000 0.000000 1.614120 
# 
# From -- ./inp_files/6396.got.cif
#   From: 2010.03.12/outbox.cif.g09.slc.cpg/sg129_4_cif.got.tgz:6396.got - 2010.04.06 17:19:44.
