data_PCOD8315879
_publ_section_title
;
Structure prediction by ZEFSAII (Michael W. Deem and Ramdas Pophale) SiO2 
 PCOD8315879
Probable space group: P 42/M M C
;
_chemical_formula_sum "Si O2"
_cell_formula_units_Z 112
_cell_length_a 18.731126
_cell_length_b 18.731126
_cell_length_c 18.889777
_cell_angle_alpha 90.000000
_cell_angle_beta 90.000000
_cell_angle_gamma 90.000000
_cell_volume 6627.574244
_symmetry_space_group_name_H-M "P 42/M M C"
_symmetry_group_IT_number 131
_symmetry_cell_setting 'tetragonal'
loop_
_space_group_symop_operation_xyz
x,y,z
-x,-y,z
-y,x,1/2+z
y,-x,1/2+z
-x,y,-z
x,-y,-z
y,x,1/2-z
-y,-x,1/2-z
-x,-y,-z
x,y,-z
y,-x,1/2-z
-y,x,1/2-z
x,-y,z
-x,y,z
-y,-x,1/2+z
y,x,1/2+z
loop_
_atom_site_type_symbol
_atom_site_label
_atom_site_fract_x
_atom_site_fract_y
_atom_site_fract_z
Si Si1 0.347935 0.920989 0.668054
Si Si2 0.698431 0.702621 0.082634
Si Si3 0.581627 0.777123 0.668001
Si Si4 0.220965 0.417512 0.332168
Si Si5 0.223468 0.849433 0.919217
Si Si6 0.338024 0.079478 0.169191
Si Si7 0.921536 0.793177 0.082017
O O1 0.407581 0.861474 0.652079
O O2 0.321109 0.916368 0.748300
O O3 0.279702 0.904539 0.621314
O O4 0.379895 0.000000 0.651913
O O5 0.729288 0.631899 0.119088
O O6 0.623433 0.722183 0.119227
O O7 0.751888 0.768285 0.095045
O O8 0.685811 0.686864 0.000000
O O9 0.500000 0.757698 0.650321
O O10 0.599376 0.762089 0.750221
O O11 0.229564 0.500000 0.349787
O O12 0.139464 0.395773 0.352355
O O13 0.263438 0.905823 0.870159
O O14 0.138987 0.852014 0.900289
O O15 0.238522 0.871403 0.000000
O O16 0.366020 0.000000 0.148430
O O17 0.000000 0.823609 0.102390
O O18 0.917152 0.773166 0.000000
#
# Coordination Sequence:
#
# PCOD8315879 Si02
#       7
#    16  16  16  16  16  16  16
#     4   9  17  29  45  68  98 130 163 194 232 280
#     4  10  19  32  50  72  97 125 162 203 241 281
#     4  10  19  31  49  73 102 132 160 195 238 282
#     4   9  19  34  52  73  97 129 163 194 236 291
#     4   9  17  29  46  67  91 124 163 202 244 284
#     4   9  18  30  46  71  99 125 157 198 242 288
#     4   9  16  27  44  64  89 124 165 204 238 277
#
# _framework density 16.899094000000002
#
# number of rings (size 3 to 8) (size 9 to 14) (size 15 to 20)
#    0.000    2.714    1.429    0.429    0.000    2.000 
#    0.000    2.857    0.000    0.857    0.000   12.000 
#    0.000    3.429    0.000    0.143    0.000    0.000 
#
# Total GULP energy -1388367.331704 kJ/mol
# GULP energy per Si atom -12396.136890 kJ/mol
# Density = 1.686063 g / cm^3
# Si number density = 16.899094 Si / 1000 Ang^3
#
#
#
# Elastic Constant Matrix: (Units=GPa)
#
#
# Indices 1 2 3 4 5 6 
#
# 1 94.6421 45.4911 47.1338 0.0000 0.0000 0.0000
# 2 45.4911 94.6421 47.1338 0.0000 0.0000 0.0000
# 3 47.1338 47.1338 65.9176 0.0000 0.0000 0.0000
# 4 0.0000 0.0000 0.0000 22.7935 0.0000 0.0000
# 5 0.0000 0.0000 0.0000 0.0000 22.7935 0.0000
# 6 0.0000 0.0000 0.0000 0.0000 0.0000 19.8729
#
#
#
# Elastic Compliance Matrix: (Units=1/GPa)
#
#
# Indices 1 2 3 4 5 6 
#
# 1 0.017048 -0.003298 -0.009832 0.000000 0.000000 0.000000
# 2 -0.003298 0.017048 -0.009832 0.000000 0.000000 0.000000
# 3 -0.009832 -0.009832 0.029231 0.000000 0.000000 0.000000
# 4 0.000000 0.000000 0.000000 0.043872 0.000000 0.000000
# 5 0.000000 0.000000 0.000000 0.000000 0.043872 0.000000
# 6 0.000000 0.000000 0.000000 0.000000 0.000000 0.050320
#
#
# Mechanical properties :
#
#
# Convention : Reuss Voigt Hill
#
# Bulk Modulus (GPa) = 57.45976 59.41323 58.43649
# Shear Modulus (GPa) = 19.75400 20.78821 20.27110
#
# Velocity S-wave (km/s) = 3.42268 3.51114 3.46719
# Velocity P-wave (km/s) = 7.04948 7.18828 7.11922
#
# Compressibility (1/GPa) = 0.01740348
#
# Stress axis : x y z
#
# Youngs Moduli (GPa) = 58.65910 58.65910 34.21074
#
# Poissons Ratio (x) = 0.19345 0.33635
# Poissons Ratio (y) = 0.19345 0.33635
# Poissons Ratio (z) = 0.57672 0.57672
#
# Static dielectric constant tensor:
#      x y z
#    x 3.131160 0.000000 0.000000 
#    y 0.000000 3.131160 0.000000 
#    z 0.000000 0.000000 3.191470 
# 
# 
# High freq. dielectric constant tensor:
#      x y z
#    x 1.636710 0.000000 0.000000 
#    y 0.000000 1.636710 0.000000 
#    z 0.000000 0.000000 1.652570 
# 
# From -- ./inp_files/10023.got.cif
#   From: 2010.03.12/outbox.cif.g09.slc.cpg/sg131_6_cif.got.tgz:10023.got - 2010.04.06 17:36:35.
