data_PCOD8315506
_publ_section_title
;
Structure prediction by ZEFSAII (Michael W. Deem and Ramdas Pophale) SiO2 
 PCOD8315506
Probable space group: P 4/N C C
;
_chemical_formula_sum "Si O2"
_cell_formula_units_Z 96
_cell_length_a 17.023466
_cell_length_b 17.023466
_cell_length_c 16.583089
_cell_angle_alpha 90.000000
_cell_angle_beta 90.000000
_cell_angle_gamma 90.000000
_cell_volume 4805.752571
_symmetry_space_group_name_H-M "P 4/N C C"
_symmetry_group_IT_number 130
_symmetry_cell_setting 'tetragonal'
loop_
_space_group_symop_operation_xyz
x,y,z
1/2-y,x,z
1/2-x,1/2-y,z
y,1/2-x,z
1/2+x,-y,1/2-z
-x,1/2+y,1/2-z
1/2+y,1/2+x,1/2-z
-y,-x,1/2-z
-x,-y,-z
1/2+y,-x,-z
1/2+x,1/2+y,-z
-y,1/2+x,-z
1/2-x,y,1/2+z
x,1/2-y,1/2+z
1/2-y,1/2-x,1/2+z
y,x,1/2+z
loop_
_atom_site_type_symbol
_atom_site_label
_atom_site_fract_x
_atom_site_fract_y
_atom_site_fract_z
Si Si1 0.979431 0.856642 0.797405
Si Si2 0.370989 0.395486 0.960223
Si Si3 0.619685 0.050553 0.634241
Si Si4 0.165730 0.343295 0.787245
Si Si5 0.229881 0.035510 0.548538
Si Si6 0.227404 0.867488 0.981785
O O1 0.895200 0.894010 0.767875
O O2 0.964424 0.781438 0.854830
O O3 0.021737 0.832730 0.713391
O O4 0.032535 0.919726 0.844258
O O5 0.394933 0.482245 0.931029
O O6 0.354420 0.341762 0.882816
O O7 0.295337 0.401754 0.019627
O O8 0.441523 0.354209 0.008902
O O9 0.675314 0.118634 0.598373
O O10 0.139723 0.254477 0.764010
O O11 0.255160 0.948683 0.524944
O O12 0.309636 0.823972 0.960278
#
# Coordination Sequence:
#
# PCOD8315506 Si02
#       6
#    16  16  16  16  16  16
#     4  10  21  37  58  88 127 159 203 254 324 372
#     4  10  21  37  63  87 121 162 214 255 307 370
#     4   9  20  41  62  87 123 165 199 263 326 376
#     4  10  20  37  57  84 123 170 206 251 310 374
#     4  11  22  37  58  95 120 161 210 262 306 380
#     4  10  20  40  66  89 117 158 212 264 311 373
#
# _framework density 19.97606
#
# number of rings (size 3 to 8) (size 9 to 14) (size 15 to 20)
#    0.000    2.000    3.333    0.000    2.333    1.000 
#    0.000    0.833    0.000    0.000    0.000    0.000 
#    0.000    0.000    0.000    0.000    0.000    0.000 
#
# Total GULP energy -1189497.760903 kJ/mol
# GULP energy per Si atom -12390.601676 kJ/mol
# Density = 1.993059 g / cm^3
# Si number density = 19.976060 Si / 1000 Ang^3
#
#
#
# Elastic Constant Matrix: (Units=GPa)
#
#
# Indices 1 2 3 4 5 6 
#
# 1 67.6845 17.5515 16.9854 0.0000 0.0000 0.0000
# 2 17.5515 67.6845 16.9854 0.0000 0.0000 0.0000
# 3 16.9854 16.9854 70.6476 0.0000 0.0000 0.0000
# 4 0.0000 0.0000 0.0000 25.8841 0.0000 0.0000
# 5 0.0000 0.0000 0.0000 0.0000 25.8841 0.0000
# 6 0.0000 0.0000 0.0000 0.0000 0.0000 28.1812
#
#
#
# Elastic Compliance Matrix: (Units=1/GPa)
#
#
# Indices 1 2 3 4 5 6 
#
# 1 0.016461 -0.003486 -0.003120 0.000000 0.000000 0.000000
# 2 -0.003486 0.016461 -0.003120 0.000000 0.000000 0.000000
# 3 -0.003120 -0.003120 0.015655 0.000000 0.000000 0.000000
# 4 0.000000 0.000000 0.000000 0.038634 0.000000 0.000000
# 5 0.000000 0.000000 0.000000 0.000000 0.038634 0.000000
# 6 0.000000 0.000000 0.000000 0.000000 0.000000 0.035485
#
#
# Mechanical properties :
#
#
# Convention : Reuss Voigt Hill
#
# Bulk Modulus (GPa) = 34.33210 34.34015 34.33612
# Shear Modulus (GPa) = 26.24834 26.28952 26.26893
#
# Velocity S-wave (km/s) = 3.62883 3.63168 3.63026
# Velocity P-wave (km/s) = 5.89761 5.90029 5.89895
#
# Compressibility (1/GPa) = 0.02912726
#
# Stress axis : x y z
#
# Youngs Moduli (GPa) = 60.74893 60.74893 63.87804
#
# Poissons Ratio (x) = 0.21176 0.19928
# Poissons Ratio (y) = 0.21176 0.19928
# Poissons Ratio (z) = 0.18951 0.18951
#
# Static dielectric constant tensor:
#      x y z
#    x 3.658930 0.000000 0.000000 
#    y 0.000000 3.658930 0.000000 
#    z 0.000000 0.000000 3.746430 
# 
# 
# High freq. dielectric constant tensor:
#      x y z
#    x 1.773910 0.000000 0.000000 
#    y 0.000000 1.773910 0.000000 
#    z 0.000000 0.000000 1.777730 
# 
# From -- ./inp_files/3096.got.cif
#   From: 2010.03.12/outbox.cif.g09.slc.cpg/sg130_2_cif.got.tgz:3096.got - 2010.04.06 17:30:23.
