data_PCOD8315540
_publ_section_title
;
Structure prediction by ZEFSAII (Michael W. Deem and Ramdas Pophale) SiO2 
 PCOD8315540
Probable space group: P 4/N C C
;
_chemical_formula_sum "Si O2"
_cell_formula_units_Z 48
_cell_length_a 12.798437
_cell_length_b 12.798437
_cell_length_c 12.040690
_cell_angle_alpha 90.000000
_cell_angle_beta 90.000000
_cell_angle_gamma 90.000000
_cell_volume 1972.264897
_symmetry_space_group_name_H-M "P 4/N C C"
_symmetry_group_IT_number 130
_symmetry_cell_setting 'tetragonal'
loop_
_space_group_symop_operation_xyz
x,y,z
1/2-y,x,z
1/2-x,1/2-y,z
y,1/2-x,z
1/2+x,-y,1/2-z
-x,1/2+y,1/2-z
1/2+y,1/2+x,1/2-z
-y,-x,1/2-z
-x,-y,-z
1/2+y,-x,-z
1/2+x,1/2+y,-z
-y,1/2+x,-z
1/2-x,y,1/2+z
x,1/2-y,1/2+z
1/2-y,1/2-x,1/2+z
y,x,1/2+z
loop_
_atom_site_type_symbol
_atom_site_label
_atom_site_fract_x
_atom_site_fract_y
_atom_site_fract_z
Si Si1 0.404110 0.724250 0.172042
Si Si2 0.056532 0.889051 0.508362
Si Si3 0.291428 0.083368 0.661514
O O1 0.303511 0.696490 0.250000
O O2 0.394599 0.664429 0.056589
O O3 0.507970 0.686608 0.234929
O O4 0.413194 0.847161 0.133514
O O5 0.977933 0.804502 0.453866
O O6 0.000000 0.000000 0.500000
O O7 0.375813 0.174421 0.668224
#
# Coordination Sequence:
#
# PCOD8315540 Si02
#       3
#    16  16  16
#     4  10  23  42  64  93 129 172 220 278 345 416
#     4  11  22  41  66  95 131 174 225 279 344 416
#     4  10  21  39  65  97 131 171 222 279 341 409
#
# _framework density 24.337503000000002
#
# number of rings (size 3 to 8) (size 9 to 14) (size 15 to 20)
#    0.000    1.667    0.000    4.000    0.000    0.667 
#    0.000   25.000    0.000    0.000    0.000    0.000 
#    0.000    0.000    0.000    0.000    0.000    0.000 
#
# Total GULP energy -594952.892453 kJ/mol
# GULP energy per Si atom -12394.851926 kJ/mol
# Density = 2.428211 g / cm^3
# Si number density = 24.337503 Si / 1000 Ang^3
#
#
#
# Elastic Constant Matrix: (Units=GPa)
#
#
# Indices 1 2 3 4 5 6 
#
# 1 116.3559 75.6031 60.6086 0.0000 0.0000 0.0000
# 2 75.6031 116.3539 60.6094 0.0000 0.0000 0.0000
# 3 60.6086 60.6094 127.3476 0.0000 0.0000 0.0000
# 4 0.0000 0.0000 0.0000 35.6487 0.0000 0.0000
# 5 0.0000 0.0000 0.0000 0.0000 35.6486 0.0000
# 6 0.0000 0.0000 0.0000 0.0000 0.0000 38.5251
#
#
#
# Elastic Compliance Matrix: (Units=1/GPa)
#
#
# Indices 1 2 3 4 5 6 
#
# 1 0.015993 -0.008545 -0.003545 0.000000 0.000000 0.000000
# 2 -0.008545 0.015994 -0.003545 0.000000 0.000000 0.000000
# 3 -0.003545 -0.003545 0.011227 0.000000 0.000000 0.000000
# 4 0.000000 0.000000 0.000000 0.028052 0.000000 0.000000
# 5 0.000000 0.000000 0.000000 0.000000 0.028052 0.000000
# 6 0.000000 0.000000 0.000000 0.000000 0.000000 0.025957
#
#
# Mechanical properties :
#
#
# Convention : Reuss Voigt Hill
#
# Bulk Modulus (GPa) = 83.72697 83.74439 83.73568
# Shear Modulus (GPa) = 31.14791 32.84690 31.99740
#
# Velocity S-wave (km/s) = 3.58135 3.67773 3.62986
# Velocity P-wave (km/s) = 7.18182 7.24697 7.21447
#
# Compressibility (1/GPa) = 0.01194358
#
# Stress axis : x y z
#
# Youngs Moduli (GPa) = 62.52694 62.52503 89.07416
#
# Poissons Ratio (x) = 0.53431 0.31572
# Poissons Ratio (y) = 0.53432 0.31576
# Poissons Ratio (z) = 0.22163 0.22164
#
# Static dielectric constant tensor:
#      x y z
#    x 4.484320 0.000000 0.000000 
#    y 0.000000 4.484320 0.000000 
#    z 0.000000 0.000000 4.370670 
# 
# 
# High freq. dielectric constant tensor:
#      x y z
#    x 1.982230 0.000000 0.000000 
#    y 0.000000 1.982230 0.000000 
#    z 0.000000 0.000000 1.961110 
# 
# From -- ./inp_files/1273.got.cif
#   From: 2010.03.12/outbox.cif.g09.slc.cpg/sg130_1_cif.got.tgz:1273.got - 2010.04.06 17:30:23.
