data_PCOD8315366
_publ_section_title
;
Structure prediction by ZEFSAII (Michael W. Deem and Ramdas Pophale) SiO2 
 PCOD8315366
Probable space group: P 4/N M M
;
_chemical_formula_sum "Si O2"
_cell_formula_units_Z 128
_cell_length_a 17.587546
_cell_length_b 17.587546
_cell_length_c 24.044552
_cell_angle_alpha 90.000000
_cell_angle_beta 90.000000
_cell_angle_gamma 90.000000
_cell_volume 7437.503487
_symmetry_space_group_name_H-M "P 4/N M M"
_symmetry_group_IT_number 129
_symmetry_cell_setting 'tetragonal'
loop_
_space_group_symop_operation_xyz
x,y,z
1/2-y,x,z
1/2-x,1/2-y,z
y,1/2-x,z
1/2+x,-y,-z
-x,1/2+y,-z
1/2+y,1/2+x,-z
-y,-x,-z
-x,-y,-z
1/2+y,-x,-z
1/2+x,1/2+y,-z
-y,1/2+x,-z
1/2-x,y,z
x,1/2-y,z
1/2-y,1/2-x,z
y,x,z
loop_
_atom_site_type_symbol
_atom_site_label
_atom_site_fract_x
_atom_site_fract_y
_atom_site_fract_z
Si Si1 0.835257 0.956107 0.765404
Si Si2 0.586097 0.163411 0.454819
Si Si3 0.533274 0.411724 0.629194
Si Si4 0.430234 0.557250 0.938264
Si Si5 0.079217 0.546106 0.753922
Si Si6 0.469330 0.339903 0.851871
Si Si7 0.166016 0.047004 0.105181
Si Si8 0.546274 0.663479 0.466689
O O1 0.750000 0.953232 0.738553
O O2 0.890479 0.890479 0.738678
O O3 0.827603 0.938702 0.829945
O O4 0.870092 0.041093 0.757554
O O5 0.654647 0.154647 0.500000
O O6 0.579778 0.250000 0.436039
O O7 0.591474 0.116723 0.397807
O O8 0.514074 0.131951 0.489122
O O9 0.496515 0.496515 0.626053
O O10 0.537246 0.384002 0.692816
O O11 0.480167 0.352931 0.596221
O O12 0.492520 0.492520 0.941988
O O13 0.357883 0.520177 0.906794
O O14 0.464423 0.628276 0.904165
O O15 0.411233 0.588768 0.000000
O O16 0.143296 0.525341 0.799395
O O17 0.010958 0.489043 0.765944
O O18 0.447399 0.250000 0.851998
O O19 0.392039 0.392039 0.849739
O O20 0.250000 0.049825 0.077720
O O21 0.113791 0.113791 0.078032
O O22 0.560012 0.750000 0.476143
O O23 0.625824 0.625824 0.480003
#
# Coordination Sequence:
#
# PCOD8315366 Si02
#       8
#    16  16  16  16  16  16  16  16
#     4   9  16  27  45  68  95 125 155 190 232 277
#     4   9  17  29  45  66  91 119 152 192 238 284
#     4   9  17  29  47  68  90 120 160 201 236 273
#     4   9  17  31  51  72  95 128 169 202 232 282
#     4   9  17  31  49  69  95 129 167 201 236 285
#     4  10  20  35  55  78 103 130 162 203 251 298
#     4   9  16  27  45  69  97 126 155 190 231 275
#     4   9  17  29  45  66  93 122 153 192 238 287
#
# _framework density 17.210075
#
# number of rings (size 3 to 8) (size 9 to 14) (size 15 to 20)
#    0.000    2.875    1.250    0.375    0.000    3.625 
#    0.000    1.250    0.000    1.500    0.000    9.625 
#    0.000    3.000    0.000    0.000    0.000    0.000 
#
# Total GULP energy -1585818.000156 kJ/mol
# GULP energy per Si atom -12389.203126 kJ/mol
# Density = 1.717090 g / cm^3
# Si number density = 17.210075 Si / 1000 Ang^3
#
#
#
# Elastic Constant Matrix: (Units=GPa)
#
#
# Indices 1 2 3 4 5 6 
#
# 1 59.2113 45.6582 13.9461 0.0000 0.0000 0.0000
# 2 45.6582 59.2113 13.9460 0.0000 0.0000 0.0000
# 3 13.9461 13.9460 73.8477 0.0000 0.0000 0.0000
# 4 0.0000 0.0000 0.0000 13.9907 0.0000 0.0000
# 5 0.0000 0.0000 0.0000 0.0000 13.9907 0.0000
# 6 0.0000 0.0000 0.0000 0.0000 0.0000 17.3690
#
#
#
# Elastic Compliance Matrix: (Units=1/GPa)
#
#
# Indices 1 2 3 4 5 6 
#
# 1 0.041912 -0.031872 -0.001896 0.000000 0.000000 0.000000
# 2 -0.031872 0.041912 -0.001896 0.000000 0.000000 0.000000
# 3 -0.001896 -0.001896 0.014258 0.000000 0.000000 0.000000
# 4 0.000000 0.000000 0.000000 0.071476 0.000000 0.000000
# 5 0.000000 0.000000 0.000000 0.000000 0.071476 0.000000
# 6 0.000000 0.000000 0.000000 0.000000 0.000000 0.057574
#
#
# Mechanical properties :
#
#
# Convention : Reuss Voigt Hill
#
# Bulk Modulus (GPa) = 37.37859 37.70788 37.54324
# Shear Modulus (GPa) = 13.19771 16.98473 15.09122
#
# Velocity S-wave (km/s) = 2.77223 3.14491 2.96443
# Velocity P-wave (km/s) = 5.65802 5.92834 5.79476
#
# Compressibility (1/GPa) = 0.02675328
#
# Stress axis : x y z
#
# Youngs Moduli (GPa) = 23.85957 23.85953 70.13843
#
# Poissons Ratio (x) = 0.76045 0.13298
# Poissons Ratio (y) = 0.76045 0.13298
# Poissons Ratio (z) = 0.04524 0.04524
#
# Static dielectric constant tensor:
#      x y z
#    x 3.201970 0.000000 0.000000 
#    y 0.000000 3.201970 0.000000 
#    z 0.000000 0.000000 3.243630 
# 
# 
# High freq. dielectric constant tensor:
#      x y z
#    x 1.646450 0.000000 0.000000 
#    y 0.000000 1.646450 0.000000 
#    z 0.000000 0.000000 1.654680 
# 
# From -- ./inp_files/7364.got.cif
#   From: 2010.03.12/outbox.cif.g09.slc.cpg/sg129_4_cif.got.tgz:7364.got - 2010.04.06 17:19:44.
