data_PCOD8315347
_publ_section_title
;
Structure prediction by ZEFSAII (Michael W. Deem and Ramdas Pophale) SiO2 
 PCOD8315347
Probable space group: P 4/N M M
;
_chemical_formula_sum "Si O2"
_cell_formula_units_Z 88
_cell_length_a 18.363126
_cell_length_b 18.363126
_cell_length_c 13.337598
_cell_angle_alpha 90.000000
_cell_angle_beta 90.000000
_cell_angle_gamma 90.000000
_cell_volume 4497.496684
_symmetry_space_group_name_H-M "P 4/N M M"
_symmetry_group_IT_number 129
_symmetry_cell_setting 'tetragonal'
loop_
_space_group_symop_operation_xyz
x,y,z
1/2-y,x,z
1/2-x,1/2-y,z
y,1/2-x,z
1/2+x,-y,-z
-x,1/2+y,-z
1/2+y,1/2+x,-z
-y,-x,-z
-x,-y,-z
1/2+y,-x,-z
1/2+x,1/2+y,-z
-y,1/2+x,-z
1/2-x,y,z
x,1/2-y,z
1/2-y,1/2-x,z
y,x,z
loop_
_atom_site_type_symbol
_atom_site_label
_atom_site_fract_x
_atom_site_fract_y
_atom_site_fract_z
Si Si1 0.333462 0.448741 0.986291
Si Si2 0.599580 0.331288 0.295221
Si Si3 0.665921 0.035245 0.200060
Si Si4 0.956484 0.837731 0.407049
Si Si5 0.169381 0.052063 0.210581
Si Si6 0.900381 0.400381 0.500000
O O1 0.250000 0.435209 0.959809
O O2 0.370407 0.370407 0.977838
O O3 0.367323 0.502736 0.902893
O O4 0.345725 0.479635 0.098634
O O5 0.626661 0.250000 0.269749
O O6 0.630773 0.385972 0.213537
O O7 0.512219 0.336880 0.290778
O O8 0.625951 0.352533 0.406071
O O9 0.750000 0.050363 0.187146
O O10 0.650504 0.980854 0.292235
O O11 0.951545 0.750000 0.432387
O O12 0.877778 0.877778 0.421757
O O13 0.014989 0.880989 0.476784
O O14 0.250000 0.086849 0.213071
O O15 0.113480 0.113480 0.244209
#
# Coordination Sequence:
#
# PCOD8315347 Si02
#       6
#    16  16  16  16  16   8
#     4   9  17  31  51  76 108 144 180 217 256 302
#     4  10  21  37  56  78 103 131 170 221 272 322
#     4   9  19  34  51  74 105 138 172 213 262 315
#     4  10  20  34  53  78 107 139 176 219 271 330
#     4   9  19  34  53  79 109 141 177 216 258 307
#     4  10  21  38  58  77 100 137 180 226 275 324
#
# _framework density 19.566441000000001
#
# number of rings (size 3 to 8) (size 9 to 14) (size 15 to 20)
#    0.000    2.545    0.000    1.364    0.000    6.727 
#    0.000    3.636    0.000    6.818    0.000    7.636 
#    0.000    0.000    0.000    0.000    0.000    0.000 
#
# Total GULP energy -1090644.280398 kJ/mol
# GULP energy per Si atom -12393.685005 kJ/mol
# Density = 1.952191 g / cm^3
# Si number density = 19.566441 Si / 1000 Ang^3
#
#
#
# Elastic Constant Matrix: (Units=GPa)
#
#
# Indices 1 2 3 4 5 6 
#
# 1 89.2613 55.3714 23.9516 0.0000 0.0000 0.0000
# 2 55.3714 89.2613 23.9516 0.0000 0.0000 0.0000
# 3 23.9516 23.9516 60.7487 0.0000 0.0000 0.0000
# 4 0.0000 0.0000 0.0000 23.8768 0.0000 0.0000
# 5 0.0000 0.0000 0.0000 0.0000 23.8768 0.0000
# 6 0.0000 0.0000 0.0000 0.0000 0.0000 24.6509
#
#
#
# Elastic Compliance Matrix: (Units=1/GPa)
#
#
# Indices 1 2 3 4 5 6 
#
# 1 0.018730 -0.010777 -0.003135 0.000000 0.000000 0.000000
# 2 -0.010777 0.018730 -0.003135 0.000000 0.000000 0.000000
# 3 -0.003135 -0.003135 0.018934 0.000000 0.000000 0.000000
# 4 0.000000 0.000000 0.000000 0.041882 0.000000 0.000000
# 5 0.000000 0.000000 0.000000 0.000000 0.041882 0.000000
# 6 0.000000 0.000000 0.000000 0.000000 0.000000 0.040567
#
#
# Mechanical properties :
#
#
# Convention : Reuss Voigt Hill
#
# Bulk Modulus (GPa) = 44.84925 49.53561 47.19243
# Shear Modulus (GPa) = 22.49694 23.54734 23.02214
#
# Velocity S-wave (km/s) = 3.39451 3.47285 3.43390
# Velocity P-wave (km/s) = 6.19151 6.43836 6.31614
#
# Compressibility (1/GPa) = 0.02229692
#
# Stress axis : x y z
#
# Youngs Moduli (GPa) = 53.39039 53.39039 52.81574
#
# Poissons Ratio (x) = 0.57541 0.16560
# Poissons Ratio (y) = 0.57541 0.16560
# Poissons Ratio (z) = 0.16740 0.16740
#
# Static dielectric constant tensor:
#      x y z
#    x 3.534660 0.000000 0.000000 
#    y 0.000000 3.534660 0.000000 
#    z 0.000000 0.000000 3.721790 
# 
# 
# High freq. dielectric constant tensor:
#      x y z
#    x 1.752390 0.000000 0.000000 
#    y 0.000000 1.752390 0.000000 
#    z 0.000000 0.000000 1.766380 
# 
# From -- ./inp_files/4790.got.cif
#   From: 2010.03.12/outbox.cif.g09.slc.cpg/sg129_3_cif.got.tgz:4790.got - 2010.04.06 17:19:44.
