data_PCOD8315567
_publ_section_title
;
Structure prediction by ZEFSAII (Michael W. Deem and Ramdas Pophale) SiO2 
 PCOD8315567
Probable space group: P 4/N C C
;
_chemical_formula_sum "Si O2"
_cell_formula_units_Z 80
_cell_length_a 12.103540
_cell_length_b 12.103540
_cell_length_c 27.026293
_cell_angle_alpha 90.000000
_cell_angle_beta 90.000000
_cell_angle_gamma 90.000000
_cell_volume 3959.235185
_symmetry_space_group_name_H-M "P 4/N C C"
_symmetry_group_IT_number 130
_symmetry_cell_setting 'tetragonal'
loop_
_space_group_symop_operation_xyz
x,y,z
1/2-y,x,z
1/2-x,1/2-y,z
y,1/2-x,z
1/2+x,-y,1/2-z
-x,1/2+y,1/2-z
1/2+y,1/2+x,1/2-z
-y,-x,1/2-z
-x,-y,-z
1/2+y,-x,-z
1/2+x,1/2+y,-z
-y,1/2+x,-z
1/2-x,y,1/2+z
x,1/2-y,1/2+z
1/2-y,1/2-x,1/2+z
y,x,1/2+z
loop_
_atom_site_type_symbol
_atom_site_label
_atom_site_fract_x
_atom_site_fract_y
_atom_site_fract_z
Si Si1 0.651643 0.469745 0.838727
Si Si2 0.620132 0.256357 0.373443
Si Si3 0.042422 0.616832 0.302993
Si Si4 0.928276 0.725204 0.934979
Si Si5 0.736276 0.567635 0.046743
O O1 0.589833 0.351885 0.840598
O O2 0.569853 0.567158 0.824798
O O3 0.750693 0.470789 0.798613
O O4 0.707028 0.479047 0.893609
O O5 0.750000 0.250000 0.387860
O O6 0.587840 0.358739 0.339571
O O7 0.542956 0.266202 0.421295
O O8 0.064660 0.564660 0.250000
O O9 0.872660 0.842408 0.926404
O O10 0.975978 0.724720 0.990485
O O11 0.850166 0.633522 0.057047
#
# Coordination Sequence:
#
# PCOD8315567 Si02
#       5
#    16  16  16  16  16
#     4  11  22  42  67  89 127 165 206 269 307 376
#     4  10  23  41  58  90 132 169 203 249 321 388
#     4  11  26  42  66  93 119 165 214 257 325 369
#     4   9  17  35  63  93 120 158 214 266 302 351
#     4   9  18  37  65  91 123 166 211 262 310 357
#
# _framework density 20.205922999999999
#
# number of rings (size 3 to 8) (size 9 to 14) (size 15 to 20)
#    0.000    2.000    2.000    2.400    2.800    3.200 
#    7.200    3.000    0.000    0.000    0.000    0.000 
#    0.000    0.000    0.000    0.000    0.000    0.000 
#
# Total GULP energy -991755.750146 kJ/mol
# GULP energy per Si atom -12396.946877 kJ/mol
# Density = 2.015993 g / cm^3
# Si number density = 20.205923 Si / 1000 Ang^3
#
#
#
# Elastic Constant Matrix: (Units=GPa)
#
#
# Indices 1 2 3 4 5 6 
#
# 1 77.4063 21.8894 40.8823 0.0000 0.0000 0.0000
# 2 21.8894 77.4063 40.8823 0.0000 0.0000 0.0000
# 3 40.8823 40.8823 103.1386 0.0000 0.0000 0.0000
# 4 0.0000 0.0000 0.0000 28.6150 0.0000 0.0000
# 5 0.0000 0.0000 0.0000 0.0000 28.6150 0.0000
# 6 0.0000 0.0000 0.0000 0.0000 0.0000 26.6240
#
#
#
# Elastic Compliance Matrix: (Units=1/GPa)
#
#
# Indices 1 2 3 4 5 6 
#
# 1 0.016482 -0.001531 -0.005926 0.000000 0.000000 0.000000
# 2 -0.001531 0.016482 -0.005926 0.000000 0.000000 0.000000
# 3 -0.005926 -0.005926 0.014394 0.000000 0.000000 0.000000
# 4 0.000000 0.000000 0.000000 0.034947 0.000000 0.000000
# 5 0.000000 0.000000 0.000000 0.000000 0.034947 0.000000
# 6 0.000000 0.000000 0.000000 0.000000 0.000000 0.037560
#
#
# Mechanical properties :
#
#
# Convention : Reuss Voigt Hill
#
# Bulk Modulus (GPa) = 48.56599 51.69547 50.13073
# Shear Modulus (GPa) = 26.53348 27.05726 26.79537
#
# Velocity S-wave (km/s) = 3.62768 3.66331 3.64554
# Velocity P-wave (km/s) = 6.45247 6.59795 6.52562
#
# Compressibility (1/GPa) = 0.02059054
#
# Stress axis : x y z
#
# Youngs Moduli (GPa) = 60.67325 60.67325 69.47415
#
# Poissons Ratio (x) = 0.09288 0.41172
# Poissons Ratio (y) = 0.09288 0.41172
# Poissons Ratio (z) = 0.35957 0.35957
#
# Static dielectric constant tensor:
#      x y z
#    x 3.671160 0.000000 0.000000 
#    y 0.000000 3.671160 0.000000 
#    z 0.000000 0.000000 3.565920 
# 
# 
# High freq. dielectric constant tensor:
#      x y z
#    x 1.792330 0.000000 0.000000 
#    y 0.000000 1.792330 0.000000 
#    z 0.000000 0.000000 1.781520 
# 
# From -- ./inp_files/4793.got.cif
#   From: 2010.03.12/outbox.cif.g09.slc.cpg/sg130_3_cif.got.tgz:4793.got - 2010.04.06 17:30:23.
