data_PCOD8315458
_publ_section_title
;
Structure prediction by ZEFSAII (Michael W. Deem and Ramdas Pophale) SiO2 
 PCOD8315458
Probable space group: P 4/N M M
;
_chemical_formula_sum "Si O2"
_cell_formula_units_Z 72
_cell_length_a 14.131568
_cell_length_b 14.131568
_cell_length_c 21.999642
_cell_angle_alpha 90.000000
_cell_angle_beta 90.000000
_cell_angle_gamma 90.000000
_cell_volume 4393.355218
_symmetry_space_group_name_H-M "P 4/N M M"
_symmetry_group_IT_number 129
_symmetry_cell_setting 'tetragonal'
loop_
_space_group_symop_operation_xyz
x,y,z
1/2-y,x,z
1/2-x,1/2-y,z
y,1/2-x,z
1/2+x,-y,-z
-x,1/2+y,-z
1/2+y,1/2+x,-z
-y,-x,-z
-x,-y,-z
1/2+y,-x,-z
1/2+x,1/2+y,-z
-y,1/2+x,-z
1/2-x,y,z
x,1/2-y,z
1/2-y,1/2-x,z
y,x,z
loop_
_atom_site_type_symbol
_atom_site_label
_atom_site_fract_x
_atom_site_fract_y
_atom_site_fract_z
Si Si1 0.640345 0.486081 0.245431
Si Si2 0.988588 0.141602 0.321971
Si Si3 0.859106 0.140894 0.000000
Si Si4 0.009360 0.641949 0.107227
Si Si5 0.858209 0.488883 0.536372
O O1 0.750000 0.504555 0.261441
O O2 0.583171 0.583171 0.258341
O O3 0.600866 0.401104 0.286450
O O4 0.627371 0.453035 0.175707
O O5 0.004717 0.250000 0.302223
O O6 0.964662 0.133617 0.392823
O O7 0.083923 0.083923 0.305654
O O8 0.912061 0.104309 0.939718
O O9 0.750000 0.120437 0.987588
O O10 0.984499 0.750000 0.094409
O O11 0.912742 0.587258 0.095861
O O12 0.899834 0.399834 0.500000
O O13 0.750000 0.505651 0.516652
O O14 0.915907 0.584094 0.520054
#
# Coordination Sequence:
#
# PCOD8315458 Si02
#       5
#    16  16   8  16  16
#     4   9  18  31  46  66  91 118 150 186 223 265
#     4   9  18  32  49  69  92 118 149 185 224 265
#     4   9  17  28  42  62  87 113 142 176 214 257
#     4   9  17  29  45  64  86 113 144 178 216 257
#     4   9  18  32  49  69  93 120 150 185 223 263
#
# _framework density 16.388385
#
# number of rings (size 3 to 8) (size 9 to 14) (size 15 to 20)
#    0.000    3.000    0.000    0.333    0.000    3.333 
#    0.000    8.889    0.000    0.000    0.000    6.222 
#    0.000    5.333    0.000    0.000    0.000    0.000 
#
# Total GULP energy -892759.127247 kJ/mol
# GULP energy per Si atom -12399.432323 kJ/mol
# Density = 1.635108 g / cm^3
# Si number density = 16.388385 Si / 1000 Ang^3
#
#
#
# Elastic Constant Matrix: (Units=GPa)
#
#
# Indices 1 2 3 4 5 6 
#
# 1 110.0389 56.5857 52.9435 0.0000 0.0000 0.0000
# 2 56.5857 110.0396 52.9433 0.0000 0.0000 0.0000
# 3 52.9435 52.9433 63.0981 0.0000 0.0000 0.0000
# 4 0.0000 0.0000 0.0000 28.3057 0.0000 0.0000
# 5 0.0000 0.0000 0.0000 0.0000 28.3058 0.0000
# 6 0.0000 0.0000 0.0000 0.0000 0.0000 18.6128
#
#
#
# Elastic Compliance Matrix: (Units=1/GPa)
#
#
# Indices 1 2 3 4 5 6 
#
# 1 0.015782 -0.002925 -0.010788 0.000000 0.000000 0.000000
# 2 -0.002925 0.015782 -0.010788 0.000000 0.000000 0.000000
# 3 -0.010788 -0.010788 0.033952 0.000000 0.000000 0.000000
# 4 0.000000 0.000000 0.000000 0.035329 0.000000 0.000000
# 5 0.000000 0.000000 0.000000 0.000000 0.035328 0.000000
# 6 0.000000 0.000000 0.000000 0.000000 0.000000 0.053727
#
#
# Mechanical properties :
#
#
# Convention : Reuss Voigt Hill
#
# Bulk Modulus (GPa) = 60.55349 67.56908 64.06128
# Shear Modulus (GPa) = 20.45769 23.09180 21.77475
#
# Velocity S-wave (km/s) = 3.53697 3.75778 3.64905
# Velocity P-wave (km/s) = 7.32867 7.75547 7.54509
#
# Compressibility (1/GPa) = 0.01651432
#
# Stress axis : x y z
#
# Youngs Moduli (GPa) = 63.36133 63.36223 29.45361
#
# Poissons Ratio (x) = 0.18536 0.31774
# Poissons Ratio (y) = 0.18536 0.31774
# Poissons Ratio (z) = 0.68354 0.68353
#
# Static dielectric constant tensor:
#      x y z
#    x 3.101070 0.000000 0.000000 
#    y 0.000000 3.101050 0.000000 
#    z 0.000000 0.000000 3.198970 
# 
# 
# High freq. dielectric constant tensor:
#      x y z
#    x 1.626940 0.000000 0.000000 
#    y 0.000000 1.626940 0.000000 
#    z 0.000000 0.000000 1.632380 
# 
# From -- ./inp_files/5503.got.cif
#   From: 2010.03.12/outbox.cif.g09.slc.cpg/sg129_3_cif.got.tgz:5503.got - 2010.04.06 17:19:44.
