data_PCOD8315668
_publ_section_title
;
Structure prediction by ZEFSAII (Michael W. Deem and Ramdas Pophale) SiO2 
 PCOD8315668
Probable space group: P 42/M M C
;
_chemical_formula_sum "Si O2"
_cell_formula_units_Z 80
_cell_length_a 17.245769
_cell_length_b 17.245769
_cell_length_c 18.027197
_cell_angle_alpha 90.000000
_cell_angle_beta 90.000000
_cell_angle_gamma 90.000000
_cell_volume 5361.586709
_symmetry_space_group_name_H-M "P 42/M M C"
_symmetry_group_IT_number 131
_symmetry_cell_setting 'tetragonal'
loop_
_space_group_symop_operation_xyz
x,y,z
-x,-y,z
-y,x,1/2+z
y,-x,1/2+z
-x,y,-z
x,-y,-z
y,x,1/2-z
-y,-x,1/2-z
-x,-y,-z
x,y,-z
y,-x,1/2-z
-y,x,1/2-z
x,-y,z
-x,y,z
-y,-x,1/2+z
y,x,1/2+z
loop_
_atom_site_type_symbol
_atom_site_label
_atom_site_fract_x
_atom_site_fract_y
_atom_site_fract_z
Si Si1 0.088914 0.324230 0.417568
Si Si2 0.585469 0.908588 0.225416
Si Si3 0.312280 0.092160 0.361072
Si Si4 0.843289 0.839379 0.414716
Si Si5 0.586901 0.908178 0.500000
Si Si6 0.090712 0.000000 0.085068
O O1 0.096492 0.360784 0.500000
O O2 0.113775 0.387956 0.357446
O O3 0.147605 0.252768 0.409906
O O4 0.000000 0.296013 0.404172
O O5 0.500000 0.872080 0.238760
O O6 0.647140 0.878057 0.285639
O O7 0.579304 0.000000 0.234969
O O8 0.229375 0.133698 0.366099
O O9 0.367226 0.120499 0.427764
O O10 0.299262 0.000000 0.362851
O O11 0.831346 0.867265 0.500000
O O12 0.920957 0.876905 0.378760
O O13 0.500000 0.872608 0.500000
O O14 0.580866 0.000000 0.500000
O O15 0.000000 0.000000 0.093920
O O16 0.119315 0.000000 0.000000
#
# Coordination Sequence:
#
# PCOD8315668 Si02
#       6
#    16  16  16  16   8   8
#     4   9  17  30  46  62  81 110 144 184 228 265
#     4   9  18  31  45  62  81 103 138 187 236 277
#     4  10  18  27  41  62  86 114 148 188 224 267
#     4  10  17  27  41  61  87 115 153 189 221 259
#     4   9  16  26  40  57  81 113 148 186 225 263
#     4   9  16  24  38  58  83 117 154 196 228 249
#
# _framework density 14.920956
#
# number of rings (size 3 to 8) (size 9 to 14) (size 15 to 20)
#    0.000    2.600    2.000    1.200    0.000    4.400 
#    0.000    2.000    0.000    0.000    0.000    0.000 
#    0.000    0.000    0.000    0.000    0.000   18.000 
#
# Total GULP energy -991737.391768 kJ/mol
# GULP energy per Si atom -12396.717397 kJ/mol
# Density = 1.488700 g / cm^3
# Si number density = 14.920956 Si / 1000 Ang^3
#
#
#
# Elastic Constant Matrix: (Units=GPa)
#
#
# Indices 1 2 3 4 5 6 
#
# 1 78.1345 31.1497 39.4494 0.0000 0.0000 0.0000
# 2 31.1497 78.1345 39.4494 0.0000 0.0000 0.0000
# 3 39.4494 39.4494 98.9546 0.0000 0.0000 0.0000
# 4 0.0000 0.0000 0.0000 16.0171 0.0000 0.0000
# 5 0.0000 0.0000 0.0000 0.0000 16.0171 0.0000
# 6 0.0000 0.0000 0.0000 0.0000 0.0000 6.1310
#
#
#
# Elastic Compliance Matrix: (Units=1/GPa)
#
#
# Indices 1 2 3 4 5 6 
#
# 1 0.017066 -0.004218 -0.005122 0.000000 0.000000 0.000000
# 2 -0.004218 0.017066 -0.005122 0.000000 0.000000 0.000000
# 3 -0.005122 -0.005122 0.014190 0.000000 0.000000 0.000000
# 4 0.000000 0.000000 0.000000 0.062433 0.000000 0.000000
# 5 0.000000 0.000000 0.000000 0.000000 0.062433 0.000000
# 6 0.000000 0.000000 0.000000 0.000000 0.000000 0.163107
#
#
# Mechanical properties :
#
#
# Convention : Reuss Voigt Hill
#
# Bulk Modulus (GPa) = 51.55209 52.81340 52.18275
# Shear Modulus (GPa) = 13.45226 17.31136 15.38181
#
# Velocity S-wave (km/s) = 3.00587 3.40987 3.21422
# Velocity P-wave (km/s) = 6.83170 7.13970 6.98740
#
# Compressibility (1/GPa) = 0.01939786
#
# Stress axis : x y z
#
# Youngs Moduli (GPa) = 58.59612 58.59612 70.47369
#
# Poissons Ratio (x) = 0.24713 0.36098
# Poissons Ratio (y) = 0.24713 0.36098
# Poissons Ratio (z) = 0.30014 0.30014
#
# Static dielectric constant tensor:
#      x y z
#    x 2.691830 0.000000 0.000000 
#    y 0.000000 2.691830 0.000000 
#    z 0.000000 0.000000 2.933570 
# 
# 
# High freq. dielectric constant tensor:
#      x y z
#    x 1.539390 0.000000 0.000000 
#    y 0.000000 1.539390 0.000000 
#    z 0.000000 0.000000 1.570970 
# 
# From -- ./inp_files/7864.got.cif
#   From: 2010.03.12/outbox.cif.g09.slc.cpg/sg131_4_cif.got.tgz:7864.got - 2010.04.06 17:36:35.
