data_PCOD8315309
_publ_section_title
;
Structure prediction by ZEFSAII (Michael W. Deem and Ramdas Pophale) SiO2 
 PCOD8315309
Probable space group: P 4/N M M
;
_chemical_formula_sum "Si O2"
_cell_formula_units_Z 80
_cell_length_a 13.456615
_cell_length_b 13.456615
_cell_length_c 25.555879
_cell_angle_alpha 90.000000
_cell_angle_beta 90.000000
_cell_angle_gamma 90.000000
_cell_volume 4627.671022
_symmetry_space_group_name_H-M "P 4/N M M"
_symmetry_group_IT_number 129
_symmetry_cell_setting 'tetragonal'
loop_
_space_group_symop_operation_xyz
x,y,z
1/2-y,x,z
1/2-x,1/2-y,z
y,1/2-x,z
1/2+x,-y,-z
-x,1/2+y,-z
1/2+y,1/2+x,-z
-y,-x,-z
-x,-y,-z
1/2+y,-x,-z
1/2+x,1/2+y,-z
-y,1/2+x,-z
1/2-x,y,z
x,1/2-y,z
1/2-y,1/2-x,z
y,x,z
loop_
_atom_site_type_symbol
_atom_site_label
_atom_site_fract_x
_atom_site_fract_y
_atom_site_fract_z
Si Si1 0.634936 0.026768 0.136837
Si Si2 0.636588 0.477744 0.254851
Si Si3 0.366494 0.973457 0.544333
Si Si4 0.859288 0.132165 0.646748
Si Si5 0.029319 0.866366 0.952873
O O1 0.750000 0.008232 0.122540
O O2 0.622951 0.065650 0.196387
O O3 0.587860 0.111941 0.100803
O O4 0.577424 0.922577 0.127826
O O5 0.750000 0.502621 0.267304
O O6 0.581709 0.581709 0.260879
O O7 0.594337 0.399949 0.297204
O O8 0.392865 0.892865 0.500000
O O9 0.250000 0.996012 0.543198
O O10 0.402753 0.930294 0.599942
O O11 0.423513 0.076488 0.533807
O O12 0.750000 0.085181 0.638974
O O13 0.851190 0.250000 0.646343
O O14 0.005944 0.750000 0.957080
O O15 0.100022 0.899978 0.000000
O O16 0.924791 0.924791 0.954915
#
# Coordination Sequence:
#
# PCOD8315309 Si02
#       5
#    16  16  16  16  16
#     4   9  18  31  47  70  99 130 165 203 242 287
#     4   9  17  29  45  67  96 127 159 196 238 285
#     4  10  20  33  50  72  97 126 161 200 242 289
#     4   9  17  29  45  65  90 121 157 196 237 282
#     4  10  21  36  53  74  99 126 159 198 239 286
#
# _framework density 17.287313000000001
#
# number of rings (size 3 to 8) (size 9 to 14) (size 15 to 20)
#    0.000    2.600    0.000    1.800    0.000    4.000 
#    0.000    4.000    0.000    7.200    0.000    0.000 
#    0.000    3.600    0.000    0.800    0.000    0.000 
#
# Total GULP energy -991897.280237 kJ/mol
# GULP energy per Si atom -12398.716003 kJ/mol
# Density = 1.724797 g / cm^3
# Si number density = 17.287313 Si / 1000 Ang^3
#
#
#
# Elastic Constant Matrix: (Units=GPa)
#
#
# Indices 1 2 3 4 5 6 
#
# 1 96.8206 41.5185 45.6521 0.0000 0.0000 0.0000
# 2 41.5185 96.8204 45.6525 0.0000 0.0000 0.0000
# 3 45.6521 45.6525 116.8840 0.0000 0.0000 0.0000
# 4 0.0000 0.0000 0.0000 25.6639 0.0000 0.0000
# 5 0.0000 0.0000 0.0000 0.0000 25.6641 0.0000
# 6 0.0000 0.0000 0.0000 0.0000 0.0000 13.5916
#
#
#
# Elastic Compliance Matrix: (Units=1/GPa)
#
#
# Indices 1 2 3 4 5 6 
#
# 1 0.013911 -0.004172 -0.003804 0.000000 0.000000 0.000000
# 2 -0.004172 0.013911 -0.003804 0.000000 0.000000 0.000000
# 3 -0.003804 -0.003804 0.011527 0.000000 0.000000 0.000000
# 4 0.000000 0.000000 0.000000 0.038965 0.000000 0.000000
# 5 0.000000 0.000000 0.000000 0.000000 0.038965 0.000000
# 6 0.000000 0.000000 0.000000 0.000000 0.000000 0.073575
#
#
# Mechanical properties :
#
#
# Convention : Reuss Voigt Hill
#
# Bulk Modulus (GPa) = 63.33238 64.01900 63.67569
# Shear Modulus (GPa) = 22.76080 24.83072 23.79576
#
# Velocity S-wave (km/s) = 3.63246 3.79404 3.71413
# Velocity P-wave (km/s) = 7.36938 7.50371 7.43685
#
# Compressibility (1/GPa) = 0.01578971
#
# Stress axis : x y z
#
# Youngs Moduli (GPa) = 71.88642 71.88597 86.75324
#
# Poissons Ratio (x) = 0.29988 0.33000
# Poissons Ratio (y) = 0.29988 0.33001
# Poissons Ratio (z) = 0.27345 0.27345
#
# Static dielectric constant tensor:
#      x y z
#    x 3.066330 0.000000 0.000000 
#    y 0.000000 3.066330 0.000000 
#    z 0.000000 0.000000 3.548700 
# 
# 
# High freq. dielectric constant tensor:
#      x y z
#    x 1.650040 0.000000 0.000000 
#    y 0.000000 1.650040 0.000000 
#    z 0.000000 0.000000 1.688480 
# 
# From -- ./inp_files/7694.got.cif
#   From: 2010.03.12/outbox.cif.g09.slc.cpg/sg129_4_cif.got.tgz:7694.got - 2010.04.06 17:19:44.
