data_PCOD8315884
_publ_section_title
;
Structure prediction by ZEFSAII (Michael W. Deem and Ramdas Pophale) SiO2 
 PCOD8315884
Probable space group: P 42/M M C
;
_chemical_formula_sum "Si O2"
_cell_formula_units_Z 96
_cell_length_a 18.076085
_cell_length_b 18.076085
_cell_length_c 16.972015
_cell_angle_alpha 90.000000
_cell_angle_beta 90.000000
_cell_angle_gamma 90.000000
_cell_volume 5545.518477
_symmetry_space_group_name_H-M "P 42/M M C"
_symmetry_group_IT_number 131
_symmetry_cell_setting 'tetragonal'
loop_
_space_group_symop_operation_xyz
x,y,z
-x,-y,z
-y,x,1/2+z
y,-x,1/2+z
-x,y,-z
x,-y,-z
y,x,1/2-z
-y,-x,1/2-z
-x,-y,-z
x,y,-z
y,-x,1/2-z
-y,x,1/2-z
x,-y,z
-x,y,z
-y,-x,1/2+z
y,x,1/2+z
loop_
_atom_site_type_symbol
_atom_site_label
_atom_site_fract_x
_atom_site_fract_y
_atom_site_fract_z
Si Si1 0.000000 0.645440 0.406866
Si Si2 0.584740 0.843322 0.907862
Si Si3 0.716657 0.083760 0.310828
Si Si4 0.581648 0.912240 0.587949
Si Si5 0.205301 0.714390 0.313591
Si Si6 0.188501 0.000000 0.093129
Si Si7 0.850779 0.161919 0.907195
O O1 0.073027 0.601547 0.379054
O O2 0.000000 0.728363 0.372065
O O3 0.000000 0.648191 0.500000
O O4 0.500000 0.824042 0.890833
O O5 0.634121 0.787753 0.854572
O O6 0.604001 0.833278 0.000000
O O7 0.646462 0.119629 0.356983
O O8 0.726744 0.128225 0.231042
O O9 0.791816 0.085411 0.363074
O O10 0.699639 0.000000 0.287193
O O11 0.592387 0.880013 0.500000
O O12 0.500000 0.889344 0.620124
O O13 0.588601 0.000000 0.584419
O O14 0.271527 0.728474 0.250000
O O15 0.202326 0.773960 0.383984
O O16 0.146473 0.924730 0.119802
O O17 0.195144 0.000000 0.000000
O O18 0.862414 0.168708 0.000000
#
# Coordination Sequence:
#
# PCOD8315884 Si02
#       7
#     8  16  16  16  16   8  16
#     4   9  15  26  45  69  96 122 155 200 244 291
#     4  10  19  31  50  76 103 132 169 209 247 292
#     4  10  21  32  45  67  93 119 155 204 253 298
#     4   8  14  27  46  64  84 113 148 185 227 277
#     4  10  21  33  46  68  98 133 161 191 241 304
#     4   9  16  27  49  69  83 113 155 201 250 297
#     4  10  19  33  51  66  83 117 164 208 249 296
#
# _framework density 17.311274999999998
#
# number of rings (size 3 to 8) (size 9 to 14) (size 15 to 20)
#    0.000    2.500    1.667    1.750    2.333    2.667 
#    0.000    0.417    0.000    1.500    0.000    0.000 
#    0.000    0.333    0.000    1.833    0.000    1.833 
#
# Total GULP energy -1189726.257960 kJ/mol
# GULP energy per Si atom -12392.981854 kJ/mol
# Density = 1.727187 g / cm^3
# Si number density = 17.311275 Si / 1000 Ang^3
#
#
#
# Elastic Constant Matrix: (Units=GPa)
#
#
# Indices 1 2 3 4 5 6 
#
# 1 73.7847 19.0223 21.5115 0.0000 0.0000 0.0000
# 2 19.0223 73.7848 21.5114 0.0000 0.0000 0.0000
# 3 21.5115 21.5114 53.7818 0.0000 0.0000 0.0000
# 4 0.0000 0.0000 0.0000 22.5119 0.0000 0.0000
# 5 0.0000 0.0000 0.0000 0.0000 22.5120 0.0000
# 6 0.0000 0.0000 0.0000 0.0000 0.0000 10.2128
#
#
#
# Elastic Compliance Matrix: (Units=1/GPa)
#
#
# Indices 1 2 3 4 5 6 
#
# 1 0.015744 -0.002516 -0.005291 0.000000 0.000000 0.000000
# 2 -0.002516 0.015744 -0.005291 0.000000 0.000000 0.000000
# 3 -0.005291 -0.005291 0.022826 0.000000 0.000000 0.000000
# 4 0.000000 0.000000 0.000000 0.044421 0.000000 0.000000
# 5 0.000000 0.000000 0.000000 0.000000 0.044421 0.000000
# 6 0.000000 0.000000 0.000000 0.000000 0.000000 0.097917
#
#
# Mechanical properties :
#
#
# Convention : Reuss Voigt Hill
#
# Bulk Modulus (GPa) = 35.56398 36.16020 35.86209
# Shear Modulus (GPa) = 18.07393 20.33442 19.20417
#
# Velocity S-wave (km/s) = 3.23469 3.43101 3.33430
# Velocity P-wave (km/s) = 5.87702 6.05222 5.96526
#
# Compressibility (1/GPa) = 0.02811834
#
# Stress axis : x y z
#
# Youngs Moduli (GPa) = 63.51542 63.51563 43.80972
#
# Poissons Ratio (x) = 0.15984 0.23179
# Poissons Ratio (y) = 0.15984 0.23179
# Poissons Ratio (z) = 0.33605 0.33604
#
# Static dielectric constant tensor:
#      x y z
#    x 3.153190 0.000000 0.000000 
#    y 0.000000 3.153180 0.000000 
#    z 0.000000 0.000000 3.307010 
# 
# 
# High freq. dielectric constant tensor:
#      x y z
#    x 1.634340 0.000000 0.000000 
#    y 0.000000 1.634340 0.000000 
#    z 0.000000 0.000000 1.677990 
# 
# From -- ./inp_files/8008.got.cif
#   From: 2010.03.12/outbox.cif.g09.slc.cpg/sg131_5_cif.got.tgz:8008.got - 2010.04.06 17:36:35.
