data_PCOD8315099
_publ_section_title
;
Structure prediction by ZEFSAII (Michael W. Deem and Ramdas Pophale) SiO2 
 PCOD8315099
Probable space group: P 4/N M M
;
_chemical_formula_sum "Si O2"
_cell_formula_units_Z 112
_cell_length_a 15.327736
_cell_length_b 15.327736
_cell_length_c 26.720310
_cell_angle_alpha 90.000000
_cell_angle_beta 90.000000
_cell_angle_gamma 90.000000
_cell_volume 6277.656028
_symmetry_space_group_name_H-M "P 4/N M M"
_symmetry_group_IT_number 129
_symmetry_cell_setting 'tetragonal'
loop_
_space_group_symop_operation_xyz
x,y,z
1/2-y,x,z
1/2-x,1/2-y,z
y,1/2-x,z
1/2+x,-y,-z
-x,1/2+y,-z
1/2+y,1/2+x,-z
-y,-x,-z
-x,-y,-z
1/2+y,-x,-z
1/2+x,1/2+y,-z
-y,1/2+x,-z
1/2-x,y,z
x,1/2-y,z
1/2-y,1/2-x,z
y,x,z
loop_
_atom_site_type_symbol
_atom_site_label
_atom_site_fract_x
_atom_site_fract_y
_atom_site_fract_z
Si Si1 0.970447 0.387614 0.571614
Si Si2 0.484845 0.343474 0.464476
Si Si3 0.558476 0.152645 0.068483
Si Si4 0.512659 0.652577 0.038782
Si Si5 0.846441 0.993727 0.319521
Si Si6 0.510195 0.651047 0.823653
Si Si7 0.850143 0.150496 0.246852
O O1 0.873492 0.423467 0.559956
O O2 0.025534 0.474467 0.577451
O O3 0.004807 0.332861 0.524520
O O4 0.977280 0.334668 0.622838
O O5 0.461473 0.250000 0.441697
O O6 0.406251 0.406251 0.450287
O O7 0.600904 0.250000 0.069279
O O8 0.500114 0.137520 0.117227
O O9 0.634185 0.080355 0.065147
O O10 0.494943 0.142665 0.020973
O O11 0.541720 0.750000 0.053682
O O12 0.585405 0.585405 0.058827
O O13 0.750000 0.960954 0.302237
O O14 0.916420 0.916420 0.310827
O O15 0.874139 0.080875 0.289853
O O16 0.540653 0.750000 0.811456
O O17 0.584102 0.584102 0.803717
O O18 0.416184 0.631940 0.798670
O O19 0.750000 0.137474 0.228337
O O20 0.862428 0.250000 0.266982
#
# Coordination Sequence:
#
# PCOD8315099 Si02
#       7
#    16  16  16  16  16  16  16
#     4   8  16  29  43  61  87 120 152 181 221 271
#     4   9  16  27  43  63  88 117 150 188 229 275
#     4   9  18  32  50  70  93 123 158 198 242 279
#     4  10  19  31  47  68  97 129 160 195 232 277
#     4  10  19  32  51  73  97 124 154 191 236 284
#     4  10  19  32  51  73  98 126 155 191 235 283
#     4   9  19  34  50  70  95 123 158 197 233 273
#
# _framework density 17.841054
#
# number of rings (size 3 to 8) (size 9 to 14) (size 15 to 20)
#    0.000    2.714    0.000    3.429    0.000    2.000 
#    0.000    2.857    0.000   12.000    0.000    0.000 
#    0.000    6.857    0.000    0.000    0.000    0.286 
#
# Total GULP energy -1387824.254245 kJ/mol
# GULP energy per Si atom -12391.287984 kJ/mol
# Density = 1.780045 g / cm^3
# Si number density = 17.841054 Si / 1000 Ang^3
#
#
#
# Elastic Constant Matrix: (Units=GPa)
#
#
# Indices 1 2 3 4 5 6 
#
# 1 112.6884 68.6479 25.3386 0.0000 0.0000 0.0000
# 2 68.6479 112.6884 25.3386 0.0000 0.0000 0.0000
# 3 25.3386 25.3386 40.3960 0.0000 0.0000 0.0000
# 4 0.0000 0.0000 0.0000 18.6481 0.0000 0.0000
# 5 0.0000 0.0000 0.0000 0.0000 18.6481 0.0000
# 6 0.0000 0.0000 0.0000 0.0000 0.0000 18.9336
#
#
#
# Elastic Compliance Matrix: (Units=1/GPa)
#
#
# Indices 1 2 3 4 5 6 
#
# 1 0.014697 -0.008010 -0.004194 0.000000 0.000000 0.000000
# 2 -0.008010 0.014697 -0.004194 0.000000 0.000000 0.000000
# 3 -0.004194 -0.004194 0.030017 0.000000 0.000000 0.000000
# 4 0.000000 0.000000 0.000000 0.053625 0.000000 0.000000
# 5 0.000000 0.000000 0.000000 0.000000 0.053625 0.000000
# 6 0.000000 0.000000 0.000000 0.000000 0.000000 0.052816
#
#
# Mechanical properties :
#
#
# Convention : Reuss Voigt Hill
#
# Bulk Modulus (GPa) = 37.57559 56.04701 46.81130
# Shear Modulus (GPa) = 19.14658 21.00915 20.07786
#
# Velocity S-wave (km/s) = 3.27949 3.43530 3.35830
# Velocity P-wave (km/s) = 5.95375 6.87153 6.42904
#
# Compressibility (1/GPa) = 0.02661302
#
# Stress axis : x y z
#
# Youngs Moduli (GPa) = 68.04299 68.04299 33.31478
#
# Poissons Ratio (x) = 0.54501 0.13973
# Poissons Ratio (y) = 0.54501 0.13973
# Poissons Ratio (z) = 0.28539 0.28539
#
# Static dielectric constant tensor:
#      x y z
#    x 3.296000 0.000000 0.000000 
#    y 0.000000 3.296000 0.000000 
#    z 0.000000 0.000000 3.270620 
# 
# 
# High freq. dielectric constant tensor:
#      x y z
#    x 1.686470 0.000000 0.000000 
#    y 0.000000 1.686470 0.000000 
#    z 0.000000 0.000000 1.667220 
# 
# From -- ./inp_files/7577.got.cif
#   From: 2010.03.12/outbox.cif.g09.slc.cpg/sg129_4_cif.got.tgz:7577.got - 2010.04.06 17:19:44.
