data_PCOD8315490
_publ_section_title
;
Structure prediction by ZEFSAII (Michael W. Deem and Ramdas Pophale) SiO2 
 PCOD8315490
Probable space group: P 4/N C C
;
_chemical_formula_sum "Si O2"
_cell_formula_units_Z 120
_cell_length_a 23.944206
_cell_length_b 23.944206
_cell_length_c 9.227690
_cell_angle_alpha 90.000000
_cell_angle_beta 90.000000
_cell_angle_gamma 90.000000
_cell_volume 5290.465378
_symmetry_space_group_name_H-M "P 4/N C C"
_symmetry_group_IT_number 130
_symmetry_cell_setting 'tetragonal'
loop_
_space_group_symop_operation_xyz
x,y,z
1/2-y,x,z
1/2-x,1/2-y,z
y,1/2-x,z
1/2+x,-y,1/2-z
-x,1/2+y,1/2-z
1/2+y,1/2+x,1/2-z
-y,-x,1/2-z
-x,-y,-z
1/2+y,-x,-z
1/2+x,1/2+y,-z
-y,1/2+x,-z
1/2-x,y,1/2+z
x,1/2-y,1/2+z
1/2-y,1/2-x,1/2+z
y,x,1/2+z
loop_
_atom_site_type_symbol
_atom_site_label
_atom_site_fract_x
_atom_site_fract_y
_atom_site_fract_z
Si Si1 0.401206 0.678741 0.436180
Si Si2 0.645277 0.502128 0.271522
Si Si3 0.252267 0.933630 0.316199
Si Si4 0.114009 0.303202 0.695712
Si Si5 0.611620 0.512536 0.961815
Si Si6 0.457374 0.957374 0.750000
Si Si7 0.689776 0.616670 0.961775
Si Si8 0.141723 0.561336 0.951017
O O1 0.396052 0.725453 0.311035
O O2 0.392410 0.708954 0.589435
O O3 0.462100 0.651521 0.411949
O O4 0.356413 0.628760 0.431504
O O5 0.708752 0.485057 0.229470
O O6 0.652522 0.564221 0.334424
O O7 0.622475 0.458162 0.389379
O O8 0.602206 0.503405 0.135259
O O9 0.203880 0.960559 0.417364
O O10 0.168226 0.326069 0.610970
O O11 0.097727 0.244343 0.625110
O O12 0.125425 0.297606 0.868038
O O13 0.551836 0.507596 0.870388
O O14 0.642109 0.570493 0.934228
O O15 0.400651 0.965132 0.838736
#
# Coordination Sequence:
#
# PCOD8315490 Si02
#       8
#    16  16  16  16  16   8  16  16
#     4  10  20  33  52  86 115 158 210 270 325 388
#     4  10  23  36  63  92 125 165 213 279 328 393
#     4  11  18  33  53  82 114 153 202 264 320 376
#     4  11  25  43  70 101 136 178 215 277 324 398
#     4   9  20  38  59  91 129 161 216 264 330 395
#     4  10  20  32  60  88 128 167 206 278 328 395
#     4  11  24  44  68 101 138 173 226 264 329 394
#     4  11  20  34  54  86 120 156 213 269 333 389
#
# _framework density 22.682314999999999
#
# number of rings (size 3 to 8) (size 9 to 14) (size 15 to 20)
#    0.000    1.600    4.000    1.600    3.733    6.133 
#    0.000    1.333    0.000   14.800    3.467    0.000 
#    0.000    0.000    0.000    0.000    0.000    0.000 
#
# Total GULP energy -1486676.655835 kJ/mol
# GULP energy per Si atom -12388.972132 kJ/mol
# Density = 2.263069 g / cm^3
# Si number density = 22.682315 Si / 1000 Ang^3
#
#
#
# Elastic Constant Matrix: (Units=GPa)
#
#
# Indices 1 2 3 4 5 6 
#
# 1 25.2074 13.4748 32.6223 0.0000 0.0000 0.0000
# 2 13.4748 25.2074 32.6223 0.0000 0.0000 0.0000
# 3 32.6223 32.6223 150.4791 0.0000 0.0000 0.0000
# 4 0.0000 0.0000 0.0000 32.4551 0.0000 0.0000
# 5 0.0000 0.0000 0.0000 0.0000 32.4551 0.0000
# 6 0.0000 0.0000 0.0000 0.0000 0.0000 24.0204
#
#
#
# Elastic Compliance Matrix: (Units=1/GPa)
#
#
# Indices 1 2 3 4 5 6 
#
# 1 0.062993 -0.022240 -0.008835 0.000000 0.000000 0.000000
# 2 -0.022240 0.062993 -0.008835 0.000000 0.000000 0.000000
# 3 -0.008835 -0.008835 0.010476 0.000000 0.000000 0.000000
# 4 0.000000 0.000000 0.000000 0.030812 0.000000 0.000000
# 5 0.000000 0.000000 0.000000 0.000000 0.030812 0.000000
# 6 0.000000 0.000000 0.000000 0.000000 0.000000 0.041631
#
#
# Mechanical properties :
#
#
# Convention : Reuss Voigt Hill
#
# Bulk Modulus (GPa) = 17.65440 39.81475 28.73457
# Shear Modulus (GPa) = 14.77466 25.93110 20.35288
#
# Velocity S-wave (km/s) = 2.55497 3.38484 2.99875
# Velocity P-wave (km/s) = 4.06252 5.73302 4.96848
#
# Compressibility (1/GPa) = 0.05664309
#
# Stress axis : x y z
#
# Youngs Moduli (GPa) = 15.87476 15.87476 95.45581
#
# Poissons Ratio (x) = 0.35305 0.84334
# Poissons Ratio (y) = 0.35305 0.84334
# Poissons Ratio (z) = 0.14025 0.14025
#
# Static dielectric constant tensor:
#      x y z
#    x 3.896560 0.000000 0.000000 
#    y 0.000000 3.896560 0.000000 
#    z 0.000000 0.000000 4.652960 
# 
# 
# High freq. dielectric constant tensor:
#      x y z
#    x 1.869050 0.000000 0.000000 
#    y 0.000000 1.869050 0.000000 
#    z 0.000000 0.000000 1.922280 
# 
# From -- ./inp_files/1073.got.cif
#   From: 2010.03.12/outbox.cif.g09.slc.cpg/sg130_1_cif.got.tgz:1073.got - 2010.04.06 17:30:23.
