data_PCOD8315281
_publ_section_title
;
Structure prediction by ZEFSAII (Michael W. Deem and Ramdas Pophale) SiO2 
 PCOD8315281
Probable space group: P 4/N M M
;
_chemical_formula_sum "Si O2"
_cell_formula_units_Z 64
_cell_length_a 13.884854
_cell_length_b 13.884854
_cell_length_c 20.203776
_cell_angle_alpha 90.000000
_cell_angle_beta 90.000000
_cell_angle_gamma 90.000000
_cell_volume 3895.069218
_symmetry_space_group_name_H-M "P 4/N M M"
_symmetry_group_IT_number 129
_symmetry_cell_setting 'tetragonal'
loop_
_space_group_symop_operation_xyz
x,y,z
1/2-y,x,z
1/2-x,1/2-y,z
y,1/2-x,z
1/2+x,-y,-z
-x,1/2+y,-z
1/2+y,1/2+x,-z
-y,-x,-z
-x,-y,-z
1/2+y,-x,-z
1/2+x,1/2+y,-z
-y,1/2+x,-z
1/2-x,y,z
x,1/2-y,z
1/2-y,1/2-x,z
y,x,z
loop_
_atom_site_type_symbol
_atom_site_label
_atom_site_fract_x
_atom_site_fract_y
_atom_site_fract_z
Si Si1 0.638694 0.361307 0.500000
Si Si2 0.859827 0.140173 0.000000
Si Si3 0.862692 0.479495 0.129683
Si Si4 0.638051 0.480970 0.769652
Si Si5 0.860009 0.013182 0.620003
O O1 0.750000 0.382927 0.489632
O O2 0.598676 0.411793 0.566319
O O3 0.930784 0.114658 0.940441
O O4 0.750000 0.124849 0.976134
O O5 0.750000 0.501576 0.138806
O O6 0.895732 0.405149 0.186120
O O7 0.920139 0.579862 0.134797
O O8 0.750000 0.498876 0.787143
O O9 0.580875 0.580875 0.782664
O O10 0.625361 0.445494 0.693951
O O11 0.750000 0.990517 0.605385
O O12 0.912273 0.912273 0.611391
#
# Coordination Sequence:
#
# PCOD8315281 Si02
#       5
#     8   8  16  16  16
#     4   9  17  28  42  62  87 115 148 184 220 257
#     4   9  17  30  50  74  95 117 148 186 229 273
#     4  10  20  33  49  69  94 124 157 192 227 265
#     4   9  18  31  47  69  94 119 150 187 229 277
#     4   9  17  29  45  65  89 116 145 179 220 266
#
# _framework density 16.43103
#
# number of rings (size 3 to 8) (size 9 to 14) (size 15 to 20)
#    0.000    2.750    0.000    1.500    0.000    3.250 
#    0.000    5.000    0.000    0.000    0.000    3.500 
#    0.000    6.000    0.000    0.000    0.000    0.000 
#
# Total GULP energy -793484.372622 kJ/mol
# GULP energy per Si atom -12398.193322 kJ/mol
# Density = 1.639363 g / cm^3
# Si number density = 16.431030 Si / 1000 Ang^3
#
#
#
# Elastic Constant Matrix: (Units=GPa)
#
#
# Indices 1 2 3 4 5 6 
#
# 1 89.8094 51.5151 60.3684 0.0000 0.0000 0.0000
# 2 51.5151 89.8094 60.3686 0.0000 0.0000 0.0000
# 3 60.3684 60.3686 109.9710 0.0000 0.0000 0.0000
# 4 0.0000 0.0000 0.0000 27.4238 0.0000 0.0000
# 5 0.0000 0.0000 0.0000 0.0000 27.4238 0.0000
# 6 0.0000 0.0000 0.0000 0.0000 0.0000 20.1171
#
#
#
# Elastic Compliance Matrix: (Units=1/GPa)
#
#
# Indices 1 2 3 4 5 6 
#
# 1 0.019719 -0.006394 -0.007315 0.000000 0.000000 0.000000
# 2 -0.006394 0.019719 -0.007315 0.000000 0.000000 0.000000
# 3 -0.007315 -0.007315 0.017124 0.000000 0.000000 0.000000
# 4 0.000000 0.000000 0.000000 0.036465 0.000000 0.000000
# 5 0.000000 0.000000 0.000000 0.000000 0.036465 0.000000
# 6 0.000000 0.000000 0.000000 0.000000 0.000000 0.049709
#
#
# Mechanical properties :
#
#
# Convention : Reuss Voigt Hill
#
# Bulk Modulus (GPa) = 68.89317 70.45489 69.67403
# Shear Modulus (GPa) = 22.11536 22.81547 22.46542
#
# Velocity S-wave (km/s) = 3.67270 3.73038 3.70165
# Velocity P-wave (km/s) = 7.74627 7.84389 7.79523
#
# Compressibility (1/GPa) = 0.01451523
#
# Stress axis : x y z
#
# Youngs Moduli (GPa) = 50.71167 50.71157 58.39673
#
# Poissons Ratio (x) = 0.32426 0.42716
# Poissons Ratio (y) = 0.32426 0.42716
# Poissons Ratio (z) = 0.37095 0.37095
#
# Static dielectric constant tensor:
#      x y z
#    x 3.029670 0.000000 0.000000 
#    y 0.000000 3.029680 0.000000 
#    z 0.000000 0.000000 3.331210 
# 
# 
# High freq. dielectric constant tensor:
#      x y z
#    x 1.625270 0.000000 0.000000 
#    y 0.000000 1.625270 0.000000 
#    z 0.000000 0.000000 1.644190 
# 
# From -- ./inp_files/5413.got.cif
#   From: 2010.03.12/outbox.cif.g09.slc.cpg/sg129_3_cif.got.tgz:5413.got - 2010.04.06 17:19:44.
