data_PCOD8315268
_publ_section_title
;
Structure prediction by ZEFSAII (Michael W. Deem and Ramdas Pophale) SiO2 
 PCOD8315268
Probable space group: P 4/N M M
;
_chemical_formula_sum "Si O2"
_cell_formula_units_Z 80
_cell_length_a 18.216988
_cell_length_b 18.216988
_cell_length_c 13.341011
_cell_angle_alpha 90.000000
_cell_angle_beta 90.000000
_cell_angle_gamma 90.000000
_cell_volume 4427.329924
_symmetry_space_group_name_H-M "P 4/N M M"
_symmetry_group_IT_number 129
_symmetry_cell_setting 'tetragonal'
loop_
_space_group_symop_operation_xyz
x,y,z
1/2-y,x,z
1/2-x,1/2-y,z
y,1/2-x,z
1/2+x,-y,-z
-x,1/2+y,-z
1/2+y,1/2+x,-z
-y,-x,-z
-x,-y,-z
1/2+y,-x,-z
1/2+x,1/2+y,-z
-y,1/2+x,-z
1/2-x,y,z
x,1/2-y,z
1/2-y,1/2-x,z
y,x,z
loop_
_atom_site_type_symbol
_atom_site_label
_atom_site_fract_x
_atom_site_fract_y
_atom_site_fract_z
Si Si1 0.452028 0.333284 0.597577
Si Si2 0.664864 0.106418 0.896349
Si Si3 0.597415 0.167201 0.697786
Si Si4 0.835954 0.030639 0.603289
Si Si5 0.952265 0.833861 0.806600
O O1 0.424826 0.250000 0.580273
O O2 0.381746 0.381746 0.623842
O O3 0.508870 0.338151 0.690062
O O4 0.492024 0.363954 0.497641
O O5 0.750000 0.129528 0.890675
O O6 0.621669 0.149031 0.809891
O O7 0.656327 0.018973 0.884573
O O8 0.629576 0.129576 0.000000
O O9 0.622441 0.250000 0.669697
O O10 0.630408 0.111574 0.616177
O O11 0.750000 0.043177 0.599818
O O12 0.857957 0.979457 0.696698
O O13 0.924190 0.750000 0.806079
O O14 0.885301 0.885301 0.840572
#
# Coordination Sequence:
#
# PCOD8315268 Si02
#       5
#    16  16  16  16  16
#     4  10  21  36  53  74 100 132 172 213 251 294
#     4  10  21  36  55  78 102 131 168 208 251 299
#     4  10  20  32  49  76 105 133 167 203 246 304
#     4   9  18  32  50  74 105 139 173 207 244 290
#     4   9  18  32  50  75 105 135 171 213 254 299
#
# _framework density 18.069580999999999
#
# number of rings (size 3 to 8) (size 9 to 14) (size 15 to 20)
#    0.000    2.400    0.000    3.600    0.000    8.200 
#    0.000    1.000    0.000   10.800    0.000    0.000 
#    0.000    6.400    0.000    0.000    0.000    0.200 
#
# Total GULP energy -991931.107413 kJ/mol
# GULP energy per Si atom -12399.138843 kJ/mol
# Density = 1.802845 g / cm^3
# Si number density = 18.069581 Si / 1000 Ang^3
#
#
#
# Elastic Constant Matrix: (Units=GPa)
#
#
# Indices 1 2 3 4 5 6 
#
# 1 104.5417 72.4173 41.1866 0.0000 0.0000 0.0000
# 2 72.4173 104.5417 41.1866 0.0000 0.0000 0.0000
# 3 41.1866 41.1866 86.2031 0.0000 0.0000 0.0000
# 4 0.0000 0.0000 0.0000 19.4364 0.0000 0.0000
# 5 0.0000 0.0000 0.0000 0.0000 19.4364 0.0000
# 6 0.0000 0.0000 0.0000 0.0000 0.0000 33.4232
#
#
#
# Elastic Compliance Matrix: (Units=1/GPa)
#
#
# Indices 1 2 3 4 5 6 
#
# 1 0.019198 -0.011931 -0.003472 0.000000 0.000000 0.000000
# 2 -0.011931 0.019198 -0.003472 0.000000 0.000000 0.000000
# 3 -0.003472 -0.003472 0.014918 0.000000 0.000000 0.000000
# 4 0.000000 0.000000 0.000000 0.051450 0.000000 0.000000
# 5 0.000000 0.000000 0.000000 0.000000 0.051450 0.000000
# 6 0.000000 0.000000 0.000000 0.000000 0.000000 0.029919
#
#
# Mechanical properties :
#
#
# Convention : Reuss Voigt Hill
#
# Bulk Modulus (GPa) = 64.24994 67.20752 65.72873
# Shear Modulus (GPa) = 21.82714 23.82559 22.82637
#
# Velocity S-wave (km/s) = 3.47933 3.63512 3.55808
# Velocity P-wave (km/s) = 7.19549 7.40900 7.30303
#
# Compressibility (1/GPa) = 0.01556422
#
# Stress axis : x y z
#
# Youngs Moduli (GPa) = 52.08835 52.08835 67.03106
#
# Poissons Ratio (x) = 0.62146 0.23275
# Poissons Ratio (y) = 0.62146 0.23275
# Poissons Ratio (z) = 0.18086 0.18086
#
# Static dielectric constant tensor:
#      x y z
#    x 3.282710 0.000000 0.000000 
#    y 0.000000 3.282710 0.000000 
#    z 0.000000 0.000000 3.287710 
# 
# 
# High freq. dielectric constant tensor:
#      x y z
#    x 1.697880 0.000000 0.000000 
#    y 0.000000 1.697880 0.000000 
#    z 0.000000 0.000000 1.683920 
# 
# From -- ./inp_files/4574.got.cif
#   From: 2010.03.12/outbox.cif.g09.slc.cpg/sg129_3_cif.got.tgz:4574.got - 2010.04.06 17:19:44.
