data_PCOD8315244
_publ_section_title
;
Structure prediction by ZEFSAII (Michael W. Deem and Ramdas Pophale) SiO2 
 PCOD8315244
Probable space group: P 4/N M M
;
_chemical_formula_sum "Si O2"
_cell_formula_units_Z 96
_cell_length_a 13.716130
_cell_length_b 13.716130
_cell_length_c 30.714115
_cell_angle_alpha 90.000000
_cell_angle_beta 90.000000
_cell_angle_gamma 90.000000
_cell_volume 5778.314707
_symmetry_space_group_name_H-M "P 4/N M M"
_symmetry_group_IT_number 129
_symmetry_cell_setting 'tetragonal'
loop_
_space_group_symop_operation_xyz
x,y,z
1/2-y,x,z
1/2-x,1/2-y,z
y,1/2-x,z
1/2+x,-y,-z
-x,1/2+y,-z
1/2+y,1/2+x,-z
-y,-x,-z
-x,-y,-z
1/2+y,-x,-z
1/2+x,1/2+y,-z
-y,1/2+x,-z
1/2-x,y,z
x,1/2-y,z
1/2-y,1/2-x,z
y,x,z
loop_
_atom_site_type_symbol
_atom_site_label
_atom_site_fract_x
_atom_site_fract_y
_atom_site_fract_z
Si Si1 0.134479 0.858091 0.047725
Si Si2 0.361641 0.517133 0.369678
Si Si3 0.134413 0.976756 0.130871
Si Si4 0.634626 0.476135 0.202721
Si Si5 0.364055 0.640160 0.712281
Si Si6 0.521073 0.137810 0.467268
O O1 0.250000 0.848787 0.048329
O O2 0.089819 0.750000 0.056674
O O3 0.100314 0.933576 0.084431
O O4 0.102227 0.897774 0.000000
O O5 0.250000 0.491498 0.362545
O O6 0.415900 0.415900 0.363216
O O7 0.398383 0.592909 0.333350
O O8 0.380251 0.560062 0.418059
O O9 0.250000 0.994850 0.133694
O O10 0.079629 0.079629 0.138113
O O11 0.102613 0.898189 0.166916
O O12 0.750000 0.494862 0.198717
O O13 0.578584 0.578584 0.196172
O O14 0.604388 0.431918 0.249270
O O15 0.250000 0.639314 0.706088
O O16 0.400233 0.750000 0.723187
O O17 0.606507 0.106507 0.500000
O O18 0.494562 0.250000 0.475200
O O19 0.423250 0.076751 0.476674
#
# Coordination Sequence:
#
# PCOD8315244 Si02
#       6
#    16  16  16  16  16  16
#     4   8  14  26  45  68  92 117 148 189 232 270
#     4   9  17  29  45  65  90 118 147 181 220 263
#     4  10  20  32  47  68  93 123 158 193 230 272
#     4  10  20  33  50  71  93 119 151 187 229 274
#     4   9  17  29  46  68  92 118 149 183 218 259
#     4   9  18  31  46  66  91 119 152 189 229 272
#
# _framework density 16.61384
#
# number of rings (size 3 to 8) (size 9 to 14) (size 15 to 20)
#    0.000    2.833    0.000    2.000    0.000    3.500 
#    0.000    3.333    0.000    0.000    0.000    2.333 
#    0.000    8.000    0.000    0.000    0.000    0.000 
#
# Total GULP energy -1190030.173869 kJ/mol
# GULP energy per Si atom -12396.147644 kJ/mol
# Density = 1.657603 g / cm^3
# Si number density = 16.613840 Si / 1000 Ang^3
#
#
#
# Elastic Constant Matrix: (Units=GPa)
#
#
# Indices 1 2 3 4 5 6 
#
# 1 68.8951 36.2051 46.6438 0.0000 0.0000 0.0000
# 2 36.2051 68.8950 46.6438 0.0000 0.0000 0.0000
# 3 46.6438 46.6438 121.9096 0.0000 0.0000 0.0000
# 4 0.0000 0.0000 0.0000 25.0122 0.0000 0.0000
# 5 0.0000 0.0000 0.0000 0.0000 25.0122 0.0000
# 6 0.0000 0.0000 0.0000 0.0000 0.0000 17.8376
#
#
#
# Elastic Compliance Matrix: (Units=1/GPa)
#
#
# Indices 1 2 3 4 5 6 
#
# 1 0.022499 -0.008091 -0.005513 0.000000 0.000000 0.000000
# 2 -0.008091 0.022499 -0.005513 0.000000 0.000000 0.000000
# 3 -0.005513 -0.005513 0.012421 0.000000 0.000000 0.000000
# 4 0.000000 0.000000 0.000000 0.039981 0.000000 0.000000
# 5 0.000000 0.000000 0.000000 0.000000 0.039980 0.000000
# 6 0.000000 0.000000 0.000000 0.000000 0.000000 0.056061
#
#
# Mechanical properties :
#
#
# Convention : Reuss Voigt Hill
#
# Bulk Modulus (GPa) = 52.12031 57.63168 54.87600
# Shear Modulus (GPa) = 21.00224 22.25287 21.62755
#
# Velocity S-wave (km/s) = 3.55933 3.66378 3.61193
# Velocity P-wave (km/s) = 6.95209 7.25685 7.10611
#
# Compressibility (1/GPa) = 0.01918638
#
# Stress axis : x y z
#
# Youngs Moduli (GPa) = 44.44637 44.44627 80.50819
#
# Poissons Ratio (x) = 0.35963 0.44380
# Poissons Ratio (y) = 0.35963 0.44380
# Poissons Ratio (z) = 0.24501 0.24501
#
# Static dielectric constant tensor:
#      x y z
#    x 2.970050 0.000000 0.000000 
#    y 0.000000 2.970060 0.000000 
#    z 0.000000 0.000000 3.502770 
# 
# 
# High freq. dielectric constant tensor:
#      x y z
#    x 1.623800 0.000000 0.000000 
#    y 0.000000 1.623800 0.000000 
#    z 0.000000 0.000000 1.657190 
# 
# From -- ./inp_files/7824.got.cif
#   From: 2010.03.12/outbox.cif.g09.slc.cpg/sg129_4_cif.got.tgz:7824.got - 2010.04.06 17:19:44.
