data_PCOD8315169
_publ_section_title
;
Structure prediction by ZEFSAII (Michael W. Deem and Ramdas Pophale) SiO2 
 PCOD8315169
Probable space group: P 4/N M M
;
_chemical_formula_sum "Si O2"
_cell_formula_units_Z 96
_cell_length_a 19.589565
_cell_length_b 19.589565
_cell_length_c 14.914266
_cell_angle_alpha 90.000000
_cell_angle_beta 90.000000
_cell_angle_gamma 90.000000
_cell_volume 5723.365340
_symmetry_space_group_name_H-M "P 4/N M M"
_symmetry_group_IT_number 129
_symmetry_cell_setting 'tetragonal'
loop_
_space_group_symop_operation_xyz
x,y,z
1/2-y,x,z
1/2-x,1/2-y,z
y,1/2-x,z
1/2+x,-y,-z
-x,1/2+y,-z
1/2+y,1/2+x,-z
-y,-x,-z
-x,-y,-z
1/2+y,-x,-z
1/2+x,1/2+y,-z
-y,1/2+x,-z
1/2-x,y,z
x,1/2-y,z
1/2-y,1/2-x,z
y,x,z
loop_
_atom_site_type_symbol
_atom_site_label
_atom_site_fract_x
_atom_site_fract_y
_atom_site_fract_z
Si Si1 0.672623 0.938785 0.444059
Si Si2 0.616945 0.506615 0.276213
Si Si3 0.830288 0.061898 0.971163
Si Si4 0.018578 0.594959 0.794102
Si Si5 0.437956 0.172891 0.899569
Si Si6 0.671361 0.561974 0.645205
O O1 0.750000 0.914085 0.434364
O O2 0.627066 0.872935 0.421587
O O3 0.656392 0.998535 0.371504
O O4 0.659465 0.966880 0.544387
O O5 0.547772 0.547772 0.293206
O O6 0.592091 0.433935 0.238150
O O7 0.665591 0.544461 0.205186
O O8 0.750000 0.078528 0.964863
O O9 0.856286 0.031571 0.877748
O O10 0.869314 0.130687 0.000000
O O11 0.846789 0.005017 0.045153
O O12 0.964753 0.535248 0.820643
O O13 0.992356 0.640510 0.712697
O O14 0.414376 0.250000 0.919479
O O15 0.376733 0.123268 0.928901
O O16 0.750000 0.573936 0.667669
O O17 0.635095 0.635095 0.655968
#
# Coordination Sequence:
#
# PCOD8315169 Si02
#       6
#    16  16  16  16  16  16
#     4   9  17  29  45  67  98 132 166 204 244 292
#     4   9  17  29  47  70  95 128 167 205 245 290
#     4  11  22  36  55  76  98 128 166 212 259 307
#     4  10  19  32  52  74  98 127 162 207 252 301
#     4  10  20  33  51  76 105 135 168 204 245 298
#     4   9  18  31  47  70  99 131 166 204 247 294
#
# _framework density 16.773349
#
# number of rings (size 3 to 8) (size 9 to 14) (size 15 to 20)
#    0.000    2.333    1.667    1.500    0.000    2.000 
#    0.000    5.000    0.000    3.000    0.000    2.333 
#    0.000    0.000    0.000    7.667    0.000    0.500 
#
# Total GULP energy -1190172.111653 kJ/mol
# GULP energy per Si atom -12397.626163 kJ/mol
# Density = 1.673517 g / cm^3
# Si number density = 16.773349 Si / 1000 Ang^3
#
#
#
# Elastic Constant Matrix: (Units=GPa)
#
#
# Indices 1 2 3 4 5 6 
#
# 1 85.5333 54.1458 44.0213 0.0000 0.0000 0.0000
# 2 54.1458 85.5304 44.0202 0.0000 0.0000 0.0000
# 3 44.0213 44.0202 105.2952 0.0000 0.0000 0.0000
# 4 0.0000 0.0000 0.0000 26.3588 0.0000 0.0000
# 5 0.0000 0.0000 0.0000 0.0000 26.3588 0.0000
# 6 0.0000 0.0000 0.0000 0.0000 0.0000 19.7425
#
#
#
# Elastic Compliance Matrix: (Units=1/GPa)
#
#
# Indices 1 2 3 4 5 6 
#
# 1 0.020791 -0.011070 -0.004064 0.000000 0.000000 0.000000
# 2 -0.011070 0.020791 -0.004064 0.000000 0.000000 0.000000
# 3 -0.004064 -0.004064 0.012895 0.000000 0.000000 0.000000
# 4 0.000000 0.000000 0.000000 0.037938 0.000000 0.000000
# 5 0.000000 0.000000 0.000000 0.000000 0.037938 0.000000
# 6 0.000000 0.000000 0.000000 0.000000 0.000000 0.050652
#
#
# Mechanical properties :
#
#
# Convention : Reuss Voigt Hill
#
# Bulk Modulus (GPa) = 62.18520 62.30372 62.24446
# Shear Modulus (GPa) = 22.24571 23.43679 22.84125
#
# Velocity S-wave (km/s) = 3.64573 3.74205 3.69420
# Velocity P-wave (km/s) = 7.40784 7.47635 7.44217
#
# Compressibility (1/GPa) = 0.01608100
#
# Stress axis : x y z
#
# Youngs Moduli (GPa) = 48.09812 48.09671 77.54806
#
# Poissons Ratio (x) = 0.53244 0.31516
# Poissons Ratio (y) = 0.53245 0.31516
# Poissons Ratio (z) = 0.19548 0.19547
#
# Static dielectric constant tensor:
#      x y z
#    x 3.052960 0.000000 0.000000 
#    y 0.000000 3.052960 0.000000 
#    z 0.000000 0.000000 3.337240 
# 
# 
# High freq. dielectric constant tensor:
#      x y z
#    x 1.631130 0.000000 0.000000 
#    y 0.000000 1.631130 0.000000 
#    z 0.000000 0.000000 1.662770 
# 
# From -- ./inp_files/4921.got.cif
#   From: 2010.03.12/outbox.cif.g09.slc.cpg/sg129_3_cif.got.tgz:4921.got - 2010.04.06 17:19:44.
