data_PCOD8315420
_publ_section_title
;
Structure prediction by ZEFSAII (Michael W. Deem and Ramdas Pophale) SiO2 
 PCOD8315420
Probable space group: P 4/N M M
;
_chemical_formula_sum "Si O2"
_cell_formula_units_Z 96
_cell_length_a 22.038114
_cell_length_b 22.038114
_cell_length_c 11.468410
_cell_angle_alpha 90.000000
_cell_angle_beta 90.000000
_cell_angle_gamma 90.000000
_cell_volume 5569.959807
_symmetry_space_group_name_H-M "P 4/N M M"
_symmetry_group_IT_number 129
_symmetry_cell_setting 'tetragonal'
loop_
_space_group_symop_operation_xyz
x,y,z
1/2-y,x,z
1/2-x,1/2-y,z
y,1/2-x,z
1/2+x,-y,-z
-x,1/2+y,-z
1/2+y,1/2+x,-z
-y,-x,-z
-x,-y,-z
1/2+y,-x,-z
1/2+x,1/2+y,-z
-y,1/2+x,-z
1/2-x,y,z
x,1/2-y,z
1/2-y,1/2-x,z
y,x,z
loop_
_atom_site_type_symbol
_atom_site_label
_atom_site_fract_x
_atom_site_fract_y
_atom_site_fract_z
Si Si1 0.319789 0.416532 0.622049
Si Si2 0.317603 0.016593 0.857085
Si Si3 0.678971 0.464349 0.494741
Si Si4 0.180874 0.892126 0.722525
Si Si5 0.003439 0.594349 0.943348
Si Si6 0.432797 0.820960 0.758420
O O1 0.250000 0.403463 0.592294
O O2 0.355620 0.355620 0.593410
O O3 0.328832 0.434437 0.756594
O O4 0.347708 0.470252 0.541876
O O5 0.250000 0.024186 0.908424
O O6 0.325115 0.948910 0.808151
O O7 0.365276 0.029221 0.958846
O O8 0.750000 0.468322 0.469261
O O9 0.656410 0.411473 0.406533
O O10 0.663147 0.452081 0.627452
O O11 0.250000 0.867531 0.719012
O O12 0.138072 0.838483 0.771267
O O13 0.025125 0.638106 0.840050
O O14 0.954696 0.545305 0.895301
O O15 0.060738 0.560738 0.000000
O O16 0.440986 0.750000 0.788924
#
# Coordination Sequence:
#
# PCOD8315420 Si02
#       6
#    16  16  16  16  16  16
#     4   9  17  30  51  76 101 131 166 209 264 320
#     4   9  17  33  54  72  96 132 170 206 251 301
#     4   8  17  32  49  70  97 132 167 202 244 296
#     4   9  17  32  53  74 101 133 165 203 249 299
#     4  11  22  35  50  70  99 132 172 215 251 291
#     4  11  21  34  52  75 104 133 169 211 253 299
#
# _framework density 17.235313000000001
#
# number of rings (size 3 to 8) (size 9 to 14) (size 15 to 20)
#    0.000    2.500    1.667    3.500    0.000    1.167 
#    0.000    0.000    0.000    6.000    0.000    0.000 
#    0.000    3.000    0.000    0.667    0.000    0.000 
#
# Total GULP energy -1190018.000329 kJ/mol
# GULP energy per Si atom -12396.020837 kJ/mol
# Density = 1.719608 g / cm^3
# Si number density = 17.235313 Si / 1000 Ang^3
#
#
#
# Elastic Constant Matrix: (Units=GPa)
#
#
# Indices 1 2 3 4 5 6 
#
# 1 82.2346 44.0093 30.2515 0.0000 0.0000 0.0000
# 2 44.0093 82.2346 30.2515 0.0000 0.0000 0.0000
# 3 30.2515 30.2515 57.6547 0.0000 0.0000 0.0000
# 4 0.0000 0.0000 0.0000 21.5840 0.0000 0.0000
# 5 0.0000 0.0000 0.0000 0.0000 21.5840 0.0000
# 6 0.0000 0.0000 0.0000 0.0000 0.0000 30.6728
#
#
#
# Elastic Compliance Matrix: (Units=1/GPa)
#
#
# Indices 1 2 3 4 5 6 
#
# 1 0.018371 -0.007789 -0.005553 0.000000 0.000000 0.000000
# 2 -0.007789 0.018371 -0.005553 0.000000 0.000000 0.000000
# 3 -0.005553 -0.005553 0.023172 0.000000 0.000000 0.000000
# 4 0.000000 0.000000 0.000000 0.046331 0.000000 0.000000
# 5 0.000000 0.000000 0.000000 0.000000 0.046331 0.000000
# 6 0.000000 0.000000 0.000000 0.000000 0.000000 0.032602
#
#
# Mechanical properties :
#
#
# Convention : Reuss Voigt Hill
#
# Bulk Modulus (GPa) = 45.19593 47.90539 46.55066
# Shear Modulus (GPa) = 21.70688 22.60893 22.15790
#
# Velocity S-wave (km/s) = 3.55271 3.62578 3.58943
# Velocity P-wave (km/s) = 6.56573 6.73674 6.65178
#
# Compressibility (1/GPa) = 0.02212588
#
# Stress axis : x y z
#
# Youngs Moduli (GPa) = 54.43223 54.43223 43.15644
#
# Poissons Ratio (x) = 0.42398 0.23963
# Poissons Ratio (y) = 0.42398 0.23963
# Poissons Ratio (z) = 0.30224 0.30224
#
# Static dielectric constant tensor:
#      x y z
#    x 3.093330 0.000000 0.000000 
#    y 0.000000 3.093330 0.000000 
#    z 0.000000 0.000000 3.162040 
# 
# 
# High freq. dielectric constant tensor:
#      x y z
#    x 1.655660 0.000000 0.000000 
#    y 0.000000 1.655660 0.000000 
#    z 0.000000 0.000000 1.658990 
# 
# From -- ./inp_files/3811.got.cif
#   From: 2010.03.12/outbox.cif.g09.slc.cpg/sg129_2_cif.got.tgz:3811.got - 2010.04.06 17:19:44.
