data_PCOD8315105
_publ_section_title
;
Structure prediction by ZEFSAII (Michael W. Deem and Ramdas Pophale) SiO2 
 PCOD8315105
Probable space group: P 4/N M M
;
_chemical_formula_sum "Si O2"
_cell_formula_units_Z 128
_cell_length_a 23.779663
_cell_length_b 23.779663
_cell_length_c 11.634624
_cell_angle_alpha 90.000000
_cell_angle_beta 90.000000
_cell_angle_gamma 90.000000
_cell_volume 6579.058435
_symmetry_space_group_name_H-M "P 4/N M M"
_symmetry_group_IT_number 129
_symmetry_cell_setting 'tetragonal'
loop_
_space_group_symop_operation_xyz
x,y,z
1/2-y,x,z
1/2-x,1/2-y,z
y,1/2-x,z
1/2+x,-y,-z
-x,1/2+y,-z
1/2+y,1/2+x,-z
-y,-x,-z
-x,-y,-z
1/2+y,-x,-z
1/2+x,1/2+y,-z
-y,1/2+x,-z
1/2-x,y,z
x,1/2-y,z
1/2-y,1/2-x,z
y,x,z
loop_
_atom_site_type_symbol
_atom_site_label
_atom_site_fract_x
_atom_site_fract_y
_atom_site_fract_z
Si Si1 0.521374 0.612628 0.666795
Si Si2 0.121493 0.572308 0.149867
Si Si3 0.186212 0.010955 0.984600
Si Si4 0.891950 0.025829 0.432298
Si Si5 0.120551 0.811070 0.412976
Si Si6 0.312184 0.815664 0.815291
Si Si7 0.002876 0.091605 0.820256
Si Si8 0.097940 0.312880 0.179269
O O1 0.550563 0.550563 0.685895
O O2 0.458672 0.619075 0.724223
O O3 0.517706 0.628128 0.531030
O O4 0.560586 0.659076 0.722579
O O5 0.148266 0.634990 0.140534
O O6 0.056399 0.578247 0.118206
O O7 0.155771 0.536279 0.059930
O O8 0.250000 0.991878 0.957973
O O9 0.153896 0.020279 0.864141
O O10 0.184861 0.068450 0.055458
O O11 0.940723 0.059278 0.500000
O O12 0.840443 0.062099 0.378830
O O13 0.914443 0.995377 0.318327
O O14 0.146100 0.853901 0.500000
O O15 0.107567 0.750000 0.467189
O O16 0.165893 0.803596 0.314406
O O17 0.250000 0.826520 0.876724
O O18 0.327449 0.750000 0.822252
O O19 0.047230 0.047230 0.870813
O O20 0.108966 0.250000 0.220170
O O21 0.157601 0.342400 0.166472
#
# Coordination Sequence:
#
# PCOD8315105 Si02
#       8
#    16  16  16  16  16  16  16  16
#     4  10  20  34  55  82 117 153 187 234 290 351
#     4  11  20  37  58  83 111 146 194 240 292 346
#     4  10  23  40  59  82 113 152 190 234 290 352
#     4  11  21  36  54  81 116 154 193 238 294 352
#     4  10  19  31  47  72 105 145 192 240 285 333
#     4  10  20  34  53  77 107 144 189 239 285 331
#     4  12  24  37  59  88 119 153 194 244 298 354
#     4   9  19  37  60  87 117 148 186 234 289 351
#
# _framework density 19.455670000000001
#
# number of rings (size 3 to 8) (size 9 to 14) (size 15 to 20)
#    0.000    1.625    2.500    3.000    0.000    5.250 
#    0.000    0.000    0.000    0.000    0.000    1.750 
#    0.000    0.000    0.000    4.125    0.000    0.000 
#
# Total GULP energy -1585826.919982 kJ/mol
# GULP energy per Si atom -12389.272812 kJ/mol
# Density = 1.941139 g / cm^3
# Si number density = 19.455670 Si / 1000 Ang^3
#
#
#
# Elastic Constant Matrix: (Units=GPa)
#
#
# Indices 1 2 3 4 5 6 
#
# 1 117.5594 58.6568 34.0713 0.0000 0.0000 0.0000
# 2 58.6568 117.5618 34.0704 0.0000 0.0000 0.0000
# 3 34.0713 34.0704 75.6497 0.0000 0.0000 0.0000
# 4 0.0000 0.0000 0.0000 15.9357 0.0000 0.0000
# 5 0.0000 0.0000 0.0000 0.0000 15.9357 0.0000
# 6 0.0000 0.0000 0.0000 0.0000 0.0000 27.5820
#
#
#
# Elastic Compliance Matrix: (Units=1/GPa)
#
#
# Indices 1 2 3 4 5 6 
#
# 1 0.011924 -0.005053 -0.003095 0.000000 0.000000 0.000000
# 2 -0.005053 0.011924 -0.003095 0.000000 0.000000 0.000000
# 3 -0.003095 -0.003095 0.016006 0.000000 0.000000 0.000000
# 4 0.000000 0.000000 0.000000 0.062752 0.000000 0.000000
# 5 0.000000 0.000000 0.000000 0.000000 0.062752 0.000000
# 6 0.000000 0.000000 0.000000 0.000000 0.000000 0.036256
#
#
# Mechanical properties :
#
#
# Convention : Reuss Voigt Hill
#
# Bulk Modulus (GPa) = 57.56916 62.70754 60.13835
# Shear Modulus (GPa) = 21.74961 24.15550 22.95256
#
# Velocity S-wave (km/s) = 3.34714 3.52741 3.43846
# Velocity P-wave (km/s) = 6.67772 6.99222 6.83678
#
# Compressibility (1/GPa) = 0.01737041
#
# Stress axis : x y z
#
# Youngs Moduli (GPa) = 83.86183 83.86451 62.47476
#
# Poissons Ratio (x) = 0.42374 0.19336
# Poissons Ratio (y) = 0.42372 0.19333
# Poissons Ratio (z) = 0.25955 0.25953
#
# Static dielectric constant tensor:
#      x y z
#    x 3.727100 0.000000 0.000000 
#    y 0.000000 3.727100 0.000000 
#    z 0.000000 0.000000 3.574670 
# 
# 
# High freq. dielectric constant tensor:
#      x y z
#    x 1.753400 0.000000 0.000000 
#    y 0.000000 1.753400 0.000000 
#    z 0.000000 0.000000 1.750970 
# 
# From -- ./inp_files/4239.got.cif
#   From: 2010.03.12/outbox.cif.g09.slc.cpg/sg129_3_cif.got.tgz:4239.got - 2010.04.06 17:19:44.
