data_PCOD8315504
_publ_section_title
;
Structure prediction by ZEFSAII (Michael W. Deem and Ramdas Pophale) SiO2 
 PCOD8315504
Probable space group: P 4/N C C
;
_chemical_formula_sum "Si O2"
_cell_formula_units_Z 84
_cell_length_a 15.956770
_cell_length_b 15.956770
_cell_length_c 16.791187
_cell_angle_alpha 90.000000
_cell_angle_beta 90.000000
_cell_angle_gamma 90.000000
_cell_volume 4275.346995
_symmetry_space_group_name_H-M "P 4/N C C"
_symmetry_group_IT_number 130
_symmetry_cell_setting 'tetragonal'
loop_
_space_group_symop_operation_xyz
x,y,z
1/2-y,x,z
1/2-x,1/2-y,z
y,1/2-x,z
1/2+x,-y,1/2-z
-x,1/2+y,1/2-z
1/2+y,1/2+x,1/2-z
-y,-x,1/2-z
-x,-y,-z
1/2+y,-x,-z
1/2+x,1/2+y,-z
-y,1/2+x,-z
1/2-x,y,1/2+z
x,1/2-y,1/2+z
1/2-y,1/2-x,1/2+z
y,x,1/2+z
loop_
_atom_site_type_symbol
_atom_site_label
_atom_site_fract_x
_atom_site_fract_y
_atom_site_fract_z
Si Si1 0.473953 0.169179 0.609975
Si Si2 0.750000 0.250000 0.000000
Si Si3 0.659603 0.850457 0.624114
Si Si4 0.440073 0.157041 0.036429
Si Si5 0.000267 0.624952 0.219861
Si Si6 0.148499 0.603265 0.433324
O O1 0.430752 0.252259 0.576091
O O2 0.413587 0.087522 0.600280
O O3 0.491731 0.185332 0.703690
O O4 0.560234 0.151209 0.564023
O O5 0.722348 0.329256 0.053671
O O6 0.632386 0.756898 0.643452
O O7 0.644132 0.871221 0.532377
O O8 0.605634 0.910156 0.681250
O O9 0.534163 0.145241 0.003572
O O10 0.036628 0.536628 0.250000
O O11 0.060295 0.666147 0.152467
#
# Coordination Sequence:
#
# PCOD8315504 Si02
#       6
#    16   4  16  16  16  16
#     4  11  22  38  60  90 130 164 208 261 319 376
#     4  12  20  40  78  96 112 168 222 272 324 372
#     4  10  20  36  58  88 122 162 208 261 313 374
#     4  11  21  37  64  91 124 165 213 257 313 384
#     4   9  22  41  58  84 130 166 200 262 319 372
#     4  10  22  42  65  92 124 161 215 269 318 378
#
# _framework density 19.647528000000001
#
# number of rings (size 3 to 8) (size 9 to 14) (size 15 to 20)
#    0.000    1.714    3.810    0.571    2.667    0.381 
#    0.000    4.286    0.000    0.000    0.000    0.000 
#    0.000    0.000    0.000    0.000    0.000    0.000 
#
# Total GULP energy -1041511.961177 kJ/mol
# GULP energy per Si atom -12398.951919 kJ/mol
# Density = 1.960281 g / cm^3
# Si number density = 19.647528 Si / 1000 Ang^3
#
#
#
# Elastic Constant Matrix: (Units=GPa)
#
#
# Indices 1 2 3 4 5 6 
#
# 1 83.3664 24.7759 37.7340 0.0000 0.0000 0.0000
# 2 24.7759 83.3664 37.7340 0.0000 0.0000 0.0000
# 3 37.7340 37.7340 94.6605 0.0000 0.0000 0.0000
# 4 0.0000 0.0000 0.0000 21.5373 0.0000 0.0000
# 5 0.0000 0.0000 0.0000 0.0000 21.5373 0.0000
# 6 0.0000 0.0000 0.0000 0.0000 0.0000 26.0834
#
#
#
# Elastic Compliance Matrix: (Units=1/GPa)
#
#
# Indices 1 2 3 4 5 6 
#
# 1 0.014939 -0.002128 -0.005107 0.000000 0.000000 0.000000
# 2 -0.002128 0.014939 -0.005107 0.000000 0.000000 0.000000
# 3 -0.005107 -0.005107 0.014635 0.000000 0.000000 0.000000
# 4 0.000000 0.000000 0.000000 0.046431 0.000000 0.000000
# 5 0.000000 0.000000 0.000000 0.000000 0.046431 0.000000
# 6 0.000000 0.000000 0.000000 0.000000 0.000000 0.038339
#
#
# Mechanical properties :
#
#
# Convention : Reuss Voigt Hill
#
# Bulk Modulus (GPa) = 50.42811 51.32012 50.87411
# Shear Modulus (GPa) = 24.15361 24.57489 24.36425
#
# Velocity S-wave (km/s) = 3.51001 3.54048 3.52528
# Velocity P-wave (km/s) = 6.49222 6.54908 6.52071
#
# Compressibility (1/GPa) = 0.01983021
#
# Stress axis : x y z
#
# Youngs Moduli (GPa) = 66.93793 66.93793 68.32750
#
# Poissons Ratio (x) = 0.14247 0.34893
# Poissons Ratio (y) = 0.14247 0.34893
# Poissons Ratio (z) = 0.34183 0.34183
#
# Static dielectric constant tensor:
#      x y z
#    x 3.511650 0.000000 0.000000 
#    y 0.000000 3.511650 0.000000 
#    z 0.000000 0.000000 3.675030 
# 
# 
# High freq. dielectric constant tensor:
#      x y z
#    x 1.760910 0.000000 0.000000 
#    y 0.000000 1.760910 0.000000 
#    z 0.000000 0.000000 1.766250 
# 
# From -- ./inp_files/3020.got.cif
#   From: 2010.03.12/outbox.cif.g09.slc.cpg/sg130_2_cif.got.tgz:3020.got - 2010.04.06 17:30:23.
