data_PCOD8315306
_publ_section_title
;
Structure prediction by ZEFSAII (Michael W. Deem and Ramdas Pophale) SiO2 
 PCOD8315306
Probable space group: P 4/N M M
;
_chemical_formula_sum "Si O2"
_cell_formula_units_Z 72
_cell_length_a 13.829029
_cell_length_b 13.829029
_cell_length_c 23.170424
_cell_angle_alpha 90.000000
_cell_angle_beta 90.000000
_cell_angle_gamma 90.000000
_cell_volume 4431.159225
_symmetry_space_group_name_H-M "P 4/N M M"
_symmetry_group_IT_number 129
_symmetry_cell_setting 'tetragonal'
loop_
_space_group_symop_operation_xyz
x,y,z
1/2-y,x,z
1/2-x,1/2-y,z
y,1/2-x,z
1/2+x,-y,-z
-x,1/2+y,-z
1/2+y,1/2+x,-z
-y,-x,-z
-x,-y,-z
1/2+y,-x,-z
1/2+x,1/2+y,-z
-y,1/2+x,-z
1/2-x,y,z
x,1/2-y,z
1/2-y,1/2-x,z
y,x,z
loop_
_atom_site_type_symbol
_atom_site_label
_atom_site_fract_x
_atom_site_fract_y
_atom_site_fract_z
Si Si1 0.023624 0.634654 0.547850
Si Si2 0.138948 0.984646 0.106085
Si Si3 0.642943 0.364092 0.340838
Si Si4 0.138164 0.638164 0.000000
Si Si5 0.638367 0.018660 0.765063
O O1 0.100269 0.600269 0.500000
O O2 0.005759 0.750000 0.542662
O O3 0.070683 0.603792 0.608622
O O4 0.921160 0.578841 0.541075
O O5 0.250000 0.006847 0.094408
O O6 0.123114 0.939815 0.170078
O O7 0.097432 0.912048 0.057823
O O8 0.086658 0.086658 0.100555
O O9 0.750000 0.410700 0.348627
O O10 0.653796 0.250000 0.341850
O O11 0.599894 0.398637 0.279480
O O12 0.116358 0.750000 0.008412
O O13 0.750000 0.992317 0.753470
O O14 0.579800 0.920201 0.755405
#
# Coordination Sequence:
#
# PCOD8315306 Si02
#       5
#    16  16  16   8  16
#     4  10  20  33  50  72  97 126 160 196 235 280
#     4   9  17  28  42  60  83 111 141 175 215 260
#     4   9  17  29  45  64  87 116 148 182 220 262
#     4   9  17  28  42  60  81 107 140 176 216 261
#     4   9  17  28  42  62  87 114 144 177 216 263
#
# _framework density 16.248570000000001
#
# number of rings (size 3 to 8) (size 9 to 14) (size 15 to 20)
#    0.000    2.778    0.000    1.667    0.000    2.667 
#    0.000    6.667    0.000    4.000    0.000    0.000 
#    0.000    4.000    0.000   16.444    0.000    1.778 
#
# Total GULP energy -892455.212090 kJ/mol
# GULP energy per Si atom -12395.211279 kJ/mol
# Density = 1.621159 g / cm^3
# Si number density = 16.248570 Si / 1000 Ang^3
#
#
#
# Elastic Constant Matrix: (Units=GPa)
#
#
# Indices 1 2 3 4 5 6 
#
# 1 69.9893 37.5827 46.3350 0.0000 0.0000 0.0000
# 2 37.5827 69.9893 46.3350 0.0000 0.0000 0.0000
# 3 46.3350 46.3350 129.3347 0.0000 0.0000 0.0000
# 4 0.0000 0.0000 0.0000 25.1785 0.0000 0.0000
# 5 0.0000 0.0000 0.0000 0.0000 25.1785 0.0000
# 6 0.0000 0.0000 0.0000 0.0000 0.0000 17.0552
#
#
#
# Elastic Compliance Matrix: (Units=1/GPa)
#
#
# Indices 1 2 3 4 5 6 
#
# 1 0.022152 -0.008706 -0.004817 0.000000 0.000000 0.000000
# 2 -0.008706 0.022152 -0.004817 0.000000 0.000000 0.000000
# 3 -0.004817 -0.004817 0.011183 0.000000 0.000000 0.000000
# 4 0.000000 0.000000 0.000000 0.039716 0.000000 0.000000
# 5 0.000000 0.000000 0.000000 0.000000 0.039716 0.000000
# 6 0.000000 0.000000 0.000000 0.000000 0.000000 0.058633
#
#
# Mechanical properties :
#
#
# Convention : Reuss Voigt Hill
#
# Bulk Modulus (GPa) = 53.17223 58.86876 56.02049
# Shear Modulus (GPa) = 21.14145 22.75316 21.94730
#
# Velocity S-wave (km/s) = 3.61103 3.74614 3.67920
# Velocity P-wave (km/s) = 7.08388 7.41756 7.25264
#
# Compressibility (1/GPa) = 0.01880681
#
# Stress axis : x y z
#
# Youngs Moduli (GPa) = 45.14295 45.14295 89.41845
#
# Poissons Ratio (x) = 0.39301 0.43073
# Poissons Ratio (y) = 0.39301 0.43073
# Poissons Ratio (z) = 0.21746 0.21746
#
# Static dielectric constant tensor:
#      x y z
#    x 2.956820 0.000000 0.000000 
#    y 0.000000 2.956820 0.000000 
#    z 0.000000 0.000000 3.460820 
# 
# 
# High freq. dielectric constant tensor:
#      x y z
#    x 1.605390 0.000000 0.000000 
#    y 0.000000 1.605390 0.000000 
#    z 0.000000 0.000000 1.645500 
# 
# From -- ./inp_files/6311.got.cif
#   From: 2010.03.12/outbox.cif.g09.slc.cpg/sg129_4_cif.got.tgz:6311.got - 2010.04.06 17:19:44.
