data_PCOD8315183
_publ_section_title
;
Structure prediction by ZEFSAII (Michael W. Deem and Ramdas Pophale) SiO2 
 PCOD8315183
Probable space group: P 4/N M M
;
_chemical_formula_sum "Si O2"
_cell_formula_units_Z 96
_cell_length_a 24.046840
_cell_length_b 24.046840
_cell_length_c 9.645829
_cell_angle_alpha 90.000000
_cell_angle_beta 90.000000
_cell_angle_gamma 90.000000
_cell_volume 5577.705577
_symmetry_space_group_name_H-M "P 4/N M M"
_symmetry_group_IT_number 129
_symmetry_cell_setting 'tetragonal'
loop_
_space_group_symop_operation_xyz
x,y,z
1/2-y,x,z
1/2-x,1/2-y,z
y,1/2-x,z
1/2+x,-y,-z
-x,1/2+y,-z
1/2+y,1/2+x,-z
-y,-x,-z
-x,-y,-z
1/2+y,-x,-z
1/2+x,1/2+y,-z
-y,1/2+x,-z
1/2-x,y,z
x,1/2-y,z
1/2-y,1/2-x,z
y,x,z
loop_
_atom_site_type_symbol
_atom_site_label
_atom_site_fract_x
_atom_site_fract_y
_atom_site_fract_z
Si Si1 0.485528 0.394540 0.228623
Si Si2 0.586336 0.110737 0.846933
Si Si3 0.537245 0.625015 0.075674
Si Si4 0.313063 0.097696 0.703094
Si Si5 0.684544 0.384922 0.399293
Si Si6 0.686201 0.995902 0.521933
O O1 0.449541 0.449541 0.259489
O O2 0.549374 0.412150 0.216575
O O3 0.476879 0.350814 0.350124
O O4 0.465814 0.364027 0.088324
O O5 0.522488 0.128674 0.853592
O O6 0.619584 0.153424 0.748758
O O7 0.613439 0.113439 0.000000
O O8 0.563897 0.563897 0.103105
O O9 0.576419 0.672058 0.142634
O O10 0.250000 0.118183 0.700557
O O11 0.350293 0.149708 0.657387
O O12 0.324505 0.047144 0.600249
O O13 0.664423 0.335578 0.500000
O O14 0.750000 0.378824 0.372657
O O15 0.668612 0.443219 0.470133
O O16 0.750000 0.995954 0.570622
#
# Coordination Sequence:
#
# PCOD8315183 Si02
#       6
#    16  16  16  16  16  16
#     4  10  19  32  52  80 112 140 173 216 265 319
#     4  10  19  34  54  80 111 139 172 212 262 318
#     4   9  18  31  49  75 109 144 172 209 266 320
#     4  10  20  34  52  75 105 143 184 224 267 313
#     4  11  22  39  58  79 106 138 177 219 265 316
#     4  10  20  34  52  77 107 137 175 221 265 316
#
# _framework density 17.211379000000001
#
# number of rings (size 3 to 8) (size 9 to 14) (size 15 to 20)
#    0.000    2.000    3.333    1.000    0.000    3.000 
#    0.000    4.167    0.000    0.000    0.000    0.000 
#    0.000    4.000    0.000    0.000    0.000    0.000 
#
# Total GULP energy -1190526.615489 kJ/mol
# GULP energy per Si atom -12401.318911 kJ/mol
# Density = 1.717220 g / cm^3
# Si number density = 17.211379 Si / 1000 Ang^3
#
#
#
# Elastic Constant Matrix: (Units=GPa)
#
#
# Indices 1 2 3 4 5 6 
#
# 1 87.6734 39.8641 47.9873 0.0000 0.0000 0.0000
# 2 39.8641 87.6754 47.9877 0.0000 0.0000 0.0000
# 3 47.9873 47.9877 100.1531 0.0000 0.0000 0.0000
# 4 0.0000 0.0000 0.0000 22.6233 0.0000 0.0000
# 5 0.0000 0.0000 0.0000 0.0000 22.6228 0.0000
# 6 0.0000 0.0000 0.0000 0.0000 0.0000 22.5279
#
#
#
# Elastic Compliance Matrix: (Units=1/GPa)
#
#
# Indices 1 2 3 4 5 6 
#
# 1 0.016589 -0.004327 -0.005875 0.000000 0.000000 0.000000
# 2 -0.004327 0.016589 -0.005875 0.000000 0.000000 0.000000
# 3 -0.005875 -0.005875 0.015615 0.000000 0.000000 0.000000
# 4 0.000000 0.000000 0.000000 0.044202 0.000000 0.000000
# 5 0.000000 0.000000 0.000000 0.000000 0.044203 0.000000
# 6 0.000000 0.000000 0.000000 0.000000 0.000000 0.044389
#
#
# Mechanical properties :
#
#
# Convention : Reuss Voigt Hill
#
# Bulk Modulus (GPa) = 60.10372 60.79780 60.45076
# Shear Modulus (GPa) = 22.80103 22.86567 22.83335
#
# Velocity S-wave (km/s) = 3.64368 3.64884 3.64626
# Velocity P-wave (km/s) = 7.25938 7.29061 7.27501
#
# Compressibility (1/GPa) = 0.01663791
#
# Stress axis : x y z
#
# Youngs Moduli (GPa) = 60.28020 60.28166 64.04170
#
# Poissons Ratio (x) = 0.26084 0.37626
# Poissons Ratio (y) = 0.26083 0.37626
# Poissons Ratio (z) = 0.35416 0.35416
#
# Static dielectric constant tensor:
#      x y z
#    x 3.121680 0.000000 0.000000 
#    y 0.000000 3.121680 0.000000 
#    z 0.000000 0.000000 3.289300 
# 
# 
# High freq. dielectric constant tensor:
#      x y z
#    x 1.656400 0.000000 0.000000 
#    y 0.000000 1.656400 0.000000 
#    z 0.000000 0.000000 1.670750 
# 
# From -- ./inp_files/2603.got.cif
#   From: 2010.03.12/outbox.cif.g09.slc.cpg/sg129_2_cif.got.tgz:2603.got - 2010.04.06 17:19:44.
