data_PCOD8315029
_publ_section_title
;
Structure prediction by ZEFSAII (Michael W. Deem and Ramdas Pophale) SiO2 
 PCOD8315029
Probable space group: P 4/N M M
;
_chemical_formula_sum "Si O2"
_cell_formula_units_Z 96
_cell_length_a 20.399785
_cell_length_b 20.399785
_cell_length_c 15.105743
_cell_angle_alpha 90.000000
_cell_angle_beta 90.000000
_cell_angle_gamma 90.000000
_cell_volume 6286.273500
_symmetry_space_group_name_H-M "P 4/N M M"
_symmetry_group_IT_number 129
_symmetry_cell_setting 'tetragonal'
loop_
_space_group_symop_operation_xyz
x,y,z
1/2-y,x,z
1/2-x,1/2-y,z
y,1/2-x,z
1/2+x,-y,-z
-x,1/2+y,-z
1/2+y,1/2+x,-z
-y,-x,-z
-x,-y,-z
1/2+y,-x,-z
1/2+x,1/2+y,-z
-y,1/2+x,-z
1/2-x,y,z
x,1/2-y,z
1/2-y,1/2-x,z
y,x,z
loop_
_atom_site_type_symbol
_atom_site_label
_atom_site_fract_x
_atom_site_fract_y
_atom_site_fract_z
Si Si1 0.932058 0.825186 0.367100
Si Si2 0.987018 0.097427 0.763305
Si Si3 0.931208 0.674961 0.568628
Si Si4 0.992885 0.102693 0.961229
Si Si5 0.114177 0.004706 0.272806
Si Si6 0.934401 0.824925 0.892757
O O1 0.913696 0.750000 0.348796
O O2 0.867133 0.867133 0.345515
O O3 0.954994 0.836240 0.468236
O O4 0.992839 0.845964 0.305447
O O5 0.982414 0.128530 0.861366
O O6 0.916016 0.068138 0.736237
O O7 0.040685 0.040685 0.759920
O O8 0.913581 0.750000 0.587356
O O9 0.865129 0.634872 0.589342
O O10 0.989434 0.651346 0.633308
O O11 0.923945 0.076056 0.000000
O O12 0.043103 0.043103 0.961217
O O13 0.021212 0.161016 0.021081
O O14 0.055047 0.055047 0.266471
O O15 0.163754 0.020151 0.193005
O O16 0.910946 0.750000 0.895435
O O17 0.869682 0.869682 0.890733
#
# Coordination Sequence:
#
# PCOD8315029 Si02
#       6
#    16  16  16  16  16  16
#     4   9  18  30  43  62  88 119 152 183 216 257
#     4   9  16  27  45  64  83 109 144 186 228 265
#     4   9  17  28  41  59  87 121 154 184 214 255
#     4   9  15  27  45  62  81 109 146 186 223 257
#     4   9  16  27  43  62  84 113 148 186 226 262
#     4  10  19  29  43  65  93 123 152 180 212 256
#
# _framework density 15.271369
#
# number of rings (size 3 to 8) (size 9 to 14) (size 15 to 20)
#    0.000    2.833    1.667    0.500    0.000    1.833 
#    0.000    5.000    0.000    3.000    0.000    4.667 
#    0.000    4.333    0.000    7.333    0.000    0.667 
#
# Total GULP energy -1190080.916325 kJ/mol
# GULP energy per Si atom -12396.676212 kJ/mol
# Density = 1.523661 g / cm^3
# Si number density = 15.271369 Si / 1000 Ang^3
#
#
#
# Elastic Constant Matrix: (Units=GPa)
#
#
# Indices 1 2 3 4 5 6 
#
# 1 57.1299 50.3642 49.0642 0.0000 0.0000 0.0000
# 2 50.3642 57.1296 49.0642 0.0000 0.0000 0.0000
# 3 49.0642 49.0642 124.9463 0.0000 0.0000 0.0000
# 4 0.0000 0.0000 0.0000 20.3344 0.0000 0.0000
# 5 0.0000 0.0000 0.0000 0.0000 20.3344 0.0000
# 6 0.0000 0.0000 0.0000 0.0000 0.0000 14.5503
#
#
#
# Elastic Compliance Matrix: (Units=1/GPa)
#
#
# Indices 1 2 3 4 5 6 
#
# 1 0.081154 -0.066653 -0.005694 0.000000 0.000000 0.000000
# 2 -0.066653 0.081155 -0.005694 0.000000 0.000000 0.000000
# 3 -0.005694 -0.005694 0.012476 0.000000 0.000000 0.000000
# 4 0.000000 0.000000 0.000000 0.049178 0.000000 0.000000
# 5 0.000000 0.000000 0.000000 0.000000 0.049178 0.000000
# 6 0.000000 0.000000 0.000000 0.000000 0.000000 0.068727
#
#
# Mechanical properties :
#
#
# Convention : Reuss Voigt Hill
#
# Bulk Modulus (GPa) = 53.47479 59.57678 56.52578
# Shear Modulus (GPa) = 9.91701 17.09138 13.50419
#
# Velocity S-wave (km/s) = 2.55107 3.34904 2.97691
# Velocity P-wave (km/s) = 6.61586 7.35197 6.99361
#
# Compressibility (1/GPa) = 0.01870040
#
# Stress axis : x y z
#
# Youngs Moduli (GPa) = 12.32222 12.32214 80.15690
#
# Poissons Ratio (x) = 0.82131 0.45643
# Poissons Ratio (y) = 0.82132 0.45644
# Poissons Ratio (z) = 0.07017 0.07017
#
# Static dielectric constant tensor:
#      x y z
#    x 2.724020 0.000000 0.000000 
#    y 0.000000 2.724020 0.000000 
#    z 0.000000 0.000000 3.235960 
# 
# 
# High freq. dielectric constant tensor:
#      x y z
#    x 1.552330 0.000000 0.000000 
#    y 0.000000 1.552330 0.000000 
#    z 0.000000 0.000000 1.604280 
# 
# From -- ./inp_files/3839.got.cif
#   From: 2010.03.12/outbox.cif.g09.slc.cpg/sg129_2_cif.got.tgz:3839.got - 2010.04.06 17:19:44.
