data_PCOD8315092
_publ_section_title
;
Structure prediction by ZEFSAII (Michael W. Deem and Ramdas Pophale) SiO2 
 PCOD8315092
Probable space group: P 4/N M M
;
_chemical_formula_sum "Si O2"
_cell_formula_units_Z 96
_cell_length_a 14.846617
_cell_length_b 14.846617
_cell_length_c 25.531630
_cell_angle_alpha 90.000000
_cell_angle_beta 90.000000
_cell_angle_gamma 90.000000
_cell_volume 5627.733876
_symmetry_space_group_name_H-M "P 4/N M M"
_symmetry_group_IT_number 129
_symmetry_cell_setting 'tetragonal'
loop_
_space_group_symop_operation_xyz
x,y,z
1/2-y,x,z
1/2-x,1/2-y,z
y,1/2-x,z
1/2+x,-y,-z
-x,1/2+y,-z
1/2+y,1/2+x,-z
-y,-x,-z
-x,-y,-z
1/2+y,-x,-z
1/2+x,1/2+y,-z
-y,1/2+x,-z
1/2-x,y,z
x,1/2-y,z
1/2-y,1/2-x,z
y,x,z
loop_
_atom_site_type_symbol
_atom_site_label
_atom_site_fract_x
_atom_site_fract_y
_atom_site_fract_z
Si Si1 0.352920 0.852547 0.772214
Si Si2 0.996878 0.646657 0.689622
Si Si3 0.142915 0.995053 0.975898
Si Si4 0.351773 0.496751 0.853620
Si Si5 0.567142 0.149703 0.423673
Si Si6 0.846587 0.512964 0.465930
O O1 0.250000 0.867922 0.754371
O O2 0.368917 0.750000 0.790472
O O3 0.414328 0.877366 0.722679
O O4 0.378959 0.914442 0.821400
O O5 0.968170 0.750000 0.697602
O O6 0.914327 0.585674 0.709322
O O7 0.015883 0.624647 0.629230
O O8 0.250000 0.001810 0.993015
O O9 0.087462 0.087462 0.991172
O O10 0.136765 0.979694 0.914170
O O11 0.092876 0.907125 0.000000
O O12 0.250000 0.466627 0.841145
O O13 0.414893 0.414893 0.835944
O O14 0.608329 0.250000 0.420123
O O15 0.497358 0.140957 0.471702
O O16 0.648563 0.081612 0.435179
O O17 0.750000 0.556278 0.454028
O O18 0.922115 0.577886 0.442770
#
# Coordination Sequence:
#
# PCOD8315092 Si02
#       6
#    16  16  16  16  16  16
#     4   9  18  31  46  66  91 119 152 188 225 265
#     4  10  19  31  48  68  91 118 147 181 221 266
#     4   9  18  31  47  70  98 127 161 199 238 281
#     4   9  17  30  48  69  94 122 152 189 231 274
#     4   9  18  32  49  67  87 113 146 185 226 262
#     4  10  19  31  47  66  91 119 145 177 216 262
#
# _framework density 17.058375000000002
#
# number of rings (size 3 to 8) (size 9 to 14) (size 15 to 20)
#    0.000    2.667    0.000    2.500    0.000    2.500 
#    0.000    6.667    0.000    3.000    0.000    0.000 
#    0.000    8.000    0.000    0.000    0.000    0.167 
#
# Total GULP energy -1189854.264477 kJ/mol
# GULP energy per Si atom -12394.315255 kJ/mol
# Density = 1.701955 g / cm^3
# Si number density = 17.058375 Si / 1000 Ang^3
#
#
#
# Elastic Constant Matrix: (Units=GPa)
#
#
# Indices 1 2 3 4 5 6 
#
# 1 112.7320 76.2031 45.8826 0.0000 0.0000 0.0000
# 2 76.2031 112.7327 45.8826 0.0000 0.0000 0.0000
# 3 45.8826 45.8826 51.7810 0.0000 0.0000 0.0000
# 4 0.0000 0.0000 0.0000 21.8016 0.0000 0.0000
# 5 0.0000 0.0000 0.0000 0.0000 21.8016 0.0000
# 6 0.0000 0.0000 0.0000 0.0000 0.0000 23.5188
#
#
#
# Elastic Compliance Matrix: (Units=1/GPa)
#
#
# Indices 1 2 3 4 5 6 
#
# 1 0.018334 -0.009042 -0.008233 0.000000 0.000000 0.000000
# 2 -0.009042 0.018333 -0.008233 0.000000 0.000000 0.000000
# 3 -0.008233 -0.008233 0.033903 0.000000 0.000000 0.000000
# 4 0.000000 0.000000 0.000000 0.045868 0.000000 0.000000
# 5 0.000000 0.000000 0.000000 0.000000 0.045868 0.000000
# 6 0.000000 0.000000 0.000000 0.000000 0.000000 0.042519
#
#
# Mechanical properties :
#
#
# Convention : Reuss Voigt Hill
#
# Bulk Modulus (GPa) = 51.14245 68.13137 59.63691
# Shear Modulus (GPa) = 19.05779 20.70954 19.88366
#
# Velocity S-wave (km/s) = 3.34610 3.48809 3.41783
# Velocity P-wave (km/s) = 6.70630 7.49994 7.11420
#
# Compressibility (1/GPa) = 0.01955323
#
# Stress axis : x y z
#
# Youngs Moduli (GPa) = 54.54468 54.54520 29.49606
#
# Poissons Ratio (x) = 0.49319 0.24285
# Poissons Ratio (y) = 0.49318 0.24285
# Poissons Ratio (z) = 0.44908 0.44908
#
# Static dielectric constant tensor:
#      x y z
#    x 3.257280 0.000000 0.000000 
#    y 0.000000 3.257280 0.000000 
#    z 0.000000 0.000000 3.067910 
# 
# 
# High freq. dielectric constant tensor:
#      x y z
#    x 1.657240 0.000000 0.000000 
#    y 0.000000 1.657240 0.000000 
#    z 0.000000 0.000000 1.642020 
# 
# From -- ./inp_files/6508.got.cif
#   From: 2010.03.12/outbox.cif.g09.slc.cpg/sg129_4_cif.got.tgz:6508.got - 2010.04.06 17:19:44.
