data_PCOD8315519
_publ_section_title
;
Structure prediction by ZEFSAII (Michael W. Deem and Ramdas Pophale) SiO2 
 PCOD8315519
Probable space group: P 4/N C C
;
_chemical_formula_sum "Si O2"
_cell_formula_units_Z 116
_cell_length_a 17.986311
_cell_length_b 17.986311
_cell_length_c 17.320073
_cell_angle_alpha 90.000000
_cell_angle_beta 90.000000
_cell_angle_gamma 90.000000
_cell_volume 5603.171496
_symmetry_space_group_name_H-M "P 4/N C C"
_symmetry_group_IT_number 130
_symmetry_cell_setting 'tetragonal'
loop_
_space_group_symop_operation_xyz
x,y,z
1/2-y,x,z
1/2-x,1/2-y,z
y,1/2-x,z
1/2+x,-y,1/2-z
-x,1/2+y,1/2-z
1/2+y,1/2+x,1/2-z
-y,-x,1/2-z
-x,-y,-z
1/2+y,-x,-z
1/2+x,1/2+y,-z
-y,1/2+x,-z
1/2-x,y,1/2+z
x,1/2-y,1/2+z
1/2-y,1/2-x,1/2+z
y,x,1/2+z
loop_
_atom_site_type_symbol
_atom_site_label
_atom_site_fract_x
_atom_site_fract_y
_atom_site_fract_z
Si Si1 0.262454 0.925100 0.273131
Si Si2 0.529784 0.888148 0.939728
Si Si3 0.653501 0.184331 0.627015
Si Si4 0.301146 0.137972 0.455971
Si Si5 0.549767 0.630110 0.679048
Si Si6 0.554620 0.061645 0.569437
Si Si7 0.383389 0.497908 0.234701
Si Si8 0.250000 0.750000 0.500000
O O1 0.280745 0.872268 0.346424
O O2 0.264055 0.873297 0.197254
O O3 0.181192 0.960282 0.282234
O O4 0.322925 0.991367 0.269920
O O5 0.505420 0.861640 0.855166
O O6 0.572258 0.967001 0.941564
O O7 0.583599 0.825432 0.974744
O O8 0.455267 0.900344 0.990416
O O9 0.581335 0.139540 0.601700
O O10 0.680274 0.233266 0.555204
O O11 0.347693 0.213728 0.462606
O O12 0.315538 0.098683 0.373936
O O13 0.506534 0.569416 0.627668
O O14 0.605526 0.586233 0.735603
O O15 0.459854 0.540147 0.250000
#
# Coordination Sequence:
#
# PCOD8315519 Si02
#       8
#    16  16  16  16  16  16  16   4
#     4  10  24  41  67  92 128 171 209 275 327 379
#     4  10  21  36  61  94 123 157 208 267 324 363
#     4  10  24  43  62  84 131 175 219 255 324 389
#     4  10  22  41  63  90 131 172 208 254 320 399
#     4  10  20  42  66  92 122 165 212 263 330 377
#     4   9  19  40  60  87 117 161 207 268 308 373
#     4  12  24  36  66  98 128 159 217 270 319 388
#     4  12  28  42  60  92 124 186 212 256 312 402
#
# _framework density 20.702562
#
# number of rings (size 3 to 8) (size 9 to 14) (size 15 to 20)
#    0.000    1.793    1.379    1.655    5.793    2.759 
#    4.966    0.000    0.000    1.655    0.000    0.000 
#    0.000    0.000    0.000    0.000    0.000    0.000 
#
# Total GULP energy -1438681.764016 kJ/mol
# GULP energy per Si atom -12402.429000 kJ/mol
# Density = 2.065544 g / cm^3
# Si number density = 20.702562 Si / 1000 Ang^3
#
#
#
# Elastic Constant Matrix: (Units=GPa)
#
#
# Indices 1 2 3 4 5 6 
#
# 1 59.1061 10.0043 16.9602 0.0000 0.0000 0.0000
# 2 10.0043 59.1071 16.9600 0.0000 0.0000 0.0000
# 3 16.9602 16.9600 98.8255 0.0000 0.0000 0.0000
# 4 0.0000 0.0000 0.0000 28.9736 0.0000 0.0000
# 5 0.0000 0.0000 0.0000 0.0000 28.9735 0.0000
# 6 0.0000 0.0000 0.0000 0.0000 0.0000 28.1513
#
#
#
# Elastic Compliance Matrix: (Units=1/GPa)
#
#
# Indices 1 2 3 4 5 6 
#
# 1 0.018083 -0.002283 -0.002712 0.000000 0.000000 0.000000
# 2 -0.002283 0.018083 -0.002712 0.000000 0.000000 0.000000
# 3 -0.002712 -0.002712 0.011050 0.000000 0.000000 0.000000
# 4 0.000000 0.000000 0.000000 0.034514 0.000000 0.000000
# 5 0.000000 0.000000 0.000000 0.000000 0.034514 0.000000
# 6 0.000000 0.000000 0.000000 0.000000 0.000000 0.035522
#
#
# Mechanical properties :
#
#
# Convention : Reuss Voigt Hill
#
# Bulk Modulus (GPa) = 31.44269 33.87640 32.65955
# Shear Modulus (GPa) = 28.12475 28.76063 28.44269
#
# Velocity S-wave (km/s) = 3.68980 3.73128 3.71060
# Velocity P-wave (km/s) = 5.77699 5.91288 5.84533
#
# Compressibility (1/GPa) = 0.03180389
#
# Stress axis : x y z
#
# Youngs Moduli (GPa) = 55.30000 55.30103 90.50134
#
# Poissons Ratio (x) = 0.12623 0.24541
# Poissons Ratio (y) = 0.12623 0.24540
# Poissons Ratio (z) = 0.14995 0.14995
#
# Static dielectric constant tensor:
#      x y z
#    x 3.590010 0.000000 0.000000 
#    y 0.000000 3.590010 0.000000 
#    z 0.000000 0.000000 3.838680 
# 
# 
# High freq. dielectric constant tensor:
#      x y z
#    x 1.803930 0.000000 0.000000 
#    y 0.000000 1.803930 0.000000 
#    z 0.000000 0.000000 1.812600 
# 
# From -- ./inp_files/3199.got.cif
#   From: 2010.03.12/outbox.cif.g09.slc.cpg/sg130_2_cif.got.tgz:3199.got - 2010.04.06 17:30:23.
