data_PCOD8315260
_publ_section_title
;
Structure prediction by ZEFSAII (Michael W. Deem and Ramdas Pophale) SiO2 
 PCOD8315260
Probable space group: P 4/N M M
;
_chemical_formula_sum "Si O2"
_cell_formula_units_Z 128
_cell_length_a 18.180387
_cell_length_b 18.180387
_cell_length_c 23.192650
_cell_angle_alpha 90.000000
_cell_angle_beta 90.000000
_cell_angle_gamma 90.000000
_cell_volume 7665.784769
_symmetry_space_group_name_H-M "P 4/N M M"
_symmetry_group_IT_number 129
_symmetry_cell_setting 'tetragonal'
loop_
_space_group_symop_operation_xyz
x,y,z
1/2-y,x,z
1/2-x,1/2-y,z
y,1/2-x,z
1/2+x,-y,-z
-x,1/2+y,-z
1/2+y,1/2+x,-z
-y,-x,-z
-x,-y,-z
1/2+y,-x,-z
1/2+x,1/2+y,-z
-y,1/2+x,-z
1/2-x,y,z
x,1/2-y,z
1/2-y,1/2-x,z
y,x,z
loop_
_atom_site_type_symbol
_atom_site_label
_atom_site_fract_x
_atom_site_fract_y
_atom_site_fract_z
Si Si1 0.060226 0.665857 0.531450
Si Si2 0.049321 0.833610 0.072284
Si Si3 0.165484 0.935477 0.130234
Si Si4 0.061704 0.558848 0.235665
Si Si5 0.334134 0.452386 0.818533
Si Si6 0.438913 0.939607 0.633614
Si Si7 0.333746 0.045538 0.033473
Si Si8 0.044740 0.334816 0.571570
O O1 0.128981 0.628981 0.500000
O O2 0.080812 0.750000 0.540837
O O3 0.047214 0.630705 0.593805
O O4 0.986913 0.656052 0.493055
O O5 0.076072 0.750000 0.067991
O O6 0.120957 0.877961 0.091381
O O7 0.982661 0.843015 0.117021
O O8 0.017414 0.861224 0.011096
O O9 0.250000 0.909157 0.135275
O O10 0.132162 0.942752 0.194068
O O11 0.160337 0.013968 0.098205
O O12 0.089548 0.565472 0.301087
O O13 0.014975 0.485026 0.224716
O O14 0.010927 0.629716 0.224708
O O15 0.250000 0.441312 0.800210
O O16 0.373786 0.373786 0.814233
O O17 0.507522 0.992479 0.624350
O O18 0.365226 0.984271 0.616685
O O19 0.250000 0.067588 0.018322
O O20 0.381844 0.118157 0.027958
O O21 0.060403 0.250000 0.586742
O O22 0.121017 0.378984 0.576256
#
# Coordination Sequence:
#
# PCOD8315260 Si02
#       8
#    16  16  16  16  16  16  16  16
#     4   9  17  29  46  68  93 120 150 186 227 270
#     4   9  18  32  48  67  92 121 152 186 227 274
#     4  10  20  32  48  71  95 120 153 191 229 272
#     4   9  18  32  48  65  89 122 155 189 230 271
#     4   9  17  29  45  65  89 117 150 188 229 274
#     4   9  17  30  48  67  88 119 157 191 225 267
#     4  10  20  33  50  72  96 122 153 188 228 276
#     4   9  17  29  46  69  96 123 151 184 222 266
#
# _framework density 16.697572999999998
#
# number of rings (size 3 to 8) (size 9 to 14) (size 15 to 20)
#    0.000    2.750    0.000    1.500    0.000    5.250 
#    0.000    0.000    0.000    4.500    0.000   10.500 
#    0.000    0.000    0.000   23.250    0.000    0.000 
#
# Total GULP energy -1587140.662415 kJ/mol
# GULP energy per Si atom -12399.536425 kJ/mol
# Density = 1.665957 g / cm^3
# Si number density = 16.697573 Si / 1000 Ang^3
#
#
#
# Elastic Constant Matrix: (Units=GPa)
#
#
# Indices 1 2 3 4 5 6 
#
# 1 97.3040 46.3732 42.9477 0.0000 0.0000 0.0000
# 2 46.3732 97.3040 42.9477 0.0000 0.0000 0.0000
# 3 42.9477 42.9477 108.3566 0.0000 0.0000 0.0000
# 4 0.0000 0.0000 0.0000 19.3795 0.0000 0.0000
# 5 0.0000 0.0000 0.0000 0.0000 19.3795 0.0000
# 6 0.0000 0.0000 0.0000 0.0000 0.0000 20.1346
#
#
#
# Elastic Compliance Matrix: (Units=1/GPa)
#
#
# Indices 1 2 3 4 5 6 
#
# 1 0.014378 -0.005257 -0.003615 0.000000 0.000000 0.000000
# 2 -0.005257 0.014378 -0.003615 0.000000 0.000000 0.000000
# 3 -0.003615 -0.003615 0.012095 0.000000 0.000000 0.000000
# 4 0.000000 0.000000 0.000000 0.051601 0.000000 0.000000
# 5 0.000000 0.000000 0.000000 0.000000 0.051601 0.000000
# 6 0.000000 0.000000 0.000000 0.000000 0.000000 0.049666
#
#
# Mechanical properties :
#
#
# Convention : Reuss Voigt Hill
#
# Bulk Modulus (GPa) = 62.98721 63.05575 63.02148
# Shear Modulus (GPa) = 22.32295 23.15844 22.74069
#
# Velocity S-wave (km/s) = 3.66033 3.72820 3.69442
# Velocity P-wave (km/s) = 7.46112 7.50853 7.48486
#
# Compressibility (1/GPa) = 0.01587624
#
# Stress axis : x y z
#
# Youngs Moduli (GPa) = 69.55099 69.55099 82.68093
#
# Poissons Ratio (x) = 0.36560 0.29892
# Poissons Ratio (y) = 0.36560 0.29892
# Poissons Ratio (z) = 0.25145 0.25145
#
# Static dielectric constant tensor:
#      x y z
#    x 3.042810 0.000000 0.000000 
#    y 0.000000 3.042810 0.000000 
#    z 0.000000 0.000000 3.198960 
# 
# 
# High freq. dielectric constant tensor:
#      x y z
#    x 1.634510 0.000000 0.000000 
#    y 0.000000 1.634510 0.000000 
#    z 0.000000 0.000000 1.644290 
# 
# From -- ./inp_files/7279.got.cif
#   From: 2010.03.12/outbox.cif.g09.slc.cpg/sg129_4_cif.got.tgz:7279.got - 2010.04.06 17:19:44.
