data_PCOD8315159
_publ_section_title
;
Structure prediction by ZEFSAII (Michael W. Deem and Ramdas Pophale) SiO2 
 PCOD8315159
Probable space group: P 4/N M M
;
_chemical_formula_sum "Si O2"
_cell_formula_units_Z 128
_cell_length_a 17.651650
_cell_length_b 17.651650
_cell_length_c 25.466453
_cell_angle_alpha 90.000000
_cell_angle_beta 90.000000
_cell_angle_gamma 90.000000
_cell_volume 7934.856468
_symmetry_space_group_name_H-M "P 4/N M M"
_symmetry_group_IT_number 129
_symmetry_cell_setting 'tetragonal'
loop_
_space_group_symop_operation_xyz
x,y,z
1/2-y,x,z
1/2-x,1/2-y,z
y,1/2-x,z
1/2+x,-y,-z
-x,1/2+y,-z
1/2+y,1/2+x,-z
-y,-x,-z
-x,-y,-z
1/2+y,-x,-z
1/2+x,1/2+y,-z
-y,1/2+x,-z
1/2-x,y,z
x,1/2-y,z
1/2-y,1/2-x,z
y,x,z
loop_
_atom_site_type_symbol
_atom_site_label
_atom_site_fract_x
_atom_site_fract_y
_atom_site_fract_z
Si Si1 0.554207 0.070171 0.171457
Si Si2 0.918707 0.461399 0.708191
Si Si3 0.335703 0.595410 0.451147
Si Si4 0.459611 0.163538 0.099397
Si Si5 0.663336 0.544989 0.621370
Si Si6 0.163751 0.961362 0.991874
Si Si7 0.164629 0.664893 0.345527
Si Si8 0.338997 0.036304 0.881250
O O1 0.548008 0.099956 0.230752
O O2 0.533671 0.140503 0.133744
O O3 0.493930 0.006071 0.158291
O O4 0.635537 0.031592 0.158554
O O5 0.860340 0.518345 0.679813
O O6 0.904385 0.379673 0.682135
O O7 0.004590 0.495410 0.700643
O O8 0.391630 0.608371 0.500000
O O9 0.250000 0.593558 0.472695
O O10 0.357152 0.517990 0.421807
O O11 0.345612 0.662182 0.408402
O O12 0.439039 0.250000 0.112263
O O13 0.386457 0.113544 0.114159
O O14 0.479175 0.152159 0.038586
O O15 0.750000 0.566422 0.621992
O O16 0.619847 0.619847 0.604119
O O17 0.250000 0.931366 0.989944
O O18 0.110877 0.889124 0.000000
O O19 0.142920 0.006795 0.939460
O O20 0.250000 0.632170 0.332356
O O21 0.158405 0.750000 0.325374
O O22 0.250000 0.053191 0.872340
O O23 0.386038 0.113963 0.871211
#
# Coordination Sequence:
#
# PCOD8315159 Si02
#       8
#    16  16  16  16  16  16  16  16
#     4   9  18  32  50  68  88 119 157 190 222 271
#     4   9  17  30  47  66  88 116 150 190 230 265
#     4   9  16  26  42  65  92 120 151 189 228 271
#     4  10  20  32  48  70  92 118 151 186 228 274
#     4   9  18  31  46  66  92 123 158 194 233 275
#     4  10  19  32  51  72  95 124 154 189 229 273
#     4   9  17  28  43  65  92 122 151 180 226 283
#     4  10  20  33  51  74  97 122 153 188 228 275
#
# _framework density 16.131356
#
# number of rings (size 3 to 8) (size 9 to 14) (size 15 to 20)
#    0.000    2.625    1.250    1.875    0.000    3.375 
#    0.000    0.000    0.000    2.625    0.000    3.500 
#    0.000    0.250    0.000    0.000    0.000    6.250 
#
# Total GULP energy -1586332.393775 kJ/mol
# GULP energy per Si atom -12393.221826 kJ/mol
# Density = 1.609464 g / cm^3
# Si number density = 16.131356 Si / 1000 Ang^3
#
#
#
# Elastic Constant Matrix: (Units=GPa)
#
#
# Indices 1 2 3 4 5 6 
#
# 1 86.5660 58.7932 38.6990 0.0000 0.0000 0.0000
# 2 58.7932 86.5670 38.6984 0.0000 0.0000 0.0000
# 3 38.6990 38.6984 97.1181 0.0000 0.0000 0.0000
# 4 0.0000 0.0000 0.0000 15.0159 0.0000 0.0000
# 5 0.0000 0.0000 0.0000 0.0000 15.0157 0.0000
# 6 0.0000 0.0000 0.0000 0.0000 0.0000 26.1985
#
#
#
# Elastic Compliance Matrix: (Units=1/GPa)
#
#
# Indices 1 2 3 4 5 6 
#
# 1 0.022369 -0.013637 -0.003480 0.000000 0.000000 0.000000
# 2 -0.013637 0.022369 -0.003479 0.000000 0.000000 0.000000
# 3 -0.003480 -0.003479 0.013070 0.000000 0.000000 0.000000
# 4 0.000000 0.000000 0.000000 0.066596 0.000000 0.000000
# 5 0.000000 0.000000 0.000000 0.000000 0.066597 0.000000
# 6 0.000000 0.000000 0.000000 0.000000 0.000000 0.038170
#
#
# Mechanical properties :
#
#
# Convention : Reuss Voigt Hill
#
# Bulk Modulus (GPa) = 60.18297 60.29247 60.23772
# Shear Modulus (GPa) = 18.12244 20.18339 19.15292
#
# Velocity S-wave (km/s) = 3.35540 3.54105 3.44947
# Velocity P-wave (km/s) = 7.23883 7.36042 7.29988
#
# Compressibility (1/GPa) = 0.01661600
#
# Stress axis : x y z
#
# Youngs Moduli (GPa) = 44.70430 44.70525 76.51281
#
# Poissons Ratio (x) = 0.60964 0.26624
# Poissons Ratio (y) = 0.60962 0.26621
# Poissons Ratio (z) = 0.15556 0.15554
#
# Static dielectric constant tensor:
#      x y z
#    x 3.013380 0.000000 0.000000 
#    y 0.000000 3.013380 0.000000 
#    z 0.000000 0.000000 2.995120 
# 
# 
# High freq. dielectric constant tensor:
#      x y z
#    x 1.609950 0.000000 0.000000 
#    y 0.000000 1.609950 0.000000 
#    z 0.000000 0.000000 1.615570 
# 
# From -- ./inp_files/7331.got.cif
#   From: 2010.03.12/outbox.cif.g09.slc.cpg/sg129_4_cif.got.tgz:7331.got - 2010.04.06 17:19:44.
