data_PCOD8315886
_publ_section_title
;
Structure prediction by ZEFSAII (Michael W. Deem and Ramdas Pophale) SiO2 
 PCOD8315886
Probable space group: P 42/M M C
;
_chemical_formula_sum "Si O2"
_cell_formula_units_Z 88
_cell_length_a 19.058171
_cell_length_b 19.058171
_cell_length_c 14.120191
_cell_angle_alpha 90.000000
_cell_angle_beta 90.000000
_cell_angle_gamma 90.000000
_cell_volume 5128.649386
_symmetry_space_group_name_H-M "P 42/M M C"
_symmetry_group_IT_number 131
_symmetry_cell_setting 'tetragonal'
loop_
_space_group_symop_operation_xyz
x,y,z
-x,-y,z
-y,x,1/2+z
y,-x,1/2+z
-x,y,-z
x,-y,-z
y,x,1/2-z
-y,-x,1/2-z
-x,-y,-z
x,y,-z
y,-x,1/2-z
-y,x,1/2-z
x,-y,z
-x,y,z
-y,-x,1/2+z
y,x,1/2+z
loop_
_atom_site_type_symbol
_atom_site_label
_atom_site_fract_x
_atom_site_fract_y
_atom_site_fract_z
Si Si1 0.242680 0.918201 0.233327
Si Si2 0.422427 0.750936 0.607708
Si Si3 0.382260 0.838363 0.776867
Si Si4 0.918467 0.500000 0.387583
Si Si5 0.829344 0.812574 0.107493
Si Si6 0.276580 0.305009 0.607021
O O1 0.321786 0.893285 0.245731
O O2 0.200214 0.897125 0.327774
O O3 0.209371 0.883543 0.139692
O O4 0.238930 0.000000 0.218382
O O5 0.412282 0.778850 0.500000
O O6 0.500000 0.715711 0.618764
O O7 0.419182 0.817389 0.678406
O O8 0.360289 0.694503 0.629432
O O9 0.432652 0.878519 0.848275
O O10 0.356018 0.765216 0.823368
O O11 0.912573 0.500000 0.500000
O O12 0.000000 0.500000 0.355621
O O13 0.775448 0.748041 0.122061
O O14 0.854363 0.820738 0.000000
O O15 0.260960 0.329608 0.500000
#
# Coordination Sequence:
#
# PCOD8315886 Si02
#       6
#    16  16  16   8  16  16
#     4  10  20  32  51  78 102 129 171 218 266 319
#     4  10  19  31  50  77 108 140 174 215 265 317
#     4  11  19  34  53  76 105 144 179 219 266 310
#     4  11  24  38  51  73 110 150 183 214 261 331
#     4   9  18  33  51  72 100 131 166 216 269 316
#     4   9  17  31  53  77 101 132 179 229 268 312
#
# _framework density 17.158514
#
# number of rings (size 3 to 8) (size 9 to 14) (size 15 to 20)
#    0.000    2.091    2.727    1.636    0.000    1.455 
#    0.000    0.000    0.000    6.545    0.000    5.727 
#    0.000    3.636    0.364    0.000    0.000    0.000 
#
# Total GULP energy -1090941.633644 kJ/mol
# GULP energy per Si atom -12397.064019 kJ/mol
# Density = 1.711946 g / cm^3
# Si number density = 17.158514 Si / 1000 Ang^3
#
#
#
# Elastic Constant Matrix: (Units=GPa)
#
#
# Indices 1 2 3 4 5 6 
#
# 1 105.5249 35.8004 29.3452 0.0000 0.0000 0.0000
# 2 35.8004 105.5249 29.3452 0.0000 0.0000 0.0000
# 3 29.3452 29.3452 90.7922 0.0000 0.0000 0.0000
# 4 0.0000 0.0000 0.0000 19.7399 0.0000 0.0000
# 5 0.0000 0.0000 0.0000 0.0000 19.7399 0.0000
# 6 0.0000 0.0000 0.0000 0.0000 0.0000 16.2344
#
#
#
# Elastic Compliance Matrix: (Units=1/GPa)
#
#
# Indices 1 2 3 4 5 6 
#
# 1 0.011258 -0.003085 -0.002642 0.000000 0.000000 0.000000
# 2 -0.003085 0.011258 -0.002642 0.000000 0.000000 0.000000
# 3 -0.002642 -0.002642 0.012722 0.000000 0.000000 0.000000
# 4 0.000000 0.000000 0.000000 0.050659 0.000000 0.000000
# 5 0.000000 0.000000 0.000000 0.000000 0.050659 0.000000
# 6 0.000000 0.000000 0.000000 0.000000 0.000000 0.061597
#
#
# Mechanical properties :
#
#
# Convention : Reuss Voigt Hill
#
# Bulk Modulus (GPa) = 54.05054 54.53593 54.29323
# Shear Modulus (GPa) = 22.61884 24.96625 23.79255
#
# Velocity S-wave (km/s) = 3.63468 3.81863 3.72779
# Velocity P-wave (km/s) = 7.01310 7.16207 7.08798
#
# Compressibility (1/GPa) = 0.01850120
#
# Stress axis : x y z
#
# Youngs Moduli (GPa) = 88.82946 88.82946 78.60560
#
# Poissons Ratio (x) = 0.27401 0.20764
# Poissons Ratio (y) = 0.27401 0.20764
# Poissons Ratio (z) = 0.23465 0.23465
#
# Static dielectric constant tensor:
#      x y z
#    x 3.086900 0.000000 0.000000 
#    y 0.000000 3.086900 0.000000 
#    z 0.000000 0.000000 3.395650 
# 
# 
# High freq. dielectric constant tensor:
#      x y z
#    x 1.642640 0.000000 0.000000 
#    y 0.000000 1.642640 0.000000 
#    z 0.000000 0.000000 1.681550 
# 
# From -- ./inp_files/5828.got.cif
#   From: 2010.03.12/outbox.cif.g09.slc.cpg/sg131_3_cif.got.tgz:5828.got - 2010.04.06 17:36:35.
