data_PCOD8315760
_publ_section_title
;
Structure prediction by ZEFSAII (Michael W. Deem and Ramdas Pophale) SiO2 
 PCOD8315760
Probable space group: P 42/M M C
;
_chemical_formula_sum "Si O2"
_cell_formula_units_Z 112
_cell_length_a 14.892154
_cell_length_b 14.892154
_cell_length_c 26.737463
_cell_angle_alpha 90.000000
_cell_angle_beta 90.000000
_cell_angle_gamma 90.000000
_cell_volume 5929.734299
_symmetry_space_group_name_H-M "P 42/M M C"
_symmetry_group_IT_number 131
_symmetry_cell_setting 'tetragonal'
loop_
_space_group_symop_operation_xyz
x,y,z
-x,-y,z
-y,x,1/2+z
y,-x,1/2+z
-x,y,-z
x,-y,-z
y,x,1/2-z
-y,-x,1/2-z
-x,-y,-z
x,y,-z
y,-x,1/2-z
-y,x,1/2-z
x,-y,z
-x,y,z
-y,-x,1/2+z
y,x,1/2+z
loop_
_atom_site_type_symbol
_atom_site_label
_atom_site_fract_x
_atom_site_fract_y
_atom_site_fract_z
Si Si1 0.731593 0.900233 0.111085
Si Si2 0.718331 0.403567 0.942044
Si Si3 0.844413 0.901364 0.442389
Si Si4 0.395570 0.762211 0.940615
Si Si5 0.348315 0.100737 0.399593
Si Si6 0.237048 0.106713 0.776899
Si Si7 0.599207 0.105962 0.288709
O O1 0.820665 0.906488 0.076485
O O2 0.651192 0.845886 0.085884
O O3 0.758427 0.862279 0.165470
O O4 0.692932 0.000000 0.117180
O O5 0.691039 0.500000 0.918264
O O6 0.656425 0.325257 0.918963
O O7 0.825244 0.390415 0.935901
O O8 0.696716 0.405663 0.000000
O O9 0.817427 0.884132 0.500000
O O10 0.757515 0.900095 0.407637
O O11 0.891362 0.000000 0.437131
O O12 0.500000 0.757124 0.925449
O O13 0.384083 0.772709 0.000000
O O14 0.368495 0.133808 0.343734
O O15 0.387656 0.000000 0.409951
O O16 0.152555 0.152555 0.750000
O O17 0.329276 0.141769 0.751506
O O18 0.223863 0.000000 0.771112
O O19 0.500000 0.147089 0.277994
O O20 0.594054 0.000000 0.284882
#
# Coordination Sequence:
#
# PCOD8315760 Si02
#       7
#    16  16  16  16  16  16  16
#     4  11  23  38  58  83 111 145 190 240 284 330
#     4  10  20  33  52  80 113 149 187 226 274 337
#     4  10  20  34  54  80 114 154 187 220 269 333
#     4  10  22  40  59  80 110 147 189 240 292 337
#     4  10  18  30  52  82 115 149 180 215 270 335
#     4  10  22  38  57  83 112 145 184 228 279 333
#     4   9  18  33  53  77 107 142 179 220 267 323
#
# _framework density 18.887861999999998
#
# number of rings (size 3 to 8) (size 9 to 14) (size 15 to 20)
#    0.000    2.000    1.429    2.143    0.000    6.143 
#    0.000    6.429    0.000    0.000    0.000    0.000 
#    0.000    0.286    0.000    0.000    0.000    0.000 
#
# Total GULP energy -1388258.748776 kJ/mol
# GULP energy per Si atom -12395.167400 kJ/mol
# Density = 1.884487 g / cm^3
# Si number density = 18.887862 Si / 1000 Ang^3
#
#
#
# Elastic Constant Matrix: (Units=GPa)
#
#
# Indices 1 2 3 4 5 6 
#
# 1 109.1003 45.3138 37.3776 0.0000 0.0000 0.0000
# 2 45.3138 109.1003 37.3776 0.0000 0.0000 0.0000
# 3 37.3776 37.3776 70.0253 0.0000 0.0000 0.0000
# 4 0.0000 0.0000 0.0000 22.5268 0.0000 0.0000
# 5 0.0000 0.0000 0.0000 0.0000 22.5268 0.0000
# 6 0.0000 0.0000 0.0000 0.0000 0.0000 14.5563
#
#
#
# Elastic Compliance Matrix: (Units=1/GPa)
#
#
# Indices 1 2 3 4 5 6 
#
# 1 0.012205 -0.003472 -0.004661 0.000000 0.000000 0.000000
# 2 -0.003472 0.012205 -0.004661 0.000000 0.000000 0.000000
# 3 -0.004661 -0.004661 0.019257 0.000000 0.000000 0.000000
# 4 0.000000 0.000000 0.000000 0.044392 0.000000 0.000000
# 5 0.000000 0.000000 0.000000 0.000000 0.044392 0.000000
# 6 0.000000 0.000000 0.000000 0.000000 0.000000 0.068699
#
#
# Mechanical properties :
#
#
# Convention : Reuss Voigt Hill
#
# Bulk Modulus (GPa) = 55.31899 58.70712 57.01305
# Shear Modulus (GPa) = 21.48095 23.13241 22.30668
#
# Velocity S-wave (km/s) = 3.37603 3.50340 3.44031
# Velocity P-wave (km/s) = 6.67446 6.89308 6.78465
#
# Compressibility (1/GPa) = 0.01807698
#
# Stress axis : x y z
#
# Youngs Moduli (GPa) = 81.93356 81.93356 51.92997
#
# Poissons Ratio (x) = 0.28450 0.24206
# Poissons Ratio (y) = 0.28450 0.24206
# Poissons Ratio (z) = 0.38192 0.38192
#
# Static dielectric constant tensor:
#      x y z
#    x 3.551760 0.000000 0.000000 
#    y 0.000000 3.551760 0.000000 
#    z 0.000000 0.000000 3.436770 
# 
# 
# High freq. dielectric constant tensor:
#      x y z
#    x 1.726460 0.000000 0.000000 
#    y 0.000000 1.726460 0.000000 
#    z 0.000000 0.000000 1.723040 
# 
# From -- ./inp_files/11299.got.cif
#   From: 2010.03.12/outbox.cif.g09.slc.cpg/sg131_6_cif.got.tgz:11299.got - 2010.04.06 17:36:35.
