data_PCOD8315511
_publ_section_title
;
Structure prediction by ZEFSAII (Michael W. Deem and Ramdas Pophale) SiO2 
 PCOD8315511
Probable space group: P 4/N C C
;
_chemical_formula_sum "Si O2"
_cell_formula_units_Z 128
_cell_length_a 23.313045
_cell_length_b 23.313045
_cell_length_c 12.535135
_cell_angle_alpha 90.000000
_cell_angle_beta 90.000000
_cell_angle_gamma 90.000000
_cell_volume 6812.821644
_symmetry_space_group_name_H-M "P 4/N C C"
_symmetry_group_IT_number 130
_symmetry_cell_setting 'tetragonal'
loop_
_space_group_symop_operation_xyz
x,y,z
1/2-y,x,z
1/2-x,1/2-y,z
y,1/2-x,z
1/2+x,-y,1/2-z
-x,1/2+y,1/2-z
1/2+y,1/2+x,1/2-z
-y,-x,1/2-z
-x,-y,-z
1/2+y,-x,-z
1/2+x,1/2+y,-z
-y,1/2+x,-z
1/2-x,y,1/2+z
x,1/2-y,1/2+z
1/2-y,1/2-x,1/2+z
y,x,1/2+z
loop_
_atom_site_type_symbol
_atom_site_label
_atom_site_fract_x
_atom_site_fract_y
_atom_site_fract_z
Si Si1 0.838705 0.893942 0.516927
Si Si2 0.786510 0.929519 0.722432
Si Si3 0.654235 0.023837 0.946272
Si Si4 0.555345 0.360443 0.289717
Si Si5 0.476269 0.741228 0.576519
Si Si6 0.658790 0.727434 0.837529
Si Si7 0.438997 0.529288 0.974792
Si Si8 0.843484 0.954845 0.940219
O O1 0.822549 0.890904 0.640342
O O2 0.784903 0.865604 0.454980
O O3 0.897386 0.860404 0.501492
O O4 0.848563 0.958557 0.480631
O O5 0.769577 0.990600 0.674961
O O6 0.728042 0.895136 0.756164
O O7 0.829663 0.940751 0.819154
O O8 0.658708 0.022253 0.817370
O O9 0.597747 0.056206 0.989632
O O10 0.709214 0.054512 0.004870
O O11 0.617386 0.382615 0.250000
O O12 0.565444 0.306780 0.371029
O O13 0.521137 0.411756 0.354173
O O14 0.522373 0.712992 0.498039
O O15 0.707996 0.681471 0.819041
O O16 0.394321 0.502060 0.058231
O O17 0.500000 0.500000 0.000000
#
# Coordination Sequence:
#
# PCOD8315511 Si02
#       8
#    16  16  16  16  16  16  16  16
#     4  11  23  37  56  77 110 150 203 254 312 355
#     4  11  23  38  57  78 107 158 195 259 310 352
#     4  10  20  38  58  85 121 154 201 248 304 369
#     4   9  19  35  61  86 119 163 196 244 307 368
#     4  10  21  36  60  83 114 152 199 246 296 368
#     4  11  24  38  52  74 103 143 207 261 302 346
#     4  10  20  38  57  90 123 155 201 251 309 372
#     4  11  22  39  58  81 115 148 201 248 299 379
#
# _framework density 18.788104000000001
#
# number of rings (size 3 to 8) (size 9 to 14) (size 15 to 20)
#    0.000    1.625    2.500    3.000    1.750    2.000 
#    2.250    3.750    0.000    0.000    0.000    0.000 
#    0.000  105.500    0.000    0.000    0.000    0.000 
#
# Total GULP energy -1585885.570474 kJ/mol
# GULP energy per Si atom -12389.731019 kJ/mol
# Density = 1.874534 g / cm^3
# Si number density = 18.788104 Si / 1000 Ang^3
#
#
#
# Elastic Constant Matrix: (Units=GPa)
#
#
# Indices 1 2 3 4 5 6 
#
# 1 86.3047 34.7566 47.3725 0.0000 0.0000 0.0000
# 2 34.7566 86.3050 47.3728 0.0000 0.0000 0.0000
# 3 47.3725 47.3728 121.6829 0.0000 0.0000 0.0000
# 4 0.0000 0.0000 0.0000 33.0877 0.0000 0.0000
# 5 0.0000 0.0000 0.0000 0.0000 33.0873 0.0000
# 6 0.0000 0.0000 0.0000 0.0000 0.0000 37.2943
#
#
#
# Elastic Compliance Matrix: (Units=1/GPa)
#
#
# Indices 1 2 3 4 5 6 
#
# 1 0.015640 -0.003760 -0.004625 0.000000 0.000000 0.000000
# 2 -0.003760 0.015640 -0.004625 0.000000 0.000000 0.000000
# 3 -0.004625 -0.004625 0.011819 0.000000 0.000000 0.000000
# 4 0.000000 0.000000 0.000000 0.030223 0.000000 0.000000
# 5 0.000000 0.000000 0.000000 0.000000 0.030223 0.000000
# 6 0.000000 0.000000 0.000000 0.000000 0.000000 0.026814
#
#
# Mechanical properties :
#
#
# Convention : Reuss Voigt Hill
#
# Bulk Modulus (GPa) = 58.55133 61.47737 60.01435
# Shear Modulus (GPa) = 30.85081 31.67991 31.26536
#
# Velocity S-wave (km/s) = 4.05660 4.11075 4.08377
# Velocity P-wave (km/s) = 7.29199 7.43798 7.36534
#
# Compressibility (1/GPa) = 0.01707903
#
# Stress axis : x y z
#
# Youngs Moduli (GPa) = 63.94022 63.94032 84.60804
#
# Poissons Ratio (x) = 0.24040 0.39131
# Poissons Ratio (y) = 0.24040 0.39131
# Poissons Ratio (z) = 0.29572 0.29572
#
# Static dielectric constant tensor:
#      x y z
#    x 3.570700 0.000000 0.000000 
#    y 0.000000 3.570700 0.000000 
#    z 0.000000 0.000000 3.692810 
# 
# 
# High freq. dielectric constant tensor:
#      x y z
#    x 1.717140 0.000000 0.000000 
#    y 0.000000 1.717140 0.000000 
#    z 0.000000 0.000000 1.737500 
# 
# From -- ./inp_files/1894.got.cif
#   From: 2010.03.12/outbox.cif.g09.slc.cpg/sg130_1_cif.got.tgz:1894.got - 2010.04.06 17:30:23.
