data_PCOD8315152
_publ_section_title
;
Structure prediction by ZEFSAII (Michael W. Deem and Ramdas Pophale) SiO2 
 PCOD8315152
Probable space group: P 4/N M M
;
_chemical_formula_sum "Si O2"
_cell_formula_units_Z 112
_cell_length_a 23.196832
_cell_length_b 23.196832
_cell_length_c 11.537738
_cell_angle_alpha 90.000000
_cell_angle_beta 90.000000
_cell_angle_gamma 90.000000
_cell_volume 6208.376225
_symmetry_space_group_name_H-M "P 4/N M M"
_symmetry_group_IT_number 129
_symmetry_cell_setting 'tetragonal'
loop_
_space_group_symop_operation_xyz
x,y,z
1/2-y,x,z
1/2-x,1/2-y,z
y,1/2-x,z
1/2+x,-y,-z
-x,1/2+y,-z
1/2+y,1/2+x,-z
-y,-x,-z
-x,-y,-z
1/2+y,-x,-z
1/2+x,1/2+y,-z
-y,1/2+x,-z
1/2-x,y,z
x,1/2-y,z
1/2-y,1/2-x,z
y,x,z
loop_
_atom_site_type_symbol
_atom_site_label
_atom_site_fract_x
_atom_site_fract_y
_atom_site_fract_z
Si Si1 0.815612 0.589962 0.163176
Si Si2 0.593231 0.998688 0.522984
Si Si3 0.421722 0.684153 0.902954
Si Si4 0.014542 0.817141 0.325034
Si Si5 0.900573 0.813525 0.902999
Si Si6 0.117562 0.815082 0.159301
Si Si7 0.484366 0.106839 0.212999
O O1 0.750000 0.608238 0.191987
O O2 0.855957 0.644044 0.192140
O O3 0.836294 0.536035 0.238456
O O4 0.819816 0.569518 0.029124
O O5 0.562955 0.937046 0.498170
O O6 0.612348 0.004036 0.655444
O O7 0.549392 0.049392 0.500000
O O8 0.648964 0.007058 0.444145
O O9 0.440730 0.750000 0.865856
O O10 0.359106 0.671304 0.845772
O O11 0.463645 0.631381 0.865676
O O12 0.419160 0.681310 0.041304
O O13 0.010516 0.750000 0.354778
O O14 0.075515 0.831947 0.265187
O O15 0.900395 0.750000 0.854614
O O16 0.834773 0.834773 0.915943
O O17 0.931938 0.850149 0.805944
O O18 0.141680 0.750000 0.175469
O O19 0.458738 0.041263 0.185281
#
# Coordination Sequence:
#
# PCOD8315152 Si02
#       7
#    16  16  16  16  16  16  16
#     4   9  17  29  47  71  98 130 165 200 242 290
#     4  10  21  36  52  69  92 123 160 202 243 287
#     4  10  19  33  55  77 101 136 169 198 242 299
#     4  10  19  32  50  71  97 126 158 199 247 297
#     4   9  17  29  46  69  98 130 162 198 237 279
#     4   9  19  34  51  76 106 131 162 206 247 287
#     4  10  20  33  49  72 100 127 161 206 249 289
#
# _framework density 18.040144000000002
#
# number of rings (size 3 to 8) (size 9 to 14) (size 15 to 20)
#    0.000    2.429    0.000    2.571    0.000    4.000 
#    0.000    5.714    0.000    0.000    0.000    0.000 
#    0.000    6.857    0.000    0.000    0.000    0.000 
#
# Total GULP energy -1387900.159022 kJ/mol
# GULP energy per Si atom -12391.965706 kJ/mol
# Density = 1.799908 g / cm^3
# Si number density = 18.040144 Si / 1000 Ang^3
#
#
#
# Elastic Constant Matrix: (Units=GPa)
#
#
# Indices 1 2 3 4 5 6 
#
# 1 66.5527 25.4366 19.4615 0.0000 0.0000 0.0000
# 2 25.4366 66.5527 19.4615 0.0000 0.0000 0.0000
# 3 19.4615 19.4615 55.1935 0.0000 0.0000 0.0000
# 4 0.0000 0.0000 0.0000 25.1165 0.0000 0.0000
# 5 0.0000 0.0000 0.0000 0.0000 25.1165 0.0000
# 6 0.0000 0.0000 0.0000 0.0000 0.0000 27.0049
#
#
#
# Elastic Compliance Matrix: (Units=1/GPa)
#
#
# Indices 1 2 3 4 5 6 
#
# 1 0.018549 -0.005772 -0.004505 0.000000 0.000000 0.000000
# 2 -0.005772 0.018549 -0.004505 0.000000 0.000000 0.000000
# 3 -0.004505 -0.004505 0.021295 0.000000 0.000000 0.000000
# 4 0.000000 0.000000 0.000000 0.039814 0.000000 0.000000
# 5 0.000000 0.000000 0.000000 0.000000 0.039814 0.000000
# 6 0.000000 0.000000 0.000000 0.000000 0.000000 0.037030
#
#
# Mechanical properties :
#
#
# Convention : Reuss Voigt Hill
#
# Bulk Modulus (GPa) = 34.68804 35.22424 34.95614
# Shear Modulus (GPa) = 23.33964 23.71020 23.52492
#
# Velocity S-wave (km/s) = 3.60079 3.62926 3.61506
# Velocity P-wave (km/s) = 6.04629 6.09343 6.06991
#
# Compressibility (1/GPa) = 0.02882838
#
# Stress axis : x y z
#
# Youngs Moduli (GPa) = 53.91055 53.91055 46.95891
#
# Poissons Ratio (x) = 0.31118 0.21156
# Poissons Ratio (y) = 0.31118 0.21156
# Poissons Ratio (z) = 0.24288 0.24288
#
# Static dielectric constant tensor:
#      x y z
#    x 3.326770 0.000000 0.000000 
#    y 0.000000 3.326770 0.000000 
#    z 0.000000 0.000000 3.101080 
# 
# 
# High freq. dielectric constant tensor:
#      x y z
#    x 1.698870 0.000000 0.000000 
#    y 0.000000 1.698870 0.000000 
#    z 0.000000 0.000000 1.681260 
# 
# From -- ./inp_files/4100.got.cif
#   From: 2010.03.12/outbox.cif.g09.slc.cpg/sg129_3_cif.got.tgz:4100.got - 2010.04.06 17:19:44.
