data_PCOD8315972
_publ_section_title
;
Structure prediction by ZEFSAII (Michael W. Deem and Ramdas Pophale) SiO2 
 PCOD8315972
Probable space group: P 42/M M C
;
_chemical_formula_sum "Si O2"
_cell_formula_units_Z 120
_cell_length_a 21.051630
_cell_length_b 21.051630
_cell_length_c 15.328450
_cell_angle_alpha 90.000000
_cell_angle_beta 90.000000
_cell_angle_gamma 90.000000
_cell_volume 6793.126441
_symmetry_space_group_name_H-M "P 42/M M C"
_symmetry_group_IT_number 131
_symmetry_cell_setting 'tetragonal'
loop_
_space_group_symop_operation_xyz
x,y,z
-x,-y,z
-y,x,1/2+z
y,-x,1/2+z
-x,y,-z
x,-y,-z
y,x,1/2-z
-y,-x,1/2-z
-x,-y,-z
x,y,-z
y,-x,1/2-z
-y,x,1/2-z
x,-y,z
-x,y,z
-y,-x,1/2+z
y,x,1/2+z
loop_
_atom_site_type_symbol
_atom_site_label
_atom_site_fract_x
_atom_site_fract_y
_atom_site_fract_z
Si Si1 0.353569 0.236935 0.597991
Si Si2 0.122088 0.738969 0.596979
Si Si3 0.648422 0.069482 0.236964
Si Si4 0.425730 0.196823 0.762516
Si Si5 0.925295 0.000000 0.598340
Si Si6 0.109252 0.282748 0.902792
Si Si7 0.751617 0.666246 0.599288
Si Si8 0.124368 0.858017 0.848240
O O1 0.382838 0.237288 0.500000
O O2 0.409422 0.224948 0.667181
O O3 0.300316 0.182973 0.607069
O O4 0.317180 0.302761 0.617589
O O5 0.102042 0.716328 0.500000
O O6 0.077318 0.705153 0.667306
O O7 0.194704 0.719264 0.617256
O O8 0.114931 0.815232 0.599047
O O9 0.595238 0.123518 0.226985
O O10 0.677455 0.068691 0.333895
O O11 0.617211 0.000000 0.221890
O O12 0.500000 0.201029 0.777369
O O13 0.392803 0.239806 0.836114
O O14 0.903844 0.063894 0.647014
O O15 0.898326 0.000000 0.500000
O O16 0.000000 0.000000 0.599360
O O17 0.101406 0.208616 0.886086
O O18 0.084185 0.298908 0.000000
O O19 0.755720 0.641267 0.500000
O O20 0.148708 0.851293 0.750000
#
# Coordination Sequence:
#
# PCOD8315972 Si02
#       8
#    16  16  16  16   8  16  16  16
#     4   9  17  31  55  82 107 135 169 215 264 310
#     4  10  19  34  55  79 102 124 160 219 281 324
#     4  10  22  36  51  75 101 136 185 226 260 308
#     4  10  21  34  51  76 112 151 179 213 261 317
#     4  11  28  46  54  64  90 134 175 207 260 343
#     4  10  19  33  54  80 103 122 157 215 279 325
#     4   9  17  31  55  82 107 134 171 220 269 311
#     4  12  23  35  58  77  98 128 162 212 275 337
#
# _framework density 17.664914
#
# number of rings (size 3 to 8) (size 9 to 14) (size 15 to 20)
#    0.000    1.933    2.667    1.600    1.867    1.867 
#    0.000    0.000    0.000    0.000    0.000    7.467 
#    0.000    4.267    0.000   11.733    0.000    0.000 
#
# Total GULP energy -1487974.706867 kJ/mol
# GULP energy per Si atom -12399.789224 kJ/mol
# Density = 1.762471 g / cm^3
# Si number density = 17.664914 Si / 1000 Ang^3
#
#
#
# Elastic Constant Matrix: (Units=GPa)
#
#
# Indices 1 2 3 4 5 6 
#
# 1 90.1866 23.3219 27.8824 0.0000 0.0000 0.0000
# 2 23.3219 90.1867 27.8823 0.0000 0.0000 0.0000
# 3 27.8824 27.8823 96.7557 0.0000 0.0000 0.0000
# 4 0.0000 0.0000 0.0000 16.2174 0.0000 0.0000
# 5 0.0000 0.0000 0.0000 0.0000 16.2174 0.0000
# 6 0.0000 0.0000 0.0000 0.0000 0.0000 12.2458
#
#
#
# Elastic Compliance Matrix: (Units=1/GPa)
#
#
# Indices 1 2 3 4 5 6 
#
# 1 0.012609 -0.002346 -0.002957 0.000000 0.000000 0.000000
# 2 -0.002346 0.012609 -0.002957 0.000000 0.000000 0.000000
# 3 -0.002957 -0.002957 0.012040 0.000000 0.000000 0.000000
# 4 0.000000 0.000000 0.000000 0.061662 0.000000 0.000000
# 5 0.000000 0.000000 0.000000 0.000000 0.061662 0.000000
# 6 0.000000 0.000000 0.000000 0.000000 0.000000 0.081661
#
#
# Mechanical properties :
#
#
# Convention : Reuss Voigt Hill
#
# Bulk Modulus (GPa) = 48.22609 48.36689 48.29649
# Shear Modulus (GPa) = 18.81980 22.13896 20.47938
#
# Velocity S-wave (km/s) = 3.26755 3.54400 3.40858
# Velocity P-wave (km/s) = 6.44947 6.64727 6.54912
#
# Compressibility (1/GPa) = 0.02073566
#
# Stress axis : x y z
#
# Youngs Moduli (GPa) = 79.30709 79.30717 83.05766
#
# Poissons Ratio (x) = 0.18608 0.24564
# Poissons Ratio (y) = 0.18608 0.24564
# Poissons Ratio (z) = 0.23455 0.23455
#
# Static dielectric constant tensor:
#      x y z
#    x 2.951460 0.000000 0.000000 
#    y 0.000000 2.951460 0.000000 
#    z 0.000000 0.000000 3.597440 
# 
# 
# High freq. dielectric constant tensor:
#      x y z
#    x 1.651360 0.000000 0.000000 
#    y 0.000000 1.651360 0.000000 
#    z 0.000000 0.000000 1.704990 
# 
# From -- ./inp_files/6323.got.cif
#   From: 2010.03.12/outbox.cif.g09.slc.cpg/sg131_4_cif.got.tgz:6323.got - 2010.04.06 17:36:35.
