data_PCOD8315843
_publ_section_title
;
Structure prediction by ZEFSAII (Michael W. Deem and Ramdas Pophale) SiO2 
 PCOD8315843
Probable space group: P 42/M M C
;
_chemical_formula_sum "Si O2"
_cell_formula_units_Z 96
_cell_length_a 14.810704
_cell_length_b 14.810704
_cell_length_c 24.361715
_cell_angle_alpha 90.000000
_cell_angle_beta 90.000000
_cell_angle_gamma 90.000000
_cell_volume 5343.911572
_symmetry_space_group_name_H-M "P 42/M M C"
_symmetry_group_IT_number 131
_symmetry_cell_setting 'tetragonal'
loop_
_space_group_symop_operation_xyz
x,y,z
-x,-y,z
-y,x,1/2+z
y,-x,1/2+z
-x,y,-z
x,-y,-z
y,x,1/2-z
-y,-x,1/2-z
-x,-y,-z
x,y,-z
y,-x,1/2-z
-y,x,1/2-z
x,-y,z
-x,y,z
-y,-x,1/2+z
y,x,1/2+z
loop_
_atom_site_type_symbol
_atom_site_label
_atom_site_fract_x
_atom_site_fract_y
_atom_site_fract_z
Si Si1 0.500000 0.399388 0.564632
Si Si2 0.778994 0.897078 0.289938
Si Si3 0.101020 0.098336 0.395779
Si Si4 0.255647 0.354754 0.065626
Si Si5 0.157290 0.721919 0.561436
Si Si6 0.602029 0.000000 0.065960
Si Si7 0.896620 0.601561 0.850418
O O1 0.500000 0.500000 0.591633
O O2 0.500000 0.410791 0.500000
O O3 0.587075 0.342508 0.583077
O O4 0.822928 0.822928 0.250000
O O5 0.829995 0.888068 0.346927
O O6 0.673764 0.872998 0.302196
O O7 0.788476 0.000000 0.266631
O O8 0.117416 0.176726 0.439859
O O9 0.000000 0.105146 0.371869
O O10 0.116108 0.000000 0.423799
O O11 0.279613 0.255511 0.088875
O O12 0.165689 0.388468 0.095808
O O13 0.237127 0.358140 0.000000
O O14 0.169580 0.687490 0.500000
O O15 0.088139 0.652575 0.590780
O O16 0.500000 0.000000 0.087223
O O17 0.608712 0.000000 0.000000
O O18 0.884570 0.500000 0.826531
O O19 0.000000 0.618098 0.869611
#
# Coordination Sequence:
#
# PCOD8315843 Si02
#       7
#     8  16  16  16  16   8  16
#     4   9  18  32  49  71 101 137 178 224 261 287
#     4  10  20  35  55  79 101 129 168 214 262 305
#     4  10  19  30  47  73 103 133 167 206 249 303
#     4  10  19  31  50  77 109 143 177 213 257 311
#     4  10  19  30  46  70 102 138 174 208 249 305
#     4   9  18  32  47  63  91 137 186 222 251 289
#     4  10  20  34  54  81 110 140 174 208 254 319
#
# _framework density 17.964369000000001
#
# number of rings (size 3 to 8) (size 9 to 14) (size 15 to 20)
#    0.000    2.167    3.333    0.500    0.000    2.167 
#    0.000    6.667    0.000    2.000    0.000    0.000 
#    0.000    0.000    0.000    0.000    0.000    0.000 
#
# Total GULP energy -1189591.598658 kJ/mol
# GULP energy per Si atom -12391.579153 kJ/mol
# Density = 1.792348 g / cm^3
# Si number density = 17.964369 Si / 1000 Ang^3
#
#
#
# Elastic Constant Matrix: (Units=GPa)
#
#
# Indices 1 2 3 4 5 6 
#
# 1 156.8350 71.6500 26.1689 0.0000 0.0000 0.0000
# 2 71.6500 156.8350 26.1689 0.0000 0.0000 0.0000
# 3 26.1689 26.1689 29.1076 0.0000 0.0000 0.0000
# 4 0.0000 0.0000 0.0000 17.9338 0.0000 0.0000
# 5 0.0000 0.0000 0.0000 0.0000 17.9338 0.0000
# 6 0.0000 0.0000 0.0000 0.0000 0.0000 22.7362
#
#
#
# Elastic Compliance Matrix: (Units=1/GPa)
#
#
# Indices 1 2 3 4 5 6 
#
# 1 0.008625 -0.003114 -0.004955 0.000000 0.000000 0.000000
# 2 -0.003114 0.008625 -0.004955 0.000000 0.000000 0.000000
# 3 -0.004955 -0.004955 0.043265 0.000000 0.000000 0.000000
# 4 0.000000 0.000000 0.000000 0.055761 0.000000 0.000000
# 5 0.000000 0.000000 0.000000 0.000000 0.055761 0.000000
# 6 0.000000 0.000000 0.000000 0.000000 0.000000 0.043983
#
#
# Mechanical properties :
#
#
# Convention : Reuss Voigt Hill
#
# Bulk Modulus (GPa) = 29.01275 65.63925 47.32600
# Shear Modulus (GPa) = 19.71940 26.30677 23.01309
#
# Velocity S-wave (km/s) = 3.31674 3.83088 3.58305
# Velocity P-wave (km/s) = 5.55454 7.49569 6.59691
#
# Compressibility (1/GPa) = 0.03446761
#
# Stress axis : x y z
#
# Youngs Moduli (GPa) = 115.93616 115.93616 23.11329
#
# Poissons Ratio (x) = 0.36099 0.11453
# Poissons Ratio (y) = 0.36099 0.11453
# Poissons Ratio (z) = 0.57449 0.57449
#
# Static dielectric constant tensor:
#      x y z
#    x 3.672070 0.000000 0.000000 
#    y 0.000000 3.672070 0.000000 
#    z 0.000000 0.000000 2.767770 
# 
# 
# High freq. dielectric constant tensor:
#      x y z
#    x 1.708080 0.000000 0.000000 
#    y 0.000000 1.708080 0.000000 
#    z 0.000000 0.000000 1.629210 
# 
# From -- ./inp_files/11170.got.cif
#   From: 2010.03.12/outbox.cif.g09.slc.cpg/sg131_6_cif.got.tgz:11170.got - 2010.04.06 17:36:35.
