data_PCOD8315011
_publ_section_title
;
Structure prediction by ZEFSAII (Michael W. Deem and Ramdas Pophale) SiO2 
 PCOD8315011
Probable space group: P 4/N M M
;
_chemical_formula_sum "Si O2"
_cell_formula_units_Z 112
_cell_length_a 14.002091
_cell_length_b 14.002091
_cell_length_c 35.097331
_cell_angle_alpha 90.000000
_cell_angle_beta 90.000000
_cell_angle_gamma 90.000000
_cell_volume 6881.131908
_symmetry_space_group_name_H-M "P 4/N M M"
_symmetry_group_IT_number 129
_symmetry_cell_setting 'tetragonal'
loop_
_space_group_symop_operation_xyz
x,y,z
1/2-y,x,z
1/2-x,1/2-y,z
y,1/2-x,z
1/2+x,-y,-z
-x,1/2+y,-z
1/2+y,1/2+x,-z
-y,-x,-z
-x,-y,-z
1/2+y,-x,-z
1/2+x,1/2+y,-z
-y,1/2+x,-z
1/2-x,y,z
x,1/2-y,z
1/2-y,1/2-x,z
y,x,z
loop_
_atom_site_type_symbol
_atom_site_label
_atom_site_fract_x
_atom_site_fract_y
_atom_site_fract_z
Si Si1 0.363187 0.516658 0.111764
Si Si2 0.140754 0.513310 0.250152
Si Si3 0.643951 0.136685 0.041961
Si Si4 0.359141 0.513574 0.524451
Si Si5 0.359271 0.986258 0.612647
Si Si6 0.144066 0.862981 0.817487
Si Si7 0.640147 0.484764 0.662896
O O1 0.250000 0.498576 0.112003
O O2 0.414184 0.414184 0.113774
O O3 0.399332 0.570826 0.073887
O O4 0.397894 0.580070 0.147359
O O5 0.250000 0.486946 0.241186
O O6 0.104079 0.597068 0.222382
O O7 0.127574 0.548631 0.293443
O O8 0.082552 0.417449 0.242029
O O9 0.750000 0.093928 0.049791
O O10 0.651568 0.250000 0.043541
O O11 0.606094 0.106094 0.000000
O O12 0.397900 0.602101 0.500000
O O13 0.250000 0.493573 0.513268
O O14 0.417697 0.417697 0.514687
O O15 0.369764 0.541520 0.568538
O O16 0.250000 0.005659 0.623875
O O17 0.398896 0.897530 0.636773
O O18 0.417698 0.082303 0.622364
O O19 0.250000 0.908601 0.820260
O O20 0.152976 0.750000 0.819003
O O21 0.750000 0.505723 0.652916
O O22 0.581819 0.581819 0.654652
#
# Coordination Sequence:
#
# PCOD8315011 Si02
#       7
#    16  16  16  16  16  16  16
#     4  10  19  29  42  61  86 115 144 174 210 255
#     4   9  17  29  45  66  92 120 148 177 211 255
#     4   8  14  26  44  64  85 109 139 177 217 252
#     4   9  18  32  49  69  93 120 150 186 227 271
#     4   9  18  32  49  69  92 118 150 189 232 276
#     4   9  17  29  44  61  82 108 139 177 217 252
#     4   9  18  31  46  66  93 124 157 190 222 261
#
# _framework density 16.276392999999999
#
# number of rings (size 3 to 8) (size 9 to 14) (size 15 to 20)
#    0.000    3.000    0.000    1.286    0.000    4.286 
#    0.000    5.714    0.000    2.571    0.000    4.000 
#    0.000   13.429    0.000    0.000    0.000    0.000 
#
# Total GULP energy -1388590.055045 kJ/mol
# GULP energy per Si atom -12398.125491 kJ/mol
# Density = 1.623935 g / cm^3
# Si number density = 16.276393 Si / 1000 Ang^3
#
#
#
# Elastic Constant Matrix: (Units=GPa)
#
#
# Indices 1 2 3 4 5 6 
#
# 1 93.3249 46.2891 52.6039 0.0000 0.0000 0.0000
# 2 46.2891 93.3231 52.6039 0.0000 0.0000 0.0000
# 3 52.6039 52.6039 87.2033 0.0000 0.0000 0.0000
# 4 0.0000 0.0000 0.0000 23.3938 0.0000 0.0000
# 5 0.0000 0.0000 0.0000 0.0000 23.3939 0.0000
# 6 0.0000 0.0000 0.0000 0.0000 0.0000 14.9989
#
#
#
# Elastic Compliance Matrix: (Units=1/GPa)
#
#
# Indices 1 2 3 4 5 6 
#
# 1 0.017196 -0.004064 -0.007922 0.000000 0.000000 0.000000
# 2 -0.004064 0.017197 -0.007922 0.000000 0.000000 0.000000
# 3 -0.007922 -0.007922 0.021025 0.000000 0.000000 0.000000
# 4 0.000000 0.000000 0.000000 0.042746 0.000000 0.000000
# 5 0.000000 0.000000 0.000000 0.000000 0.042746 0.000000
# 6 0.000000 0.000000 0.000000 0.000000 0.000000 0.066672
#
#
# Mechanical properties :
#
#
# Convention : Reuss Voigt Hill
#
# Bulk Modulus (GPa) = 64.09383 64.09391 64.09387
# Shear Modulus (GPa) = 19.79425 20.51427 20.15426
#
# Velocity S-wave (km/s) = 3.49109 3.55402 3.52270
# Velocity P-wave (km/s) = 7.46419 7.50369 7.48397
#
# Compressibility (1/GPa) = 0.01560212
#
# Stress axis : x y z
#
# Youngs Moduli (GPa) = 58.15205 58.15042 47.56273
#
# Poissons Ratio (x) = 0.23634 0.37678
# Poissons Ratio (y) = 0.23635 0.37679
# Poissons Ratio (z) = 0.46066 0.46067
#
# Static dielectric constant tensor:
#      x y z
#    x 2.969950 0.000000 0.000000 
#    y 0.000000 2.969950 0.000000 
#    z 0.000000 0.000000 3.322100 
# 
# 
# High freq. dielectric constant tensor:
#      x y z
#    x 1.606730 0.000000 0.000000 
#    y 0.000000 1.606730 0.000000 
#    z 0.000000 0.000000 1.638680 
# 
# From -- ./inp_files/7892.got.cif
#   From: 2010.03.12/outbox.cif.g09.slc.cpg/sg129_4_cif.got.tgz:7892.got - 2010.04.06 17:19:44.
