data_PCOD8315772
_publ_section_title
;
Structure prediction by ZEFSAII (Michael W. Deem and Ramdas Pophale) SiO2 
 PCOD8315772
Probable space group: P 42/M M C
;
_chemical_formula_sum "Si O2"
_cell_formula_units_Z 120
_cell_length_a 27.474868
_cell_length_b 27.474868
_cell_length_c 9.110100
_cell_angle_alpha 90.000000
_cell_angle_beta 90.000000
_cell_angle_gamma 90.000000
_cell_volume 6876.926352
_symmetry_space_group_name_H-M "P 42/M M C"
_symmetry_group_IT_number 131
_symmetry_cell_setting 'tetragonal'
loop_
_space_group_symop_operation_xyz
x,y,z
-x,-y,z
-y,x,1/2+z
y,-x,1/2+z
-x,y,-z
x,-y,-z
y,x,1/2-z
-y,-x,1/2-z
-x,-y,-z
x,y,-z
y,-x,1/2-z
-y,x,1/2-z
x,-y,z
-x,y,z
-y,-x,1/2+z
y,x,1/2+z
loop_
_atom_site_type_symbol
_atom_site_label
_atom_site_fract_x
_atom_site_fract_y
_atom_site_fract_z
Si Si1 0.263265 0.557426 0.836461
Si Si2 0.379430 0.191549 0.830911
Si Si3 0.796029 0.134355 0.328069
Si Si4 0.282755 0.783779 0.330841
Si Si5 0.081113 0.627204 0.669693
Si Si6 0.734495 0.942833 0.170395
Si Si7 0.627710 0.444856 0.827499
Si Si8 0.444883 0.000000 0.175339
O O1 0.260669 0.500000 0.839075
O O2 0.224520 0.575497 0.717315
O O3 0.317694 0.573477 0.789754
O O4 0.251195 0.577573 0.000000
O O5 0.335207 0.204548 0.728155
O O6 0.392312 0.135304 0.804429
O O7 0.366263 0.201251 0.000000
O O8 0.844977 0.155024 0.250000
O O9 0.806954 0.127323 0.500000
O O10 0.752281 0.171303 0.297380
O O11 0.778270 0.083603 0.257714
O O12 0.264219 0.735782 0.250000
O O13 0.285916 0.771185 0.500000
O O14 0.067579 0.632885 0.500000
O O15 0.072283 0.681349 0.736824
O O16 0.046438 0.585332 0.736407
O O17 0.742280 0.000000 0.191765
O O18 0.738243 0.927366 0.000000
O O19 0.589465 0.410536 0.750000
O O20 0.620052 0.500000 0.770808
O O21 0.618972 0.442523 0.000000
O O22 0.500000 0.000000 0.240045
O O23 0.448196 0.000000 0.000000
#
# Coordination Sequence:
#
# PCOD8315772 Si02
#       8
#    16  16  16  16  16  16  16   8
#     4   9  20  39  56  69  94 133 171 208 254 309
#     4  11  21  32  51  76 103 131 168 219 266 314
#     4  10  20  33  51  75 106 141 179 221 266 316
#     4  10  20  33  49  71 100 134 171 207 254 309
#     4   9  17  29  45  70 101 133 170 218 270 324
#     4  10  18  31  53  76 106 146 186 223 270 326
#     4   9  19  36  57  80 105 133 163 197 242 298
#     4   9  16  28  46  68  97 133 171 217 276 329
#
# _framework density 17.449655
#
# number of rings (size 3 to 8) (size 9 to 14) (size 15 to 20)
#    0.000    2.333    2.000    2.000    0.000    3.600 
#    0.000    4.667    0.000    0.000    0.000    0.000 
#    0.000    4.000    0.000    2.800    0.000    1.200 
#
# Total GULP energy -1487781.795797 kJ/mol
# GULP energy per Si atom -12398.181632 kJ/mol
# Density = 1.740994 g / cm^3
# Si number density = 17.449655 Si / 1000 Ang^3
#
#
#
# Elastic Constant Matrix: (Units=GPa)
#
#
# Indices 1 2 3 4 5 6 
#
# 1 90.0399 53.2676 33.8571 0.0000 0.0000 0.0000
# 2 53.2676 90.0395 33.8565 0.0000 0.0000 0.0000
# 3 33.8571 33.8565 39.6774 0.0000 0.0000 0.0000
# 4 0.0000 0.0000 0.0000 22.6750 0.0000 0.0000
# 5 0.0000 0.0000 0.0000 0.0000 22.6751 0.0000
# 6 0.0000 0.0000 0.0000 0.0000 0.0000 24.8165
#
#
#
# Elastic Compliance Matrix: (Units=1/GPa)
#
#
# Indices 1 2 3 4 5 6 
#
# 1 0.019443 -0.007751 -0.009977 0.000000 0.000000 0.000000
# 2 -0.007751 0.019443 -0.009977 0.000000 0.000000 0.000000
# 3 -0.009977 -0.009977 0.042230 0.000000 0.000000 0.000000
# 4 0.000000 0.000000 0.000000 0.044101 0.000000 0.000000
# 5 0.000000 0.000000 0.000000 0.000000 0.044101 0.000000
# 6 0.000000 0.000000 0.000000 0.000000 0.000000 0.040296
#
#
# Mechanical properties :
#
#
# Convention : Reuss Voigt Hill
#
# Bulk Modulus (GPa) = 38.90067 51.30212 45.10139
# Shear Modulus (GPa) = 18.27526 20.61837 19.44682
#
# Velocity S-wave (km/s) = 3.23973 3.44116 3.34196
# Velocity P-wave (km/s) = 6.02793 6.72701 6.38704
#
# Compressibility (1/GPa) = 0.02570650
#
# Stress axis : x y z
#
# Youngs Moduli (GPa) = 51.43126 51.43178 23.67991
#
# Poissons Ratio (x) = 0.39866 0.23626
# Poissons Ratio (y) = 0.39865 0.23625
# Poissons Ratio (z) = 0.51314 0.51312
#
# Static dielectric constant tensor:
#      x y z
#    x 3.431460 0.000000 0.000000 
#    y 0.000000 3.431500 0.000000 
#    z 0.000000 0.000000 3.159460 
# 
# 
# High freq. dielectric constant tensor:
#      x y z
#    x 1.667880 0.000000 0.000000 
#    y 0.000000 1.667880 0.000000 
#    z 0.000000 0.000000 1.657380 
# 
# From -- ./inp_files/2620.got.cif
#   From: 2010.03.12/outbox.cif.g09.slc.cpg/sg131_2_cif.got.tgz:2620.got - 2010.04.06 17:36:35.
