data_PCOD8315982
_publ_section_title
;
Structure prediction by ZEFSAII (Michael W. Deem and Ramdas Pophale) SiO2 
 PCOD8315982
Probable space group: P 42/M M C
;
_chemical_formula_sum "Si O2"
_cell_formula_units_Z 104
_cell_length_a 18.679727
_cell_length_b 18.679727
_cell_length_c 16.822034
_cell_angle_alpha 90.000000
_cell_angle_beta 90.000000
_cell_angle_gamma 90.000000
_cell_volume 5869.749345
_symmetry_space_group_name_H-M "P 42/M M C"
_symmetry_group_IT_number 131
_symmetry_cell_setting 'tetragonal'
loop_
_space_group_symop_operation_xyz
x,y,z
-x,-y,z
-y,x,1/2+z
y,-x,1/2+z
-x,y,-z
x,-y,-z
y,x,1/2-z
-y,-x,1/2-z
-x,-y,-z
x,y,-z
y,-x,1/2-z
-y,x,1/2-z
x,-y,z
-x,y,z
-y,-x,1/2+z
y,x,1/2+z
loop_
_atom_site_type_symbol
_atom_site_label
_atom_site_fract_x
_atom_site_fract_y
_atom_site_fract_z
Si Si1 0.000000 0.915098 0.406227
Si Si2 0.420375 0.654580 0.682461
Si Si3 0.795514 0.582917 0.716975
Si Si4 0.331309 0.288064 0.910009
Si Si5 0.116905 0.181476 0.671352
Si Si6 0.918370 0.684358 0.767324
Si Si7 0.257563 0.827883 0.409833
O O1 0.066371 0.879883 0.362260
O O2 0.000000 0.897591 0.500000
O O3 0.000000 0.000000 0.391203
O O4 0.403590 0.596411 0.750000
O O5 0.500000 0.642944 0.650247
O O6 0.409784 0.734848 0.715975
O O7 0.366754 0.638662 0.610029
O O8 0.806884 0.500000 0.693034
O O9 0.772491 0.630018 0.641514
O O10 0.870625 0.615117 0.747058
O O11 0.246951 0.296480 0.892222
O O12 0.347828 0.267607 0.000000
O O13 0.154644 0.154644 0.750000
O O14 0.081350 0.257318 0.695368
O O15 0.174355 0.191766 0.601772
O O16 0.889801 0.717163 0.850181
O O17 0.000000 0.659089 0.780300
O O18 0.270854 0.854477 0.500000
#
# Coordination Sequence:
#
# PCOD8315982 Si02
#       7
#     8  16  16  16  16  16  16
#     4  11  24  38  52  76 111 145 181 228 286 348
#     4   9  18  32  54  82 114 150 184 223 268 324
#     4  10  20  36  57  82 113 146 188 235 275 327
#     4  10  19  33  58  85 111 147 185 229 281 330
#     4  10  21  34  55  79 104 143 185 227 277 333
#     4  11  21  36  58  83 109 145 191 232 279 335
#     4  10  20  35  57  82 110 141 180 232 280 329
#
# _framework density 17.717963000000001
#
# number of rings (size 3 to 8) (size 9 to 14) (size 15 to 20)
#    0.000    1.923    3.846    0.462    1.077    2.000 
#    0.000    0.000    0.000    0.462    0.000    6.462 
#    0.000    0.000    0.000    0.000    0.000    0.000 
#
# Total GULP energy -1289077.214565 kJ/mol
# GULP energy per Si atom -12394.973217 kJ/mol
# Density = 1.767764 g / cm^3
# Si number density = 17.717963 Si / 1000 Ang^3
#
#
#
# Elastic Constant Matrix: (Units=GPa)
#
#
# Indices 1 2 3 4 5 6 
#
# 1 86.5752 19.6602 36.9380 0.0000 0.0000 0.0000
# 2 19.6602 86.5775 36.9376 0.0000 0.0000 0.0000
# 3 36.9380 36.9376 58.0277 0.0000 0.0000 0.0000
# 4 0.0000 0.0000 0.0000 14.1636 0.0000 0.0000
# 5 0.0000 0.0000 0.0000 0.0000 14.1636 0.0000
# 6 0.0000 0.0000 0.0000 0.0000 0.0000 21.0828
#
#
#
# Elastic Compliance Matrix: (Units=1/GPa)
#
#
# Indices 1 2 3 4 5 6 
#
# 1 0.015917 0.000972 -0.010751 0.000000 0.000000 0.000000
# 2 0.000972 0.015916 -0.010750 0.000000 0.000000 0.000000
# 3 -0.010751 -0.010750 0.030920 0.000000 0.000000 0.000000
# 4 0.000000 0.000000 0.000000 0.070603 0.000000 0.000000
# 5 0.000000 0.000000 0.000000 0.000000 0.070603 0.000000
# 6 0.000000 0.000000 0.000000 0.000000 0.000000 0.047432
#
#
# Mechanical properties :
#
#
# Convention : Reuss Voigt Hill
#
# Bulk Modulus (GPa) = 46.09372 46.47245 46.28308
# Shear Modulus (GPa) = 16.68439 19.05831 17.87135
#
# Velocity S-wave (km/s) = 3.07199 3.28327 3.17938
# Velocity P-wave (km/s) = 6.21728 6.37645 6.29736
#
# Compressibility (1/GPa) = 0.02169493
#
# Stress axis : x y z
#
# Youngs Moduli (GPa) = 62.82670 62.82940 32.34159
#
# Poissons Ratio (x) = -0.06109 0.34770
# Poissons Ratio (y) = -0.06109 0.34769
# Poissons Ratio (z) = 0.67545 0.67544
#
# Static dielectric constant tensor:
#      x y z
#    x 3.236990 0.000000 0.000000 
#    y 0.000000 3.236990 0.000000 
#    z 0.000000 0.000000 3.180200 
# 
# 
# High freq. dielectric constant tensor:
#      x y z
#    x 1.679770 0.000000 0.000000 
#    y 0.000000 1.679770 0.000000 
#    z 0.000000 0.000000 1.677320 
# 
# From -- ./inp_files/8068.got.cif
#   From: 2010.03.12/outbox.cif.g09.slc.cpg/sg131_5_cif.got.tgz:8068.got - 2010.04.06 17:36:35.
