data_PCOD8315157
_publ_section_title
;
Structure prediction by ZEFSAII (Michael W. Deem and Ramdas Pophale) SiO2 
 PCOD8315157
Probable space group: P 4/N M M
;
_chemical_formula_sum "Si O2"
_cell_formula_units_Z 120
_cell_length_a 21.417120
_cell_length_b 21.417120
_cell_length_c 15.360077
_cell_angle_alpha 90.000000
_cell_angle_beta 90.000000
_cell_angle_gamma 90.000000
_cell_volume 7045.560246
_symmetry_space_group_name_H-M "P 4/N M M"
_symmetry_group_IT_number 129
_symmetry_cell_setting 'tetragonal'
loop_
_space_group_symop_operation_xyz
x,y,z
1/2-y,x,z
1/2-x,1/2-y,z
y,1/2-x,z
1/2+x,-y,-z
-x,1/2+y,-z
1/2+y,1/2+x,-z
-y,-x,-z
-x,-y,-z
1/2+y,-x,-z
1/2+x,1/2+y,-z
-y,1/2+x,-z
1/2-x,y,z
x,1/2-y,z
1/2-y,1/2-x,z
y,x,z
loop_
_atom_site_type_symbol
_atom_site_label
_atom_site_fract_x
_atom_site_fract_y
_atom_site_fract_z
Si Si1 0.566412 0.321189 0.375239
Si Si2 0.597329 0.112575 0.769161
Si Si3 0.581984 0.479356 0.077286
Si Si4 0.602003 0.503116 0.496462
Si Si5 0.819996 0.180005 0.500000
Si Si6 0.176564 0.073463 0.856849
Si Si7 0.681932 0.323655 0.906015
Si Si8 0.991968 0.678361 0.323885
O O1 0.555765 0.250000 0.349547
O O2 0.565359 0.361339 0.287360
O O3 0.509269 0.341749 0.436807
O O4 0.633022 0.332314 0.421286
O O5 0.553530 0.069650 0.829782
O O6 0.637126 0.156459 0.830383
O O7 0.560510 0.160989 0.709104
O O8 0.531762 0.531762 0.062978
O O9 0.649435 0.515565 0.084029
O O10 0.572294 0.427707 0.000000
O O11 0.558504 0.441497 0.500000
O O12 0.562151 0.562151 0.528610
O O13 0.630785 0.520961 0.402931
O O14 0.750000 0.170599 0.462785
O O15 0.250000 0.083032 0.880514
O O16 0.137271 0.137271 0.874534
O O17 0.169106 0.057576 0.754208
O O18 0.750000 0.353525 0.888817
O O19 0.687651 0.250000 0.907734
O O20 0.654844 0.345157 0.000000
O O21 0.991568 0.750000 0.356931
#
# Coordination Sequence:
#
# PCOD8315157 Si02
#       8
#    16  16  16  16   8  16  16  16
#     4  11  21  33  46  68  96 122 157 202 248 291
#     4  11  19  30  46  71  92 124 155 196 243 294
#     4   9  19  35  53  72  98 131 169 207 246 297
#     4  11  21  34  49  67  90 124 167 204 246 293
#     4   9  18  32  47  62  88 128 165 194 230 279
#     4   9  18  32  52  79 107 136 171 212 262 318
#     4   9  18  31  44  60  86 120 157 195 230 270
#     4  10  19  32  50  72  99 130 165 205 246 296
#
# _framework density 17.032003
#
# number of rings (size 3 to 8) (size 9 to 14) (size 15 to 20)
#    0.000    2.067    2.000    2.400    0.000    3.867 
#    0.000    2.667    0.000    0.000    0.000    0.000 
#    0.000    2.400    0.000    0.000    0.000    0.267 
#
# Total GULP energy -1487040.225369 kJ/mol
# GULP energy per Si atom -12392.001878 kJ/mol
# Density = 1.699324 g / cm^3
# Si number density = 17.032003 Si / 1000 Ang^3
#
#
#
# Elastic Constant Matrix: (Units=GPa)
#
#
# Indices 1 2 3 4 5 6 
#
# 1 73.4832 37.1225 30.5223 0.0000 0.0000 0.0000
# 2 37.1225 73.4842 30.5224 0.0000 0.0000 0.0000
# 3 30.5223 30.5224 67.3809 0.0000 0.0000 0.0000
# 4 0.0000 0.0000 0.0000 38.1782 0.0000 0.0000
# 5 0.0000 0.0000 0.0000 0.0000 38.2327 0.0000
# 6 0.0000 0.0000 0.0000 0.0000 0.0000 23.4868
#
#
#
# Elastic Compliance Matrix: (Units=1/GPa)
#
#
# Indices 1 2 3 4 5 6 
#
# 1 0.019779 -0.007723 -0.005461 0.000000 0.000000 0.000000
# 2 -0.007723 0.019778 -0.005461 0.000000 0.000000 0.000000
# 3 -0.005461 -0.005461 0.019788 0.000000 0.000000 0.000000
# 4 0.000000 0.000000 0.000000 0.026193 0.000000 0.000000
# 5 0.000000 0.000000 0.000000 0.000000 0.026156 0.000000
# 6 0.000000 0.000000 0.000000 0.000000 0.000000 0.042577
#
#
# Mechanical properties :
#
#
# Convention : Reuss Voigt Hill
#
# Bulk Modulus (GPa) = 45.34053 45.63140 45.48596
# Shear Modulus (GPa) = 25.13678 27.72496 26.43087
#
# Velocity S-wave (km/s) = 3.84585 4.03900 3.94361
# Velocity P-wave (km/s) = 6.81171 6.97145 6.89204
#
# Compressibility (1/GPa) = 0.02205532
#
# Stress axis : x y z
#
# Youngs Moduli (GPa) = 50.55995 50.56075 50.53528
#
# Poissons Ratio (x) = 0.39050 0.27596
# Poissons Ratio (y) = 0.39050 0.27595
# Poissons Ratio (z) = 0.27609 0.27609
#
# Static dielectric constant tensor:
#      x y z
#    x 3.245090 0.000000 0.000000 
#    y 0.000000 3.245140 0.000000 
#    z 0.000000 0.000000 3.617020 
# 
# 
# High freq. dielectric constant tensor:
#      x y z
#    x 1.647280 0.000000 0.000000 
#    y 0.000000 1.647280 0.000000 
#    z 0.000000 0.000000 1.649000 
# 
# From -- ./inp_files/5099.got.cif
#   From: 2010.03.12/outbox.cif.g09.slc.cpg/sg129_3_cif.got.tgz:5099.got - 2010.04.06 17:19:44.
