data_PCOD8315919
_publ_section_title
;
Structure prediction by ZEFSAII (Michael W. Deem and Ramdas Pophale) SiO2 
 PCOD8315919
Probable space group: P 42/M M C
;
_chemical_formula_sum "Si O2"
_cell_formula_units_Z 120
_cell_length_a 14.118540
_cell_length_b 14.118540
_cell_length_c 34.730891
_cell_angle_alpha 90.000000
_cell_angle_beta 90.000000
_cell_angle_gamma 90.000000
_cell_volume 6923.018660
_symmetry_space_group_name_H-M "P 42/M M C"
_symmetry_group_IT_number 131
_symmetry_cell_setting 'tetragonal'
loop_
_space_group_symop_operation_xyz
x,y,z
-x,-y,z
-y,x,1/2+z
y,-x,1/2+z
-x,y,-z
x,-y,-z
y,x,1/2-z
-y,-x,1/2-z
-x,-y,-z
x,y,-z
y,-x,1/2-z
-y,x,1/2-z
x,-y,z
-x,y,z
-y,-x,1/2+z
y,x,1/2+z
loop_
_atom_site_type_symbol
_atom_site_label
_atom_site_fract_x
_atom_site_fract_y
_atom_site_fract_z
Si Si1 0.610421 0.245141 0.955264
Si Si2 0.887392 0.892628 0.640291
Si Si3 0.607541 0.609643 0.390408
Si Si4 0.111923 0.230315 0.569378
Si Si5 0.210459 0.111306 0.216363
Si Si6 0.112423 0.104170 0.500000
Si Si7 0.391444 0.660741 0.693607
Si Si8 0.782780 0.398356 0.262782
O O1 0.500000 0.220448 0.951465
O O2 0.639349 0.332962 0.928036
O O3 0.666791 0.155669 0.938343
O O4 0.636019 0.267132 0.000000
O O5 0.850951 0.820913 0.607677
O O6 0.850659 0.843270 0.678892
O O7 0.000000 0.899675 0.639095
O O8 0.846188 0.000000 0.636079
O O9 0.624763 0.500000 0.379651
O O10 0.500000 0.628692 0.402596
O O11 0.633896 0.670398 0.351967
O O12 0.148601 0.159586 0.536857
O O13 0.000000 0.245297 0.569383
O O14 0.140912 0.140912 0.250000
O O15 0.314785 0.154937 0.219830
O O16 0.224025 0.000000 0.215596
O O17 0.000000 0.096501 0.500000
O O18 0.158107 0.000000 0.500000
O O19 0.500000 0.622395 0.697165
O O20 0.316616 0.591498 0.714175
O O21 0.381113 0.760753 0.717110
O O22 0.835339 0.500000 0.267615
#
# Coordination Sequence:
#
# PCOD8315919 Si02
#       8
#    16  16  16  16  16   8  16  16
#     4  10  21  34  48  71 105 143 176 206 246 305
#     4   9  19  35  54  75  98 128 170 223 272 306
#     4   9  18  32  51  74  98 130 171 214 257 297
#     4  10  19  32  50  74 103 134 168 209 256 310
#     4  11  22  37  54  74 102 140 185 223 260 308
#     4   9  16  28  49  73  96 123 157 205 263 312
#     4   9  17  32  53  77 103 129 167 213 259 306
#     4  10  20  33  51  78 110 140 169 209 263 317
#
# _framework density 17.333479000000001
#
# number of rings (size 3 to 8) (size 9 to 14) (size 15 to 20)
#    0.000    2.333    2.000    1.200    1.867    4.400 
#    0.000    4.667    0.000    2.400    0.000    0.000 
#    0.000    2.667    0.000    0.000    0.000    0.000 
#
# Total GULP energy -1486907.274949 kJ/mol
# GULP energy per Si atom -12390.893958 kJ/mol
# Density = 1.729403 g / cm^3
# Si number density = 17.333479 Si / 1000 Ang^3
#
#
#
# Elastic Constant Matrix: (Units=GPa)
#
#
# Indices 1 2 3 4 5 6 
#
# 1 74.9881 40.2872 52.1751 0.0000 0.0000 0.0000
# 2 40.2872 74.9881 52.1751 0.0000 0.0000 0.0000
# 3 52.1751 52.1751 157.5517 0.0000 0.0000 0.0000
# 4 0.0000 0.0000 0.0000 28.7075 0.0000 0.0000
# 5 0.0000 0.0000 0.0000 0.0000 28.7075 0.0000
# 6 0.0000 0.0000 0.0000 0.0000 0.0000 20.4716
#
#
#
# Elastic Compliance Matrix: (Units=1/GPa)
#
#
# Indices 1 2 3 4 5 6 
#
# 1 0.020603 -0.008214 -0.004103 0.000000 0.000000 0.000000
# 2 -0.008214 0.020603 -0.004103 0.000000 0.000000 0.000000
# 3 -0.004103 -0.004103 0.009064 0.000000 0.000000 0.000000
# 4 0.000000 0.000000 0.000000 0.034834 0.000000 0.000000
# 5 0.000000 0.000000 0.000000 0.000000 0.034834 0.000000
# 6 0.000000 0.000000 0.000000 0.000000 0.000000 0.048848
#
#
# Mechanical properties :
#
#
# Convention : Reuss Voigt Hill
#
# Bulk Modulus (GPa) = 57.36845 66.31144 61.83994
# Shear Modulus (GPa) = 24.10367 26.43668 25.27018
#
# Velocity S-wave (km/s) = 3.73310 3.90959 3.82236
# Velocity P-wave (km/s) = 7.19376 7.66285 7.43200
#
# Compressibility (1/GPa) = 0.01743118
#
# Stress axis : x y z
#
# Youngs Moduli (GPa) = 48.53618 48.53618 110.32143
#
# Poissons Ratio (x) = 0.39870 0.45261
# Poissons Ratio (y) = 0.39870 0.45261
# Poissons Ratio (z) = 0.19913 0.19913
#
# Static dielectric constant tensor:
#      x y z
#    x 3.067650 0.000000 0.000000 
#    y 0.000000 3.067650 0.000000 
#    z 0.000000 0.000000 3.465240 
# 
# 
# High freq. dielectric constant tensor:
#      x y z
#    x 1.647720 0.000000 0.000000 
#    y 0.000000 1.647720 0.000000 
#    z 0.000000 0.000000 1.683730 
# 
# From -- ./inp_files/13944.got.cif
#   From: 2010.03.12/outbox.cif.g09.slc.cpg/sg131_7_cif.got.tgz:13944.got - 2010.04.06 17:36:35.
