data_PCOD8315614
_publ_section_title
;
Structure prediction by ZEFSAII (Michael W. Deem and Ramdas Pophale) SiO2 
 PCOD8315614
Probable space group: P 4/N C C
;
_chemical_formula_sum "Si O2"
_cell_formula_units_Z 120
_cell_length_a 13.208499
_cell_length_b 13.208499
_cell_length_c 32.477278
_cell_angle_alpha 90.000000
_cell_angle_beta 90.000000
_cell_angle_gamma 90.000000
_cell_volume 5666.130308
_symmetry_space_group_name_H-M "P 4/N C C"
_symmetry_group_IT_number 130
_symmetry_cell_setting 'tetragonal'
loop_
_space_group_symop_operation_xyz
x,y,z
1/2-y,x,z
1/2-x,1/2-y,z
y,1/2-x,z
1/2+x,-y,1/2-z
-x,1/2+y,1/2-z
1/2+y,1/2+x,1/2-z
-y,-x,1/2-z
-x,-y,-z
1/2+y,-x,-z
1/2+x,1/2+y,-z
-y,1/2+x,-z
1/2-x,y,1/2+z
x,1/2-y,1/2+z
1/2-y,1/2-x,1/2+z
y,x,1/2+z
loop_
_atom_site_type_symbol
_atom_site_label
_atom_site_fract_x
_atom_site_fract_y
_atom_site_fract_z
Si Si1 0.415477 0.269921 0.822854
Si Si2 0.225903 0.528398 0.903345
Si Si3 0.463384 0.424430 0.441231
Si Si4 0.620515 0.843145 0.982925
Si Si5 0.592904 0.575090 0.398161
Si Si6 0.971252 0.271654 0.149813
Si Si7 0.733507 0.915751 0.269632
Si Si8 0.750000 0.250000 0.882427
O O1 0.336906 0.360602 0.830075
O O2 0.508222 0.284097 0.854293
O O3 0.460091 0.272930 0.776598
O O4 0.126351 0.498206 0.927771
O O5 0.315340 0.456800 0.919799
O O6 0.246502 0.648451 0.910342
O O7 0.462723 0.407264 0.491017
O O8 0.565596 0.475701 0.424943
O O9 0.610957 0.727529 0.996929
O O10 0.611360 0.841615 0.933528
O O11 0.502276 0.619381 0.369669
O O12 0.688887 0.546598 0.370487
O O13 0.852830 0.247262 0.144635
O O14 0.991732 0.274393 0.198575
O O15 0.641546 0.838870 0.276884
#
# Coordination Sequence:
#
# PCOD8315614 Si02
#       8
#    16  16  16  16  16  16  16   8
#     4   9  18  34  62 101 132 156 203 264 320 374
#     4  12  23  41  67  94 124 170 216 260 311 384
#     4  12  24  41  67  90 131 172 208 254 328 376
#     4  11  23  38  62 100 129 153 206 278 314 360
#     4  12  24  41  67  90 131 172 208 254 328 376
#     4  12  23  41  67  94 124 170 216 260 311 384
#     4   9  18  34  62 101 132 156 203 264 320 374
#     4  12  28  44  61  89 132 164 222 264 300 393
#
# _framework density 21.178476
#
# number of rings (size 3 to 8) (size 9 to 14) (size 15 to 20)
#    0.000    0.933    8.000    1.200    0.000    0.533 
#    0.000    2.000    0.000    6.400    0.000    0.000 
#    0.000    0.000    0.000    0.000    0.000    0.000 
#
# Total GULP energy -1487511.968558 kJ/mol
# GULP energy per Si atom -12395.933071 kJ/mol
# Density = 2.113027 g / cm^3
# Si number density = 21.178476 Si / 1000 Ang^3
#
#
#
# Elastic Constant Matrix: (Units=GPa)
#
#
# Indices 1 2 3 4 5 6 
#
# 1 57.3507 11.6214 13.6345 0.0000 0.0000 0.0000
# 2 11.6214 57.3507 13.6345 0.0000 0.0000 0.0000
# 3 13.6345 13.6345 95.9798 0.0000 0.0000 0.0000
# 4 0.0000 0.0000 0.0000 17.9775 0.0000 0.0000
# 5 0.0000 0.0000 0.0000 0.0000 17.9775 0.0000
# 6 0.0000 0.0000 0.0000 0.0000 0.0000 30.4138
#
#
#
# Elastic Compliance Matrix: (Units=1/GPa)
#
#
# Indices 1 2 3 4 5 6 
#
# 1 0.018615 -0.003253 -0.002182 0.000000 0.000000 0.000000
# 2 -0.003253 0.018615 -0.002182 0.000000 0.000000 0.000000
# 3 -0.002182 -0.002182 0.011039 0.000000 0.000000 0.000000
# 4 0.000000 0.000000 0.000000 0.055625 0.000000 0.000000
# 5 0.000000 0.000000 0.000000 0.000000 0.055625 0.000000
# 6 0.000000 0.000000 0.000000 0.000000 0.000000 0.032880
#
#
# Mechanical properties :
#
#
# Convention : Reuss Voigt Hill
#
# Bulk Modulus (GPa) = 30.27290 32.05136 31.16213
# Shear Modulus (GPa) = 22.86823 24.72649 23.79736
#
# Velocity S-wave (km/s) = 3.28958 3.42062 3.35574
# Velocity P-wave (km/s) = 5.36224 5.54686 5.45533
#
# Compressibility (1/GPa) = 0.03303285
#
# Stress axis : x y z
#
# Youngs Moduli (GPa) = 53.72132 53.72132 90.58923
#
# Poissons Ratio (x) = 0.17477 0.19768
# Poissons Ratio (y) = 0.17477 0.19768
# Poissons Ratio (z) = 0.11723 0.11723
#
# Static dielectric constant tensor:
#      x y z
#    x 3.679240 0.000000 0.000000 
#    y 0.000000 3.679240 0.000000 
#    z 0.000000 0.000000 3.788660 
# 
# 
# High freq. dielectric constant tensor:
#      x y z
#    x 1.821340 0.000000 0.000000 
#    y 0.000000 1.821340 0.000000 
#    z 0.000000 0.000000 1.830120 
# 
# From -- ./inp_files/4999.got.cif
#   From: 2010.03.12/outbox.cif.g09.slc.cpg/sg130_3_cif.got.tgz:4999.got - 2010.04.06 17:30:23.
