data_PCOD8315890
_publ_section_title
;
Structure prediction by ZEFSAII (Michael W. Deem and Ramdas Pophale) SiO2 
 PCOD8315890
Probable space group: P 42/M M C
;
_chemical_formula_sum "Si O2"
_cell_formula_units_Z 96
_cell_length_a 24.242613
_cell_length_b 24.242613
_cell_length_c 8.831717
_cell_angle_alpha 90.000000
_cell_angle_beta 90.000000
_cell_angle_gamma 90.000000
_cell_volume 5190.437925
_symmetry_space_group_name_H-M "P 42/M M C"
_symmetry_group_IT_number 131
_symmetry_cell_setting 'tetragonal'
loop_
_space_group_symop_operation_xyz
x,y,z
-x,-y,z
-y,x,1/2+z
y,-x,1/2+z
-x,y,-z
x,-y,-z
y,x,1/2-z
-y,-x,1/2-z
-x,-y,-z
x,y,-z
y,-x,1/2-z
-y,x,1/2-z
x,-y,z
-x,y,z
-y,-x,1/2+z
y,x,1/2+z
loop_
_atom_site_type_symbol
_atom_site_label
_atom_site_fract_x
_atom_site_fract_y
_atom_site_fract_z
Si Si1 0.643709 0.563512 0.829023
Si Si2 0.846464 0.358994 0.180078
Si Si3 0.233656 0.848155 0.321090
Si Si4 0.562547 0.241279 0.821864
Si Si5 0.438995 0.061058 0.319939
Si Si6 0.062973 0.145207 0.821171
O O1 0.593367 0.593367 0.750000
O O2 0.627592 0.500000 0.831924
O O3 0.696809 0.574511 0.726993
O O4 0.654030 0.585142 0.000000
O O5 0.850826 0.296303 0.240418
O O6 0.793218 0.390404 0.239253
O O7 0.898906 0.392291 0.245799
O O8 0.845330 0.359598 0.000000
O O9 0.205564 0.794437 0.250000
O O10 0.232797 0.841286 0.500000
O O11 0.200307 0.903416 0.272267
O O12 0.500000 0.223854 0.772640
O O13 0.569795 0.235209 0.000000
O O14 0.437164 0.060741 0.500000
O O15 0.500000 0.080458 0.266129
O O16 0.426676 0.000000 0.257130
O O17 0.091064 0.091064 0.750000
O O18 0.000000 0.150610 0.762412
O O19 0.064313 0.137830 0.000000
#
# Coordination Sequence:
#
# PCOD8315890 Si02
#       6
#    16  16  16  16  16  16
#     4  10  21  37  57  80 106 136 170 209 254 305
#     4  10  19  31  51  76  99 128 169 212 253 303
#     4   9  19  34  50  70  97 130 165 202 247 294
#     4  10  21  36  53  74 102 135 171 213 259 304
#     4   8  14  25  43  70 101 127 153 193 245 296
#     4   9  18  33  52  74 102 134 167 206 251 298
#
# _framework density 18.495549
#
# number of rings (size 3 to 8) (size 9 to 14) (size 15 to 20)
#    0.000    2.667    0.000    2.000    0.000    5.333 
#    0.000    6.667    0.000    0.500    0.000    4.667 
#    0.000    0.000    0.000    0.000    0.000    0.000 
#
# Total GULP energy -1190127.201676 kJ/mol
# GULP energy per Si atom -12397.158351 kJ/mol
# Density = 1.845345 g / cm^3
# Si number density = 18.495549 Si / 1000 Ang^3
#
#
#
# Elastic Constant Matrix: (Units=GPa)
#
#
# Indices 1 2 3 4 5 6 
#
# 1 140.7882 85.6885 21.4691 0.0000 0.0000 0.0000
# 2 85.6885 140.7900 21.4684 0.0000 0.0000 0.0000
# 3 21.4691 21.4684 15.2300 0.0000 0.0000 0.0000
# 4 0.0000 0.0000 0.0000 23.1044 0.0000 0.0000
# 5 0.0000 0.0000 0.0000 0.0000 23.1043 0.0000
# 6 0.0000 0.0000 0.0000 0.0000 0.0000 11.3133
#
#
#
# Elastic Compliance Matrix: (Units=1/GPa)
#
#
# Indices 1 2 3 4 5 6 
#
# 1 0.012087 -0.006061 -0.008495 0.000000 0.000000 0.000000
# 2 -0.006061 0.012087 -0.008494 0.000000 0.000000 0.000000
# 3 -0.008495 -0.008494 0.089608 0.000000 0.000000 0.000000
# 4 0.000000 0.000000 0.000000 0.043282 0.000000 0.000000
# 5 0.000000 0.000000 0.000000 0.000000 0.043282 0.000000
# 6 0.000000 0.000000 0.000000 0.000000 0.000000 0.088391
#
#
# Mechanical properties :
#
#
# Convention : Reuss Voigt Hill
#
# Bulk Modulus (GPa) = 14.77489 61.56223 38.16856
# Shear Modulus (GPa) = 13.99000 22.71656 18.35328
#
# Velocity S-wave (km/s) = 2.75325 3.50840 3.15351
# Velocity P-wave (km/s) = 4.25592 7.05471 5.82588
#
# Compressibility (1/GPa) = 0.06768240
#
# Stress axis : x y z
#
# Youngs Moduli (GPa) = 82.73055 82.73328 11.15973
#
# Poissons Ratio (x) = 0.50148 0.09480
# Poissons Ratio (y) = 0.50146 0.09479
# Poissons Ratio (z) = 0.70279 0.70271
#
# Static dielectric constant tensor:
#      x y z
#    x 3.570350 0.000000 0.000000 
#    y 0.000000 3.570350 0.000000 
#    z 0.000000 0.000000 3.189030 
# 
# 
# High freq. dielectric constant tensor:
#      x y z
#    x 1.721090 0.000000 0.000000 
#    y 0.000000 1.721090 0.000000 
#    z 0.000000 0.000000 1.696080 
# 
# From -- ./inp_files/2208.got.cif
#   From: 2010.03.12/outbox.cif.g09.slc.cpg/sg131_2_cif.got.tgz:2208.got - 2010.04.06 17:36:35.
