data_PCOD8315124
_publ_section_title
;
Structure prediction by ZEFSAII (Michael W. Deem and Ramdas Pophale) SiO2 
 PCOD8315124
Probable space group: P 4/N M M
;
_chemical_formula_sum "Si O2"
_cell_formula_units_Z 96
_cell_length_a 15.492767
_cell_length_b 15.492767
_cell_length_c 22.063251
_cell_angle_alpha 90.000000
_cell_angle_beta 90.000000
_cell_angle_gamma 90.000000
_cell_volume 5295.750119
_symmetry_space_group_name_H-M "P 4/N M M"
_symmetry_group_IT_number 129
_symmetry_cell_setting 'tetragonal'
loop_
_space_group_symop_operation_xyz
x,y,z
1/2-y,x,z
1/2-x,1/2-y,z
y,1/2-x,z
1/2+x,-y,-z
-x,1/2+y,-z
1/2+y,1/2+x,-z
-y,-x,-z
-x,-y,-z
1/2+y,-x,-z
1/2+x,1/2+y,-z
-y,1/2+x,-z
1/2-x,y,z
x,1/2-y,z
1/2-y,1/2-x,z
y,x,z
loop_
_atom_site_type_symbol
_atom_site_label
_atom_site_fract_x
_atom_site_fract_y
_atom_site_fract_z
Si Si1 0.012502 0.347498 0.951661
Si Si2 0.651648 0.511730 0.787991
Si Si3 0.041643 0.905036 0.401062
Si Si4 0.522858 0.656270 0.521877
Si Si5 0.348539 0.846595 0.291582
Si Si6 0.942377 0.346647 0.081725
O O1 0.038110 0.250000 0.932936
O O2 0.086738 0.413263 0.928710
O O3 0.920113 0.368900 0.920795
O O4 0.004885 0.356149 0.024058
O O5 0.750000 0.539292 0.772046
O O6 0.586132 0.586132 0.764511
O O7 0.628690 0.419481 0.757783
O O8 0.640029 0.501568 0.859702
O O9 0.084227 0.852835 0.346600
O O10 0.028297 0.841649 0.458133
O O11 0.106509 0.977825 0.423835
O O12 0.952465 0.952465 0.380645
O O13 0.537507 0.750000 0.547776
O O14 0.614834 0.614834 0.507774
O O15 0.250000 0.858571 0.314761
O O16 0.359450 0.750000 0.263403
O O17 0.899977 0.250000 0.082601
#
# Coordination Sequence:
#
# PCOD8315124 Si02
#       6
#    16  16  16  16  16  16
#     4  10  19  31  49  72 100 132 163 198 239 287
#     4  10  20  34  52  73  99 129 160 197 239 286
#     4   9  17  30  47  65  87 117 153 190 228 275
#     4   9  17  28  44  66  90 117 147 182 227 277
#     4  10  20  32  47  68  93 122 156 196 240 281
#     4   9  18  33  52  72  95 125 162 204 248 289
#
# _framework density 18.127742999999999
#
# number of rings (size 3 to 8) (size 9 to 14) (size 15 to 20)
#    0.000    2.500    0.000    4.500    0.000    1.500 
#    0.000    3.333    0.000    7.000    0.000    2.333 
#    0.000    3.000    0.000    0.333    0.000    0.000 
#
# Total GULP energy -1189739.063245 kJ/mol
# GULP energy per Si atom -12393.115242 kJ/mol
# Density = 1.808648 g / cm^3
# Si number density = 18.127743 Si / 1000 Ang^3
#
#
#
# Elastic Constant Matrix: (Units=GPa)
#
#
# Indices 1 2 3 4 5 6 
#
# 1 109.7325 58.6587 16.0588 0.0000 0.0000 0.0000
# 2 58.6587 109.7325 16.0588 0.0000 0.0000 0.0000
# 3 16.0588 16.0588 36.4937 0.0000 0.0000 0.0000
# 4 0.0000 0.0000 0.0000 16.7372 0.0000 0.0000
# 5 0.0000 0.0000 0.0000 0.0000 16.7372 0.0000
# 6 0.0000 0.0000 0.0000 0.0000 0.0000 21.1668
#
#
#
# Elastic Compliance Matrix: (Units=1/GPa)
#
#
# Indices 1 2 3 4 5 6 
#
# 1 0.013031 -0.006548 -0.002853 0.000000 0.000000 0.000000
# 2 -0.006548 0.013031 -0.002853 0.000000 0.000000 0.000000
# 3 -0.002853 -0.002853 0.029913 0.000000 0.000000 0.000000
# 4 0.000000 0.000000 0.000000 0.059747 0.000000 0.000000
# 5 0.000000 0.000000 0.000000 0.000000 0.059747 0.000000
# 6 0.000000 0.000000 0.000000 0.000000 0.000000 0.047244
#
#
# Mechanical properties :
#
#
# Convention : Reuss Voigt Hill
#
# Bulk Modulus (GPa) = 31.77904 48.61237 40.19570
# Shear Modulus (GPa) = 19.40169 21.94038 20.67104
#
# Velocity S-wave (km/s) = 3.27506 3.48274 3.38049
# Velocity P-wave (km/s) = 5.64535 6.56105 6.12035
#
# Compressibility (1/GPa) = 0.03146728
#
# Stress axis : x y z
#
# Youngs Moduli (GPa) = 76.73960 76.73960 33.43076
#
# Poissons Ratio (x) = 0.50252 0.09537
# Poissons Ratio (y) = 0.50252 0.09537
# Poissons Ratio (z) = 0.21891 0.21891
#
# Static dielectric constant tensor:
#      x y z
#    x 3.340210 0.000000 0.000000 
#    y 0.000000 3.340210 0.000000 
#    z 0.000000 0.000000 3.125310 
# 
# 
# High freq. dielectric constant tensor:
#      x y z
#    x 1.695280 0.000000 0.000000 
#    y 0.000000 1.695280 0.000000 
#    z 0.000000 0.000000 1.683130 
# 
# From -- ./inp_files/6513.got.cif
#   From: 2010.03.12/outbox.cif.g09.slc.cpg/sg129_4_cif.got.tgz:6513.got - 2010.04.06 17:19:44.
