data_PCOD8315040
_publ_section_title
;
Structure prediction by ZEFSAII (Michael W. Deem and Ramdas Pophale) SiO2 
 PCOD8315040
Probable space group: P 4/N M M
;
_chemical_formula_sum "Si O2"
_cell_formula_units_Z 80
_cell_length_a 15.265463
_cell_length_b 15.265463
_cell_length_c 21.755642
_cell_angle_alpha 90.000000
_cell_angle_beta 90.000000
_cell_angle_gamma 90.000000
_cell_volume 5069.812123
_symmetry_space_group_name_H-M "P 4/N M M"
_symmetry_group_IT_number 129
_symmetry_cell_setting 'tetragonal'
loop_
_space_group_symop_operation_xyz
x,y,z
1/2-y,x,z
1/2-x,1/2-y,z
y,1/2-x,z
1/2+x,-y,-z
-x,1/2+y,-z
1/2+y,1/2+x,-z
-y,-x,-z
-x,-y,-z
1/2+y,-x,-z
1/2+x,1/2+y,-z
-y,1/2+x,-z
1/2-x,y,z
x,1/2-y,z
1/2-y,1/2-x,z
y,x,z
loop_
_atom_site_type_symbol
_atom_site_label
_atom_site_fract_x
_atom_site_fract_y
_atom_site_fract_z
Si Si1 0.344304 0.484940 0.528268
Si Si2 0.510495 0.651612 0.706014
Si Si3 0.504023 0.852241 0.845685
Si Si4 0.591811 0.151591 0.412436
Si Si5 0.347257 0.646707 0.930769
O O1 0.250000 0.439591 0.538967
O O2 0.420371 0.420371 0.551510
O O3 0.356673 0.505957 0.456037
O O4 0.341902 0.576054 0.566447
O O5 0.545386 0.750000 0.698733
O O6 0.591638 0.591638 0.689195
O O7 0.475646 0.635078 0.774880
O O8 0.432285 0.633407 0.658385
O O9 0.524792 0.750000 0.860551
O O10 0.590835 0.909166 0.860936
O O11 0.421811 0.889127 0.884827
O O12 0.632349 0.250000 0.419306
O O13 0.250000 0.606701 0.916241
O O14 0.340178 0.750000 0.923407
O O15 0.376834 0.623167 0.000000
#
# Coordination Sequence:
#
# PCOD8315040 Si02
#       5
#    16  16  16  16  16
#     4  10  19  30  45  63  84 110 139 172 208 248
#     4   9  16  26  40  58  83 112 139 168 200 239
#     4   9  17  27  40  61  87 114 140 164 196 240
#     4   9  17  30  47  63  80 106 138 172 212 250
#     4   8  14  26  43  60  79 105 138 176 212 240
#
# _framework density 15.779679
#
# number of rings (size 3 to 8) (size 9 to 14) (size 15 to 20)
#    0.000    3.000    0.000    3.000    0.000    1.400 
#    0.000    5.000    0.000    7.200    0.000    0.000 
#    0.000    0.400    0.000    0.000    0.000    2.200 
#
# Total GULP energy -991270.626495 kJ/mol
# GULP energy per Si atom -12390.882831 kJ/mol
# Density = 1.574376 g / cm^3
# Si number density = 15.779679 Si / 1000 Ang^3
#
#
#
# Elastic Constant Matrix: (Units=GPa)
#
#
# Indices 1 2 3 4 5 6 
#
# 1 69.9984 37.3203 36.8718 0.0000 0.0000 0.0000
# 2 37.3203 69.9985 36.8718 0.0000 0.0000 0.0000
# 3 36.8718 36.8718 84.8043 0.0000 0.0000 0.0000
# 4 0.0000 0.0000 0.0000 17.7893 0.0000 0.0000
# 5 0.0000 0.0000 0.0000 0.0000 17.7892 0.0000
# 6 0.0000 0.0000 0.0000 0.0000 0.0000 12.0486
#
#
#
# Elastic Compliance Matrix: (Units=1/GPa)
#
#
# Indices 1 2 3 4 5 6 
#
# 1 0.021945 -0.008657 -0.005777 0.000000 0.000000 0.000000
# 2 -0.008657 0.021945 -0.005777 0.000000 0.000000 0.000000
# 3 -0.005777 -0.005777 0.016816 0.000000 0.000000 0.000000
# 4 0.000000 0.000000 0.000000 0.056214 0.000000 0.000000
# 5 0.000000 0.000000 0.000000 0.000000 0.056214 0.000000
# 6 0.000000 0.000000 0.000000 0.000000 0.000000 0.082997
#
#
# Mechanical properties :
#
#
# Convention : Reuss Voigt Hill
#
# Bulk Modulus (GPa) = 49.30491 49.65880 49.48186
# Shear Modulus (GPa) = 16.48457 17.10790 16.79624
#
# Velocity S-wave (km/s) = 3.23564 3.29625 3.26609
# Velocity P-wave (km/s) = 6.72851 6.78420 6.75641
#
# Compressibility (1/GPa) = 0.02028196
#
# Stress axis : x y z
#
# Youngs Moduli (GPa) = 45.56892 45.56906 59.46794
#
# Poissons Ratio (x) = 0.39448 0.34357
# Poissons Ratio (y) = 0.39448 0.34357
# Poissons Ratio (z) = 0.26327 0.26327
#
# Static dielectric constant tensor:
#      x y z
#    x 2.935290 0.000000 0.000000 
#    y 0.000000 2.935280 0.000000 
#    z 0.000000 0.000000 3.139520 
# 
# 
# High freq. dielectric constant tensor:
#      x y z
#    x 1.586100 0.000000 0.000000 
#    y 0.000000 1.586100 0.000000 
#    z 0.000000 0.000000 1.601360 
# 
# From -- ./inp_files/6337.got.cif
#   From: 2010.03.12/outbox.cif.g09.slc.cpg/sg129_4_cif.got.tgz:6337.got - 2010.04.06 17:19:44.
