data_PCOD8315039
_publ_section_title
;
Structure prediction by ZEFSAII (Michael W. Deem and Ramdas Pophale) SiO2 
 PCOD8315039
Probable space group: P 4/N M M
;
_chemical_formula_sum "Si O2"
_cell_formula_units_Z 96
_cell_length_a 17.356503
_cell_length_b 17.356503
_cell_length_c 22.257928
_cell_angle_alpha 90.000000
_cell_angle_beta 90.000000
_cell_angle_gamma 90.000000
_cell_volume 6705.160665
_symmetry_space_group_name_H-M "P 4/N M M"
_symmetry_group_IT_number 129
_symmetry_cell_setting 'tetragonal'
loop_
_space_group_symop_operation_xyz
x,y,z
1/2-y,x,z
1/2-x,1/2-y,z
y,1/2-x,z
1/2+x,-y,-z
-x,1/2+y,-z
1/2+y,1/2+x,-z
-y,-x,-z
-x,-y,-z
1/2+y,-x,-z
1/2+x,1/2+y,-z
-y,1/2+x,-z
1/2-x,y,z
x,1/2-y,z
1/2-y,1/2-x,z
y,x,z
loop_
_atom_site_type_symbol
_atom_site_label
_atom_site_fract_x
_atom_site_fract_y
_atom_site_fract_z
Si Si1 0.660628 0.538971 0.372195
Si Si2 0.342002 0.839676 0.194377
Si Si3 0.038969 0.161173 0.376258
Si Si4 0.564633 0.062026 0.710955
Si Si5 0.837778 0.036580 0.497622
Si Si6 0.841291 0.334756 0.062874
O O1 0.750000 0.550167 0.360943
O O2 0.621214 0.621214 0.361655
O O3 0.629425 0.477761 0.324735
O O4 0.640231 0.512057 0.439206
O O5 0.250000 0.854291 0.200033
O O6 0.358915 0.750000 0.210628
O O7 0.389918 0.898643 0.234734
O O8 0.374694 0.858824 0.126934
O O9 0.050061 0.250000 0.361099
O O10 0.120114 0.120114 0.364090
O O11 0.973766 0.127662 0.333157
O O12 0.016079 0.145990 0.444940
O O13 0.503416 0.996585 0.732877
O O14 0.886229 0.113772 0.500000
O O15 0.750000 0.064207 0.495310
O O16 0.750000 0.329013 0.054575
O O17 0.877617 0.250000 0.068422
O O18 0.873764 0.373764 0.000000
#
# Coordination Sequence:
#
# PCOD8315039 Si02
#       6
#    16  16  16  16  16  16
#     4  10  20  32  47  64  81 105 135 169 207 245
#     4   9  16  26  42  63  86 108 132 170 208 233
#     4  10  20  32  47  64  81 105 135 169 207 245
#     4  10  19  30  44  59  82 113 141 164 194 246
#     4  10  19  32  48  64  84 107 134 167 204 250
#     4   7  10  18  34  57  82 106 132 161 196 236
#
# _framework density 14.31733
#
# number of rings (size 3 to 8) (size 9 to 14) (size 15 to 20)
#    0.000    2.667    1.667    3.000    0.000    1.167 
#    0.000    0.000    0.000    3.500    0.000    0.000 
#    0.000    0.000    0.000    0.000    0.000    0.000 
#
# Total GULP energy -1189371.884250 kJ/mol
# GULP energy per Si atom -12389.290461 kJ/mol
# Density = 1.428474 g / cm^3
# Si number density = 14.317330 Si / 1000 Ang^3
#
#
#
# Elastic Constant Matrix: (Units=GPa)
#
#
# Indices 1 2 3 4 5 6 
#
# 1 66.7439 50.0218 39.2799 0.0000 0.0000 0.0000
# 2 50.0218 66.7375 39.2817 0.0000 0.0000 0.0000
# 3 39.2799 39.2817 105.5555 0.0000 0.0000 0.0000
# 4 0.0000 0.0000 0.0000 109.8125 0.0000 0.0000
# 5 0.0000 0.0000 0.0000 0.0000 108.0873 0.0000
# 6 0.0000 0.0000 0.0000 0.0000 0.0000 13.5852
#
#
#
# Elastic Compliance Matrix: (Units=1/GPa)
#
#
# Indices 1 2 3 4 5 6 
#
# 1 0.035616 -0.024194 -0.004250 0.000000 0.000000 0.000000
# 2 -0.024194 0.035621 -0.004253 0.000000 0.000000 0.000000
# 3 -0.004250 -0.004253 0.012638 0.000000 0.000000 0.000000
# 4 0.000000 0.000000 0.000000 0.009106 0.000000 0.000000
# 5 0.000000 0.000000 0.000000 0.000000 0.009252 0.000000
# 6 0.000000 0.000000 0.000000 0.000000 0.000000 0.073609
#
#
# Mechanical properties :
#
#
# Convention : Reuss Voigt Hill
#
# Bulk Modulus (GPa) = 54.10804 55.13377 54.62090
# Shear Modulus (GPa) = 20.21036 53.66056 36.93546
#
# Velocity S-wave (km/s) = 3.76120 6.12869 5.08466
# Velocity P-wave (km/s) = 7.53235 9.41664 8.52670
#
# Compressibility (1/GPa) = 0.01848154
#
# Stress axis : x y z
#
# Youngs Moduli (GPa) = 28.07717 28.07298 79.12608
#
# Poissons Ratio (x) = 0.67919 0.33630
# Poissons Ratio (y) = 0.67929 0.33653
# Poissons Ratio (z) = 0.11933 0.11940
#
# Static dielectric constant tensor:
#      x y z
#    x 2.628840 0.000000 0.000000 
#    y 0.000000 2.628840 0.000000 
#    z 0.000000 0.000000 3.014720 
# 
# 
# High freq. dielectric constant tensor:
#      x y z
#    x 1.530060 0.000000 0.000000 
#    y 0.000000 1.530060 0.000000 
#    z 0.000000 0.000000 1.549570 
# 
# From -- ./inp_files/5706.got.cif
#   From: 2010.03.12/outbox.cif.g09.slc.cpg/sg129_3_cif.got.tgz:5706.got - 2010.04.06 17:19:44.
