data_PCOD8315529
_publ_section_title
;
Structure prediction by ZEFSAII (Michael W. Deem and Ramdas Pophale) SiO2 
 PCOD8315529
Probable space group: P 4/N C C
;
_chemical_formula_sum "Si O2"
_cell_formula_units_Z 96
_cell_length_a 15.600750
_cell_length_b 15.600750
_cell_length_c 22.460268
_cell_angle_alpha 90.000000
_cell_angle_beta 90.000000
_cell_angle_gamma 90.000000
_cell_volume 5466.456403
_symmetry_space_group_name_H-M "P 4/N C C"
_symmetry_group_IT_number 130
_symmetry_cell_setting 'tetragonal'
loop_
_space_group_symop_operation_xyz
x,y,z
1/2-y,x,z
1/2-x,1/2-y,z
y,1/2-x,z
1/2+x,-y,1/2-z
-x,1/2+y,1/2-z
1/2+y,1/2+x,1/2-z
-y,-x,1/2-z
-x,-y,-z
1/2+y,-x,-z
1/2+x,1/2+y,-z
-y,1/2+x,-z
1/2-x,y,1/2+z
x,1/2-y,1/2+z
1/2-y,1/2-x,1/2+z
y,x,1/2+z
loop_
_atom_site_type_symbol
_atom_site_label
_atom_site_fract_x
_atom_site_fract_y
_atom_site_fract_z
Si Si1 0.787591 0.122232 0.984749
Si Si2 0.772951 0.611856 0.787308
Si Si3 0.515360 0.765129 0.897970
Si Si4 0.494982 0.104249 0.939397
Si Si5 0.593681 0.936243 0.945110
Si Si6 0.201344 0.381730 0.347813
O O1 0.769135 0.085122 0.917985
O O2 0.701957 0.148571 0.019958
O O3 0.828586 0.048438 0.023105
O O4 0.846013 0.681016 0.801009
O O5 0.771800 0.528353 0.830628
O O6 0.792918 0.584412 0.719941
O O7 0.557688 0.857475 0.906969
O O8 0.562014 0.696236 0.940554
O O9 0.458042 0.158891 0.884775
O O10 0.551458 0.023278 0.917540
O O11 0.422302 0.068869 0.984085
O O12 0.142188 0.299473 0.361943
#
# Coordination Sequence:
#
# PCOD8315529 Si02
#       6
#    16  16  16  16  16  16
#     4  10  21  36  56  76 105 150 186 219 272 338
#     4   9  17  33  54  78 108 143 181 219 275 337
#     4  11  19  34  55  81 113 140 183 226 284 331
#     4  10  21  37  53  79 116 142 184 232 281 330
#     4  10  22  32  53  85 112 144 176 232 284 337
#     4   9  20  35  56  80 108 148 182 224 283 340
#
# _framework density 17.561651000000001
#
# number of rings (size 3 to 8) (size 9 to 14) (size 15 to 20)
#    0.000    2.167    3.333    1.000    4.667    0.333 
#    0.000    0.833    0.000    3.000    0.000    2.333 
#    0.000    0.000    0.000    0.000    0.000    0.000 
#
# Total GULP energy -1189287.257812 kJ/mol
# GULP energy per Si atom -12388.408936 kJ/mol
# Density = 1.752168 g / cm^3
# Si number density = 17.561651 Si / 1000 Ang^3
#
#
#
# Elastic Constant Matrix: (Units=GPa)
#
#
# Indices 1 2 3 4 5 6 
#
# 1 74.0988 36.8969 42.7745 0.0000 0.0000 0.0000
# 2 36.8969 74.0988 42.7745 0.0000 0.0000 0.0000
# 3 42.7745 42.7745 93.8956 0.0000 0.0000 0.0000
# 4 0.0000 0.0000 0.0000 25.3208 0.0000 0.0000
# 5 0.0000 0.0000 0.0000 0.0000 25.3208 0.0000
# 6 0.0000 0.0000 0.0000 0.0000 0.0000 28.1770
#
#
#
# Elastic Compliance Matrix: (Units=1/GPa)
#
#
# Indices 1 2 3 4 5 6 
#
# 1 0.020382 -0.006498 -0.006325 0.000000 0.000000 0.000000
# 2 -0.006498 0.020382 -0.006325 0.000000 0.000000 0.000000
# 3 -0.006325 -0.006325 0.016413 0.000000 0.000000 0.000000
# 4 0.000000 0.000000 0.000000 0.039493 0.000000 0.000000
# 5 0.000000 0.000000 0.000000 0.000000 0.039493 0.000000
# 6 0.000000 0.000000 0.000000 0.000000 0.000000 0.035490
#
#
# Mechanical properties :
#
#
# Convention : Reuss Voigt Hill
#
# Bulk Modulus (GPa) = 52.96224 54.10943 53.53584
# Shear Modulus (GPa) = 23.12203 23.74022 23.43113
#
# Velocity S-wave (km/s) = 3.63246 3.68070 3.65666
# Velocity P-wave (km/s) = 6.91494 6.99582 6.95550
#
# Compressibility (1/GPa) = 0.01888138
#
# Stress axis : x y z
#
# Youngs Moduli (GPa) = 49.06205 49.06205 60.92750
#
# Poissons Ratio (x) = 0.31881 0.38537
# Poissons Ratio (y) = 0.31881 0.38537
# Poissons Ratio (z) = 0.31032 0.31032
#
# Static dielectric constant tensor:
#      x y z
#    x 3.331610 0.000000 0.000000 
#    y 0.000000 3.331610 0.000000 
#    z 0.000000 0.000000 3.220140 
# 
# 
# High freq. dielectric constant tensor:
#      x y z
#    x 1.676700 0.000000 0.000000 
#    y 0.000000 1.676700 0.000000 
#    z 0.000000 0.000000 1.657300 
# 
# From -- ./inp_files/3779.got.cif
#   From: 2010.03.12/outbox.cif.g09.slc.cpg/sg130_2_cif.got.tgz:3779.got - 2010.04.06 17:30:23.
