data_PCOD8315927
_publ_section_title
;
Structure prediction by ZEFSAII (Michael W. Deem and Ramdas Pophale) SiO2 
 PCOD8315927
Probable space group: P 42/M M C
;
_chemical_formula_sum "Si O2"
_cell_formula_units_Z 88
_cell_length_a 14.465211
_cell_length_b 14.465211
_cell_length_c 25.666484
_cell_angle_alpha 90.000000
_cell_angle_beta 90.000000
_cell_angle_gamma 90.000000
_cell_volume 5370.514896
_symmetry_space_group_name_H-M "P 42/M M C"
_symmetry_group_IT_number 131
_symmetry_cell_setting 'tetragonal'
loop_
_space_group_symop_operation_xyz
x,y,z
-x,-y,z
-y,x,1/2+z
y,-x,1/2+z
-x,y,-z
x,-y,-z
y,x,1/2-z
-y,-x,1/2-z
-x,-y,-z
x,y,-z
y,-x,1/2-z
-y,x,1/2-z
x,-y,z
-x,y,z
-y,-x,1/2+z
y,x,1/2+z
loop_
_atom_site_type_symbol
_atom_site_label
_atom_site_fract_x
_atom_site_fract_y
_atom_site_fract_z
Si Si1 0.275002 0.897633 0.438570
Si Si2 0.392327 0.607674 0.750000
Si Si3 0.272705 0.392791 0.060775
Si Si4 0.897751 0.397494 0.609802
Si Si5 0.100033 0.791785 0.560397
Si Si6 0.703103 0.394261 0.353489
O O1 0.262340 0.905941 0.500000
O O2 0.362135 0.832261 0.425743
O O3 0.182140 0.851709 0.413598
O O4 0.290733 0.000000 0.414444
O O5 0.500000 0.628153 0.741703
O O6 0.339515 0.647379 0.699425
O O7 0.282825 0.500000 0.074405
O O8 0.342819 0.334059 0.095423
O O9 0.294889 0.372867 0.000000
O O10 0.889380 0.500000 0.583781
O O11 0.884008 0.318142 0.566790
O O12 0.814712 0.385814 0.651443
O O13 0.000000 0.387767 0.636400
O O14 0.099399 0.813330 0.500000
O O15 0.000000 0.820560 0.584627
O O16 0.670800 0.500000 0.359374
#
# Coordination Sequence:
#
# PCOD8315927 Si02
#       6
#    16   8  16  16  16  16
#     4   9  17  29  43  60  86 121 160 198 237 281
#     4   9  18  32  50  72  94 120 157 194 228 268
#     4  10  20  32  46  67  95 126 160 196 236 282
#     4   9  17  28  44  68  95 122 151 182 224 281
#     4   9  16  26  41  63  92 123 156 193 230 273
#     4  10  19  32  51  72  96 126 157 192 233 276
#
# _framework density 16.385767000000001
#
# number of rings (size 3 to 8) (size 9 to 14) (size 15 to 20)
#    0.000    2.636    1.818    0.545    0.000    2.545 
#    0.000    8.182    0.000    1.091    0.000    2.545 
#    0.000    0.000    0.000    0.000    0.000    0.000 
#
# Total GULP energy -1090239.585063 kJ/mol
# GULP energy per Si atom -12389.086194 kJ/mol
# Density = 1.634847 g / cm^3
# Si number density = 16.385767 Si / 1000 Ang^3
#
#
#
# Elastic Constant Matrix: (Units=GPa)
#
#
# Indices 1 2 3 4 5 6 
#
# 1 97.1494 37.5606 33.5338 0.0000 0.0000 0.0000
# 2 37.5606 97.1490 33.5339 0.0000 0.0000 0.0000
# 3 33.5338 33.5339 52.2855 0.0000 0.0000 0.0000
# 4 0.0000 0.0000 0.0000 11.2911 0.0000 0.0000
# 5 0.0000 0.0000 0.0000 0.0000 11.2912 0.0000
# 6 0.0000 0.0000 0.0000 0.0000 0.0000 22.7213
#
#
#
# Elastic Compliance Matrix: (Units=1/GPa)
#
#
# Indices 1 2 3 4 5 6 
#
# 1 0.013844 -0.002938 -0.006994 0.000000 0.000000 0.000000
# 2 -0.002938 0.013844 -0.006995 0.000000 0.000000 0.000000
# 3 -0.006994 -0.006995 0.028098 0.000000 0.000000 0.000000
# 4 0.000000 0.000000 0.000000 0.088565 0.000000 0.000000
# 5 0.000000 0.000000 0.000000 0.000000 0.088565 0.000000
# 6 0.000000 0.000000 0.000000 0.000000 0.000000 0.044012
#
#
# Mechanical properties :
#
#
# Convention : Reuss Voigt Hill
#
# Bulk Modulus (GPa) = 45.59712 50.64892 48.12302
# Shear Modulus (GPa) = 15.71877 18.52442 17.12160
#
# Velocity S-wave (km/s) = 3.10061 3.36597 3.23601
# Velocity P-wave (km/s) = 6.38013 6.78850 6.58748
#
# Compressibility (1/GPa) = 0.02193121
#
# Stress axis : x y z
#
# Youngs Moduli (GPa) = 72.23520 72.23470 35.59009
#
# Poissons Ratio (x) = 0.21223 0.24893
# Poissons Ratio (y) = 0.21223 0.24894
# Poissons Ratio (z) = 0.50524 0.50525
#
# Static dielectric constant tensor:
#      x y z
#    x 3.399990 0.000000 0.000000 
#    y 0.000000 3.400000 0.000000 
#    z 0.000000 0.000000 2.654120 
# 
# 
# High freq. dielectric constant tensor:
#      x y z
#    x 1.641140 0.000000 0.000000 
#    y 0.000000 1.641140 0.000000 
#    z 0.000000 0.000000 1.562810 
# 
# From -- ./inp_files/11068.got.cif
#   From: 2010.03.12/outbox.cif.g09.slc.cpg/sg131_6_cif.got.tgz:11068.got - 2010.04.06 17:36:35.
