data_PCOD8315243
_publ_section_title
;
Structure prediction by ZEFSAII (Michael W. Deem and Ramdas Pophale) SiO2 
 PCOD8315243
Probable space group: P 4/N M M
;
_chemical_formula_sum "Si O2"
_cell_formula_units_Z 112
_cell_length_a 13.862322
_cell_length_b 13.862322
_cell_length_c 36.109802
_cell_angle_alpha 90.000000
_cell_angle_beta 90.000000
_cell_angle_gamma 90.000000
_cell_volume 6939.002953
_symmetry_space_group_name_H-M "P 4/N M M"
_symmetry_group_IT_number 129
_symmetry_cell_setting 'tetragonal'
loop_
_space_group_symop_operation_xyz
x,y,z
1/2-y,x,z
1/2-x,1/2-y,z
y,1/2-x,z
1/2+x,-y,-z
-x,1/2+y,-z
1/2+y,1/2+x,-z
-y,-x,-z
-x,-y,-z
1/2+y,-x,-z
1/2+x,1/2+y,-z
-y,1/2+x,-z
1/2-x,y,z
x,1/2-y,z
1/2-y,1/2-x,z
y,x,z
loop_
_atom_site_type_symbol
_atom_site_label
_atom_site_fract_x
_atom_site_fract_y
_atom_site_fract_z
Si Si1 0.856966 0.135892 0.959309
Si Si2 0.515992 0.139436 0.688001
Si Si3 0.643307 0.134748 0.540323
Si Si4 0.860986 0.486260 0.394060
Si Si5 0.522495 0.364663 0.170933
Si Si6 0.865062 0.021942 0.110722
Si Si7 0.862447 0.141376 0.757246
O O1 0.750000 0.091424 0.951369
O O2 0.846845 0.250000 0.958651
O O3 0.933711 0.102785 0.928701
O O4 0.895611 0.104390 0.000000
O O5 0.487729 0.250000 0.693487
O O6 0.417867 0.082134 0.693760
O O7 0.560471 0.122589 0.646782
O O8 0.592094 0.105412 0.718731
O O9 0.602047 0.102047 0.500000
O O10 0.750000 0.092160 0.545910
O O11 0.646961 0.250000 0.541306
O O12 0.580998 0.092914 0.574213
O O13 0.750000 0.504366 0.402526
O O14 0.909822 0.590179 0.395824
O O15 0.505163 0.250000 0.166228
O O16 0.420639 0.420639 0.166375
O O17 0.600377 0.400878 0.141090
O O18 0.567427 0.391413 0.210617
O O19 0.750000 0.005399 0.113976
O O20 0.919446 0.919446 0.115878
O O21 0.750000 0.140628 0.750499
O O22 0.896972 0.250000 0.767724
#
# Coordination Sequence:
#
# PCOD8315243 Si02
#       7
#    16  16  16  16  16  16  16
#     4   8  14  26  45  68  92 117 148 189 232 270
#     4   9  17  28  41  58  82 110 139 171 203 238
#     4   8  14  25  40  57  77 100 127 163 206 247
#     4   9  17  27  39  57  80 107 137 166 199 240
#     4  10  20  33  50  71  93 118 147 180 221 267
#     4  10  20  32  47  68  93 123 158 193 229 268
#     4   9  17  29  46  67  88 111 140 173 210 251
#
# _framework density 16.140647000000001
#
# number of rings (size 3 to 8) (size 9 to 14) (size 15 to 20)
#    0.000    3.000    0.000    2.143    0.000    3.143 
#    0.000    4.286    0.000    0.000    0.000    2.000 
#    0.000    3.714    0.000    3.143    0.000    5.429 
#
# Total GULP energy -1387973.564740 kJ/mol
# GULP energy per Si atom -12392.621114 kJ/mol
# Density = 1.610391 g / cm^3
# Si number density = 16.140647 Si / 1000 Ang^3
#
#
#
# Elastic Constant Matrix: (Units=GPa)
#
#
# Indices 1 2 3 4 5 6 
#
# 1 62.7207 35.5239 47.2880 0.0000 0.0000 0.0000
# 2 35.5239 62.7207 47.2879 0.0000 0.0000 0.0000
# 3 47.2880 47.2879 132.4469 0.0000 0.0000 0.0000
# 4 0.0000 0.0000 0.0000 22.0789 0.0000 0.0000
# 5 0.0000 0.0000 0.0000 0.0000 22.0789 0.0000
# 6 0.0000 0.0000 0.0000 0.0000 0.0000 16.9650
#
#
#
# Elastic Compliance Matrix: (Units=1/GPa)
#
#
# Indices 1 2 3 4 5 6 
#
# 1 0.026139 -0.010630 -0.005537 0.000000 0.000000 0.000000
# 2 -0.010630 0.026139 -0.005537 0.000000 0.000000 0.000000
# 3 -0.005537 -0.005537 0.011504 0.000000 0.000000 0.000000
# 4 0.000000 0.000000 0.000000 0.045292 0.000000 0.000000
# 5 0.000000 0.000000 0.000000 0.000000 0.045292 0.000000
# 6 0.000000 0.000000 0.000000 0.000000 0.000000 0.058945
#
#
# Mechanical properties :
#
#
# Convention : Reuss Voigt Hill
#
# Bulk Modulus (GPa) = 49.08364 57.56533 53.32448
# Shear Modulus (GPa) = 18.97449 20.74380 19.85914
#
# Velocity S-wave (km/s) = 3.43238 3.58884 3.51148
# Velocity P-wave (km/s) = 6.79590 7.27429 7.03916
#
# Compressibility (1/GPa) = 0.02037339
#
# Stress axis : x y z
#
# Youngs Moduli (GPa) = 38.25678 38.25686 86.92479
#
# Poissons Ratio (x) = 0.40667 0.48133
# Poissons Ratio (y) = 0.40667 0.48133
# Poissons Ratio (z) = 0.21184 0.21184
#
# Static dielectric constant tensor:
#      x y z
#    x 2.884090 0.000000 0.000000 
#    y 0.000000 2.884090 0.000000 
#    z 0.000000 0.000000 3.499430 
# 
# 
# High freq. dielectric constant tensor:
#      x y z
#    x 1.597130 0.000000 0.000000 
#    y 0.000000 1.597130 0.000000 
#    z 0.000000 0.000000 1.641110 
# 
# From -- ./inp_files/7890.got.cif
#   From: 2010.03.12/outbox.cif.g09.slc.cpg/sg129_4_cif.got.tgz:7890.got - 2010.04.06 17:19:44.
