data_PCOD8315976
_publ_section_title
;
Structure prediction by ZEFSAII (Michael W. Deem and Ramdas Pophale) SiO2 
 PCOD8315976
Probable space group: P 42/M M C
;
_chemical_formula_sum "Si O2"
_cell_formula_units_Z 88
_cell_length_a 18.275089
_cell_length_b 18.275089
_cell_length_c 14.900361
_cell_angle_alpha 90.000000
_cell_angle_beta 90.000000
_cell_angle_gamma 90.000000
_cell_volume 4976.405848
_symmetry_space_group_name_H-M "P 42/M M C"
_symmetry_group_IT_number 131
_symmetry_cell_setting 'tetragonal'
loop_
_space_group_symop_operation_xyz
x,y,z
-x,-y,z
-y,x,1/2+z
y,-x,1/2+z
-x,y,-z
x,-y,-z
y,x,1/2-z
-y,-x,1/2-z
-x,-y,-z
x,y,-z
y,-x,1/2-z
-y,x,1/2-z
x,-y,z
-x,y,z
-y,-x,1/2+z
y,x,1/2+z
loop_
_atom_site_type_symbol
_atom_site_label
_atom_site_fract_x
_atom_site_fract_y
_atom_site_fract_z
Si Si1 0.800309 0.084931 0.102389
Si Si2 0.413356 0.917368 0.500000
Si Si3 0.586308 0.813356 0.339379
Si Si4 0.083719 0.083719 0.250000
Si Si5 0.702632 0.800830 0.810196
Si Si6 0.582429 0.582429 0.250000
Si Si7 0.344576 0.665229 0.600675
O O1 0.870074 0.106381 0.162687
O O2 0.729469 0.127980 0.137128
O O3 0.780748 0.000000 0.110724
O O4 0.818951 0.106495 0.000000
O O5 0.500000 0.919927 0.500000
O O6 0.387275 0.874625 0.589175
O O7 0.380817 0.000000 0.500000
O O8 0.500000 0.819714 0.318087
O O9 0.632359 0.824427 0.248452
O O10 0.603221 0.734113 0.380326
O O11 0.000000 0.097982 0.223088
O O12 0.767869 0.767869 0.750000
O O13 0.682427 0.740340 0.883943
O O14 0.596356 0.500000 0.218956
O O15 0.599377 0.634543 0.166453
O O16 0.356499 0.638097 0.500000
#
# Coordination Sequence:
#
# PCOD8315976 Si02
#       7
#    16   8  16   8  16   8  16
#     4  10  20  35  56  79 109 148 182 220 272 323
#     4   9  18  32  52  82 111 133 170 224 275 330
#     4  10  19  33  55  77 103 143 178 216 274 333
#     4   9  18  33  54  82 112 141 180 223 262 318
#     4  10  20  35  53  80 108 138 182 231 267 319
#     4  11  24  39  54  80 116 145 182 233 274 326
#     4  11  21  35  58  81 105 144 184 225 276 329
#
# _framework density 17.683444000000001
#
# number of rings (size 3 to 8) (size 9 to 14) (size 15 to 20)
#    0.000    1.909    4.545    1.091    0.000    2.545 
#    0.000    2.727    0.000    1.636    0.000    1.273 
#    0.000    0.000    0.000    0.000    0.000    0.000 
#
# Total GULP energy -1091250.077872 kJ/mol
# GULP energy per Si atom -12400.569067 kJ/mol
# Density = 1.764320 g / cm^3
# Si number density = 17.683444 Si / 1000 Ang^3
#
#
#
# Elastic Constant Matrix: (Units=GPa)
#
#
# Indices 1 2 3 4 5 6 
#
# 1 75.3559 46.4123 50.4871 0.0000 0.0000 0.0000
# 2 46.4123 75.3559 50.4871 0.0000 0.0000 0.0000
# 3 50.4871 50.4871 145.0731 0.0000 0.0000 0.0000
# 4 0.0000 0.0000 0.0000 23.0753 0.0000 0.0000
# 5 0.0000 0.0000 0.0000 0.0000 23.0753 0.0000
# 6 0.0000 0.0000 0.0000 0.0000 0.0000 26.0144
#
#
#
# Elastic Compliance Matrix: (Units=1/GPa)
#
#
# Indices 1 2 3 4 5 6 
#
# 1 0.023047 -0.011503 -0.004017 0.000000 0.000000 0.000000
# 2 -0.011503 0.023047 -0.004017 0.000000 0.000000 0.000000
# 3 -0.004017 -0.004017 0.009689 0.000000 0.000000 0.000000
# 4 0.000000 0.000000 0.000000 0.043336 0.000000 0.000000
# 5 0.000000 0.000000 0.000000 0.000000 0.043336 0.000000
# 6 0.000000 0.000000 0.000000 0.000000 0.000000 0.038440
#
#
# Mechanical properties :
#
#
# Convention : Reuss Voigt Hill
#
# Bulk Modulus (GPa) = 59.85445 65.61757 62.73601
# Shear Modulus (GPa) = 22.16896 24.32621 23.24758
#
# Velocity S-wave (km/s) = 3.54454 3.71300 3.62975
# Velocity P-wave (km/s) = 7.11849 7.45447 7.28842
#
# Compressibility (1/GPa) = 0.01670720
#
# Stress axis : x y z
#
# Youngs Moduli (GPa) = 43.38997 43.38997 103.20747
#
# Poissons Ratio (x) = 0.49912 0.41462
# Poissons Ratio (y) = 0.49912 0.41462
# Poissons Ratio (z) = 0.17431 0.17431
#
# Static dielectric constant tensor:
#      x y z
#    x 3.242220 0.000000 0.000000 
#    y 0.000000 3.242220 0.000000 
#    z 0.000000 0.000000 3.365760 
# 
# 
# High freq. dielectric constant tensor:
#      x y z
#    x 1.676670 0.000000 0.000000 
#    y 0.000000 1.676670 0.000000 
#    z 0.000000 0.000000 1.685810 
# 
# From -- ./inp_files/5952.got.cif
#   From: 2010.03.12/outbox.cif.g09.slc.cpg/sg131_3_cif.got.tgz:5952.got - 2010.04.06 17:36:35.
