data_PCOD8315266
_publ_section_title
;
Structure prediction by ZEFSAII (Michael W. Deem and Ramdas Pophale) SiO2 
 PCOD8315266
Probable space group: P 4/N M M
;
_chemical_formula_sum "Si O2"
_cell_formula_units_Z 128
_cell_length_a 18.014802
_cell_length_b 18.014802
_cell_length_c 22.224820
_cell_angle_alpha 90.000000
_cell_angle_beta 90.000000
_cell_angle_gamma 90.000000
_cell_volume 7212.689534
_symmetry_space_group_name_H-M "P 4/N M M"
_symmetry_group_IT_number 129
_symmetry_cell_setting 'tetragonal'
loop_
_space_group_symop_operation_xyz
x,y,z
1/2-y,x,z
1/2-x,1/2-y,z
y,1/2-x,z
1/2+x,-y,-z
-x,1/2+y,-z
1/2+y,1/2+x,-z
-y,-x,-z
-x,-y,-z
1/2+y,-x,-z
1/2+x,1/2+y,-z
-y,1/2+x,-z
1/2-x,y,z
x,1/2-y,z
1/2-y,1/2-x,z
y,x,z
loop_
_atom_site_type_symbol
_atom_site_label
_atom_site_fract_x
_atom_site_fract_y
_atom_site_fract_z
Si Si1 0.931814 0.165640 0.369856
Si Si2 0.544824 0.163350 0.135303
Si Si3 0.073096 0.952368 0.253856
Si Si4 0.899416 0.333757 0.945270
Si Si5 0.335121 0.963410 0.586373
Si Si6 0.458349 0.162478 0.711040
Si Si7 0.166033 0.452455 0.471334
Si Si8 0.664735 0.955806 0.983861
O O1 0.902533 0.250000 0.366955
O O2 0.945891 0.137380 0.302823
O O3 0.870982 0.116172 0.402711
O O4 0.007118 0.160122 0.407557
O O5 0.555378 0.250000 0.151849
O O6 0.524775 0.114314 0.192767
O O7 0.621289 0.128845 0.111683
O O8 0.481553 0.153630 0.084976
O O9 0.024083 0.876232 0.249364
O O10 0.018150 0.018150 0.273123
O O11 0.904360 0.250000 0.923318
O O12 0.841004 0.341004 0.000000
O O13 0.979344 0.361048 0.970551
O O14 0.250000 0.945172 0.576377
O O15 0.348114 0.020077 0.641336
O O16 0.368953 0.998948 0.525703
O O17 0.451186 0.250000 0.728381
O O18 0.379625 0.120376 0.722338
O O19 0.250000 0.432807 0.488402
O O20 0.124600 0.375401 0.465130
O O21 0.750000 0.934658 0.995476
O O22 0.616300 0.883701 0.997287
#
# Coordination Sequence:
#
# PCOD8315266 Si02
#       8
#    16  16  16  16  16  16  16  16
#     4  10  20  33  50  72  97 126 162 202 242 287
#     4  10  20  32  49  74 100 128 164 203 242 286
#     4  10  20  34  51  69  95 132 167 202 244 286
#     4   9  18  31  48  72 101 130 159 193 236 288
#     4   9  18  32  49  71  98 125 155 192 238 296
#     4   9  18  32  49  70  95 123 158 200 245 293
#     4  10  20  33  50  72  96 124 160 200 243 292
#     4   9  18  32  50  74 102 131 165 202 239 282
#
# _framework density 17.746500999999999
#
# number of rings (size 3 to 8) (size 9 to 14) (size 15 to 20)
#    0.000    2.500    0.000    3.000    0.000    6.750 
#    0.000    0.000    0.000    6.750    0.000    0.000 
#    0.000   11.000    0.000    0.000    0.000    0.125 
#
# Total GULP energy -1586917.189296 kJ/mol
# GULP energy per Si atom -12397.790541 kJ/mol
# Density = 1.770611 g / cm^3
# Si number density = 17.746501 Si / 1000 Ang^3
#
#
#
# Elastic Constant Matrix: (Units=GPa)
#
#
# Indices 1 2 3 4 5 6 
#
# 1 91.1224 51.6847 11.6142 0.0000 0.0000 0.0000
# 2 51.6847 91.1224 11.6142 0.0000 0.0000 0.0000
# 3 11.6142 11.6142 28.5248 0.0000 0.0000 0.0000
# 4 0.0000 0.0000 0.0000 20.9316 0.0000 0.0000
# 5 0.0000 0.0000 0.0000 0.0000 20.9316 0.0000
# 6 0.0000 0.0000 0.0000 0.0000 0.0000 25.9529
#
#
#
# Elastic Compliance Matrix: (Units=1/GPa)
#
#
# Indices 1 2 3 4 5 6 
#
# 1 0.016428 -0.008929 -0.003053 0.000000 0.000000 0.000000
# 2 -0.008929 0.016428 -0.003053 0.000000 0.000000 0.000000
# 3 -0.003053 -0.003053 0.037544 0.000000 0.000000 0.000000
# 4 0.000000 0.000000 0.000000 0.047775 0.000000 0.000000
# 5 0.000000 0.000000 0.000000 0.000000 0.047775 0.000000
# 6 0.000000 0.000000 0.000000 0.000000 0.000000 0.038531
#
#
# Mechanical properties :
#
#
# Convention : Reuss Voigt Hill
#
# Bulk Modulus (GPa) = 24.79639 40.06622 32.43130
# Shear Modulus (GPa) = 20.16183 22.62032 21.39108
#
# Velocity S-wave (km/s) = 3.37427 3.57408 3.47561
# Velocity P-wave (km/s) = 5.40220 6.29746 5.86693
#
# Compressibility (1/GPa) = 0.04032846
#
# Stress axis : x y z
#
# Youngs Moduli (GPa) = 60.87259 60.87259 26.63563
#
# Poissons Ratio (x) = 0.54351 0.08133
# Poissons Ratio (y) = 0.54351 0.08133
# Poissons Ratio (z) = 0.18587 0.18587
#
# Static dielectric constant tensor:
#      x y z
#    x 3.242710 0.000000 0.000000 
#    y 0.000000 3.242710 0.000000 
#    z 0.000000 0.000000 3.210890 
# 
# 
# High freq. dielectric constant tensor:
#      x y z
#    x 1.683190 0.000000 0.000000 
#    y 0.000000 1.683190 0.000000 
#    z 0.000000 0.000000 1.677760 
# 
# From -- ./inp_files/7250.got.cif
#   From: 2010.03.12/outbox.cif.g09.slc.cpg/sg129_4_cif.got.tgz:7250.got - 2010.04.06 17:19:44.
