data_PCOD8315172
_publ_section_title
;
Structure prediction by ZEFSAII (Michael W. Deem and Ramdas Pophale) SiO2 
 PCOD8315172
Probable space group: P 4/N M M
;
_chemical_formula_sum "Si O2"
_cell_formula_units_Z 88
_cell_length_a 17.760637
_cell_length_b 17.760637
_cell_length_c 15.662498
_cell_angle_alpha 90.000000
_cell_angle_beta 90.000000
_cell_angle_gamma 90.000000
_cell_volume 4940.581919
_symmetry_space_group_name_H-M "P 4/N M M"
_symmetry_group_IT_number 129
_symmetry_cell_setting 'tetragonal'
loop_
_space_group_symop_operation_xyz
x,y,z
1/2-y,x,z
1/2-x,1/2-y,z
y,1/2-x,z
1/2+x,-y,-z
-x,1/2+y,-z
1/2+y,1/2+x,-z
-y,-x,-z
-x,-y,-z
1/2+y,-x,-z
1/2+x,1/2+y,-z
-y,1/2+x,-z
1/2-x,y,z
x,1/2-y,z
1/2-y,1/2-x,z
y,x,z
loop_
_atom_site_type_symbol
_atom_site_label
_atom_site_fract_x
_atom_site_fract_y
_atom_site_fract_z
Si Si1 0.838450 0.544110 0.406205
Si Si2 0.596974 0.096974 0.500000
Si Si3 0.537544 0.663688 0.784466
Si Si4 0.333860 0.967010 0.768062
Si Si5 0.166324 0.900191 0.325214
Si Si6 0.052031 0.570698 0.907743
O O1 0.750000 0.541245 0.432087
O O2 0.872858 0.627143 0.424054
O O3 0.889234 0.485602 0.460160
O O4 0.849679 0.528450 0.305333
O O5 0.609685 0.158171 0.426405
O O6 0.564842 0.750000 0.791617
O O7 0.610759 0.610759 0.781587
O O8 0.487670 0.648766 0.699439
O O9 0.480878 0.645887 0.863386
O O10 0.250000 0.975966 0.804508
O O11 0.341684 0.885592 0.724595
O O12 0.389905 0.974596 0.847632
O O13 0.250000 0.879040 0.297222
O O14 0.980995 0.519005 0.924134
O O15 0.089699 0.589699 0.000000
#
# Coordination Sequence:
#
# PCOD8315172 Si02
#       6
#    16   8  16  16  16  16
#     4  10  20  33  50  72  98 128 162 201 244 290
#     4  10  19  32  52  75  94 123 166 206 241 284
#     4   9  18  32  49  70  96 125 157 194 236 280
#     4   9  18  31  47  68  93 123 158 194 235 282
#     4   9  18  32  48  67  94 124 155 195 240 285
#     4   9  17  30  49  71  94 122 156 193 234 279
#
# _framework density 17.811665999999999
#
# number of rings (size 3 to 8) (size 9 to 14) (size 15 to 20)
#    0.000    2.727    0.000    1.364    0.000    7.273 
#    0.000    0.000    0.000    3.545    0.000    5.091 
#    0.000    4.364    0.000    0.000    0.000    0.000 
#
# Total GULP energy -1090544.631571 kJ/mol
# GULP energy per Si atom -12392.552631 kJ/mol
# Density = 1.777113 g / cm^3
# Si number density = 17.811666 Si / 1000 Ang^3
#
#
#
# Elastic Constant Matrix: (Units=GPa)
#
#
# Indices 1 2 3 4 5 6 
#
# 1 79.5509 37.8159 17.4366 0.0000 0.0000 0.0000
# 2 37.8159 79.5509 17.4366 0.0000 0.0000 0.0000
# 3 17.4366 17.4366 91.3198 0.0000 0.0000 0.0000
# 4 0.0000 0.0000 0.0000 16.1471 0.0000 0.0000
# 5 0.0000 0.0000 0.0000 0.0000 16.1471 0.0000
# 6 0.0000 0.0000 0.0000 0.0000 0.0000 18.3088
#
#
#
# Elastic Compliance Matrix: (Units=1/GPa)
#
#
# Indices 1 2 3 4 5 6 
#
# 1 0.016497 -0.007464 -0.001725 0.000000 0.000000 0.000000
# 2 -0.007464 0.016497 -0.001725 0.000000 0.000000 0.000000
# 3 -0.001725 -0.001725 0.011609 0.000000 0.000000 0.000000
# 4 0.000000 0.000000 0.000000 0.061931 0.000000 0.000000
# 5 0.000000 0.000000 0.000000 0.000000 0.061931 0.000000
# 6 0.000000 0.000000 0.000000 0.000000 0.000000 0.054618
#
#
# Mechanical properties :
#
#
# Convention : Reuss Voigt Hill
#
# Bulk Modulus (GPa) = 43.90623 43.97778 43.94201
# Shear Modulus (GPa) = 19.80190 21.96944 20.88567
#
# Velocity S-wave (km/s) = 3.33789 3.51583 3.42802
# Velocity P-wave (km/s) = 6.28960 6.42071 6.35549
#
# Compressibility (1/GPa) = 0.02277581
#
# Stress axis : x y z
#
# Youngs Moduli (GPa) = 60.61807 60.61807 86.13887
#
# Poissons Ratio (x) = 0.45245 0.14857
# Poissons Ratio (y) = 0.45245 0.14857
# Poissons Ratio (z) = 0.10455 0.10455
#
# Static dielectric constant tensor:
#      x y z
#    x 3.147060 0.000000 0.000000 
#    y 0.000000 3.147060 0.000000 
#    z 0.000000 0.000000 3.557250 
# 
# 
# High freq. dielectric constant tensor:
#      x y z
#    x 1.676400 0.000000 0.000000 
#    y 0.000000 1.676400 0.000000 
#    z 0.000000 0.000000 1.685420 
# 
# From -- ./inp_files/4781.got.cif
#   From: 2010.03.12/outbox.cif.g09.slc.cpg/sg129_3_cif.got.tgz:4781.got - 2010.04.06 17:19:44.
