data_PCOD8315249
_publ_section_title
;
Structure prediction by ZEFSAII (Michael W. Deem and Ramdas Pophale) SiO2 
 PCOD8315249
Probable space group: P 4/N M M
;
_chemical_formula_sum "Si O2"
_cell_formula_units_Z 128
_cell_length_a 18.156785
_cell_length_b 18.156785
_cell_length_c 23.428461
_cell_angle_alpha 90.000000
_cell_angle_beta 90.000000
_cell_angle_gamma 90.000000
_cell_volume 7723.633597
_symmetry_space_group_name_H-M "P 4/N M M"
_symmetry_group_IT_number 129
_symmetry_cell_setting 'tetragonal'
loop_
_space_group_symop_operation_xyz
x,y,z
1/2-y,x,z
1/2-x,1/2-y,z
y,1/2-x,z
1/2+x,-y,-z
-x,1/2+y,-z
1/2+y,1/2+x,-z
-y,-x,-z
-x,-y,-z
1/2+y,-x,-z
1/2+x,1/2+y,-z
-y,1/2+x,-z
1/2-x,y,z
x,1/2-y,z
1/2-y,1/2-x,z
y,x,z
loop_
_atom_site_type_symbol
_atom_site_label
_atom_site_fract_x
_atom_site_fract_y
_atom_site_fract_z
Si Si1 0.007665 0.613849 0.530206
Si Si2 0.049008 0.833752 0.072655
Si Si3 0.165384 0.936299 0.128811
Si Si4 0.063293 0.557932 0.234721
Si Si5 0.334514 0.452803 0.818650
Si Si6 0.563238 0.060784 0.638115
Si Si7 0.454416 0.166168 0.032139
Si Si8 0.044832 0.331922 0.579817
O O1 0.075711 0.575711 0.500000
O O2 0.036777 0.630755 0.594982
O O3 0.941145 0.558856 0.537544
O O4 0.979844 0.677442 0.487336
O O5 0.075442 0.750000 0.068184
O O6 0.121163 0.877773 0.091031
O O7 0.982862 0.843423 0.117466
O O8 0.016965 0.861730 0.012210
O O9 0.250000 0.910221 0.134135
O O10 0.131782 0.944811 0.191718
O O11 0.159990 0.014230 0.096240
O O12 0.095913 0.568932 0.298350
O O13 0.017243 0.482758 0.227517
O O14 0.010848 0.627768 0.223875
O O15 0.250000 0.443053 0.800360
O O16 0.373625 0.373625 0.814556
O O17 0.522750 0.135144 0.616649
O O18 0.501580 0.998421 0.638696
O O19 0.432745 0.250000 0.017029
O O20 0.381367 0.118634 0.026699
O O21 0.063241 0.250000 0.602366
O O22 0.117202 0.382799 0.585864
#
# Coordination Sequence:
#
# PCOD8315249 Si02
#       8
#    16  16  16  16  16  16  16  16
#     4   7  11  22  39  57  77 102 136 179 218 247
#     4   9  18  32  48  66  88 116 151 188 227 272
#     4  10  20  32  47  69  94 118 147 186 230 275
#     4   9  17  30  47  64  86 119 154 189 229 268
#     4   9  17  28  42  62  88 118 153 190 226 267
#     4   8  14  26  44  61  78 107 148 189 222 250
#     4  10  20  33  50  72  96 121 149 180 217 265
#     4   9  16  25  39  62  92 121 146 173 208 255
#
# _framework density 16.572510999999999
#
# number of rings (size 3 to 8) (size 9 to 14) (size 15 to 20)
#    0.000    3.125    0.000    2.625    0.000    3.125 
#    0.000    0.625    0.000    4.500    0.000    3.500 
#    0.000   29.250    0.000    7.875    0.000    0.000 
#
# Total GULP energy -1585736.005866 kJ/mol
# GULP energy per Si atom -12388.562546 kJ/mol
# Density = 1.653479 g / cm^3
# Si number density = 16.572511 Si / 1000 Ang^3
#
#
#
# Elastic Constant Matrix: (Units=GPa)
#
#
# Indices 1 2 3 4 5 6 
#
# 1 74.5913 32.8533 32.6710 0.0000 0.0000 0.0000
# 2 32.8533 74.5913 32.6710 0.0000 0.0000 0.0000
# 3 32.6710 32.6710 118.0803 0.0000 0.0000 0.0000
# 4 0.0000 0.0000 0.0000 15.7241 0.0000 0.0000
# 5 0.0000 0.0000 0.0000 0.0000 15.7241 0.0000
# 6 0.0000 0.0000 0.0000 0.0000 0.0000 16.2601
#
#
#
# Elastic Compliance Matrix: (Units=1/GPa)
#
#
# Indices 1 2 3 4 5 6 
#
# 1 0.017574 -0.006384 -0.003096 0.000000 0.000000 0.000000
# 2 -0.006384 0.017574 -0.003096 0.000000 0.000000 0.000000
# 3 -0.003096 -0.003096 0.010182 0.000000 0.000000 0.000000
# 4 0.000000 0.000000 0.000000 0.063597 0.000000 0.000000
# 5 0.000000 0.000000 0.000000 0.000000 0.063597 0.000000
# 6 0.000000 0.000000 0.000000 0.000000 0.000000 0.061500
#
#
# Mechanical properties :
#
#
# Convention : Reuss Voigt Hill
#
# Bulk Modulus (GPa) = 49.55967 51.51708 50.53837
# Shear Modulus (GPa) = 18.80377 20.81282 19.80829
#
# Velocity S-wave (km/s) = 3.37209 3.54766 3.46099
# Velocity P-wave (km/s) = 6.71796 6.92348 6.82149
#
# Compressibility (1/GPa) = 0.02017770
#
# Stress axis : x y z
#
# Youngs Moduli (GPa) = 56.90071 56.90071 98.21154
#
# Poissons Ratio (x) = 0.36328 0.30407
# Poissons Ratio (y) = 0.36328 0.30407
# Poissons Ratio (z) = 0.17617 0.17617
#
# Static dielectric constant tensor:
#      x y z
#    x 2.892490 0.000000 0.000000 
#    y 0.000000 2.892490 0.000000 
#    z 0.000000 0.000000 3.515380 
# 
# 
# High freq. dielectric constant tensor:
#      x y z
#    x 1.612990 0.000000 0.000000 
#    y 0.000000 1.612990 0.000000 
#    z 0.000000 0.000000 1.647260 
# 
# From -- ./inp_files/7280.got.cif
#   From: 2010.03.12/outbox.cif.g09.slc.cpg/sg129_4_cif.got.tgz:7280.got - 2010.04.06 17:19:44.
