data_PCOD8315050
_publ_section_title
;
Structure prediction by ZEFSAII (Michael W. Deem and Ramdas Pophale) SiO2 
 PCOD8315050
Probable space group: P 4/N M M
;
_chemical_formula_sum "Si O2"
_cell_formula_units_Z 112
_cell_length_a 14.062058
_cell_length_b 14.062058
_cell_length_c 35.730606
_cell_angle_alpha 90.000000
_cell_angle_beta 90.000000
_cell_angle_gamma 90.000000
_cell_volume 7065.422740
_symmetry_space_group_name_H-M "P 4/N M M"
_symmetry_group_IT_number 129
_symmetry_cell_setting 'tetragonal'
loop_
_space_group_symop_operation_xyz
x,y,z
1/2-y,x,z
1/2-x,1/2-y,z
y,1/2-x,z
1/2+x,-y,-z
-x,1/2+y,-z
1/2+y,1/2+x,-z
-y,-x,-z
-x,-y,-z
1/2+y,-x,-z
1/2+x,1/2+y,-z
-y,1/2+x,-z
1/2-x,y,z
x,1/2-y,z
1/2-y,1/2-x,z
y,x,z
loop_
_atom_site_type_symbol
_atom_site_label
_atom_site_fract_x
_atom_site_fract_y
_atom_site_fract_z
Si Si1 0.362552 0.980266 0.529286
Si Si2 0.515474 0.138841 0.326726
Si Si3 0.012585 0.641083 0.188905
Si Si4 0.641479 0.357885 0.397985
Si Si5 0.860776 0.141336 0.742735
Si Si6 0.510713 0.359389 0.894577
Si Si7 0.644830 0.136515 0.959103
O O1 0.405049 0.905049 0.500000
O O2 0.250000 0.997873 0.521389
O O3 0.378801 0.933106 0.569526
O O4 0.419139 0.080862 0.527185
O O5 0.491999 0.250000 0.324118
O O6 0.416050 0.083951 0.327877
O O7 0.574798 0.114357 0.363649
O O8 0.576283 0.103472 0.291262
O O9 0.984094 0.750000 0.194975
O O10 0.916970 0.583030 0.195554
O O11 0.054482 0.625273 0.147013
O O12 0.090866 0.607837 0.218750
O O13 0.750000 0.365152 0.384137
O O14 0.620286 0.250000 0.411938
O O15 0.750000 0.128482 0.749309
O O16 0.886455 0.250000 0.732777
O O17 0.491686 0.250000 0.903312
O O18 0.409282 0.409282 0.897687
O O19 0.580911 0.404209 0.925486
O O20 0.750000 0.094284 0.952938
O O21 0.649101 0.250000 0.957894
O O22 0.604950 0.104950 0.000000
#
# Coordination Sequence:
#
# PCOD8315050 Si02
#       7
#    16  16  16  16  16  16  16
#     4  10  20  33  50  72  97 125 157 192 230 272
#     4  10  19  30  45  64  88 117 145 175 211 251
#     4   9  17  28  41  58  81 107 134 164 197 237
#     4   9  17  30  49  71  92 115 147 186 224 262
#     4   9  17  29  45  64  83 104 134 172 213 251
#     4   9  17  27  39  57  80 106 134 161 192 234
#     4   8  14  25  40  57  77 100 127 162 202 239
#
# _framework density 15.851846
#
# number of rings (size 3 to 8) (size 9 to 14) (size 15 to 20)
#    0.000    2.857    0.000    2.143    0.000    3.857 
#    0.000    4.286    0.000    0.000    0.000    2.000 
#    0.000   10.571    0.000    3.143    0.000    5.429 
#
# Total GULP energy -1388346.977355 kJ/mol
# GULP energy per Si atom -12395.955155 kJ/mol
# Density = 1.581577 g / cm^3
# Si number density = 15.851846 Si / 1000 Ang^3
#
#
#
# Elastic Constant Matrix: (Units=GPa)
#
#
# Indices 1 2 3 4 5 6 
#
# 1 71.4059 45.8772 54.5700 0.0000 0.0000 0.0000
# 2 45.8772 71.4059 54.5700 0.0000 0.0000 0.0000
# 3 54.5700 54.5700 118.4770 0.0000 0.0000 0.0000
# 4 0.0000 0.0000 0.0000 22.8554 0.0000 0.0000
# 5 0.0000 0.0000 0.0000 0.0000 22.8554 0.0000
# 6 0.0000 0.0000 0.0000 0.0000 0.0000 22.9727
#
#
#
# Elastic Compliance Matrix: (Units=1/GPa)
#
#
# Indices 1 2 3 4 5 6 
#
# 1 0.027047 -0.012125 -0.006873 0.000000 0.000000 0.000000
# 2 -0.012125 0.027047 -0.006873 0.000000 0.000000 0.000000
# 3 -0.006873 -0.006873 0.014772 0.000000 0.000000 0.000000
# 4 0.000000 0.000000 0.000000 0.043753 0.000000 0.000000
# 5 0.000000 0.000000 0.000000 0.000000 0.043753 0.000000
# 6 0.000000 0.000000 0.000000 0.000000 0.000000 0.043530
#
#
# Mechanical properties :
#
#
# Convention : Reuss Voigt Hill
#
# Bulk Modulus (GPa) = 58.39770 63.48036 60.93903
# Shear Modulus (GPa) = 19.42861 20.82146 20.12503
#
# Velocity S-wave (km/s) = 3.50471 3.62816 3.56697
# Velocity P-wave (km/s) = 7.30048 7.59502 7.44921
#
# Compressibility (1/GPa) = 0.01712396
#
# Stress axis : x y z
#
# Youngs Moduli (GPa) = 36.97275 36.97275 67.69594
#
# Poissons Ratio (x) = 0.44828 0.46528
# Poissons Ratio (y) = 0.44828 0.46528
# Poissons Ratio (z) = 0.25412 0.25412
#
# Static dielectric constant tensor:
#      x y z
#    x 2.897830 0.000000 0.000000 
#    y 0.000000 2.897830 0.000000 
#    z 0.000000 0.000000 3.269500 
# 
# 
# High freq. dielectric constant tensor:
#      x y z
#    x 1.592560 0.000000 0.000000 
#    y 0.000000 1.592560 0.000000 
#    z 0.000000 0.000000 1.624250 
# 
# From -- ./inp_files/7878.got.cif
#   From: 2010.03.12/outbox.cif.g09.slc.cpg/sg129_4_cif.got.tgz:7878.got - 2010.04.06 17:19:44.
