data_PCOD8315460
_publ_section_title
;
Structure prediction by ZEFSAII (Michael W. Deem and Ramdas Pophale) SiO2 
 PCOD8315460
Probable space group: P 4/N C C
;
_chemical_formula_sum "Si O2"
_cell_formula_units_Z 80
_cell_length_a 22.714110
_cell_length_b 22.714110
_cell_length_c 8.646705
_cell_angle_alpha 90.000000
_cell_angle_beta 90.000000
_cell_angle_gamma 90.000000
_cell_volume 4461.101368
_symmetry_space_group_name_H-M "P 4/N C C"
_symmetry_group_IT_number 130
_symmetry_cell_setting 'tetragonal'
loop_
_space_group_symop_operation_xyz
x,y,z
1/2-y,x,z
1/2-x,1/2-y,z
y,1/2-x,z
1/2+x,-y,1/2-z
-x,1/2+y,1/2-z
1/2+y,1/2+x,1/2-z
-y,-x,1/2-z
-x,-y,-z
1/2+y,-x,-z
1/2+x,1/2+y,-z
-y,1/2+x,-z
1/2-x,y,1/2+z
x,1/2-y,1/2+z
1/2-y,1/2-x,1/2+z
y,x,1/2+z
loop_
_atom_site_type_symbol
_atom_site_label
_atom_site_fract_x
_atom_site_fract_y
_atom_site_fract_z
Si Si1 0.173612 0.393985 0.101039
Si Si2 0.797960 0.591592 0.538789
Si Si3 0.073987 0.029809 0.494634
Si Si4 0.561933 0.438068 0.250000
Si Si5 0.434378 0.934378 0.750000
Si Si6 0.365519 0.517663 0.990479
O O1 0.187893 0.396718 0.282227
O O2 0.231503 0.390630 0.996390
O O3 0.133210 0.337220 0.070267
O O4 0.139566 0.452778 0.047348
O O5 0.805584 0.520636 0.499387
O O6 0.034925 0.087245 0.484599
O O7 0.046734 0.984440 0.616238
O O8 0.074526 0.997676 0.329779
O O9 0.626777 0.445940 0.171668
O O10 0.379205 0.935250 0.628689
#
# Coordination Sequence:
#
# PCOD8315460 Si02
#       6
#    16  16  16   8   8  16
#     4  11  24  39  56  72  97 130 177 225 265 302
#     4  11  24  39  56  72  97 130 177 225 265 302
#     4  10  18  28  48  72 100 124 159 196 251 299
#     4  10  15  30  44  74  98 124 150 191 248 305
#     4  10  19  26  48  74 102 128 150 199 236 317
#     4  10  18  28  48  72 100 124 159 196 251 299
#
# _framework density 17.932791000000002
#
# number of rings (size 3 to 8) (size 9 to 14) (size 15 to 20)
#    0.000    1.600    2.000    6.000   11.200    0.400 
#    0.000    2.000    0.000    0.000    0.000    0.000 
#    0.000    0.000    0.000    0.000    0.000   70.000 
#
# Total GULP energy -991135.733796 kJ/mol
# GULP energy per Si atom -12389.196672 kJ/mol
# Density = 1.789198 g / cm^3
# Si number density = 17.932791 Si / 1000 Ang^3
#
#
#
# Elastic Constant Matrix: (Units=GPa)
#
#
# Indices 1 2 3 4 5 6 
#
# 1 40.8080 39.9483 16.3777 0.0000 0.0000 0.0000
# 2 39.9483 40.8075 16.3778 0.0000 0.0000 0.0000
# 3 16.3777 16.3778 100.1111 0.0000 0.0000 0.0000
# 4 0.0000 0.0000 0.0000 24.0849 0.0000 0.0000
# 5 0.0000 0.0000 0.0000 0.0000 24.0848 0.0000
# 6 0.0000 0.0000 0.0000 0.0000 0.0000 14.0263
#
#
#
# Elastic Compliance Matrix: (Units=1/GPa)
#
#
# Indices 1 2 3 4 5 6 
#
# 1 0.588364 -0.575105 -0.002169 0.000000 0.000000 0.000000
# 2 -0.575105 0.588372 -0.002171 0.000000 0.000000 0.000000
# 3 -0.002169 -0.002171 0.010699 0.000000 0.000000 0.000000
# 4 0.000000 0.000000 0.000000 0.041520 0.000000 0.000000
# 5 0.000000 0.000000 0.000000 0.000000 0.041520 0.000000
# 6 0.000000 0.000000 0.000000 0.000000 0.000000 0.071295
#
#
# Mechanical properties :
#
#
# Convention : Reuss Voigt Hill
#
# Bulk Modulus (GPa) = 35.03138 36.34825 35.68982
# Shear Modulus (GPa) = 1.99189 19.70739 10.84964
#
# Velocity S-wave (km/s) = 1.05507 3.31865 2.46238
# Velocity P-wave (km/s) = 4.58928 5.91589 5.29430
#
# Compressibility (1/GPa) = 0.02854583
#
# Stress axis : x y z
#
# Youngs Moduli (GPa) = 1.69963 1.69960 93.46812
#
# Poissons Ratio (x) = 0.97745 0.20271
# Poissons Ratio (y) = 0.97746 0.20290
# Poissons Ratio (z) = 0.00369 0.00369
#
# Static dielectric constant tensor:
#      x y z
#    x 3.428660 0.000000 0.000000 
#    y 0.000000 3.428670 0.000000 
#    z 0.000000 0.000000 3.682450 
# 
# 
# High freq. dielectric constant tensor:
#      x y z
#    x 1.654090 0.000000 0.000000 
#    y 0.000000 1.654090 0.000000 
#    z 0.000000 0.000000 1.723990 
# 
# From -- ./inp_files/865.got.cif
#   From: 2010.03.12/outbox.cif.g09.slc.cpg/sg130_1_cif.got.tgz:865.got - 2010.04.06 17:30:23.
