data_PCOD8315216
_publ_section_title
;
Structure prediction by ZEFSAII (Michael W. Deem and Ramdas Pophale) SiO2 
 PCOD8315216
Probable space group: P 4/N M M
;
_chemical_formula_sum "Si O2"
_cell_formula_units_Z 112
_cell_length_a 17.663556
_cell_length_b 17.663556
_cell_length_c 21.211179
_cell_angle_alpha 90.000000
_cell_angle_beta 90.000000
_cell_angle_gamma 90.000000
_cell_volume 6617.913526
_symmetry_space_group_name_H-M "P 4/N M M"
_symmetry_group_IT_number 129
_symmetry_cell_setting 'tetragonal'
loop_
_space_group_symop_operation_xyz
x,y,z
1/2-y,x,z
1/2-x,1/2-y,z
y,1/2-x,z
1/2+x,-y,-z
-x,1/2+y,-z
1/2+y,1/2+x,-z
-y,-x,-z
-x,-y,-z
1/2+y,-x,-z
1/2+x,1/2+y,-z
-y,1/2+x,-z
1/2-x,y,z
x,1/2-y,z
1/2-y,1/2-x,z
y,x,z
loop_
_atom_site_type_symbol
_atom_site_label
_atom_site_fract_x
_atom_site_fract_y
_atom_site_fract_z
Si Si1 0.664281 0.543639 0.465977
Si Si2 0.944025 0.431067 0.766692
Si Si3 0.940252 0.164536 0.646722
Si Si4 0.835349 0.544553 0.704917
Si Si5 0.664557 0.453304 0.582697
Si Si6 0.971374 0.842066 0.989827
Si Si7 0.929991 0.056101 0.093067
O O1 0.750000 0.560406 0.485511
O O2 0.621675 0.621675 0.473533
O O3 0.656819 0.516807 0.393834
O O4 0.631657 0.481443 0.515472
O O5 0.954826 0.362973 0.717628
O O6 0.871395 0.480161 0.748404
O O7 0.928732 0.398319 0.836638
O O8 0.019791 0.480210 0.763478
O O9 0.911415 0.250000 0.650199
O O10 0.877835 0.119032 0.608753
O O11 0.750000 0.554405 0.727442
O O12 0.875786 0.624215 0.715944
O O13 0.842878 0.522346 0.631808
O O14 0.750000 0.425918 0.574531
O O15 0.955519 0.750000 0.986277
O O16 0.891737 0.891737 0.987118
O O17 0.018710 0.861615 0.053268
O O18 0.030650 0.867755 0.935114
O O19 0.997191 0.997191 0.095923
#
# Coordination Sequence:
#
# PCOD8315216 Si02
#       7
#    16  16  16  16  16  16  16
#     4  10  20  33  49  69  92 118 150 188 231 280
#     4   9  17  31  49  66  90 125 162 197 229 266
#     4  10  20  31  46  71  95 116 150 193 236 281
#     4   9  17  28  43  65  91 120 156 196 239 287
#     4   9  18  32  47  63  87 120 155 191 233 279
#     4   9  17  30  50  76 103 129 159 195 235 281
#     4   8  16  31  49  69  94 130 170 197 225 272
#
# _framework density 16.923762
#
# number of rings (size 3 to 8) (size 9 to 14) (size 15 to 20)
#    0.000    2.857    0.000    2.143    0.000    4.143 
#    0.000    0.000    0.000    8.571    0.000   10.000 
#    0.000    3.429    0.000    0.000    0.000    0.000 
#
# Total GULP energy -1387812.418374 kJ/mol
# GULP energy per Si atom -12391.182307 kJ/mol
# Density = 1.688524 g / cm^3
# Si number density = 16.923762 Si / 1000 Ang^3
#
#
#
# Elastic Constant Matrix: (Units=GPa)
#
#
# Indices 1 2 3 4 5 6 
#
# 1 89.8582 38.9787 38.5181 0.0000 0.0000 0.0000
# 2 38.9787 89.8582 38.5181 0.0000 0.0000 0.0000
# 3 38.5181 38.5181 134.5801 0.0000 0.0000 0.0000
# 4 0.0000 0.0000 0.0000 17.7259 0.0000 0.0000
# 5 0.0000 0.0000 0.0000 0.0000 17.7259 0.0000
# 6 0.0000 0.0000 0.0000 0.0000 0.0000 21.0155
#
#
#
# Elastic Compliance Matrix: (Units=1/GPa)
#
#
# Indices 1 2 3 4 5 6 
#
# 1 0.014509 -0.005145 -0.002680 0.000000 0.000000 0.000000
# 2 -0.005145 0.014509 -0.002680 0.000000 0.000000 0.000000
# 3 -0.002680 -0.002680 0.008965 0.000000 0.000000 0.000000
# 4 0.000000 0.000000 0.000000 0.056415 0.000000 0.000000
# 5 0.000000 0.000000 0.000000 0.000000 0.056415 0.000000
# 6 0.000000 0.000000 0.000000 0.000000 0.000000 0.047584
#
#
# Mechanical properties :
#
#
# Convention : Reuss Voigt Hill
#
# Bulk Modulus (GPa) = 58.91815 60.70291 59.81053
# Shear Modulus (GPa) = 22.21585 24.51224 23.36404
#
# Velocity S-wave (km/s) = 3.62705 3.80990 3.71960
# Velocity P-wave (km/s) = 7.24086 7.43641 7.33929
#
# Compressibility (1/GPa) = 0.01697270
#
# Stress axis : x y z
#
# Youngs Moduli (GPa) = 68.92137 68.92137 111.54871
#
# Poissons Ratio (x) = 0.35460 0.29897
# Poissons Ratio (y) = 0.35460 0.29897
# Poissons Ratio (z) = 0.18472 0.18472
#
# Static dielectric constant tensor:
#      x y z
#    x 3.054030 0.000000 0.000000 
#    y 0.000000 3.054030 0.000000 
#    z 0.000000 0.000000 3.605820 
# 
# 
# High freq. dielectric constant tensor:
#      x y z
#    x 1.637140 0.000000 0.000000 
#    y 0.000000 1.637140 0.000000 
#    z 0.000000 0.000000 1.659150 
# 
# From -- ./inp_files/6660.got.cif
#   From: 2010.03.12/outbox.cif.g09.slc.cpg/sg129_4_cif.got.tgz:6660.got - 2010.04.06 17:19:44.
