data_PCOD8315472
_publ_section_title
;
Structure prediction by ZEFSAII (Michael W. Deem and Ramdas Pophale) SiO2 
 PCOD8315472
Probable space group: P 4/N C C
;
_chemical_formula_sum "Si O2"
_cell_formula_units_Z 112
_cell_length_a 14.828737
_cell_length_b 14.828737
_cell_length_c 24.569464
_cell_angle_alpha 90.000000
_cell_angle_beta 90.000000
_cell_angle_gamma 90.000000
_cell_volume 5402.614844
_symmetry_space_group_name_H-M "P 4/N C C"
_symmetry_group_IT_number 130
_symmetry_cell_setting 'tetragonal'
loop_
_space_group_symop_operation_xyz
x,y,z
1/2-y,x,z
1/2-x,1/2-y,z
y,1/2-x,z
1/2+x,-y,1/2-z
-x,1/2+y,1/2-z
1/2+y,1/2+x,1/2-z
-y,-x,1/2-z
-x,-y,-z
1/2+y,-x,-z
1/2+x,1/2+y,-z
-y,1/2+x,-z
1/2-x,y,1/2+z
x,1/2-y,1/2+z
1/2-y,1/2-x,1/2+z
y,x,1/2+z
loop_
_atom_site_type_symbol
_atom_site_label
_atom_site_fract_x
_atom_site_fract_y
_atom_site_fract_z
Si Si1 0.902337 0.561823 0.682913
Si Si2 0.395304 0.246474 0.992139
Si Si3 0.536776 0.550781 0.879845
Si Si4 0.434916 0.812073 0.452214
Si Si5 0.640171 0.650088 0.793139
Si Si6 0.625749 0.381243 0.932652
Si Si7 0.476289 0.228456 0.377277
O O1 0.899109 0.581312 0.747002
O O2 0.811903 0.510804 0.663350
O O3 0.912578 0.655560 0.651127
O O4 0.987631 0.499615 0.669890
O O5 0.341269 0.337672 0.005810
O O6 0.422689 0.238626 0.929777
O O7 0.481164 0.249771 0.030471
O O8 0.461559 0.608167 0.911764
O O9 0.609652 0.617056 0.852728
O O10 0.584541 0.480103 0.920224
O O11 0.388750 0.859131 0.503760
O O12 0.373905 0.734459 0.422805
O O13 0.744016 0.624245 0.786914
O O14 0.575286 0.309007 0.894033
#
# Coordination Sequence:
#
# PCOD8315472 Si02
#       7
#    16  16  16  16  16  16  16
#     4  11  21  38  63  91 125 163 206 263 316 384
#     4  10  19  30  54  87 119 154 195 260 325 372
#     4  11  24  41  63  90 127 171 204 253 322 383
#     4  11  23  40  59  82 125 163 219 251 304 376
#     4  11  23  40  67  98 126 156 203 263 327 385
#     4  10  24  40  62  89 121 168 212 266 305 374
#     4  10  20  35  60  91 123 155 207 264 325 362
#
# _framework density 20.730702000000001
#
# number of rings (size 3 to 8) (size 9 to 14) (size 15 to 20)
#    0.000    1.429    2.857    2.571    4.000    0.571 
#    0.000    1.429    0.000    0.000    0.000    2.000 
#    0.000    0.000    0.000    0.000    0.000    0.000 
#
# Total GULP energy -1388862.948321 kJ/mol
# GULP energy per Si atom -12400.562039 kJ/mol
# Density = 2.068352 g / cm^3
# Si number density = 20.730702 Si / 1000 Ang^3
#
#
#
# Elastic Constant Matrix: (Units=GPa)
#
#
# Indices 1 2 3 4 5 6 
#
# 1 78.4417 31.3588 27.8658 0.0000 0.0000 0.0000
# 2 31.3588 78.4417 27.8658 0.0000 0.0000 0.0000
# 3 27.8658 27.8658 66.9781 0.0000 0.0000 0.0000
# 4 0.0000 0.0000 0.0000 24.4037 0.0000 0.0000
# 5 0.0000 0.0000 0.0000 0.0000 24.4037 0.0000
# 6 0.0000 0.0000 0.0000 0.0000 0.0000 20.2149
#
#
#
# Elastic Compliance Matrix: (Units=1/GPa)
#
#
# Indices 1 2 3 4 5 6 
#
# 1 0.016392 -0.004847 -0.004803 0.000000 0.000000 0.000000
# 2 -0.004847 0.016392 -0.004803 0.000000 0.000000 0.000000
# 3 -0.004803 -0.004803 0.018927 0.000000 0.000000 0.000000
# 4 0.000000 0.000000 0.000000 0.040977 0.000000 0.000000
# 5 0.000000 0.000000 0.000000 0.000000 0.040977 0.000000
# 6 0.000000 0.000000 0.000000 0.000000 0.000000 0.049468
#
#
# Mechanical properties :
#
#
# Convention : Reuss Voigt Hill
#
# Bulk Modulus (GPa) = 43.85116 44.22692 44.03904
# Shear Modulus (GPa) = 22.76410 22.92251 22.84331
#
# Velocity S-wave (km/s) = 3.31733 3.32886 3.32310
# Velocity P-wave (km/s) = 5.98929 6.01293 6.00112
#
# Compressibility (1/GPa) = 0.02280441
#
# Stress axis : x y z
#
# Youngs Moduli (GPa) = 61.00412 61.00412 52.83415
#
# Poissons Ratio (x) = 0.29568 0.25379
# Poissons Ratio (y) = 0.29568 0.25379
# Poissons Ratio (z) = 0.29303 0.29303
#
# Static dielectric constant tensor:
#      x y z
#    x 3.747430 0.000000 0.000000 
#    y 0.000000 3.747430 0.000000 
#    z 0.000000 0.000000 3.544610 
# 
# 
# High freq. dielectric constant tensor:
#      x y z
#    x 1.813850 0.000000 0.000000 
#    y 0.000000 1.813850 0.000000 
#    z 0.000000 0.000000 1.798740 
# 
# From -- ./inp_files/4267.got.cif
#   From: 2010.03.12/outbox.cif.g09.slc.cpg/sg130_3_cif.got.tgz:4267.got - 2010.04.06 17:30:23.
