data_PCOD8315747
_publ_section_title
;
Structure prediction by ZEFSAII (Michael W. Deem and Ramdas Pophale) SiO2 
 PCOD8315747
Probable space group: P 42/M M C
;
_chemical_formula_sum "Si O2"
_cell_formula_units_Z 96
_cell_length_a 25.120193
_cell_length_b 25.120193
_cell_length_c 8.727261
_cell_angle_alpha 90.000000
_cell_angle_beta 90.000000
_cell_angle_gamma 90.000000
_cell_volume 5507.111986
_symmetry_space_group_name_H-M "P 42/M M C"
_symmetry_group_IT_number 131
_symmetry_cell_setting 'tetragonal'
loop_
_space_group_symop_operation_xyz
x,y,z
-x,-y,z
-y,x,1/2+z
y,-x,1/2+z
-x,y,-z
x,-y,-z
y,x,1/2-z
-y,-x,1/2-z
-x,-y,-z
x,y,-z
y,-x,1/2-z
-y,x,1/2-z
x,-y,z
-x,y,z
-y,-x,1/2+z
y,x,1/2+z
loop_
_atom_site_type_symbol
_atom_site_label
_atom_site_fract_x
_atom_site_fract_y
_atom_site_fract_z
Si Si1 0.276864 0.832803 0.822604
Si Si2 0.892565 0.816260 0.180251
Si Si3 0.655503 0.268697 0.179322
Si Si4 0.000000 0.344449 0.826517
Si Si5 0.769887 0.000000 0.180926
Si Si6 0.886558 0.371023 0.175718
Si Si7 0.440531 0.210369 0.320176
O O1 0.226592 0.846251 0.717308
O O2 0.300861 0.775736 0.775611
O O3 0.322317 0.875889 0.789385
O O4 0.260096 0.835956 0.000000
O O5 0.872761 0.872761 0.250000
O O6 0.948086 0.799119 0.254115
O O7 0.900042 0.821749 0.000000
O O8 0.675516 0.324485 0.250000
O O9 0.597796 0.254108 0.245327
O O10 0.649394 0.274813 0.000000
O O11 0.050889 0.383022 0.799974
O O12 0.000000 0.292499 0.720570
O O13 0.000000 0.322052 0.000000
O O14 0.776068 0.000000 0.000000
O O15 0.849767 0.421290 0.219788
O O16 0.874383 0.353962 0.000000
O O17 0.440214 0.220305 0.500000
O O18 0.500000 0.217064 0.253307
#
# Coordination Sequence:
#
# PCOD8315747 Si02
#       7
#    16  16  16   8   8  16  16
#     4  10  19  31  48  74 104 135 167 203 252 311
#     4  12  24  38  55  77 104 133 164 203 251 308
#     4  10  20  32  49  74 104 136 173 215 262 311
#     4  10  18  30  49  74 101 135 173 215 263 306
#     4  12  24  38  56  78 104 133 167 207 253 310
#     4   9  17  29  47  70 100 136 175 217 261 307
#     4   9  18  33  51  71 100 141 183 221 263 310
#
# _framework density 17.432005
#
# number of rings (size 3 to 8) (size 9 to 14) (size 15 to 20)
#    0.000    1.833    1.667    3.750    0.000    3.667 
#    0.000    0.417    0.000    2.750    0.000    1.750 
#    0.000    6.333    0.000    3.500    0.000    1.500 
#
# Total GULP energy -1190155.386781 kJ/mol
# GULP energy per Si atom -12397.451946 kJ/mol
# Density = 1.739233 g / cm^3
# Si number density = 17.432005 Si / 1000 Ang^3
#
#
#
# Elastic Constant Matrix: (Units=GPa)
#
#
# Indices 1 2 3 4 5 6 
#
# 1 97.4125 74.0639 38.3292 0.0000 0.0000 0.0000
# 2 74.0639 97.4095 38.3301 0.0000 0.0000 0.0000
# 3 38.3292 38.3301 84.1075 0.0000 0.0000 0.0000
# 4 0.0000 0.0000 0.0000 21.3787 0.0000 0.0000
# 5 0.0000 0.0000 0.0000 0.0000 21.3788 0.0000
# 6 0.0000 0.0000 0.0000 0.0000 0.0000 18.0174
#
#
#
# Elastic Compliance Matrix: (Units=1/GPa)
#
#
# Indices 1 2 3 4 5 6 
#
# 1 0.025077 -0.017754 -0.003337 0.000000 0.000000 0.000000
# 2 -0.017754 0.025078 -0.003338 0.000000 0.000000 0.000000
# 3 -0.003337 -0.003338 0.014932 0.000000 0.000000 0.000000
# 4 0.000000 0.000000 0.000000 0.046775 0.000000 0.000000
# 5 0.000000 0.000000 0.000000 0.000000 0.046775 0.000000
# 6 0.000000 0.000000 0.000000 0.000000 0.000000 0.055502
#
#
# Mechanical properties :
#
#
# Convention : Reuss Voigt Hill
#
# Bulk Modulus (GPa) = 61.61893 64.48621 63.05257
# Shear Modulus (GPa) = 18.62834 20.70206 19.66520
#
# Velocity S-wave (km/s) = 3.27253 3.44988 3.36238
# Velocity P-wave (km/s) = 7.05012 7.27614 7.16402
#
# Compressibility (1/GPa) = 0.01622878
#
# Stress axis : x y z
#
# Youngs Moduli (GPa) = 39.87677 39.87486 66.97184
#
# Poissons Ratio (x) = 0.70794 0.22350
# Poissons Ratio (y) = 0.70797 0.22356
# Poissons Ratio (z) = 0.13307 0.13311
#
# Static dielectric constant tensor:
#      x y z
#    x 3.234630 0.000000 0.000000 
#    y 0.000000 3.234630 0.000000 
#    z 0.000000 0.000000 3.246220 
# 
# 
# High freq. dielectric constant tensor:
#      x y z
#    x 1.652940 0.000000 0.000000 
#    y 0.000000 1.652940 0.000000 
#    z 0.000000 0.000000 1.679940 
# 
# From -- ./inp_files/2301.got.cif
#   From: 2010.03.12/outbox.cif.g09.slc.cpg/sg131_2_cif.got.tgz:2301.got - 2010.04.06 17:36:35.
