data_PCOD8315095
_publ_section_title
;
Structure prediction by ZEFSAII (Michael W. Deem and Ramdas Pophale) SiO2 
 PCOD8315095
Probable space group: P 4/N M M
;
_chemical_formula_sum "Si O2"
_cell_formula_units_Z 128
_cell_length_a 18.150509
_cell_length_b 18.150509
_cell_length_c 23.862700
_cell_angle_alpha 90.000000
_cell_angle_beta 90.000000
_cell_angle_gamma 90.000000
_cell_volume 7861.351201
_symmetry_space_group_name_H-M "P 4/N M M"
_symmetry_group_IT_number 129
_symmetry_cell_setting 'tetragonal'
loop_
_space_group_symop_operation_xyz
x,y,z
1/2-y,x,z
1/2-x,1/2-y,z
y,1/2-x,z
1/2+x,-y,-z
-x,1/2+y,-z
1/2+y,1/2+x,-z
-y,-x,-z
-x,-y,-z
1/2+y,-x,-z
1/2+x,1/2+y,-z
-y,1/2+x,-z
1/2-x,y,z
x,1/2-y,z
1/2-y,1/2-x,z
y,x,z
loop_
_atom_site_type_symbol
_atom_site_label
_atom_site_fract_x
_atom_site_fract_y
_atom_site_fract_z
Si Si1 0.940599 0.441113 0.748024
Si Si2 0.056242 0.834060 0.026975
Si Si3 0.830098 0.558139 0.729195
Si Si4 0.835426 0.103833 0.556470
Si Si5 0.435577 0.555793 0.872566
Si Si6 0.335641 0.457109 0.075899
Si Si7 0.336166 0.835414 0.324639
Si Si8 0.050382 0.331882 0.400778
O O1 0.883107 0.505280 0.763314
O O2 0.953728 0.405395 0.808861
O O3 0.900134 0.382491 0.707099
O O4 0.016613 0.483388 0.725220
O O5 0.079378 0.750000 0.032955
O O6 0.041825 0.864928 0.088914
O O7 0.125124 0.874877 0.000000
O O8 0.983549 0.843786 0.988598
O O9 0.750000 0.553988 0.756085
O O10 0.857636 0.642365 0.733283
O O11 0.831979 0.532155 0.664890
O O12 0.875157 0.124844 0.500000
O O13 0.750000 0.105071 0.543290
O O14 0.852347 0.156997 0.609106
O O15 0.863420 0.022028 0.570004
O O16 0.493283 0.493283 0.888473
O O17 0.476815 0.633662 0.884449
O O18 0.250000 0.442767 0.091392
O O19 0.381397 0.381397 0.084254
O O20 0.250000 0.860791 0.311861
O O21 0.345466 0.750000 0.307625
O O22 0.069833 0.250000 0.421320
O O23 0.118546 0.381455 0.418360
#
# Coordination Sequence:
#
# PCOD8315095 Si02
#       8
#    16  16  16  16  16  16  16  16
#     4  10  19  31  48  67  91 122 155 193 233 273
#     4   9  17  30  48  67  89 117 147 185 228 271
#     4   9  16  27  43  61  85 116 147 181 218 257
#     4  10  19  31  47  67  91 119 153 191 229 276
#     4   9  18  31  47  66  87 118 157 189 221 267
#     4   9  17  29  45  66  90 116 147 182 220 261
#     4  10  20  33  49  69  95 126 156 190 236 287
#     4   9  17  29  45  66  91 119 150 183 223 268
#
# _framework density 16.282188999999999
#
# number of rings (size 3 to 8) (size 9 to 14) (size 15 to 20)
#    0.000    2.625    1.250    1.125    0.000    4.375 
#    0.000    1.250    0.000    0.000    0.000    3.500 
#    0.000    0.250    0.000    2.750    0.000    0.000 
#
# Total GULP energy -1585860.419284 kJ/mol
# GULP energy per Si atom -12389.534526 kJ/mol
# Density = 1.624513 g / cm^3
# Si number density = 16.282189 Si / 1000 Ang^3
#
#
#
# Elastic Constant Matrix: (Units=GPa)
#
#
# Indices 1 2 3 4 5 6 
#
# 1 61.2643 26.6746 19.2233 0.0000 0.0000 0.0000
# 2 26.6746 61.2643 19.2243 0.0000 0.0000 0.0000
# 3 19.2233 19.2243 60.3811 0.0000 0.0000 0.0000
# 4 0.0000 0.0000 0.0000 15.5436 0.0000 0.0000
# 5 0.0000 0.0000 0.0000 0.0000 15.5430 0.0000
# 6 0.0000 0.0000 0.0000 0.0000 0.0000 22.1084
#
#
#
# Elastic Compliance Matrix: (Units=1/GPa)
#
#
# Indices 1 2 3 4 5 6 
#
# 1 0.021060 -0.007850 -0.004206 0.000000 0.000000 0.000000
# 2 -0.007850 0.021060 -0.004206 0.000000 0.000000 0.000000
# 3 -0.004206 -0.004206 0.019240 0.000000 0.000000 0.000000
# 4 0.000000 0.000000 0.000000 0.064335 0.000000 0.000000
# 5 0.000000 0.000000 0.000000 0.000000 0.064338 0.000000
# 6 0.000000 0.000000 0.000000 0.000000 0.000000 0.045232
#
#
# Mechanical properties :
#
#
# Convention : Reuss Voigt Hill
#
# Bulk Modulus (GPa) = 34.67779 34.79490 34.73634
# Shear Modulus (GPa) = 18.02448 18.49150 18.25799
#
# Velocity S-wave (km/s) = 3.33078 3.37365 3.35229
# Velocity P-wave (km/s) = 6.01135 6.04911 6.03026
#
# Compressibility (1/GPa) = 0.02883690
#
# Stress axis : x y z
#
# Youngs Moduli (GPa) = 47.48284 47.48236 51.97633
#
# Poissons Ratio (x) = 0.37274 0.21859
# Poissons Ratio (y) = 0.37274 0.21862
# Poissons Ratio (z) = 0.19969 0.19972
#
# Static dielectric constant tensor:
#      x y z
#    x 3.060970 0.000000 0.000000 
#    y 0.000000 3.060970 0.000000 
#    z 0.000000 0.000000 3.116370 
# 
# 
# High freq. dielectric constant tensor:
#      x y z
#    x 1.615350 0.000000 0.000000 
#    y 0.000000 1.615350 0.000000 
#    z 0.000000 0.000000 1.616620 
# 
# From -- ./inp_files/7349.got.cif
#   From: 2010.03.12/outbox.cif.g09.slc.cpg/sg129_4_cif.got.tgz:7349.got - 2010.04.06 17:19:44.
