data_PCOD8315722
_publ_section_title
;
Structure prediction by ZEFSAII (Michael W. Deem and Ramdas Pophale) SiO2 
 PCOD8315722
Probable space group: P 42/M M C
;
_chemical_formula_sum "Si O2"
_cell_formula_units_Z 96
_cell_length_a 17.719477
_cell_length_b 17.719477
_cell_length_c 17.835826
_cell_angle_alpha 90.000000
_cell_angle_beta 90.000000
_cell_angle_gamma 90.000000
_cell_volume 5600.090242
_symmetry_space_group_name_H-M "P 42/M M C"
_symmetry_group_IT_number 131
_symmetry_cell_setting 'tetragonal'
loop_
_space_group_symop_operation_xyz
x,y,z
-x,-y,z
-y,x,1/2+z
y,-x,1/2+z
-x,y,-z
x,-y,-z
y,x,1/2-z
-y,-x,1/2-z
-x,-y,-z
x,y,-z
y,-x,1/2-z
-y,x,1/2-z
x,-y,z
-x,y,z
-y,-x,1/2+z
y,x,1/2+z
loop_
_atom_site_type_symbol
_atom_site_label
_atom_site_fract_x
_atom_site_fract_y
_atom_site_fract_z
Si Si1 0.084888 0.238148 0.086830
Si Si2 0.586070 0.789250 0.083752
Si Si3 0.851264 0.917717 0.913813
Si Si4 0.817947 0.298189 0.783967
Si Si5 0.703434 0.412109 0.266924
Si Si6 0.687641 0.085910 0.852971
O O1 0.089405 0.148348 0.104287
O O2 0.148148 0.282027 0.134094
O O3 0.000000 0.263829 0.107759
O O4 0.102420 0.254927 0.000000
O O5 0.500000 0.815905 0.094658
O O6 0.605635 0.726209 0.146385
O O7 0.638457 0.862470 0.091871
O O8 0.598585 0.755311 0.000000
O O9 0.775588 0.903764 0.868192
O O10 0.886672 0.000000 0.893144
O O11 0.827334 0.916082 0.000000
O O12 0.774150 0.225851 0.750000
O O13 0.761021 0.369034 0.788846
O O14 0.887881 0.323296 0.732387
O O15 0.619815 0.380186 0.250000
O O16 0.704696 0.500000 0.248086
O O17 0.660570 0.000000 0.862763
#
# Coordination Sequence:
#
# PCOD8315722 Si02
#       6
#    16  16  16  16  16  16
#     4  10  20  33  50  70  94 131 177 220 260 299
#     4   9  18  32  50  74 105 136 164 197 238 291
#     4   9  17  28  42  64  94 127 164 207 257 307
#     4  10  18  33  51  72  96 128 165 210 251 295
#     4   9  19  35  56  82 107 132 163 196 239 293
#     4  10  18  28  45  68  97 132 166 203 248 298
#
# _framework density 17.142581
#
# number of rings (size 3 to 8) (size 9 to 14) (size 15 to 20)
#    0.000    2.500    1.667    1.000    0.000    1.833 
#    0.000    2.500    0.000    3.500    0.000    3.500 
#    0.000    0.000    0.000    0.000    0.000    0.000 
#
# Total GULP energy -1189935.965049 kJ/mol
# GULP energy per Si atom -12395.166303 kJ/mol
# Density = 1.710356 g / cm^3
# Si number density = 17.142581 Si / 1000 Ang^3
#
#
#
# Elastic Constant Matrix: (Units=GPa)
#
#
# Indices 1 2 3 4 5 6 
#
# 1 85.6619 43.7584 44.6601 0.0000 0.0000 0.0000
# 2 43.7584 85.6610 44.6595 0.0000 0.0000 0.0000
# 3 44.6601 44.6595 79.7619 0.0000 0.0000 0.0000
# 4 0.0000 0.0000 0.0000 21.7782 0.0000 0.0000
# 5 0.0000 0.0000 0.0000 0.0000 21.7781 0.0000
# 6 0.0000 0.0000 0.0000 0.0000 0.0000 21.6488
#
#
#
# Elastic Compliance Matrix: (Units=1/GPa)
#
#
# Indices 1 2 3 4 5 6 
#
# 1 0.018229 -0.005636 -0.007051 0.000000 0.000000 0.000000
# 2 -0.005636 0.018229 -0.007051 0.000000 0.000000 0.000000
# 3 -0.007051 -0.007051 0.020433 0.000000 0.000000 0.000000
# 4 0.000000 0.000000 0.000000 0.045917 0.000000 0.000000
# 5 0.000000 0.000000 0.000000 0.000000 0.045918 0.000000
# 6 0.000000 0.000000 0.000000 0.000000 0.000000 0.046192
#
#
# Mechanical properties :
#
#
# Convention : Reuss Voigt Hill
#
# Bulk Modulus (GPa) = 57.42086 57.47119 57.44602
# Shear Modulus (GPa) = 20.81608 20.90814 20.86211
#
# Velocity S-wave (km/s) = 3.48845 3.49615 3.49230
# Velocity P-wave (km/s) = 7.05652 7.06368 7.06010
#
# Compressibility (1/GPa) = 0.01741528
#
# Stress axis : x y z
#
# Youngs Moduli (GPa) = 54.85820 54.85798 48.93974
#
# Poissons Ratio (x) = 0.30917 0.34508
# Poissons Ratio (y) = 0.30917 0.34507
# Poissons Ratio (z) = 0.38681 0.38680
#
# Static dielectric constant tensor:
#      x y z
#    x 3.142100 0.000000 0.000000 
#    y 0.000000 3.142100 0.000000 
#    z 0.000000 0.000000 3.172180 
# 
# 
# High freq. dielectric constant tensor:
#      x y z
#    x 1.649350 0.000000 0.000000 
#    y 0.000000 1.649350 0.000000 
#    z 0.000000 0.000000 1.653920 
# 
# From -- ./inp_files/7919.got.cif
#   From: 2010.03.12/outbox.cif.g09.slc.cpg/sg131_4_cif.got.tgz:7919.got - 2010.04.06 17:36:35.
