data_PCOD8315374
_publ_section_title
;
Structure prediction by ZEFSAII (Michael W. Deem and Ramdas Pophale) SiO2 
 PCOD8315374
Probable space group: P 4/N M M
;
_chemical_formula_sum "Si O2"
_cell_formula_units_Z 112
_cell_length_a 30.488387
_cell_length_b 30.488387
_cell_length_c 6.897899
_cell_angle_alpha 90.000000
_cell_angle_beta 90.000000
_cell_angle_gamma 90.000000
_cell_volume 6411.885052
_symmetry_space_group_name_H-M "P 4/N M M"
_symmetry_group_IT_number 129
_symmetry_cell_setting 'tetragonal'
loop_
_space_group_symop_operation_xyz
x,y,z
1/2-y,x,z
1/2-x,1/2-y,z
y,1/2-x,z
1/2+x,-y,-z
-x,1/2+y,-z
1/2+y,1/2+x,-z
-y,-x,-z
-x,-y,-z
1/2+y,-x,-z
1/2+x,1/2+y,-z
-y,1/2+x,-z
1/2-x,y,z
x,1/2-y,z
1/2-y,1/2-x,z
y,x,z
loop_
_atom_site_type_symbol
_atom_site_label
_atom_site_fract_x
_atom_site_fract_y
_atom_site_fract_z
Si Si1 0.198318 0.470180 0.026119
Si Si2 0.344577 0.590583 0.534859
Si Si3 0.065297 0.701610 0.836449
Si Si4 0.494445 0.353928 0.676061
Si Si5 0.501192 0.070221 0.978781
Si Si6 0.299723 0.860209 0.867296
Si Si7 0.948366 0.623732 0.721116
O O1 0.250000 0.459103 0.044859
O O2 0.184005 0.517114 0.114456
O O3 0.167801 0.437299 0.152520
O O4 0.184111 0.470015 0.800329
O O5 0.395488 0.604513 0.500000
O O6 0.325836 0.591242 0.319824
O O7 0.337428 0.542687 0.621744
O O8 0.321983 0.629531 0.660307
O O9 0.060322 0.750000 0.750422
O O10 0.092553 0.700578 0.032664
O O11 0.464663 0.362868 0.490426
O O12 0.500063 0.397858 0.797227
O O13 0.486074 0.094657 0.174881
O O14 0.468745 0.031256 0.923785
O O15 0.550392 0.050392 0.000000
O O16 0.250000 0.842873 0.836540
O O17 0.325053 0.825053 0.000000
O O18 0.903341 0.596660 0.704142
#
# Coordination Sequence:
#
# PCOD8315374 Si02
#       7
#    16  16  16  16  16  16  16
#     4  10  21  37  58  83 108 140 184 226 266 319
#     4  12  23  33  52  78 103 134 172 220 276 334
#     4  10  20  36  54  74 100 128 163 214 269 322
#     4  11  22  32  52  79 106 140 182 227 271 321
#     4   9  20  35  49  68 102 147 192 230 262 305
#     4  11  23  40  58  75  98 128 168 222 288 351
#     4  10  21  37  55  78 112 152 186 223 271 320
#
# _framework density 17.467562999999998
#
# number of rings (size 3 to 8) (size 9 to 14) (size 15 to 20)
#    0.000    1.571    4.286    0.857    2.000    2.429 
#    0.000    2.143    0.000    0.000    0.000    0.000 
#    0.000    0.286    0.000    0.571    0.000    0.000 
#
# Total GULP energy -1388355.573797 kJ/mol
# GULP energy per Si atom -12396.031909 kJ/mol
# Density = 1.742781 g / cm^3
# Si number density = 17.467563 Si / 1000 Ang^3
#
#
#
# Elastic Constant Matrix: (Units=GPa)
#
#
# Indices 1 2 3 4 5 6 
#
# 1 80.5071 33.3042 32.3541 0.0000 0.0000 0.0000
# 2 33.3042 80.5090 32.3549 0.0000 0.0000 0.0000
# 3 32.3541 32.3549 100.4913 0.0000 0.0000 0.0000
# 4 0.0000 0.0000 0.0000 19.5048 0.0000 0.0000
# 5 0.0000 0.0000 0.0000 0.0000 19.5036 0.0000
# 6 0.0000 0.0000 0.0000 0.0000 0.0000 19.8186
#
#
#
# Elastic Compliance Matrix: (Units=1/GPa)
#
#
# Indices 1 2 3 4 5 6 
#
# 1 0.015970 -0.005215 -0.003463 0.000000 0.000000 0.000000
# 2 -0.005215 0.015970 -0.003463 0.000000 0.000000 0.000000
# 3 -0.003463 -0.003463 0.012181 0.000000 0.000000 0.000000
# 4 0.000000 0.000000 0.000000 0.051269 0.000000 0.000000
# 5 0.000000 0.000000 0.000000 0.000000 0.051272 0.000000
# 6 0.000000 0.000000 0.000000 0.000000 0.000000 0.050458
#
#
# Mechanical properties :
#
#
# Convention : Reuss Voigt Hill
#
# Bulk Modulus (GPa) = 50.40282 50.83710 50.61996
# Shear Modulus (GPa) = 21.92845 22.66503 22.29674
#
# Velocity S-wave (km/s) = 3.54698 3.60606 3.57664
# Velocity P-wave (km/s) = 6.75962 6.81947 6.78961
#
# Compressibility (1/GPa) = 0.01984016
#
# Stress axis : x y z
#
# Youngs Moduli (GPa) = 62.61701 62.61820 82.09586
#
# Poissons Ratio (x) = 0.32654 0.28428
# Poissons Ratio (y) = 0.32653 0.28428
# Poissons Ratio (z) = 0.21683 0.21684
#
# Static dielectric constant tensor:
#      x y z
#    x 3.228510 0.000000 0.000000 
#    y 0.000000 3.228520 0.000000 
#    z 0.000000 0.000000 3.356020 
# 
# 
# High freq. dielectric constant tensor:
#      x y z
#    x 1.655070 0.000000 0.000000 
#    y 0.000000 1.655070 0.000000 
#    z 0.000000 0.000000 1.690280 
# 
# From -- ./inp_files/1170.got.cif
#   From: 2010.03.12/outbox.cif.g09.slc.cpg/sg129_1_cif.got.tgz:1170.got - 2010.04.06 17:19:44.
