data_PCOD8315717
_publ_section_title
;
Structure prediction by ZEFSAII (Michael W. Deem and Ramdas Pophale) SiO2 
 PCOD8315717
Probable space group: P 42/M M C
;
_chemical_formula_sum "Si O2"
_cell_formula_units_Z 120
_cell_length_a 17.999781
_cell_length_b 17.999781
_cell_length_c 25.265078
_cell_angle_alpha 90.000000
_cell_angle_beta 90.000000
_cell_angle_gamma 90.000000
_cell_volume 8185.686083
_symmetry_space_group_name_H-M "P 42/M M C"
_symmetry_group_IT_number 131
_symmetry_cell_setting 'tetragonal'
loop_
_space_group_symop_operation_xyz
x,y,z
-x,-y,z
-y,x,1/2+z
y,-x,1/2+z
-x,y,-z
x,-y,-z
y,x,1/2-z
-y,-x,1/2-z
-x,-y,-z
x,y,-z
y,-x,1/2-z
-y,x,1/2-z
x,-y,z
-x,y,z
-y,-x,1/2+z
y,x,1/2+z
loop_
_atom_site_type_symbol
_atom_site_label
_atom_site_fract_x
_atom_site_fract_y
_atom_site_fract_z
Si Si1 0.416022 0.911779 0.862632
Si Si2 0.816551 0.913202 0.716761
Si Si3 0.713518 0.912282 0.938949
Si Si4 0.000000 0.086791 0.058614
Si Si5 0.859563 0.164026 0.102294
Si Si6 0.912683 0.342808 0.255779
Si Si7 0.914367 0.690181 0.059295
Si Si8 0.582478 0.911465 0.650080
O O1 0.500000 0.880347 0.870135
O O2 0.364334 0.887756 0.912038
O O3 0.379499 0.878586 0.808808
O O4 0.419117 0.000000 0.858919
O O5 0.888665 0.888665 0.750000
O O6 0.810819 0.866357 0.663015
O O7 0.744657 0.894786 0.752635
O O8 0.821918 0.000000 0.703105
O O9 0.780825 0.873966 0.908037
O O10 0.725395 0.000000 0.933777
O O11 0.711651 0.887174 0.000000
O O12 0.074042 0.107543 0.090015
O O13 0.000000 0.000000 0.051786
O O14 0.000000 0.124422 0.000000
O O15 0.865773 0.235906 0.065085
O O16 0.878848 0.382627 0.203966
O O17 0.000000 0.356109 0.256349
O O18 0.883579 0.628490 0.099425
O O19 0.000000 0.710786 0.072539
O O20 0.906302 0.658640 0.000000
O O21 0.500000 0.879237 0.644264
O O22 0.582172 0.000000 0.651533
#
# Coordination Sequence:
#
# PCOD8315717 Si02
#       8
#    16  16  16   8  16  16  16  16
#     4   9  17  30  49  69  86 107 135 174 230 287
#     4  11  22  34  45  60  84 114 148 189 235 275
#     4  10  21  34  47  65  87 112 147 193 237 274
#     4  11  22  32  46  62  77 109 159 207 240 265
#     4  12  20  34  47  61  84 115 152 191 231 272
#     4   9  16  29  45  63  84 105 137 177 220 272
#     4  10  18  28  43  61  83 112 146 182 220 261
#     4   9  16  26  42  62  84 107 134 173 216 260
#
# _framework density 14.659736000000001
#
# number of rings (size 3 to 8) (size 9 to 14) (size 15 to 20)
#    0.000    1.933    2.667    2.800    0.000    5.467 
#    0.000    2.667    0.000    0.000    0.000    0.000 
#    0.000    0.000    0.000    0.000    0.000    0.667 
#
# Total GULP energy -1487857.175456 kJ/mol
# GULP energy per Si atom -12398.809795 kJ/mol
# Density = 1.462637 g / cm^3
# Si number density = 14.659736 Si / 1000 Ang^3
#
#
#
# Elastic Constant Matrix: (Units=GPa)
#
#
# Indices 1 2 3 4 5 6 
#
# 1 64.2887 27.6890 34.1316 0.0000 0.0000 0.0000
# 2 27.6890 64.2887 34.1316 0.0000 0.0000 0.0000
# 3 34.1316 34.1316 90.3843 0.0000 0.0000 0.0000
# 4 0.0000 0.0000 0.0000 20.0351 0.0000 0.0000
# 5 0.0000 0.0000 0.0000 0.0000 20.0351 0.0000
# 6 0.0000 0.0000 0.0000 0.0000 0.0000 4.8577
#
#
#
# Elastic Compliance Matrix: (Units=1/GPa)
#
#
# Indices 1 2 3 4 5 6 
#
# 1 0.021214 -0.006108 -0.005704 0.000000 0.000000 0.000000
# 2 -0.006108 0.021214 -0.005704 0.000000 0.000000 0.000000
# 3 -0.005704 -0.005704 0.015372 0.000000 0.000000 0.000000
# 4 0.000000 0.000000 0.000000 0.049912 0.000000 0.000000
# 5 0.000000 0.000000 0.000000 0.000000 0.049912 0.000000
# 6 0.000000 0.000000 0.000000 0.000000 0.000000 0.205861
#
#
# Mechanical properties :
#
#
# Convention : Reuss Voigt Hill
#
# Bulk Modulus (GPa) = 43.92464 45.65180 44.78822
# Shear Modulus (GPa) = 12.31196 17.18618 14.74907
#
# Velocity S-wave (km/s) = 2.90116 3.42766 3.17534
# Velocity P-wave (km/s) = 6.42262 6.84644 6.63791
#
# Compressibility (1/GPa) = 0.02276627
#
# Stress axis : x y z
#
# Youngs Moduli (GPa) = 47.13817 47.13817 65.05277
#
# Poissons Ratio (x) = 0.28794 0.37109
# Poissons Ratio (y) = 0.28794 0.37109
# Poissons Ratio (z) = 0.26889 0.26889
#
# Static dielectric constant tensor:
#      x y z
#    x 2.670350 0.000000 0.000000 
#    y 0.000000 2.670350 0.000000 
#    z 0.000000 0.000000 3.096340 
# 
# 
# High freq. dielectric constant tensor:
#      x y z
#    x 1.522950 0.000000 0.000000 
#    y 0.000000 1.522950 0.000000 
#    z 0.000000 0.000000 1.582820 
# 
# From -- ./inp_files/12547.got.cif
#   From: 2010.03.12/outbox.cif.g09.slc.cpg/sg131_7_cif.got.tgz:12547.got - 2010.04.06 17:36:35.
