data_PCOD8315003
_publ_section_title
;
Structure prediction by ZEFSAII (Michael W. Deem and Ramdas Pophale) SiO2 
 PCOD8315003
Probable space group: P 4/N M M
;
_chemical_formula_sum "Si O2"
_cell_formula_units_Z 88
_cell_length_a 14.207786
_cell_length_b 14.207786
_cell_length_c 27.901505
_cell_angle_alpha 90.000000
_cell_angle_beta 90.000000
_cell_angle_gamma 90.000000
_cell_volume 5632.230807
_symmetry_space_group_name_H-M "P 4/N M M"
_symmetry_group_IT_number 129
_symmetry_cell_setting 'tetragonal'
loop_
_space_group_symop_operation_xyz
x,y,z
1/2-y,x,z
1/2-x,1/2-y,z
y,1/2-x,z
1/2+x,-y,-z
-x,1/2+y,-z
1/2+y,1/2+x,-z
-y,-x,-z
-x,-y,-z
1/2+y,-x,-z
1/2+x,1/2+y,-z
-y,1/2+x,-z
1/2-x,y,z
x,1/2-y,z
1/2-y,1/2-x,z
y,x,z
loop_
_atom_site_type_symbol
_atom_site_label
_atom_site_fract_x
_atom_site_fract_y
_atom_site_fract_z
Si Si1 0.145316 0.862059 0.175311
Si Si2 0.357263 0.993144 0.360200
Si Si3 0.513493 0.139631 0.909828
Si Si4 0.357465 0.857465 0.000000
Si Si5 0.361785 0.646227 0.280838
Si Si6 0.013091 0.640937 0.530546
O O1 0.250000 0.902270 0.164015
O O2 0.150758 0.750000 0.174302
O O3 0.071592 0.898227 0.135979
O O4 0.111347 0.894813 0.228297
O O5 0.250000 0.012727 0.346854
O O6 0.407797 0.092204 0.353880
O O7 0.368568 0.955098 0.414205
O O8 0.402650 0.918536 0.323263
O O9 0.490331 0.250000 0.905715
O O10 0.575348 0.116751 0.956233
O O11 0.415241 0.084760 0.912944
O O12 0.372554 0.750000 0.983086
O O13 0.250000 0.653130 0.284768
O O14 0.405961 0.750000 0.287706
O O15 0.995707 0.750000 0.516688
O O16 0.916704 0.583297 0.520476
O O17 0.098996 0.598996 0.500000
#
# Coordination Sequence:
#
# PCOD8315003 Si02
#       6
#    16  16  16   8  16  16
#     4   8  14  26  43  61  81 105 135 173 211 239
#     4   9  17  28  42  61  85 112 139 166 199 242
#     4  10  19  29  42  61  85 111 137 164 196 239
#     4   9  17  30  48  66  81  99 128 170 214 245
#     4   8  14  25  41  61  84 107 133 169 209 244
#     4   9  18  31  45  63  87 113 143 178 214 255
#
# _framework density 15.624359999999999
#
# number of rings (size 3 to 8) (size 9 to 14) (size 15 to 20)
#    0.000    3.182    0.000    1.909    0.000    4.364 
#    0.000    3.636    0.000    0.000    0.000    0.000 
#    0.000    3.636    0.000    1.091    0.000    0.364 
#
# Total GULP energy -1090759.083226 kJ/mol
# GULP energy per Si atom -12394.989582 kJ/mol
# Density = 1.558880 g / cm^3
# Si number density = 15.624360 Si / 1000 Ang^3
#
#
#
# Elastic Constant Matrix: (Units=GPa)
#
#
# Indices 1 2 3 4 5 6 
#
# 1 72.5838 42.6548 53.0247 0.0000 0.0000 0.0000
# 2 42.6548 72.5838 53.0247 0.0000 0.0000 0.0000
# 3 53.0247 53.0247 108.2261 0.0000 0.0000 0.0000
# 4 0.0000 0.0000 0.0000 18.3127 0.0000 0.0000
# 5 0.0000 0.0000 0.0000 0.0000 18.3127 0.0000
# 6 0.0000 0.0000 0.0000 0.0000 0.0000 19.1503
#
#
#
# Elastic Compliance Matrix: (Units=1/GPa)
#
#
# Indices 1 2 3 4 5 6 
#
# 1 0.024608 -0.008805 -0.007742 0.000000 0.000000 0.000000
# 2 -0.008805 0.024608 -0.007742 0.000000 0.000000 0.000000
# 3 -0.007742 -0.007742 0.016827 0.000000 0.000000 0.000000
# 4 0.000000 0.000000 0.000000 0.054607 0.000000 0.000000
# 5 0.000000 0.000000 0.000000 0.000000 0.054607 0.000000
# 6 0.000000 0.000000 0.000000 0.000000 0.000000 0.052219
#
#
# Mechanical properties :
#
#
# Convention : Reuss Voigt Hill
#
# Bulk Modulus (GPa) = 57.26628 61.20024 59.23326
# Shear Modulus (GPa) = 17.73841 18.13444 17.93642
#
# Velocity S-wave (km/s) = 3.37308 3.41053 3.39186
# Velocity P-wave (km/s) = 7.20429 7.40025 7.30293
#
# Compressibility (1/GPa) = 0.01746228
#
# Stress axis : x y z
#
# Youngs Moduli (GPa) = 40.63800 40.63800 59.42964
#
# Poissons Ratio (x) = 0.35781 0.46013
# Poissons Ratio (y) = 0.35781 0.46013
# Poissons Ratio (z) = 0.31464 0.31464
#
# Static dielectric constant tensor:
#      x y z
#    x 2.838830 0.000000 0.000000 
#    y 0.000000 2.838830 0.000000 
#    z 0.000000 0.000000 3.273460 
# 
# 
# High freq. dielectric constant tensor:
#      x y z
#    x 1.575450 0.000000 0.000000 
#    y 0.000000 1.575450 0.000000 
#    z 0.000000 0.000000 1.613500 
# 
# From -- ./inp_files/7005.got.cif
#   From: 2010.03.12/outbox.cif.g09.slc.cpg/sg129_4_cif.got.tgz:7005.got - 2010.04.06 17:19:44.
