data_PCOD8315123
_publ_section_title
;
Structure prediction by ZEFSAII (Michael W. Deem and Ramdas Pophale) SiO2 
 PCOD8315123
Probable space group: P 4/N M M
;
_chemical_formula_sum "Si O2"
_cell_formula_units_Z 64
_cell_length_a 12.440967
_cell_length_b 12.440967
_cell_length_c 24.172871
_cell_angle_alpha 90.000000
_cell_angle_beta 90.000000
_cell_angle_gamma 90.000000
_cell_volume 3741.420406
_symmetry_space_group_name_H-M "P 4/N M M"
_symmetry_group_IT_number 129
_symmetry_cell_setting 'tetragonal'
loop_
_space_group_symop_operation_xyz
x,y,z
1/2-y,x,z
1/2-x,1/2-y,z
y,1/2-x,z
1/2+x,-y,-z
-x,1/2+y,-z
1/2+y,1/2+x,-z
-y,-x,-z
-x,-y,-z
1/2+y,-x,-z
1/2+x,1/2+y,-z
-y,1/2+x,-z
1/2-x,y,z
x,1/2-y,z
1/2-y,1/2-x,z
y,x,z
loop_
_atom_site_type_symbol
_atom_site_label
_atom_site_fract_x
_atom_site_fract_y
_atom_site_fract_z
Si Si1 0.123927 0.947387 0.940321
Si Si2 0.122413 0.750000 0.741900
Si Si3 0.375840 0.957169 0.675180
Si Si4 0.122737 0.631548 0.559379
Si Si5 0.250000 0.877475 0.133868
O O1 0.250000 0.974846 0.933163
O O2 0.083197 0.858254 0.896535
O O3 0.103134 0.896867 0.000000
O O4 0.056525 0.056525 0.930974
O O5 0.250000 0.750000 0.742577
O O6 0.082153 0.644847 0.709679
O O7 0.075494 0.750000 0.804001
O O8 0.250000 0.976653 0.683888
O O9 0.407902 0.943062 0.610830
O O10 0.437915 0.062086 0.697242
O O11 0.082900 0.582900 0.500000
O O12 0.250000 0.643026 0.555843
O O13 0.072630 0.750000 0.569532
O O14 0.250000 0.750000 0.133848
#
# Coordination Sequence:
#
# PCOD8315123 Si02
#       5
#    16   8  16  16   8
#     4  10  19  32  52  78 108 139 171 210 254 300
#     4   9  18  34  52  71  95 129 173 210 239 284
#     4  10  19  31  49  72 100 131 164 207 254 302
#     4   8  13  24  44  69  94 121 160 208 252 294
#     4   9  18  32  54  75  97 131 169 212 247 286
#
# _framework density 17.105803999999999
#
# number of rings (size 3 to 8) (size 9 to 14) (size 15 to 20)
#    0.000    2.750    2.500    0.750    0.000    2.000 
#    0.000    0.000    0.000    0.750    0.000    8.750 
#    0.000    0.000    0.000    0.000    0.000    0.000 
#
# Total GULP energy -793124.385595 kJ/mol
# GULP energy per Si atom -12392.568525 kJ/mol
# Density = 1.706687 g / cm^3
# Si number density = 17.105804 Si / 1000 Ang^3
#
#
#
# Elastic Constant Matrix: (Units=GPa)
#
#
# Indices 1 2 3 4 5 6 
#
# 1 83.1082 56.1402 39.8152 0.0000 0.0000 0.0000
# 2 56.1402 83.1084 39.8152 0.0000 0.0000 0.0000
# 3 39.8152 39.8152 128.3930 0.0000 0.0000 0.0000
# 4 0.0000 0.0000 0.0000 6.9006 0.0000 0.0000
# 5 0.0000 0.0000 0.0000 0.0000 6.9009 0.0000
# 6 0.0000 0.0000 0.0000 0.0000 0.0000 22.2110
#
#
#
# Elastic Compliance Matrix: (Units=1/GPa)
#
#
# Indices 1 2 3 4 5 6 
#
# 1 0.022905 -0.014176 -0.002707 0.000000 0.000000 0.000000
# 2 -0.014176 0.022905 -0.002707 0.000000 0.000000 0.000000
# 3 -0.002707 -0.002707 0.009468 0.000000 0.000000 0.000000
# 4 0.000000 0.000000 0.000000 0.144915 0.000000 0.000000
# 5 0.000000 0.000000 0.000000 0.000000 0.144908 0.000000
# 6 0.000000 0.000000 0.000000 0.000000 0.000000 0.045023
#
#
# Mechanical properties :
#
#
# Convention : Reuss Voigt Hill
#
# Bulk Modulus (GPa) = 62.11853 62.90566 62.51210
# Shear Modulus (GPa) = 11.50298 17.79176 14.64737
#
# Velocity S-wave (km/s) = 2.59600 3.22856 2.92940
# Velocity P-wave (km/s) = 6.73637 7.12407 6.93293
#
# Compressibility (1/GPa) = 0.01609825
#
# Stress axis : x y z
#
# Youngs Moduli (GPa) = 43.65823 43.65835 105.62438
#
# Poissons Ratio (x) = 0.61889 0.28593
# Poissons Ratio (y) = 0.61889 0.28593
# Poissons Ratio (z) = 0.11818 0.11818
#
# Static dielectric constant tensor:
#      x y z
#    x 2.921710 0.000000 0.000000 
#    y 0.000000 2.921710 0.000000 
#    z 0.000000 0.000000 3.577920 
# 
# 
# High freq. dielectric constant tensor:
#      x y z
#    x 1.633310 0.000000 0.000000 
#    y 0.000000 1.633310 0.000000 
#    z 0.000000 0.000000 1.672150 
# 
# From -- ./inp_files/6905.got.cif
#   From: 2010.03.12/outbox.cif.g09.slc.cpg/sg129_4_cif.got.tgz:6905.got - 2010.04.06 17:19:44.
