data_PCOD8315710
_publ_section_title
;
Structure prediction by ZEFSAII (Michael W. Deem and Ramdas Pophale) SiO2 
 PCOD8315710
Probable space group: P 42/M M C
;
_chemical_formula_sum "Si O2"
_cell_formula_units_Z 72
_cell_length_a 24.919763
_cell_length_b 24.919763
_cell_length_c 9.658714
_cell_angle_alpha 90.000000
_cell_angle_beta 90.000000
_cell_angle_gamma 90.000000
_cell_volume 5998.009121
_symmetry_space_group_name_H-M "P 42/M M C"
_symmetry_group_IT_number 131
_symmetry_cell_setting 'tetragonal'
loop_
_space_group_symop_operation_xyz
x,y,z
-x,-y,z
-y,x,1/2+z
y,-x,1/2+z
-x,y,-z
x,-y,-z
y,x,1/2-z
-y,-x,1/2-z
-x,-y,-z
x,y,-z
y,-x,1/2-z
-y,x,1/2-z
x,-y,z
-x,y,z
-y,-x,1/2+z
y,x,1/2+z
loop_
_atom_site_type_symbol
_atom_site_label
_atom_site_fract_x
_atom_site_fract_y
_atom_site_fract_z
Si Si1 0.697968 0.938189 0.844634
Si Si2 0.937811 0.121003 0.500000
Si Si3 0.598731 0.063411 0.342476
Si Si4 0.060590 0.834856 0.000000
Si Si5 0.888658 0.805192 0.272521
Si Si6 0.500000 0.935982 0.840814
O O1 0.654270 0.920673 0.731553
O O2 0.746014 0.894455 0.836284
O O3 0.717500 0.000000 0.818562
O O4 0.673621 0.934460 0.000000
O O5 0.899294 0.069121 0.500000
O O6 0.923720 0.154435 0.635633
O O7 0.000000 0.103463 0.500000
O O8 0.596446 0.087014 0.500000
O O9 0.551166 0.086045 0.245244
O O10 0.593012 0.000000 0.350918
O O11 0.085356 0.802745 0.124865
O O12 0.000000 0.821256 0.000000
O O13 0.827369 0.827369 0.250000
O O14 0.500000 0.000000 0.846082
O O15 0.500000 0.914027 0.000000
#
# Coordination Sequence:
#
# PCOD8315710 Si02
#       6
#    16   8  16   8  16   8
#     4  10  18  28  42  55  68  87 112 137 163 200
#     4  10  18  31  44  52  64  83 103 125 163 211
#     4   9  17  26  37  56  76  93 111 134 159 181
#     4  10  20  29  40  56  68  79  99 129 167 209
#     4  10  20  31  42  54  68  86 107 134 170 208
#     4   9  15  25  39  53  75 101 119 129 145 179
#
# _framework density 12.003983
#
# number of rings (size 3 to 8) (size 9 to 14) (size 15 to 20)
#    0.000    2.333    1.111    3.000    1.556    4.222 
#    0.000    0.000    0.000    4.000    0.000    0.000 
#    0.000    0.000    0.000    0.000    0.000    0.000 
#
# Total GULP energy -892067.868703 kJ/mol
# GULP energy per Si atom -12389.831510 kJ/mol
# Density = 1.197666 g / cm^3
# Si number density = 12.003983 Si / 1000 Ang^3
#
#
#
# Elastic Constant Matrix: (Units=GPa)
#
#
# Indices 1 2 3 4 5 6 
#
# 1 47.1408 10.0309 19.5212 0.0000 0.0000 0.0000
# 2 10.0309 47.1408 19.5212 0.0000 0.0000 0.0000
# 3 19.5212 19.5212 100.4014 0.0000 0.0000 0.0000
# 4 0.0000 0.0000 0.0000 15.3072 0.0000 0.0000
# 5 0.0000 0.0000 0.0000 0.0000 15.3072 0.0000
# 6 0.0000 0.0000 0.0000 0.0000 0.0000 4.0815
#
#
#
# Elastic Compliance Matrix: (Units=1/GPa)
#
#
# Indices 1 2 3 4 5 6 
#
# 1 0.023558 -0.003389 -0.003922 0.000000 0.000000 0.000000
# 2 -0.003389 0.023558 -0.003922 0.000000 0.000000 0.000000
# 3 -0.003922 -0.003922 0.011485 0.000000 0.000000 0.000000
# 4 0.000000 0.000000 0.000000 0.065329 0.000000 0.000000
# 5 0.000000 0.000000 0.000000 0.000000 0.065329 0.000000
# 6 0.000000 0.000000 0.000000 0.000000 0.000000 0.245008
#
#
# Mechanical properties :
#
#
# Convention : Reuss Voigt Hill
#
# Bulk Modulus (GPa) = 27.67230 32.53662 30.10446
# Shear Modulus (GPa) = 10.66607 16.64649 13.65628
#
# Velocity S-wave (km/s) = 2.98408 3.72795 3.37656
# Velocity P-wave (km/s) = 5.91402 6.75972 6.35096
#
# Compressibility (1/GPa) = 0.03613722
#
# Stress axis : x y z
#
# Youngs Moduli (GPa) = 42.44823 42.44823 87.07040
#
# Poissons Ratio (x) = 0.14385 0.34145
# Poissons Ratio (y) = 0.14385 0.34145
# Poissons Ratio (z) = 0.16646 0.16646
#
# Static dielectric constant tensor:
#      x y z
#    x 2.263060 0.000000 0.000000 
#    y 0.000000 2.263060 0.000000 
#    z 0.000000 0.000000 2.846320 
# 
# 
# High freq. dielectric constant tensor:
#      x y z
#    x 1.411690 0.000000 0.000000 
#    y 0.000000 1.411690 0.000000 
#    z 0.000000 0.000000 1.486060 
# 
# From -- ./inp_files/2020.got.cif
#   From: 2010.03.12/outbox.cif.g09.slc.cpg/sg131_2_cif.got.tgz:2020.got - 2010.04.06 17:36:35.
