data_PCOD8315640
_publ_section_title
;
Structure prediction by ZEFSAII (Michael W. Deem and Ramdas Pophale) SiO2 
 PCOD8315640
Probable space group: P 42/M M C
;
_chemical_formula_sum "Si O2"
_cell_formula_units_Z 40
_cell_length_a 12.884231
_cell_length_b 12.884231
_cell_length_c 18.505582
_cell_angle_alpha 90.000000
_cell_angle_beta 90.000000
_cell_angle_gamma 90.000000
_cell_volume 3071.989688
_symmetry_space_group_name_H-M "P 42/M M C"
_symmetry_group_IT_number 131
_symmetry_cell_setting 'tetragonal'
loop_
_space_group_symop_operation_xyz
x,y,z
-x,-y,z
-y,x,1/2+z
y,-x,1/2+z
-x,y,-z
x,-y,-z
y,x,1/2-z
-y,-x,1/2-z
-x,-y,-z
x,y,-z
y,-x,1/2-z
-y,x,1/2-z
x,-y,z
-x,y,z
-y,-x,1/2+z
y,x,1/2+z
loop_
_atom_site_type_symbol
_atom_site_label
_atom_site_fract_x
_atom_site_fract_y
_atom_site_fract_z
Si Si1 0.000000 0.122860 0.919623
Si Si2 0.123599 0.193908 0.325504
Si Si3 0.615394 0.876858 0.919362
O O1 0.101822 0.160682 0.877778
O O2 0.000000 0.000000 0.925308
O O3 0.000000 0.171587 0.000000
O O4 0.182464 0.182464 0.250000
O O5 0.163182 0.300914 0.361478
O O6 0.000000 0.190205 0.312648
O O7 0.500000 0.840354 0.895644
O O8 0.621000 0.000000 0.922040
O O9 0.640877 0.834375 0.000000
#
# Coordination Sequence:
#
# PCOD8315640 Si02
#       3
#     8  16  16
#     4   9  16  22  30  44  67 100 125 141 168 216
#     4  10  16  22  32  48  74  99 122 148 180 214
#     4   8  14  24  36  48  65  94 130 160 181 206
#
# _framework density 13.020878
#
# number of rings (size 3 to 8) (size 9 to 14) (size 15 to 20)
#    0.000    3.000    2.000    2.400    0.000    4.800 
#    0.000    0.000    0.000    0.000    0.000    0.000 
#    0.000    8.800    0.000    4.400    0.000    0.400 
#
# Total GULP energy -495737.460647 kJ/mol
# GULP energy per Si atom -12393.436516 kJ/mol
# Density = 1.299124 g / cm^3
# Si number density = 13.020878 Si / 1000 Ang^3
#
#
#
# Elastic Constant Matrix: (Units=GPa)
#
#
# Indices 1 2 3 4 5 6 
#
# 1 62.7946 21.7323 49.5673 0.0000 0.0000 0.0000
# 2 21.7323 62.7946 49.5673 0.0000 0.0000 0.0000
# 3 49.5673 49.5673 131.0925 0.0000 0.0000 0.0000
# 4 0.0000 0.0000 0.0000 14.7316 0.0000 0.0000
# 5 0.0000 0.0000 0.0000 0.0000 14.7316 0.0000
# 6 0.0000 0.0000 0.0000 0.0000 0.0000 4.3481
#
#
#
# Elastic Compliance Matrix: (Units=1/GPa)
#
#
# Indices 1 2 3 4 5 6 
#
# 1 0.022805 -0.001548 -0.008038 0.000000 0.000000 0.000000
# 2 -0.001548 0.022805 -0.008038 0.000000 0.000000 0.000000
# 3 -0.008038 -0.008038 0.013706 0.000000 0.000000 0.000000
# 4 0.000000 0.000000 0.000000 0.067881 0.000000 0.000000
# 5 0.000000 0.000000 0.000000 0.000000 0.067881 0.000000
# 6 0.000000 0.000000 0.000000 0.000000 0.000000 0.229984
#
#
# Mechanical properties :
#
#
# Convention : Reuss Voigt Hill
#
# Bulk Modulus (GPa) = 41.54468 55.37950 48.46209
# Shear Modulus (GPa) = 10.67618 15.81659 13.24638
#
# Velocity S-wave (km/s) = 2.86654 3.48905 3.19300
# Velocity P-wave (km/s) = 6.55222 7.67170 7.13395
#
# Compressibility (1/GPa) = 0.02407047
#
# Stress axis : x y z
#
# Youngs Moduli (GPa) = 43.84971 43.84971 72.95900
#
# Poissons Ratio (x) = 0.06788 0.58641
# Poissons Ratio (y) = 0.06788 0.58641
# Poissons Ratio (z) = 0.35244 0.35244
#
# Static dielectric constant tensor:
#      x y z
#    x 2.428610 0.000000 0.000000 
#    y 0.000000 2.428610 0.000000 
#    z 0.000000 0.000000 2.799520 
# 
# 
# High freq. dielectric constant tensor:
#      x y z
#    x 1.452620 0.000000 0.000000 
#    y 0.000000 1.452620 0.000000 
#    z 0.000000 0.000000 1.507210 
# 
# From -- ./inp_files/6806.got.cif
#   From: 2010.03.12/outbox.cif.g09.slc.cpg/sg131_4_cif.got.tgz:6806.got - 2010.04.06 17:36:35.
