data_PCOD8315161
_publ_section_title
;
Structure prediction by ZEFSAII (Michael W. Deem and Ramdas Pophale) SiO2 
 PCOD8315161
Probable space group: P 4/N M M
;
_chemical_formula_sum "Si O2"
_cell_formula_units_Z 96
_cell_length_a 25.066041
_cell_length_b 25.066041
_cell_length_c 8.815810
_cell_angle_alpha 90.000000
_cell_angle_beta 90.000000
_cell_angle_gamma 90.000000
_cell_volume 5539.029945
_symmetry_space_group_name_H-M "P 4/N M M"
_symmetry_group_IT_number 129
_symmetry_cell_setting 'tetragonal'
loop_
_space_group_symop_operation_xyz
x,y,z
1/2-y,x,z
1/2-x,1/2-y,z
y,1/2-x,z
1/2+x,-y,-z
-x,1/2+y,-z
1/2+y,1/2+x,-z
-y,-x,-z
-x,-y,-z
1/2+y,-x,-z
1/2+x,1/2+y,-z
-y,1/2+x,-z
1/2-x,y,z
x,1/2-y,z
1/2-y,1/2-x,z
y,x,z
loop_
_atom_site_type_symbol
_atom_site_label
_atom_site_fract_x
_atom_site_fract_y
_atom_site_fract_z
Si Si1 0.101862 0.312451 0.438750
Si Si2 0.310752 0.990421 0.947149
Si Si3 0.433009 0.868136 0.619968
Si Si4 0.189382 0.878734 0.113066
Si Si5 0.537070 0.877382 0.800060
Si Si6 0.499954 0.689229 0.381731
O O1 0.113889 0.250000 0.415199
O O2 0.157283 0.342718 0.472731
O O3 0.073130 0.335706 0.291511
O O4 0.061418 0.323023 0.577615
O O5 0.250000 0.012914 0.946401
O O6 0.337963 0.986552 0.779953
O O7 0.311333 0.933212 0.022775
O O8 0.348980 0.029586 0.039328
O O9 0.411165 0.911165 0.500000
O O10 0.386697 0.843643 0.728958
O O11 0.480785 0.892590 0.720875
O O12 0.459314 0.822745 0.516918
O O13 0.250000 0.861916 0.154125
O O14 0.165391 0.834610 0.000000
O O15 0.566823 0.933178 0.823483
O O16 0.490785 0.750000 0.347799
#
# Coordination Sequence:
#
# PCOD8315161 Si02
#       6
#    16  16  16  16  16  16
#     4   9  17  29  45  66  93 125 160 198 240 284
#     4   9  17  30  50  72  93 122 161 201 240 286
#     4  10  19  32  51  72  98 128 161 197 236 284
#     4  10  20  34  53  75  98 125 157 193 235 281
#     4   9  18  31  47  69  97 127 160 200 245 289
#     4   9  17  30  48  70  94 120 155 198 240 282
#
# _framework density 17.331554000000001
#
# number of rings (size 3 to 8) (size 9 to 14) (size 15 to 20)
#    0.000    2.667    0.000    2.000    0.000    5.333 
#    0.000    0.833    0.000   17.000    0.000    0.000 
#    0.000    4.000    0.000    0.000    0.000    0.000 
#
# Total GULP energy -1189632.851174 kJ/mol
# GULP energy per Si atom -12392.008866 kJ/mol
# Density = 1.729211 g / cm^3
# Si number density = 17.331554 Si / 1000 Ang^3
#
#
#
# Elastic Constant Matrix: (Units=GPa)
#
#
# Indices 1 2 3 4 5 6 
#
# 1 52.5286 57.0683 31.7824 0.0000 0.0000 0.0000
# 2 57.0683 52.5218 31.7827 0.0000 0.0000 0.0000
# 3 31.7824 31.7827 104.6680 0.0000 0.0000 0.0000
# 4 0.0000 0.0000 0.0000 20.7720 0.0000 0.0000
# 5 0.0000 0.0000 0.0000 0.0000 20.7724 0.0000
# 6 0.0000 0.0000 0.0000 0.0000 0.0000 25.2587
#
#
#
# Elastic Compliance Matrix: (Units=1/GPa)
#
#
# Indices 1 2 3 4 5 6 
#
# 1 -0.104510 0.115593 -0.003366 0.000000 0.000000 0.000000
# 2 0.115593 -0.104527 -0.003360 0.000000 0.000000 0.000000
# 3 -0.003366 -0.003360 0.011596 0.000000 0.000000 0.000000
# 4 0.000000 0.000000 0.000000 0.048142 0.000000 0.000000
# 5 0.000000 0.000000 0.000000 0.000000 0.048141 0.000000
# 6 0.000000 0.000000 0.000000 0.000000 0.000000 0.039590
#
#
# Mechanical properties :
#
#
# Convention : Reuss Voigt Hill
#
# Bulk Modulus (GPa) = 49.27376 50.10947 49.69161
# Shear Modulus (GPa) = -18.34613 19.29962 0.47674
#
# Velocity S-wave (km/s) = -3.25705 3.34062 0.52504
# Velocity P-wave (km/s) = 3.78778 6.62229 5.39453
#
# Compressibility (1/GPa) = 0.02029478
#
# Stress axis : x y z
#
# Youngs Moduli (GPa) = -9.56849 -9.56693 86.23386
#
# Poissons Ratio (x) = 1.10587 0.29026
# Poissons Ratio (y) = 1.10605 0.28975
# Poissons Ratio (z) = -0.03221 -0.03215
#
# Static dielectric constant tensor:
#      x y z
#    x 3.182900 0.000000 0.000000 
#    y 0.000000 3.182900 0.000000 
#    z 0.000000 0.000000 3.518330 
# 
# 
# High freq. dielectric constant tensor:
#      x y z
#    x 1.655510 0.000000 0.000000 
#    y 0.000000 1.655510 0.000000 
#    z 0.000000 0.000000 1.680530 
# 
# From -- ./inp_files/2594.got.cif
#   From: 2010.03.12/outbox.cif.g09.slc.cpg/sg129_2_cif.got.tgz:2594.got - 2010.04.06 17:19:44.
