data_PCOD8315883
_publ_section_title
;
Structure prediction by ZEFSAII (Michael W. Deem and Ramdas Pophale) SiO2 
 PCOD8315883
Probable space group: P 42/M M C
;
_chemical_formula_sum "Si O2"
_cell_formula_units_Z 112
_cell_length_a 14.332843
_cell_length_b 14.332843
_cell_length_c 30.129456
_cell_angle_alpha 90.000000
_cell_angle_beta 90.000000
_cell_angle_gamma 90.000000
_cell_volume 6189.505850
_symmetry_space_group_name_H-M "P 42/M M C"
_symmetry_group_IT_number 131
_symmetry_cell_setting 'tetragonal'
loop_
_space_group_symop_operation_xyz
x,y,z
-x,-y,z
-y,x,1/2+z
y,-x,1/2+z
-x,y,-z
x,-y,-z
y,x,1/2-z
-y,-x,1/2-z
-x,-y,-z
x,y,-z
y,-x,1/2-z
-y,x,1/2-z
x,-y,z
-x,y,z
-y,-x,1/2+z
y,x,1/2+z
loop_
_atom_site_type_symbol
_atom_site_label
_atom_site_fract_x
_atom_site_fract_y
_atom_site_fract_z
Si Si1 0.233539 0.106073 0.051471
Si Si2 0.888837 0.896537 0.798067
Si Si3 0.892301 0.213830 0.117596
Si Si4 0.105062 0.395227 0.164463
Si Si5 0.288314 0.392875 0.788085
Si Si6 0.394093 0.391252 0.621859
Si Si7 0.243280 0.606607 0.550480
O O1 0.159504 0.172255 0.075469
O O2 0.335760 0.149016 0.059663
O O3 0.231692 0.000000 0.069858
O O4 0.206493 0.107055 0.000000
O O5 0.856496 0.856496 0.750000
O O6 0.851358 0.830516 0.837023
O O7 0.000000 0.900110 0.797550
O O8 0.848310 0.000000 0.806556
O O9 0.876867 0.325190 0.123082
O O10 0.000000 0.187709 0.111165
O O11 0.117280 0.500000 0.145409
O O12 0.176957 0.379455 0.205132
O O13 0.000000 0.378764 0.183268
O O14 0.324376 0.324376 0.750000
O O15 0.312578 0.500000 0.775410
O O16 0.336718 0.364410 0.834136
O O17 0.382891 0.500000 0.632059
O O18 0.500000 0.366746 0.608002
O O19 0.327020 0.358952 0.581978
O O20 0.278028 0.620551 0.500000
O O21 0.216769 0.500000 0.560222
#
# Coordination Sequence:
#
# PCOD8315883 Si02
#       7
#    16  16  16  16  16  16  16
#     4  10  21  35  51  74 102 130 164 205 247 297
#     4   8  14  25  42  67  97 124 154 195 239 282
#     4  10  19  32  52  74  98 130 163 198 246 299
#     4   9  19  35  53  73  97 129 171 211 244 287
#     4  10  19  31  50  75 104 137 169 203 245 294
#     4   9  17  29  48  77 109 135 163 206 256 302
#     4   9  18  33  52  72  96 130 171 211 251 297
#
# _framework density 18.095144999999999
#
# number of rings (size 3 to 8) (size 9 to 14) (size 15 to 20)
#    0.000    2.714    0.000    2.143    0.000    3.000 
#    0.000    3.571    0.000    4.714    0.000    6.000 
#    0.000    0.000    0.000    0.000    0.000    0.000 
#
# Total GULP energy -1388418.512542 kJ/mol
# GULP energy per Si atom -12396.593862 kJ/mol
# Density = 1.805396 g / cm^3
# Si number density = 18.095145 Si / 1000 Ang^3
#
#
#
# Elastic Constant Matrix: (Units=GPa)
#
#
# Indices 1 2 3 4 5 6 
#
# 1 101.4011 54.6584 56.1515 0.0000 0.0000 0.0000
# 2 54.6584 101.4011 56.1515 0.0000 0.0000 0.0000
# 3 56.1515 56.1515 89.7483 0.0000 0.0000 0.0000
# 4 0.0000 0.0000 0.0000 26.3780 0.0000 0.0000
# 5 0.0000 0.0000 0.0000 0.0000 26.3780 0.0000
# 6 0.0000 0.0000 0.0000 0.0000 0.0000 23.7018
#
#
#
# Elastic Compliance Matrix: (Units=1/GPa)
#
#
# Indices 1 2 3 4 5 6 
#
# 1 0.016525 -0.004869 -0.007292 0.000000 0.000000 0.000000
# 2 -0.004869 0.016525 -0.007292 0.000000 0.000000 0.000000
# 3 -0.007292 -0.007292 0.020267 0.000000 0.000000 0.000000
# 4 0.000000 0.000000 0.000000 0.037910 0.000000 0.000000
# 5 0.000000 0.000000 0.000000 0.000000 0.037910 0.000000
# 6 0.000000 0.000000 0.000000 0.000000 0.000000 0.042191
#
#
# Mechanical properties :
#
#
# Convention : Reuss Voigt Hill
#
# Bulk Modulus (GPa) = 69.40140 69.60813 69.50477
# Shear Modulus (GPa) = 23.25164 23.66416 23.45790
#
# Velocity S-wave (km/s) = 3.58853 3.62022 3.60441
# Velocity P-wave (km/s) = 7.45701 7.48506 7.47104
#
# Compressibility (1/GPa) = 0.01440893
#
# Stress axis : x y z
#
# Youngs Moduli (GPa) = 60.51582 60.51582 49.34079
#
# Poissons Ratio (x) = 0.29466 0.35981
# Poissons Ratio (y) = 0.29466 0.35981
# Poissons Ratio (z) = 0.44130 0.44130
#
# Static dielectric constant tensor:
#      x y z
#    x 3.418340 0.000000 0.000000 
#    y 0.000000 3.418340 0.000000 
#    z 0.000000 0.000000 3.285090 
# 
# 
# High freq. dielectric constant tensor:
#      x y z
#    x 1.700390 0.000000 0.000000 
#    y 0.000000 1.700390 0.000000 
#    z 0.000000 0.000000 1.681040 
# 
# From -- ./inp_files/12442.got.cif
#   From: 2010.03.12/outbox.cif.g09.slc.cpg/sg131_7_cif.got.tgz:12442.got - 2010.04.06 17:36:35.
