data_PCOD8315399
_publ_section_title
;
Structure prediction by ZEFSAII (Michael W. Deem and Ramdas Pophale) SiO2 
 PCOD8315399
Probable space group: P 4/N M M
;
_chemical_formula_sum "Si O2"
_cell_formula_units_Z 80
_cell_length_a 13.218802
_cell_length_b 13.218802
_cell_length_c 25.349412
_cell_angle_alpha 90.000000
_cell_angle_beta 90.000000
_cell_angle_gamma 90.000000
_cell_volume 4429.473267
_symmetry_space_group_name_H-M "P 4/N M M"
_symmetry_group_IT_number 129
_symmetry_cell_setting 'tetragonal'
loop_
_space_group_symop_operation_xyz
x,y,z
1/2-y,x,z
1/2-x,1/2-y,z
y,1/2-x,z
1/2+x,-y,-z
-x,1/2+y,-z
1/2+y,1/2+x,-z
-y,-x,-z
-x,-y,-z
1/2+y,-x,-z
1/2+x,1/2+y,-z
-y,1/2+x,-z
1/2-x,y,z
x,1/2-y,z
1/2-y,1/2-x,z
y,x,z
loop_
_atom_site_type_symbol
_atom_site_label
_atom_site_fract_x
_atom_site_fract_y
_atom_site_fract_z
Si Si1 0.866005 0.468201 0.452175
Si Si2 0.365846 0.970959 0.359747
Si Si3 0.032133 0.867175 0.146638
Si Si4 0.470593 0.633728 0.760457
Si Si5 0.632457 0.033454 0.950974
O O1 0.894444 0.394444 0.500000
O O2 0.750000 0.499018 0.456258
O O3 0.884234 0.410359 0.397149
O O4 0.928552 0.571449 0.455423
O O5 0.250000 0.992386 0.373877
O O6 0.378806 0.933387 0.299683
O O7 0.423987 0.076014 0.369898
O O8 0.007600 0.750000 0.138991
O O9 0.085377 0.884176 0.203052
O O10 0.108851 0.905425 0.102106
O O11 0.926070 0.926070 0.142598
O O12 0.489053 0.750000 0.775302
O O13 0.576873 0.576873 0.770185
O O14 0.750000 0.005854 0.952927
O O15 0.571664 0.928337 0.953225
O O16 0.604161 0.104161 0.000000
#
# Coordination Sequence:
#
# PCOD8315399 Si02
#       5
#    16  16  16  16  16
#     4  10  21  36  53  74 100 129 163 203 245 291
#     4   9  18  32  50  74 103 133 166 204 245 291
#     4  10  21  36  53  74 100 130 167 210 253 299
#     4   9  18  32  50  74 103 133 166 204 246 294
#     4  10  21  36  54  78 106 135 169 207 247 294
#
# _framework density 18.060838
#
# number of rings (size 3 to 8) (size 9 to 14) (size 15 to 20)
#    0.000    2.400    0.000    1.800    0.000    5.800 
#    0.000    4.000    0.000   10.800    0.000    5.600 
#    0.000    0.000    0.000    0.000    0.000    0.000 
#
# Total GULP energy -992236.845415 kJ/mol
# GULP energy per Si atom -12402.960568 kJ/mol
# Density = 1.801973 g / cm^3
# Si number density = 18.060838 Si / 1000 Ang^3
#
#
#
# Elastic Constant Matrix: (Units=GPa)
#
#
# Indices 1 2 3 4 5 6 
#
# 1 128.9494 51.0448 50.4075 0.0000 0.0000 0.0000
# 2 51.0448 128.9494 50.4075 0.0000 0.0000 0.0000
# 3 50.4075 50.4075 100.5993 0.0000 0.0000 0.0000
# 4 0.0000 0.0000 0.0000 22.4407 0.0000 0.0000
# 5 0.0000 0.0000 0.0000 0.0000 22.4407 0.0000
# 6 0.0000 0.0000 0.0000 0.0000 0.0000 10.4931
#
#
#
# Elastic Compliance Matrix: (Units=1/GPa)
#
#
# Indices 1 2 3 4 5 6 
#
# 1 0.010280 -0.002556 -0.003870 0.000000 0.000000 0.000000
# 2 -0.002556 0.010280 -0.003870 0.000000 0.000000 0.000000
# 3 -0.003870 -0.003870 0.013819 0.000000 0.000000 0.000000
# 4 0.000000 0.000000 0.000000 0.044562 0.000000 0.000000
# 5 0.000000 0.000000 0.000000 0.000000 0.044562 0.000000
# 6 0.000000 0.000000 0.000000 0.000000 0.000000 0.095301
#
#
# Mechanical properties :
#
#
# Convention : Reuss Voigt Hill
#
# Bulk Modulus (GPa) = 72.53986 73.57975 73.05980
# Shear Modulus (GPa) = 20.49262 24.85080 22.67171
#
# Velocity S-wave (km/s) = 3.37210 3.71340 3.54686
# Velocity P-wave (km/s) = 7.44398 7.69508 7.57057
#
# Compressibility (1/GPa) = 0.01378552
#
# Stress axis : x y z
#
# Youngs Moduli (GPa) = 97.27869 97.27869 72.36597
#
# Poissons Ratio (x) = 0.24869 0.28005
# Poissons Ratio (y) = 0.24869 0.28005
# Poissons Ratio (z) = 0.37646 0.37646
#
# Static dielectric constant tensor:
#      x y z
#    x 3.177310 0.000000 0.000000 
#    y 0.000000 3.177310 0.000000 
#    z 0.000000 0.000000 3.619630 
# 
# 
# High freq. dielectric constant tensor:
#      x y z
#    x 1.691180 0.000000 0.000000 
#    y 0.000000 1.691180 0.000000 
#    z 0.000000 0.000000 1.720120 
# 
# From -- ./inp_files/7682.got.cif
#   From: 2010.03.12/outbox.cif.g09.slc.cpg/sg129_4_cif.got.tgz:7682.got - 2010.04.06 17:19:44.
