data_PCOD8315435
_publ_section_title
;
Structure prediction by ZEFSAII (Michael W. Deem and Ramdas Pophale) SiO2 
 PCOD8315435
Probable space group: P 4/N M M
;
_chemical_formula_sum "Si O2"
_cell_formula_units_Z 72
_cell_length_a 19.959165
_cell_length_b 19.959165
_cell_length_c 12.550175
_cell_angle_alpha 90.000000
_cell_angle_beta 90.000000
_cell_angle_gamma 90.000000
_cell_volume 4999.591472
_symmetry_space_group_name_H-M "P 4/N M M"
_symmetry_group_IT_number 129
_symmetry_cell_setting 'tetragonal'
loop_
_space_group_symop_operation_xyz
x,y,z
1/2-y,x,z
1/2-x,1/2-y,z
y,1/2-x,z
1/2+x,-y,-z
-x,1/2+y,-z
1/2+y,1/2+x,-z
-y,-x,-z
-x,-y,-z
1/2+y,-x,-z
1/2+x,1/2+y,-z
-y,1/2+x,-z
1/2-x,y,z
x,1/2-y,z
1/2-y,1/2-x,z
y,x,z
loop_
_atom_site_type_symbol
_atom_site_label
_atom_site_fract_x
_atom_site_fract_y
_atom_site_fract_z
Si Si1 0.324264 0.430401 0.430155
Si Si2 0.570057 0.824679 0.823220
Si Si3 0.082048 0.828792 0.574999
Si Si4 0.672107 0.327893 0.000000
Si Si5 0.670568 0.422776 0.813407
O O1 0.250000 0.412529 0.474399
O O2 0.378372 0.378372 0.478780
O O3 0.322680 0.425139 0.303529
O O4 0.343844 0.506061 0.462879
O O5 0.582757 0.750000 0.869375
O O6 0.625579 0.874422 0.872462
O O7 0.496287 0.852226 0.854250
O O8 0.133307 0.866693 0.500000
O O9 0.097393 0.750000 0.568331
O O10 0.093255 0.856783 0.695205
O O11 0.645189 0.367053 0.896380
O O12 0.750000 0.342163 0.020751
O O13 0.750000 0.423918 0.804875
#
# Coordination Sequence:
#
# PCOD8315435 Si02
#       5
#    16  16  16   8  16
#     4   8  14  24  37  54  75  98 125 155 187 224
#     4   8  13  22  36  53  75 100 122 147 180 219
#     4   9  17  27  38  54  77 104 130 154 184 223
#     4   9  16  26  41  56  68  90 127 162 186 215
#     4   8  15  27  39  53  75  99 122 152 190 221
#
# _framework density 14.401177000000001
#
# number of rings (size 3 to 8) (size 9 to 14) (size 15 to 20)
#    0.000    3.667    0.000    2.667    0.000    2.000 
#    0.000    5.000    0.000    0.000    0.000    0.000 
#    0.000    0.000    0.000    0.000    0.000   19.556 
#
# Total GULP energy -892205.941623 kJ/mol
# GULP energy per Si atom -12391.749189 kJ/mol
# Density = 1.436840 g / cm^3
# Si number density = 14.401177 Si / 1000 Ang^3
#
#
#
# Elastic Constant Matrix: (Units=GPa)
#
#
# Indices 1 2 3 4 5 6 
#
# 1 83.2958 57.7394 38.7499 0.0000 0.0000 0.0000
# 2 57.7394 83.2944 38.7501 0.0000 0.0000 0.0000
# 3 38.7499 38.7501 51.5274 0.0000 0.0000 0.0000
# 4 0.0000 0.0000 0.0000 11.2756 0.0000 0.0000
# 5 0.0000 0.0000 0.0000 0.0000 11.2756 0.0000
# 6 0.0000 0.0000 0.0000 0.0000 0.0000 23.4309
#
#
#
# Elastic Compliance Matrix: (Units=1/GPa)
#
#
# Indices 1 2 3 4 5 6 
#
# 1 0.025607 -0.013523 -0.009087 0.000000 0.000000 0.000000
# 2 -0.013523 0.025608 -0.009088 0.000000 0.000000 0.000000
# 3 -0.009087 -0.009088 0.033076 0.000000 0.000000 0.000000
# 4 0.000000 0.000000 0.000000 0.088687 0.000000 0.000000
# 5 0.000000 0.000000 0.000000 0.000000 0.088687 0.000000
# 6 0.000000 0.000000 0.000000 0.000000 0.000000 0.042679
#
#
# Mechanical properties :
#
#
# Convention : Reuss Voigt Hill
#
# Bulk Modulus (GPa) = 47.86226 54.28851 51.07538
# Shear Modulus (GPa) = 13.34384 14.72162 14.03273
#
# Velocity S-wave (km/s) = 3.04728 3.20073 3.12495
# Velocity P-wave (km/s) = 6.75931 7.17208 6.96875
#
# Compressibility (1/GPa) = 0.02089329
#
# Stress axis : x y z
#
# Youngs Moduli (GPa) = 39.05207 39.05078 30.23379
#
# Poissons Ratio (x) = 0.52808 0.27474
# Poissons Ratio (y) = 0.52810 0.27477
# Poissons Ratio (z) = 0.35488 0.35490
#
# Static dielectric constant tensor:
#      x y z
#    x 2.971230 0.000000 0.000000 
#    y 0.000000 2.971240 0.000000 
#    z 0.000000 0.000000 2.543850 
# 
# 
# High freq. dielectric constant tensor:
#      x y z
#    x 1.546060 0.000000 0.000000 
#    y 0.000000 1.546060 0.000000 
#    z 0.000000 0.000000 1.499630 
# 
# From -- ./inp_files/3684.got.cif
#   From: 2010.03.12/outbox.cif.g09.slc.cpg/sg129_2_cif.got.tgz:3684.got - 2010.04.06 17:19:44.
