data_PCOD8315699
_publ_section_title
;
Structure prediction by ZEFSAII (Michael W. Deem and Ramdas Pophale) SiO2 
 PCOD8315699
Probable space group: P 42/M M C
;
_chemical_formula_sum "Si O2"
_cell_formula_units_Z 96
_cell_length_a 13.758321
_cell_length_b 13.758321
_cell_length_c 32.036967
_cell_angle_alpha 90.000000
_cell_angle_beta 90.000000
_cell_angle_gamma 90.000000
_cell_volume 6064.322231
_symmetry_space_group_name_H-M "P 42/M M C"
_symmetry_group_IT_number 131
_symmetry_cell_setting 'tetragonal'
loop_
_space_group_symop_operation_xyz
x,y,z
-x,-y,z
-y,x,1/2+z
y,-x,1/2+z
-x,y,-z
x,-y,-z
y,x,1/2-z
-y,-x,1/2-z
-x,-y,-z
x,y,-z
y,-x,1/2-z
-y,x,1/2-z
x,-y,z
-x,y,z
-y,-x,1/2+z
y,x,1/2+z
loop_
_atom_site_type_symbol
_atom_site_label
_atom_site_fract_x
_atom_site_fract_y
_atom_site_fract_z
Si Si1 0.115604 0.891377 0.795792
Si Si2 0.386076 0.699805 0.790858
Si Si3 0.884650 0.771237 0.123843
Si Si4 0.614053 0.107407 0.749008
Si Si5 0.386529 0.215998 0.335575
Si Si6 0.115324 0.891352 0.045961
O O1 0.150754 0.849247 0.750000
O O2 0.151769 0.827216 0.834551
O O3 0.000000 0.894516 0.794476
O O4 0.156340 0.000000 0.802785
O O5 0.365039 0.634962 0.750000
O O6 0.500000 0.692905 0.801543
O O7 0.353209 0.812661 0.783303
O O8 0.324485 0.655618 0.828925
O O9 0.834231 0.665345 0.124794
O O10 0.843013 0.823629 0.082558
O O11 0.000000 0.761055 0.122146
O O12 0.500000 0.095748 0.752084
O O13 0.640774 0.147206 0.703449
O O14 0.662668 0.000000 0.755874
O O15 0.500000 0.222266 0.344561
O O16 0.000000 0.894683 0.049324
O O17 0.156477 0.000000 0.052462
O O18 0.146487 0.852184 0.000000
#
# Coordination Sequence:
#
# PCOD8315699 Si02
#       6
#    16  16  16  16  16  16
#     4   8  14  24  36  52  78 110 140 169 200 237
#     4   9  17  29  45  62  79 106 149 196 233 261
#     4  10  18  27  41  59  82 114 145 172 209 259
#     4   8  14  26  42  57  76 104 138 178 222 262
#     4  10  20  30  39  55  80 110 146 183 218 260
#     4   8  14  26  45  67  88 110 139 178 222 265
#
# _framework density 15.830294
#
# number of rings (size 3 to 8) (size 9 to 14) (size 15 to 20)
#    0.000    3.167    0.000    3.500    0.000    6.167 
#    0.000    3.333    0.000    0.500    0.000    2.333 
#    0.000   17.000    0.000    3.333    0.000    0.167 
#
# Total GULP energy -1189599.251410 kJ/mol
# GULP energy per Si atom -12391.658869 kJ/mol
# Density = 1.579426 g / cm^3
# Si number density = 15.830294 Si / 1000 Ang^3
#
#
#
# Elastic Constant Matrix: (Units=GPa)
#
#
# Indices 1 2 3 4 5 6 
#
# 1 79.3239 33.8820 42.8281 0.0000 0.0000 0.0000
# 2 33.8820 79.3247 42.8280 0.0000 0.0000 0.0000
# 3 42.8281 42.8280 97.6484 0.0000 0.0000 0.0000
# 4 0.0000 0.0000 0.0000 13.6759 0.0000 0.0000
# 5 0.0000 0.0000 0.0000 0.0000 13.6758 0.0000
# 6 0.0000 0.0000 0.0000 0.0000 0.0000 18.1391
#
#
#
# Elastic Compliance Matrix: (Units=1/GPa)
#
#
# Indices 1 2 3 4 5 6 
#
# 1 0.017614 -0.004393 -0.005799 0.000000 0.000000 0.000000
# 2 -0.004393 0.017613 -0.005799 0.000000 0.000000 0.000000
# 3 -0.005799 -0.005799 0.015327 0.000000 0.000000 0.000000
# 4 0.000000 0.000000 0.000000 0.073122 0.000000 0.000000
# 5 0.000000 0.000000 0.000000 0.000000 0.073122 0.000000
# 6 0.000000 0.000000 0.000000 0.000000 0.000000 0.055129
#
#
# Mechanical properties :
#
#
# Convention : Reuss Voigt Hill
#
# Bulk Modulus (GPa) = 53.83688 55.04147 54.43918
# Shear Modulus (GPa) = 17.23557 18.21542 17.72549
#
# Velocity S-wave (km/s) = 3.30323 3.39583 3.34985
# Velocity P-wave (km/s) = 6.97360 7.08666 7.03036
#
# Compressibility (1/GPa) = 0.01857463
#
# Stress axis : x y z
#
# Youngs Moduli (GPa) = 56.77448 56.77532 65.24306
#
# Poissons Ratio (x) = 0.24939 0.37832
# Poissons Ratio (y) = 0.24938 0.37831
# Poissons Ratio (z) = 0.32922 0.32921
#
# Static dielectric constant tensor:
#      x y z
#    x 3.073180 0.000000 0.000000 
#    y 0.000000 3.073190 0.000000 
#    z 0.000000 0.000000 2.897510 
# 
# 
# High freq. dielectric constant tensor:
#      x y z
#    x 1.600210 0.000000 0.000000 
#    y 0.000000 1.600210 0.000000 
#    z 0.000000 0.000000 1.557420 
# 
# From -- ./inp_files/13684.got.cif
#   From: 2010.03.12/outbox.cif.g09.slc.cpg/sg131_7_cif.got.tgz:13684.got - 2010.04.06 17:36:35.
