data_PCOD8315476
_publ_section_title
;
Structure prediction by ZEFSAII (Michael W. Deem and Ramdas Pophale) SiO2 
 PCOD8315476
Probable space group: P 4/N C C
;
_chemical_formula_sum "Si O2"
_cell_formula_units_Z 112
_cell_length_a 14.604251
_cell_length_b 14.604251
_cell_length_c 26.989404
_cell_angle_alpha 90.000000
_cell_angle_beta 90.000000
_cell_angle_gamma 90.000000
_cell_volume 5756.412017
_symmetry_space_group_name_H-M "P 4/N C C"
_symmetry_group_IT_number 130
_symmetry_cell_setting 'tetragonal'
loop_
_space_group_symop_operation_xyz
x,y,z
1/2-y,x,z
1/2-x,1/2-y,z
y,1/2-x,z
1/2+x,-y,1/2-z
-x,1/2+y,1/2-z
1/2+y,1/2+x,1/2-z
-y,-x,1/2-z
-x,-y,-z
1/2+y,-x,-z
1/2+x,1/2+y,-z
-y,1/2+x,-z
1/2-x,y,1/2+z
x,1/2-y,1/2+z
1/2-y,1/2-x,1/2+z
y,x,1/2+z
loop_
_atom_site_type_symbol
_atom_site_label
_atom_site_fract_x
_atom_site_fract_y
_atom_site_fract_z
Si Si1 0.537865 0.085332 0.636582
Si Si2 0.067457 0.053257 0.445403
Si Si3 0.679204 0.618317 0.640302
Si Si4 0.053354 0.061570 0.281753
Si Si5 0.151432 0.784636 0.925468
Si Si6 0.136970 0.573284 0.509134
Si Si7 0.878500 0.669794 0.307206
O O1 0.605160 0.167170 0.621493
O O2 0.438550 0.127721 0.648521
O O3 0.524798 0.014321 0.591708
O O4 0.582604 0.036078 0.684530
O O5 0.156141 0.089136 0.415804
O O6 0.028506 0.129610 0.484273
O O7 0.102492 0.965152 0.474922
O O8 0.786124 0.626421 0.649024
O O9 0.639023 0.546759 0.680739
O O10 0.075504 0.146003 0.245622
O O11 0.031115 0.968885 0.250000
O O12 0.250000 0.750000 0.907125
O O13 0.080989 0.705538 0.944276
O O14 0.173433 0.855441 0.969002
O O15 0.875114 0.778768 0.311145
#
# Coordination Sequence:
#
# PCOD8315476 Si02
#       7
#    16  16  16  16  16  16  16
#     4   9  21  36  55  82 118 143 182 236 280 330
#     4   9  21  34  52  79 112 151 183 231 279 319
#     4  10  20  33  54  84 113 142 184 231 277 335
#     4   9  18  36  56  78 111 142 175 225 280 331
#     4  11  20  35  58  82 107 148 193 234 276 327
#     4  10  19  34  53  79 106 146 193 225 272 327
#     4  10  20  35  60  84 111 147 184 224 278 347
#
# _framework density 19.456565000000001
#
# number of rings (size 3 to 8) (size 9 to 14) (size 15 to 20)
#    0.000    2.286    1.429    0.857    4.000    2.286 
#    0.000    0.000    3.143    3.000    0.000    0.000 
#    0.000    0.000    0.000    0.000    0.000    0.000 
#
# Total GULP energy -1388277.108698 kJ/mol
# GULP energy per Si atom -12395.331328 kJ/mol
# Density = 1.941228 g / cm^3
# Si number density = 19.456565 Si / 1000 Ang^3
#
#
#
# Elastic Constant Matrix: (Units=GPa)
#
#
# Indices 1 2 3 4 5 6 
#
# 1 53.2270 24.7914 12.7724 0.0000 0.0000 0.0000
# 2 24.7914 53.2270 12.7724 0.0000 0.0000 0.0000
# 3 12.7724 12.7724 53.6806 0.0000 0.0000 0.0000
# 4 0.0000 0.0000 0.0000 26.0609 0.0000 0.0000
# 5 0.0000 0.0000 0.0000 0.0000 26.0609 0.0000
# 6 0.0000 0.0000 0.0000 0.0000 0.0000 30.6787
#
#
#
# Elastic Compliance Matrix: (Units=1/GPa)
#
#
# Indices 1 2 3 4 5 6 
#
# 1 0.024534 -0.010633 -0.003307 0.000000 0.000000 0.000000
# 2 -0.010633 0.024534 -0.003307 0.000000 0.000000 0.000000
# 3 -0.003307 -0.003307 0.020203 0.000000 0.000000 0.000000
# 4 0.000000 0.000000 0.000000 0.038372 0.000000 0.000000
# 5 0.000000 0.000000 0.000000 0.000000 0.038372 0.000000
# 6 0.000000 0.000000 0.000000 0.000000 0.000000 0.032596
#
#
# Mechanical properties :
#
#
# Convention : Reuss Voigt Hill
#
# Bulk Modulus (GPa) = 28.75720 28.97855 28.86788
# Shear Modulus (GPa) = 22.25216 23.87997 23.06607
#
# Velocity S-wave (km/s) = 3.38551 3.50715 3.44687
# Velocity P-wave (km/s) = 5.48585 5.59700 5.54170
#
# Compressibility (1/GPa) = 0.03477390
#
# Stress axis : x y z
#
# Youngs Moduli (GPa) = 40.76003 40.76003 49.49864
#
# Poissons Ratio (x) = 0.43342 0.16371
# Poissons Ratio (y) = 0.43342 0.16371
# Poissons Ratio (z) = 0.13481 0.13481
#
# Static dielectric constant tensor:
#      x y z
#    x 3.480020 0.000000 0.000000 
#    y 0.000000 3.480020 0.000000 
#    z 0.000000 0.000000 3.720380 
# 
# 
# High freq. dielectric constant tensor:
#      x y z
#    x 1.745810 0.000000 0.000000 
#    y 0.000000 1.745810 0.000000 
#    z 0.000000 0.000000 1.761120 
# 
# From -- ./inp_files/4589.got.cif
#   From: 2010.03.12/outbox.cif.g09.slc.cpg/sg130_3_cif.got.tgz:4589.got - 2010.04.06 17:30:23.
