data_PCOD8315575
_publ_section_title
;
Structure prediction by ZEFSAII (Michael W. Deem and Ramdas Pophale) SiO2 
 PCOD8315575
Probable space group: P 4/N C C
;
_chemical_formula_sum "Si O2"
_cell_formula_units_Z 88
_cell_length_a 10.611834
_cell_length_b 10.611834
_cell_length_c 33.453244
_cell_angle_alpha 90.000000
_cell_angle_beta 90.000000
_cell_angle_gamma 90.000000
_cell_volume 3767.203957
_symmetry_space_group_name_H-M "P 4/N C C"
_symmetry_group_IT_number 130
_symmetry_cell_setting 'tetragonal'
loop_
_space_group_symop_operation_xyz
x,y,z
1/2-y,x,z
1/2-x,1/2-y,z
y,1/2-x,z
1/2+x,-y,1/2-z
-x,1/2+y,1/2-z
1/2+y,1/2+x,1/2-z
-y,-x,1/2-z
-x,-y,-z
1/2+y,-x,-z
1/2+x,1/2+y,-z
-y,1/2+x,-z
1/2-x,y,1/2+z
x,1/2-y,1/2+z
1/2-y,1/2-x,1/2+z
y,x,1/2+z
loop_
_atom_site_type_symbol
_atom_site_label
_atom_site_fract_x
_atom_site_fract_y
_atom_site_fract_z
Si Si1 0.100045 0.105915 0.126657
Si Si2 0.750000 0.250000 0.873268
Si Si3 0.608619 0.424250 0.682911
Si Si4 0.298763 0.445574 0.244471
Si Si5 0.345925 0.570834 0.561506
Si Si6 0.042752 0.283063 0.989650
O O1 0.246341 0.074750 0.134147
O O2 0.051393 0.081204 0.080547
O O3 0.026049 0.012767 0.157203
O O4 0.868369 0.213503 0.846280
O O5 0.781558 0.369401 0.900061
O O6 0.680135 0.531843 0.708069
O O7 0.564541 0.322748 0.716125
O O8 0.160091 0.401165 0.233530
O O9 0.437832 0.676255 0.542351
O O10 0.232728 0.528124 0.531949
O O11 0.106552 0.145761 0.985123
#
# Coordination Sequence:
#
# PCOD8315575 Si02
#       6
#    16   8  16  16  16  16
#     4  11  23  42  71 105 139 190 249 310 367 443
#     4  12  28  42  66 112 140 188 238 310 370 436
#     4  11  25  43  69 103 144 180 242 304 368 430
#     4  10  24  45  70  99 140 194 241 291 363 444
#     4  12  25  45  71 101 151 188 250 305 385 448
#     4  11  26  47  73 104 142 198 250 306 380 463
#
# _framework density 23.359500000000001
#
# number of rings (size 3 to 8) (size 9 to 14) (size 15 to 20)
#    0.000    0.909    1.818    3.818    5.091    5.818 
#    0.000    0.000    0.000    0.000    0.000    0.000 
#    0.000    0.000    0.000    0.000    0.000    0.000 
#
# Total GULP energy -1090194.011299 kJ/mol
# GULP energy per Si atom -12388.568310 kJ/mol
# Density = 2.330633 g / cm^3
# Si number density = 23.359500 Si / 1000 Ang^3
#
#
#
# Elastic Constant Matrix: (Units=GPa)
#
#
# Indices 1 2 3 4 5 6 
#
# 1 5202.1139-5160.2730 3.7508 0.0000 0.0000 0.0000
# 2 -5160.2730 5202.1139 3.7508 0.0000 0.0000 0.0000
# 3 3.7508 3.7508 91.6480 0.0000 0.0000 0.0000
# 4 0.0000 0.0000 0.0000 51.5069 0.0000 0.0000
# 5 0.0000 0.0000 0.0000 0.0000 51.5069 0.0000
# 6 0.0000 0.0000 0.0000 0.0000 0.0000 20.9537
#
#
#
# Elastic Compliance Matrix: (Units=1/GPa)
#
#
# Indices 1 2 3 4 5 6 
#
# 1 0.012087 0.011990 -0.000985 0.000000 0.000000 0.000000
# 2 0.011990 0.012087 -0.000985 0.000000 0.000000 0.000000
# 3 -0.000985 -0.000985 0.010992 0.000000 0.000000 0.000000
# 4 0.000000 0.000000 0.000000 0.019415 0.000000 0.000000
# 5 0.000000 0.000000 0.000000 0.000000 0.019415 0.000000
# 6 0.000000 0.000000 0.000000 0.000000 0.000000 0.047724
#
#
# Mechanical properties :
#
#
# Convention : Reuss Voigt Hill
#
# Bulk Modulus (GPa) = 18.11464 21.14809 19.63136
# Shear Modulus (GPa) = 41.63831 1068.03665 554.83748
#
# Velocity S-wave (km/s) = 4.22655 21.40584 15.42844
# Velocity P-wave (km/s) = 5.62048 24.90019 18.05006
#
# Compressibility (1/GPa) = 0.05520398
#
# Stress axis : x y z
#
# Youngs Moduli (GPa) = 82.73616 82.73616 90.97549
#
# Poissons Ratio (x) = -0.99202 0.08964
# Poissons Ratio (y) = -0.99202 0.08964
# Poissons Ratio (z) = 0.08152 0.08152
#
# Static dielectric constant tensor:
#      x y z
#    x 4.243760 0.000000 0.000000 
#    y 0.000000 4.243760 0.000000 
#    z 0.000000 0.000000 4.458450 
# 
# 
# High freq. dielectric constant tensor:
#      x y z
#    x 1.919200 0.000000 0.000000 
#    y 0.000000 1.919200 0.000000 
#    z 0.000000 0.000000 1.937250 
# 
# From -- ./inp_files/4864.got.cif
#   From: 2010.03.12/outbox.cif.g09.slc.cpg/sg130_3_cif.got.tgz:4864.got - 2010.04.06 17:30:23.
