data_PCOD8315715
_publ_section_title
;
Structure prediction by ZEFSAII (Michael W. Deem and Ramdas Pophale) SiO2 
 PCOD8315715
Probable space group: P 42/M M C
;
_chemical_formula_sum "Si O2"
_cell_formula_units_Z 96
_cell_length_a 17.134074
_cell_length_b 17.134074
_cell_length_c 22.654526
_cell_angle_alpha 90.000000
_cell_angle_beta 90.000000
_cell_angle_gamma 90.000000
_cell_volume 6650.836267
_symmetry_space_group_name_H-M "P 42/M M C"
_symmetry_group_IT_number 131
_symmetry_cell_setting 'tetragonal'
loop_
_space_group_symop_operation_xyz
x,y,z
-x,-y,z
-y,x,1/2+z
y,-x,1/2+z
-x,y,-z
x,-y,-z
y,x,1/2-z
-y,-x,1/2-z
-x,-y,-z
x,y,-z
y,-x,1/2-z
-y,x,1/2-z
x,-y,z
-x,y,z
-y,-x,1/2+z
y,x,1/2+z
loop_
_atom_site_type_symbol
_atom_site_label
_atom_site_fract_x
_atom_site_fract_y
_atom_site_fract_z
Si Si1 0.711649 0.412089 0.262089
Si Si2 0.591450 0.276673 0.567453
Si Si3 0.000000 0.593294 0.652754
Si Si4 0.706121 0.410960 0.602171
Si Si5 0.164290 0.592370 0.830266
Si Si6 0.407576 0.128692 0.064495
Si Si7 0.000000 0.406745 0.212737
O O1 0.632160 0.367841 0.250000
O O2 0.696116 0.500000 0.240961
O O3 0.732974 0.407381 0.330221
O O4 0.782671 0.376332 0.223822
O O5 0.611670 0.255483 0.500000
O O6 0.500000 0.292545 0.576148
O O7 0.633336 0.356071 0.587459
O O8 0.619020 0.203361 0.607781
O O9 0.075170 0.626454 0.617081
O O10 0.000000 0.624944 0.719725
O O11 0.000000 0.500000 0.652899
O O12 0.683503 0.500000 0.584452
O O13 0.781804 0.378849 0.567883
O O14 0.158510 0.500000 0.827266
O O15 0.076505 0.625831 0.821781
O O16 0.500000 0.128870 0.071072
O O17 0.382842 0.095675 0.000000
O O18 0.000000 0.500000 0.214048
#
# Coordination Sequence:
#
# PCOD8315715 Si02
#       7
#    16  16   8  16  16  16   8
#     4  10  18  28  42  59  80 105 135 173 210 245
#     4  10  20  32  43  55  76 106 140 179 217 249
#     4   9  15  24  39  59  78  99 125 157 199 242
#     4  10  19  29  42  59  79 107 143 176 206 243
#     4   9  17  30  44  60  78  98 128 168 213 253
#     4   9  16  25  37  55  80 106 132 162 193 232
#     4   9  16  27  45  61  75  94 123 167 213 255
#
# _framework density 14.434275
#
# number of rings (size 3 to 8) (size 9 to 14) (size 15 to 20)
#    0.000    2.500    1.667    1.750    0.000    6.500 
#    0.000    2.917    0.000    2.500    0.000    0.000 
#    0.000    0.000    0.000    0.000    0.000    2.917 
#
# Total GULP energy -1189768.197151 kJ/mol
# GULP energy per Si atom -12393.418720 kJ/mol
# Density = 1.440142 g / cm^3
# Si number density = 14.434275 Si / 1000 Ang^3
#
#
#
# Elastic Constant Matrix: (Units=GPa)
#
#
# Indices 1 2 3 4 5 6 
#
# 1 66.1102 31.9798 37.7325 0.0000 0.0000 0.0000
# 2 31.9798 66.1078 37.7335 0.0000 0.0000 0.0000
# 3 37.7325 37.7335 102.5519 0.0000 0.0000 0.0000
# 4 0.0000 0.0000 0.0000 17.6368 0.0000 0.0000
# 5 0.0000 0.0000 0.0000 0.0000 17.6369 0.0000
# 6 0.0000 0.0000 0.0000 0.0000 0.0000 1.2363
#
#
#
# Elastic Compliance Matrix: (Units=1/GPa)
#
#
# Indices 1 2 3 4 5 6 
#
# 1 0.021760 -0.007540 -0.005232 0.000000 0.000000 0.000000
# 2 -0.007540 0.021761 -0.005233 0.000000 0.000000 0.000000
# 3 -0.005232 -0.005233 0.013601 0.000000 0.000000 0.000000
# 4 0.000000 0.000000 0.000000 0.056700 0.000000 0.000000
# 5 0.000000 0.000000 0.000000 0.000000 0.056699 0.000000
# 6 0.000000 0.000000 0.000000 0.000000 0.000000 0.808842
#
#
# Mechanical properties :
#
#
# Convention : Reuss Voigt Hill
#
# Bulk Modulus (GPa) = 47.36374 49.96238 48.66306
# Shear Modulus (GPa) = 4.89041 15.79028 10.34034
#
# Velocity S-wave (km/s) = 1.84266 3.31107 2.67942
# Velocity P-wave (km/s) = 6.11652 7.02185 6.58476
#
# Compressibility (1/GPa) = 0.02111320
#
# Stress axis : x y z
#
# Youngs Moduli (GPa) = 45.95645 45.95366 73.52143
#
# Poissons Ratio (x) = 0.34649 0.38465
# Poissons Ratio (y) = 0.34651 0.38471
# Poissons Ratio (z) = 0.24044 0.24046
#
# Static dielectric constant tensor:
#      x y z
#    x 2.679740 0.000000 0.000000 
#    y 0.000000 2.679740 0.000000 
#    z 0.000000 0.000000 3.109120 
# 
# 
# High freq. dielectric constant tensor:
#      x y z
#    x 1.512400 0.000000 0.000000 
#    y 0.000000 1.512400 0.000000 
#    z 0.000000 0.000000 1.571440 
# 
# From -- ./inp_files/9961.got.cif
#   From: 2010.03.12/outbox.cif.g09.slc.cpg/sg131_5_cif.got.tgz:9961.got - 2010.04.06 17:36:35.
