data_PCOD8315923
_publ_section_title
;
Structure prediction by ZEFSAII (Michael W. Deem and Ramdas Pophale) SiO2 
 PCOD8315923
Probable space group: P 42/M M C
;
_chemical_formula_sum "Si O2"
_cell_formula_units_Z 88
_cell_length_a 13.117543
_cell_length_b 13.117543
_cell_length_c 27.252789
_cell_angle_alpha 90.000000
_cell_angle_beta 90.000000
_cell_angle_gamma 90.000000
_cell_volume 4689.385614
_symmetry_space_group_name_H-M "P 42/M M C"
_symmetry_group_IT_number 131
_symmetry_cell_setting 'tetragonal'
loop_
_space_group_symop_operation_xyz
x,y,z
-x,-y,z
-y,x,1/2+z
y,-x,1/2+z
-x,y,-z
x,-y,-z
y,x,1/2-z
-y,-x,1/2-z
-x,-y,-z
x,y,-z
y,-x,1/2-z
-y,x,1/2-z
x,-y,z
-x,y,z
-y,-x,1/2+z
y,x,1/2+z
loop_
_atom_site_type_symbol
_atom_site_label
_atom_site_fract_x
_atom_site_fract_y
_atom_site_fract_z
Si Si1 0.880084 0.294084 0.834903
Si Si2 0.119359 0.387105 0.267716
Si Si3 0.206733 0.381252 0.557824
Si Si4 0.621091 0.888194 0.500000
Si Si5 0.742160 0.883330 0.858703
Si Si6 0.615387 0.251793 0.586507
O O1 0.856557 0.312661 0.777731
O O2 0.846082 0.181707 0.853037
O O3 0.807460 0.375762 0.862128
O O4 0.000000 0.310709 0.846801
O O5 0.169218 0.500000 0.261277
O O6 0.160115 0.335495 0.317525
O O7 0.000000 0.401853 0.272885
O O8 0.198584 0.356296 0.500000
O O9 0.184578 0.500000 0.567389
O O10 0.126751 0.311579 0.588013
O O11 0.317978 0.354008 0.580213
O O12 0.500000 0.896675 0.500000
O O13 0.659361 0.828676 0.452560
O O14 0.671310 0.000000 0.500000
O O15 0.772765 0.000000 0.849711
O O16 0.500000 0.285123 0.576663
#
# Coordination Sequence:
#
# PCOD8315923 Si02
#       6
#    16  16  16   8  16  16
#     4  10  20  33  52  79 109 141 178 219 261 311
#     4   9  17  31  52  77 104 134 169 209 256 307
#     4  10  21  36  54  77 103 133 175 225 272 319
#     4   9  16  26  43  67  96 131 167 201 241 293
#     4  10  21  36  54  76 104 139 180 224 269 317
#     4  10  19  32  50  76 107 138 172 209 257 318
#
# _framework density 18.765785999999999
#
# number of rings (size 3 to 8) (size 9 to 14) (size 15 to 20)
#    0.000    2.273    0.909    2.182    0.000    4.000 
#    0.000    1.818    0.000    3.273    0.000    2.545 
#    0.000   13.091    0.000    0.000    0.000    0.000 
#
# Total GULP energy -1090756.806704 kJ/mol
# GULP energy per Si atom -12394.963713 kJ/mol
# Density = 1.872307 g / cm^3
# Si number density = 18.765786 Si / 1000 Ang^3
#
#
#
# Elastic Constant Matrix: (Units=GPa)
#
#
# Indices 1 2 3 4 5 6 
#
# 1 57.9821 8.0177 14.1821 0.0000 0.0000 0.0000
# 2 8.0177 57.9821 14.1821 0.0000 0.0000 0.0000
# 3 14.1821 14.1821 100.3083 0.0000 0.0000 0.0000
# 4 0.0000 0.0000 0.0000 25.7061 0.0000 0.0000
# 5 0.0000 0.0000 0.0000 0.0000 25.7061 0.0000
# 6 0.0000 0.0000 0.0000 0.0000 0.0000 15.4728
#
#
#
# Elastic Compliance Matrix: (Units=1/GPa)
#
#
# Indices 1 2 3 4 5 6 
#
# 1 0.018073 -0.001941 -0.002281 0.000000 0.000000 0.000000
# 2 -0.001941 0.018073 -0.002281 0.000000 0.000000 0.000000
# 3 -0.002281 -0.002281 0.010614 0.000000 0.000000 0.000000
# 4 0.000000 0.000000 0.000000 0.038901 0.000000 0.000000
# 5 0.000000 0.000000 0.000000 0.000000 0.038901 0.000000
# 6 0.000000 0.000000 0.000000 0.000000 0.000000 0.064630
#
#
# Mechanical properties :
#
#
# Convention : Reuss Voigt Hill
#
# Bulk Modulus (GPa) = 29.62560 32.11511 30.87036
# Shear Modulus (GPa) = 23.42474 25.36971 24.39722
#
# Velocity S-wave (km/s) = 3.53692 3.68083 3.60959
# Velocity P-wave (km/s) = 5.70097 5.93426 5.81878
#
# Compressibility (1/GPa) = 0.03375459
#
# Stress axis : x y z
#
# Youngs Moduli (GPa) = 55.33116 55.33116 94.21339
#
# Poissons Ratio (x) = 0.10741 0.21488
# Poissons Ratio (y) = 0.10741 0.21488
# Poissons Ratio (z) = 0.12620 0.12620
#
# Static dielectric constant tensor:
#      x y z
#    x 3.331370 0.000000 0.000000 
#    y 0.000000 3.331370 0.000000 
#    z 0.000000 0.000000 3.605540 
# 
# 
# High freq. dielectric constant tensor:
#      x y z
#    x 1.710730 0.000000 0.000000 
#    y 0.000000 1.710730 0.000000 
#    z 0.000000 0.000000 1.742800 
# 
# From -- ./inp_files/13570.got.cif
#   From: 2010.03.12/outbox.cif.g09.slc.cpg/sg131_7_cif.got.tgz:13570.got - 2010.04.06 17:36:35.
