data_PCOD8315126
_publ_section_title
;
Structure prediction by ZEFSAII (Michael W. Deem and Ramdas Pophale) SiO2 
 PCOD8315126
Probable space group: P 4/N M M
;
_chemical_formula_sum "Si O2"
_cell_formula_units_Z 112
_cell_length_a 17.788055
_cell_length_b 17.788055
_cell_length_c 20.873326
_cell_angle_alpha 90.000000
_cell_angle_beta 90.000000
_cell_angle_gamma 90.000000
_cell_volume 6604.631373
_symmetry_space_group_name_H-M "P 4/N M M"
_symmetry_group_IT_number 129
_symmetry_cell_setting 'tetragonal'
loop_
_space_group_symop_operation_xyz
x,y,z
1/2-y,x,z
1/2-x,1/2-y,z
y,1/2-x,z
1/2+x,-y,-z
-x,1/2+y,-z
1/2+y,1/2+x,-z
-y,-x,-z
-x,-y,-z
1/2+y,-x,-z
1/2+x,1/2+y,-z
-y,1/2+x,-z
1/2-x,y,z
x,1/2-y,z
1/2-y,1/2-x,z
y,x,z
loop_
_atom_site_type_symbol
_atom_site_label
_atom_site_fract_x
_atom_site_fract_y
_atom_site_fract_z
Si Si1 0.442926 0.564558 0.159753
Si Si2 0.333348 0.557091 0.345479
Si Si3 0.835454 0.163840 0.924391
Si Si4 0.664740 0.547325 0.397767
Si Si5 0.461651 0.162108 0.460183
Si Si6 0.452575 0.334369 0.228172
Si Si7 0.660396 0.445537 0.283438
O O1 0.517959 0.517959 0.136789
O O2 0.402254 0.613078 0.104716
O O3 0.380976 0.505581 0.181426
O O4 0.467535 0.620824 0.216854
O O5 0.250000 0.584209 0.359811
O O6 0.368321 0.527723 0.412913
O O7 0.337030 0.485105 0.299428
O O8 0.367220 0.630127 0.310958
O O9 0.750000 0.139393 0.903523
O O10 0.848265 0.250000 0.902337
O O11 0.843078 0.156923 0.000000
O O12 0.750000 0.561593 0.381704
O O13 0.628787 0.628787 0.399724
O O14 0.652834 0.507425 0.466917
O O15 0.630721 0.501204 0.338709
O O16 0.442783 0.250000 0.445805
O O17 0.385956 0.114045 0.449655
O O18 0.446777 0.250000 0.201532
O O19 0.369567 0.369567 0.229286
O O20 0.750000 0.442461 0.274391
#
# Coordination Sequence:
#
# PCOD8315126 Si02
#       7
#    16  16  16  16  16  16  16
#     4  10  19  31  49  72  99 129 159 195 239 282
#     4   9  18  31  44  61  86 113 146 191 239 285
#     4   9  18  33  53  77 105 135 165 197 233 276
#     4   9  18  31  46  65  87 112 146 188 234 284
#     4   9  17  29  45  64  87 116 149 188 236 288
#     4   9  17  28  42  62  89 121 155 190 229 274
#     4  10  20  33  48  66  89 118 155 196 234 278
#
# _framework density 16.957796999999999
#
# number of rings (size 3 to 8) (size 9 to 14) (size 15 to 20)
#    0.000    2.714    0.000    2.143    0.000    3.857 
#    0.000    2.857    0.000    2.571    0.000    4.000 
#    0.000    2.571    0.000   10.571    0.000    0.286 
#
# Total GULP energy -1387592.463627 kJ/mol
# GULP energy per Si atom -12389.218425 kJ/mol
# Density = 1.691920 g / cm^3
# Si number density = 16.957797 Si / 1000 Ang^3
#
#
#
# Elastic Constant Matrix: (Units=GPa)
#
#
# Indices 1 2 3 4 5 6 
#
# 1 71.2904 48.0396 31.1416 0.0000 0.0000 0.0000
# 2 48.0396 71.2904 31.1415 0.0000 0.0000 0.0000
# 3 31.1416 31.1415 67.4535 0.0000 0.0000 0.0000
# 4 0.0000 0.0000 0.0000 24.1120 0.0000 0.0000
# 5 0.0000 0.0000 0.0000 0.0000 24.1120 0.0000
# 6 0.0000 0.0000 0.0000 0.0000 0.0000 26.1084
#
#
#
# Elastic Compliance Matrix: (Units=1/GPa)
#
#
# Indices 1 2 3 4 5 6 
#
# 1 0.027025 -0.015984 -0.005097 0.000000 0.000000 0.000000
# 2 -0.015984 0.027025 -0.005097 0.000000 0.000000 0.000000
# 3 -0.005097 -0.005097 0.019531 0.000000 0.000000 0.000000
# 4 0.000000 0.000000 0.000000 0.041473 0.000000 0.000000
# 5 0.000000 0.000000 0.000000 0.000000 0.041473 0.000000
# 6 0.000000 0.000000 0.000000 0.000000 0.000000 0.038302
#
#
# Mechanical properties :
#
#
# Convention : Reuss Voigt Hill
#
# Bulk Modulus (GPa) = 47.11649 47.85330 47.48490
# Shear Modulus (GPa) = 19.66481 21.51391 20.58936
#
# Velocity S-wave (km/s) = 3.40903 3.56571 3.48825
# Velocity P-wave (km/s) = 6.58333 6.72553 6.65481
#
# Compressibility (1/GPa) = 0.02122399
#
# Stress axis : x y z
#
# Youngs Moduli (GPa) = 37.00291 37.00293 51.19946
#
# Poissons Ratio (x) = 0.59147 0.26097
# Poissons Ratio (y) = 0.59147 0.26097
# Poissons Ratio (z) = 0.18861 0.18861
#
# Static dielectric constant tensor:
#      x y z
#    x 3.194270 0.000000 0.000000 
#    y 0.000000 3.194280 0.000000 
#    z 0.000000 0.000000 3.138810 
# 
# 
# High freq. dielectric constant tensor:
#      x y z
#    x 1.646430 0.000000 0.000000 
#    y 0.000000 1.646430 0.000000 
#    z 0.000000 0.000000 1.646170 
# 
# From -- ./inp_files/6695.got.cif
#   From: 2010.03.12/outbox.cif.g09.slc.cpg/sg129_4_cif.got.tgz:6695.got - 2010.04.06 17:19:44.
