data_PCOD8315831
_publ_section_title
;
Structure prediction by ZEFSAII (Michael W. Deem and Ramdas Pophale) SiO2 
 PCOD8315831
Probable space group: P 42/M M C
;
_chemical_formula_sum "Si O2"
_cell_formula_units_Z 64
_cell_length_a 21.044783
_cell_length_b 21.044783
_cell_length_c 10.843135
_cell_angle_alpha 90.000000
_cell_angle_beta 90.000000
_cell_angle_gamma 90.000000
_cell_volume 4802.238982
_symmetry_space_group_name_H-M "P 42/M M C"
_symmetry_group_IT_number 131
_symmetry_cell_setting 'tetragonal'
loop_
_space_group_symop_operation_xyz
x,y,z
-x,-y,z
-y,x,1/2+z
y,-x,1/2+z
-x,y,-z
x,-y,-z
y,x,1/2-z
-y,-x,1/2-z
-x,-y,-z
x,y,-z
y,-x,1/2-z
-y,x,1/2-z
x,-y,z
-x,y,z
-y,-x,1/2+z
y,x,1/2+z
loop_
_atom_site_type_symbol
_atom_site_label
_atom_site_fract_x
_atom_site_fract_y
_atom_site_fract_z
Si Si1 0.571863 0.253034 0.860902
Si Si2 0.636262 0.363738 0.750000
Si Si3 0.573028 0.127233 0.260204
Si Si4 0.423734 0.000000 0.140933
Si Si5 0.574839 0.654970 0.500000
Si Si6 0.423945 0.801892 0.500000
O O1 0.500000 0.270645 0.817342
O O2 0.621813 0.289580 0.774301
O O3 0.581675 0.177690 0.850156
O O4 0.583570 0.274039 0.000000
O O5 0.598768 0.382145 0.623843
O O6 0.500000 0.112742 0.288636
O O7 0.603263 0.158915 0.382658
O O8 0.604160 0.061256 0.214349
O O9 0.500000 0.000000 0.138522
O O10 0.398572 0.000000 0.000000
O O11 0.500000 0.651843 0.500000
O O12 0.599847 0.728532 0.500000
O O13 0.500000 0.800101 0.500000
#
# Coordination Sequence:
#
# PCOD8315831 Si02
#       6
#    16   8  16   8   8   8
#     4  10  19  30  44  60  76  96 126 159 196 244
#     4  12  20  32  50  67  76 100 128 160 204 251
#     4   9  16  26  40  57  78 101 123 151 186 225
#     4   9  16  25  37  55  79 104 127 149 177 218
#     4  11  22  36  50  66  84  99 127 167 209 261
#     4   9  16  27  42  58  78 101 120 151 193 230
#
# _framework density 13.327116999999999
#
# number of rings (size 3 to 8) (size 9 to 14) (size 15 to 20)
#    0.000    2.125    3.750    1.500    0.000    3.500 
#    0.000    2.500    0.000    9.000    0.000    0.000 
#    0.000    0.000    0.000    0.000    0.000    0.000 
#
# Total GULP energy -792864.486805 kJ/mol
# GULP energy per Si atom -12388.507606 kJ/mol
# Density = 1.329678 g / cm^3
# Si number density = 13.327117 Si / 1000 Ang^3
#
#
#
# Elastic Constant Matrix: (Units=GPa)
#
#
# Indices 1 2 3 4 5 6 
#
# 1 45.5580 25.9195 29.4375 0.0000 0.0000 0.0000
# 2 25.9195 45.5580 29.4375 0.0000 0.0000 0.0000
# 3 29.4375 29.4375 96.5029 0.0000 0.0000 0.0000
# 4 0.0000 0.0000 0.0000 18.7463 0.0000 0.0000
# 5 0.0000 0.0000 0.0000 0.0000 18.7463 0.0000
# 6 0.0000 0.0000 0.0000 0.0000 0.0000 0.7209
#
#
#
# Elastic Compliance Matrix: (Units=1/GPa)
#
#
# Indices 1 2 3 4 5 6 
#
# 1 0.034803 -0.016117 -0.005700 0.000000 0.000000 0.000000
# 2 -0.016117 0.034803 -0.005700 0.000000 0.000000 0.000000
# 3 -0.005700 -0.005700 0.013840 0.000000 0.000000 0.000000
# 4 0.000000 0.000000 0.000000 0.053344 0.000000 0.000000
# 5 0.000000 0.000000 0.000000 0.000000 0.053344 0.000000
# 6 0.000000 0.000000 0.000000 0.000000 0.000000 1.387193
#
#
# Mechanical properties :
#
#
# Convention : Reuss Voigt Hill
#
# Bulk Modulus (GPa) = 35.19755 39.68976 37.44366
# Shear Modulus (GPa) = 3.04538 14.49765 8.77151
#
# Velocity S-wave (km/s) = 1.51329 3.30181 2.56827
# Velocity P-wave (km/s) = 5.43334 6.66196 6.07877
#
# Compressibility (1/GPa) = 0.02841107
#
# Stress axis : x y z
#
# Youngs Moduli (GPa) = 28.73338 28.73338 72.25566
#
# Poissons Ratio (x) = 0.46311 0.41184
# Poissons Ratio (y) = 0.46311 0.41184
# Poissons Ratio (z) = 0.16377 0.16377
#
# Static dielectric constant tensor:
#      x y z
#    x 2.471520 0.000000 0.000000 
#    y 0.000000 2.471520 0.000000 
#    z 0.000000 0.000000 2.997420 
# 
# 
# High freq. dielectric constant tensor:
#      x y z
#    x 1.462690 0.000000 0.000000 
#    y 0.000000 1.462690 0.000000 
#    z 0.000000 0.000000 1.535700 
# 
# From -- ./inp_files/4087.got.cif
#   From: 2010.03.12/outbox.cif.g09.slc.cpg/sg131_3_cif.got.tgz:4087.got - 2010.04.06 17:36:35.
