data_PCOD8315341
_publ_section_title
;
Structure prediction by ZEFSAII (Michael W. Deem and Ramdas Pophale) SiO2 
 PCOD8315341
Probable space group: P 4/N M M
;
_chemical_formula_sum "Si O2"
_cell_formula_units_Z 128
_cell_length_a 20.098235
_cell_length_b 20.098235
_cell_length_c 17.962403
_cell_angle_alpha 90.000000
_cell_angle_beta 90.000000
_cell_angle_gamma 90.000000
_cell_volume 7255.716006
_symmetry_space_group_name_H-M "P 4/N M M"
_symmetry_group_IT_number 129
_symmetry_cell_setting 'tetragonal'
loop_
_space_group_symop_operation_xyz
x,y,z
1/2-y,x,z
1/2-x,1/2-y,z
y,1/2-x,z
1/2+x,-y,-z
-x,1/2+y,-z
1/2+y,1/2+x,-z
-y,-x,-z
-x,-y,-z
1/2+y,-x,-z
1/2+x,1/2+y,-z
-y,1/2+x,-z
1/2-x,y,z
x,1/2-y,z
1/2-y,1/2-x,z
y,x,z
loop_
_atom_site_type_symbol
_atom_site_label
_atom_site_fract_x
_atom_site_fract_y
_atom_site_fract_z
Si Si1 0.487767 0.598449 0.286199
Si Si2 0.502399 0.890558 0.000135
Si Si3 0.825073 0.567541 0.572124
Si Si4 0.173396 0.542261 0.856165
Si Si5 0.172980 0.064027 0.595770
Si Si6 0.828567 0.177364 0.083099
Si Si7 0.005567 0.117150 0.291257
Si Si8 0.939643 0.672078 0.856781
O O1 0.540121 0.540121 0.291593
O O2 0.496202 0.633226 0.206779
O O3 0.502507 0.650557 0.352373
O O4 0.413313 0.568813 0.291956
O O5 0.494313 0.836808 0.065320
O O6 0.569437 0.930564 0.016964
O O7 0.440206 0.940206 0.000000
O O8 0.510016 0.852090 0.921742
O O9 0.750000 0.591494 0.580000
O O10 0.867590 0.632411 0.590496
O O11 0.839317 0.540147 0.489143
O O12 0.840874 0.510753 0.632531
O O13 0.250000 0.539406 0.834472
O O14 0.148437 0.619593 0.860468
O O15 0.250000 0.081096 0.610685
O O16 0.130761 0.130761 0.613182
O O17 0.750000 0.185116 0.085237
O O18 0.860880 0.250000 0.102287
O O19 0.847633 0.152368 0.000000
O O20 0.057171 0.057171 0.290205
O O21 0.019583 0.163285 0.219891
O O22 0.921112 0.750000 0.866830
O O23 0.871540 0.628461 0.857045
#
# Coordination Sequence:
#
# PCOD8315341 Si02
#       8
#    16  16  16  16  16  16  16  16
#     4  10  20  34  49  66  93 127 163 202 242 281
#     4  10  20  34  50  68  94 128 165 203 243 286
#     4   9  17  30  49  74 103 131 159 193 236 289
#     4  11  20  30  48  70  91 119 158 201 243 287
#     4   9  18  32  51  75 101 128 157 193 239 291
#     4   8  15  28  43  60  85 113 140 177 228 283
#     4   9  18  32  49  69  95 128 163 198 236 280
#     4  10  20  34  52  74 102 133 164 201 243 291
#
# _framework density 17.641262999999999
#
# number of rings (size 3 to 8) (size 9 to 14) (size 15 to 20)
#    0.000    2.500    0.000    3.000    0.000    2.875 
#    0.000    8.125    0.000    2.250    0.000    0.000 
#    0.000    9.000    0.000    8.250    0.000    0.625 
#
# Total GULP energy -1586614.772668 kJ/mol
# GULP energy per Si atom -12395.427911 kJ/mol
# Density = 1.760111 g / cm^3
# Si number density = 17.641263 Si / 1000 Ang^3
#
#
#
# Elastic Constant Matrix: (Units=GPa)
#
#
# Indices 1 2 3 4 5 6 
#
# 1 59.6214 34.1668 41.0635 0.0000 0.0000 0.0000
# 2 34.1668 59.6216 41.0633 0.0000 0.0000 0.0000
# 3 41.0635 41.0633 119.2154 0.0000 0.0000 0.0000
# 4 0.0000 0.0000 0.0000 24.1053 0.0000 0.0000
# 5 0.0000 0.0000 0.0000 0.0000 24.1052 0.0000
# 6 0.0000 0.0000 0.0000 0.0000 0.0000 16.4670
#
#
#
# Elastic Compliance Matrix: (Units=1/GPa)
#
#
# Indices 1 2 3 4 5 6 
#
# 1 0.027276 -0.012009 -0.005259 0.000000 0.000000 0.000000
# 2 -0.012009 0.027276 -0.005259 0.000000 0.000000 0.000000
# 3 -0.005259 -0.005259 0.012011 0.000000 0.000000 0.000000
# 4 0.000000 0.000000 0.000000 0.041485 0.000000 0.000000
# 5 0.000000 0.000000 0.000000 0.000000 0.041485 0.000000
# 6 0.000000 0.000000 0.000000 0.000000 0.000000 0.060728
#
#
# Mechanical properties :
#
#
# Convention : Reuss Voigt Hill
#
# Bulk Modulus (GPa) = 46.48935 52.33841 49.41388
# Shear Modulus (GPa) = 19.04877 21.07981 20.06429
#
# Velocity S-wave (km/s) = 3.28957 3.46050 3.37612
# Velocity P-wave (km/s) = 6.39048 6.76013 6.57790
#
# Compressibility (1/GPa) = 0.02151030
#
# Stress axis : x y z
#
# Youngs Moduli (GPa) = 36.66163 36.66194 83.25772
#
# Poissons Ratio (x) = 0.44028 0.43784
# Poissons Ratio (y) = 0.44028 0.43783
# Poissons Ratio (z) = 0.19280 0.19279
#
# Static dielectric constant tensor:
#      x y z
#    x 3.306030 0.000000 0.000000 
#    y 0.000000 3.306030 0.000000 
#    z 0.000000 0.000000 3.366550 
# 
# 
# High freq. dielectric constant tensor:
#      x y z
#    x 1.672070 0.000000 0.000000 
#    y 0.000000 1.672070 0.000000 
#    z 0.000000 0.000000 1.681890 
# 
# From -- ./inp_files/6124.got.cif
#   From: 2010.03.12/outbox.cif.g09.slc.cpg/sg129_4_cif.got.tgz:6124.got - 2010.04.06 17:19:44.
