data_PCOD8315683
_publ_section_title
;
Structure prediction by ZEFSAII (Michael W. Deem and Ramdas Pophale) SiO2 
 PCOD8315683
Probable space group: P 42/M M C
;
_chemical_formula_sum "Si O2"
_cell_formula_units_Z 96
_cell_length_a 17.189181
_cell_length_b 17.189181
_cell_length_c 18.378588
_cell_angle_alpha 90.000000
_cell_angle_beta 90.000000
_cell_angle_gamma 90.000000
_cell_volume 5430.283600
_symmetry_space_group_name_H-M "P 42/M M C"
_symmetry_group_IT_number 131
_symmetry_cell_setting 'tetragonal'
loop_
_space_group_symop_operation_xyz
x,y,z
-x,-y,z
-y,x,1/2+z
y,-x,1/2+z
-x,y,-z
x,-y,-z
y,x,1/2-z
-y,-x,1/2-z
-x,-y,-z
x,y,-z
y,-x,1/2-z
-y,x,1/2-z
x,-y,z
-x,y,z
-y,-x,1/2+z
y,x,1/2+z
loop_
_atom_site_type_symbol
_atom_site_label
_atom_site_fract_x
_atom_site_fract_y
_atom_site_fract_z
Si Si1 0.344701 0.329501 0.583116
Si Si2 0.091450 0.000000 0.417865
Si Si3 0.411981 0.836013 0.419769
Si Si4 0.659677 0.086749 0.287608
Si Si5 0.785356 0.297991 0.685101
Si Si6 0.170076 0.129978 0.672749
Si Si7 0.500000 0.588960 0.586184
O O1 0.331191 0.356378 0.500000
O O2 0.355314 0.237165 0.589646
O O3 0.266239 0.348768 0.628785
O O4 0.420705 0.372183 0.616790
O O5 0.121733 0.080025 0.383820
O O6 0.120672 0.000000 0.500000
O O7 0.000000 0.000000 0.410682
O O8 0.397278 0.874051 0.500000
O O9 0.500000 0.804830 0.415567
O O10 0.397868 0.896509 0.355035
O O11 0.648273 0.146401 0.219799
O O12 0.745949 0.091381 0.319448
O O13 0.641881 0.000000 0.259055
O O14 0.729341 0.270660 0.750000
O O15 0.822669 0.220606 0.647572
O O16 0.126080 0.126080 0.750000
O O17 0.500000 0.500000 0.610855
O O18 0.500000 0.600239 0.500000
#
# Coordination Sequence:
#
# PCOD8315683 Si02
#       7
#    16   8  16  16  16  16   8
#     4  10  17  30  55  80 106 142 178 213 265 319
#     4  11  24  34  44  72 103 127 161 221 288 331
#     4  10  19  31  50  79 108 139 174 212 262 320
#     4  10  19  34  51  72  97 136 182 220 259 312
#     4   9  18  33  51  74  98 132 178 224 254 305
#     4   9  19  32  50  68  87 128 173 212 259 316
#     4   9  18  32  54  84 115 145 176 212 254 323
#
# _framework density 17.678635
#
# number of rings (size 3 to 8) (size 9 to 14) (size 15 to 20)
#    0.000    2.667    5.000    0.000    1.167    2.667 
#    0.000    1.667    1.833    0.500    0.000    0.000 
#    0.000    0.000    0.000    5.667    0.000    0.000 
#
# Total GULP energy -1189866.643116 kJ/mol
# GULP energy per Si atom -12394.444199 kJ/mol
# Density = 1.763840 g / cm^3
# Si number density = 17.678635 Si / 1000 Ang^3
#
#
#
# Elastic Constant Matrix: (Units=GPa)
#
#
# Indices 1 2 3 4 5 6 
#
# 1 78.2950 30.9824 51.3968 0.0000 0.0000 0.0000
# 2 30.9824 78.2952 51.3969 0.0000 0.0000 0.0000
# 3 51.3968 51.3969 86.9184 0.0000 0.0000 0.0000
# 4 0.0000 0.0000 0.0000 23.4107 0.0000 0.0000
# 5 0.0000 0.0000 0.0000 0.0000 23.4108 0.0000
# 6 0.0000 0.0000 0.0000 0.0000 0.0000 19.8186
#
#
#
# Elastic Compliance Matrix: (Units=1/GPa)
#
#
# Indices 1 2 3 4 5 6 
#
# 1 0.020879 -0.000257 -0.012194 0.000000 0.000000 0.000000
# 2 -0.000257 0.020879 -0.012194 0.000000 0.000000 0.000000
# 3 -0.012194 -0.012194 0.025926 0.000000 0.000000 0.000000
# 4 0.000000 0.000000 0.000000 0.042715 0.000000 0.000000
# 5 0.000000 0.000000 0.000000 0.000000 0.042715 0.000000
# 6 0.000000 0.000000 0.000000 0.000000 0.000000 0.050458
#
#
# Mechanical properties :
#
#
# Convention : Reuss Voigt Hill
#
# Bulk Modulus (GPa) = 54.36762 56.78454 55.57608
# Shear Modulus (GPa) = 19.30550 20.64352 19.97451
#
# Velocity S-wave (km/s) = 3.30816 3.42088 3.36500
# Velocity P-wave (km/s) = 6.73884 6.91328 6.82662
#
# Compressibility (1/GPa) = 0.01839330
#
# Stress axis : x y z
#
# Youngs Moduli (GPa) = 47.89566 47.89570 38.57102
#
# Poissons Ratio (x) = 0.01232 0.47033
# Poissons Ratio (y) = 0.01232 0.47033
# Poissons Ratio (z) = 0.58404 0.58404
#
# Static dielectric constant tensor:
#      x y z
#    x 3.165140 0.000000 0.000000 
#    y 0.000000 3.165140 0.000000 
#    z 0.000000 0.000000 3.190570 
# 
# 
# High freq. dielectric constant tensor:
#      x y z
#    x 1.669440 0.000000 0.000000 
#    y 0.000000 1.669440 0.000000 
#    z 0.000000 0.000000 1.660510 
# 
# From -- ./inp_files/8015.got.cif
#   From: 2010.03.12/outbox.cif.g09.slc.cpg/sg131_5_cif.got.tgz:8015.got - 2010.04.06 17:36:35.
