data_PCOD8315819
_publ_section_title
;
Structure prediction by ZEFSAII (Michael W. Deem and Ramdas Pophale) SiO2 
 PCOD8315819
Probable space group: P 42/M M C
;
_chemical_formula_sum "Si O2"
_cell_formula_units_Z 80
_cell_length_a 22.755822
_cell_length_b 22.755822
_cell_length_c 9.136171
_cell_angle_alpha 90.000000
_cell_angle_beta 90.000000
_cell_angle_gamma 90.000000
_cell_volume 4730.959994
_symmetry_space_group_name_H-M "P 42/M M C"
_symmetry_group_IT_number 131
_symmetry_cell_setting 'tetragonal'
loop_
_space_group_symop_operation_xyz
x,y,z
-x,-y,z
-y,x,1/2+z
y,-x,1/2+z
-x,y,-z
x,-y,-z
y,x,1/2-z
-y,-x,1/2-z
-x,-y,-z
x,y,-z
y,-x,1/2-z
-y,x,1/2-z
x,-y,z
-x,y,z
-y,-x,1/2+z
y,x,1/2+z
loop_
_atom_site_type_symbol
_atom_site_label
_atom_site_fract_x
_atom_site_fract_y
_atom_site_fract_z
Si Si1 0.679503 0.063970 0.329709
Si Si2 0.583371 0.500000 0.328176
Si Si3 0.209759 0.403324 0.165298
Si Si4 0.500000 0.304169 0.337201
Si Si5 0.097397 0.434217 0.329134
Si Si6 0.813203 0.272556 0.169135
O O1 0.667387 0.074507 0.500000
O O2 0.615836 0.060923 0.253530
O O3 0.719633 0.118729 0.273960
O O4 0.710083 0.000000 0.301882
O O5 0.569697 0.500000 0.500000
O O6 0.557153 0.557153 0.250000
O O7 0.651938 0.500000 0.297974
O O8 0.268928 0.439673 0.181450
O O9 0.164748 0.431291 0.278928
O O10 0.220553 0.334178 0.198919
O O11 0.184487 0.409502 0.000000
O O12 0.500000 0.333252 0.500000
O O13 0.093712 0.420686 0.500000
O O14 0.072837 0.500000 0.295785
O O15 0.780816 0.219185 0.250000
O O16 0.812689 0.255221 0.000000
#
# Coordination Sequence:
#
# PCOD8315819 Si02
#       6
#    16   8  16   8  16  16
#     4   9  19  35  52  69  92 127 171 209 240 285
#     4  11  23  40  57  70  88 113 145 189 246 311
#     4   9  18  32  50  70  96 130 166 200 235 283
#     4  10  19  33  54  76  96 121 158 203 248 290
#     4  10  19  29  44  68  99 130 162 200 245 287
#     4   9  18  32  50  73  98 127 161 198 243 290
#
# _framework density 16.909887000000001
#
# number of rings (size 3 to 8) (size 9 to 14) (size 15 to 20)
#    0.000    2.500    1.000    3.000    0.000    6.800 
#    0.000    4.000    0.000    0.000    0.000    0.000 
#    0.000    0.400    0.000    5.000    0.000    0.000 
#
# Total GULP energy -991283.580468 kJ/mol
# GULP energy per Si atom -12391.044756 kJ/mol
# Density = 1.687140 g / cm^3
# Si number density = 16.909887 Si / 1000 Ang^3
#
#
#
# Elastic Constant Matrix: (Units=GPa)
#
#
# Indices 1 2 3 4 5 6 
#
# 1 104.7449 55.2263 36.1393 0.0000 0.0000 0.0000
# 2 55.2263 104.7467 36.1394 0.0000 0.0000 0.0000
# 3 36.1393 36.1394 64.3071 0.0000 0.0000 0.0000
# 4 0.0000 0.0000 0.0000 19.3677 0.0000 0.0000
# 5 0.0000 0.0000 0.0000 0.0000 19.3673 0.0000
# 6 0.0000 0.0000 0.0000 0.0000 0.0000 13.5704
#
#
#
# Elastic Compliance Matrix: (Units=1/GPa)
#
#
# Indices 1 2 3 4 5 6 
#
# 1 0.014286 -0.005908 -0.004709 0.000000 0.000000 0.000000
# 2 -0.005908 0.014286 -0.004709 0.000000 0.000000 0.000000
# 3 -0.004709 -0.004709 0.020843 0.000000 0.000000 0.000000
# 4 0.000000 0.000000 0.000000 0.051632 0.000000 0.000000
# 5 0.000000 0.000000 0.000000 0.000000 0.051634 0.000000
# 6 0.000000 0.000000 0.000000 0.000000 0.000000 0.073690
#
#
# Mechanical properties :
#
#
# Convention : Reuss Voigt Hill
#
# Bulk Modulus (GPa) = 53.28957 58.75654 56.02305
# Shear Modulus (GPa) = 18.99148 20.21399 19.60273
#
# Velocity S-wave (km/s) = 3.35490 3.46120 3.40847
# Velocity P-wave (km/s) = 6.82565 7.12709 6.97800
#
# Compressibility (1/GPa) = 0.01876540
#
# Stress axis : x y z
#
# Youngs Moduli (GPa) = 69.99651 69.99783 47.97858
#
# Poissons Ratio (x) = 0.41353 0.22591
# Poissons Ratio (y) = 0.41352 0.22591
# Poissons Ratio (z) = 0.32959 0.32959
#
# Static dielectric constant tensor:
#      x y z
#    x 3.097010 0.000000 0.000000 
#    y 0.000000 3.097010 0.000000 
#    z 0.000000 0.000000 3.156190 
# 
# 
# High freq. dielectric constant tensor:
#      x y z
#    x 1.633360 0.000000 0.000000 
#    y 0.000000 1.633360 0.000000 
#    z 0.000000 0.000000 1.652820 
# 
# From -- ./inp_files/2076.got.cif
#   From: 2010.03.12/outbox.cif.g09.slc.cpg/sg131_2_cif.got.tgz:2076.got - 2010.04.06 17:36:35.
