data_PCOD8315495
_publ_section_title
;
Structure prediction by ZEFSAII (Michael W. Deem and Ramdas Pophale) SiO2 
 PCOD8315495
Probable space group: P 4/N C C
;
_chemical_formula_sum "Si O2"
_cell_formula_units_Z 88
_cell_length_a 15.281955
_cell_length_b 15.281955
_cell_length_c 19.565405
_cell_angle_alpha 90.000000
_cell_angle_beta 90.000000
_cell_angle_gamma 90.000000
_cell_volume 4569.268461
_symmetry_space_group_name_H-M "P 4/N C C"
_symmetry_group_IT_number 130
_symmetry_cell_setting 'tetragonal'
loop_
_space_group_symop_operation_xyz
x,y,z
1/2-y,x,z
1/2-x,1/2-y,z
y,1/2-x,z
1/2+x,-y,1/2-z
-x,1/2+y,1/2-z
1/2+y,1/2+x,1/2-z
-y,-x,1/2-z
-x,-y,-z
1/2+y,-x,-z
1/2+x,1/2+y,-z
-y,1/2+x,-z
1/2-x,y,1/2+z
x,1/2-y,1/2+z
1/2-y,1/2-x,1/2+z
y,x,1/2+z
loop_
_atom_site_type_symbol
_atom_site_label
_atom_site_fract_x
_atom_site_fract_y
_atom_site_fract_z
Si Si1 0.152579 0.648534 0.993739
Si Si2 0.564852 0.081108 0.138397
Si Si3 0.365099 0.865099 0.250000
Si Si4 0.393934 0.974493 0.116889
Si Si5 0.779440 0.891145 0.318211
Si Si6 0.028692 0.794663 0.236690
O O1 0.101483 0.638089 0.923292
O O2 0.134093 0.745298 0.021768
O O3 0.117874 0.580427 0.048836
O O4 0.644233 0.021979 0.169878
O O5 0.528362 0.145474 0.195937
O O6 0.486967 0.021890 0.110335
O O7 0.399746 0.915279 0.183766
O O8 0.381877 0.762113 0.236101
O O9 0.310594 0.040652 0.123337
O O10 0.683185 0.851804 0.324452
O O11 0.772377 0.945544 0.245852
#
# Coordination Sequence:
#
# PCOD8315495 Si02
#       6
#    16  16   8  16  16  16
#     4  11  24  41  60  85 120 161 203 252 307 363
#     4  11  22  38  57  90 120 160 202 250 300 367
#     4  10  20  35  58  92 118 161 192 250 304 360
#     4  11  22  38  62  87 123 158 202 250 305 361
#     4  10  20  36  60  88 118 156 200 246 296 360
#     4  10  21  36  61  90 126 153 201 249 307 360
#
# _framework density 19.2591
#
# number of rings (size 3 to 8) (size 9 to 14) (size 15 to 20)
#    0.000    1.455    1.818    4.909    2.545    2.909 
#    0.000    0.000    0.000    0.000    0.000    2.545 
#    0.000    0.000    0.000    0.000    0.000    0.000 
#
# Total GULP energy -1090484.823500 kJ/mol
# GULP energy per Si atom -12391.872994 kJ/mol
# Density = 1.921527 g / cm^3
# Si number density = 19.259100 Si / 1000 Ang^3
#
#
#
# Elastic Constant Matrix: (Units=GPa)
#
#
# Indices 1 2 3 4 5 6 
#
# 1 97.9739 46.4885 24.1275 0.0000 0.0000 0.0000
# 2 46.4885 97.9739 24.1275 0.0000 0.0000 0.0000
# 3 24.1275 24.1275 62.8593 0.0000 0.0000 0.0000
# 4 0.0000 0.0000 0.0000 25.2054 0.0000 0.0000
# 5 0.0000 0.0000 0.0000 0.0000 25.2054 0.0000
# 6 0.0000 0.0000 0.0000 0.0000 0.0000 37.1824
#
#
#
# Elastic Compliance Matrix: (Units=1/GPa)
#
#
# Indices 1 2 3 4 5 6 
#
# 1 0.013682 -0.005741 -0.003048 0.000000 0.000000 0.000000
# 2 -0.005741 0.013682 -0.003048 0.000000 0.000000 0.000000
# 3 -0.003048 -0.003048 0.018248 0.000000 0.000000 0.000000
# 4 0.000000 0.000000 0.000000 0.039674 0.000000 0.000000
# 5 0.000000 0.000000 0.000000 0.000000 0.039674 0.000000
# 6 0.000000 0.000000 0.000000 0.000000 0.000000 0.026894
#
#
# Mechanical properties :
#
#
# Convention : Reuss Voigt Hill
#
# Bulk Modulus (GPa) = 45.58352 49.81047 47.69699
# Shear Modulus (GPa) = 27.34627 28.45620 27.90124
#
# Velocity S-wave (km/s) = 3.77226 3.84806 3.81035
# Velocity P-wave (km/s) = 6.53401 6.75743 6.64666
#
# Compressibility (1/GPa) = 0.02193776
#
# Stress axis : x y z
#
# Youngs Moduli (GPa) = 73.09073 73.09073 54.79993
#
# Poissons Ratio (x) = 0.41964 0.16702
# Poissons Ratio (y) = 0.41964 0.16702
# Poissons Ratio (z) = 0.22276 0.22276
#
# Static dielectric constant tensor:
#      x y z
#    x 3.789870 0.000000 0.000000 
#    y 0.000000 3.789870 0.000000 
#    z 0.000000 0.000000 3.359780 
# 
# 
# High freq. dielectric constant tensor:
#      x y z
#    x 1.763530 0.000000 0.000000 
#    y 0.000000 1.763530 0.000000 
#    z 0.000000 0.000000 1.722140 
# 
# From -- ./inp_files/3690.got.cif
#   From: 2010.03.12/outbox.cif.g09.slc.cpg/sg130_2_cif.got.tgz:3690.got - 2010.04.06 17:30:23.
