data_PCOD8315267
_publ_section_title
;
Structure prediction by ZEFSAII (Michael W. Deem and Ramdas Pophale) SiO2 
 PCOD8315267
Probable space group: P 4/N M M
;
_chemical_formula_sum "Si O2"
_cell_formula_units_Z 80
_cell_length_a 18.173539
_cell_length_b 18.173539
_cell_length_c 13.962363
_cell_angle_alpha 90.000000
_cell_angle_beta 90.000000
_cell_angle_gamma 90.000000
_cell_volume 4611.454622
_symmetry_space_group_name_H-M "P 4/N M M"
_symmetry_group_IT_number 129
_symmetry_cell_setting 'tetragonal'
loop_
_space_group_symop_operation_xyz
x,y,z
1/2-y,x,z
1/2-x,1/2-y,z
y,1/2-x,z
1/2+x,-y,-z
-x,1/2+y,-z
1/2+y,1/2+x,-z
-y,-x,-z
-x,-y,-z
1/2+y,-x,-z
1/2+x,1/2+y,-z
-y,1/2+x,-z
1/2-x,y,z
x,1/2-y,z
1/2-y,1/2-x,z
y,x,z
loop_
_atom_site_type_symbol
_atom_site_label
_atom_site_fract_x
_atom_site_fract_y
_atom_site_fract_z
Si Si1 0.334853 0.564696 0.780788
Si Si2 0.665927 0.544553 0.058984
Si Si3 0.333127 0.946670 0.113697
Si Si4 0.942473 0.062208 0.391880
Si Si5 0.333151 0.450156 0.289411
O O1 0.250000 0.589815 0.769705
O O2 0.339968 0.485344 0.832393
O O3 0.377047 0.621467 0.849518
O O4 0.371001 0.559752 0.675965
O O5 0.750000 0.566720 0.034059
O O6 0.616202 0.616202 0.046822
O O7 0.639408 0.478709 0.988185
O O8 0.250000 0.917928 0.105455
O O9 0.339906 0.015479 0.184672
O O10 0.919097 0.080904 0.500000
O O11 0.996248 0.128022 0.364158
O O12 0.983813 0.983813 0.384151
O O13 0.250000 0.439566 0.323413
O O14 0.370505 0.370505 0.288127
#
# Coordination Sequence:
#
# PCOD8315267 Si02
#       5
#    16  16  16  16  16
#     4  10  20  32  49  74  99 125 161 203 247 295
#     4  10  20  33  50  73 100 131 166 202 242 289
#     4   9  18  32  48  68  97 130 162 196 235 282
#     4   9  18  33  51  69  92 125 163 203 248 294
#     4   9  17  29  46  69  95 123 156 194 238 289
#
# _framework density 17.348106999999999
#
# number of rings (size 3 to 8) (size 9 to 14) (size 15 to 20)
#    0.000    2.600    0.000    1.800    0.000    4.800 
#    0.000    0.000    0.000    7.200    0.000    2.800 
#    0.000    4.800    0.000    0.000    0.000    0.200 
#
# Total GULP energy -991860.064016 kJ/mol
# GULP energy per Si atom -12398.250800 kJ/mol
# Density = 1.730862 g / cm^3
# Si number density = 17.348107 Si / 1000 Ang^3
#
#
#
# Elastic Constant Matrix: (Units=GPa)
#
#
# Indices 1 2 3 4 5 6 
#
# 1 111.2753 56.4559 47.2172 0.0000 0.0000 0.0000
# 2 56.4559 111.2750 47.2171 0.0000 0.0000 0.0000
# 3 47.2172 47.2171 116.3784 0.0000 0.0000 0.0000
# 4 0.0000 0.0000 0.0000 19.6686 0.0000 0.0000
# 5 0.0000 0.0000 0.0000 0.0000 19.6686 0.0000
# 6 0.0000 0.0000 0.0000 0.0000 0.0000 22.1836
#
#
#
# Elastic Compliance Matrix: (Units=1/GPa)
#
#
# Indices 1 2 3 4 5 6 
#
# 1 0.012984 -0.005257 -0.003135 0.000000 0.000000 0.000000
# 2 -0.005257 0.012984 -0.003135 0.000000 0.000000 0.000000
# 3 -0.003135 -0.003135 0.011137 0.000000 0.000000 0.000000
# 4 0.000000 0.000000 0.000000 0.050842 0.000000 0.000000
# 5 0.000000 0.000000 0.000000 0.000000 0.050843 0.000000
# 6 0.000000 0.000000 0.000000 0.000000 0.000000 0.045078
#
#
# Mechanical properties :
#
#
# Convention : Reuss Voigt Hill
#
# Bulk Modulus (GPa) = 71.17192 71.18988 71.18090
# Shear Modulus (GPa) = 23.62872 24.84005 24.23439
#
# Velocity S-wave (km/s) = 3.69458 3.78810 3.74163
# Velocity P-wave (km/s) = 7.70160 7.76261 7.73217
#
# Compressibility (1/GPa) = 0.01405048
#
# Stress axis : x y z
#
# Youngs Moduli (GPa) = 77.01575 77.01557 89.79469
#
# Poissons Ratio (x) = 0.40490 0.28151
# Poissons Ratio (y) = 0.40490 0.28150
# Poissons Ratio (z) = 0.24144 0.24144
#
# Static dielectric constant tensor:
#      x y z
#    x 3.163420 0.000000 0.000000 
#    y 0.000000 3.163420 0.000000 
#    z 0.000000 0.000000 3.267800 
# 
# 
# High freq. dielectric constant tensor:
#      x y z
#    x 1.662730 0.000000 0.000000 
#    y 0.000000 1.662730 0.000000 
#    z 0.000000 0.000000 1.669960 
# 
# From -- ./inp_files/4553.got.cif
#   From: 2010.03.12/outbox.cif.g09.slc.cpg/sg129_3_cif.got.tgz:4553.got - 2010.04.06 17:19:44.
