data_PCOD8315303
_publ_section_title
;
Structure prediction by ZEFSAII (Michael W. Deem and Ramdas Pophale) SiO2 
 PCOD8315303
Probable space group: P 4/N M M
;
_chemical_formula_sum "Si O2"
_cell_formula_units_Z 112
_cell_length_a 13.758572
_cell_length_b 13.758572
_cell_length_c 36.035637
_cell_angle_alpha 90.000000
_cell_angle_beta 90.000000
_cell_angle_gamma 90.000000
_cell_volume 6821.484949
_symmetry_space_group_name_H-M "P 4/N M M"
_symmetry_group_IT_number 129
_symmetry_cell_setting 'tetragonal'
loop_
_space_group_symop_operation_xyz
x,y,z
1/2-y,x,z
1/2-x,1/2-y,z
y,1/2-x,z
1/2+x,-y,-z
-x,1/2+y,-z
1/2+y,1/2+x,-z
-y,-x,-z
-x,-y,-z
1/2+y,-x,-z
1/2+x,1/2+y,-z
-y,1/2+x,-z
1/2-x,y,z
x,1/2-y,z
1/2-y,1/2-x,z
y,x,z
loop_
_atom_site_type_symbol
_atom_site_label
_atom_site_fract_x
_atom_site_fract_y
_atom_site_fract_z
Si Si1 0.642419 0.135191 0.102766
Si Si2 0.023520 0.637053 0.666756
Si Si3 0.014970 0.859659 0.747343
Si Si4 0.363572 0.977170 0.172384
Si Si5 0.865542 0.024121 0.969083
Si Si6 0.861101 0.481623 0.388789
Si Si7 0.518200 0.360911 0.526346
O O1 0.750000 0.088968 0.097464
O O2 0.652251 0.250000 0.102531
O O3 0.599931 0.099006 0.142115
O O4 0.570476 0.102796 0.070080
O O5 0.997817 0.750000 0.660822
O O6 0.069866 0.617732 0.708280
O O7 0.104629 0.606651 0.637117
O O8 0.925258 0.574743 0.660773
O O9 0.981362 0.750000 0.747413
O O10 0.071010 0.881990 0.786331
O O11 0.914276 0.914276 0.747506
O O12 0.250000 0.001727 0.166032
O O13 0.422781 0.077220 0.167878
O O14 0.750000 0.005536 0.972063
O O15 0.898628 0.101373 0.000000
O O16 0.921420 0.921420 0.973917
O O17 0.750000 0.506652 0.380203
O O18 0.876102 0.448439 0.431233
O O19 0.921347 0.578654 0.379663
O O20 0.606103 0.393898 0.500000
O O21 0.492394 0.250000 0.517876
O O22 0.421570 0.421570 0.517128
#
# Coordination Sequence:
#
# PCOD8315303 Si02
#       7
#    16  16  16  16  16  16  16
#     4   9  17  29  44  61  84 116 151 185 221 263
#     4   9  17  29  44  63  89 120 153 188 225 267
#     4   8  14  24  38  57  83 115 148 182 219 260
#     4   9  16  26  41  62  88 116 146 181 222 268
#     4  10  20  33  50  72  96 123 156 193 234 279
#     4   9  18  32  49  68  89 114 145 183 226 268
#     4   9  18  32  49  69  92 117 146 180 218 261
#
# _framework density 16.418711999999999
#
# number of rings (size 3 to 8) (size 9 to 14) (size 15 to 20)
#    0.000    3.000    0.000    0.857    0.000    2.571 
#    0.000    6.429    0.000    5.143    0.000    4.000 
#    0.000    2.571    0.000    0.000    0.000    2.857 
#
# Total GULP energy -1387691.115831 kJ/mol
# GULP energy per Si atom -12390.099248 kJ/mol
# Density = 1.638134 g / cm^3
# Si number density = 16.418712 Si / 1000 Ang^3
#
#
#
# Elastic Constant Matrix: (Units=GPa)
#
#
# Indices 1 2 3 4 5 6 
#
# 1 75.6823 31.5158 48.4824 0.0000 0.0000 0.0000
# 2 31.5158 75.6846 48.4825 0.0000 0.0000 0.0000
# 3 48.4824 48.4825 118.0380 0.0000 0.0000 0.0000
# 4 0.0000 0.0000 0.0000 23.7443 0.0000 0.0000
# 5 0.0000 0.0000 0.0000 0.0000 23.7442 0.0000
# 6 0.0000 0.0000 0.0000 0.0000 0.0000 11.7358
#
#
#
# Elastic Compliance Matrix: (Units=1/GPa)
#
#
# Indices 1 2 3 4 5 6 
#
# 1 0.018742 -0.003899 -0.006097 0.000000 0.000000 0.000000
# 2 -0.003899 0.018742 -0.006096 0.000000 0.000000 0.000000
# 3 -0.006097 -0.006096 0.013480 0.000000 0.000000 0.000000
# 4 0.000000 0.000000 0.000000 0.042115 0.000000 0.000000
# 5 0.000000 0.000000 0.000000 0.000000 0.042116 0.000000
# 6 0.000000 0.000000 0.000000 0.000000 0.000000 0.085209
#
#
# Mechanical properties :
#
#
# Convention : Reuss Voigt Hill
#
# Bulk Modulus (GPa) = 53.24897 58.48516 55.86706
# Shear Modulus (GPa) = 19.31635 21.23980 20.27808
#
# Velocity S-wave (km/s) = 3.43371 3.60061 3.51815
# Velocity P-wave (km/s) = 6.94426 7.27903 7.11362
#
# Compressibility (1/GPa) = 0.01877971
#
# Stress axis : x y z
#
# Youngs Moduli (GPa) = 53.35521 53.35727 74.18412
#
# Poissons Ratio (x) = 0.20804 0.45228
# Poissons Ratio (y) = 0.20803 0.45225
# Poissons Ratio (z) = 0.32529 0.32529
#
# Static dielectric constant tensor:
#      x y z
#    x 2.927960 0.000000 0.000000 
#    y 0.000000 2.927960 0.000000 
#    z 0.000000 0.000000 3.593540 
# 
# 
# High freq. dielectric constant tensor:
#      x y z
#    x 1.608850 0.000000 0.000000 
#    y 0.000000 1.608850 0.000000 
#    z 0.000000 0.000000 1.654830 
# 
# From -- ./inp_files/7885.got.cif
#   From: 2010.03.12/outbox.cif.g09.slc.cpg/sg129_4_cif.got.tgz:7885.got - 2010.04.06 17:19:44.
