data_PCOD8315304
_publ_section_title
;
Structure prediction by ZEFSAII (Michael W. Deem and Ramdas Pophale) SiO2 
 PCOD8315304
Probable space group: P 4/N M M
;
_chemical_formula_sum "Si O2"
_cell_formula_units_Z 88
_cell_length_a 13.649491
_cell_length_b 13.649491
_cell_length_c 27.958884
_cell_angle_alpha 90.000000
_cell_angle_beta 90.000000
_cell_angle_gamma 90.000000
_cell_volume 5208.980663
_symmetry_space_group_name_H-M "P 4/N M M"
_symmetry_group_IT_number 129
_symmetry_cell_setting 'tetragonal'
loop_
_space_group_symop_operation_xyz
x,y,z
1/2-y,x,z
1/2-x,1/2-y,z
y,1/2-x,z
1/2+x,-y,-z
-x,1/2+y,-z
1/2+y,1/2+x,-z
-y,-x,-z
-x,-y,-z
1/2+y,-x,-z
1/2+x,1/2+y,-z
-y,1/2+x,-z
1/2-x,y,z
x,1/2-y,z
1/2-y,1/2-x,z
y,x,z
loop_
_atom_site_type_symbol
_atom_site_label
_atom_site_fract_x
_atom_site_fract_y
_atom_site_fract_z
Si Si1 0.134380 0.975777 0.174936
Si Si2 0.362402 0.980219 0.356163
Si Si3 0.524330 0.135340 0.904484
Si Si4 0.361599 0.861599 0.000000
Si Si5 0.365996 0.641865 0.267545
Si Si6 0.021550 0.638089 0.536059
O O1 0.250000 0.996006 0.172968
O O2 0.105025 0.900092 0.133485
O O3 0.099657 0.928645 0.224943
O O4 0.079169 0.079169 0.168230
O O5 0.250000 0.005287 0.345639
O O6 0.418379 0.081622 0.348847
O O7 0.402075 0.900264 0.318555
O O8 0.377891 0.939248 0.409849
O O9 0.503657 0.250000 0.896916
O O10 0.422496 0.077505 0.897635
O O11 0.566552 0.112672 0.956765
O O12 0.377244 0.750000 0.982783
O O13 0.250000 0.650633 0.266724
O O14 0.412579 0.750000 0.261124
O O15 0.107593 0.607593 0.500000
O O16 0.992892 0.750000 0.526895
O O17 0.924226 0.575775 0.525812
#
# Coordination Sequence:
#
# PCOD8315304 Si02
#       6
#    16  16  16   8  16  16
#     4  10  20  33  50  72  97 125 158 197 241 289
#     4   9  17  29  45  66  92 120 150 186 230 280
#     4  10  20  33  50  72  98 129 165 203 241 282
#     4   9  17  30  50  74  97 123 158 200 245 293
#     4   9  17  29  45  65  90 120 153 187 222 265
#     4   9  18  31  46  66  92 121 155 195 237 283
#
# _framework density 16.893901
#
# number of rings (size 3 to 8) (size 9 to 14) (size 15 to 20)
#    0.000    2.636    0.000    1.909    0.000    3.455 
#    0.000    3.636    0.000    3.273    0.000    2.545 
#    0.000    3.273    0.000    0.727    0.000    0.182 
#
# Total GULP energy -1091140.635960 kJ/mol
# GULP energy per Si atom -12399.325409 kJ/mol
# Density = 1.685545 g / cm^3
# Si number density = 16.893901 Si / 1000 Ang^3
#
#
#
# Elastic Constant Matrix: (Units=GPa)
#
#
# Indices 1 2 3 4 5 6 
#
# 1 87.6011 40.2064 47.8363 0.0000 0.0000 0.0000
# 2 40.2064 87.6011 47.8363 0.0000 0.0000 0.0000
# 3 47.8363 47.8363 104.8832 0.0000 0.0000 0.0000
# 4 0.0000 0.0000 0.0000 26.6690 0.0000 0.0000
# 5 0.0000 0.0000 0.0000 0.0000 26.6690 0.0000
# 6 0.0000 0.0000 0.0000 0.0000 0.0000 15.7760
#
#
#
# Elastic Compliance Matrix: (Units=1/GPa)
#
#
# Indices 1 2 3 4 5 6 
#
# 1 0.016490 -0.004609 -0.005419 0.000000 0.000000 0.000000
# 2 -0.004609 0.016490 -0.005419 0.000000 0.000000 0.000000
# 3 -0.005419 -0.005419 0.014477 0.000000 0.000000 0.000000
# 4 0.000000 0.000000 0.000000 0.037497 0.000000 0.000000
# 5 0.000000 0.000000 0.000000 0.000000 0.037497 0.000000
# 6 0.000000 0.000000 0.000000 0.000000 0.000000 0.063388
#
#
# Mechanical properties :
#
#
# Convention : Reuss Voigt Hill
#
# Bulk Modulus (GPa) = 60.37284 61.31597 60.84440
# Shear Modulus (GPa) = 22.49694 23.43654 22.96674
#
# Velocity S-wave (km/s) = 3.65315 3.72866 3.69110
# Velocity P-wave (km/s) = 7.32175 7.41018 7.36610
#
# Compressibility (1/GPa) = 0.01656374
#
# Stress axis : x y z
#
# Youngs Moduli (GPa) = 60.64312 60.64312 69.07440
#
# Poissons Ratio (x) = 0.27953 0.37428
# Poissons Ratio (y) = 0.27953 0.37428
# Poissons Ratio (z) = 0.32860 0.32860
#
# Static dielectric constant tensor:
#      x y z
#    x 3.046900 0.000000 0.000000 
#    y 0.000000 3.046900 0.000000 
#    z 0.000000 0.000000 3.388180 
# 
# 
# High freq. dielectric constant tensor:
#      x y z
#    x 1.637780 0.000000 0.000000 
#    y 0.000000 1.637780 0.000000 
#    z 0.000000 0.000000 1.666940 
# 
# From -- ./inp_files/7004.got.cif
#   From: 2010.03.12/outbox.cif.g09.slc.cpg/sg129_4_cif.got.tgz:7004.got - 2010.04.06 17:19:44.
