data_PCOD8315888
_publ_section_title
;
Structure prediction by ZEFSAII (Michael W. Deem and Ramdas Pophale) SiO2 
 PCOD8315888
Probable space group: P 42/M M C
;
_chemical_formula_sum "Si O2"
_cell_formula_units_Z 80
_cell_length_a 11.636470
_cell_length_b 11.636470
_cell_length_c 31.398423
_cell_angle_alpha 90.000000
_cell_angle_beta 90.000000
_cell_angle_gamma 90.000000
_cell_volume 4251.579892
_symmetry_space_group_name_H-M "P 42/M M C"
_symmetry_group_IT_number 131
_symmetry_cell_setting 'tetragonal'
loop_
_space_group_symop_operation_xyz
x,y,z
-x,-y,z
-y,x,1/2+z
y,-x,1/2+z
-x,y,-z
x,-y,-z
y,x,1/2-z
-y,-x,1/2-z
-x,-y,-z
x,y,-z
y,-x,1/2-z
-y,x,1/2-z
x,-y,z
-x,y,z
-y,-x,1/2+z
y,x,1/2+z
loop_
_atom_site_type_symbol
_atom_site_label
_atom_site_fract_x
_atom_site_fract_y
_atom_site_fract_z
Si Si1 0.000000 0.863820 0.620656
Si Si2 0.711471 0.000000 0.046307
Si Si3 0.000000 0.364540 0.156211
Si Si4 0.249401 0.225922 0.369681
Si Si5 0.370243 0.244351 0.951408
Si Si6 0.242060 0.635694 0.712710
Si Si7 0.000000 0.363793 0.748070
O O1 0.884844 0.803803 0.638442
O O2 0.000000 0.832156 0.571103
O O3 0.000000 0.000000 0.628876
O O4 0.628587 0.892643 0.054605
O O5 0.763964 0.000000 0.000000
O O6 0.889525 0.322379 0.130759
O O7 0.000000 0.500000 0.157682
O O8 0.000000 0.312739 0.204078
O O9 0.288063 0.284337 0.414543
O O10 0.285490 0.309467 0.331299
O O11 0.500000 0.289733 0.943715
O O12 0.330555 0.278171 0.000000
O O13 0.328765 0.671236 0.750000
O O14 0.245034 0.500000 0.707195
O O15 0.113520 0.679935 0.723834
O O16 0.000000 0.500000 0.750640
#
# Coordination Sequence:
#
# PCOD8315888 Si02
#       7
#     8   8   8  16  16  16   8
#     4  10  19  31  50  80 113 145 179 225 269 318
#     4   8  15  26  44  75 114 153 184 214 266 331
#     4  11  22  38  59  77 103 150 194 228 276 340
#     4  11  21  36  57  82 115 147 186 230 279 334
#     4   9  17  31  53  82 115 149 185 228 282 339
#     4  11  22  36  57  83 111 143 184 229 278 334
#     4   9  19  37  55  76 108 147 184 220 270 332
#
# _framework density 18.816534999999998
#
# number of rings (size 3 to 8) (size 9 to 14) (size 15 to 20)
#    0.000    2.000    3.000    1.500    0.000    1.600 
#    0.000    3.500    0.000    3.000    0.000    1.400 
#    0.000    0.000    0.000    0.000    0.000    0.000 
#
# Total GULP energy -991393.747287 kJ/mol
# GULP energy per Si atom -12392.421841 kJ/mol
# Density = 1.877371 g / cm^3
# Si number density = 18.816535 Si / 1000 Ang^3
#
#
#
# Elastic Constant Matrix: (Units=GPa)
#
#
# Indices 1 2 3 4 5 6 
#
# 1 80.8601 26.3714 49.2450 0.0000 0.0000 0.0000
# 2 26.3714 80.8611 49.2453 0.0000 0.0000 0.0000
# 3 49.2450 49.2453 146.2753 0.0000 0.0000 0.0000
# 4 0.0000 0.0000 0.0000 12.8641 0.0000 0.0000
# 5 0.0000 0.0000 0.0000 0.0000 12.8632 0.0000
# 6 0.0000 0.0000 0.0000 0.0000 0.0000 18.7412
#
#
#
# Elastic Compliance Matrix: (Units=1/GPa)
#
#
# Indices 1 2 3 4 5 6 
#
# 1 0.015926 -0.002426 -0.004545 0.000000 0.000000 0.000000
# 2 -0.002426 0.015926 -0.004545 0.000000 0.000000 0.000000
# 3 -0.004545 -0.004545 0.009897 0.000000 0.000000 0.000000
# 4 0.000000 0.000000 0.000000 0.077736 0.000000 0.000000
# 5 0.000000 0.000000 0.000000 0.000000 0.077741 0.000000
# 6 0.000000 0.000000 0.000000 0.000000 0.000000 0.053358
#
#
# Mechanical properties :
#
#
# Convention : Reuss Voigt Hill
#
# Bulk Modulus (GPa) = 53.42762 61.96888 57.69825
# Shear Modulus (GPa) = 17.86639 21.10268 19.48454
#
# Velocity S-wave (km/s) = 3.08475 3.35251 3.22141
# Velocity P-wave (km/s) = 6.41429 6.92751 6.67584
#
# Compressibility (1/GPa) = 0.01871691
#
# Stress axis : x y z
#
# Youngs Moduli (GPa) = 62.78953 62.79038 101.04476
#
# Poissons Ratio (x) = 0.15234 0.45924
# Poissons Ratio (y) = 0.15234 0.45924
# Poissons Ratio (z) = 0.28537 0.28538
#
# Static dielectric constant tensor:
#      x y z
#    x 3.276690 0.000000 0.000000 
#    y 0.000000 3.276690 0.000000 
#    z 0.000000 0.000000 3.614070 
# 
# 
# High freq. dielectric constant tensor:
#      x y z
#    x 1.714240 0.000000 0.000000 
#    y 0.000000 1.714240 0.000000 
#    z 0.000000 0.000000 1.737860 
# 
# From -- ./inp_files/13478.got.cif
#   From: 2010.03.12/outbox.cif.g09.slc.cpg/sg131_7_cif.got.tgz:13478.got - 2010.04.06 17:36:35.
