data_PCOD8315714
_publ_section_title
;
Structure prediction by ZEFSAII (Michael W. Deem and Ramdas Pophale) SiO2 
 PCOD8315714
Probable space group: P 42/M M C
;
_chemical_formula_sum "Si O2"
_cell_formula_units_Z 80
_cell_length_a 22.239106
_cell_length_b 22.239106
_cell_length_c 9.109359
_cell_angle_alpha 90.000000
_cell_angle_beta 90.000000
_cell_angle_gamma 90.000000
_cell_volume 4505.287059
_symmetry_space_group_name_H-M "P 42/M M C"
_symmetry_group_IT_number 131
_symmetry_cell_setting 'tetragonal'
loop_
_space_group_symop_operation_xyz
x,y,z
-x,-y,z
-y,x,1/2+z
y,-x,1/2+z
-x,y,-z
x,-y,-z
y,x,1/2-z
-y,-x,1/2-z
-x,-y,-z
x,y,-z
y,-x,1/2-z
-y,x,1/2-z
x,-y,z
-x,y,z
-y,-x,1/2+z
y,x,1/2+z
loop_
_atom_site_type_symbol
_atom_site_label
_atom_site_fract_x
_atom_site_fract_y
_atom_site_fract_z
Si Si1 0.162383 0.629079 0.338545
Si Si2 0.152675 0.932090 0.328571
Si Si3 0.303950 0.615795 0.335817
Si Si4 0.164458 0.748744 0.171978
Si Si5 0.500000 0.828080 0.828204
Si Si6 0.500000 0.703509 0.326231
O O1 0.140184 0.650146 0.500000
O O2 0.232789 0.616987 0.340849
O O3 0.147367 0.681438 0.223312
O O4 0.134109 0.562526 0.299846
O O5 0.093691 0.906310 0.250000
O O6 0.139839 0.929376 0.500000
O O7 0.210995 0.893066 0.286632
O O8 0.164250 0.000000 0.274807
O O9 0.324997 0.675004 0.250000
O O10 0.330683 0.614347 0.500000
O O11 0.327839 0.558312 0.245178
O O12 0.223925 0.776076 0.250000
O O13 0.178020 0.747595 0.000000
O O14 0.500000 0.773661 0.713920
O O15 0.500000 0.805801 0.000000
O O16 0.500000 0.694747 0.500000
#
# Coordination Sequence:
#
# PCOD8315714 Si02
#       6
#    16  16  16  16   8   8
#     4   9  17  29  45  65  91 120 150 186 229 276
#     4   9  19  35  52  72 100 132 165 201 240 281
#     4  10  19  30  43  60  82 109 140 175 218 268
#     4  10  19  30  46  68  95 126 158 194 237 285
#     4   8  16  30  44  60  86 120 152 185 228 275
#     4  10  18  28  42  59  79 105 137 176 220 266
#
# _framework density 17.756914999999999
#
# number of rings (size 3 to 8) (size 9 to 14) (size 15 to 20)
#    0.000    2.600    0.000    3.900    0.000    7.000 
#    0.000    1.000    0.000    0.300    0.000    2.800 
#    0.000    5.600    0.000    0.000    0.000    0.000 
#
# Total GULP energy -991405.414873 kJ/mol
# GULP energy per Si atom -12392.567686 kJ/mol
# Density = 1.771650 g / cm^3
# Si number density = 17.756915 Si / 1000 Ang^3
#
#
#
# Elastic Constant Matrix: (Units=GPa)
#
#
# Indices 1 2 3 4 5 6 
#
# 1 87.2476 26.4857 34.2586 0.0000 0.0000 0.0000
# 2 26.4857 87.2461 34.2597 0.0000 0.0000 0.0000
# 3 34.2586 34.2597 101.3676 0.0000 0.0000 0.0000
# 4 0.0000 0.0000 0.0000 22.3616 0.0000 0.0000
# 5 0.0000 0.0000 0.0000 0.0000 22.3621 0.0000
# 6 0.0000 0.0000 0.0000 0.0000 0.0000 12.7589
#
#
#
# Elastic Compliance Matrix: (Units=1/GPa)
#
#
# Indices 1 2 3 4 5 6 
#
# 1 0.013749 -0.002709 -0.003731 0.000000 0.000000 0.000000
# 2 -0.002709 0.013749 -0.003732 0.000000 0.000000 0.000000
# 3 -0.003731 -0.003732 0.012387 0.000000 0.000000 0.000000
# 4 0.000000 0.000000 0.000000 0.044719 0.000000 0.000000
# 5 0.000000 0.000000 0.000000 0.000000 0.044719 0.000000
# 6 0.000000 0.000000 0.000000 0.000000 0.000000 0.078377
#
#
# Mechanical properties :
#
#
# Convention : Reuss Voigt Hill
#
# Bulk Modulus (GPa) = 51.16958 51.76326 51.46642
# Shear Modulus (GPa) = 21.31675 23.55368 22.43521
#
# Velocity S-wave (km/s) = 3.46855 3.64600 3.55838
# Velocity P-wave (km/s) = 6.70227 6.85118 6.77713
#
# Compressibility (1/GPa) = 0.01954286
#
# Stress axis : x y z
#
# Youngs Moduli (GPa) = 72.73258 72.73040 80.72805
#
# Poissons Ratio (x) = 0.19700 0.30121
# Poissons Ratio (y) = 0.19701 0.30124
# Poissons Ratio (z) = 0.27138 0.27140
#
# Static dielectric constant tensor:
#      x y z
#    x 3.306890 0.000000 0.000000 
#    y 0.000000 3.306900 0.000000 
#    z 0.000000 0.000000 3.342430 
# 
# 
# High freq. dielectric constant tensor:
#      x y z
#    x 1.662220 0.000000 0.000000 
#    y 0.000000 1.662220 0.000000 
#    z 0.000000 0.000000 1.693550 
# 
# From -- ./inp_files/2092.got.cif
#   From: 2010.03.12/outbox.cif.g09.slc.cpg/sg131_2_cif.got.tgz:2092.got - 2010.04.06 17:36:35.
