data_PCOD8315994
_publ_section_title
;
Structure prediction by ZEFSAII (Michael W. Deem and Ramdas Pophale) SiO2 
 PCOD8315994
Probable space group: P 42/M M C
;
_chemical_formula_sum "Si O2"
_cell_formula_units_Z 80
_cell_length_a 11.958567
_cell_length_b 11.958567
_cell_length_c 30.930726
_cell_angle_alpha 90.000000
_cell_angle_beta 90.000000
_cell_angle_gamma 90.000000
_cell_volume 4423.320376
_symmetry_space_group_name_H-M "P 42/M M C"
_symmetry_group_IT_number 131
_symmetry_cell_setting 'tetragonal'
loop_
_space_group_symop_operation_xyz
x,y,z
-x,-y,z
-y,x,1/2+z
y,-x,1/2+z
-x,y,-z
x,-y,-z
y,x,1/2-z
-y,-x,1/2-z
-x,-y,-z
x,y,-z
y,-x,1/2-z
-y,x,1/2-z
x,-y,z
-x,y,z
-y,-x,1/2+z
y,x,1/2+z
loop_
_atom_site_type_symbol
_atom_site_label
_atom_site_fract_x
_atom_site_fract_y
_atom_site_fract_z
Si Si1 0.629974 0.129479 0.359561
Si Si2 0.366920 0.000000 0.203369
Si Si3 0.259438 0.226911 0.071735
Si Si4 0.625508 0.630898 0.500000
Si Si5 0.000000 0.632661 0.394316
Si Si6 0.121209 0.128093 0.500000
Si Si7 0.802358 0.630201 0.762223
O O1 0.500000 0.154080 0.369882
O O2 0.707126 0.212431 0.387155
O O3 0.657941 0.154918 0.310009
O O4 0.657857 0.000000 0.369556
O O5 0.321887 0.000000 0.154673
O O6 0.321163 0.891807 0.228267
O O7 0.500000 0.000000 0.205169
O O8 0.336672 0.308804 0.043558
O O9 0.325892 0.114357 0.083846
O O10 0.155420 0.191266 0.042554
O O11 0.500000 0.684586 0.500000
O O12 0.613556 0.500000 0.500000
O O13 0.000000 0.500000 0.396552
O O14 0.000000 0.190691 0.500000
O O15 0.097013 0.000000 0.500000
O O16 0.685361 0.685361 0.750000
O O17 0.783539 0.500000 0.756050
#
# Coordination Sequence:
#
# PCOD8315994 Si02
#       7
#    16   8  16   8   8   8  16
#     4  10  20  36  58  85 113 146 190 237 286 341
#     4   9  18  34  53  75 106 146 184 220 275 332
#     4  11  21  36  57  84 108 148 188 236 282 336
#     4  10  22  39  58  80 113 151 187 234 294 351
#     4  11  22  35  54  83 114 146 193 237 273 336
#     4  10  20  36  53  75 108 141 178 223 279 338
#     4  10  19  34  56  80 111 149 187 231 284 338
#
# _framework density 18.08596
#
# number of rings (size 3 to 8) (size 9 to 14) (size 15 to 20)
#    0.000    1.800    2.000    3.000    0.000    0.200 
#    0.000    2.500    0.000    7.500    0.000    0.000 
#    0.000    0.000    0.000    0.000    0.000    0.000 
#
# Total GULP energy -991802.202751 kJ/mol
# GULP energy per Si atom -12397.527534 kJ/mol
# Density = 1.804480 g / cm^3
# Si number density = 18.085960 Si / 1000 Ang^3
#
#
#
# Elastic Constant Matrix: (Units=GPa)
#
#
# Indices 1 2 3 4 5 6 
#
# 1 97.6633 53.9196 54.1234 0.0000 0.0000 0.0000
# 2 53.9196 97.6633 54.1234 0.0000 0.0000 0.0000
# 3 54.1234 54.1234 116.7244 0.0000 0.0000 0.0000
# 4 0.0000 0.0000 0.0000 7.3179 0.0000 0.0000
# 5 0.0000 0.0000 0.0000 0.0000 7.3179 0.0000
# 6 0.0000 0.0000 0.0000 0.0000 0.0000 22.5109
#
#
#
# Elastic Compliance Matrix: (Units=1/GPa)
#
#
# Indices 1 2 3 4 5 6 
#
# 1 0.016362 -0.006499 -0.004573 0.000000 0.000000 0.000000
# 2 -0.006499 0.016362 -0.004573 0.000000 0.000000 0.000000
# 3 -0.004573 -0.004573 0.012808 0.000000 0.000000 0.000000
# 4 0.000000 0.000000 0.000000 0.136651 0.000000 0.000000
# 5 0.000000 0.000000 0.000000 0.000000 0.136651 0.000000
# 6 0.000000 0.000000 0.000000 0.000000 0.000000 0.044423
#
#
# Mechanical properties :
#
#
# Convention : Reuss Voigt Hill
#
# Bulk Modulus (GPa) = 70.21995 70.70931 70.46463
# Shear Modulus (GPa) = 12.52208 17.42165 14.97186
#
# Velocity S-wave (km/s) = 2.63414 3.10702 2.88030
# Velocity P-wave (km/s) = 6.93985 7.21475 7.07863
#
# Compressibility (1/GPa) = 0.01424097
#
# Stress axis : x y z
#
# Youngs Moduli (GPa) = 61.11852 61.11852 78.07438
#
# Poissons Ratio (x) = 0.39720 0.35705
# Poissons Ratio (y) = 0.39720 0.35705
# Poissons Ratio (z) = 0.27951 0.27951
#
# Static dielectric constant tensor:
#      x y z
#    x 3.343770 0.000000 0.000000 
#    y 0.000000 3.343770 0.000000 
#    z 0.000000 0.000000 3.445050 
# 
# 
# High freq. dielectric constant tensor:
#      x y z
#    x 1.699670 0.000000 0.000000 
#    y 0.000000 1.699670 0.000000 
#    z 0.000000 0.000000 1.712940 
# 
# From -- ./inp_files/13491.got.cif
#   From: 2010.03.12/outbox.cif.g09.slc.cpg/sg131_7_cif.got.tgz:13491.got - 2010.04.06 17:36:35.
