data_PCOD8315963
_publ_section_title
;
Structure prediction by ZEFSAII (Michael W. Deem and Ramdas Pophale) SiO2 
 PCOD8315963
Probable space group: P 42/M M C
;
_chemical_formula_sum "Si O2"
_cell_formula_units_Z 104
_cell_length_a 18.345519
_cell_length_b 18.345519
_cell_length_c 17.019187
_cell_angle_alpha 90.000000
_cell_angle_beta 90.000000
_cell_angle_gamma 90.000000
_cell_volume 5727.944685
_symmetry_space_group_name_H-M "P 42/M M C"
_symmetry_group_IT_number 131
_symmetry_cell_setting 'tetragonal'
loop_
_space_group_symop_operation_xyz
x,y,z
-x,-y,z
-y,x,1/2+z
y,-x,1/2+z
-x,y,-z
x,-y,-z
y,x,1/2-z
-y,-x,1/2-z
-x,-y,-z
x,y,-z
y,-x,1/2-z
-y,x,1/2-z
x,-y,z
-x,y,z
-y,-x,1/2+z
y,x,1/2+z
loop_
_atom_site_type_symbol
_atom_site_label
_atom_site_fract_x
_atom_site_fract_y
_atom_site_fract_z
Si Si1 0.809176 0.918450 0.211665
Si Si2 0.315617 0.781117 0.412120
Si Si3 0.584150 0.584150 0.250000
Si Si4 0.649442 0.586300 0.912645
Si Si5 0.164016 0.279588 0.591963
Si Si6 0.079736 0.664139 0.188394
Si Si7 0.416182 0.916262 0.157247
O O1 0.874767 0.874767 0.250000
O O2 0.783037 0.886722 0.128465
O O3 0.740707 0.915750 0.268421
O O4 0.837472 0.000000 0.197753
O O5 0.293920 0.801509 0.500000
O O6 0.387520 0.732167 0.407116
O O7 0.246390 0.736551 0.376131
O O8 0.337872 0.856556 0.373660
O O9 0.602477 0.500000 0.245867
O O10 0.610686 0.619047 0.166313
O O11 0.646308 0.500000 0.909928
O O12 0.617551 0.611535 0.000000
O O13 0.158557 0.270838 0.500000
O O14 0.139000 0.361818 0.612973
O O15 0.090454 0.598250 0.249835
O O16 0.000000 0.656283 0.147729
O O17 0.500000 0.894290 0.139384
O O18 0.401130 0.000000 0.130061
#
# Coordination Sequence:
#
# PCOD8315963 Si02
#       7
#    16  16   8  16  16  16  16
#     4  10  19  33  53  76 102 135 175 216 261 315
#     4  10  20  34  53  76 103 136 175 219 268 322
#     4   9  18  32  52  78 102 134 182 218 255 320
#     4   9  19  35  52  74 106 138 171 218 269 317
#     4  10  20  34  53  79 108 140 177 218 263 317
#     4   9  18  33  53  74  99 134 175 219 266 314
#     4   9  19  34  52  77 108 141 176 215 262 319
#
# _framework density 18.156599
#
# number of rings (size 3 to 8) (size 9 to 14) (size 15 to 20)
#    0.000    2.538    1.538    1.385    0.000    5.385 
#    0.000    4.615    0.000    3.231    0.000    5.385 
#    0.000    0.000    0.000    0.000    0.000    0.000 
#
# Total GULP energy -1288445.396572 kJ/mol
# GULP energy per Si atom -12388.898044 kJ/mol
# Density = 1.811527 g / cm^3
# Si number density = 18.156599 Si / 1000 Ang^3
#
#
#
# Elastic Constant Matrix: (Units=GPa)
#
#
# Indices 1 2 3 4 5 6 
#
# 1 53.2433 10.1258 40.4210 0.0000 0.0000 0.0000
# 2 10.1258 53.2433 40.4210 0.0000 0.0000 0.0000
# 3 40.4210 40.4210 110.3130 0.0000 0.0000 0.0000
# 4 0.0000 0.0000 0.0000 9.6449 0.0000 0.0000
# 5 0.0000 0.0000 0.0000 0.0000 9.6449 0.0000
# 6 0.0000 0.0000 0.0000 0.0000 0.0000 26.3543
#
#
#
# Elastic Compliance Matrix: (Units=1/GPa)
#
#
# Indices 1 2 3 4 5 6 
#
# 1 0.026412 0.003220 -0.010858 0.000000 0.000000 0.000000
# 2 0.003220 0.026412 -0.010858 0.000000 0.000000 0.000000
# 3 -0.010858 -0.010858 0.017022 0.000000 0.000000 0.000000
# 4 0.000000 0.000000 0.000000 0.103681 0.000000 0.000000
# 5 0.000000 0.000000 0.000000 0.000000 0.103681 0.000000
# 6 0.000000 0.000000 0.000000 0.000000 0.000000 0.037945
#
#
# Mechanical properties :
#
#
# Convention : Reuss Voigt Hill
#
# Bulk Modulus (GPa) = 30.43649 44.30391 37.37020
# Shear Modulus (GPa) = 13.77041 17.51763 15.64402
#
# Velocity S-wave (km/s) = 2.75694 3.10951 2.93851
# Velocity P-wave (km/s) = 5.18980 6.11114 5.66921
#
# Compressibility (1/GPa) = 0.03285530
#
# Stress axis : x y z
#
# Youngs Moduli (GPa) = 37.86103 37.86103 58.74663
#
# Poissons Ratio (x) = -0.12191 0.63787
# Poissons Ratio (y) = -0.12191 0.63787
# Poissons Ratio (z) = 0.41109 0.41109
#
# Static dielectric constant tensor:
#      x y z
#    x 3.467450 0.000000 0.000000 
#    y 0.000000 3.467450 0.000000 
#    z 0.000000 0.000000 3.603180 
# 
# 
# High freq. dielectric constant tensor:
#      x y z
#    x 1.696300 0.000000 0.000000 
#    y 0.000000 1.696300 0.000000 
#    z 0.000000 0.000000 1.701370 
# 
# From -- ./inp_files/8104.got.cif
#   From: 2010.03.12/outbox.cif.g09.slc.cpg/sg131_5_cif.got.tgz:8104.got - 2010.04.06 17:36:35.
