data_PCOD8315187
_publ_section_title
;
Structure prediction by ZEFSAII (Michael W. Deem and Ramdas Pophale) SiO2 
 PCOD8315187
Probable space group: P 4/N M M
;
_chemical_formula_sum "Si O2"
_cell_formula_units_Z 112
_cell_length_a 17.002387
_cell_length_b 17.002387
_cell_length_c 22.170704
_cell_angle_alpha 90.000000
_cell_angle_beta 90.000000
_cell_angle_gamma 90.000000
_cell_volume 6409.132912
_symmetry_space_group_name_H-M "P 4/N M M"
_symmetry_group_IT_number 129
_symmetry_cell_setting 'tetragonal'
loop_
_space_group_symop_operation_xyz
x,y,z
1/2-y,x,z
1/2-x,1/2-y,z
y,1/2-x,z
1/2+x,-y,-z
-x,1/2+y,-z
1/2+y,1/2+x,-z
-y,-x,-z
-x,-y,-z
1/2+y,-x,-z
1/2+x,1/2+y,-z
-y,1/2+x,-z
1/2-x,y,z
x,1/2-y,z
1/2-y,1/2-x,z
y,x,z
loop_
_atom_site_type_symbol
_atom_site_label
_atom_site_fract_x
_atom_site_fract_y
_atom_site_fract_z
Si Si1 0.047274 0.661667 0.469918
Si Si2 0.462525 0.338815 0.918444
Si Si3 0.445571 0.926763 0.844863
Si Si4 0.656714 0.157316 0.745587
Si Si5 0.163046 0.043498 0.411254
Si Si6 0.160658 0.034053 0.053897
Si Si7 0.925081 0.049382 0.349929
O O1 0.124286 0.624286 0.500000
O O2 0.070340 0.750000 0.453213
O O3 0.018278 0.618824 0.409510
O O4 0.977618 0.656881 0.518264
O O5 0.452925 0.250000 0.898198
O O6 0.376041 0.376041 0.918449
O O7 0.515303 0.379104 0.868302
O O8 0.499244 0.347602 0.985656
O O9 0.404966 0.868509 0.797060
O O10 0.469779 0.873746 0.901208
O O11 0.520683 0.979318 0.820461
O O12 0.750000 0.143462 0.729633
O O13 0.645414 0.250000 0.762964
O O14 0.594220 0.137444 0.692574
O O15 0.250000 0.039512 0.385751
O O16 0.132010 0.132010 0.404913
O O17 0.114346 0.987282 0.368494
O O18 0.250000 0.051391 0.071015
O O19 0.116110 0.116110 0.061571
O O20 0.973583 0.973583 0.322001
#
# Coordination Sequence:
#
# PCOD8315187 Si02
#       7
#    16  16  16  16  16  16  16
#     4   9  17  29  46  70  98 126 155 187 226 271
#     4   9  17  29  47  71  97 124 154 190 231 275
#     4  10  19  33  51  69  92 123 160 195 228 276
#     4  11  23  36  50  69  94 122 153 195 245 290
#     4   9  17  29  46  68  93 120 149 182 220 263
#     4   9  17  29  47  71  97 125 155 189 230 274
#     4  10  19  33  51  69  91 121 158 195 232 277
#
# _framework density 17.475062000000001
#
# number of rings (size 3 to 8) (size 9 to 14) (size 15 to 20)
#    0.000    2.429    0.000    3.000    0.000    4.571 
#    0.000    1.429    0.000    0.000    0.000    6.000 
#    0.000   22.000    0.000    0.000    0.000    0.000 
#
# Total GULP energy -1387669.909991 kJ/mol
# GULP energy per Si atom -12389.909911 kJ/mol
# Density = 1.743529 g / cm^3
# Si number density = 17.475062 Si / 1000 Ang^3
#
#
#
# Elastic Constant Matrix: (Units=GPa)
#
#
# Indices 1 2 3 4 5 6 
#
# 1 71.7903 26.2601 9.4122 0.0000 0.0000 0.0000
# 2 26.2601 71.7903 9.4122 0.0000 0.0000 0.0000
# 3 9.4122 9.4122 37.1482 0.0000 0.0000 0.0000
# 4 0.0000 0.0000 0.0000 22.3557 0.0000 0.0000
# 5 0.0000 0.0000 0.0000 0.0000 22.3557 0.0000
# 6 0.0000 0.0000 0.0000 0.0000 0.0000 21.8238
#
#
#
# Elastic Compliance Matrix: (Units=1/GPa)
#
#
# Indices 1 2 3 4 5 6 
#
# 1 0.016342 -0.005622 -0.002716 0.000000 0.000000 0.000000
# 2 -0.005622 0.016342 -0.002716 0.000000 0.000000 0.000000
# 3 -0.002716 -0.002716 0.028296 0.000000 0.000000 0.000000
# 4 0.000000 0.000000 0.000000 0.044731 0.000000 0.000000
# 5 0.000000 0.000000 0.000000 0.000000 0.044731 0.000000
# 6 0.000000 0.000000 0.000000 0.000000 0.000000 0.045822
#
#
# Mechanical properties :
#
#
# Convention : Reuss Voigt Hill
#
# Bulk Modulus (GPa) = 25.72583 30.09976 27.91279
# Shear Modulus (GPa) = 21.61428 22.35000 21.98214
#
# Velocity S-wave (km/s) = 3.52072 3.58014 3.55056
# Velocity P-wave (km/s) = 5.59292 5.86103 5.72854
#
# Compressibility (1/GPa) = 0.03887144
#
# Stress axis : x y z
#
# Youngs Moduli (GPa) = 61.19246 61.19246 35.34120
#
# Poissons Ratio (x) = 0.34400 0.09599
# Poissons Ratio (y) = 0.34400 0.09599
# Poissons Ratio (z) = 0.16621 0.16621
#
# Static dielectric constant tensor:
#      x y z
#    x 3.348730 0.000000 0.000000 
#    y 0.000000 3.348730 0.000000 
#    z 0.000000 0.000000 3.190130 
# 
# 
# High freq. dielectric constant tensor:
#      x y z
#    x 1.673890 0.000000 0.000000 
#    y 0.000000 1.673890 0.000000 
#    z 0.000000 0.000000 1.664470 
# 
# From -- ./inp_files/6648.got.cif
#   From: 2010.03.12/outbox.cif.g09.slc.cpg/sg129_4_cif.got.tgz:6648.got - 2010.04.06 17:19:44.
