data_PCOD8315343
_publ_section_title
;
Structure prediction by ZEFSAII (Michael W. Deem and Ramdas Pophale) SiO2 
 PCOD8315343
Probable space group: P 4/N M M
;
_chemical_formula_sum "Si O2"
_cell_formula_units_Z 128
_cell_length_a 23.511059
_cell_length_b 23.511059
_cell_length_c 12.827243
_cell_angle_alpha 90.000000
_cell_angle_beta 90.000000
_cell_angle_gamma 90.000000
_cell_volume 7090.513770
_symmetry_space_group_name_H-M "P 4/N M M"
_symmetry_group_IT_number 129
_symmetry_cell_setting 'tetragonal'
loop_
_space_group_symop_operation_xyz
x,y,z
1/2-y,x,z
1/2-x,1/2-y,z
y,1/2-x,z
1/2+x,-y,-z
-x,1/2+y,-z
1/2+y,1/2+x,-z
-y,-x,-z
-x,-y,-z
1/2+y,-x,-z
1/2+x,1/2+y,-z
-y,1/2+x,-z
1/2-x,y,z
x,1/2-y,z
1/2-y,1/2-x,z
y,x,z
loop_
_atom_site_type_symbol
_atom_site_label
_atom_site_fract_x
_atom_site_fract_y
_atom_site_fract_z
Si Si1 0.524479 0.880892 0.786556
Si Si2 0.895728 0.092011 0.238962
Si Si3 0.487441 0.184589 0.423927
Si Si4 0.183242 0.617870 0.414399
Si Si5 0.092872 0.315961 0.609509
Si Si6 0.967098 0.625702 0.209096
Si Si7 0.010013 0.314211 0.009391
Si Si8 0.187794 0.612275 0.944488
O O1 0.566365 0.933636 0.790617
O O2 0.461087 0.904254 0.791347
O O3 0.533214 0.847615 0.678990
O O4 0.536846 0.841112 0.886392
O O5 0.874351 0.140231 0.318420
O O6 0.859674 0.101505 0.138073
O O7 0.883905 0.026604 0.271042
O O8 0.475778 0.250000 0.400228
O O9 0.553446 0.174674 0.454020
O O10 0.451533 0.162861 0.522050
O O11 0.163884 0.663884 0.500000
O O12 0.250000 0.628755 0.384587
O O13 0.106233 0.250000 0.599662
O O14 0.151790 0.348211 0.591260
O O15 0.067804 0.328812 0.723345
O O16 0.934162 0.565839 0.203336
O O17 0.973174 0.649938 0.092634
O O18 0.033694 0.250000 0.997587
O O19 0.941520 0.312520 0.023076
O O20 0.250000 0.619409 0.893439
O O21 0.171293 0.671293 0.000000
#
# Coordination Sequence:
#
# PCOD8315343 Si02
#       8
#    16  16  16  16  16  16  16  16
#     4  11  20  32  54  81 110 139 174 221 271 325
#     4  10  21  36  52  78 106 139 173 218 276 323
#     4   9  19  35  54  77 105 141 179 217 265 321
#     4  10  21  36  55  76 103 140 182 226 270 322
#     4  10  20  35  55  78 106 136 172 216 259 315
#     4  10  20  34  54  80 109 141 181 224 269 325
#     4  10  20  34  53  75 107 145 178 217 266 322
#     4  10  20  35  51  70  96 131 175 218 259 309
#
# _framework density 18.052288000000001
#
# number of rings (size 3 to 8) (size 9 to 14) (size 15 to 20)
#    0.000    2.000    1.250    2.625    0.000    2.375 
#    0.000    1.875    0.000    6.000    0.000    0.000 
#    0.000   10.250    0.000    0.000    0.000    0.000 
#
# Total GULP energy -1586603.142296 kJ/mol
# GULP energy per Si atom -12395.337049 kJ/mol
# Density = 1.801120 g / cm^3
# Si number density = 18.052288 Si / 1000 Ang^3
#
#
#
# Elastic Constant Matrix: (Units=GPa)
#
#
# Indices 1 2 3 4 5 6 
#
# 1 67.4098 55.6221 34.9137 0.0000 0.0000 0.0000
# 2 55.6221 67.4098 34.9137 0.0000 0.0000 0.0000
# 3 34.9137 34.9137 82.8022 0.0000 0.0000 0.0000
# 4 0.0000 0.0000 0.0000 24.4573 0.0000 0.0000
# 5 0.0000 0.0000 0.0000 0.0000 24.4573 0.0000
# 6 0.0000 0.0000 0.0000 0.0000 0.0000 26.4652
#
#
#
# Elastic Compliance Matrix: (Units=1/GPa)
#
#
# Indices 1 2 3 4 5 6 
#
# 1 0.047759 -0.037074 -0.004505 0.000000 0.000000 0.000000
# 2 -0.037074 0.047759 -0.004505 0.000000 0.000000 0.000000
# 3 -0.004505 -0.004505 0.015876 0.000000 0.000000 0.000000
# 4 0.000000 0.000000 0.000000 0.040888 0.000000 0.000000
# 5 0.000000 0.000000 0.000000 0.000000 0.040888 0.000000
# 6 0.000000 0.000000 0.000000 0.000000 0.000000 0.037786
#
#
# Mechanical properties :
#
#
# Convention : Reuss Voigt Hill
#
# Bulk Modulus (GPa) = 52.01571 52.05787 52.03679
# Shear Modulus (GPa) = 15.17292 21.22077 18.19685
#
# Velocity S-wave (km/s) = 2.90228 3.43230 3.17836
# Velocity P-wave (km/s) = 6.33304 6.67888 6.50826
#
# Compressibility (1/GPa) = 0.01922496
#
# Stress axis : x y z
#
# Youngs Moduli (GPa) = 20.93829 20.93829 62.98675
#
# Poissons Ratio (x) = 0.77627 0.28378
# Poissons Ratio (y) = 0.77627 0.28378
# Poissons Ratio (z) = 0.09433 0.09433
#
# Static dielectric constant tensor:
#      x y z
#    x 2.595080 0.000000 0.000000 
#    y 0.000000 2.595080 0.000000 
#    z 0.000000 0.000000 2.457230 
# 
# 
# High freq. dielectric constant tensor:
#      x y z
#    x 1.699270 0.000000 0.000000 
#    y 0.000000 1.699270 0.000000 
#    z 0.000000 0.000000 1.697350 
# 
# From -- ./inp_files/4180.got.cif
#   From: 2010.03.12/outbox.cif.g09.slc.cpg/sg129_3_cif.got.tgz:4180.got - 2010.04.06 17:19:44.
