data_PCOD8315896
_publ_section_title
;
Structure prediction by ZEFSAII (Michael W. Deem and Ramdas Pophale) SiO2 
 PCOD8315896
Probable space group: P 42/M M C
;
_chemical_formula_sum "Si O2"
_cell_formula_units_Z 112
_cell_length_a 15.123479
_cell_length_b 15.123479
_cell_length_c 24.100106
_cell_angle_alpha 90.000000
_cell_angle_beta 90.000000
_cell_angle_gamma 90.000000
_cell_volume 5512.167016
_symmetry_space_group_name_H-M "P 42/M M C"
_symmetry_group_IT_number 131
_symmetry_cell_setting 'tetragonal'
loop_
_space_group_symop_operation_xyz
x,y,z
-x,-y,z
-y,x,1/2+z
y,-x,1/2+z
-x,y,-z
x,-y,-z
y,x,1/2-z
-y,-x,1/2-z
-x,-y,-z
x,y,-z
y,-x,1/2-z
-y,x,1/2-z
x,-y,z
-x,y,z
-y,-x,1/2+z
y,x,1/2+z
loop_
_atom_site_type_symbol
_atom_site_label
_atom_site_fract_x
_atom_site_fract_y
_atom_site_fract_z
Si Si1 0.098386 0.775097 0.280931
Si Si2 0.757827 0.600244 0.127924
Si Si3 0.637189 0.219144 0.751789
Si Si4 0.359922 0.099064 0.061258
Si Si5 0.594682 0.729014 0.130377
Si Si6 0.717862 0.899162 0.436164
Si Si7 0.171817 0.098389 0.094642
O O1 0.149511 0.850490 0.250000
O O2 0.120654 0.673765 0.263269
O O3 0.115551 0.784357 0.345945
O O4 0.000000 0.792638 0.262741
O O5 0.749697 0.500000 0.103354
O O6 0.773623 0.586415 0.193701
O O7 0.669480 0.657039 0.115574
O O8 0.838614 0.653727 0.100909
O O9 0.728406 0.271595 0.750000
O O10 0.582120 0.256201 0.803506
O O11 0.391463 0.175916 0.102153
O O12 0.254218 0.102637 0.053095
O O13 0.387226 0.000000 0.083149
O O14 0.400922 0.114769 0.000000
O O15 0.500000 0.690634 0.110052
O O16 0.705991 0.870541 0.500000
O O17 0.821651 0.894359 0.419496
O O18 0.687754 0.000000 0.427058
O O19 0.125879 0.000000 0.091334
#
# Coordination Sequence:
#
# PCOD8315896 Si02
#       7
#    16  16  16  16  16  16  16
#     4  10  19  31  51  80 119 163 203 243 293 353
#     4  11  24  42  63  87 117 157 202 250 307 358
#     4   9  18  36  58  83 114 151 192 241 294 354
#     4  10  20  36  59  87 122 160 195 233 284 352
#     4  11  22  38  63  93 123 156 195 241 298 363
#     4  11  24  42  64  89 117 154 204 257 306 354
#     4  10  19  35  60  90 122 158 198 241 295 360
#
# _framework density 20.318688000000002
#
# number of rings (size 3 to 8) (size 9 to 14) (size 15 to 20)
#    0.000    1.714    2.857    2.571    0.000    5.000 
#    0.000    3.571    0.000    5.143    0.000    2.000 
#    0.000    0.000    0.000    0.000    0.000    0.000 
#
# Total GULP energy -1387592.775525 kJ/mol
# GULP energy per Si atom -12389.221210 kJ/mol
# Density = 2.027244 g / cm^3
# Si number density = 20.318688 Si / 1000 Ang^3
#
#
#
# Elastic Constant Matrix: (Units=GPa)
#
#
# Indices 1 2 3 4 5 6 
#
# 1 127.6362 54.0840 37.4416 0.0000 0.0000 0.0000
# 2 54.0840 127.6415 37.4348 0.0000 0.0000 0.0000
# 3 37.4416 37.4348 72.0647 0.0000 0.0000 0.0000
# 4 0.0000 0.0000 0.0000 -5.1068 0.0000 0.0000
# 5 0.0000 0.0000 0.0000 0.0000 -5.1002 0.0000
# 6 0.0000 0.0000 0.0000 0.0000 0.0000 5.9223
#
#
#
# Elastic Compliance Matrix: (Units=1/GPa)
#
#
# Indices 1 2 3 4 5 6 
#
# 1 0.010299 -0.003297 -0.003638 0.000000 0.000000 0.000000
# 2 -0.003297 0.010298 -0.003636 0.000000 0.000000 0.000000
# 3 -0.003638 -0.003636 0.017656 0.000000 0.000000 0.000000
# 4 0.000000 0.000000 0.000000 -0.195818 0.000000 0.000000
# 5 0.000000 0.000000 0.000000 0.000000 -0.196072 0.000000
# 6 0.000000 0.000000 0.000000 0.000000 0.000000 0.168853
#
#
# Mechanical properties :
#
#
# Convention : Reuss Voigt Hill
#
# Bulk Modulus (GPa) = 58.44745 65.02925 61.73835
# Shear Modulus (GPa) = -31.65800 12.36854 -9.64473
#
# Velocity S-wave (km/s) = -3.95153 2.46992 -2.18106
# Velocity P-wave (km/s) = 2.82991 6.34099 4.91002
#
# Compressibility (1/GPa) = 0.01710939
#
# Stress axis : x y z
#
# Youngs Moduli (GPa) = 97.09637 97.10737 56.63879
#
# Poissons Ratio (x) = 0.32015 0.20607
# Poissons Ratio (y) = 0.32011 0.20596
# Poissons Ratio (z) = 0.35327 0.35313
#
# Static dielectric constant tensor:
#      x y z
#    x 3.650140 0.000000 0.000000 
#    y 0.000000 3.650160 0.000000 
#    z 0.000000 0.000000 3.663030 
# 
# 
# High freq. dielectric constant tensor:
#      x y z
#    x 1.784820 0.000000 0.000000 
#    y 0.000000 1.784820 0.000000 
#    z 0.000000 0.000000 1.796460 
# 
# From -- ./inp_files/11238.got.cif
#   From: 2010.03.12/outbox.cif.g09.slc.cpg/sg131_6_cif.got.tgz:11238.got - 2010.04.06 17:36:35.
