data_PCOD8315181
_publ_section_title
;
Structure prediction by ZEFSAII (Michael W. Deem and Ramdas Pophale) SiO2 
 PCOD8315181
Probable space group: P 4/N M M
;
_chemical_formula_sum "Si O2"
_cell_formula_units_Z 80
_cell_length_a 12.532462
_cell_length_b 12.532462
_cell_length_c 29.234763
_cell_angle_alpha 90.000000
_cell_angle_beta 90.000000
_cell_angle_gamma 90.000000
_cell_volume 4591.687998
_symmetry_space_group_name_H-M "P 4/N M M"
_symmetry_group_IT_number 129
_symmetry_cell_setting 'tetragonal'
loop_
_space_group_symop_operation_xyz
x,y,z
1/2-y,x,z
1/2-x,1/2-y,z
y,1/2-x,z
1/2+x,-y,-z
-x,1/2+y,-z
1/2+y,1/2+x,-z
-y,-x,-z
-x,-y,-z
1/2+y,-x,-z
1/2+x,1/2+y,-z
-y,1/2+x,-z
1/2-x,y,z
x,1/2-y,z
1/2-y,1/2-x,z
y,x,z
loop_
_atom_site_type_symbol
_atom_site_label
_atom_site_fract_x
_atom_site_fract_y
_atom_site_fract_z
Si Si1 0.873945 0.455539 0.642499
Si Si2 0.544505 0.128528 0.732739
Si Si3 0.867991 0.459949 0.541725
Si Si4 0.875889 0.448250 0.049264
Si Si5 0.376937 0.750000 0.787200
Si Si6 0.876357 0.250000 0.109829
O O1 0.750000 0.468194 0.653634
O O2 0.927289 0.375895 0.678876
O O3 0.895239 0.408017 0.591387
O O4 0.927607 0.572394 0.646459
O O5 0.517963 0.250000 0.746086
O O6 0.644130 0.082004 0.761491
O O7 0.441401 0.058600 0.744953
O O8 0.875830 0.375830 0.500000
O O9 0.750000 0.506542 0.544207
O O10 0.940405 0.559595 0.529617
O O11 0.750000 0.475146 0.054392
O O12 0.915108 0.358174 0.085053
O O13 0.943593 0.556408 0.057722
O O14 0.898796 0.398796 0.000000
O O15 0.250000 0.750000 0.786162
O O16 0.422150 0.750000 0.838727
O O17 0.750000 0.250000 0.109632
#
# Coordination Sequence:
#
# PCOD8315181 Si02
#       6
#    16  16  16  16   8   8
#     4   9  17  30  49  72  96 126 162 204 256 309
#     4  10  20  34  53  76 104 136 172 214 259 309
#     4   9  18  31  46  67  95 124 159 202 248 301
#     4  10  19  32  52  78 108 142 180 220 262 310
#     4   9  18  34  54  77 101 133 175 216 255 301
#     4   9  18  32  54  77 103 137 175 216 255 305
#
# _framework density 17.422787
#
# number of rings (size 3 to 8) (size 9 to 14) (size 15 to 20)
#    0.000    2.600    2.000    0.000    0.000    2.600 
#    0.000    4.000    0.000    0.600    0.000   12.600 
#    0.000    0.000    0.000    0.000    0.000    0.000 
#
# Total GULP energy -991558.854884 kJ/mol
# GULP energy per Si atom -12394.485686 kJ/mol
# Density = 1.738313 g / cm^3
# Si number density = 17.422787 Si / 1000 Ang^3
#
#
#
# Elastic Constant Matrix: (Units=GPa)
#
#
# Indices 1 2 3 4 5 6 
#
# 1 88.3617 47.9254 38.9015 0.0000 0.0000 0.0000
# 2 47.9254 88.3617 38.9015 0.0000 0.0000 0.0000
# 3 38.9015 38.9015 121.2747 0.0000 0.0000 0.0000
# 4 0.0000 0.0000 0.0000 18.9199 0.0000 0.0000
# 5 0.0000 0.0000 0.0000 0.0000 18.9199 0.0000
# 6 0.0000 0.0000 0.0000 0.0000 0.0000 16.6283
#
#
#
# Elastic Compliance Matrix: (Units=1/GPa)
#
#
# Indices 1 2 3 4 5 6 
#
# 1 0.016856 -0.007874 -0.002881 0.000000 0.000000 0.000000
# 2 -0.007874 0.016856 -0.002881 0.000000 0.000000 0.000000
# 3 -0.002881 -0.002881 0.010094 0.000000 0.000000 0.000000
# 4 0.000000 0.000000 0.000000 0.052854 0.000000 0.000000
# 5 0.000000 0.000000 0.000000 0.000000 0.052854 0.000000
# 6 0.000000 0.000000 0.000000 0.000000 0.000000 0.060138
#
#
# Mechanical properties :
#
#
# Convention : Reuss Voigt Hill
#
# Bulk Modulus (GPa) = 60.48242 61.05053 60.76647
# Shear Modulus (GPa) = 20.62381 22.37827 21.50104
#
# Velocity S-wave (km/s) = 3.44427 3.58778 3.51675
# Velocity P-wave (km/s) = 7.11387 7.23046 7.17240
#
# Compressibility (1/GPa) = 0.01653373
#
# Stress axis : x y z
#
# Youngs Moduli (GPa) = 59.32518 59.32518 99.06680
#
# Poissons Ratio (x) = 0.46712 0.28544
# Poissons Ratio (y) = 0.46712 0.28544
# Poissons Ratio (z) = 0.17093 0.17093
#
# Static dielectric constant tensor:
#      x y z
#    x 3.082710 0.000000 0.000000 
#    y 0.000000 3.082710 0.000000 
#    z 0.000000 0.000000 3.572480 
# 
# 
# High freq. dielectric constant tensor:
#      x y z
#    x 1.655840 0.000000 0.000000 
#    y 0.000000 1.655840 0.000000 
#    z 0.000000 0.000000 1.685420 
# 
# From -- ./inp_files/7720.got.cif
#   From: 2010.03.12/outbox.cif.g09.slc.cpg/sg129_4_cif.got.tgz:7720.got - 2010.04.06 17:19:44.
