data_PCOD8315233
_publ_section_title
;
Structure prediction by ZEFSAII (Michael W. Deem and Ramdas Pophale) SiO2 
 PCOD8315233
Probable space group: P 4/N M M
;
_chemical_formula_sum "Si O2"
_cell_formula_units_Z 88
_cell_length_a 14.074478
_cell_length_b 14.074478
_cell_length_c 28.327539
_cell_angle_alpha 90.000000
_cell_angle_beta 90.000000
_cell_angle_gamma 90.000000
_cell_volume 5611.428573
_symmetry_space_group_name_H-M "P 4/N M M"
_symmetry_group_IT_number 129
_symmetry_cell_setting 'tetragonal'
loop_
_space_group_symop_operation_xyz
x,y,z
1/2-y,x,z
1/2-x,1/2-y,z
y,1/2-x,z
1/2+x,-y,-z
-x,1/2+y,-z
1/2+y,1/2+x,-z
-y,-x,-z
-x,-y,-z
1/2+y,-x,-z
1/2+x,1/2+y,-z
-y,1/2+x,-z
1/2-x,y,z
x,1/2-y,z
1/2-y,1/2-x,z
y,x,z
loop_
_atom_site_type_symbol
_atom_site_label
_atom_site_fract_x
_atom_site_fract_y
_atom_site_fract_z
Si Si1 0.362528 0.854737 0.771023
Si Si2 0.989142 0.140686 0.690142
Si Si3 0.487947 0.859107 0.415190
Si Si4 0.864156 0.020263 0.962699
Si Si5 0.859647 0.359647 0.500000
Si Si6 0.362443 0.644718 0.125505
O O1 0.250000 0.847110 0.765703
O O2 0.408144 0.750000 0.766004
O O3 0.387004 0.899584 0.822561
O O4 0.404641 0.918338 0.728797
O O5 0.008882 0.250000 0.701349
O O6 0.090155 0.090155 0.694200
O O7 0.945465 0.126281 0.637602
O O8 0.512843 0.750000 0.424268
O O9 0.412181 0.897045 0.453158
O O10 0.585656 0.914345 0.421922
O O11 0.750000 0.005340 0.968824
O O12 0.891474 0.064850 0.912095
O O13 0.902758 0.097243 0.000000
O O14 0.919064 0.919064 0.968086
O O15 0.880369 0.250000 0.490949
O O16 0.250000 0.653744 0.128486
O O17 0.403187 0.750000 0.111905
#
# Coordination Sequence:
#
# PCOD8315233 Si02
#       6
#    16  16  16  16   8  16
#     4   8  14  25  41  61  84 108 135 170 209 243
#     4   9  17  27  39  57  80 107 137 165 196 235
#     4   9  17  28  41  57  78 104 133 164 196 233
#     4  10  20  32  47  68  91 116 147 180 216 258
#     4   9  17  28  42  60  79  99 124 156 200 249
#     4   8  14  26  44  64  85 109 138 173 210 246
#
# _framework density 15.682281
#
# number of rings (size 3 to 8) (size 9 to 14) (size 15 to 20)
#    0.000    3.182    0.000    1.909    0.000    2.909 
#    0.000    5.455    0.000    0.000    0.000    0.000 
#    0.000    4.727    0.000    4.000    0.000    6.909 
#
# Total GULP energy -1090432.791264 kJ/mol
# GULP energy per Si atom -12391.281719 kJ/mol
# Density = 1.564659 g / cm^3
# Si number density = 15.682281 Si / 1000 Ang^3
#
#
#
# Elastic Constant Matrix: (Units=GPa)
#
#
# Indices 1 2 3 4 5 6 
#
# 1 60.2766 34.2033 48.1500 0.0000 0.0000 0.0000
# 2 34.2033 60.2760 48.1500 0.0000 0.0000 0.0000
# 3 48.1500 48.1500 128.5670 0.0000 0.0000 0.0000
# 4 0.0000 0.0000 0.0000 20.9793 0.0000 0.0000
# 5 0.0000 0.0000 0.0000 0.0000 20.9793 0.0000
# 6 0.0000 0.0000 0.0000 0.0000 0.0000 16.0665
#
#
#
# Elastic Compliance Matrix: (Units=1/GPa)
#
#
# Indices 1 2 3 4 5 6 
#
# 1 0.027736 -0.010617 -0.006411 0.000000 0.000000 0.000000
# 2 -0.010617 0.027737 -0.006411 0.000000 0.000000 0.000000
# 3 -0.006411 -0.006411 0.012580 0.000000 0.000000 0.000000
# 4 0.000000 0.000000 0.000000 0.047666 0.000000 0.000000
# 5 0.000000 0.000000 0.000000 0.000000 0.047666 0.000000
# 6 0.000000 0.000000 0.000000 0.000000 0.000000 0.062241
#
#
# Mechanical properties :
#
#
# Convention : Reuss Voigt Hill
#
# Bulk Modulus (GPa) = 47.22940 56.68069 51.95504
# Shear Modulus (GPa) = 17.88495 19.51276 18.69886
#
# Velocity S-wave (km/s) = 3.38073 3.53123 3.45680
# Velocity P-wave (km/s) = 6.73950 7.26964 7.00959
#
# Compressibility (1/GPa) = 0.02117325
#
# Stress axis : x y z
#
# Youngs Moduli (GPa) = 36.05381 36.05335 79.48939
#
# Poissons Ratio (x) = 0.38279 0.50963
# Poissons Ratio (y) = 0.38280 0.50964
# Poissons Ratio (z) = 0.23115 0.23115
#
# Static dielectric constant tensor:
#      x y z
#    x 2.827990 0.000000 0.000000 
#    y 0.000000 2.827990 0.000000 
#    z 0.000000 0.000000 3.442940 
# 
# 
# High freq. dielectric constant tensor:
#      x y z
#    x 1.575540 0.000000 0.000000 
#    y 0.000000 1.575540 0.000000 
#    z 0.000000 0.000000 1.621190 
# 
# From -- ./inp_files/6977.got.cif
#   From: 2010.03.12/outbox.cif.g09.slc.cpg/sg129_4_cif.got.tgz:6977.got - 2010.04.06 17:19:44.
