data_PCOD8315718
_publ_section_title
;
Structure prediction by ZEFSAII (Michael W. Deem and Ramdas Pophale) SiO2 
 PCOD8315718
Probable space group: P 42/M M C
;
_chemical_formula_sum "Si O2"
_cell_formula_units_Z 96
_cell_length_a 14.179298
_cell_length_b 14.179298
_cell_length_c 31.697873
_cell_angle_alpha 90.000000
_cell_angle_beta 90.000000
_cell_angle_gamma 90.000000
_cell_volume 6372.936351
_symmetry_space_group_name_H-M "P 42/M M C"
_symmetry_group_IT_number 131
_symmetry_cell_setting 'tetragonal'
loop_
_space_group_symop_operation_xyz
x,y,z
-x,-y,z
-y,x,1/2+z
y,-x,1/2+z
-x,y,-z
x,-y,-z
y,x,1/2-z
-y,-x,1/2-z
-x,-y,-z
x,y,-z
y,-x,1/2-z
-y,x,1/2-z
x,-y,z
-x,y,z
-y,-x,1/2+z
y,x,1/2+z
loop_
_atom_site_type_symbol
_atom_site_label
_atom_site_fract_x
_atom_site_fract_y
_atom_site_fract_z
Si Si1 0.611535 0.284146 0.211994
Si Si2 0.898329 0.109643 0.201872
Si Si3 0.299664 0.890392 0.824697
Si Si4 0.605614 0.612050 0.628498
Si Si5 0.608660 0.895901 0.086242
Si Si6 0.611256 0.707211 0.045865
O O1 0.666974 0.333027 0.250000
O O2 0.500000 0.294645 0.220106
O O3 0.639467 0.173905 0.207549
O O4 0.644651 0.334072 0.168644
O O5 0.870529 0.129472 0.250000
O O6 0.809457 0.145376 0.174699
O O7 0.000000 0.158535 0.190277
O O8 0.912145 0.000000 0.194214
O O9 0.333214 0.876127 0.871939
O O10 0.309017 0.000000 0.810078
O O11 0.606719 0.500000 0.625942
O O12 0.500000 0.651183 0.633674
O O13 0.647941 0.654603 0.584794
O O14 0.500000 0.886074 0.099744
O O15 0.635414 0.818098 0.051606
O O16 0.629991 0.000000 0.067600
O O17 0.500000 0.691659 0.045248
O O18 0.652823 0.675991 0.000000
#
# Coordination Sequence:
#
# PCOD8315718 Si02
#       6
#    16  16  16  16  16  16
#     4  11  21  32  45  62  84 115 154 186 215 255
#     4   8  14  25  40  59  84 110 136 169 208 251
#     4  10  18  28  45  65  86 115 146 178 219 262
#     4   9  17  29  42  56  78 108 143 183 218 251
#     4   9  16  26  39  57  84 115 143 172 208 253
#     4   9  16  26  40  58  80 108 142 178 217 259
#
# _framework density 15.063699
#
# number of rings (size 3 to 8) (size 9 to 14) (size 15 to 20)
#    0.000    2.667    1.667    2.000    0.000    2.500 
#    0.000    3.333    0.000    0.000    0.000    0.000 
#    0.000    0.667    0.000    6.500    0.000    2.667 
#
# Total GULP energy -1189408.916999 kJ/mol
# GULP energy per Si atom -12389.676219 kJ/mol
# Density = 1.502941 g / cm^3
# Si number density = 15.063699 Si / 1000 Ang^3
#
#
#
# Elastic Constant Matrix: (Units=GPa)
#
#
# Indices 1 2 3 4 5 6 
#
# 1 58.7667 17.6793 33.6743 0.0000 0.0000 0.0000
# 2 17.6793 58.7666 33.6742 0.0000 0.0000 0.0000
# 3 33.6743 33.6742 94.0206 0.0000 0.0000 0.0000
# 4 0.0000 0.0000 0.0000 12.8180 0.0000 0.0000
# 5 0.0000 0.0000 0.0000 0.0000 12.8179 0.0000
# 6 0.0000 0.0000 0.0000 0.0000 0.0000 12.4014
#
#
#
# Elastic Compliance Matrix: (Units=1/GPa)
#
#
# Indices 1 2 3 4 5 6 
#
# 1 0.021725 -0.002613 -0.006845 0.000000 0.000000 0.000000
# 2 -0.002613 0.021725 -0.006845 0.000000 0.000000 0.000000
# 3 -0.006845 -0.006845 0.015539 0.000000 0.000000 0.000000
# 4 0.000000 0.000000 0.000000 0.078015 0.000000 0.000000
# 5 0.000000 0.000000 0.000000 0.000000 0.078016 0.000000
# 6 0.000000 0.000000 0.000000 0.000000 0.000000 0.080636
#
#
# Mechanical properties :
#
#
# Convention : Reuss Voigt Hill
#
# Bulk Modulus (GPa) = 37.90412 42.40104 40.15258
# Shear Modulus (GPa) = 14.83430 16.04255 15.43842
#
# Velocity S-wave (km/s) = 3.14151 3.26694 3.20484
# Velocity P-wave (km/s) = 6.19483 6.51456 6.35671
#
# Compressibility (1/GPa) = 0.02638236
#
# Stress axis : x y z
#
# Youngs Moduli (GPa) = 46.03009 46.02997 64.35372
#
# Poissons Ratio (x) = 0.12030 0.44050
# Poissons Ratio (y) = 0.12030 0.44050
# Poissons Ratio (z) = 0.31507 0.31507
#
# Static dielectric constant tensor:
#      x y z
#    x 2.777090 0.000000 0.000000 
#    y 0.000000 2.777100 0.000000 
#    z 0.000000 0.000000 2.952760 
# 
# 
# High freq. dielectric constant tensor:
#      x y z
#    x 1.555300 0.000000 0.000000 
#    y 0.000000 1.555300 0.000000 
#    z 0.000000 0.000000 1.566270 
# 
# From -- ./inp_files/13694.got.cif
#   From: 2010.03.12/outbox.cif.g09.slc.cpg/sg131_7_cif.got.tgz:13694.got - 2010.04.06 17:36:35.
