data_PCOD8315133
_publ_section_title
;
Structure prediction by ZEFSAII (Michael W. Deem and Ramdas Pophale) SiO2 
 PCOD8315133
Probable space group: P 4/N M M
;
_chemical_formula_sum "Si O2"
_cell_formula_units_Z 80
_cell_length_a 12.542890
_cell_length_b 12.542890
_cell_length_c 29.087851
_cell_angle_alpha 90.000000
_cell_angle_beta 90.000000
_cell_angle_gamma 90.000000
_cell_volume 4576.219676
_symmetry_space_group_name_H-M "P 4/N M M"
_symmetry_group_IT_number 129
_symmetry_cell_setting 'tetragonal'
loop_
_space_group_symop_operation_xyz
x,y,z
1/2-y,x,z
1/2-x,1/2-y,z
y,1/2-x,z
1/2+x,-y,-z
-x,1/2+y,-z
1/2+y,1/2+x,-z
-y,-x,-z
-x,-y,-z
1/2+y,-x,-z
1/2+x,1/2+y,-z
-y,1/2+x,-z
1/2-x,y,z
x,1/2-y,z
1/2-y,1/2-x,z
y,x,z
loop_
_atom_site_type_symbol
_atom_site_label
_atom_site_fract_x
_atom_site_fract_y
_atom_site_fract_z
Si Si1 0.367566 0.623850 0.049418
Si Si2 0.123594 0.750000 0.800249
Si Si3 0.123307 0.750000 0.696797
Si Si4 0.626873 0.454317 0.546428
Si Si5 0.124875 0.957874 0.854722
Si Si6 0.873051 0.453711 0.359633
O O1 0.250000 0.574167 0.058153
O O2 0.355712 0.750000 0.046535
O O3 0.443073 0.593823 0.091768
O O4 0.415455 0.584546 0.000000
O O5 0.250000 0.750000 0.799940
O O6 0.077725 0.750000 0.748562
O O7 0.084115 0.855269 0.826570
O O8 0.250000 0.750000 0.696081
O O9 0.082691 0.856063 0.671101
O O10 0.612896 0.387105 0.500000
O O11 0.750000 0.477816 0.555820
O O12 0.567940 0.567940 0.542758
O O13 0.577690 0.383797 0.587154
O O14 0.250000 0.978394 0.847335
O O15 0.061227 0.061227 0.836612
O O16 0.750000 0.480092 0.348778
O O17 0.942000 0.558001 0.347536
#
# Coordination Sequence:
#
# PCOD8315133 Si02
#       6
#    16   8   8  16  16  16
#     4   8  13  24  44  69  96 126 164 209 250 291
#     4   9  18  34  54  73  95 129 175 214 247 295
#     4   9  18  34  56  75  97 131 171 218 255 295
#     4  10  20  33  51  76 105 140 179 220 267 316
#     4  10  19  31  49  74 103 132 166 208 254 307
#     4  10  20  34  53  79 109 139 174 214 259 311
#
# _framework density 17.481677999999999
#
# number of rings (size 3 to 8) (size 9 to 14) (size 15 to 20)
#    0.000    2.600    2.000    1.200    0.000    2.800 
#    0.000    0.000    0.000    4.200    0.000    7.000 
#    0.000    0.000    0.000    0.000    0.000    0.000 
#
# Total GULP energy -991673.417858 kJ/mol
# GULP energy per Si atom -12395.917723 kJ/mol
# Density = 1.744189 g / cm^3
# Si number density = 17.481678 Si / 1000 Ang^3
#
#
#
# Elastic Constant Matrix: (Units=GPa)
#
#
# Indices 1 2 3 4 5 6 
#
# 1 89.0388 56.0405 31.7867 0.0000 0.0000 0.0000
# 2 56.0405 89.0393 31.7867 0.0000 0.0000 0.0000
# 3 31.7867 31.7867 113.9255 0.0000 0.0000 0.0000
# 4 0.0000 0.0000 0.0000 10.8729 0.0000 0.0000
# 5 0.0000 0.0000 0.0000 0.0000 10.8729 0.0000
# 6 0.0000 0.0000 0.0000 0.0000 0.0000 20.7692
#
#
#
# Elastic Compliance Matrix: (Units=1/GPa)
#
#
# Indices 1 2 3 4 5 6 
#
# 1 0.019079 -0.011226 -0.002191 0.000000 0.000000 0.000000
# 2 -0.011226 0.019079 -0.002191 0.000000 0.000000 0.000000
# 3 -0.002191 -0.002191 0.010000 0.000000 0.000000 0.000000
# 4 0.000000 0.000000 0.000000 0.091972 0.000000 0.000000
# 5 0.000000 0.000000 0.000000 0.000000 0.091972 0.000000
# 6 0.000000 0.000000 0.000000 0.000000 0.000000 0.048148
#
#
# Mechanical properties :
#
#
# Convention : Reuss Voigt Hill
#
# Bulk Modulus (GPa) = 59.02534 59.02571 59.02553
# Shear Modulus (GPa) = 15.76727 19.99564 17.88145
#
# Velocity S-wave (km/s) = 3.00647 3.38569 3.20170
# Velocity P-wave (km/s) = 6.77416 7.00867 6.89241
#
# Compressibility (1/GPa) = 0.01694187
#
# Stress axis : x y z
#
# Youngs Moduli (GPa) = 52.41459 52.41486 99.99670
#
# Poissons Ratio (x) = 0.58839 0.21910
# Poissons Ratio (y) = 0.58839 0.21910
# Poissons Ratio (z) = 0.11484 0.11484
#
# Static dielectric constant tensor:
#      x y z
#    x 3.004870 0.000000 0.000000 
#    y 0.000000 3.004870 0.000000 
#    z 0.000000 0.000000 3.572990 
# 
# 
# High freq. dielectric constant tensor:
#      x y z
#    x 1.651990 0.000000 0.000000 
#    y 0.000000 1.651990 0.000000 
#    z 0.000000 0.000000 1.687070 
# 
# From -- ./inp_files/7727.got.cif
#   From: 2010.03.12/outbox.cif.g09.slc.cpg/sg129_4_cif.got.tgz:7727.got - 2010.04.06 17:19:44.
