data_PCOD8315110
_publ_section_title
;
Structure prediction by ZEFSAII (Michael W. Deem and Ramdas Pophale) SiO2 
 PCOD8315110
Probable space group: P 4/N M M
;
_chemical_formula_sum "Si O2"
_cell_formula_units_Z 112
_cell_length_a 19.901250
_cell_length_b 19.901250
_cell_length_c 17.358577
_cell_angle_alpha 90.000000
_cell_angle_beta 90.000000
_cell_angle_gamma 90.000000
_cell_volume 6875.033694
_symmetry_space_group_name_H-M "P 4/N M M"
_symmetry_group_IT_number 129
_symmetry_cell_setting 'tetragonal'
loop_
_space_group_symop_operation_xyz
x,y,z
1/2-y,x,z
1/2-x,1/2-y,z
y,1/2-x,z
1/2+x,-y,-z
-x,1/2+y,-z
1/2+y,1/2+x,-z
-y,-x,-z
-x,-y,-z
1/2+y,-x,-z
1/2+x,1/2+y,-z
-y,1/2+x,-z
1/2-x,y,z
x,1/2-y,z
1/2-y,1/2-x,z
y,x,z
loop_
_atom_site_type_symbol
_atom_site_label
_atom_site_fract_x
_atom_site_fract_y
_atom_site_fract_z
Si Si1 0.492847 0.898394 0.543322
Si Si2 0.674342 0.070664 0.126282
Si Si3 0.328280 0.928033 0.316073
Si Si4 0.608445 0.504038 0.995512
Si Si5 0.329170 0.062323 0.593318
Si Si6 0.942912 0.326521 0.700288
Si Si7 0.940705 0.172829 0.141508
O O1 0.425364 0.925364 0.500000
O O2 0.478599 0.856068 0.620075
O O3 0.534571 0.847162 0.490724
O O4 0.537149 0.962851 0.566834
O O5 0.750000 0.096598 0.115263
O O6 0.663794 0.038505 0.210383
O O7 0.627454 0.135406 0.116478
O O8 0.659578 0.012112 0.064675
O O9 0.250000 0.910566 0.331053
O O10 0.372504 0.860885 0.321552
O O11 0.338150 0.960413 0.231038
O O12 0.579310 0.579310 0.004905
O O13 0.645223 0.500430 0.912502
O O14 0.547958 0.452043 0.000000
O O15 0.250000 0.076877 0.600305
O O16 0.368578 0.131422 0.610427
O O17 0.355555 0.006241 0.653548
O O18 0.931822 0.250000 0.676487
O O19 0.927184 0.250000 0.123403
#
# Coordination Sequence:
#
# PCOD8315110 Si02
#       7
#    16  16  16  16  16  16  16
#     4  10  19  32  50  71  93 122 162 202 242 289
#     4   9  17  29  46  67  92 123 157 192 229 274
#     4  10  19  31  48  69  95 126 159 198 240 284
#     4   9  17  29  43  62  89 119 151 189 231 272
#     4  10  20  34  52  72  96 125 159 203 249 293
#     4   9  18  31  46  67  95 127 161 194 233 283
#     4   9  18  30  45  67  94 124 155 189 233 283
#
# _framework density 16.29083
#
# number of rings (size 3 to 8) (size 9 to 14) (size 15 to 20)
#    0.000    2.571    1.429    0.857    0.000    1.857 
#    0.000    5.714    0.000    2.571    0.000    0.000 
#    0.000    4.571    0.000   10.571    0.000    0.857 
#
# Total GULP energy -1388454.729772 kJ/mol
# GULP energy per Si atom -12396.917230 kJ/mol
# Density = 1.625375 g / cm^3
# Si number density = 16.290830 Si / 1000 Ang^3
#
#
#
# Elastic Constant Matrix: (Units=GPa)
#
#
# Indices 1 2 3 4 5 6 
#
# 1 81.6517 46.4369 49.9120 0.0000 0.0000 0.0000
# 2 46.4369 81.6513 49.9119 0.0000 0.0000 0.0000
# 3 49.9120 49.9119 105.3148 0.0000 0.0000 0.0000
# 4 0.0000 0.0000 0.0000 23.9258 0.0000 0.0000
# 5 0.0000 0.0000 0.0000 0.0000 23.9260 0.0000
# 6 0.0000 0.0000 0.0000 0.0000 0.0000 22.4750
#
#
#
# Elastic Compliance Matrix: (Units=1/GPa)
#
#
# Indices 1 2 3 4 5 6 
#
# 1 0.020388 -0.008009 -0.005867 0.000000 0.000000 0.000000
# 2 -0.008009 0.020388 -0.005867 0.000000 0.000000 0.000000
# 3 -0.005867 -0.005867 0.015056 0.000000 0.000000 0.000000
# 4 0.000000 0.000000 0.000000 0.041796 0.000000 0.000000
# 5 0.000000 0.000000 0.000000 0.000000 0.041796 0.000000
# 6 0.000000 0.000000 0.000000 0.000000 0.000000 0.044494
#
#
# Mechanical properties :
#
#
# Convention : Reuss Voigt Hill
#
# Bulk Modulus (GPa) = 61.17194 62.34879 61.76037
# Shear Modulus (GPa) = 21.84803 22.22250 22.03527
#
# Velocity S-wave (km/s) = 3.66611 3.69739 3.68179
# Velocity P-wave (km/s) = 7.45332 7.52217 7.48782
#
# Compressibility (1/GPa) = 0.01634736
#
# Stress axis : x y z
#
# Youngs Moduli (GPa) = 49.04763 49.04736 66.41667
#
# Poissons Ratio (x) = 0.39282 0.38967
# Poissons Ratio (y) = 0.39282 0.38967
# Poissons Ratio (z) = 0.28776 0.28776
#
# Static dielectric constant tensor:
#      x y z
#    x 2.996390 0.000000 0.000000 
#    y 0.000000 2.996390 0.000000 
#    z 0.000000 0.000000 3.261110 
# 
# 
# High freq. dielectric constant tensor:
#      x y z
#    x 1.608990 0.000000 0.000000 
#    y 0.000000 1.608990 0.000000 
#    z 0.000000 0.000000 1.640220 
# 
# From -- ./inp_files/5982.got.cif
#   From: 2010.03.12/outbox.cif.g09.slc.cpg/sg129_3_cif.got.tgz:5982.got - 2010.04.06 17:19:44.
