data_PCOD8315316
_publ_section_title
;
Structure prediction by ZEFSAII (Michael W. Deem and Ramdas Pophale) SiO2 
 PCOD8315316
Probable space group: P 4/N M M
;
_chemical_formula_sum "Si O2"
_cell_formula_units_Z 88
_cell_length_a 13.248898
_cell_length_b 13.248898
_cell_length_c 28.299747
_cell_angle_alpha 90.000000
_cell_angle_beta 90.000000
_cell_angle_gamma 90.000000
_cell_volume 4967.547930
_symmetry_space_group_name_H-M "P 4/N M M"
_symmetry_group_IT_number 129
_symmetry_cell_setting 'tetragonal'
loop_
_space_group_symop_operation_xyz
x,y,z
1/2-y,x,z
1/2-x,1/2-y,z
y,1/2-x,z
1/2+x,-y,-z
-x,1/2+y,-z
1/2+y,1/2+x,-z
-y,-x,-z
-x,-y,-z
1/2+y,-x,-z
1/2+x,1/2+y,-z
-y,1/2+x,-z
1/2-x,y,z
x,1/2-y,z
1/2-y,1/2-x,z
y,x,z
loop_
_atom_site_type_symbol
_atom_site_label
_atom_site_fract_x
_atom_site_fract_y
_atom_site_fract_z
Si Si1 0.867548 0.470572 0.096195
Si Si2 0.369577 0.862412 0.273566
Si Si3 0.632610 0.469939 0.821115
Si Si4 0.633615 0.366385 0.000000
Si Si5 0.466336 0.867699 0.455464
Si Si6 0.368750 0.969001 0.369267
O O1 0.750000 0.494707 0.097808
O O2 0.893930 0.387160 0.135571
O O3 0.901544 0.429622 0.045223
O O4 0.926053 0.573948 0.107095
O O5 0.250000 0.854203 0.272504
O O6 0.416758 0.750000 0.275245
O O7 0.408227 0.918445 0.226720
O O8 0.404637 0.924260 0.319287
O O9 0.750000 0.495901 0.817928
O O10 0.574802 0.574802 0.829381
O O11 0.750000 0.386154 0.988213
O O12 0.399592 0.899592 0.500000
O O13 0.492924 0.750000 0.458412
O O14 0.399854 0.888885 0.409079
O O15 0.571552 0.928449 0.454210
O O16 0.250000 0.990181 0.371074
O O17 0.424651 0.075350 0.378005
#
# Coordination Sequence:
#
# PCOD8315316 Si02
#       6
#    16  16  16   8  16  16
#     4  10  20  33  50  72  98 129 165 204 245 290
#     4   9  17  30  49  71  95 126 164 204 244 286
#     4  10  20  33  50  73 100 130 165 204 247 297
#     4   9  17  30  50  74  97 123 158 200 245 293
#     4  10  21  36  54  77 103 132 168 208 251 301
#     4  10  20  33  50  74 103 135 172 211 252 299
#
# _framework density 17.714977999999999
#
# number of rings (size 3 to 8) (size 9 to 14) (size 15 to 20)
#    0.000    2.273    0.000    3.000    0.000    4.545 
#    0.000    0.000    0.000    6.545    0.000    2.545 
#    0.000   13.091    0.000    0.000    0.000    0.000 
#
# Total GULP energy -1091405.816277 kJ/mol
# GULP energy per Si atom -12402.338821 kJ/mol
# Density = 1.767466 g / cm^3
# Si number density = 17.714978 Si / 1000 Ang^3
#
#
#
# Elastic Constant Matrix: (Units=GPa)
#
#
# Indices 1 2 3 4 5 6 
#
# 1 92.4220 39.4301 39.7764 0.0000 0.0000 0.0000
# 2 39.4301 92.4220 39.7764 0.0000 0.0000 0.0000
# 3 39.7764 39.7764 134.3930 0.0000 0.0000 0.0000
# 4 0.0000 0.0000 0.0000 27.2275 0.0000 0.0000
# 5 0.0000 0.0000 0.0000 0.0000 27.2275 0.0000
# 6 0.0000 0.0000 0.0000 0.0000 0.0000 15.5298
#
#
#
# Elastic Compliance Matrix: (Units=1/GPa)
#
#
# Indices 1 2 3 4 5 6 
#
# 1 0.014052 -0.004819 -0.002733 0.000000 0.000000 0.000000
# 2 -0.004819 0.014052 -0.002733 0.000000 0.000000 0.000000
# 3 -0.002733 -0.002733 0.009058 0.000000 0.000000 0.000000
# 4 0.000000 0.000000 0.000000 0.036728 0.000000 0.000000
# 5 0.000000 0.000000 0.000000 0.000000 0.036728 0.000000
# 6 0.000000 0.000000 0.000000 0.000000 0.000000 0.064393
#
#
# Mechanical properties :
#
#
# Convention : Reuss Voigt Hill
#
# Bulk Modulus (GPa) = 60.26384 61.91142 61.08763
# Shear Modulus (GPa) = 24.86203 27.34721 26.10462
#
# Velocity S-wave (km/s) = 3.75032 3.93330 3.84290
# Velocity P-wave (km/s) = 7.26950 7.46005 7.36539
#
# Compressibility (1/GPa) = 0.01659370
#
# Stress axis : x y z
#
# Youngs Moduli (GPa) = 71.16464 71.16464 110.39401
#
# Poissons Ratio (x) = 0.34294 0.30167
# Poissons Ratio (y) = 0.34294 0.30167
# Poissons Ratio (z) = 0.19447 0.19447
#
# Static dielectric constant tensor:
#      x y z
#    x 3.095160 0.000000 0.000000 
#    y 0.000000 3.095160 0.000000 
#    z 0.000000 0.000000 3.549420 
# 
# 
# High freq. dielectric constant tensor:
#      x y z
#    x 1.674360 0.000000 0.000000 
#    y 0.000000 1.674360 0.000000 
#    z 0.000000 0.000000 1.706660 
# 
# From -- ./inp_files/7764.got.cif
#   From: 2010.03.12/outbox.cif.g09.slc.cpg/sg129_4_cif.got.tgz:7764.got - 2010.04.06 17:19:44.
