data_PCOD8315948
_publ_section_title
;
Structure prediction by ZEFSAII (Michael W. Deem and Ramdas Pophale) SiO2 
 PCOD8315948
Probable space group: P 42/M M C
;
_chemical_formula_sum "Si O2"
_cell_formula_units_Z 88
_cell_length_a 17.947577
_cell_length_b 17.947577
_cell_length_c 14.959084
_cell_angle_alpha 90.000000
_cell_angle_beta 90.000000
_cell_angle_gamma 90.000000
_cell_volume 4818.553124
_symmetry_space_group_name_H-M "P 42/M M C"
_symmetry_group_IT_number 131
_symmetry_cell_setting 'tetragonal'
loop_
_space_group_symop_operation_xyz
x,y,z
-x,-y,z
-y,x,1/2+z
y,-x,1/2+z
-x,y,-z
x,-y,-z
y,x,1/2-z
-y,-x,1/2-z
-x,-y,-z
x,y,-z
y,-x,1/2-z
-y,x,1/2-z
x,-y,z
-x,y,z
-y,-x,1/2+z
y,x,1/2+z
loop_
_atom_site_type_symbol
_atom_site_label
_atom_site_fract_x
_atom_site_fract_y
_atom_site_fract_z
Si Si1 0.797381 0.916388 0.747878
Si Si2 0.914469 0.316435 0.400256
Si Si3 0.913381 0.582776 0.142499
Si Si4 0.723344 0.838373 0.598739
Si Si5 0.717428 0.282573 0.250000
Si Si6 0.190535 0.583991 0.310437
O O1 0.874406 0.874406 0.750000
O O2 0.742945 0.886488 0.826240
O O3 0.761209 0.907867 0.649668
O O4 0.817974 0.000000 0.768406
O O5 0.910389 0.282108 0.500000
O O6 0.853356 0.383174 0.396273
O O7 0.000000 0.342350 0.380425
O O8 0.907551 0.500000 0.101038
O O9 0.864185 0.638063 0.081934
O O10 0.876352 0.585719 0.239467
O O11 0.000000 0.607254 0.149507
O O12 0.757484 0.821976 0.500000
O O13 0.735874 0.767825 0.663551
O O14 0.736200 0.367720 0.279974
O O15 0.219297 0.500000 0.328547
#
# Coordination Sequence:
#
# PCOD8315948 Si02
#       6
#    16  16  16  16   8  16
#     4  11  22  38  54  75 105 139 183 230 277 320
#     4  10  20  34  54  80 113 151 185 220 271 332
#     4   9  17  30  49  77 114 144 164 200 258 319
#     4  11  21  35  56  79 103 137 178 216 261 319
#     4  10  20  38  54  79 111 142 176 218 270 320
#     4  10  19  32  53  78 107 144 184 225 266 315
#
# _framework density 18.262744000000001
#
# number of rings (size 3 to 8) (size 9 to 14) (size 15 to 20)
#    0.000    1.818    4.545    1.091    0.000    6.364 
#    0.000    1.818    0.000    0.273    0.000    3.818 
#    0.000    0.000    0.000   10.727    0.000    0.000 
#
# Total GULP energy -1090167.451366 kJ/mol
# GULP energy per Si atom -12388.266493 kJ/mol
# Density = 1.822118 g / cm^3
# Si number density = 18.262744 Si / 1000 Ang^3
#
#
#
# Elastic Constant Matrix: (Units=GPa)
#
#
# Indices 1 2 3 4 5 6 
#
# 1 96.2801 58.2063 29.1269 0.0000 0.0000 0.0000
# 2 58.2063 96.2810 29.1270 0.0000 0.0000 0.0000
# 3 29.1269 29.1270 124.5029 0.0000 0.0000 0.0000
# 4 0.0000 0.0000 0.0000 10.3110 0.0000 0.0000
# 5 0.0000 0.0000 0.0000 0.0000 10.3111 0.0000
# 6 0.0000 0.0000 0.0000 0.0000 0.0000 29.7422
#
#
#
# Elastic Compliance Matrix: (Units=1/GPa)
#
#
# Indices 1 2 3 4 5 6 
#
# 1 0.016682 -0.009583 -0.001661 0.000000 0.000000 0.000000
# 2 -0.009583 0.016682 -0.001661 0.000000 0.000000 0.000000
# 3 -0.001661 -0.001661 0.008809 0.000000 0.000000 0.000000
# 4 0.000000 0.000000 0.000000 0.096984 0.000000 0.000000
# 5 0.000000 0.000000 0.000000 0.000000 0.096983 0.000000
# 6 0.000000 0.000000 0.000000 0.000000 0.000000 0.033622
#
#
# Mechanical properties :
#
#
# Convention : Reuss Voigt Hill
#
# Bulk Modulus (GPa) = 61.10880 61.10937 61.10908
# Shear Modulus (GPa) = 16.60989 23.44645 20.02817
#
# Velocity S-wave (km/s) = 3.01906 3.58696 3.31519
# Velocity P-wave (km/s) = 6.75918 7.11961 6.94174
#
# Compressibility (1/GPa) = 0.01636426
#
# Stress axis : x y z
#
# Youngs Moduli (GPa) = 59.94502 59.94559 113.51971
#
# Poissons Ratio (x) = 0.57443 0.18854
# Poissons Ratio (y) = 0.57443 0.18854
# Poissons Ratio (z) = 0.09956 0.09956
#
# Static dielectric constant tensor:
#      x y z
#    x 3.356090 0.000000 0.000000 
#    y 0.000000 3.356080 0.000000 
#    z 0.000000 0.000000 3.345920 
# 
# 
# High freq. dielectric constant tensor:
#      x y z
#    x 1.691120 0.000000 0.000000 
#    y 0.000000 1.691120 0.000000 
#    z 0.000000 0.000000 1.706500 
# 
# From -- ./inp_files/5912.got.cif
#   From: 2010.03.12/outbox.cif.g09.slc.cpg/sg131_3_cif.got.tgz:5912.got - 2010.04.06 17:36:35.
