data_PCOD8315641
_publ_section_title
;
Structure prediction by ZEFSAII (Michael W. Deem and Ramdas Pophale) SiO2 
 PCOD8315641
Probable space group: P 42/M M C
;
_chemical_formula_sum "Si O2"
_cell_formula_units_Z 112
_cell_length_a 27.946818
_cell_length_b 27.946818
_cell_length_c 9.124455
_cell_angle_alpha 90.000000
_cell_angle_beta 90.000000
_cell_angle_gamma 90.000000
_cell_volume 7126.424148
_symmetry_space_group_name_H-M "P 42/M M C"
_symmetry_group_IT_number 131
_symmetry_cell_setting 'tetragonal'
loop_
_space_group_symop_operation_xyz
x,y,z
-x,-y,z
-y,x,1/2+z
y,-x,1/2+z
-x,y,-z
x,-y,-z
y,x,1/2-z
-y,-x,1/2-z
-x,-y,-z
x,y,-z
y,-x,1/2-z
-y,x,1/2-z
x,-y,z
-x,y,z
-y,-x,1/2+z
y,x,1/2+z
loop_
_atom_site_type_symbol
_atom_site_label
_atom_site_fract_x
_atom_site_fract_y
_atom_site_fract_z
Si Si1 0.687752 0.874800 0.327638
Si Si2 0.232026 0.946937 0.325784
Si Si3 0.500000 0.230217 0.170690
Si Si4 0.125337 0.945110 0.329673
Si Si5 0.406711 0.874091 0.165816
Si Si6 0.764001 0.694212 0.170740
Si Si7 0.500000 0.868527 0.674050
Si Si8 0.397966 0.760399 0.838206
O O1 0.679189 0.881145 0.500000
O O2 0.731254 0.907084 0.267476
O O3 0.640752 0.893505 0.244924
O O4 0.699443 0.819787 0.289490
O O5 0.231290 0.947098 0.500000
O O6 0.178775 0.934333 0.269174
O O7 0.247074 0.000000 0.269893
O O8 0.500000 0.187320 0.286560
O O9 0.451165 0.261310 0.197272
O O10 0.500000 0.211313 0.000000
O O11 0.087823 0.912178 0.250000
O O12 0.122700 0.933296 0.500000
O O13 0.111806 0.000000 0.298688
O O14 0.452804 0.892969 0.255698
O O15 0.405765 0.816995 0.167702
O O16 0.408775 0.893776 0.000000
O O17 0.737177 0.737177 0.250000
O O18 0.743940 0.642580 0.224263
O O19 0.754009 0.698048 0.000000
O O20 0.500000 0.875578 0.500000
O O21 0.380824 0.744385 0.000000
#
# Coordination Sequence:
#
# PCOD8315641 Si02
#       8
#    16  16   8  16  16  16   8  16
#     4   9  17  29  45  64  82 104 140 178 208 247
#     4   8  15  30  50  68  87 111 138 171 211 253
#     4   8  14  24  38  56  78 105 135 171 217 260
#     4   9  18  32  49  69  92 117 143 171 207 251
#     4   9  16  26  39  57  83 111 136 167 211 255
#     4  10  19  28  38  55  81 111 142 175 208 244
#     4  10  16  22  36  58  83 109 138 172 207 246
#     4   8  14  25  39  54  75 104 137 170 205 247
#
# _framework density 15.716158
#
# number of rings (size 3 to 8) (size 9 to 14) (size 15 to 20)
#    0.000    3.143    0.000    3.214    0.000    5.000 
#    0.000    1.429    0.000    1.286    0.000    0.500 
#    0.000    4.000    0.000    0.000    0.000    0.357 
#
# Total GULP energy -1387965.518320 kJ/mol
# GULP energy per Si atom -12392.549271 kJ/mol
# Density = 1.568039 g / cm^3
# Si number density = 15.716158 Si / 1000 Ang^3
#
#
#
# Elastic Constant Matrix: (Units=GPa)
#
#
# Indices 1 2 3 4 5 6 
#
# 1 157.5472 -7.1101 47.7250 0.0000 0.0000 0.0000
# 2 -7.1101 157.8356 47.6025 0.0000 0.0000 0.0000
# 3 47.7250 47.6025 77.6587 0.0000 0.0000 0.0000
# 4 0.0000 0.0000 0.0000 19.9744 0.0000 0.0000
# 5 0.0000 0.0000 0.0000 0.0000 19.9745 0.0000
# 6 0.0000 0.0000 0.0000 0.0000 0.0000 1.1307
#
#
#
# Elastic Compliance Matrix: (Units=1/GPa)
#
#
# Indices 1 2 3 4 5 6 
#
# 1 0.008479 0.002397 -0.006680 0.000000 0.000000 0.000000
# 2 0.002397 0.008450 -0.006652 0.000000 0.000000 0.000000
# 3 -0.006680 -0.006652 0.021060 0.000000 0.000000 0.000000
# 4 0.000000 0.000000 0.000000 0.050064 0.000000 0.000000
# 5 0.000000 0.000000 0.000000 0.000000 0.050064 0.000000
# 6 0.000000 0.000000 0.000000 0.000000 0.000000 0.884414
#
#
# Mechanical properties :
#
#
# Convention : Reuss Voigt Hill
#
# Bulk Modulus (GPa) = 62.04488 63.27514 62.66001
# Shear Modulus (GPa) = 4.76293 28.53753 16.65023
#
# Velocity S-wave (km/s) = 1.74275 4.26585 3.25843
# Velocity P-wave (km/s) = 6.60406 8.03816 7.35614
#
# Compressibility (1/GPa) = 0.01611737
#
# Stress axis : x y z
#
# Youngs Moduli (GPa) = 117.93986 118.34350 47.48447
#
# Poissons Ratio (x) = -0.28361 0.31718
# Poissons Ratio (y) = -0.28264 0.31588
# Poissons Ratio (z) = 0.78780 0.78726
#
# Static dielectric constant tensor:
#      x y z
#    x 3.062500 0.000000 0.000000 
#    y 0.000000 3.062450 0.000000 
#    z 0.000000 0.000000 2.930210 
# 
# 
# High freq. dielectric constant tensor:
#      x y z
#    x 1.581220 0.000000 0.000000 
#    y 0.000000 1.581220 0.000000 
#    z 0.000000 0.000000 1.597560 
# 
# From -- ./inp_files/2781.got.cif
#   From: 2010.03.12/outbox.cif.g09.slc.cpg/sg131_2_cif.got.tgz:2781.got - 2010.04.06 17:36:35.
