data_PCOD8315057
_publ_section_title
;
Structure prediction by ZEFSAII (Michael W. Deem and Ramdas Pophale) SiO2 
 PCOD8315057
Probable space group: P 4/N M M
;
_chemical_formula_sum "Si O2"
_cell_formula_units_Z 128
_cell_length_a 17.898343
_cell_length_b 17.898343
_cell_length_c 23.028622
_cell_angle_alpha 90.000000
_cell_angle_beta 90.000000
_cell_angle_gamma 90.000000
_cell_volume 7377.234767
_symmetry_space_group_name_H-M "P 4/N M M"
_symmetry_group_IT_number 129
_symmetry_cell_setting 'tetragonal'
loop_
_space_group_symop_operation_xyz
x,y,z
1/2-y,x,z
1/2-x,1/2-y,z
y,1/2-x,z
1/2+x,-y,-z
-x,1/2+y,-z
1/2+y,1/2+x,-z
-y,-x,-z
-x,-y,-z
1/2+y,-x,-z
1/2+x,1/2+y,-z
-y,1/2+x,-z
1/2-x,y,z
x,1/2-y,z
1/2-y,1/2-x,z
y,x,z
loop_
_atom_site_type_symbol
_atom_site_label
_atom_site_fract_x
_atom_site_fract_y
_atom_site_fract_z
Si Si1 0.047005 0.165563 0.791972
Si Si2 0.162375 0.949608 0.254085
Si Si3 0.835116 0.164402 0.068575
Si Si4 0.165488 0.454817 0.590997
Si Si5 0.453107 0.166675 0.361803
Si Si6 0.666488 0.437753 0.312812
Si Si7 0.491235 0.612577 0.526205
Si Si8 0.559425 0.438158 0.143349
O O1 0.056879 0.250000 0.814083
O O2 0.128317 0.128317 0.787356
O O3 0.008245 0.161450 0.729815
O O4 0.996766 0.121847 0.838065
O O5 0.250000 0.939362 0.239954
O O6 0.133096 0.877225 0.288094
O O7 0.116359 0.965339 0.195705
O O8 0.146789 0.017281 0.297996
O O9 0.750000 0.141129 0.087840
O O10 0.849165 0.250000 0.088578
O O11 0.900730 0.112244 0.094364
O O12 0.842027 0.157974 0.000000
O O13 0.250000 0.436517 0.610167
O O14 0.114721 0.385280 0.609325
O O15 0.137012 0.529390 0.625501
O O16 0.163035 0.467893 0.522031
O O17 0.423313 0.250000 0.362146
O O18 0.382753 0.117248 0.378021
O O19 0.515633 0.156718 0.412707
O O20 0.750000 0.407478 0.319279
O O21 0.410389 0.589612 0.500000
O O22 0.536793 0.536793 0.539179
O O23 0.485111 0.485111 0.122395
#
# Coordination Sequence:
#
# PCOD8315057 Si02
#       8
#    16  16  16  16  16  16  16  16
#     4   9  17  28  42  62  89 123 161 198 237 282
#     4  10  20  33  50  71  94 123 159 199 243 289
#     4   9  18  33  53  77 106 139 172 206 245 289
#     4  10  19  30  45  65  90 121 157 197 243 298
#     4  10  20  33  48  67  91 118 152 193 235 281
#     4   9  18  31  45  64  90 118 151 193 241 292
#     4   9  17  29  46  65  83 109 147 189 236 289
#     4  10  19  31  49  73 102 133 165 202 245 293
#
# _framework density 17.350674000000001
#
# number of rings (size 3 to 8) (size 9 to 14) (size 15 to 20)
#    0.000    2.500    0.000    3.000    0.000    3.875 
#    0.000    0.000    0.000    4.500    0.000    0.000 
#    0.000   11.250    0.000    9.250    0.000    0.250 
#
# Total GULP energy -1586237.149847 kJ/mol
# GULP energy per Si atom -12392.477733 kJ/mol
# Density = 1.731118 g / cm^3
# Si number density = 17.350674 Si / 1000 Ang^3
#
#
#
# Elastic Constant Matrix: (Units=GPa)
#
#
# Indices 1 2 3 4 5 6 
#
# 1 83.9213 53.4874 29.9713 0.0000 0.0000 0.0000
# 2 53.4874 83.9207 29.9711 0.0000 0.0000 0.0000
# 3 29.9713 29.9711 66.2901 0.0000 0.0000 0.0000
# 4 0.0000 0.0000 0.0000 21.9164 0.0000 0.0000
# 5 0.0000 0.0000 0.0000 0.0000 21.9168 0.0000
# 6 0.0000 0.0000 0.0000 0.0000 0.0000 25.0308
#
#
#
# Elastic Compliance Matrix: (Units=1/GPa)
#
#
# Indices 1 2 3 4 5 6 
#
# 1 0.020962 -0.011896 -0.004099 0.000000 0.000000 0.000000
# 2 -0.011896 0.020962 -0.004099 0.000000 0.000000 0.000000
# 3 -0.004099 -0.004099 0.018791 0.000000 0.000000 0.000000
# 4 0.000000 0.000000 0.000000 0.045628 0.000000 0.000000
# 5 0.000000 0.000000 0.000000 0.000000 0.045627 0.000000
# 6 0.000000 0.000000 0.000000 0.000000 0.000000 0.039951
#
#
# Mechanical properties :
#
#
# Convention : Reuss Voigt Hill
#
# Bulk Modulus (GPa) = 48.71476 51.22129 49.96803
# Shear Modulus (GPa) = 20.92473 21.81962 21.37217
#
# Velocity S-wave (km/s) = 3.47650 3.55006 3.51348
# Velocity P-wave (km/s) = 6.65224 6.81097 6.73207
#
# Compressibility (1/GPa) = 0.02052766
#
# Stress axis : x y z
#
# Youngs Moduli (GPa) = 47.70554 47.70530 53.21563
#
# Poissons Ratio (x) = 0.56752 0.21812
# Poissons Ratio (y) = 0.56752 0.21812
# Poissons Ratio (z) = 0.19553 0.19553
#
# Static dielectric constant tensor:
#      x y z
#    x 3.198710 0.000000 0.000000 
#    y 0.000000 3.198720 0.000000 
#    z 0.000000 0.000000 3.151290 
# 
# 
# High freq. dielectric constant tensor:
#      x y z
#    x 1.660330 0.000000 0.000000 
#    y 0.000000 1.660330 0.000000 
#    z 0.000000 0.000000 1.661290 
# 
# From -- ./inp_files/7356.got.cif
#   From: 2010.03.12/outbox.cif.g09.slc.cpg/sg129_4_cif.got.tgz:7356.got - 2010.04.06 17:19:44.
