data_PCOD8315380
_publ_section_title
;
Structure prediction by ZEFSAII (Michael W. Deem and Ramdas Pophale) SiO2 
 PCOD8315380
Probable space group: P 4/N M M
;
_chemical_formula_sum "Si O2"
_cell_formula_units_Z 64
_cell_length_a 19.110853
_cell_length_b 19.110853
_cell_length_c 9.828452
_cell_angle_alpha 90.000000
_cell_angle_beta 90.000000
_cell_angle_gamma 90.000000
_cell_volume 3589.593457
_symmetry_space_group_name_H-M "P 4/N M M"
_symmetry_group_IT_number 129
_symmetry_cell_setting 'tetragonal'
loop_
_space_group_symop_operation_xyz
x,y,z
1/2-y,x,z
1/2-x,1/2-y,z
y,1/2-x,z
1/2+x,-y,-z
-x,1/2+y,-z
1/2+y,1/2+x,-z
-y,-x,-z
-x,-y,-z
1/2+y,-x,-z
1/2+x,1/2+y,-z
-y,1/2+x,-z
1/2-x,y,z
x,1/2-y,z
1/2-y,1/2-x,z
y,x,z
loop_
_atom_site_type_symbol
_atom_site_label
_atom_site_fract_x
_atom_site_fract_y
_atom_site_fract_z
Si Si1 0.445034 0.330341 0.752085
Si Si2 0.122549 0.828533 0.854539
Si Si3 0.610689 0.504041 0.965859
Si Si4 0.829461 0.084686 0.393381
O O1 0.420181 0.250000 0.750435
O O2 0.378778 0.378778 0.719234
O O3 0.502753 0.343819 0.634460
O O4 0.477455 0.346326 0.899369
O O5 0.136788 0.750000 0.808921
O O6 0.162174 0.876981 0.749298
O O7 0.037540 0.840638 0.858343
O O8 0.156363 0.843638 0.000000
O O9 0.575041 0.575041 0.904629
O O10 0.549033 0.450968 0.000000
O O11 0.885430 0.114571 0.500000
O O12 0.750000 0.095974 0.447018
#
# Coordination Sequence:
#
# PCOD8315380 Si02
#       4
#    16  16  16  16
#     4  10  20  36  57  81 109 140 177 224 273 322
#     4  11  20  31  50  75 102 136 182 222 259 309
#     4   9  16  29  51  76 103 133 168 213 265 310
#     4  11  23  37  51  73 109 149 182 220 270 320
#
# _framework density 17.829317
#
# number of rings (size 3 to 8) (size 9 to 14) (size 15 to 20)
#    0.000    1.750    5.000    2.250    0.000    3.750 
#    0.000    0.000    0.000    0.000    0.000    0.000 
#    0.000    0.000    0.000    8.250    0.000    0.000 
#
# Total GULP energy -793128.285924 kJ/mol
# GULP energy per Si atom -12392.629468 kJ/mol
# Density = 1.778874 g / cm^3
# Si number density = 17.829317 Si / 1000 Ang^3
#
#
#
# Elastic Constant Matrix: (Units=GPa)
#
#
# Indices 1 2 3 4 5 6 
#
# 1 110.1558 62.6245 24.2053 0.0000 0.0000 0.0000
# 2 62.6245 110.1579 24.2078 0.0000 0.0000 0.0000
# 3 24.2053 24.2078 42.4334 0.0000 0.0000 0.0000
# 4 0.0000 0.0000 0.0000 26.5294 0.0000 0.0000
# 5 0.0000 0.0000 0.0000 0.0000 26.5280 0.0000
# 6 0.0000 0.0000 0.0000 0.0000 0.0000 22.6972
#
#
#
# Elastic Compliance Matrix: (Units=1/GPa)
#
#
# Indices 1 2 3 4 5 6 
#
# 1 0.013963 -0.007075 -0.003929 0.000000 0.000000 0.000000
# 2 -0.007075 0.013964 -0.003930 0.000000 0.000000 0.000000
# 3 -0.003929 -0.003930 0.028050 0.000000 0.000000 0.000000
# 4 0.000000 0.000000 0.000000 0.037694 0.000000 0.000000
# 5 0.000000 0.000000 0.000000 0.000000 0.037696 0.000000
# 6 0.000000 0.000000 0.000000 0.000000 0.000000 0.044058
#
#
# Mechanical properties :
#
#
# Convention : Reuss Voigt Hill
#
# Bulk Modulus (GPa) = 38.30194 53.86916 46.08555
# Shear Modulus (GPa) = 23.36484 25.26488 24.31486
#
# Velocity S-wave (km/s) = 3.62397 3.76844 3.69691
# Velocity P-wave (km/s) = 6.24821 7.01529 6.64283
#
# Compressibility (1/GPa) = 0.02610834
#
# Stress axis : x y z
#
# Youngs Moduli (GPa) = 71.61530 71.61476 35.65080
#
# Poissons Ratio (x) = 0.50666 0.14008
# Poissons Ratio (y) = 0.50666 0.14012
# Poissons Ratio (z) = 0.28139 0.28148
#
# Static dielectric constant tensor:
#      x y z
#    x 3.703750 0.000000 0.000000 
#    y 0.000000 3.703730 0.000000 
#    z 0.000000 0.000000 3.053640 
# 
# 
# High freq. dielectric constant tensor:
#      x y z
#    x 1.691320 0.000000 0.000000 
#    y 0.000000 1.691320 0.000000 
#    z 0.000000 0.000000 1.655430 
# 
# From -- ./inp_files/2091.got.cif
#   From: 2010.03.12/outbox.cif.g09.slc.cpg/sg129_2_cif.got.tgz:2091.got - 2010.04.06 17:19:44.
