data_PCOD8315627
_publ_section_title
;
Structure prediction by ZEFSAII (Michael W. Deem and Ramdas Pophale) SiO2 
 PCOD8315627
Probable space group: P 4/N C C
;
_chemical_formula_sum "Si O2"
_cell_formula_units_Z 112
_cell_length_a 15.613688
_cell_length_b 15.613688
_cell_length_c 24.621842
_cell_angle_alpha 90.000000
_cell_angle_beta 90.000000
_cell_angle_gamma 90.000000
_cell_volume 6002.491224
_symmetry_space_group_name_H-M "P 4/N C C"
_symmetry_group_IT_number 130
_symmetry_cell_setting 'tetragonal'
loop_
_space_group_symop_operation_xyz
x,y,z
1/2-y,x,z
1/2-x,1/2-y,z
y,1/2-x,z
1/2+x,-y,1/2-z
-x,1/2+y,1/2-z
1/2+y,1/2+x,1/2-z
-y,-x,1/2-z
-x,-y,-z
1/2+y,-x,-z
1/2+x,1/2+y,-z
-y,1/2+x,-z
1/2-x,y,1/2+z
x,1/2-y,1/2+z
1/2-y,1/2-x,1/2+z
y,x,1/2+z
loop_
_atom_site_type_symbol
_atom_site_label
_atom_site_fract_x
_atom_site_fract_y
_atom_site_fract_z
Si Si1 0.365928 0.327270 0.444887
Si Si2 0.593053 0.964728 0.649375
Si Si3 0.846356 0.644460 0.749144
Si Si4 0.135938 0.825001 0.687390
Si Si5 0.868145 0.823980 0.429709
Si Si6 0.679361 0.352040 0.810820
Si Si7 0.975361 0.904985 0.338289
O O1 0.273250 0.366452 0.431182
O O2 0.436608 0.376369 0.410003
O O3 0.389786 0.340357 0.507663
O O4 0.624146 0.892487 0.691587
O O5 0.626113 0.058645 0.660805
O O6 0.492104 0.975268 0.650452
O O7 0.869880 0.744607 0.754898
O O8 0.896174 0.591664 0.795973
O O9 0.144172 0.855828 0.750000
O O10 0.118429 0.725323 0.668104
O O11 0.227279 0.850260 0.660837
O O12 0.776545 0.865552 0.415469
O O13 0.942692 0.867309 0.394956
O O14 0.684853 0.315148 0.750000
O O15 0.650712 0.449435 0.812411
#
# Coordination Sequence:
#
# PCOD8315627 Si02
#       7
#    16  16  16  16  16  16  16
#     4   9  20  41  65  85 112 154 197 242 303 363
#     4  12  24  34  59  91 118 150 194 249 294 353
#     4  11  25  40  56  84 125 161 190 240 306 351
#     4   9  20  37  56  77 113 163 201 230 278 351
#     4   9  20  41  65  85 112 154 197 242 303 363
#     4   9  20  37  56  77 113 163 201 230 278 351
#     4  12  24  34  59  91 118 150 194 249 294 353
#
# _framework density 18.658919000000001
#
# number of rings (size 3 to 8) (size 9 to 14) (size 15 to 20)
#    0.000    1.857    0.000    5.571   12.000    2.857 
#    0.000    0.000    0.000    0.000    0.000    2.000 
#    0.000    0.000    0.000    0.000    0.000    0.000 
#
# Total GULP energy -1387606.085750 kJ/mol
# GULP energy per Si atom -12389.340051 kJ/mol
# Density = 1.861645 g / cm^3
# Si number density = 18.658919 Si / 1000 Ang^3
#
#
#
# Elastic Constant Matrix: (Units=GPa)
#
#
# Indices 1 2 3 4 5 6 
#
# 1 85.1740 21.9846 27.3595 0.0000 0.0000 0.0000
# 2 21.9846 85.1739 27.3592 0.0000 0.0000 0.0000
# 3 27.3595 27.3592 69.6322 0.0000 0.0000 0.0000
# 4 0.0000 0.0000 0.0000 26.8252 0.0000 0.0000
# 5 0.0000 0.0000 0.0000 0.0000 26.8252 0.0000
# 6 0.0000 0.0000 0.0000 0.0000 0.0000 29.2833
#
#
#
# Elastic Compliance Matrix: (Units=1/GPa)
#
#
# Indices 1 2 3 4 5 6 
#
# 1 0.013750 -0.002076 -0.004587 0.000000 0.000000 0.000000
# 2 -0.002076 0.013750 -0.004587 0.000000 0.000000 0.000000
# 3 -0.004587 -0.004587 0.017966 0.000000 0.000000 0.000000
# 4 0.000000 0.000000 0.000000 0.037278 0.000000 0.000000
# 5 0.000000 0.000000 0.000000 0.000000 0.037278 0.000000
# 6 0.000000 0.000000 0.000000 0.000000 0.000000 0.034149
#
#
# Mechanical properties :
#
#
# Convention : Reuss Voigt Hill
#
# Bulk Modulus (GPa) = 43.54196 43.70964 43.62580
# Shear Modulus (GPa) = 27.12589 27.47186 27.29888
#
# Velocity S-wave (km/s) = 3.81698 3.84124 3.82913
# Velocity P-wave (km/s) = 6.54310 6.56886 6.55599
#
# Compressibility (1/GPa) = 0.02296635
#
# Stress axis : x y z
#
# Youngs Moduli (GPa) = 72.72812 72.72827 55.66156
#
# Poissons Ratio (x) = 0.15096 0.25532
# Poissons Ratio (y) = 0.15096 0.25531
# Poissons Ratio (z) = 0.33360 0.33360
#
# Static dielectric constant tensor:
#      x y z
#    x 3.558750 0.000000 0.000000 
#    y 0.000000 3.558750 0.000000 
#    z 0.000000 0.000000 3.189340 
# 
# 
# High freq. dielectric constant tensor:
#      x y z
#    x 1.733180 0.000000 0.000000 
#    y 0.000000 1.733180 0.000000 
#    z 0.000000 0.000000 1.695140 
# 
# From -- ./inp_files/4603.got.cif
#   From: 2010.03.12/outbox.cif.g09.slc.cpg/sg130_3_cif.got.tgz:4603.got - 2010.04.06 17:30:23.
