data_PCOD8315104
_publ_section_title
;
Structure prediction by ZEFSAII (Michael W. Deem and Ramdas Pophale) SiO2 
 PCOD8315104
Probable space group: P 4/N M M
;
_chemical_formula_sum "Si O2"
_cell_formula_units_Z 128
_cell_length_a 23.745212
_cell_length_b 23.745212
_cell_length_c 12.832703
_cell_angle_alpha 90.000000
_cell_angle_beta 90.000000
_cell_angle_gamma 90.000000
_cell_volume 7235.528288
_symmetry_space_group_name_H-M "P 4/N M M"
_symmetry_group_IT_number 129
_symmetry_cell_setting 'tetragonal'
loop_
_space_group_symop_operation_xyz
x,y,z
1/2-y,x,z
1/2-x,1/2-y,z
y,1/2-x,z
1/2+x,-y,-z
-x,1/2+y,-z
1/2+y,1/2+x,-z
-y,-x,-z
-x,-y,-z
1/2+y,-x,-z
1/2+x,1/2+y,-z
-y,1/2+x,-z
1/2-x,y,z
x,1/2-y,z
1/2-y,1/2-x,z
y,x,z
loop_
_atom_site_type_symbol
_atom_site_label
_atom_site_fract_x
_atom_site_fract_y
_atom_site_fract_z
Si Si1 0.814746 0.595055 0.246125
Si Si2 0.533385 0.627924 0.651126
Si Si3 0.186926 0.811995 0.876354
Si Si4 0.030857 0.315650 0.954649
Si Si5 0.815988 0.590823 0.836555
Si Si6 0.875451 0.422302 0.102757
Si Si7 0.628283 0.533731 0.419771
Si Si8 0.946502 0.459162 0.291493
O O1 0.750000 0.611305 0.235459
O O2 0.847549 0.652452 0.269758
O O3 0.839906 0.567729 0.140718
O O4 0.822157 0.550287 0.340053
O O5 0.578776 0.578776 0.649630
O O6 0.552350 0.675104 0.733767
O O7 0.526766 0.654358 0.535435
O O8 0.473372 0.601105 0.681188
O O9 0.250000 0.820100 0.831929
O O10 0.163733 0.750000 0.838867
O O11 0.149029 0.865339 0.842202
O O12 0.188008 0.811993 0.000000
O O13 0.038931 0.250000 0.956678
O O14 0.964994 0.327173 0.935861
O O15 0.054696 0.338813 0.064769
O O16 0.750000 0.606315 0.844912
O O17 0.851071 0.648930 0.829492
O O18 0.915019 0.454510 0.182412
O O19 0.910614 0.410614 0.000000
O O20 0.582781 0.582781 0.418924
O O21 0.597540 0.476357 0.382339
O O22 0.993400 0.506601 0.277324
#
# Coordination Sequence:
#
# PCOD8315104 Si02
#       8
#    16  16  16  16  16  16  16  16
#     4  10  20  34  53  76 103 138 178 222 272 323
#     4   9  18  33  52  73  97 128 169 212 261 320
#     4   8  15  29  47  66  92 128 169 210 250 299
#     4  10  20  34  50  71 104 141 176 213 259 319
#     4  10  21  36  54  75 102 139 181 228 280 332
#     4  11  20  29  47  75 106 139 172 211 260 310
#     4   9  17  32  53  73  97 130 168 213 264 319
#     4  10  19  31  47  72 102 134 172 207 251 313
#
# _framework density 17.690483
#
# number of rings (size 3 to 8) (size 9 to 14) (size 15 to 20)
#    0.000    2.375    1.250    2.250    0.000    3.500 
#    0.000    0.625    0.000    2.250    0.000    3.500 
#    0.000    0.000    0.000    5.500    0.000    3.125 
#
# Total GULP energy -1586469.667166 kJ/mol
# GULP energy per Si atom -12394.294275 kJ/mol
# Density = 1.765022 g / cm^3
# Si number density = 17.690483 Si / 1000 Ang^3
#
#
#
# Elastic Constant Matrix: (Units=GPa)
#
#
# Indices 1 2 3 4 5 6 
#
# 1 73.9527 36.4890 34.5594 0.0000 0.0000 0.0000
# 2 36.4890 73.9529 34.5594 0.0000 0.0000 0.0000
# 3 34.5594 34.5594 125.5666 0.0000 0.0000 0.0000
# 4 0.0000 0.0000 0.0000 19.7405 0.0000 0.0000
# 5 0.0000 0.0000 0.0000 0.0000 19.7404 0.0000
# 6 0.0000 0.0000 0.0000 0.0000 0.0000 24.2139
#
#
#
# Elastic Compliance Matrix: (Units=1/GPa)
#
#
# Indices 1 2 3 4 5 6 
#
# 1 0.018816 -0.007877 -0.003011 0.000000 0.000000 0.000000
# 2 -0.007877 0.018816 -0.003011 0.000000 0.000000 0.000000
# 3 -0.003011 -0.003011 0.009621 0.000000 0.000000 0.000000
# 4 0.000000 0.000000 0.000000 0.050657 0.000000 0.000000
# 5 0.000000 0.000000 0.000000 0.000000 0.050657 0.000000
# 6 0.000000 0.000000 0.000000 0.000000 0.000000 0.041299
#
#
# Mechanical properties :
#
#
# Convention : Reuss Voigt Hill
#
# Bulk Modulus (GPa) = 51.39801 53.85420 52.62610
# Shear Modulus (GPa) = 22.30674 23.92989 23.11831
#
# Velocity S-wave (km/s) = 3.55483 3.68190 3.61892
# Velocity P-wave (km/s) = 6.77984 6.97020 6.87568
#
# Compressibility (1/GPa) = 0.01945601
#
# Stress axis : x y z
#
# Youngs Moduli (GPa) = 53.14730 53.14747 103.93790
#
# Poissons Ratio (x) = 0.41864 0.31292
# Poissons Ratio (y) = 0.41863 0.31292
# Poissons Ratio (z) = 0.16001 0.16001
#
# Static dielectric constant tensor:
#      x y z
#    x 3.242660 0.000000 0.000000 
#    y 0.000000 3.242650 0.000000 
#    z 0.000000 0.000000 3.494180 
# 
# 
# High freq. dielectric constant tensor:
#      x y z
#    x 1.672320 0.000000 0.000000 
#    y 0.000000 1.672320 0.000000 
#    z 0.000000 0.000000 1.675780 
# 
# From -- ./inp_files/4185.got.cif
#   From: 2010.03.12/outbox.cif.g09.slc.cpg/sg129_3_cif.got.tgz:4185.got - 2010.04.06 17:19:44.
