data_PCOD8315921
_publ_section_title
;
Structure prediction by ZEFSAII (Michael W. Deem and Ramdas Pophale) SiO2 
 PCOD8315921
Probable space group: P 42/M M C
;
_chemical_formula_sum "Si O2"
_cell_formula_units_Z 104
_cell_length_a 18.734579
_cell_length_b 18.734579
_cell_length_c 16.888531
_cell_angle_alpha 90.000000
_cell_angle_beta 90.000000
_cell_angle_gamma 90.000000
_cell_volume 5927.611770
_symmetry_space_group_name_H-M "P 42/M M C"
_symmetry_group_IT_number 131
_symmetry_cell_setting 'tetragonal'
loop_
_space_group_symop_operation_xyz
x,y,z
-x,-y,z
-y,x,1/2+z
y,-x,1/2+z
-x,y,-z
x,-y,-z
y,x,1/2-z
-y,-x,1/2-z
-x,-y,-z
x,y,-z
y,-x,1/2-z
-y,x,1/2-z
x,-y,z
-x,y,z
-y,-x,1/2+z
y,x,1/2+z
loop_
_atom_site_type_symbol
_atom_site_label
_atom_site_fract_x
_atom_site_fract_y
_atom_site_fract_z
Si Si1 0.082707 0.849248 0.822332
Si Si2 0.680910 0.385449 0.172699
Si Si3 0.296058 0.078695 0.239294
Si Si4 0.328326 0.752533 0.088512
Si Si5 0.419781 0.809801 0.771839
Si Si6 0.220980 0.875874 0.911179
Si Si7 0.584012 0.500000 0.906722
O O1 0.096396 0.903605 0.750000
O O2 0.102665 0.768588 0.796262
O O3 0.136318 0.870091 0.893164
O O4 0.000000 0.855761 0.849447
O O5 0.650964 0.349037 0.250000
O O6 0.699779 0.326312 0.107647
O O7 0.752940 0.425484 0.199730
O O8 0.619585 0.432598 0.134125
O O9 0.364264 0.128683 0.251902
O O10 0.264211 0.074722 0.150054
O O11 0.322653 0.000000 0.261649
O O12 0.392782 0.774993 0.146359
O O13 0.257103 0.798802 0.097529
O O14 0.359772 0.756725 0.000000
O O15 0.500000 0.840276 0.785019
O O16 0.229393 0.906866 0.000000
O O17 0.500000 0.500000 0.888564
O O18 0.599424 0.500000 0.000000
#
# Coordination Sequence:
#
# PCOD8315921 Si02
#       7
#    16  16  16  16  16  16   8
#     4   9  17  30  48  70  98 130 164 201 241 289
#     4  10  20  33  51  69  94 128 163 205 249 295
#     4   9  18  32  50  71  99 132 165 204 249 301
#     4   9  18  32  50  69  93 125 161 202 245 296
#     4  10  19  32  50  74  97 125 165 208 255 299
#     4   9  17  30  49  73  98 126 162 201 244 292
#     4  11  24  36  48  70  99 131 165 200 244 306
#
# _framework density 17.545009
#
# number of rings (size 3 to 8) (size 9 to 14) (size 15 to 20)
#    0.000    2.538    0.769    1.385    1.077    5.692 
#    0.000    0.000    0.000    0.000    0.000    8.615 
#    0.000    0.615    0.000    0.000    0.000    0.000 
#
# Total GULP energy -1288920.875653 kJ/mol
# GULP energy per Si atom -12393.469958 kJ/mol
# Density = 1.750508 g / cm^3
# Si number density = 17.545009 Si / 1000 Ang^3
#
#
#
# Elastic Constant Matrix: (Units=GPa)
#
#
# Indices 1 2 3 4 5 6 
#
# 1 87.0471 26.2406 13.8275 0.0000 0.0000 0.0000
# 2 26.2406 87.0460 13.8281 0.0000 0.0000 0.0000
# 3 13.8275 13.8281 37.8990 0.0000 0.0000 0.0000
# 4 0.0000 0.0000 0.0000 7.9245 0.0000 0.0000
# 5 0.0000 0.0000 0.0000 0.0000 7.9154 0.0000
# 6 0.0000 0.0000 0.0000 0.0000 0.0000 21.1486
#
#
#
# Elastic Compliance Matrix: (Units=1/GPa)
#
#
# Indices 1 2 3 4 5 6 
#
# 1 0.013068 -0.003378 -0.003535 0.000000 0.000000 0.000000
# 2 -0.003378 0.013068 -0.003536 0.000000 0.000000 0.000000
# 3 -0.003535 -0.003536 0.028966 0.000000 0.000000 0.000000
# 4 0.000000 0.000000 0.000000 0.126191 0.000000 0.000000
# 5 0.000000 0.000000 0.000000 0.000000 0.126336 0.000000
# 6 0.000000 0.000000 0.000000 0.000000 0.000000 0.047284
#
#
# Mechanical properties :
#
#
# Convention : Reuss Voigt Hill
#
# Bulk Modulus (GPa) = 29.23629 35.53161 32.38395
# Shear Modulus (GPa) = 12.91282 17.93743 15.42512
#
# Velocity S-wave (km/s) = 2.71584 3.20092 2.96830
# Velocity P-wave (km/s) = 5.15113 5.82725 5.49959
#
# Compressibility (1/GPa) = 0.03420407
#
# Stress axis : x y z
#
# Youngs Moduli (GPa) = 76.52353 76.52208 34.52333
#
# Poissons Ratio (x) = 0.25847 0.12205
# Poissons Ratio (y) = 0.25848 0.12207
# Poissons Ratio (z) = 0.27054 0.27056
#
# Static dielectric constant tensor:
#      x y z
#    x 3.196760 0.000000 0.000000 
#    y 0.000000 3.196760 0.000000 
#    z 0.000000 0.000000 3.287720 
# 
# 
# High freq. dielectric constant tensor:
#      x y z
#    x 1.673420 0.000000 0.000000 
#    y 0.000000 1.673420 0.000000 
#    z 0.000000 0.000000 1.666970 
# 
# From -- ./inp_files/8073.got.cif
#   From: 2010.03.12/outbox.cif.g09.slc.cpg/sg131_5_cif.got.tgz:8073.got - 2010.04.06 17:36:35.
