data_PCOD8315292
_publ_section_title
;
Structure prediction by ZEFSAII (Michael W. Deem and Ramdas Pophale) SiO2 
 PCOD8315292
Probable space group: P 4/N M M
;
_chemical_formula_sum "Si O2"
_cell_formula_units_Z 80
_cell_length_a 14.078154
_cell_length_b 14.078154
_cell_length_c 25.619391
_cell_angle_alpha 90.000000
_cell_angle_beta 90.000000
_cell_angle_gamma 90.000000
_cell_volume 5077.620341
_symmetry_space_group_name_H-M "P 4/N M M"
_symmetry_group_IT_number 129
_symmetry_cell_setting 'tetragonal'
loop_
_space_group_symop_operation_xyz
x,y,z
1/2-y,x,z
1/2-x,1/2-y,z
y,1/2-x,z
1/2+x,-y,-z
-x,1/2+y,-z
1/2+y,1/2+x,-z
-y,-x,-z
-x,-y,-z
1/2+y,-x,-z
1/2+x,1/2+y,-z
-y,1/2+x,-z
1/2-x,y,z
x,1/2-y,z
1/2-y,1/2-x,z
y,x,z
loop_
_atom_site_type_symbol
_atom_site_label
_atom_site_fract_x
_atom_site_fract_y
_atom_site_fract_z
Si Si1 0.489506 0.859346 0.353148
Si Si2 0.141450 0.988052 0.763265
Si Si3 0.144947 0.863344 0.442946
Si Si4 0.520355 0.363535 0.041318
Si Si5 0.640077 0.142758 0.858410
O O1 0.508344 0.750000 0.365210
O O2 0.446177 0.875095 0.295084
O O3 0.419086 0.904011 0.396137
O O4 0.590825 0.909176 0.357756
O O5 0.250000 0.017837 0.770990
O O6 0.109970 0.910046 0.805216
O O7 0.082950 0.082950 0.773147
O O8 0.105176 0.894824 0.500000
O O9 0.250000 0.905534 0.434295
O O10 0.149237 0.750000 0.441243
O O11 0.504284 0.250000 0.032633
O O12 0.419417 0.419417 0.037199
O O13 0.567326 0.385454 0.097063
O O14 0.595925 0.404076 0.000000
O O15 0.750000 0.140734 0.845526
O O16 0.609335 0.250000 0.875284
#
# Coordination Sequence:
#
# PCOD8315292 Si02
#       5
#    16  16  16  16  16
#     4   9  17  27  39  57  80 107 137 166 199 241
#     4   9  17  28  41  58  82 110 139 171 204 241
#     4   8  14  25  40  57  77 100 127 163 206 247
#     4  10  20  33  50  71  94 121 151 183 220 260
#     4   9  17  29  46  67  88 111 141 176 214 255
#
# _framework density 15.755411
#
# number of rings (size 3 to 8) (size 9 to 14) (size 15 to 20)
#    0.000    3.000    0.000    1.800    0.000    2.800 
#    0.000    6.000    0.000    0.000    0.000    2.800 
#    0.000    0.400    0.000    4.400    0.000    7.600 
#
# Total GULP energy -991451.291608 kJ/mol
# GULP energy per Si atom -12393.141145 kJ/mol
# Density = 1.571955 g / cm^3
# Si number density = 15.755411 Si / 1000 Ang^3
#
#
#
# Elastic Constant Matrix: (Units=GPa)
#
#
# Indices 1 2 3 4 5 6 
#
# 1 66.9577 40.6624 55.0703 0.0000 0.0000 0.0000
# 2 40.6624 66.9586 55.0702 0.0000 0.0000 0.0000
# 3 55.0703 55.0702 127.4182 0.0000 0.0000 0.0000
# 4 0.0000 0.0000 0.0000 23.2142 0.0000 0.0000
# 5 0.0000 0.0000 0.0000 0.0000 23.2141 0.0000
# 6 0.0000 0.0000 0.0000 0.0000 0.0000 18.7941
#
#
#
# Elastic Compliance Matrix: (Units=1/GPa)
#
#
# Indices 1 2 3 4 5 6 
#
# 1 0.027346 -0.010684 -0.007201 0.000000 0.000000 0.000000
# 2 -0.010684 0.027345 -0.007201 0.000000 0.000000 0.000000
# 3 -0.007201 -0.007201 0.014073 0.000000 0.000000 0.000000
# 4 0.000000 0.000000 0.000000 0.043077 0.000000 0.000000
# 5 0.000000 0.000000 0.000000 0.000000 0.043077 0.000000
# 6 0.000000 0.000000 0.000000 0.000000 0.000000 0.053208
#
#
# Mechanical properties :
#
#
# Convention : Reuss Voigt Hill
#
# Bulk Modulus (GPa) = 53.78791 62.54891 58.16841
# Shear Modulus (GPa) = 18.90391 20.41324 19.65858
#
# Velocity S-wave (km/s) = 3.46762 3.60340 3.53616
# Velocity P-wave (km/s) = 7.08844 7.55637 7.32614
#
# Compressibility (1/GPa) = 0.01859154
#
# Stress axis : x y z
#
# Youngs Moduli (GPa) = 36.56889 36.56970 71.05837
#
# Poissons Ratio (x) = 0.39070 0.51172
# Poissons Ratio (y) = 0.39069 0.51170
# Poissons Ratio (z) = 0.26335 0.26334
#
# Static dielectric constant tensor:
#      x y z
#    x 2.891050 0.000000 0.000000 
#    y 0.000000 2.891050 0.000000 
#    z 0.000000 0.000000 3.308440 
# 
# 
# High freq. dielectric constant tensor:
#      x y z
#    x 1.585620 0.000000 0.000000 
#    y 0.000000 1.585620 0.000000 
#    z 0.000000 0.000000 1.621660 
# 
# From -- ./inp_files/6305.got.cif
#   From: 2010.03.12/outbox.cif.g09.slc.cpg/sg129_4_cif.got.tgz:6305.got - 2010.04.06 17:19:44.
