data_PCOD8315350
_publ_section_title
;
Structure prediction by ZEFSAII (Michael W. Deem and Ramdas Pophale) SiO2 
 PCOD8315350
Probable space group: P 4/N M M
;
_chemical_formula_sum "Si O2"
_cell_formula_units_Z 128
_cell_length_a 20.196209
_cell_length_b 20.196209
_cell_length_c 16.397847
_cell_angle_alpha 90.000000
_cell_angle_beta 90.000000
_cell_angle_gamma 90.000000
_cell_volume 6688.466290
_symmetry_space_group_name_H-M "P 4/N M M"
_symmetry_group_IT_number 129
_symmetry_cell_setting 'tetragonal'
loop_
_space_group_symop_operation_xyz
x,y,z
1/2-y,x,z
1/2-x,1/2-y,z
y,1/2-x,z
1/2+x,-y,-z
-x,1/2+y,-z
1/2+y,1/2+x,-z
-y,-x,-z
-x,-y,-z
1/2+y,-x,-z
1/2+x,1/2+y,-z
-y,1/2+x,-z
1/2-x,y,z
x,1/2-y,z
1/2-y,1/2-x,z
y,x,z
loop_
_atom_site_type_symbol
_atom_site_label
_atom_site_fract_x
_atom_site_fract_y
_atom_site_fract_z
Si Si1 0.824200 0.933596 0.288484
Si Si2 0.366136 0.960692 0.835610
Si Si3 0.910300 0.484291 0.746421
Si Si4 0.978093 0.414618 0.430964
Si Si5 0.826624 0.565302 0.036946
Si Si6 0.071663 0.325131 0.528229
Si Si7 0.824159 0.568187 0.848493
Si Si8 0.676082 0.327392 0.908413
O O1 0.750000 0.902637 0.282978
O O2 0.878107 0.878107 0.260289
O O3 0.837826 0.957645 0.381036
O O4 0.825072 0.999125 0.232571
O O5 0.440955 0.958080 0.803563
O O6 0.346055 0.883209 0.846032
O O7 0.358656 0.001669 0.918978
O O8 0.894762 0.449627 0.658714
O O9 0.843885 0.503823 0.795343
O O10 0.947508 0.552493 0.726876
O O11 0.920773 0.420773 0.500000
O O12 0.014201 0.485800 0.423706
O O13 0.027020 0.357603 0.459414
O O14 0.750000 0.576631 0.063892
O O15 0.868148 0.631852 0.058065
O O16 0.831453 0.547314 0.942407
O O17 0.077540 0.250000 0.503859
O O18 0.145224 0.354777 0.525613
O O19 0.750000 0.588922 0.826847
O O20 0.868483 0.631518 0.828345
O O21 0.750000 0.358438 0.887373
O O22 0.685340 0.250000 0.904491
O O23 0.653045 0.346956 0.000000
#
# Coordination Sequence:
#
# PCOD8315350 Si02
#       8
#    16  16  16  16  16  16  16  16
#     4  10  20  34  53  80 114 150 189 232 277 330
#     4  12  22  33  54  80 104 139 181 227 275 329
#     4  10  21  34  50  74 105 136 168 217 273 324
#     4   9  17  32  53  73  97 134 175 215 263 317
#     4  10  21  36  55  79 110 149 191 234 278 329
#     4   9  18  32  52  79 111 145 180 220 268 325
#     4   9  20  37  54  76 106 141 183 227 274 327
#     4   9  20  38  56  74  97 128 168 213 267 333
#
# _framework density 19.137422000000001
#
# number of rings (size 3 to 8) (size 9 to 14) (size 15 to 20)
#    0.000    2.250    0.000    3.375    1.750    3.500 
#    0.000    4.375    0.000    1.500    0.000    3.500 
#    0.000    0.250    0.000    0.625    0.000    0.000 
#
# Total GULP energy -1586079.455373 kJ/mol
# GULP energy per Si atom -12391.245745 kJ/mol
# Density = 1.909386 g / cm^3
# Si number density = 19.137422 Si / 1000 Ang^3
#
#
#
# Elastic Constant Matrix: (Units=GPa)
#
#
# Indices 1 2 3 4 5 6 
#
# 1 93.8884 33.9229 51.0561 0.0000 0.0000 0.0000
# 2 33.9229 93.8883 51.0563 0.0000 0.0000 0.0000
# 3 51.0561 51.0563 100.3024 0.0000 0.0000 0.0000
# 4 0.0000 0.0000 0.0000 19.9358 0.0000 0.0000
# 5 0.0000 0.0000 0.0000 0.0000 19.9360 0.0000
# 6 0.0000 0.0000 0.0000 0.0000 0.0000 20.8685
#
#
#
# Elastic Compliance Matrix: (Units=1/GPa)
#
#
# Indices 1 2 3 4 5 6 
#
# 1 0.014931 -0.001745 -0.006712 0.000000 0.000000 0.000000
# 2 -0.001745 0.014932 -0.006712 0.000000 0.000000 0.000000
# 3 -0.006712 -0.006712 0.016803 0.000000 0.000000 0.000000
# 4 0.000000 0.000000 0.000000 0.050161 0.000000 0.000000
# 5 0.000000 0.000000 0.000000 0.000000 0.050161 0.000000
# 6 0.000000 0.000000 0.000000 0.000000 0.000000 0.047919
#
#
# Mechanical properties :
#
#
# Convention : Reuss Voigt Hill
#
# Bulk Modulus (GPa) = 61.24671 62.23886 61.74278
# Shear Modulus (GPa) = 21.67427 22.28432 21.97930
#
# Velocity S-wave (km/s) = 3.36900 3.41609 3.39263
# Velocity P-wave (km/s) = 6.87071 6.93918 6.90503
#
# Compressibility (1/GPa) = 0.01632741
#
# Stress axis : x y z
#
# Youngs Moduli (GPa) = 66.97265 66.97235 59.51211
#
# Poissons Ratio (x) = 0.11685 0.39946
# Poissons Ratio (y) = 0.11685 0.39947
# Poissons Ratio (z) = 0.44954 0.44954
#
# Static dielectric constant tensor:
#      x y z
#    x 3.517950 0.000000 0.000000 
#    y 0.000000 3.517990 0.000000 
#    z 0.000000 0.000000 3.792080 
# 
# 
# High freq. dielectric constant tensor:
#      x y z
#    x 1.728890 0.000000 0.000000 
#    y 0.000000 1.728890 0.000000 
#    z 0.000000 0.000000 1.749230 
# 
# From -- ./inp_files/6149.got.cif
#   From: 2010.03.12/outbox.cif.g09.slc.cpg/sg129_4_cif.got.tgz:6149.got - 2010.04.06 17:19:44.
