data_PCOD8315489
_publ_section_title
;
Structure prediction by ZEFSAII (Michael W. Deem and Ramdas Pophale) SiO2 
 PCOD8315489
Probable space group: P 4/N C C
;
_chemical_formula_sum "Si O2"
_cell_formula_units_Z 88
_cell_length_a 14.141763
_cell_length_b 14.141763
_cell_length_c 20.806624
_cell_angle_alpha 90.000000
_cell_angle_beta 90.000000
_cell_angle_gamma 90.000000
_cell_volume 4161.105514
_symmetry_space_group_name_H-M "P 4/N C C"
_symmetry_group_IT_number 130
_symmetry_cell_setting 'tetragonal'
loop_
_space_group_symop_operation_xyz
x,y,z
1/2-y,x,z
1/2-x,1/2-y,z
y,1/2-x,z
1/2+x,-y,1/2-z
-x,1/2+y,1/2-z
1/2+y,1/2+x,1/2-z
-y,-x,1/2-z
-x,-y,-z
1/2+y,-x,-z
1/2+x,1/2+y,-z
-y,1/2+x,-z
1/2-x,y,1/2+z
x,1/2-y,1/2+z
1/2-y,1/2-x,1/2+z
y,x,1/2+z
loop_
_atom_site_type_symbol
_atom_site_label
_atom_site_fract_x
_atom_site_fract_y
_atom_site_fract_z
Si Si1 0.360949 0.152977 0.931920
Si Si2 0.665714 0.622804 0.291884
Si Si3 0.191598 0.607582 0.992706
Si Si4 0.487515 0.512486 0.250000
Si Si5 0.129122 0.424795 0.066172
Si Si6 0.928614 0.030143 0.612941
O O1 0.381699 0.257718 0.908001
O O2 0.434580 0.083015 0.898389
O O3 0.361514 0.151812 0.009594
O O4 0.776134 0.619733 0.269873
O O5 0.599821 0.537366 0.262517
O O6 0.677181 0.610759 0.368673
O O7 0.163412 0.573955 0.920942
O O8 0.130434 0.698232 0.012463
O O9 0.172444 0.525702 0.044732
O O10 0.429618 0.551211 0.311196
O O11 0.017794 0.428334 0.076923
#
# Coordination Sequence:
#
# PCOD8315489 Si02
#       6
#    16  16  16   8  16  16
#     4  10  20  32  55  90 118 147 189 251 317 372
#     4  10  22  42  69  95 126 173 226 274 326 394
#     4  10  22  37  60  91 123 162 209 265 331 398
#     4  10  24  44  60  92 128 172 222 264 322 390
#     4  10  21  34  61  89 125 159 206 262 332 378
#     4  10  23  37  59  81 121 162 199 254 314 380
#
# _framework density 21.148226999999999
#
# number of rings (size 3 to 8) (size 9 to 14) (size 15 to 20)
#    0.000    2.000    0.000    3.273   15.273    2.909 
#    3.273    1.818    0.000    2.727    0.000    0.000 
#    0.000    0.000    0.000    0.000    0.000    0.000 
#
# Total GULP energy -1090495.960029 kJ/mol
# GULP energy per Si atom -12391.999546 kJ/mol
# Density = 2.110009 g / cm^3
# Si number density = 21.148227 Si / 1000 Ang^3
#
#
#
# Elastic Constant Matrix: (Units=GPa)
#
#
# Indices 1 2 3 4 5 6 
#
# 1 66.3793 31.8566 25.0633 0.0000 0.0000 0.0000
# 2 31.8566 66.3782 25.0636 0.0000 0.0000 0.0000
# 3 25.0633 25.0636 82.2376 0.0000 0.0000 0.0000
# 4 0.0000 0.0000 0.0000 15.3124 0.0000 0.0000
# 5 0.0000 0.0000 0.0000 0.0000 15.3126 0.0000
# 6 0.0000 0.0000 0.0000 0.0000 0.0000 36.3504
#
#
#
# Elastic Compliance Matrix: (Units=1/GPa)
#
#
# Indices 1 2 3 4 5 6 
#
# 1 0.020510 -0.008456 -0.003674 0.000000 0.000000 0.000000
# 2 -0.008456 0.020511 -0.003674 0.000000 0.000000 0.000000
# 3 -0.003674 -0.003674 0.014399 0.000000 0.000000 0.000000
# 4 0.000000 0.000000 0.000000 0.065306 0.000000 0.000000
# 5 0.000000 0.000000 0.000000 0.000000 0.065306 0.000000
# 6 0.000000 0.000000 0.000000 0.000000 0.000000 0.027510
#
#
# Mechanical properties :
#
#
# Convention : Reuss Voigt Hill
#
# Bulk Modulus (GPa) = 41.99445 42.10688 42.05066
# Shear Modulus (GPa) = 19.75599 22.26253 21.00926
#
# Velocity S-wave (km/s) = 3.05973 3.24804 3.15529
# Velocity P-wave (km/s) = 5.69060 5.83266 5.76207
#
# Compressibility (1/GPa) = 0.02381267
#
# Stress axis : x y z
#
# Youngs Moduli (GPa) = 48.75586 48.75481 69.44843
#
# Poissons Ratio (x) = 0.41229 0.25513
# Poissons Ratio (y) = 0.41230 0.25515
# Poissons Ratio (z) = 0.17911 0.17912
#
# Static dielectric constant tensor:
#      x y z
#    x 3.891730 0.000000 0.000000 
#    y 0.000000 3.891740 0.000000 
#    z 0.000000 0.000000 3.740340 
# 
# 
# High freq. dielectric constant tensor:
#      x y z
#    x 1.829660 0.000000 0.000000 
#    y 0.000000 1.829660 0.000000 
#    z 0.000000 0.000000 1.814330 
# 
# From -- ./inp_files/3694.got.cif
#   From: 2010.03.12/outbox.cif.g09.slc.cpg/sg130_2_cif.got.tgz:3694.got - 2010.04.06 17:30:23.
