data_PCOD8315711
_publ_section_title
;
Structure prediction by ZEFSAII (Michael W. Deem and Ramdas Pophale) SiO2 
 PCOD8315711
Probable space group: P 42/M M C
;
_chemical_formula_sum "Si O2"
_cell_formula_units_Z 96
_cell_length_a 28.150904
_cell_length_b 28.150904
_cell_length_c 9.172690
_cell_angle_alpha 90.000000
_cell_angle_beta 90.000000
_cell_angle_gamma 90.000000
_cell_volume 7269.112795
_symmetry_space_group_name_H-M "P 42/M M C"
_symmetry_group_IT_number 131
_symmetry_cell_setting 'tetragonal'
loop_
_space_group_symop_operation_xyz
x,y,z
-x,-y,z
-y,x,1/2+z
y,-x,1/2+z
-x,y,-z
x,-y,-z
y,x,1/2-z
-y,-x,1/2-z
-x,-y,-z
x,y,-z
y,-x,1/2-z
-y,x,1/2-z
x,-y,z
-x,y,z
-y,-x,1/2+z
y,x,1/2+z
loop_
_atom_site_type_symbol
_atom_site_label
_atom_site_fract_x
_atom_site_fract_y
_atom_site_fract_z
Si Si1 0.823975 0.500000 0.339153
Si Si2 0.054764 0.396021 0.831475
Si Si3 0.333823 0.869447 0.828300
Si Si4 0.722423 0.660782 0.161125
Si Si5 0.500000 0.916782 0.329194
Si Si6 0.599146 0.217092 0.161649
Si Si7 0.194873 0.261951 0.832443
O O1 0.848918 0.500000 0.500000
O O2 0.861750 0.500000 0.210865
O O3 0.789038 0.456333 0.323034
O O4 0.082610 0.355250 0.741847
O O5 0.061188 0.450256 0.768605
O O6 0.000000 0.382140 0.816459
O O7 0.071720 0.394291 0.000000
O O8 0.375284 0.831942 0.799036
O O9 0.284985 0.850930 0.750612
O O10 0.323403 0.877236 0.000000
O O11 0.676702 0.676702 0.250000
O O12 0.741501 0.612117 0.227519
O O13 0.763335 0.699991 0.169307
O O14 0.705071 0.650514 0.000000
O O15 0.500000 0.924808 0.500000
O O16 0.615031 0.232790 0.000000
O O17 0.214283 0.214283 0.750000
O O18 0.181101 0.249221 0.000000
#
# Coordination Sequence:
#
# PCOD8315711 Si02
#       7
#     8  16  16  16   8  16  16
#     4  10  18  29  41  55  74  96 120 151 189 226
#     4  10  20  32  43  55  72  95 125 163 206 246
#     4  10  18  28  42  57  74  95 121 152 189 230
#     4   9  16  25  38  54  72  91 114 140 170 208
#     4  10  19  30  44  56  68  90 124 164 203 243
#     4   9  17  27  39  53  72  94 117 145 180 218
#     4   9  16  26  40  58  78  96 116 141 176 220
#
# _framework density 13.206564
#
# number of rings (size 3 to 8) (size 9 to 14) (size 15 to 20)
#    0.000    2.500    1.667    1.750    0.000    6.667 
#    0.000    0.000    0.000    1.500    0.000    0.000 
#    0.000    0.000    0.000    0.000    0.000    0.417 
#
# Total GULP energy -1189717.276212 kJ/mol
# GULP energy per Si atom -12392.888294 kJ/mol
# Density = 1.317651 g / cm^3
# Si number density = 13.206564 Si / 1000 Ang^3
#
#
#
# Elastic Constant Matrix: (Units=GPa)
#
#
# Indices 1 2 3 4 5 6 
#
# 1 49.8536 36.8493 35.0581 0.0000 0.0000 0.0000
# 2 36.8493 49.8536 35.0581 0.0000 0.0000 0.0000
# 3 35.0581 35.0581 80.4097 0.0000 0.0000 0.0000
# 4 0.0000 0.0000 0.0000 16.7253 0.0000 0.0000
# 5 0.0000 0.0000 0.0000 0.0000 16.7253 0.0000
# 6 0.0000 0.0000 0.0000 0.0000 0.0000 6.4552
#
#
#
# Elastic Compliance Matrix: (Units=1/GPa)
#
#
# Indices 1 2 3 4 5 6 
#
# 1 0.047356 -0.029541 -0.007767 0.000000 0.000000 0.000000
# 2 -0.029541 0.047356 -0.007767 0.000000 0.000000 0.000000
# 3 -0.007767 -0.007767 0.019209 0.000000 0.000000 0.000000
# 4 0.000000 0.000000 0.000000 0.059789 0.000000 0.000000
# 5 0.000000 0.000000 0.000000 0.000000 0.059789 0.000000
# 6 0.000000 0.000000 0.000000 0.000000 0.000000 0.154914
#
#
# Mechanical properties :
#
#
# Convention : Reuss Voigt Hill
#
# Bulk Modulus (GPa) = 42.06933 43.78312 42.92623
# Shear Modulus (GPa) = 10.27770 12.85793 11.56781
#
# Velocity S-wave (km/s) = 2.79270 3.12364 2.96279
# Velocity P-wave (km/s) = 6.50561 6.79956 6.65421
#
# Compressibility (1/GPa) = 0.02377028
#
# Stress axis : x y z
#
# Youngs Moduli (GPa) = 21.11646 21.11646 52.05831
#
# Poissons Ratio (x) = 0.62381 0.40435
# Poissons Ratio (y) = 0.62381 0.40435
# Poissons Ratio (z) = 0.16402 0.16402
#
# Static dielectric constant tensor:
#      x y z
#    x 2.459200 0.000000 0.000000 
#    y 0.000000 2.459200 0.000000 
#    z 0.000000 0.000000 2.846190 
# 
# 
# High freq. dielectric constant tensor:
#      x y z
#    x 1.468090 0.000000 0.000000 
#    y 0.000000 1.468090 0.000000 
#    z 0.000000 0.000000 1.516330 
# 
# From -- ./inp_files/2711.got.cif
#   From: 2010.03.12/outbox.cif.g09.slc.cpg/sg131_2_cif.got.tgz:2711.got - 2010.04.06 17:36:35.
