data_PCOD8315794
_publ_section_title
;
Structure prediction by ZEFSAII (Michael W. Deem and Ramdas Pophale) SiO2 
 PCOD8315794
Probable space group: P 42/M M C
;
_chemical_formula_sum "Si O2"
_cell_formula_units_Z 104
_cell_length_a 17.106283
_cell_length_b 17.106283
_cell_length_c 19.078913
_cell_angle_alpha 90.000000
_cell_angle_beta 90.000000
_cell_angle_gamma 90.000000
_cell_volume 5582.965354
_symmetry_space_group_name_H-M "P 42/M M C"
_symmetry_group_IT_number 131
_symmetry_cell_setting 'tetragonal'
loop_
_space_group_symop_operation_xyz
x,y,z
-x,-y,z
-y,x,1/2+z
y,-x,1/2+z
-x,y,-z
x,-y,-z
y,x,1/2-z
-y,-x,1/2-z
-x,-y,-z
x,y,-z
y,-x,1/2-z
-y,x,1/2-z
x,-y,z
-x,y,z
-y,-x,1/2+z
y,x,1/2+z
loop_
_atom_site_type_symbol
_atom_site_label
_atom_site_fract_x
_atom_site_fract_y
_atom_site_fract_z
Si Si1 0.910528 0.589862 0.921034
Si Si2 0.500000 0.407179 0.579333
Si Si3 0.208865 0.680905 0.663686
Si Si4 0.137939 0.912917 0.675442
Si Si5 0.230539 0.910675 0.919708
Si Si6 0.701762 0.160205 0.312184
Si Si7 0.643195 0.408268 0.325116
O O1 0.885783 0.500000 0.917203
O O2 0.854816 0.636084 0.869359
O O3 0.000000 0.600694 0.897662
O O4 0.898856 0.621489 0.000000
O O5 0.500000 0.500000 0.575521
O O6 0.500000 0.372605 0.500000
O O7 0.422588 0.377890 0.620405
O O8 0.144006 0.696820 0.604145
O O9 0.260905 0.757306 0.671148
O O10 0.162138 0.662428 0.735424
O O11 0.269896 0.611455 0.645065
O O12 0.096724 0.903276 0.750000
O O13 0.105362 0.849273 0.621785
O O14 0.231153 0.905366 0.685651
O O15 0.120015 0.000000 0.646665
O O16 0.256602 0.000000 0.908393
O O17 0.212204 0.892043 0.000000
O O18 0.633504 0.366497 0.250000
O O19 0.634157 0.500000 0.313681
#
# Coordination Sequence:
#
# PCOD8315794 Si02
#       7
#    16   8  16  16  16  16  16
#     4   9  19  35  54  80 115 152 186 224 277 339
#     4   9  20  36  56  86 122 154 189 226 271 337
#     4  10  21  37  55  82 112 148 191 243 279 335
#     4  11  21  34  55  84 113 147 189 235 291 352
#     4  10  22  40  60  81 110 150 193 242 301 356
#     4  10  18  34  53  75 109 149 188 230 271 329
#     4  11  20  35  62  89 119 155 192 230 283 342
#
# _framework density 18.628094000000001
#
# number of rings (size 3 to 8) (size 9 to 14) (size 15 to 20)
#    0.000    1.923    5.385    1.385    0.000    5.692 
#    1.385    0.769    0.000    0.462    0.000    1.077 
#    0.000    0.000    0.000    0.000    0.000    0.000 
#
# Total GULP energy -1289434.026395 kJ/mol
# GULP energy per Si atom -12398.404100 kJ/mol
# Density = 1.858570 g / cm^3
# Si number density = 18.628094 Si / 1000 Ang^3
#
#
#
# Elastic Constant Matrix: (Units=GPa)
#
#
# Indices 1 2 3 4 5 6 
#
# 1 65.3934 38.6589 44.3176 0.0000 0.0000 0.0000
# 2 38.6589 65.3925 44.3179 0.0000 0.0000 0.0000
# 3 44.3176 44.3179 124.9163 0.0000 0.0000 0.0000
# 4 0.0000 0.0000 0.0000 22.4664 0.0000 0.0000
# 5 0.0000 0.0000 0.0000 0.0000 22.4664 0.0000
# 6 0.0000 0.0000 0.0000 0.0000 0.0000 24.5345
#
#
#
# Elastic Compliance Matrix: (Units=1/GPa)
#
#
# Indices 1 2 3 4 5 6 
#
# 1 0.025589 -0.011816 -0.004886 0.000000 0.000000 0.000000
# 2 -0.011816 0.025590 -0.004887 0.000000 0.000000 0.000000
# 3 -0.004886 -0.004887 0.011473 0.000000 0.000000 0.000000
# 4 0.000000 0.000000 0.000000 0.044511 0.000000 0.000000
# 5 0.000000 0.000000 0.000000 0.000000 0.044511 0.000000
# 6 0.000000 0.000000 0.000000 0.000000 0.000000 0.040759
#
#
# Mechanical properties :
#
#
# Convention : Reuss Voigt Hill
#
# Bulk Modulus (GPa) = 51.35310 56.69901 54.02606
# Shear Modulus (GPa) = 20.65256 22.45399 21.55327
#
# Velocity S-wave (km/s) = 3.33329 3.47563 3.40521
# Velocity P-wave (km/s) = 6.51474 6.82716 6.67278
#
# Compressibility (1/GPa) = 0.01947302
#
# Stress axis : x y z
#
# Youngs Moduli (GPa) = 39.07931 39.07852 87.16473
#
# Poissons Ratio (x) = 0.46176 0.42591
# Poissons Ratio (y) = 0.46177 0.42593
# Poissons Ratio (z) = 0.19095 0.19096
#
# Static dielectric constant tensor:
#      x y z
#    x 3.427350 0.000000 0.000000 
#    y 0.000000 3.427350 0.000000 
#    z 0.000000 0.000000 3.511060 
# 
# 
# High freq. dielectric constant tensor:
#      x y z
#    x 1.712490 0.000000 0.000000 
#    y 0.000000 1.712490 0.000000 
#    z 0.000000 0.000000 1.720160 
# 
# From -- ./inp_files/8080.got.cif
#   From: 2010.03.12/outbox.cif.g09.slc.cpg/sg131_5_cif.got.tgz:8080.got - 2010.04.06 17:36:35.
