data_PCOD8315577
_publ_section_title
;
Structure prediction by ZEFSAII (Michael W. Deem and Ramdas Pophale) SiO2 
 PCOD8315577
Probable space group: P 4/N C C
;
_chemical_formula_sum "Si O2"
_cell_formula_units_Z 112
_cell_length_a 14.115650
_cell_length_b 14.115650
_cell_length_c 25.256411
_cell_angle_alpha 90.000000
_cell_angle_beta 90.000000
_cell_angle_gamma 90.000000
_cell_volume 5032.379669
_symmetry_space_group_name_H-M "P 4/N C C"
_symmetry_group_IT_number 130
_symmetry_cell_setting 'tetragonal'
loop_
_space_group_symop_operation_xyz
x,y,z
1/2-y,x,z
1/2-x,1/2-y,z
y,1/2-x,z
1/2+x,-y,1/2-z
-x,1/2+y,1/2-z
1/2+y,1/2+x,1/2-z
-y,-x,1/2-z
-x,-y,-z
1/2+y,-x,-z
1/2+x,1/2+y,-z
-y,1/2+x,-z
1/2-x,y,1/2+z
x,1/2-y,1/2+z
1/2-y,1/2-x,1/2+z
y,x,1/2+z
loop_
_atom_site_type_symbol
_atom_site_label
_atom_site_fract_x
_atom_site_fract_y
_atom_site_fract_z
Si Si1 0.609363 0.803758 0.035717
Si Si2 0.708079 0.603868 0.910863
Si Si3 0.587671 0.438124 0.893501
Si Si4 0.362395 0.516276 0.290134
Si Si5 0.857286 0.020151 0.210490
Si Si6 0.405744 0.552446 0.902318
Si Si7 0.373443 0.659090 0.998976
O O1 0.629653 0.696324 0.053077
O O2 0.519246 0.840097 0.065854
O O3 0.592014 0.804857 0.973471
O O4 0.813161 0.634479 0.893225
O O5 0.683072 0.501418 0.885060
O O6 0.570725 0.362741 0.846866
O O7 0.508240 0.516502 0.888518
O O8 0.578000 0.389745 0.950809
O O9 0.411496 0.588505 0.250000
O O10 0.252450 0.497526 0.274141
O O11 0.420761 0.416470 0.291228
O O12 0.905151 0.094850 0.250000
O O13 0.855696 0.073629 0.153575
O O14 0.423536 0.640745 0.942211
O O15 0.268764 0.620582 0.990756
#
# Coordination Sequence:
#
# PCOD8315577 Si02
#       7
#    16  16  16  16  16  16  16
#     4   9  19  32  54  92 132 169 207 254 314 383
#     4   9  19  36  58  91 133 175 216 266 325 390
#     4  11  23  38  64  91 124 169 211 267 323 390
#     4  10  24  48  71  99 128 169 221 273 338 399
#     4  10  24  46  71  99 133 167 222 278 330 403
#     4  11  23  36  63  89 124 165 207 255 320 368
#     4  11  25  38  53  86 130 171 213 256 309 380
#
# _framework density 22.255872
#
# number of rings (size 3 to 8) (size 9 to 14) (size 15 to 20)
#    0.000    1.857    1.429    2.143    8.000    1.714 
#    5.143    0.000    0.000    0.000    0.000    0.000 
#    0.000    0.000    0.000    0.000    0.000    0.000 
#
# Total GULP energy -1388080.271754 kJ/mol
# GULP energy per Si atom -12393.573855 kJ/mol
# Density = 2.220522 g / cm^3
# Si number density = 22.255872 Si / 1000 Ang^3
#
#
#
# Elastic Constant Matrix: (Units=GPa)
#
#
# Indices 1 2 3 4 5 6 
#
# 1 85.1577 21.8967 36.0193 0.0000 0.0000 0.0000
# 2 21.8967 85.1590 36.0180 0.0000 0.0000 0.0000
# 3 36.0193 36.0180 70.4962 0.0000 0.0000 0.0000
# 4 0.0000 0.0000 0.0000 24.3627 0.0000 0.0000
# 5 0.0000 0.0000 0.0000 0.0000 24.3622 0.0000
# 6 0.0000 0.0000 0.0000 0.0000 0.0000 22.2826
#
#
#
# Elastic Compliance Matrix: (Units=1/GPa)
#
#
# Indices 1 2 3 4 5 6 
#
# 1 0.015022 -0.000786 -0.007273 0.000000 0.000000 0.000000
# 2 -0.000786 0.015021 -0.007273 0.000000 0.000000 0.000000
# 3 -0.007273 -0.007273 0.021617 0.000000 0.000000 0.000000
# 4 0.000000 0.000000 0.000000 0.041046 0.000000 0.000000
# 5 0.000000 0.000000 0.000000 0.000000 0.041047 0.000000
# 6 0.000000 0.000000 0.000000 0.000000 0.000000 0.044878
#
#
# Mechanical properties :
#
#
# Convention : Reuss Voigt Hill
#
# Bulk Modulus (GPa) = 47.63059 47.63122 47.63091
# Shear Modulus (GPa) = 23.11665 23.99344 23.55505
#
# Velocity S-wave (km/s) = 3.22635 3.28696 3.25680
# Velocity P-wave (km/s) = 5.94364 5.98779 5.96576
#
# Compressibility (1/GPa) = 0.02099491
#
# Stress axis : x y z
#
# Youngs Moduli (GPa) = 66.57118 66.57388 46.25931
#
# Poissons Ratio (x) = 0.05234 0.33646
# Poissons Ratio (y) = 0.05234 0.33644
# Poissons Ratio (z) = 0.48420 0.48418
#
# Static dielectric constant tensor:
#      x y z
#    x 4.189690 0.000000 0.000000 
#    y 0.000000 4.189690 0.000000 
#    z 0.000000 0.000000 4.234170 
# 
# 
# High freq. dielectric constant tensor:
#      x y z
#    x 1.880260 0.000000 0.000000 
#    y 0.000000 1.880260 0.000000 
#    z 0.000000 0.000000 1.858620 
# 
# From -- ./inp_files/4291.got.cif
#   From: 2010.03.12/outbox.cif.g09.slc.cpg/sg130_3_cif.got.tgz:4291.got - 2010.04.06 17:30:23.
