data_PCOD8315561
_publ_section_title
;
Structure prediction by ZEFSAII (Michael W. Deem and Ramdas Pophale) SiO2 
 PCOD8315561
Probable space group: P 4/N C C
;
_chemical_formula_sum "Si O2"
_cell_formula_units_Z 96
_cell_length_a 14.622802
_cell_length_b 14.622802
_cell_length_c 22.566361
_cell_angle_alpha 90.000000
_cell_angle_beta 90.000000
_cell_angle_gamma 90.000000
_cell_volume 4825.282342
_symmetry_space_group_name_H-M "P 4/N C C"
_symmetry_group_IT_number 130
_symmetry_cell_setting 'tetragonal'
loop_
_space_group_symop_operation_xyz
x,y,z
1/2-y,x,z
1/2-x,1/2-y,z
y,1/2-x,z
1/2+x,-y,1/2-z
-x,1/2+y,1/2-z
1/2+y,1/2+x,1/2-z
-y,-x,1/2-z
-x,-y,-z
1/2+y,-x,-z
1/2+x,1/2+y,-z
-y,1/2+x,-z
1/2-x,y,1/2+z
x,1/2-y,1/2+z
1/2-y,1/2-x,1/2+z
y,x,1/2+z
loop_
_atom_site_type_symbol
_atom_site_label
_atom_site_fract_x
_atom_site_fract_y
_atom_site_fract_z
Si Si1 0.030716 0.256467 0.842593
Si Si2 0.682746 0.617844 0.274442
Si Si3 0.004950 0.611253 0.373276
Si Si4 0.918882 0.922490 0.595722
Si Si5 0.309937 0.836832 0.318625
Si Si6 0.384388 0.322171 0.020372
O O1 0.087209 0.314182 0.793756
O O2 0.046150 0.317492 0.901829
O O3 0.064868 0.154348 0.851700
O O4 0.924866 0.246452 0.826516
O O5 0.789430 0.629081 0.290222
O O6 0.626477 0.542361 0.310141
O O7 0.010428 0.504623 0.392267
O O8 0.104787 0.656396 0.364158
O O9 0.943887 0.662508 0.421307
O O10 0.867214 0.941819 0.533733
O O11 0.250000 0.750000 0.336984
O O12 0.337537 0.837537 0.250000
O O13 0.286493 0.371753 0.018644
#
# Coordination Sequence:
#
# PCOD8315561 Si02
#       6
#    16  16  16  16  16  16
#     4  11  21  38  64  93 121 166 211 268 322 375
#     4  11  22  37  60  93 131 161 204 268 330 382
#     4  11  24  41  61  94 132 167 216 263 328 402
#     4  11  23  40  66  91 127 164 219 266 319 389
#     4  10  22  41  62  89 130 174 214 259 316 393
#     4  11  23  42  68  94 126 168 214 273 339 385
#
# _framework density 19.895208
#
# number of rings (size 3 to 8) (size 9 to 14) (size 15 to 20)
#    0.000    1.167    5.000    1.500    0.000    4.333 
#    0.000    0.000    0.000    0.000    0.000    0.000 
#    0.000    0.000    0.000    0.000    0.000    0.000 
#
# Total GULP energy -1189599.781071 kJ/mol
# GULP energy per Si atom -12391.664386 kJ/mol
# Density = 1.984993 g / cm^3
# Si number density = 19.895208 Si / 1000 Ang^3
#
#
#
# Elastic Constant Matrix: (Units=GPa)
#
#
# Indices 1 2 3 4 5 6 
#
# 1 94.2623 46.0747 31.5878 0.0000 0.0000 0.0000
# 2 46.0747 94.2623 31.5878 0.0000 0.0000 0.0000
# 3 31.5878 31.5878 89.8342 0.0000 0.0000 0.0000
# 4 0.0000 0.0000 0.0000 -285.3254 0.0000 0.0000
# 5 0.0000 0.0000 0.0000 0.0000 -285.3254 0.0000
# 6 0.0000 0.0000 0.0000 0.0000 0.0000 31.6873
#
#
#
# Elastic Compliance Matrix: (Units=1/GPa)
#
#
# Indices 1 2 3 4 5 6 
#
# 1 0.014609 -0.006143 -0.002977 0.000000 0.000000 0.000000
# 2 -0.006143 0.014609 -0.002977 0.000000 0.000000 0.000000
# 3 -0.002977 -0.002977 0.013225 0.000000 0.000000 0.000000
# 4 0.000000 0.000000 0.000000 -0.003505 0.000000 0.000000
# 5 0.000000 0.000000 0.000000 0.000000 -0.003505 0.000000
# 6 0.000000 0.000000 0.000000 0.000000 0.000000 0.031558
#
#
# Mechanical properties :
#
#
# Convention : Reuss Voigt Hill
#
# Bulk Modulus (GPa) = 54.79607 55.20662 55.00134
# Shear Modulus (GPa) = 51.40407 -96.51880 -22.55736
#
# Velocity S-wave (km/s) = 5.08857 -6.97273 -3.37086
# Velocity P-wave (km/s) = 7.88206 6.08410 3.54334
#
# Compressibility (1/GPa) = 0.01824949
#
# Stress axis : x y z
#
# Youngs Moduli (GPa) = 68.45091 68.45091 75.61428
#
# Poissons Ratio (x) = 0.42051 0.22509
# Poissons Ratio (y) = 0.42051 0.22509
# Poissons Ratio (z) = 0.20376 0.20376
#
# Static dielectric constant tensor:
#      x y z
#    x 3.390010 0.000000 0.000000 
#    y 0.000000 3.390010 0.000000 
#    z 0.000000 0.000000 3.535330 
# 
# 
# High freq. dielectric constant tensor:
#      x y z
#    x 1.777260 0.000000 0.000000 
#    y 0.000000 1.777260 0.000000 
#    z 0.000000 0.000000 1.772090 
# 
# From -- ./inp_files/3805.got.cif
#   From: 2010.03.12/outbox.cif.g09.slc.cpg/sg130_2_cif.got.tgz:3805.got - 2010.04.06 17:30:23.
