data_PCOD8315619
_publ_section_title
;
Structure prediction by ZEFSAII (Michael W. Deem and Ramdas Pophale) SiO2 
 PCOD8315619
Probable space group: P 4/N C C
;
_chemical_formula_sum "Si O2"
_cell_formula_units_Z 64
_cell_length_a 13.017652
_cell_length_b 13.017652
_cell_length_c 16.944201
_cell_angle_alpha 90.000000
_cell_angle_beta 90.000000
_cell_angle_gamma 90.000000
_cell_volume 2871.351824
_symmetry_space_group_name_H-M "P 4/N C C"
_symmetry_group_IT_number 130
_symmetry_cell_setting 'tetragonal'
loop_
_space_group_symop_operation_xyz
x,y,z
1/2-y,x,z
1/2-x,1/2-y,z
y,1/2-x,z
1/2+x,-y,1/2-z
-x,1/2+y,1/2-z
1/2+y,1/2+x,1/2-z
-y,-x,1/2-z
-x,-y,-z
1/2+y,-x,-z
1/2+x,1/2+y,-z
-y,1/2+x,-z
1/2-x,y,1/2+z
x,1/2-y,1/2+z
1/2-y,1/2-x,1/2+z
y,x,1/2+z
loop_
_atom_site_type_symbol
_atom_site_label
_atom_site_fract_x
_atom_site_fract_y
_atom_site_fract_z
Si Si1 0.103799 0.823375 0.487226
Si Si2 0.005754 0.149717 0.235780
Si Si3 0.092169 0.307826 0.906710
Si Si4 0.364089 0.965271 0.679324
O O1 0.202397 0.875450 0.528328
O O2 0.090640 0.881627 0.403777
O O3 0.003084 0.842476 0.539685
O O4 0.065100 0.176618 0.315556
O O5 0.005846 0.248574 0.180959
O O6 0.060550 0.061125 0.185719
O O7 0.889064 0.110937 0.250000
O O8 0.119711 0.189511 0.924933
O O9 0.384680 0.884680 0.750000
#
# Coordination Sequence:
#
# PCOD8315619 Si02
#       4
#    16  16  16  16
#     4  11  26  46  71 106 144 186 235 293 360 426
#     4  11  23  42  69 101 135 184 232 284 345 419
#     4  11  24  44  69 102 145 190 230 294 357 419
#     4  11  25  44  70 104 139 184 234 288 347 420
#
# _framework density 22.289152999999999
#
# number of rings (size 3 to 8) (size 9 to 14) (size 15 to 20)
#    0.000    1.000    2.500    3.000    7.000    4.000 
#    0.000    0.000    0.000    0.000    0.000    0.000 
#    0.000    0.000    0.000    0.000    0.000    0.000 
#
# Total GULP energy -793901.035962 kJ/mol
# GULP energy per Si atom -12404.703687 kJ/mol
# Density = 2.223842 g / cm^3
# Si number density = 22.289153 Si / 1000 Ang^3
#
#
#
# Elastic Constant Matrix: (Units=GPa)
#
#
# Indices 1 2 3 4 5 6 
#
# 1 83.9315 17.2285 23.9821 0.0000 0.0000 0.0000
# 2 17.2285 83.9300 23.9852 0.0000 0.0000 0.0000
# 3 23.9821 23.9852 102.7694 0.0000 0.0000 0.0000
# 4 0.0000 0.0000 0.0000 34.9851 0.0000 0.0000
# 5 0.0000 0.0000 0.0000 0.0000 34.9861 0.0000
# 6 0.0000 0.0000 0.0000 0.0000 0.0000 27.2704
#
#
#
# Elastic Compliance Matrix: (Units=1/GPa)
#
#
# Indices 1 2 3 4 5 6 
#
# 1 0.013053 -0.001938 -0.002594 0.000000 0.000000 0.000000
# 2 -0.001938 0.013054 -0.002594 0.000000 0.000000 0.000000
# 3 -0.002594 -0.002594 0.010941 0.000000 0.000000 0.000000
# 4 0.000000 0.000000 0.000000 0.028584 0.000000 0.000000
# 5 0.000000 0.000000 0.000000 0.000000 0.028583 0.000000
# 6 0.000000 0.000000 0.000000 0.000000 0.000000 0.036670
#
#
# Mechanical properties :
#
#
# Convention : Reuss Voigt Hill
#
# Bulk Modulus (GPa) = 43.86739 44.55804 44.21272
# Shear Modulus (GPa) = 32.73618 33.14401 32.94010
#
# Velocity S-wave (km/s) = 3.83653 3.86035 3.84846
# Velocity P-wave (km/s) = 6.27288 6.31696 6.29496
#
# Compressibility (1/GPa) = 0.02279598
#
# Stress axis : x y z
#
# Youngs Moduli (GPa) = 76.60800 76.60510 91.39701
#
# Poissons Ratio (x) = 0.14848 0.23706
# Poissons Ratio (y) = 0.14849 0.23711
# Poissons Ratio (z) = 0.19870 0.19874
#
# Static dielectric constant tensor:
#      x y z
#    x 4.155240 0.000000 0.000000 
#    y 0.000000 4.155250 0.000000 
#    z 0.000000 0.000000 3.834260 
# 
# 
# High freq. dielectric constant tensor:
#      x y z
#    x 1.888570 0.000000 0.000000 
#    y 0.000000 1.888570 0.000000 
#    z 0.000000 0.000000 1.869110 
# 
# From -- ./inp_files/2179.got.cif
#   From: 2010.03.12/outbox.cif.g09.slc.cpg/sg130_2_cif.got.tgz:2179.got - 2010.04.06 17:30:23.
