data_PCOD8315595
_publ_section_title
;
Structure prediction by ZEFSAII (Michael W. Deem and Ramdas Pophale) SiO2 
 PCOD8315595
Probable space group: P 4/N C C
;
_chemical_formula_sum "Si O2"
_cell_formula_units_Z 96
_cell_length_a 21.827545
_cell_length_b 21.827545
_cell_length_c 9.797764
_cell_angle_alpha 90.000000
_cell_angle_beta 90.000000
_cell_angle_gamma 90.000000
_cell_volume 4668.063539
_symmetry_space_group_name_H-M "P 4/N C C"
_symmetry_group_IT_number 130
_symmetry_cell_setting 'tetragonal'
loop_
_space_group_symop_operation_xyz
x,y,z
1/2-y,x,z
1/2-x,1/2-y,z
y,1/2-x,z
1/2+x,-y,1/2-z
-x,1/2+y,1/2-z
1/2+y,1/2+x,1/2-z
-y,-x,1/2-z
-x,-y,-z
1/2+y,-x,-z
1/2+x,1/2+y,-z
-y,1/2+x,-z
1/2-x,y,1/2+z
x,1/2-y,1/2+z
1/2-y,1/2-x,1/2+z
y,x,1/2+z
loop_
_atom_site_type_symbol
_atom_site_label
_atom_site_fract_x
_atom_site_fract_y
_atom_site_fract_z
Si Si1 0.490377 0.600388 0.975020
Si Si2 0.678472 0.502530 0.210425
Si Si3 0.625844 0.333287 0.397483
Si Si4 0.297809 0.636923 0.360317
Si Si5 0.489125 0.400618 0.514830
Si Si6 0.505135 0.185329 0.269107
O O1 0.545138 0.554743 0.935873
O O2 0.509006 0.639046 0.107819
O O3 0.482413 0.650002 0.854439
O O4 0.428912 0.558300 0.988039
O O5 0.677653 0.446771 0.098752
O O6 0.629981 0.542942 0.121809
O O7 0.747757 0.529852 0.223938
O O8 0.642213 0.357788 0.250000
O O9 0.655566 0.266728 0.425958
O O10 0.652296 0.375285 0.519826
O O11 0.311611 0.688390 0.250000
O O12 0.294859 0.575792 0.269031
O O13 0.488982 0.349497 0.631826
#
# Coordination Sequence:
#
# PCOD8315595 Si02
#       6
#    16  16  16  16  16  16
#     4  11  22  37  59  85 114 147 184 230 280 331
#     4  11  22  37  56  79 110 145 182 223 274 335
#     4  11  22  34  49  68  95 136 181 226 269 308
#     4  11  22  34  49  68  95 136 181 226 269 308
#     4  11  22  37  59  85 114 147 184 230 280 331
#     4  11  22  37  56  79 110 145 182 223 274 335
#
# _framework density 20.565273000000001
#
# number of rings (size 3 to 8) (size 9 to 14) (size 15 to 20)
#    0.000    1.000    0.000    9.000    0.000   10.000 
#    0.000    0.000    0.000    0.000    0.000    0.000 
#    0.000   46.667    0.000    0.000    0.000    0.000 
#
# Total GULP energy -1189604.596014 kJ/mol
# GULP energy per Si atom -12391.714542 kJ/mol
# Density = 2.051847 g / cm^3
# Si number density = 20.565273 Si / 1000 Ang^3
#
#
#
# Elastic Constant Matrix: (Units=GPa)
#
#
# Indices 1 2 3 4 5 6 
#
# 1 73.7643 14.8058 17.3983 0.0000 0.0000 0.0000
# 2 14.8058 73.7639 17.3983 0.0000 0.0000 0.0000
# 3 17.3983 17.3983 112.5818 0.0000 0.0000 0.0000
# 4 0.0000 0.0000 0.0000 27.8183 0.0000 0.0000
# 5 0.0000 0.0000 0.0000 0.0000 27.8178 0.0000
# 6 0.0000 0.0000 0.0000 0.0000 0.0000 16.1176
#
#
#
# Elastic Compliance Matrix: (Units=1/GPa)
#
#
# Indices 1 2 3 4 5 6 
#
# 1 0.014491 -0.002470 -0.001858 0.000000 0.000000 0.000000
# 2 -0.002470 0.014491 -0.001858 0.000000 0.000000 0.000000
# 3 -0.001858 -0.001858 0.009457 0.000000 0.000000 0.000000
# 4 0.000000 0.000000 0.000000 0.035948 0.000000 0.000000
# 5 0.000000 0.000000 0.000000 0.000000 0.035948 0.000000
# 6 0.000000 0.000000 0.000000 0.000000 0.000000 0.062044
#
#
# Mechanical properties :
#
#
# Convention : Reuss Voigt Hill
#
# Bulk Modulus (GPa) = 38.36300 39.92386 39.14343
# Shear Modulus (GPa) = 25.84809 28.38459 27.11634
#
# Velocity S-wave (km/s) = 3.54910 3.71916 3.63512
# Velocity P-wave (km/s) = 5.95731 6.15616 6.05755
#
# Compressibility (1/GPa) = 0.02606678
#
# Stress axis : x y z
#
# Youngs Moduli (GPa) = 69.00987 69.00943 105.74650
#
# Poissons Ratio (x) = 0.17048 0.19643
# Poissons Ratio (y) = 0.17048 0.19644
# Poissons Ratio (z) = 0.12819 0.12819
#
# Static dielectric constant tensor:
#      x y z
#    x 3.833560 0.000000 0.000000 
#    y 0.000000 3.833570 0.000000 
#    z 0.000000 0.000000 3.721370 
# 
# 
# High freq. dielectric constant tensor:
#      x y z
#    x 1.785540 0.000000 0.000000 
#    y 0.000000 1.785540 0.000000 
#    z 0.000000 0.000000 1.823510 
# 
# From -- ./inp_files/916.got.cif
#   From: 2010.03.12/outbox.cif.g09.slc.cpg/sg130_1_cif.got.tgz:916.got - 2010.04.06 17:30:23.
