data_PCOD8315193
_publ_section_title
;
Structure prediction by ZEFSAII (Michael W. Deem and Ramdas Pophale) SiO2 
 PCOD8315193
Probable space group: P 4/N M M
;
_chemical_formula_sum "Si O2"
_cell_formula_units_Z 128
_cell_length_a 22.910283
_cell_length_b 22.910283
_cell_length_c 13.904426
_cell_angle_alpha 90.000000
_cell_angle_beta 90.000000
_cell_angle_gamma 90.000000
_cell_volume 7298.169957
_symmetry_space_group_name_H-M "P 4/N M M"
_symmetry_group_IT_number 129
_symmetry_cell_setting 'tetragonal'
loop_
_space_group_symop_operation_xyz
x,y,z
1/2-y,x,z
1/2-x,1/2-y,z
y,1/2-x,z
1/2+x,-y,-z
-x,1/2+y,-z
1/2+y,1/2+x,-z
-y,-x,-z
-x,-y,-z
1/2+y,-x,-z
1/2+x,1/2+y,-z
-y,1/2+x,-z
1/2-x,y,z
x,1/2-y,z
1/2-y,1/2-x,z
y,x,z
loop_
_atom_site_type_symbol
_atom_site_label
_atom_site_fract_x
_atom_site_fract_y
_atom_site_fract_z
Si Si1 0.814395 0.135114 0.408228
Si Si2 0.398469 0.007311 0.792341
Si Si3 0.929848 0.315056 0.910438
Si Si4 0.503661 0.093970 0.462097
Si Si5 0.502508 0.317222 0.621708
Si Si6 0.042023 0.686396 0.875654
Si Si7 0.088168 0.504908 0.247833
Si Si8 0.160795 0.814172 0.791492
O O1 0.856904 0.143097 0.500000
O O2 0.750000 0.144483 0.451206
O O3 0.823403 0.178888 0.320033
O O4 0.820605 0.071626 0.361013
O O5 0.435575 0.064426 0.826112
O O6 0.355281 0.026936 0.706368
O O7 0.359859 0.979582 0.876564
O O8 0.442175 0.956968 0.759667
O O9 0.954359 0.250000 0.892257
O O10 0.866528 0.317203 0.859936
O O11 0.925135 0.328060 0.024211
O O12 0.562432 0.062432 0.500000
O O13 0.487711 0.152313 0.520710
O O14 0.512294 0.116355 0.353190
O O15 0.450465 0.049536 0.471386
O O16 0.480072 0.250000 0.622371
O O17 0.010356 0.750000 0.880774
O O18 0.999868 0.635224 0.838802
O O19 0.091178 0.687082 0.793887
O O20 0.056395 0.443606 0.239717
O O21 0.185074 0.750000 0.825296
#
# Coordination Sequence:
#
# PCOD8315193 Si02
#       8
#    16  16  16  16  16  16  16  16
#     4  11  23  35  48  69  98 135 176 221 264 300
#     4  11  21  35  56  78 102 136 178 224 274 324
#     4  11  22  38  56  76 104 137 178 229 275 314
#     4  10  19  33  52  75 104 138 177 218 258 310
#     4  11  21  32  50  77 107 138 173 215 264 320
#     4  10  22  37  53  74 106 139 173 222 271 317
#     4  10  20  34  56  79 101 136 180 221 265 319
#     4  11  22  36  53  71  99 141 183 223 266 312
#
# _framework density 17.538643
#
# number of rings (size 3 to 8) (size 9 to 14) (size 15 to 20)
#    0.000    1.375    3.750    2.250    1.750    2.625 
#    0.000    1.875    0.000    4.500    0.000    0.000 
#    0.000   12.000    0.000   11.000    0.000    4.000 
#
# Total GULP energy -1586263.761705 kJ/mol
# GULP energy per Si atom -12392.685638 kJ/mol
# Density = 1.749872 g / cm^3
# Si number density = 17.538643 Si / 1000 Ang^3
#
#
#
# Elastic Constant Matrix: (Units=GPa)
#
#
# Indices 1 2 3 4 5 6 
#
# 1 78.3771 34.7957 38.9018 0.0000 0.0000 0.0000
# 2 34.7957 78.3775 38.9020 0.0000 0.0000 0.0000
# 3 38.9018 38.9020 92.6807 0.0000 0.0000 0.0000
# 4 0.0000 0.0000 0.0000 24.9602 0.0000 0.0000
# 5 0.0000 0.0000 0.0000 0.0000 24.9600 0.0000
# 6 0.0000 0.0000 0.0000 0.0000 0.0000 15.3044
#
#
#
# Elastic Compliance Matrix: (Units=1/GPa)
#
#
# Indices 1 2 3 4 5 6 
#
# 1 0.017683 -0.005263 -0.005213 0.000000 0.000000 0.000000
# 2 -0.005263 0.017683 -0.005213 0.000000 0.000000 0.000000
# 3 -0.005213 -0.005213 0.015166 0.000000 0.000000 0.000000
# 4 0.000000 0.000000 0.000000 0.040064 0.000000 0.000000
# 5 0.000000 0.000000 0.000000 0.000000 0.040064 0.000000
# 6 0.000000 0.000000 0.000000 0.000000 0.000000 0.065341
#
#
# Mechanical properties :
#
#
# Convention : Reuss Voigt Hill
#
# Bulk Modulus (GPa) = 52.21021 52.73715 52.47368
# Shear Modulus (GPa) = 21.38918 22.16728 21.77823
#
# Velocity S-wave (km/s) = 3.49599 3.55901 3.52764
# Velocity P-wave (km/s) = 6.79185 6.85734 6.82467
#
# Compressibility (1/GPa) = 0.01915334
#
# Stress axis : x y z
#
# Youngs Moduli (GPa) = 56.55230 56.55245 65.93659
#
# Poissons Ratio (x) = 0.29762 0.34374
# Poissons Ratio (y) = 0.29762 0.34374
# Poissons Ratio (z) = 0.29482 0.29482
#
# Static dielectric constant tensor:
#      x y z
#    x 3.259290 0.000000 0.000000 
#    y 0.000000 3.259290 0.000000 
#    z 0.000000 0.000000 3.285410 
# 
# 
# High freq. dielectric constant tensor:
#      x y z
#    x 1.654790 0.000000 0.000000 
#    y 0.000000 1.654790 0.000000 
#    z 0.000000 0.000000 1.687530 
# 
# From -- ./inp_files/4173.got.cif
#   From: 2010.03.12/outbox.cif.g09.slc.cpg/sg129_3_cif.got.tgz:4173.got - 2010.04.06 17:19:44.
