data_PCOD8315078
_publ_section_title
;
Structure prediction by ZEFSAII (Michael W. Deem and Ramdas Pophale) SiO2 
 PCOD8315078
Probable space group: P 4/N M M
;
_chemical_formula_sum "Si O2"
_cell_formula_units_Z 128
_cell_length_a 17.532928
_cell_length_b 17.532928
_cell_length_c 24.387979
_cell_angle_alpha 90.000000
_cell_angle_beta 90.000000
_cell_angle_gamma 90.000000
_cell_volume 7496.951670
_symmetry_space_group_name_H-M "P 4/N M M"
_symmetry_group_IT_number 129
_symmetry_cell_setting 'tetragonal'
loop_
_space_group_symop_operation_xyz
x,y,z
1/2-y,x,z
1/2-x,1/2-y,z
y,1/2-x,z
1/2+x,-y,-z
-x,1/2+y,-z
1/2+y,1/2+x,-z
-y,-x,-z
-x,-y,-z
1/2+y,-x,-z
1/2+x,1/2+y,-z
-y,1/2+x,-z
1/2-x,y,z
x,1/2-y,z
1/2-y,1/2-x,z
y,x,z
loop_
_atom_site_type_symbol
_atom_site_label
_atom_site_fract_x
_atom_site_fract_y
_atom_site_fract_z
Si Si1 0.334537 0.048013 0.499271
Si Si2 0.079046 0.547993 0.178670
Si Si3 0.464317 0.340733 0.270800
Si Si4 0.336145 0.040848 0.093696
Si Si5 0.959656 0.336160 0.983468
Si Si6 0.666360 0.106041 0.443433
Si Si7 0.839335 0.026288 0.611224
Si Si8 0.032257 0.159192 0.866807
O O1 0.250000 0.078970 0.489551
O O2 0.383403 0.116598 0.523119
O O3 0.337567 0.983472 0.544993
O O4 0.369225 0.021287 0.440895
O O5 0.129708 0.535059 0.233477
O O6 0.134107 0.533493 0.126629
O O7 0.012302 0.487699 0.176957
O O8 0.036193 0.630339 0.174187
O O9 0.451504 0.250000 0.262877
O O10 0.385894 0.385894 0.255850
O O11 0.485498 0.362370 0.332824
O O12 0.250000 0.058075 0.112065
O O13 0.384773 0.115228 0.109292
O O14 0.342066 0.024867 0.029341
O O15 0.927336 0.250000 0.979696
O O16 0.001095 0.359476 0.927388
O O17 0.890313 0.390313 0.000000
O O18 0.649741 0.149741 0.500000
O O19 0.750000 0.130082 0.423227
O O20 0.610166 0.124233 0.393275
O O21 0.750000 0.037854 0.606412
O O22 0.047245 0.250000 0.857580
O O23 0.111257 0.111257 0.857804
#
# Coordination Sequence:
#
# PCOD8315078 Si02
#       8
#    16  16  16  16  16  16  16  16
#     4   9  17  28  42  63  91 122 157 194 233 279
#     4   9  18  33  52  70  93 126 163 198 234 282
#     4  10  20  34  52  73  98 128 163 202 241 282
#     4  10  19  30  47  70  96 127 161 198 239 283
#     4  10  19  31  49  73 101 132 166 202 240 287
#     4   9  17  28  44  67  92 119 154 195 237 283
#     4   9  18  30  44  66  95 125 156 191 232 279
#     4  10  20  34  54  78 102 129 160 197 243 293
#
# _framework density 17.073606999999999
#
# number of rings (size 3 to 8) (size 9 to 14) (size 15 to 20)
#    0.000    2.500    1.250    2.250    0.000    4.750 
#    0.000    0.625    0.000    9.000    0.000    0.000 
#    0.000    0.000    0.000    3.750    0.000    0.250 
#
# Total GULP energy -1586285.628932 kJ/mol
# GULP energy per Si atom -12392.856476 kJ/mol
# Density = 1.703475 g / cm^3
# Si number density = 17.073607 Si / 1000 Ang^3
#
#
#
# Elastic Constant Matrix: (Units=GPa)
#
#
# Indices 1 2 3 4 5 6 
#
# 1 94.7273 58.9127 16.2751 0.0000 0.0000 0.0000
# 2 58.9127 94.7273 16.2751 0.0000 0.0000 0.0000
# 3 16.2751 16.2751 48.4373 0.0000 0.0000 0.0000
# 4 0.0000 0.0000 0.0000 20.6372 0.0000 0.0000
# 5 0.0000 0.0000 0.0000 0.0000 20.6372 0.0000
# 6 0.0000 0.0000 0.0000 0.0000 0.0000 33.8119
#
#
#
# Elastic Compliance Matrix: (Units=1/GPa)
#
#
# Indices 1 2 3 4 5 6 
#
# 1 0.017465 -0.010457 -0.002355 0.000000 0.000000 0.000000
# 2 -0.010457 0.017465 -0.002355 0.000000 0.000000 0.000000
# 3 -0.002355 -0.002355 0.022228 0.000000 0.000000 0.000000
# 4 0.000000 0.000000 0.000000 0.048456 0.000000 0.000000
# 5 0.000000 0.000000 0.000000 0.000000 0.048456 0.000000
# 6 0.000000 0.000000 0.000000 0.000000 0.000000 0.029575
#
#
# Mechanical properties :
#
#
# Convention : Reuss Voigt Hill
#
# Bulk Modulus (GPa) = 37.27949 46.75752 42.01850
# Shear Modulus (GPa) = 22.42975 24.77920 23.60447
#
# Velocity S-wave (km/s) = 3.62844 3.81375 3.72225
# Velocity P-wave (km/s) = 6.27982 6.84384 6.56789
#
# Compressibility (1/GPa) = 0.02682440
#
# Stress axis : x y z
#
# Youngs Moduli (GPa) = 57.25874 57.25874 44.98925
#
# Poissons Ratio (x) = 0.59876 0.10593
# Poissons Ratio (y) = 0.59876 0.10593
# Poissons Ratio (z) = 0.13482 0.13482
#
# Static dielectric constant tensor:
#      x y z
#    x 3.205540 0.000000 0.000000 
#    y 0.000000 3.205540 0.000000 
#    z 0.000000 0.000000 3.128070 
# 
# 
# High freq. dielectric constant tensor:
#      x y z
#    x 1.653920 0.000000 0.000000 
#    y 0.000000 1.653920 0.000000 
#    z 0.000000 0.000000 1.637910 
# 
# From -- ./inp_files/7334.got.cif
#   From: 2010.03.12/outbox.cif.g09.slc.cpg/sg129_4_cif.got.tgz:7334.got - 2010.04.06 17:19:44.
