data_PCOD8315755
_publ_section_title
;
Structure prediction by ZEFSAII (Michael W. Deem and Ramdas Pophale) SiO2 
 PCOD8315755
Probable space group: P 42/M M C
;
_chemical_formula_sum "Si O2"
_cell_formula_units_Z 120
_cell_length_a 27.131065
_cell_length_b 27.131065
_cell_length_c 9.124103
_cell_angle_alpha 90.000000
_cell_angle_beta 90.000000
_cell_angle_gamma 90.000000
_cell_volume 6716.203751
_symmetry_space_group_name_H-M "P 42/M M C"
_symmetry_group_IT_number 131
_symmetry_cell_setting 'tetragonal'
loop_
_space_group_symop_operation_xyz
x,y,z
-x,-y,z
-y,x,1/2+z
y,-x,1/2+z
-x,y,-z
x,-y,-z
y,x,1/2-z
-y,-x,1/2-z
-x,-y,-z
x,y,-z
y,-x,1/2-z
-y,x,1/2-z
x,-y,z
-x,y,z
-y,-x,1/2+z
y,x,1/2+z
loop_
_atom_site_type_symbol
_atom_site_label
_atom_site_fract_x
_atom_site_fract_y
_atom_site_fract_z
Si Si1 0.627872 0.700298 0.175083
Si Si2 0.626536 0.916442 0.829890
Si Si3 0.266053 0.795491 0.658374
Si Si4 0.189069 0.643849 0.667590
Si Si5 0.557825 0.372261 0.328363
Si Si6 0.444563 0.000000 0.824830
Si Si7 0.121881 0.187303 0.162193
Si Si8 0.265330 0.058072 0.832368
O O1 0.676510 0.676510 0.250000
O O2 0.621973 0.758255 0.216786
O O3 0.580048 0.675223 0.246471
O O4 0.629033 0.692022 0.000000
O O5 0.609192 0.859064 0.806630
O O6 0.584530 0.951941 0.762879
O O7 0.681199 0.926823 0.764050
O O8 0.630680 0.929864 0.000000
O O9 0.253737 0.746264 0.750000
O O10 0.285436 0.778143 0.500000
O O11 0.307979 0.825403 0.741516
O O12 0.218488 0.828768 0.641390
O O13 0.192647 0.660175 0.500000
O O14 0.578965 0.421036 0.250000
O O15 0.572391 0.371853 0.500000
O O16 0.500000 0.371605 0.305679
O O17 0.500000 0.000000 0.759991
O O18 0.447292 0.000000 0.000000
O O19 0.137328 0.137328 0.250000
O O20 0.081222 0.219733 0.244556
O O21 0.101990 0.172736 0.000000
O O22 0.259269 0.000000 0.820856
O O23 0.261506 0.076610 0.000000
#
# Coordination Sequence:
#
# PCOD8315755 Si02
#       8
#    16  16  16  16  16   8  16  16
#     4  10  20  33  50  73 101 139 176 210 252 301
#     4   9  16  28  45  69  99 130 167 214 265 317
#     4  10  19  28  41  63  92 128 167 201 243 291
#     4  10  19  30  46  68  98 132 170 212 255 302
#     4  10  21  37  58  82 106 134 166 202 248 301
#     4   9  16  28  48  72  97 127 165 215 274 325
#     4  10  20  32  46  68 101 138 175 213 256 307
#     4  10  18  30  51  74 100 138 178 216 266 321
#
# _framework density 17.867235999999998
#
# number of rings (size 3 to 8) (size 9 to 14) (size 15 to 20)
#    0.000    2.200    2.000    2.800    0.000    4.667 
#    0.000    1.333    0.000    2.400    0.000    0.000 
#    0.000    4.000    0.000    2.800    0.000    1.200 
#
# Total GULP energy -1486904.422067 kJ/mol
# GULP energy per Si atom -12390.870184 kJ/mol
# Density = 1.782657 g / cm^3
# Si number density = 17.867236 Si / 1000 Ang^3
#
#
#
# Elastic Constant Matrix: (Units=GPa)
#
#
# Indices 1 2 3 4 5 6 
#
# 1 107.8903 51.7287 37.9549 0.0000 0.0000 0.0000
# 2 51.7287 107.8882 37.9562 0.0000 0.0000 0.0000
# 3 37.9549 37.9562 85.3219 0.0000 0.0000 0.0000
# 4 0.0000 0.0000 0.0000 16.2629 0.0000 0.0000
# 5 0.0000 0.0000 0.0000 0.0000 16.2628 0.0000
# 6 0.0000 0.0000 0.0000 0.0000 0.0000 24.0166
#
#
#
# Elastic Compliance Matrix: (Units=1/GPa)
#
#
# Indices 1 2 3 4 5 6 
#
# 1 0.012876 -0.004930 -0.003535 0.000000 0.000000 0.000000
# 2 -0.004930 0.012876 -0.003535 0.000000 0.000000 0.000000
# 3 -0.003535 -0.003535 0.014865 0.000000 0.000000 0.000000
# 4 0.000000 0.000000 0.000000 0.061490 0.000000 0.000000
# 5 0.000000 0.000000 0.000000 0.000000 0.061490 0.000000
# 6 0.000000 0.000000 0.000000 0.000000 0.000000 0.041638
#
#
# Mechanical properties :
#
#
# Convention : Reuss Voigt Hill
#
# Bulk Modulus (GPa) = 60.17531 61.81997 60.99764
# Shear Modulus (GPa) = 21.29712 22.87250 22.08481
#
# Velocity S-wave (km/s) = 3.45623 3.58178 3.51957
# Velocity P-wave (km/s) = 7.04838 7.19585 7.12250
#
# Compressibility (1/GPa) = 0.01661811
#
# Stress axis : x y z
#
# Youngs Moduli (GPa) = 77.66484 77.66207 67.27099
#
# Poissons Ratio (x) = 0.38288 0.23777
# Poissons Ratio (y) = 0.38289 0.23781
# Poissons Ratio (z) = 0.27451 0.27454
#
# Static dielectric constant tensor:
#      x y z
#    x 3.238770 0.000000 0.000000 
#    y 0.000000 3.238770 0.000000 
#    z 0.000000 0.000000 3.394540 
# 
# 
# High freq. dielectric constant tensor:
#      x y z
#    x 1.675050 0.000000 0.000000 
#    y 0.000000 1.675050 0.000000 
#    z 0.000000 0.000000 1.680830 
# 
# From -- ./inp_files/2645.got.cif
#   From: 2010.03.12/outbox.cif.g09.slc.cpg/sg131_2_cif.got.tgz:2645.got - 2010.04.06 17:36:35.
