data_PCOD8315065
_publ_section_title
;
Structure prediction by ZEFSAII (Michael W. Deem and Ramdas Pophale) SiO2 
 PCOD8315065
Probable space group: P 4/N M M
;
_chemical_formula_sum "Si O2"
_cell_formula_units_Z 72
_cell_length_a 13.352527
_cell_length_b 13.352527
_cell_length_c 23.234495
_cell_angle_alpha 90.000000
_cell_angle_beta 90.000000
_cell_angle_gamma 90.000000
_cell_volume 4142.477586
_symmetry_space_group_name_H-M "P 4/N M M"
_symmetry_group_IT_number 129
_symmetry_cell_setting 'tetragonal'
loop_
_space_group_symop_operation_xyz
x,y,z
1/2-y,x,z
1/2-x,1/2-y,z
y,1/2-x,z
1/2+x,-y,-z
-x,1/2+y,-z
1/2+y,1/2+x,-z
-y,-x,-z
-x,-y,-z
1/2+y,-x,-z
1/2+x,1/2+y,-z
-y,1/2+x,-z
1/2-x,y,z
x,1/2-y,z
1/2-y,1/2-x,z
y,x,z
loop_
_atom_site_type_symbol
_atom_site_label
_atom_site_fract_x
_atom_site_fract_y
_atom_site_fract_z
Si Si1 0.865783 0.134218 0.000000
Si Si2 0.029128 0.868219 0.657166
Si Si3 0.367876 0.974682 0.115157
Si Si4 0.532266 0.367507 0.553617
Si Si5 0.868592 0.138978 0.772391
O O1 0.903697 0.076363 0.943848
O O2 0.750000 0.113354 0.011705
O O3 0.010387 0.750000 0.652603
O O4 0.110242 0.903049 0.610450
O O5 0.070627 0.901821 0.719121
O O6 0.923184 0.923184 0.646304
O O7 0.250000 0.989276 0.117900
O O8 0.407672 0.907984 0.168087
O O9 0.415832 0.084169 0.119327
O O10 0.599546 0.400455 0.500000
O O11 0.507905 0.250000 0.549961
O O12 0.427059 0.427059 0.554271
O O13 0.750000 0.147047 0.773909
O O14 0.915272 0.250000 0.765873
#
# Coordination Sequence:
#
# PCOD8315065 Si02
#       5
#     8  16  16  16  16
#     4   9  17  30  48  68  89 115 150 194 240 277
#     4  10  20  33  50  74 103 134 168 204 244 293
#     4  10  19  30  45  66  93 123 154 189 231 283
#     4  10  21  36  54  77 103 132 168 208 251 299
#     4   9  17  30  48  68  90 119 156 197 239 280
#
# _framework density 17.380904000000001
#
# number of rings (size 3 to 8) (size 9 to 14) (size 15 to 20)
#    0.000    2.333    0.000    3.000    0.000    5.778 
#    0.000    0.000    0.000    8.000    0.000    0.000 
#    0.000   18.222    0.000    0.000    0.000    0.000 
#
# Total GULP energy -892814.593687 kJ/mol
# GULP energy per Si atom -12400.202690 kJ/mol
# Density = 1.734134 g / cm^3
# Si number density = 17.380904 Si / 1000 Ang^3
#
#
#
# Elastic Constant Matrix: (Units=GPa)
#
#
# Indices 1 2 3 4 5 6 
#
# 1 89.1384 51.0139 43.7649 0.0000 0.0000 0.0000
# 2 51.0139 89.1362 43.7664 0.0000 0.0000 0.0000
# 3 43.7649 43.7664 135.7025 0.0000 0.0000 0.0000
# 4 0.0000 0.0000 0.0000 24.1027 0.0000 0.0000
# 5 0.0000 0.0000 0.0000 0.0000 24.1025 0.0000
# 6 0.0000 0.0000 0.0000 0.0000 0.0000 19.7145
#
#
#
# Elastic Compliance Matrix: (Units=1/GPa)
#
#
# Indices 1 2 3 4 5 6 
#
# 1 0.017582 -0.008648 -0.002881 0.000000 0.000000 0.000000
# 2 -0.008648 0.017583 -0.002882 0.000000 0.000000 0.000000
# 3 -0.002881 -0.002882 0.009228 0.000000 0.000000 0.000000
# 4 0.000000 0.000000 0.000000 0.041489 0.000000 0.000000
# 5 0.000000 0.000000 0.000000 0.000000 0.041489 0.000000
# 6 0.000000 0.000000 0.000000 0.000000 0.000000 0.050724
#
#
# Mechanical properties :
#
#
# Convention : Reuss Voigt Hill
#
# Bulk Modulus (GPa) = 64.22164 65.67419 64.94792
# Shear Modulus (GPa) = 23.57284 25.27939 24.42611
#
# Velocity S-wave (km/s) = 3.68672 3.81784 3.75286
# Velocity P-wave (km/s) = 7.42646 7.56980 7.49847
#
# Compressibility (1/GPa) = 0.01557107
#
# Stress axis : x y z
#
# Youngs Moduli (GPa) = 56.87521 56.87281 108.36867
#
# Poissons Ratio (x) = 0.49183 0.31225
# Poissons Ratio (y) = 0.49185 0.31230
# Poissons Ratio (z) = 0.16388 0.16390
#
# Static dielectric constant tensor:
#      x y z
#    x 3.066050 0.000000 0.000000 
#    y 0.000000 3.066040 0.000000 
#    z 0.000000 0.000000 3.558890 
# 
# 
# High freq. dielectric constant tensor:
#      x y z
#    x 1.656410 0.000000 0.000000 
#    y 0.000000 1.656410 0.000000 
#    z 0.000000 0.000000 1.695180 
# 
# From -- ./inp_files/6326.got.cif
#   From: 2010.03.12/outbox.cif.g09.slc.cpg/sg129_4_cif.got.tgz:6326.got - 2010.04.06 17:19:44.
