data_PCOD8315686
_publ_section_title
;
Structure prediction by ZEFSAII (Michael W. Deem and Ramdas Pophale) SiO2 
 PCOD8315686
Probable space group: P 42/M M C
;
_chemical_formula_sum "Si O2"
_cell_formula_units_Z 96
_cell_length_a 17.251410
_cell_length_b 17.251410
_cell_length_c 17.939140
_cell_angle_alpha 90.000000
_cell_angle_beta 90.000000
_cell_angle_gamma 90.000000
_cell_volume 5338.888031
_symmetry_space_group_name_H-M "P 42/M M C"
_symmetry_group_IT_number 131
_symmetry_cell_setting 'tetragonal'
loop_
_space_group_symop_operation_xyz
x,y,z
-x,-y,z
-y,x,1/2+z
y,-x,1/2+z
-x,y,-z
x,-y,-z
y,x,1/2-z
-y,-x,1/2-z
-x,-y,-z
x,y,-z
y,-x,1/2-z
-y,x,1/2-z
x,-y,z
-x,y,z
-y,-x,1/2+z
y,x,1/2+z
loop_
_atom_site_type_symbol
_atom_site_label
_atom_site_fract_x
_atom_site_fract_y
_atom_site_fract_z
Si Si1 0.586054 0.913142 0.661062
Si Si2 0.328565 0.408880 0.190322
Si Si3 0.148677 0.728154 0.082744
Si Si4 0.181715 0.647578 0.721355
Si Si5 0.670504 0.724802 0.083698
Si Si6 0.794664 0.909933 0.727089
O O1 0.500000 0.909380 0.628864
O O2 0.638745 0.861632 0.607260
O O3 0.587811 0.882654 0.747089
O O4 0.619026 0.000000 0.661404
O O5 0.398941 0.398941 0.250000
O O6 0.313614 0.500000 0.174224
O O7 0.255135 0.363606 0.224415
O O8 0.347358 0.362341 0.113882
O O9 0.239320 0.745704 0.083675
O O10 0.101113 0.783595 0.138292
O O11 0.114745 0.740450 0.000000
O O12 0.209669 0.630557 0.636842
O O13 0.144565 0.733034 0.729529
O O14 0.636197 0.730861 0.000000
O O15 0.880098 0.880098 0.750000
O O16 0.786270 0.000000 0.749235
#
# Coordination Sequence:
#
# PCOD8315686 Si02
#       6
#    16  16  16  16  16  16
#     4  10  20  31  48  77 109 139 167 201 250 305
#     4  10  19  32  53  77 105 138 173 209 250 304
#     4  10  19  32  51  76 106 139 166 201 255 309
#     4  10  17  34  53  73  97 134 177 216 249 293
#     4  10  19  31  53  78 102 130 169 214 259 300
#     4  11  20  34  54  75 102 136 176 219 258 304
#
# _framework density 17.981273000000002
#
# number of rings (size 3 to 8) (size 9 to 14) (size 15 to 20)
#    0.000    1.833    5.000    3.000    0.000    2.333 
#    0.000    2.500    0.000   16.000    0.000    7.000 
#    0.000    0.000    0.000    0.000    0.000    0.000 
#
# Total GULP energy -1189378.422915 kJ/mol
# GULP energy per Si atom -12389.358572 kJ/mol
# Density = 1.794035 g / cm^3
# Si number density = 17.981273 Si / 1000 Ang^3
#
#
#
# Elastic Constant Matrix: (Units=GPa)
#
#
# Indices 1 2 3 4 5 6 
#
# 1 54.6551 14.8435 20.1058 0.0000 0.0000 0.0000
# 2 14.8435 54.6551 20.1058 0.0000 0.0000 0.0000
# 3 20.1058 20.1058 134.5206 0.0000 0.0000 0.0000
# 4 0.0000 0.0000 0.0000 15.7521 0.0000 0.0000
# 5 0.0000 0.0000 0.0000 0.0000 15.7521 0.0000
# 6 0.0000 0.0000 0.0000 0.0000 0.0000 22.7332
#
#
#
# Elastic Compliance Matrix: (Units=1/GPa)
#
#
# Indices 1 2 3 4 5 6 
#
# 1 0.020435 -0.004684 -0.002354 0.000000 0.000000 0.000000
# 2 -0.004684 0.020435 -0.002354 0.000000 0.000000 0.000000
# 3 -0.002354 -0.002354 0.008138 0.000000 0.000000 0.000000
# 4 0.000000 0.000000 0.000000 0.063484 0.000000 0.000000
# 5 0.000000 0.000000 0.000000 0.000000 0.063484 0.000000
# 6 0.000000 0.000000 0.000000 0.000000 0.000000 0.043988
#
#
# Mechanical properties :
#
#
# Convention : Reuss Voigt Hill
#
# Bulk Modulus (GPa) = 33.08778 39.32678 36.20728
# Shear Modulus (GPa) = 20.09479 23.43253 21.76366
#
# Velocity S-wave (km/s) = 3.34659 3.61385 3.48278
# Velocity P-wave (km/s) = 5.77703 6.27150 6.02933
#
# Compressibility (1/GPa) = 0.03022264
#
# Stress axis : x y z
#
# Youngs Moduli (GPa) = 48.93656 48.93656 122.88748
#
# Poissons Ratio (x) = 0.22921 0.28930
# Poissons Ratio (y) = 0.22921 0.28930
# Poissons Ratio (z) = 0.11521 0.11521
#
# Static dielectric constant tensor:
#      x y z
#    x 3.266740 0.000000 0.000000 
#    y 0.000000 3.266740 0.000000 
#    z 0.000000 0.000000 3.530300 
# 
# 
# High freq. dielectric constant tensor:
#      x y z
#    x 1.681060 0.000000 0.000000 
#    y 0.000000 1.681060 0.000000 
#    z 0.000000 0.000000 1.680650 
# 
# From -- ./inp_files/7990.got.cif
#   From: 2010.03.12/outbox.cif.g09.slc.cpg/sg131_4_cif.got.tgz:7990.got - 2010.04.06 17:36:35.
