data_PCOD8315207
_publ_section_title
;
Structure prediction by ZEFSAII (Michael W. Deem and Ramdas Pophale) SiO2 
 PCOD8315207
Probable space group: P 4/N M M
;
_chemical_formula_sum "Si O2"
_cell_formula_units_Z 88
_cell_length_a 18.167533
_cell_length_b 18.167533
_cell_length_c 13.590496
_cell_angle_alpha 90.000000
_cell_angle_beta 90.000000
_cell_angle_gamma 90.000000
_cell_volume 4485.668989
_symmetry_space_group_name_H-M "P 4/N M M"
_symmetry_group_IT_number 129
_symmetry_cell_setting 'tetragonal'
loop_
_space_group_symop_operation_xyz
x,y,z
1/2-y,x,z
1/2-x,1/2-y,z
y,1/2-x,z
1/2+x,-y,-z
-x,1/2+y,-z
1/2+y,1/2+x,-z
-y,-x,-z
-x,-y,-z
1/2+y,-x,-z
1/2+x,1/2+y,-z
-y,1/2+x,-z
1/2-x,y,z
x,1/2-y,z
1/2-y,1/2-x,z
y,x,z
loop_
_atom_site_type_symbol
_atom_site_label
_atom_site_fract_x
_atom_site_fract_y
_atom_site_fract_z
Si Si1 0.334770 0.544739 0.004234
Si Si2 0.593071 0.331693 0.297998
Si Si3 0.667174 0.034261 0.211784
Si Si4 0.954268 0.838078 0.407110
Si Si5 0.167613 0.049077 0.188458
Si Si6 0.903142 0.403142 0.500000
O O1 0.250000 0.566189 0.024944
O O2 0.343637 0.502867 0.898665
O O3 0.380413 0.619588 0.000000
O O4 0.363035 0.490928 0.090125
O O5 0.623190 0.250000 0.274302
O O6 0.623279 0.389511 0.219662
O O7 0.504856 0.333829 0.283014
O O8 0.617988 0.352339 0.407851
O O9 0.750000 0.057865 0.232475
O O10 0.644916 0.973860 0.293002
O O11 0.953817 0.750000 0.431159
O O12 0.873440 0.873440 0.426405
O O13 0.012317 0.884228 0.473311
O O14 0.250000 0.077905 0.168856
O O15 0.118094 0.118094 0.215379
#
# Coordination Sequence:
#
# PCOD8315207 Si02
#       6
#    16  16  16  16  16   8
#     4  10  19  34  53  81 116 150 185 222 268 325
#     4  10  20  36  56  80 110 143 184 229 275 331
#     4   9  19  34  52  78 114 148 181 223 270 325
#     4  10  21  37  57  82 111 146 188 233 283 337
#     4  10  22  38  56  80 109 143 186 233 278 327
#     4  10  21  38  58  83 112 147 184 230 289 344
#
# _framework density 19.618031999999999
#
# number of rings (size 3 to 8) (size 9 to 14) (size 15 to 20)
#    0.000    2.182    1.818    0.818    0.000    6.364 
#    0.000    1.818    0.000    3.545    0.000    7.636 
#    0.000    0.000    0.000    0.000    0.000    0.000 
#
# Total GULP energy -1090560.330957 kJ/mol
# GULP energy per Si atom -12392.731034 kJ/mol
# Density = 1.957338 g / cm^3
# Si number density = 19.618032 Si / 1000 Ang^3
#
#
#
# Elastic Constant Matrix: (Units=GPa)
#
#
# Indices 1 2 3 4 5 6 
#
# 1 83.6991 55.7073 12.7714 0.0000 0.0000 0.0000
# 2 55.7073 83.6978 12.7722 0.0000 0.0000 0.0000
# 3 12.7714 12.7722 83.7051 0.0000 0.0000 0.0000
# 4 0.0000 0.0000 0.0000 18.3295 0.0000 0.0000
# 5 0.0000 0.0000 0.0000 0.0000 18.3298 0.0000
# 6 0.0000 0.0000 0.0000 0.0000 0.0000 24.3584
#
#
#
# Elastic Compliance Matrix: (Units=1/GPa)
#
#
# Indices 1 2 3 4 5 6 
#
# 1 0.021552 -0.014173 -0.001126 0.000000 0.000000 0.000000
# 2 -0.014173 0.021553 -0.001126 0.000000 0.000000 0.000000
# 3 -0.001126 -0.001126 0.012290 0.000000 0.000000 0.000000
# 4 0.000000 0.000000 0.000000 0.054557 0.000000 0.000000
# 5 0.000000 0.000000 0.000000 0.000000 0.054556 0.000000
# 6 0.000000 0.000000 0.000000 0.000000 0.000000 0.041054
#
#
# Mechanical properties :
#
#
# Convention : Reuss Voigt Hill
#
# Bulk Modulus (GPa) = 44.35455 45.95598 45.15527
# Shear Modulus (GPa) = 20.33122 23.52694 21.92908
#
# Velocity S-wave (km/s) = 3.22274 3.46678 3.34698
# Velocity P-wave (km/s) = 6.04204 6.28498 6.16470
#
# Compressibility (1/GPa) = 0.02254560
#
# Stress axis : x y z
#
# Youngs Moduli (GPa) = 46.39849 46.39766 81.36488
#
# Poissons Ratio (x) = 0.65759 0.09160
# Poissons Ratio (y) = 0.65761 0.09163
# Poissons Ratio (z) = 0.05223 0.05225
#
# Static dielectric constant tensor:
#      x y z
#    x 3.367090 0.000000 0.000000 
#    y 0.000000 3.367090 0.000000 
#    z 0.000000 0.000000 3.883910 
# 
# 
# High freq. dielectric constant tensor:
#      x y z
#    x 1.745090 0.000000 0.000000 
#    y 0.000000 1.745090 0.000000 
#    z 0.000000 0.000000 1.778550 
# 
# From -- ./inp_files/4791.got.cif
#   From: 2010.03.12/outbox.cif.g09.slc.cpg/sg129_3_cif.got.tgz:4791.got - 2010.04.06 17:19:44.
