data_PCOD8315597
_publ_section_title
;
Structure prediction by ZEFSAII (Michael W. Deem and Ramdas Pophale) SiO2 
 PCOD8315597
Probable space group: P 4/N C C
;
_chemical_formula_sum "Si O2"
_cell_formula_units_Z 112
_cell_length_a 14.618726
_cell_length_b 14.618726
_cell_length_c 27.855576
_cell_angle_alpha 90.000000
_cell_angle_beta 90.000000
_cell_angle_gamma 90.000000
_cell_volume 5952.935755
_symmetry_space_group_name_H-M "P 4/N C C"
_symmetry_group_IT_number 130
_symmetry_cell_setting 'tetragonal'
loop_
_space_group_symop_operation_xyz
x,y,z
1/2-y,x,z
1/2-x,1/2-y,z
y,1/2-x,z
1/2+x,-y,1/2-z
-x,1/2+y,1/2-z
1/2+y,1/2+x,1/2-z
-y,-x,1/2-z
-x,-y,-z
1/2+y,-x,-z
1/2+x,1/2+y,-z
-y,1/2+x,-z
1/2-x,y,1/2+z
x,1/2-y,1/2+z
1/2-y,1/2-x,1/2+z
y,x,1/2+z
loop_
_atom_site_type_symbol
_atom_site_label
_atom_site_fract_x
_atom_site_fract_y
_atom_site_fract_z
Si Si1 0.828852 0.002583 0.859074
Si Si2 0.801144 0.387903 0.556772
Si Si3 0.308130 0.891355 0.550316
Si Si4 0.636525 0.970006 0.820200
Si Si5 0.835507 0.307228 0.305923
Si Si6 0.344693 0.957418 0.343050
Si Si7 0.325894 0.118592 0.279842
O O1 0.828064 0.022874 0.915743
O O2 0.843833 0.095773 0.830632
O O3 0.735762 0.953464 0.843089
O O4 0.912620 0.935622 0.850531
O O5 0.692124 0.376291 0.562503
O O6 0.854005 0.292762 0.560128
O O7 0.821024 0.428695 0.503926
O O8 0.837776 0.453779 0.598997
O O9 0.637999 0.938662 0.765311
O O10 0.608526 0.075823 0.823226
O O11 0.750000 0.250000 0.327440
O O12 0.824038 0.324038 0.250000
O O13 0.925724 0.248968 0.317317
O O14 0.358808 0.062788 0.327072
O O15 0.373323 0.216632 0.279463
#
# Coordination Sequence:
#
# PCOD8315597 Si02
#       7
#    16  16  16  16  16  16  16
#     4  12  23  40  61  88 122 163 204 259 303 370
#     4   9  17  33  62  92 126 152 193 247 317 378
#     4   9  17  34  61  93 120 160 190 245 321 375
#     4  12  25  40  62  88 124 162 214 252 305 360
#     4  11  22  35  57  87 122 151 192 255 322 358
#     4  12  23  38  62  95 121 158 202 266 305 370
#     4  11  26  45  60  81 123 176 210 240 300 377
#
# _framework density 18.814246000000001
#
# number of rings (size 3 to 8) (size 9 to 14) (size 15 to 20)
#    0.000    1.143    5.714    2.143    4.000    0.286 
#    0.000    0.714    3.143    0.000    0.000    0.000 
#    0.000    0.000    0.000    0.000    0.000    0.000 
#
# Total GULP energy -1389058.604336 kJ/mol
# GULP energy per Si atom -12402.308967 kJ/mol
# Density = 1.877142 g / cm^3
# Si number density = 18.814246 Si / 1000 Ang^3
#
#
#
# Elastic Constant Matrix: (Units=GPa)
#
#
# Indices 1 2 3 4 5 6 
#
# 1 64.1179 23.3012 35.6577 0.0000 0.0000 0.0000
# 2 23.3012 64.1179 35.6577 0.0000 0.0000 0.0000
# 3 35.6577 35.6577 145.1527 0.0000 0.0000 0.0000
# 4 0.0000 0.0000 0.0000 21.1987 0.0000 0.0000
# 5 0.0000 0.0000 0.0000 0.0000 21.1987 0.0000
# 6 0.0000 0.0000 0.0000 0.0000 0.0000 25.5729
#
#
#
# Elastic Compliance Matrix: (Units=1/GPa)
#
#
# Indices 1 2 3 4 5 6 
#
# 1 0.019403 -0.005097 -0.003514 0.000000 0.000000 0.000000
# 2 -0.005097 0.019403 -0.003514 0.000000 0.000000 0.000000
# 3 -0.003514 -0.003514 0.008616 0.000000 0.000000 0.000000
# 4 0.000000 0.000000 0.000000 0.047173 0.000000 0.000000
# 5 0.000000 0.000000 0.000000 0.000000 0.047173 0.000000
# 6 0.000000 0.000000 0.000000 0.000000 0.000000 0.039104
#
#
# Mechanical properties :
#
#
# Convention : Reuss Voigt Hill
#
# Bulk Modulus (GPa) = 43.15801 51.40241 47.28021
# Shear Modulus (GPa) = 23.49117 25.51219 24.50168
#
# Velocity S-wave (km/s) = 3.53736 3.68639 3.61265
# Velocity P-wave (km/s) = 6.29863 6.74534 6.52581
#
# Compressibility (1/GPa) = 0.02317067
#
# Stress axis : x y z
#
# Youngs Moduli (GPa) = 51.53851 51.53851 116.06356
#
# Poissons Ratio (x) = 0.26268 0.40789
# Poissons Ratio (y) = 0.26268 0.40789
# Poissons Ratio (z) = 0.18113 0.18113
#
# Static dielectric constant tensor:
#      x y z
#    x 3.376580 0.000000 0.000000 
#    y 0.000000 3.376580 0.000000 
#    z 0.000000 0.000000 3.710510 
# 
# 
# High freq. dielectric constant tensor:
#      x y z
#    x 1.717550 0.000000 0.000000 
#    y 0.000000 1.717550 0.000000 
#    z 0.000000 0.000000 1.736670 
# 
# From -- ./inp_files/4599.got.cif
#   From: 2010.03.12/outbox.cif.g09.slc.cpg/sg130_3_cif.got.tgz:4599.got - 2010.04.06 17:30:23.
