data_PCOD8315850
_publ_section_title
;
Structure prediction by ZEFSAII (Michael W. Deem and Ramdas Pophale) SiO2 
 PCOD8315850
Probable space group: P 42/M M C
;
_chemical_formula_sum "Si O2"
_cell_formula_units_Z 80
_cell_length_a 14.727770
_cell_length_b 14.727770
_cell_length_c 20.873070
_cell_angle_alpha 90.000000
_cell_angle_beta 90.000000
_cell_angle_gamma 90.000000
_cell_volume 4527.519361
_symmetry_space_group_name_H-M "P 42/M M C"
_symmetry_group_IT_number 131
_symmetry_cell_setting 'tetragonal'
loop_
_space_group_symop_operation_xyz
x,y,z
-x,-y,z
-y,x,1/2+z
y,-x,1/2+z
-x,y,-z
x,-y,-z
y,x,1/2-z
-y,-x,1/2-z
-x,-y,-z
x,y,-z
y,-x,1/2-z
-y,x,1/2-z
x,-y,z
-x,y,z
-y,-x,1/2+z
y,x,1/2+z
loop_
_atom_site_type_symbol
_atom_site_label
_atom_site_fract_x
_atom_site_fract_y
_atom_site_fract_z
Si Si1 0.791284 0.894789 0.695028
Si Si2 0.898034 0.399214 0.853565
Si Si3 0.398938 0.608502 0.820054
Si Si4 0.604859 0.273337 0.430515
Si Si5 0.107547 0.897875 0.929122
O O1 0.834323 0.834323 0.750000
O O2 0.681713 0.882121 0.697541
O O3 0.828851 0.859097 0.626176
O O4 0.818263 0.000000 0.706119
O O5 0.880815 0.500000 0.822264
O O6 0.832554 0.385037 0.913952
O O7 0.000000 0.392449 0.880889
O O8 0.361543 0.638458 0.750000
O O9 0.399325 0.500000 0.820870
O O10 0.500000 0.646191 0.832520
O O11 0.334367 0.650823 0.874931
O O12 0.650653 0.291181 0.500000
O O13 0.500000 0.301197 0.434562
O O14 0.000000 0.897240 0.931130
O O15 0.141898 0.000000 0.913031
O O16 0.144305 0.868473 0.000000
#
# Coordination Sequence:
#
# PCOD8315850 Si02
#       5
#    16  16  16  16  16
#     4  10  19  30  48  73  97 121 153 194 236 279
#     4   9  19  34  47  61  88 125 159 192 233 283
#     4   8  14  25  41  62  89 119 148 181 229 288
#     4   9  17  28  43  63  84 110 150 197 237 271
#     4   8  14  25  41  63  94 128 153 176 220 283
#
# _framework density 17.669720000000002
#
# number of rings (size 3 to 8) (size 9 to 14) (size 15 to 20)
#    0.000    3.200    0.000    1.800    0.000    3.400 
#    0.000    6.000    0.000    0.000    0.000    0.000 
#    0.000    0.800    0.000    7.400    0.000    0.200 
#
# Total GULP energy -991069.913821 kJ/mol
# GULP energy per Si atom -12388.373923 kJ/mol
# Density = 1.762950 g / cm^3
# Si number density = 17.669720 Si / 1000 Ang^3
#
#
#
# Elastic Constant Matrix: (Units=GPa)
#
#
# Indices 1 2 3 4 5 6 
#
# 1 74.9536 30.3749 59.2889 0.0000 0.0000 0.0000
# 2 30.3749 74.9535 59.2888 0.0000 0.0000 0.0000
# 3 59.2889 59.2888 153.7636 0.0000 0.0000 0.0000
# 4 0.0000 0.0000 0.0000 16.1360 0.0000 0.0000
# 5 0.0000 0.0000 0.0000 0.0000 16.1361 0.0000
# 6 0.0000 0.0000 0.0000 0.0000 0.0000 11.6543
#
#
#
# Elastic Compliance Matrix: (Units=1/GPa)
#
#
# Indices 1 2 3 4 5 6 
#
# 1 0.019604 -0.002828 -0.006469 0.000000 0.000000 0.000000
# 2 -0.002828 0.019604 -0.006469 0.000000 0.000000 0.000000
# 3 -0.006469 -0.006469 0.011492 0.000000 0.000000 0.000000
# 4 0.000000 0.000000 0.000000 0.061973 0.000000 0.000000
# 5 0.000000 0.000000 0.000000 0.000000 0.061973 0.000000
# 6 0.000000 0.000000 0.000000 0.000000 0.000000 0.085805
#
#
# Mechanical properties :
#
#
# Convention : Reuss Voigt Hill
#
# Bulk Modulus (GPa) = 52.16468 66.84177 59.50322
# Shear Modulus (GPa) = 16.75756 19.09983 17.92869
#
# Velocity S-wave (km/s) = 3.08291 3.29132 3.18882
# Velocity P-wave (km/s) = 6.50066 7.23563 6.87797
#
# Compressibility (1/GPa) = 0.01917006
#
# Stress axis : x y z
#
# Youngs Moduli (GPa) = 51.00888 51.00879 87.01674
#
# Poissons Ratio (x) = 0.14424 0.56289
# Poissons Ratio (y) = 0.14424 0.56290
# Poissons Ratio (z) = 0.32997 0.32997
#
# Static dielectric constant tensor:
#      x y z
#    x 3.181380 0.000000 0.000000 
#    y 0.000000 3.181380 0.000000 
#    z 0.000000 0.000000 3.551550 
# 
# 
# High freq. dielectric constant tensor:
#      x y z
#    x 1.655560 0.000000 0.000000 
#    y 0.000000 1.655560 0.000000 
#    z 0.000000 0.000000 1.672910 
# 
# From -- ./inp_files/9432.got.cif
#   From: 2010.03.12/outbox.cif.g09.slc.cpg/sg131_5_cif.got.tgz:9432.got - 2010.04.06 17:36:35.
