data_PCOD8315681
_publ_section_title
;
Structure prediction by ZEFSAII (Michael W. Deem and Ramdas Pophale) SiO2 
 PCOD8315681
Probable space group: P 42/M M C
;
_chemical_formula_sum "Si O2"
_cell_formula_units_Z 112
_cell_length_a 20.048687
_cell_length_b 20.048687
_cell_length_c 17.744481
_cell_angle_alpha 90.000000
_cell_angle_beta 90.000000
_cell_angle_gamma 90.000000
_cell_volume 7132.391484
_symmetry_space_group_name_H-M "P 42/M M C"
_symmetry_group_IT_number 131
_symmetry_cell_setting 'tetragonal'
loop_
_space_group_symop_operation_xyz
x,y,z
-x,-y,z
-y,x,1/2+z
y,-x,1/2+z
-x,y,-z
x,-y,-z
y,x,1/2-z
-y,-x,1/2-z
-x,-y,-z
x,y,-z
y,-x,1/2-z
-y,x,1/2-z
x,-y,z
-x,y,z
-y,-x,1/2+z
y,x,1/2+z
loop_
_atom_site_type_symbol
_atom_site_label
_atom_site_fract_x
_atom_site_fract_y
_atom_site_fract_z
Si Si1 0.174767 0.924244 0.293498
Si Si2 0.075606 0.723502 0.417603
Si Si3 0.897562 0.681697 0.735524
Si Si4 0.788301 0.576288 0.085764
Si Si5 0.180515 0.196052 0.913565
Si Si6 0.574996 0.928397 0.350930
Si Si7 0.759638 0.310021 0.188418
O O1 0.119780 0.880221 0.250000
O O2 0.244263 0.926550 0.248606
O O3 0.190396 0.892172 0.375364
O O4 0.148383 0.000000 0.303744
O O5 0.086861 0.690222 0.500000
O O6 0.092601 0.668403 0.353837
O O7 0.123440 0.787093 0.408775
O O8 0.000000 0.749836 0.409694
O O9 0.936055 0.624816 0.780843
O O10 0.821291 0.677116 0.757352
O O11 0.774087 0.500000 0.108657
O O12 0.867050 0.594675 0.094584
O O13 0.744100 0.624067 0.139050
O O14 0.767862 0.589536 0.000000
O O15 0.226802 0.248047 0.867477
O O16 0.172496 0.220690 0.000000
O O17 0.500000 0.916711 0.320167
O O18 0.578842 0.000000 0.394604
O O19 0.701314 0.298687 0.250000
#
# Coordination Sequence:
#
# PCOD8315681 Si02
#       7
#    16  16  16  16  16  16  16
#     4  11  21  32  45  61  79 107 142 179 229 282
#     4  10  18  27  42  61  79 103 138 180 224 268
#     4  10  17  31  46  60  83 111 143 186 224 271
#     4   9  18  30  44  65  96 130 157 186 226 270
#     4  10  19  31  45  64  85 108 141 185 232 274
#     4   9  17  27  43  66  88 117 154 187 223 267
#     4  10  17  30  47  68  91 118 150 188 224 264
#
# _framework density 15.703009
#
# number of rings (size 3 to 8) (size 9 to 14) (size 15 to 20)
#    0.000    2.143    2.857    2.571    0.000    0.714 
#    0.000    1.429    0.000    5.571    0.000    5.000 
#    0.000    2.571    0.000    1.571    0.000    0.000 
#
# Total GULP energy -1387804.096328 kJ/mol
# GULP energy per Si atom -12391.108003 kJ/mol
# Density = 1.566727 g / cm^3
# Si number density = 15.703009 Si / 1000 Ang^3
#
#
#
# Elastic Constant Matrix: (Units=GPa)
#
#
# Indices 1 2 3 4 5 6 
#
# 1 65.9411 23.8375 35.3927 0.0000 0.0000 0.0000
# 2 23.8375 65.9402 35.3929 0.0000 0.0000 0.0000
# 3 35.3927 35.3929 112.4319 0.0000 0.0000 0.0000
# 4 0.0000 0.0000 0.0000 18.9123 0.0000 0.0000
# 5 0.0000 0.0000 0.0000 0.0000 18.9124 0.0000
# 6 0.0000 0.0000 0.0000 0.0000 0.0000 11.7673
#
#
#
# Elastic Compliance Matrix: (Units=1/GPa)
#
#
# Indices 1 2 3 4 5 6 
#
# 1 0.019283 -0.004468 -0.004664 0.000000 0.000000 0.000000
# 2 -0.004468 0.019284 -0.004664 0.000000 0.000000 0.000000
# 3 -0.004664 -0.004664 0.011831 0.000000 0.000000 0.000000
# 4 0.000000 0.000000 0.000000 0.052876 0.000000 0.000000
# 5 0.000000 0.000000 0.000000 0.000000 0.052875 0.000000
# 6 0.000000 0.000000 0.000000 0.000000 0.000000 0.084981
#
#
# Mechanical properties :
#
#
# Convention : Reuss Voigt Hill
#
# Bulk Modulus (GPa) = 43.84696 48.17325 46.01010
# Shear Modulus (GPa) = 18.09476 19.89775 18.99626
#
# Velocity S-wave (km/s) = 3.39825 3.56354 3.48188
# Velocity P-wave (km/s) = 6.58641 6.90479 6.74747
#
# Compressibility (1/GPa) = 0.02280660
#
# Stress axis : x y z
#
# Youngs Moduli (GPa) = 51.85830 51.85727 84.52651
#
# Poissons Ratio (x) = 0.23168 0.39422
# Poissons Ratio (y) = 0.23169 0.39423
# Poissons Ratio (z) = 0.24186 0.24186
#
# Static dielectric constant tensor:
#      x y z
#    x 2.888040 0.000000 0.000000 
#    y 0.000000 2.888040 0.000000 
#    z 0.000000 0.000000 3.225390 
# 
# 
# High freq. dielectric constant tensor:
#      x y z
#    x 1.577070 0.000000 0.000000 
#    y 0.000000 1.577070 0.000000 
#    z 0.000000 0.000000 1.609170 
# 
# From -- ./inp_files/8340.got.cif
#   From: 2010.03.12/outbox.cif.g09.slc.cpg/sg131_5_cif.got.tgz:8340.got - 2010.04.06 17:36:35.
