data_PCOD8315966
_publ_section_title
;
Structure prediction by ZEFSAII (Michael W. Deem and Ramdas Pophale) SiO2 
 PCOD8315966
Probable space group: P 42/M M C
;
_chemical_formula_sum "Si O2"
_cell_formula_units_Z 56
_cell_length_a 17.688940
_cell_length_b 17.688940
_cell_length_c 9.930839
_cell_angle_alpha 90.000000
_cell_angle_beta 90.000000
_cell_angle_gamma 90.000000
_cell_volume 3107.345603
_symmetry_space_group_name_H-M "P 42/M M C"
_symmetry_group_IT_number 131
_symmetry_cell_setting 'tetragonal'
loop_
_space_group_symop_operation_xyz
x,y,z
-x,-y,z
-y,x,1/2+z
y,-x,1/2+z
-x,y,-z
x,-y,-z
y,x,1/2-z
-y,-x,1/2-z
-x,-y,-z
x,y,-z
y,-x,1/2-z
-y,x,1/2-z
x,-y,z
-x,y,z
-y,-x,1/2+z
y,x,1/2+z
loop_
_atom_site_type_symbol
_atom_site_label
_atom_site_fract_x
_atom_site_fract_y
_atom_site_fract_z
Si Si1 0.414070 0.675443 0.000000
Si Si2 0.089658 0.348933 0.500000
Si Si3 0.586591 0.801720 0.782505
Si Si4 0.087785 0.087785 0.750000
Si Si5 0.824802 0.911542 0.000000
Si Si6 0.410062 0.259709 0.500000
O O1 0.402884 0.725915 0.867883
O O2 0.500000 0.640428 0.000000
O O3 0.348265 0.613172 0.000000
O O4 0.126604 0.378752 0.638536
O O5 0.109083 0.261629 0.500000
O O6 0.000000 0.366653 0.500000
O O7 0.500000 0.823437 0.765646
O O8 0.620907 0.784877 0.633036
O O9 0.123376 0.134439 0.628318
O O10 0.000000 0.103384 0.776685
O O11 0.840944 0.000000 0.000000
O O12 0.500000 0.261116 0.500000
#
# Coordination Sequence:
#
# PCOD8315966 Si02
#       6
#     8   8  16   8   8   8
#     4   9  17  32  53  77 109 144 177 206 241 310
#     4  10  20  37  55  72  99 133 176 224 263 310
#     4   9  19  35  53  75 101 133 172 214 259 308
#     4   9  16  30  52  74 100 136 168 194 239 302
#     4   9  18  32  49  73 102 127 161 210 250 289
#     4  10  19  33  53  78 111 137 166 219 262 303
#
# _framework density 18.021812000000001
#
# number of rings (size 3 to 8) (size 9 to 14) (size 15 to 20)
#    0.000    2.714    0.000    2.571    0.000    3.143 
#   10.286    0.714    0.000   11.143    0.000    0.000 
#    0.000    0.000    0.000    0.000    0.000    0.000 
#
# Total GULP energy -693901.474057 kJ/mol
# GULP energy per Si atom -12391.097751 kJ/mol
# Density = 1.798079 g / cm^3
# Si number density = 18.021812 Si / 1000 Ang^3
#
#
#
# Elastic Constant Matrix: (Units=GPa)
#
#
# Indices 1 2 3 4 5 6 
#
# 1 70.9209 48.4302 57.4185 0.0000 0.0000 0.0000
# 2 48.4302 70.9209 57.4185 0.0000 0.0000 0.0000
# 3 57.4185 57.4185 181.4192 0.0000 0.0000 0.0000
# 4 0.0000 0.0000 0.0000 17.8052 0.0000 0.0000
# 5 0.0000 0.0000 0.0000 0.0000 17.8052 0.0000
# 6 0.0000 0.0000 0.0000 0.0000 0.0000 24.8712
#
#
#
# Elastic Compliance Matrix: (Units=1/GPa)
#
#
# Indices 1 2 3 4 5 6 
#
# 1 0.028255 -0.016208 -0.003813 0.000000 0.000000 0.000000
# 2 -0.016208 0.028255 -0.003813 0.000000 0.000000 0.000000
# 3 -0.003813 -0.003813 0.007926 0.000000 0.000000 0.000000
# 4 0.000000 0.000000 0.000000 0.056163 0.000000 0.000000
# 5 0.000000 0.000000 0.000000 0.000000 0.056163 0.000000
# 6 0.000000 0.000000 0.000000 0.000000 0.000000 0.040207
#
#
# Mechanical properties :
#
#
# Convention : Reuss Voigt Hill
#
# Bulk Modulus (GPa) = 59.63521 72.19947 65.91734
# Shear Modulus (GPa) = 18.50303 22.76260 20.63281
#
# Velocity S-wave (km/s) = 3.20770 3.55781 3.38728
# Velocity P-wave (km/s) = 6.84701 7.55159 7.20791
#
# Compressibility (1/GPa) = 0.01676862
#
# Stress axis : x y z
#
# Youngs Moduli (GPa) = 35.39193 35.39193 126.17250
#
# Poissons Ratio (x) = 0.57362 0.48109
# Poissons Ratio (y) = 0.57362 0.48109
# Poissons Ratio (z) = 0.13495 0.13495
#
# Static dielectric constant tensor:
#      x y z
#    x 3.188740 0.000000 0.000000 
#    y 0.000000 3.188740 0.000000 
#    z 0.000000 0.000000 3.874670 
# 
# 
# High freq. dielectric constant tensor:
#      x y z
#    x 1.680890 0.000000 0.000000 
#    y 0.000000 1.680890 0.000000 
#    z 0.000000 0.000000 1.714950 
# 
# From -- ./inp_files/1339.got.cif
#   From: 2010.03.12/outbox.cif.g09.slc.cpg/sg131_1_cif.got.tgz:1339.got - 2010.04.06 17:36:35.
