data_PCOD8315628
_publ_section_title
;
Structure prediction by ZEFSAII (Michael W. Deem and Ramdas Pophale) SiO2 
 PCOD8315628
Probable space group: P 4/N C C
;
_chemical_formula_sum "Si O2"
_cell_formula_units_Z 56
_cell_length_a 12.917807
_cell_length_b 12.917807
_cell_length_c 12.328117
_cell_angle_alpha 90.000000
_cell_angle_beta 90.000000
_cell_angle_gamma 90.000000
_cell_volume 2057.189650
_symmetry_space_group_name_H-M "P 4/N C C"
_symmetry_group_IT_number 130
_symmetry_cell_setting 'tetragonal'
loop_
_space_group_symop_operation_xyz
x,y,z
1/2-y,x,z
1/2-x,1/2-y,z
y,1/2-x,z
1/2+x,-y,1/2-z
-x,1/2+y,1/2-z
1/2+y,1/2+x,1/2-z
-y,-x,1/2-z
-x,-y,-z
1/2+y,-x,-z
1/2+x,1/2+y,-z
-y,1/2+x,-z
1/2-x,y,1/2+z
x,1/2-y,1/2+z
1/2-y,1/2-x,1/2+z
y,x,1/2+z
loop_
_atom_site_type_symbol
_atom_site_label
_atom_site_fract_x
_atom_site_fract_y
_atom_site_fract_z
Si Si1 0.688129 0.901117 0.191260
Si Si2 0.899136 0.811082 0.937495
Si Si3 0.369700 0.869700 0.750000
Si Si4 0.207722 0.876087 0.564924
O O1 0.612925 0.807280 0.238659
O O2 0.694255 0.879813 0.064258
O O3 0.639605 0.013505 0.207180
O O4 0.808776 0.887527 0.889967
O O5 0.015466 0.850717 0.915951
O O6 0.280263 0.848293 0.664260
O O7 0.286115 0.877355 0.458316
#
# Coordination Sequence:
#
# PCOD8315628 Si02
#       4
#    16  16   8  16
#     4   9  20  44  71 101 141 180 234 291 338 406
#     4   9  19  42  72  99 133 180 228 280 339 409
#     4  12  24  45  70 105 132 186 236 278 360 409
#     4  11  25  44  63  97 138 177 221 285 342 412
#
# _framework density 27.221603999999999
#
# number of rings (size 3 to 8) (size 9 to 14) (size 15 to 20)
#    0.000    2.000    2.857    1.714    0.000    5.714 
#   10.286    2.857    0.000    0.000    0.000    0.000 
#    0.000    0.000    0.000    0.000    0.000    0.000 
#
# Total GULP energy -693932.602490 kJ/mol
# GULP energy per Si atom -12391.653616 kJ/mol
# Density = 2.715965 g / cm^3
# Si number density = 27.221604 Si / 1000 Ang^3
#
#
#
# Elastic Constant Matrix: (Units=GPa)
#
#
# Indices 1 2 3 4 5 6 
#
# 1 88.7232 -0.2253 4.7825 0.0000 0.0000 0.0000
# 2 -0.2253 88.7232 4.7825 0.0000 0.0000 0.0000
# 3 4.7825 4.7825 40.5280 0.0000 0.0000 0.0000
# 4 0.0000 0.0000 0.0000 38.1792 0.0000 0.0000
# 5 0.0000 0.0000 0.0000 0.0000 38.1792 0.0000
# 6 0.0000 0.0000 0.0000 0.0000 0.0000 38.2477
#
#
#
# Elastic Compliance Matrix: (Units=1/GPa)
#
#
# Indices 1 2 3 4 5 6 
#
# 1 0.011344 0.000102 -0.001351 0.000000 0.000000 0.000000
# 2 0.000102 0.011344 -0.001351 0.000000 0.000000 0.000000
# 3 -0.001351 -0.001351 0.024993 0.000000 0.000000 0.000000
# 4 0.000000 0.000000 0.000000 0.026192 0.000000 0.000000
# 5 0.000000 0.000000 0.000000 0.000000 0.026192 0.000000
# 6 0.000000 0.000000 0.000000 0.000000 0.000000 0.026145
#
#
# Mechanical properties :
#
#
# Convention : Reuss Voigt Hill
#
# Bulk Modulus (GPa) = 23.53948 26.29488 24.91718
# Shear Modulus (GPa) = 34.34749 36.83021 35.58885
#
# Velocity S-wave (km/s) = 3.55600 3.68227 3.61969
# Velocity P-wave (km/s) = 5.05235 5.26872 5.16167
#
# Compressibility (1/GPa) = 0.04248182
#
# Stress axis : x y z
#
# Youngs Moduli (GPa) = 88.15179 88.15179 40.01115
#
# Poissons Ratio (x) = -0.00896 0.05404
# Poissons Ratio (y) = -0.00896 0.05404
# Poissons Ratio (z) = 0.11906 0.11906
#
# Static dielectric constant tensor:
#      x y z
#    x 4.966020 0.000000 0.000000 
#    y 0.000000 4.966020 0.000000 
#    z 0.000000 0.000000 5.815470 
# 
# 
# High freq. dielectric constant tensor:
#      x y z
#    x 2.080180 0.000000 0.000000 
#    y 0.000000 2.080180 0.000000 
#    z 0.000000 0.000000 2.158460 
# 
# From -- ./inp_files/2790.got.cif
#   From: 2010.03.12/outbox.cif.g09.slc.cpg/sg130_2_cif.got.tgz:2790.got - 2010.04.06 17:30:23.
