data_PCOD8315342
_publ_section_title
;
Structure prediction by ZEFSAII (Michael W. Deem and Ramdas Pophale) SiO2 
 PCOD8315342
Probable space group: P 4/N M M
;
_chemical_formula_sum "Si O2"
_cell_formula_units_Z 96
_cell_length_a 23.084330
_cell_length_b 23.084330
_cell_length_c 10.103495
_cell_angle_alpha 90.000000
_cell_angle_beta 90.000000
_cell_angle_gamma 90.000000
_cell_volume 5384.013982
_symmetry_space_group_name_H-M "P 4/N M M"
_symmetry_group_IT_number 129
_symmetry_cell_setting 'tetragonal'
loop_
_space_group_symop_operation_xyz
x,y,z
1/2-y,x,z
1/2-x,1/2-y,z
y,1/2-x,z
1/2+x,-y,-z
-x,1/2+y,-z
1/2+y,1/2+x,-z
-y,-x,-z
-x,-y,-z
1/2+y,-x,-z
1/2+x,1/2+y,-z
-y,1/2+x,-z
1/2-x,y,z
x,1/2-y,z
1/2-y,1/2-x,z
y,x,z
loop_
_atom_site_type_symbol
_atom_site_label
_atom_site_fract_x
_atom_site_fract_y
_atom_site_fract_z
Si Si1 0.385612 0.018472 0.371114
Si Si2 0.887457 0.117308 0.647053
Si Si3 0.503189 0.681786 0.364356
Si Si4 0.591914 0.684791 0.136732
Si Si5 0.410608 0.182938 0.163645
Si Si6 0.314603 0.818161 0.851987
O O1 0.445369 0.054632 0.377017
O O2 0.344944 0.039363 0.252179
O O3 0.400938 0.951299 0.346543
O O4 0.350134 0.027784 0.506220
O O5 0.866011 0.133990 0.500000
O O6 0.943169 0.154739 0.681765
O O7 0.839095 0.136282 0.751007
O O8 0.497317 0.750000 0.394179
O O9 0.542853 0.667883 0.239622
O O10 0.612645 0.750000 0.156894
O O11 0.647815 0.647815 0.168744
O O12 0.568629 0.674968 0.987785
O O13 0.401650 0.250000 0.201249
O O14 0.349477 0.150524 0.188273
O O15 0.250000 0.843813 0.821814
O O16 0.311022 0.750000 0.839598
O O17 0.334987 0.834987 0.000000
#
# Coordination Sequence:
#
# PCOD8315342 Si02
#       6
#    16  16  16  16  16  16
#     4  10  21  36  53  74 102 138 176 213 255 304
#     4  10  22  35  52  77 103 132 171 213 255 303
#     4  10  20  34  53  75 100 131 168 210 254 304
#     4   9  18  32  51  75 101 131 165 204 253 303
#     4   9  18  33  52  75 103 132 167 210 253 302
#     4   9  19  36  56  78 105 136 169 207 255 310
#
# _framework density 17.830563000000001
#
# number of rings (size 3 to 8) (size 9 to 14) (size 15 to 20)
#    0.000    2.500    0.000    2.000    0.000    9.333 
#    0.000    5.833    0.000    3.500    0.000    2.333 
#    0.000    0.000    0.000    0.000    0.000    0.000 
#
# Total GULP energy -1190285.752516 kJ/mol
# GULP energy per Si atom -12398.809922 kJ/mol
# Density = 1.778998 g / cm^3
# Si number density = 17.830563 Si / 1000 Ang^3
#
#
#
# Elastic Constant Matrix: (Units=GPa)
#
#
# Indices 1 2 3 4 5 6 
#
# 1 68.8861 33.2962 58.9855 0.0000 0.0000 0.0000
# 2 33.2962 68.8863 58.9851 0.0000 0.0000 0.0000
# 3 58.9855 58.9851 112.7886 0.0000 0.0000 0.0000
# 4 0.0000 0.0000 0.0000 28.4190 0.0000 0.0000
# 5 0.0000 0.0000 0.0000 0.0000 28.4193 0.0000
# 6 0.0000 0.0000 0.0000 0.0000 0.0000 29.8210
#
#
#
# Elastic Compliance Matrix: (Units=1/GPa)
#
#
# Indices 1 2 3 4 5 6 
#
# 1 0.026399 -0.001699 -0.012917 0.000000 0.000000 0.000000
# 2 -0.001699 0.026398 -0.012917 0.000000 0.000000 0.000000
# 3 -0.012917 -0.012917 0.022377 0.000000 0.000000 0.000000
# 4 0.000000 0.000000 0.000000 0.035188 0.000000 0.000000
# 5 0.000000 0.000000 0.000000 0.000000 0.035187 0.000000
# 6 0.000000 0.000000 0.000000 0.000000 0.000000 0.033533
#
#
# Mechanical properties :
#
#
# Convention : Reuss Voigt Hill
#
# Bulk Modulus (GPa) = 49.73381 61.45497 55.59439
# Shear Modulus (GPa) = 20.75970 23.95147 22.35558
#
# Velocity S-wave (km/s) = 3.41585 3.66906 3.54472
# Velocity P-wave (km/s) = 6.59624 7.24501 6.92822
#
# Compressibility (1/GPa) = 0.02010705
#
# Stress axis : x y z
#
# Youngs Moduli (GPa) = 37.88058 37.88116 44.68943
#
# Poissons Ratio (x) = 0.06437 0.57726
# Poissons Ratio (y) = 0.06437 0.57725
# Poissons Ratio (z) = 0.48931 0.48931
#
# Static dielectric constant tensor:
#      x y z
#    x 3.300920 0.000000 0.000000 
#    y 0.000000 3.300920 0.000000 
#    z 0.000000 0.000000 3.528820 
# 
# 
# High freq. dielectric constant tensor:
#      x y z
#    x 1.689200 0.000000 0.000000 
#    y 0.000000 1.689200 0.000000 
#    z 0.000000 0.000000 1.701030 
# 
# From -- ./inp_files/2672.got.cif
#   From: 2010.03.12/outbox.cif.g09.slc.cpg/sg129_2_cif.got.tgz:2672.got - 2010.04.06 17:19:44.
