data_PCOD8315376
_publ_section_title
;
Structure prediction by ZEFSAII (Michael W. Deem and Ramdas Pophale) SiO2 
 PCOD8315376
Probable space group: P 4/N M M
;
_chemical_formula_sum "Si O2"
_cell_formula_units_Z 88
_cell_length_a 13.113076
_cell_length_b 13.113076
_cell_length_c 29.140280
_cell_angle_alpha 90.000000
_cell_angle_beta 90.000000
_cell_angle_gamma 90.000000
_cell_volume 5010.751637
_symmetry_space_group_name_H-M "P 4/N M M"
_symmetry_group_IT_number 129
_symmetry_cell_setting 'tetragonal'
loop_
_space_group_symop_operation_xyz
x,y,z
1/2-y,x,z
1/2-x,1/2-y,z
y,1/2-x,z
1/2+x,-y,-z
-x,1/2+y,-z
1/2+y,1/2+x,-z
-y,-x,-z
-x,-y,-z
1/2+y,-x,-z
1/2+x,1/2+y,-z
-y,1/2+x,-z
1/2-x,y,z
x,1/2-y,z
1/2-y,1/2-x,z
y,x,z
loop_
_atom_site_type_symbol
_atom_site_label
_atom_site_fract_x
_atom_site_fract_y
_atom_site_fract_z
Si Si1 0.131629 0.966386 0.284593
Si Si2 0.495666 0.004335 0.880891
Si Si3 0.535073 0.132085 0.630124
Si Si4 0.632117 0.867884 0.943917
Si Si5 0.631800 0.631800 0.047482
Si Si6 0.464661 0.868010 0.543327
Si Si7 0.631222 0.367460 0.186908
O O1 0.250000 0.990799 0.290890
O O2 0.095131 0.886481 0.322702
O O3 0.107067 0.917550 0.235728
O O4 0.073148 0.073148 0.290111
O O5 0.570925 0.929076 0.906424
O O6 0.418131 0.939237 0.850874
O O7 0.433213 0.066788 0.917810
O O8 0.506777 0.250000 0.625676
O O9 0.608235 0.098932 0.588877
O O10 0.429285 0.070716 0.628563
O O11 0.608273 0.750000 0.935872
O O12 0.601017 0.898983 0.995641
O O13 0.750000 0.608341 0.055955
O O14 0.394870 0.894870 0.500000
O O15 0.494227 0.750000 0.542242
O O16 0.570112 0.929889 0.542080
O O17 0.750000 0.392827 0.189538
O O18 0.612090 0.250000 0.173366
#
# Coordination Sequence:
#
# PCOD8315376 Si02
#       7
#    16   8  16   8   8  16  16
#     4  10  20  36  55  78 105 138 176 214 257 311
#     4  12  19  32  54  80 102 134 173 216 256 308
#     4  10  21  36  56  80 106 141 183 224 267 321
#     4   9  19  35  53  75 105 137 171 212 256 306
#     4   9  19  35  53  75 103 137 175 212 254 304
#     4  10  21  36  54  80 111 141 179 227 276 328
#     4  10  21  35  51  74 105 137 169 212 262 309
#
# _framework density 17.562235000000001
#
# number of rings (size 3 to 8) (size 9 to 14) (size 15 to 20)
#    0.000    2.000    0.909    3.545    0.000    3.636 
#    0.000    0.000    0.000    6.545    0.000    7.636 
#    0.000    0.000    0.000    0.000    0.000    0.000 
#
# Total GULP energy -1091491.452972 kJ/mol
# GULP energy per Si atom -12403.311966 kJ/mol
# Density = 1.752226 g / cm^3
# Si number density = 17.562235 Si / 1000 Ang^3
#
#
#
# Elastic Constant Matrix: (Units=GPa)
#
#
# Indices 1 2 3 4 5 6 
#
# 1 89.2507 63.0918 36.3994 0.0000 0.0000 0.0000
# 2 63.0918 89.2507 36.3994 0.0000 0.0000 0.0000
# 3 36.3994 36.3994 60.2314 0.0000 0.0000 0.0000
# 4 0.0000 0.0000 0.0000 33.2313 0.0000 0.0000
# 5 0.0000 0.0000 0.0000 0.0000 33.2313 0.0000
# 6 0.0000 0.0000 0.0000 0.0000 0.0000 20.7833
#
#
#
# Elastic Compliance Matrix: (Units=1/GPa)
#
#
# Indices 1 2 3 4 5 6 
#
# 1 0.023729 -0.014499 -0.005578 0.000000 0.000000 0.000000
# 2 -0.014499 0.023729 -0.005578 0.000000 0.000000 0.000000
# 3 -0.005578 -0.005578 0.023344 0.000000 0.000000 0.000000
# 4 0.000000 0.000000 0.000000 0.030092 0.000000 0.000000
# 5 0.000000 0.000000 0.000000 0.000000 0.030092 0.000000
# 6 0.000000 0.000000 0.000000 0.000000 0.000000 0.048116
#
#
# Mechanical properties :
#
#
# Convention : Reuss Voigt Hill
#
# Bulk Modulus (GPa) = 51.30169 56.72378 54.01274
# Shear Modulus (GPa) = 21.10528 24.30534 22.70531
#
# Velocity S-wave (km/s) = 3.47038 3.72419 3.59952
# Velocity P-wave (km/s) = 6.73296 7.13173 6.93522
#
# Compressibility (1/GPa) = 0.01949253
#
# Stress axis : x y z
#
# Youngs Moduli (GPa) = 42.14309 42.14309 42.83753
#
# Poissons Ratio (x) = 0.61104 0.23893
# Poissons Ratio (y) = 0.61104 0.23893
# Poissons Ratio (z) = 0.23506 0.23506
#
# Static dielectric constant tensor:
#      x y z
#    x 3.202570 0.000000 0.000000 
#    y 0.000000 3.202570 0.000000 
#    z 0.000000 0.000000 3.442250 
# 
# 
# High freq. dielectric constant tensor:
#      x y z
#    x 1.680380 0.000000 0.000000 
#    y 0.000000 1.680380 0.000000 
#    z 0.000000 0.000000 1.696660 
# 
# From -- ./inp_files/7800.got.cif
#   From: 2010.03.12/outbox.cif.g09.slc.cpg/sg129_4_cif.got.tgz:7800.got - 2010.04.06 17:19:44.
