data_PCOD8315580
_publ_section_title
;
Structure prediction by ZEFSAII (Michael W. Deem and Ramdas Pophale) SiO2 
 PCOD8315580
Probable space group: P 4/N C C
;
_chemical_formula_sum "Si O2"
_cell_formula_units_Z 64
_cell_length_a 14.721556
_cell_length_b 14.721556
_cell_length_c 13.720756
_cell_angle_alpha 90.000000
_cell_angle_beta 90.000000
_cell_angle_gamma 90.000000
_cell_volume 2973.620019
_symmetry_space_group_name_H-M "P 4/N C C"
_symmetry_group_IT_number 130
_symmetry_cell_setting 'tetragonal'
loop_
_space_group_symop_operation_xyz
x,y,z
1/2-y,x,z
1/2-x,1/2-y,z
y,1/2-x,z
1/2+x,-y,1/2-z
-x,1/2+y,1/2-z
1/2+y,1/2+x,1/2-z
-y,-x,1/2-z
-x,-y,-z
1/2+y,-x,-z
1/2+x,1/2+y,-z
-y,1/2+x,-z
1/2-x,y,1/2+z
x,1/2-y,1/2+z
1/2-y,1/2-x,1/2+z
y,x,1/2+z
loop_
_atom_site_type_symbol
_atom_site_label
_atom_site_fract_x
_atom_site_fract_y
_atom_site_fract_z
Si Si1 0.148706 0.710477 0.390454
Si Si2 0.532411 0.278672 0.430568
Si Si3 0.472190 0.673007 0.256280
Si Si4 0.309223 0.387840 0.077794
O O1 0.250000 0.750000 0.399023
O O2 0.150288 0.600872 0.378466
O O3 0.091325 0.728460 0.487372
O O4 0.100492 0.755042 0.297927
O O5 0.496984 0.206187 0.350833
O O6 0.448005 0.330351 0.481571
O O7 0.425808 0.574193 0.250000
O O8 0.560724 0.664780 0.323255
O O9 0.201973 0.368629 0.075365
#
# Coordination Sequence:
#
# PCOD8315580 Si02
#       4
#    16  16  16  16
#     4  11  18  32  60  96 134 167 194 247 331 407
#     4  11  19  34  61  94 121 165 212 256 317 398
#     4  11  22  36  65 100 132 163 211 271 336 398
#     4  10  25  48  65  83 123 180 233 279 324 384
#
# _framework density 21.522589
#
# number of rings (size 3 to 8) (size 9 to 14) (size 15 to 20)
#    0.000    1.250    5.000    2.250    0.000    2.000 
#    0.000   18.750    0.000    0.000    0.000    0.000 
#    0.000    0.000    0.000    0.000    0.000    0.000 
#
# Total GULP energy -793476.722005 kJ/mol
# GULP energy per Si atom -12398.073781 kJ/mol
# Density = 2.147360 g / cm^3
# Si number density = 21.522589 Si / 1000 Ang^3
#
#
#
# Elastic Constant Matrix: (Units=GPa)
#
#
# Indices 1 2 3 4 5 6 
#
# 1 85.8145 17.5325 11.8230 0.0000 0.0000 0.0000
# 2 17.5325 85.8153 11.8231 0.0000 0.0000 0.0000
# 3 11.8230 11.8231 108.6306 0.0000 0.0000 0.0000
# 4 0.0000 0.0000 0.0000 21.4069 0.0000 0.0000
# 5 0.0000 0.0000 0.0000 0.0000 21.4065 0.0000
# 6 0.0000 0.0000 0.0000 0.0000 0.0000 25.2120
#
#
#
# Elastic Compliance Matrix: (Units=1/GPa)
#
#
# Indices 1 2 3 4 5 6 
#
# 1 0.012284 -0.002361 -0.001080 0.000000 0.000000 0.000000
# 2 -0.002361 0.012284 -0.001080 0.000000 0.000000 0.000000
# 3 -0.001080 -0.001080 0.009441 0.000000 0.000000 0.000000
# 4 0.000000 0.000000 0.000000 0.046714 0.000000 0.000000
# 5 0.000000 0.000000 0.000000 0.000000 0.046715 0.000000
# 6 0.000000 0.000000 0.000000 0.000000 0.000000 0.039664
#
#
# Mechanical properties :
#
#
# Convention : Reuss Voigt Hill
#
# Bulk Modulus (GPa) = 40.05292 40.29084 40.17188
# Shear Modulus (GPa) = 27.10533 29.54386 28.32460
#
# Velocity S-wave (km/s) = 3.55264 3.70900 3.63166
# Velocity P-wave (km/s) = 5.95638 6.09124 6.02419
#
# Compressibility (1/GPa) = 0.02496697
#
# Stress axis : x y z
#
# Youngs Moduli (GPa) = 81.40543 81.40621 105.92549
#
# Poissons Ratio (x) = 0.19219 0.11440
# Poissons Ratio (y) = 0.19219 0.11440
# Poissons Ratio (z) = 0.08792 0.08792
#
# Static dielectric constant tensor:
#      x y z
#    x 3.946830 0.000000 0.000000 
#    y 0.000000 3.946820 0.000000 
#    z 0.000000 0.000000 4.100910 
# 
# 
# High freq. dielectric constant tensor:
#      x y z
#    x 1.826020 0.000000 0.000000 
#    y 0.000000 1.826020 0.000000 
#    z 0.000000 0.000000 1.864060 
# 
# From -- ./inp_files/2163.got.cif
#   From: 2010.03.12/outbox.cif.g09.slc.cpg/sg130_2_cif.got.tgz:2163.got - 2010.04.06 17:30:23.
