data_PCOD8315334
_publ_section_title
;
Structure prediction by ZEFSAII (Michael W. Deem and Ramdas Pophale) SiO2 
 PCOD8315334
Probable space group: P 4/N M M
;
_chemical_formula_sum "Si O2"
_cell_formula_units_Z 128
_cell_length_a 18.259132
_cell_length_b 18.259132
_cell_length_c 22.975803
_cell_angle_alpha 90.000000
_cell_angle_beta 90.000000
_cell_angle_gamma 90.000000
_cell_volume 7660.038551
_symmetry_space_group_name_H-M "P 4/N M M"
_symmetry_group_IT_number 129
_symmetry_cell_setting 'tetragonal'
loop_
_space_group_symop_operation_xyz
x,y,z
1/2-y,x,z
1/2-x,1/2-y,z
y,1/2-x,z
1/2+x,-y,-z
-x,1/2+y,-z
1/2+y,1/2+x,-z
-y,-x,-z
-x,-y,-z
1/2+y,-x,-z
1/2+x,1/2+y,-z
-y,1/2+x,-z
1/2-x,y,z
x,1/2-y,z
1/2-y,1/2-x,z
y,x,z
loop_
_atom_site_type_symbol
_atom_site_label
_atom_site_fract_x
_atom_site_fract_y
_atom_site_fract_z
Si Si1 0.165865 0.048923 0.877638
Si Si2 0.165668 0.834714 0.172522
Si Si3 0.938072 0.054282 0.346836
Si Si4 0.595717 0.332940 0.947103
Si Si5 0.408384 0.831688 0.448693
Si Si6 0.443611 0.329109 0.483939
Si Si7 0.666708 0.947521 0.650437
Si Si8 0.589597 0.027901 0.221999
O O1 0.250000 0.071718 0.880280
O O2 0.119134 0.119134 0.896388
O O3 0.146690 0.983921 0.922166
O O4 0.147395 0.022859 0.812064
O O5 0.250000 0.852429 0.189107
O O6 0.145854 0.750000 0.190524
O O7 0.156276 0.842354 0.103202
O O8 0.112340 0.895056 0.202822
O O9 0.884868 0.091888 0.393440
O O10 0.893983 0.022671 0.291330
O O11 0.989384 0.118685 0.319185
O O12 0.990372 0.990372 0.374371
O O13 0.596771 0.250000 0.970608
O O14 0.612766 0.387235 0.000000
O O15 0.352748 0.852748 0.500000
O O16 0.387847 0.750000 0.427584
O O17 0.488322 0.835065 0.474582
O O18 0.405792 0.250000 0.488762
O O19 0.387007 0.387007 0.508229
O O20 0.466922 0.342259 0.417646
O O21 0.750000 0.948794 0.672569
O O22 0.633029 0.866972 0.663230
O O23 0.506807 0.993194 0.210095
#
# Coordination Sequence:
#
# PCOD8315334 Si02
#       8
#    16  16  16  16  16  16  16  16
#     4   9  18  32  49  69  97 130 163 205 247 284
#     4   9  17  29  46  69  98 132 166 200 241 289
#     4  10  20  33  52  71  88 118 154 187 225 273
#     4   9  16  26  43  69 100 131 164 202 242 285
#     4  11  22  34  48  66  88 114 146 183 223 270
#     4   9  17  29  46  66  87 110 134 166 209 257
#     4   9  17  29  46  68  91 114 141 174 215 264
#     4   9  18  32  48  69  94 121 156 197 241 280
#
# _framework density 16.710099
#
# number of rings (size 3 to 8) (size 9 to 14) (size 15 to 20)
#    0.000    2.625    1.250    1.875    0.000    3.375 
#    0.000    1.250    0.000    0.000    0.000    0.000 
#    0.000    3.250    0.000    0.000    0.000    6.250 
#
# Total GULP energy -1586018.138111 kJ/mol
# GULP energy per Si atom -12390.766704 kJ/mol
# Density = 1.667207 g / cm^3
# Si number density = 16.710099 Si / 1000 Ang^3
#
#
#
# Elastic Constant Matrix: (Units=GPa)
#
#
# Indices 1 2 3 4 5 6 
#
# 1 93.7067 55.7677 31.8827 0.0000 0.0000 0.0000
# 2 55.7677 93.7065 31.8825 0.0000 0.0000 0.0000
# 3 31.8827 31.8825 55.7459 0.0000 0.0000 0.0000
# 4 0.0000 0.0000 0.0000 14.7871 0.0000 0.0000
# 5 0.0000 0.0000 0.0000 0.0000 14.7873 0.0000
# 6 0.0000 0.0000 0.0000 0.0000 0.0000 24.6729
#
#
#
# Elastic Compliance Matrix: (Units=1/GPa)
#
#
# Indices 1 2 3 4 5 6 
#
# 1 0.017604 -0.008755 -0.005061 0.000000 0.000000 0.000000
# 2 -0.008755 0.017604 -0.005061 0.000000 0.000000 0.000000
# 3 -0.005061 -0.005061 0.023728 0.000000 0.000000 0.000000
# 4 0.000000 0.000000 0.000000 0.067627 0.000000 0.000000
# 5 0.000000 0.000000 0.000000 0.000000 0.067625 0.000000
# 6 0.000000 0.000000 0.000000 0.000000 0.000000 0.040530
#
#
# Mechanical properties :
#
#
# Convention : Reuss Voigt Hill
#
# Bulk Modulus (GPa) = 47.21060 53.58055 50.39558
# Shear Modulus (GPa) = 17.88708 19.09120 18.48914
#
# Velocity S-wave (km/s) = 3.27530 3.38375 3.32997
# Velocity P-wave (km/s) = 6.52821 6.88482 6.70888
#
# Compressibility (1/GPa) = 0.02118168
#
# Stress axis : x y z
#
# Youngs Moduli (GPa) = 56.80639 56.80639 42.14491
#
# Poissons Ratio (x) = 0.49731 0.21330
# Poissons Ratio (y) = 0.49731 0.21330
# Poissons Ratio (z) = 0.28750 0.28750
#
# Static dielectric constant tensor:
#      x y z
#    x 3.261910 0.000000 0.000000 
#    y 0.000000 3.261910 0.000000 
#    z 0.000000 0.000000 2.946520 
# 
# 
# High freq. dielectric constant tensor:
#      x y z
#    x 1.639960 0.000000 0.000000 
#    y 0.000000 1.639960 0.000000 
#    z 0.000000 0.000000 1.618600 
# 
# From -- ./inp_files/7344.got.cif
#   From: 2010.03.12/outbox.cif.g09.slc.cpg/sg129_4_cif.got.tgz:7344.got - 2010.04.06 17:19:44.
