data_PCOD8315944
_publ_section_title
;
Structure prediction by ZEFSAII (Michael W. Deem and Ramdas Pophale) SiO2 
 PCOD8315944
Probable space group: P 42/M M C
;
_chemical_formula_sum "Si O2"
_cell_formula_units_Z 120
_cell_length_a 27.306709
_cell_length_b 27.306709
_cell_length_c 8.994429
_cell_angle_alpha 90.000000
_cell_angle_beta 90.000000
_cell_angle_gamma 90.000000
_cell_volume 6706.753156
_symmetry_space_group_name_H-M "P 42/M M C"
_symmetry_group_IT_number 131
_symmetry_cell_setting 'tetragonal'
loop_
_space_group_symop_operation_xyz
x,y,z
-x,-y,z
-y,x,1/2+z
y,-x,1/2+z
-x,y,-z
x,-y,-z
y,x,1/2-z
-y,-x,1/2-z
-x,-y,-z
x,y,-z
y,-x,1/2-z
-y,x,1/2-z
x,-y,z
-x,y,z
-y,-x,1/2+z
y,x,1/2+z
loop_
_atom_site_type_symbol
_atom_site_label
_atom_site_fract_x
_atom_site_fract_y
_atom_site_fract_z
Si Si1 0.688984 0.107570 0.324007
Si Si2 0.774642 0.942533 0.834291
Si Si3 0.231320 0.557090 0.325379
Si Si4 0.944787 0.500000 0.323811
Si Si5 0.362991 0.707615 0.324075
Si Si6 0.128675 0.942193 0.328140
Si Si7 0.122616 0.588561 0.323735
Si Si8 0.281682 0.214599 0.327004
O O1 0.686419 0.101549 0.500000
O O2 0.725295 0.067795 0.256222
O O3 0.635699 0.100727 0.256218
O O4 0.708262 0.160267 0.272511
O O5 0.821656 0.921591 0.746826
O O6 0.780211 0.000000 0.846339
O O7 0.772419 0.919441 0.000000
O O8 0.237572 0.566066 0.500000
O O9 0.235450 0.500000 0.285453
O O10 0.275752 0.584553 0.240875
O O11 0.178066 0.576409 0.271696
O O12 0.947719 0.500000 0.500000
O O13 0.914295 0.453330 0.269019
O O14 0.000000 0.500000 0.256655
O O15 0.342864 0.657136 0.250000
O O16 0.367151 0.699723 0.500000
O O17 0.326651 0.751305 0.277781
O O18 0.082200 0.917801 0.250000
O O19 0.130174 0.927264 0.500000
O O20 0.123048 0.000000 0.306994
O O21 0.121224 0.595483 0.500000
O O22 0.231884 0.231884 0.250000
O O23 0.273150 0.217759 0.500000
#
# Coordination Sequence:
#
# PCOD8315944 Si02
#       8
#    16  16  16   8  16  16  16  16
#     4  11  22  36  53  77 107 138 175 222 273 328
#     4  10  22  40  59  78 101 134 177 221 267 321
#     4  10  19  32  52  78 109 146 189 231 276 328
#     4   9  18  34  55  77 101 131 173 229 286 337
#     4  10  19  33  51  75 107 143 182 221 269 322
#     4  10  21  38  61  88 117 148 180 217 265 321
#     4  10  19  33  53  77 103 137 181 230 280 334
#     4   9  19  32  47  70 100 133 169 207 252 307
#
# _framework density 17.892413999999999
#
# number of rings (size 3 to 8) (size 9 to 14) (size 15 to 20)
#    0.000    2.067    2.000    1.600    0.000    4.667 
#    0.000    3.667    0.000    0.400    0.000    0.000 
#    0.000    0.267    0.000    2.800    0.000    1.200 
#
# Total GULP energy -1488130.554871 kJ/mol
# GULP energy per Si atom -12401.087957 kJ/mol
# Density = 1.785169 g / cm^3
# Si number density = 17.892414 Si / 1000 Ang^3
#
#
#
# Elastic Constant Matrix: (Units=GPa)
#
#
# Indices 1 2 3 4 5 6 
#
# 1 79.1682 48.5124 43.6573 0.0000 0.0000 0.0000
# 2 48.5124 79.1535 43.6575 0.0000 0.0000 0.0000
# 3 43.6573 43.6575 78.0299 0.0000 0.0000 0.0000
# 4 0.0000 0.0000 0.0000 25.7432 0.0000 0.0000
# 5 0.0000 0.0000 0.0000 0.0000 25.7434 0.0000
# 6 0.0000 0.0000 0.0000 0.0000 0.0000 31.5616
#
#
#
# Elastic Compliance Matrix: (Units=1/GPa)
#
#
# Indices 1 2 3 4 5 6 
#
# 1 0.022654 -0.009971 -0.007097 0.000000 0.000000 0.000000
# 2 -0.009971 0.022661 -0.007100 0.000000 0.000000 0.000000
# 3 -0.007097 -0.007100 0.020759 0.000000 0.000000 0.000000
# 4 0.000000 0.000000 0.000000 0.038845 0.000000 0.000000
# 5 0.000000 0.000000 0.000000 0.000000 0.038845 0.000000
# 6 0.000000 0.000000 0.000000 0.000000 0.000000 0.031684
#
#
# Mechanical properties :
#
#
# Convention : Reuss Voigt Hill
#
# Bulk Modulus (GPa) = 56.37213 56.44511 56.40862
# Shear Modulus (GPa) = 21.76796 23.31126 22.53961
#
# Velocity S-wave (km/s) = 3.49177 3.61343 3.55312
# Velocity P-wave (km/s) = 6.91601 7.00176 6.95901
#
# Compressibility (1/GPa) = 0.01773926
#
# Stress axis : x y z
#
# Youngs Moduli (GPa) = 44.14143 44.12939 48.17292
#
# Poissons Ratio (x) = 0.44000 0.34186
# Poissons Ratio (y) = 0.44012 0.34203
# Poissons Ratio (z) = 0.31325 0.31332
#
# Static dielectric constant tensor:
#      x y z
#    x 3.285100 0.000000 0.000000 
#    y 0.000000 3.285100 0.000000 
#    z 0.000000 0.000000 3.288430 
# 
# 
# High freq. dielectric constant tensor:
#      x y z
#    x 1.683500 0.000000 0.000000 
#    y 0.000000 1.683500 0.000000 
#    z 0.000000 0.000000 1.692910 
# 
# From -- ./inp_files/2665.got.cif
#   From: 2010.03.12/outbox.cif.g09.slc.cpg/sg131_2_cif.got.tgz:2665.got - 2010.04.06 17:36:35.
