data_PCOD8315136
_publ_section_title
;
Structure prediction by ZEFSAII (Michael W. Deem and Ramdas Pophale) SiO2 
 PCOD8315136
Probable space group: P 4/N M M
;
_chemical_formula_sum "Si O2"
_cell_formula_units_Z 48
_cell_length_a 18.583689
_cell_length_b 18.583689
_cell_length_c 7.529385
_cell_angle_alpha 90.000000
_cell_angle_beta 90.000000
_cell_angle_gamma 90.000000
_cell_volume 2600.299439
_symmetry_space_group_name_H-M "P 4/N M M"
_symmetry_group_IT_number 129
_symmetry_cell_setting 'tetragonal'
loop_
_space_group_symop_operation_xyz
x,y,z
1/2-y,x,z
1/2-x,1/2-y,z
y,1/2-x,z
1/2+x,-y,-z
-x,1/2+y,-z
1/2+y,1/2+x,-z
-y,-x,-z
-x,-y,-z
1/2+y,-x,-z
1/2+x,1/2+y,-z
-y,1/2+x,-z
1/2-x,y,z
x,1/2-y,z
1/2-y,1/2-x,z
y,x,z
loop_
_atom_site_type_symbol
_atom_site_label
_atom_site_fract_x
_atom_site_fract_y
_atom_site_fract_z
Si Si1 0.169485 0.055476 0.983266
Si Si2 0.594158 0.476339 0.718281
Si Si3 0.331451 0.973595 0.634340
O O1 0.250000 0.063595 0.053504
O O2 0.130455 0.130455 0.021904
O O3 0.166496 0.038602 0.774647
O O4 0.130730 0.991772 0.092971
O O5 0.516928 0.516928 0.704628
O O6 0.585241 0.390243 0.698011
O O7 0.646078 0.503750 0.559098
O O8 0.250000 0.940852 0.628752
#
# Coordination Sequence:
#
# PCOD8315136 Si02
#       3
#    16  16  16
#     4  10  20  33  51  75 102 132 166 205 249 297
#     4  10  19  33  53  74  98 132 173 211 246 293
#     4  10  19  31  50  75 100 126 161 208 256 296
#
# _framework density 18.459413999999999
#
# number of rings (size 3 to 8) (size 9 to 14) (size 15 to 20)
#    0.000    2.000    0.000    6.000    0.000    3.000 
#    0.000    0.000    0.000   17.000    0.000   28.000 
#    0.000    0.000    0.000    0.000    0.000    0.000 
#
# Total GULP energy -594984.085542 kJ/mol
# GULP energy per Si atom -12395.501782 kJ/mol
# Density = 1.841740 g / cm^3
# Si number density = 18.459414 Si / 1000 Ang^3
#
#
#
# Elastic Constant Matrix: (Units=GPa)
#
#
# Indices 1 2 3 4 5 6 
#
# 1 110.2652 49.1379 21.8236 0.0000 0.0000 0.0000
# 2 49.1379 110.2652 21.8236 0.0000 0.0000 0.0000
# 3 21.8236 21.8236 65.3659 0.0000 0.0000 0.0000
# 4 0.0000 0.0000 0.0000 23.6543 0.0000 0.0000
# 5 0.0000 0.0000 0.0000 0.0000 23.6543 0.0000
# 6 0.0000 0.0000 0.0000 0.0000 0.0000 14.2392
#
#
#
# Elastic Compliance Matrix: (Units=1/GPa)
#
#
# Indices 1 2 3 4 5 6 
#
# 1 0.011632 -0.004727 -0.002305 0.000000 0.000000 0.000000
# 2 -0.004727 0.011632 -0.002305 0.000000 0.000000 0.000000
# 3 -0.002305 -0.002305 0.016838 0.000000 0.000000 0.000000
# 4 0.000000 0.000000 0.000000 0.042276 0.000000 0.000000
# 5 0.000000 0.000000 0.000000 0.000000 0.042276 0.000000
# 6 0.000000 0.000000 0.000000 0.000000 0.000000 0.070229
#
#
# Mechanical properties :
#
#
# Convention : Reuss Voigt Hill
#
# Bulk Modulus (GPa) = 46.67211 52.38519 49.52865
# Shear Modulus (GPa) = 22.65529 25.18365 23.91947
#
# Velocity S-wave (km/s) = 3.50709 3.69761 3.60361
# Velocity P-wave (km/s) = 6.46050 6.83154 6.64861
#
# Compressibility (1/GPa) = 0.02142607
#
# Stress axis : x y z
#
# Youngs Moduli (GPa) = 85.97008 85.97008 59.39027
#
# Poissons Ratio (x) = 0.40641 0.13691
# Poissons Ratio (y) = 0.40641 0.13691
# Poissons Ratio (z) = 0.19818 0.19818
#
# Static dielectric constant tensor:
#      x y z
#    x 3.294860 0.000000 0.000000 
#    y 0.000000 3.294860 0.000000 
#    z 0.000000 0.000000 3.694540 
# 
# 
# High freq. dielectric constant tensor:
#      x y z
#    x 1.695240 0.000000 0.000000 
#    y 0.000000 1.695240 0.000000 
#    z 0.000000 0.000000 1.739160 
# 
# From -- ./inp_files/1543.got.cif
#   From: 2010.03.12/outbox.cif.g09.slc.cpg/sg129_1_cif.got.tgz:1543.got - 2010.04.06 17:19:44.
