data_PCOD8315810
_publ_section_title
;
Structure prediction by ZEFSAII (Michael W. Deem and Ramdas Pophale) SiO2 
 PCOD8315810
Probable space group: P 42/M M C
;
_chemical_formula_sum "Si O2"
_cell_formula_units_Z 80
_cell_length_a 13.653376
_cell_length_b 13.653376
_cell_length_c 27.154000
_cell_angle_alpha 90.000000
_cell_angle_beta 90.000000
_cell_angle_gamma 90.000000
_cell_volume 5061.904117
_symmetry_space_group_name_H-M "P 42/M M C"
_symmetry_group_IT_number 131
_symmetry_cell_setting 'tetragonal'
loop_
_space_group_symop_operation_xyz
x,y,z
-x,-y,z
-y,x,1/2+z
y,-x,1/2+z
-x,y,-z
x,-y,-z
y,x,1/2-z
-y,-x,1/2-z
-x,-y,-z
x,y,-z
y,-x,1/2-z
-y,x,1/2-z
x,-y,z
-x,y,z
-y,-x,1/2+z
y,x,1/2+z
loop_
_atom_site_type_symbol
_atom_site_label
_atom_site_fract_x
_atom_site_fract_y
_atom_site_fract_z
Si Si1 0.210439 0.113277 0.204729
Si Si2 0.196388 0.613183 0.349939
Si Si3 0.116009 0.299449 0.444516
Si Si4 0.384821 0.393238 0.804699
Si Si5 0.893412 0.884650 0.105454
O O1 0.183357 0.183357 0.250000
O O2 0.321889 0.128890 0.186198
O O3 0.138130 0.143522 0.160571
O O4 0.197062 0.000000 0.219934
O O5 0.181979 0.500000 0.334848
O O6 0.168289 0.626255 0.407126
O O7 0.309742 0.647605 0.343370
O O8 0.146164 0.327511 0.500000
O O9 0.152089 0.188436 0.433226
O O10 0.000000 0.308363 0.436479
O O11 0.355970 0.355970 0.750000
O O12 0.336412 0.500000 0.817205
O O13 0.500000 0.407247 0.806189
O O14 0.000000 0.837053 0.093844
O O15 0.901874 0.000000 0.100768
#
# Coordination Sequence:
#
# PCOD8315810 Si02
#       5
#    16  16  16  16  16
#     4  10  19  29  42  62  88 117 147 175 209 258
#     4  10  19  30  45  64  87 115 146 181 219 257
#     4   9  18  30  42  59  83 111 145 181 217 262
#     4   8  14  26  45  67  88 110 137 169 208 255
#     4   8  14  25  41  60  81 106 136 170 209 252
#
# _framework density 15.804328999999999
#
# number of rings (size 3 to 8) (size 9 to 14) (size 15 to 20)
#    0.000    3.000    0.000    3.600    0.000    3.400 
#    0.000    3.000    0.000    0.600    0.000    2.800 
#    0.000    7.200    0.000    7.200    0.000    0.800 
#
# Total GULP energy -991323.097114 kJ/mol
# GULP energy per Si atom -12391.538714 kJ/mol
# Density = 1.576836 g / cm^3
# Si number density = 15.804329 Si / 1000 Ang^3
#
#
#
# Elastic Constant Matrix: (Units=GPa)
#
#
# Indices 1 2 3 4 5 6 
#
# 1 63.5931 16.7003 33.4157 0.0000 0.0000 0.0000
# 2 16.7003 63.5931 33.4157 0.0000 0.0000 0.0000
# 3 33.4157 33.4157 96.1281 0.0000 0.0000 0.0000
# 4 0.0000 0.0000 0.0000 14.0247 0.0000 0.0000
# 5 0.0000 0.0000 0.0000 0.0000 14.0247 0.0000
# 6 0.0000 0.0000 0.0000 0.0000 0.0000 15.1511
#
#
#
# Elastic Compliance Matrix: (Units=1/GPa)
#
#
# Indices 1 2 3 4 5 6 
#
# 1 0.019425 -0.001900 -0.006092 0.000000 0.000000 0.000000
# 2 -0.001900 0.019425 -0.006092 0.000000 0.000000 0.000000
# 3 -0.006092 -0.006092 0.014638 0.000000 0.000000 0.000000
# 4 0.000000 0.000000 0.000000 0.071303 0.000000 0.000000
# 5 0.000000 0.000000 0.000000 0.000000 0.071303 0.000000
# 6 0.000000 0.000000 0.000000 0.000000 0.000000 0.066002
#
#
# Mechanical properties :
#
#
# Convention : Reuss Voigt Hill
#
# Bulk Modulus (GPa) = 39.49427 43.37528 41.43478
# Shear Modulus (GPa) = 16.73897 17.95893 17.34895
#
# Velocity S-wave (km/s) = 3.25797 3.37461 3.31680
# Velocity P-wave (km/s) = 6.26069 6.53366 6.39863
#
# Compressibility (1/GPa) = 0.02532013
#
# Stress axis : x y z
#
# Youngs Moduli (GPa) = 51.47995 51.47995 68.31498
#
# Poissons Ratio (x) = 0.09782 0.41617
# Poissons Ratio (y) = 0.09782 0.41617
# Poissons Ratio (z) = 0.31361 0.31361
#
# Static dielectric constant tensor:
#      x y z
#    x 3.149630 0.000000 0.000000 
#    y 0.000000 3.149630 0.000000 
#    z 0.000000 0.000000 2.980070 
# 
# 
# High freq. dielectric constant tensor:
#      x y z
#    x 1.588760 0.000000 0.000000 
#    y 0.000000 1.588760 0.000000 
#    z 0.000000 0.000000 1.594670 
# 
# From -- ./inp_files/10957.got.cif
#   From: 2010.03.12/outbox.cif.g09.slc.cpg/sg131_6_cif.got.tgz:10957.got - 2010.04.06 17:36:35.
