data_PCOD8315815
_publ_section_title
;
Structure prediction by ZEFSAII (Michael W. Deem and Ramdas Pophale) SiO2 
 PCOD8315815
Probable space group: P 42/M M C
;
_chemical_formula_sum "Si O2"
_cell_formula_units_Z 88
_cell_length_a 14.206924
_cell_length_b 14.206924
_cell_length_c 26.269611
_cell_angle_alpha 90.000000
_cell_angle_beta 90.000000
_cell_angle_gamma 90.000000
_cell_volume 5302.171320
_symmetry_space_group_name_H-M "P 42/M M C"
_symmetry_group_IT_number 131
_symmetry_cell_setting 'tetragonal'
loop_
_space_group_symop_operation_xyz
x,y,z
-x,-y,z
-y,x,1/2+z
y,-x,1/2+z
-x,y,-z
x,-y,-z
y,x,1/2-z
-y,-x,1/2-z
-x,-y,-z
x,y,-z
y,-x,1/2-z
-y,x,1/2-z
x,-y,z
-x,y,z
-y,-x,1/2+z
y,x,1/2+z
loop_
_atom_site_type_symbol
_atom_site_label
_atom_site_fract_x
_atom_site_fract_y
_atom_site_fract_z
Si Si1 0.603995 0.388875 0.806180
Si Si2 0.273540 0.104935 0.176877
Si Si3 0.109681 0.392500 0.773342
Si Si4 0.102074 0.897927 0.750000
Si Si5 0.298554 0.768965 0.641283
Si Si6 0.892652 0.607963 0.940800
O O1 0.642561 0.357440 0.750000
O O2 0.597764 0.500000 0.806310
O O3 0.500000 0.346310 0.816188
O O4 0.672636 0.355702 0.850918
O O5 0.359988 0.126271 0.215190
O O6 0.176660 0.111905 0.206223
O O7 0.263004 0.188914 0.136085
O O8 0.285894 0.000000 0.152220
O O9 0.146314 0.500000 0.779396
O O10 0.163116 0.321964 0.811149
O O11 0.000000 0.385944 0.787219
O O12 0.000000 0.887023 0.776555
O O13 0.326796 0.819844 0.589242
O O14 0.879133 0.500000 0.923383
O O15 0.000000 0.639088 0.929462
O O16 0.869651 0.619233 0.000000
#
# Coordination Sequence:
#
# PCOD8315815 Si02
#       6
#    16  16  16   8  16  16
#     4   9  18  30  43  65  99 132 160 189 222 268
#     4  10  20  31  41  63  96 126 156 191 228 268
#     4  10  19  29  43  67  97 124 152 191 234 273
#     4   9  16  28  42  54  80 121 154 180 216 261
#     4  12  19  28  49  70  87 123 164 196 224 274
#     4   9  19  35  53  74  97 116 140 185 243 291
#
# _framework density 16.596973999999999
#
# number of rings (size 3 to 8) (size 9 to 14) (size 15 to 20)
#    0.000    2.091    1.818    4.364    0.000    4.364 
#    0.000    0.000    0.000    1.091    0.000    3.818 
#    0.000    0.000    0.000    6.182    0.000    0.182 
#
# Total GULP energy -1090618.326485 kJ/mol
# GULP energy per Si atom -12393.390074 kJ/mol
# Density = 1.655920 g / cm^3
# Si number density = 16.596974 Si / 1000 Ang^3
#
#
#
# Elastic Constant Matrix: (Units=GPa)
#
#
# Indices 1 2 3 4 5 6 
#
# 1 81.2491 29.5427 32.1410 0.0000 0.0000 0.0000
# 2 29.5427 81.2494 32.1404 0.0000 0.0000 0.0000
# 3 32.1410 32.1404 55.1260 0.0000 0.0000 0.0000
# 4 0.0000 0.0000 0.0000 22.1298 0.0000 0.0000
# 5 0.0000 0.0000 0.0000 0.0000 22.1297 0.0000
# 6 0.0000 0.0000 0.0000 0.0000 0.0000 22.2647
#
#
#
# Elastic Compliance Matrix: (Units=1/GPa)
#
#
# Indices 1 2 3 4 5 6 
#
# 1 0.016490 -0.002850 -0.007953 0.000000 0.000000 0.000000
# 2 -0.002850 0.016490 -0.007953 0.000000 0.000000 0.000000
# 3 -0.007953 -0.007953 0.027414 0.000000 0.000000 0.000000
# 4 0.000000 0.000000 0.000000 0.045188 0.000000 0.000000
# 5 0.000000 0.000000 0.000000 0.000000 0.045188 0.000000
# 6 0.000000 0.000000 0.000000 0.000000 0.000000 0.044914
#
#
# Mechanical properties :
#
#
# Convention : Reuss Voigt Hill
#
# Bulk Modulus (GPa) = 43.70046 45.03030 44.36538
# Shear Modulus (GPa) = 20.76217 21.55818 21.16018
#
# Velocity S-wave (km/s) = 3.54073 3.60797 3.57451
# Velocity P-wave (km/s) = 6.56531 6.67436 6.62006
#
# Compressibility (1/GPa) = 0.02288306
#
# Stress axis : x y z
#
# Youngs Moduli (GPa) = 60.64231 60.64324 36.47802
#
# Poissons Ratio (x) = 0.17283 0.29011
# Poissons Ratio (y) = 0.17283 0.29009
# Poissons Ratio (z) = 0.48228 0.48227
#
# Static dielectric constant tensor:
#      x y z
#    x 3.365250 0.000000 0.000000 
#    y 0.000000 3.365250 0.000000 
#    z 0.000000 0.000000 2.636540 
# 
# 
# High freq. dielectric constant tensor:
#      x y z
#    x 1.650960 0.000000 0.000000 
#    y 0.000000 1.650960 0.000000 
#    z 0.000000 0.000000 1.569160 
# 
# From -- ./inp_files/12284.got.cif
#   From: 2010.03.12/outbox.cif.g09.slc.cpg/sg131_7_cif.got.tgz:12284.got - 2010.04.06 17:36:35.
