data_PCOD8315832
_publ_section_title
;
Structure prediction by ZEFSAII (Michael W. Deem and Ramdas Pophale) SiO2 
 PCOD8315832
Probable space group: P 42/M M C
;
_chemical_formula_sum "Si O2"
_cell_formula_units_Z 96
_cell_length_a 18.680810
_cell_length_b 18.680810
_cell_length_c 19.709604
_cell_angle_alpha 90.000000
_cell_angle_beta 90.000000
_cell_angle_gamma 90.000000
_cell_volume 6878.112980
_symmetry_space_group_name_H-M "P 42/M M C"
_symmetry_group_IT_number 131
_symmetry_cell_setting 'tetragonal'
loop_
_space_group_symop_operation_xyz
x,y,z
-x,-y,z
-y,x,1/2+z
y,-x,1/2+z
-x,y,-z
x,-y,-z
y,x,1/2-z
-y,-x,1/2-z
-x,-y,-z
x,y,-z
y,-x,1/2-z
-y,x,1/2-z
x,-y,z
-x,y,z
-y,-x,1/2+z
y,x,1/2+z
loop_
_atom_site_type_symbol
_atom_site_label
_atom_site_fract_x
_atom_site_fract_y
_atom_site_fract_z
Si Si1 0.581184 0.424350 0.500000
Si Si2 0.415119 0.920281 0.179383
Si Si3 0.584436 0.210225 0.420116
Si Si4 0.079060 0.415280 0.169303
Si Si5 0.649065 0.650750 0.879542
Si Si6 0.583312 0.798028 0.921117
Si Si7 0.416561 0.583440 0.750000
O O1 0.500000 0.445086 0.500000
O O2 0.625377 0.500000 0.500000
O O3 0.595837 0.379392 0.434335
O O4 0.500000 0.921248 0.176817
O O5 0.388873 0.897827 0.255100
O O6 0.387119 0.864224 0.123379
O O7 0.386095 0.000000 0.161813
O O8 0.602483 0.210778 0.500000
O O9 0.500000 0.224681 0.407719
O O10 0.609221 0.134558 0.388388
O O11 0.633235 0.266584 0.378305
O O12 0.075131 0.500000 0.170868
O O13 0.000000 0.384699 0.151181
O O14 0.633046 0.731448 0.901410
O O15 0.608191 0.633614 0.810782
O O16 0.500000 0.780853 0.905301
O O17 0.593820 0.816925 0.000000
O O18 0.500000 0.597380 0.734147
#
# Coordination Sequence:
#
# PCOD8315832 Si02
#       7
#     8  16  16  16  16  16   8
#     4  11  20  32  48  56  70 106 146 182 218 253
#     4   8  15  28  45  63  81 101 126 160 206 256
#     4  10  19  30  44  61  81 106 136 172 212 253
#     4   8  15  28  45  63  81 101 126 160 206 256
#     4  12  22  33  44  60  82 106 140 181 222 262
#     4  10  19  30  44  61  81 106 136 172 212 253
#     4  11  24  36  44  56  74 102 146 194 230 257
#
# _framework density 13.957316
#
# number of rings (size 3 to 8) (size 9 to 14) (size 15 to 20)
#    0.000    2.167    1.667    4.000    2.333    2.000 
#    0.000    3.333    0.000    0.000    0.000    0.000 
#    0.000    0.000    0.000    0.000    0.000    0.833 
#
# Total GULP energy -1189795.362786 kJ/mol
# GULP energy per Si atom -12393.701696 kJ/mol
# Density = 1.392555 g / cm^3
# Si number density = 13.957316 Si / 1000 Ang^3
#
#
#
# Elastic Constant Matrix: (Units=GPa)
#
#
# Indices 1 2 3 4 5 6 
#
# 1 59.3083 24.8925 24.4292 0.0000 0.0000 0.0000
# 2 24.8925 59.3100 24.4310 0.0000 0.0000 0.0000
# 3 24.4292 24.4310 68.6251 0.0000 0.0000 0.0000
# 4 0.0000 0.0000 0.0000 20.8583 0.0000 0.0000
# 5 0.0000 0.0000 0.0000 0.0000 20.8583 0.0000
# 6 0.0000 0.0000 0.0000 0.0000 0.0000 5.8130
#
#
#
# Elastic Compliance Matrix: (Units=1/GPa)
#
#
# Indices 1 2 3 4 5 6 
#
# 1 0.022012 -0.007044 -0.005328 0.000000 0.000000 0.000000
# 2 -0.007044 0.022012 -0.005329 0.000000 0.000000 0.000000
# 3 -0.005328 -0.005329 0.018366 0.000000 0.000000 0.000000
# 4 0.000000 0.000000 0.000000 0.047943 0.000000 0.000000
# 5 0.000000 0.000000 0.000000 0.000000 0.047943 0.000000
# 6 0.000000 0.000000 0.000000 0.000000 0.000000 0.172030
#
#
# Mechanical properties :
#
#
# Convention : Reuss Voigt Hill
#
# Bulk Modulus (GPa) = 37.05354 37.19433 37.12394
# Shear Modulus (GPa) = 13.34391 17.07195 15.20793
#
# Velocity S-wave (km/s) = 3.09536 3.50116 3.30449
# Velocity P-wave (km/s) = 6.27538 6.56130 6.41993
#
# Compressibility (1/GPa) = 0.02698797
#
# Stress axis : x y z
#
# Youngs Moduli (GPa) = 45.42951 45.42996 54.44888
#
# Poissons Ratio (x) = 0.31999 0.29012
# Poissons Ratio (y) = 0.31999 0.29016
# Poissons Ratio (z) = 0.24206 0.24209
#
# Static dielectric constant tensor:
#      x y z
#    x 2.711030 0.000000 0.000000 
#    y 0.000000 2.711040 0.000000 
#    z 0.000000 0.000000 2.969170 
# 
# 
# High freq. dielectric constant tensor:
#      x y z
#    x 1.499830 0.000000 0.000000 
#    y 0.000000 1.499830 0.000000 
#    z 0.000000 0.000000 1.547930 
# 
# From -- ./inp_files/9978.got.cif
#   From: 2010.03.12/outbox.cif.g09.slc.cpg/sg131_5_cif.got.tgz:9978.got - 2010.04.06 17:36:35.
