data_PCOD8315817
_publ_section_title
;
Structure prediction by ZEFSAII (Michael W. Deem and Ramdas Pophale) SiO2 
 PCOD8315817
Probable space group: P 42/M M C
;
_chemical_formula_sum "Si O2"
_cell_formula_units_Z 96
_cell_length_a 14.794640
_cell_length_b 14.794640
_cell_length_c 30.020348
_cell_angle_alpha 90.000000
_cell_angle_beta 90.000000
_cell_angle_gamma 90.000000
_cell_volume 6570.894980
_symmetry_space_group_name_H-M "P 42/M M C"
_symmetry_group_IT_number 131
_symmetry_cell_setting 'tetragonal'
loop_
_space_group_symop_operation_xyz
x,y,z
-x,-y,z
-y,x,1/2+z
y,-x,1/2+z
-x,y,-z
x,-y,-z
y,x,1/2-z
-y,-x,1/2-z
-x,-y,-z
x,y,-z
y,-x,1/2-z
-y,x,1/2-z
x,-y,z
-x,y,z
-y,-x,1/2+z
y,x,1/2+z
loop_
_atom_site_type_symbol
_atom_site_label
_atom_site_fract_x
_atom_site_fract_y
_atom_site_fract_z
Si Si1 0.600873 0.101988 0.717984
Si Si2 0.895229 0.893354 0.132264
Si Si3 0.597586 0.895853 0.910418
Si Si4 0.768001 0.210880 0.699399
Si Si5 0.400289 0.172851 0.185874
Si Si6 0.220117 0.107405 0.950619
O O1 0.500000 0.128559 0.702408
O O2 0.669710 0.167237 0.692151
O O3 0.609004 0.108590 0.771355
O O4 0.624147 0.000000 0.704258
O O5 0.838661 0.842826 0.169924
O O6 0.857548 0.862737 0.083893
O O7 0.000000 0.865753 0.134857
O O8 0.881837 0.000000 0.139709
O O9 0.500000 0.851799 0.924253
O O10 0.611600 0.888535 0.857528
O O11 0.682246 0.850663 0.936125
O O12 0.594562 0.000000 0.923270
O O13 0.801138 0.198863 0.750000
O O14 0.756021 0.317271 0.687104
O O15 0.500000 0.220964 0.185936
O O16 0.227353 0.000000 0.950644
O O17 0.195366 0.143528 0.000000
#
# Coordination Sequence:
#
# PCOD8315817 Si02
#       6
#    16  16  16  16  16  16
#     4   9  17  28  42  61  84 110 142 176 207 243
#     4  10  20  31  41  56  81 112 146 179 208 246
#     4   9  15  23  38  58  79 105 137 173 212 249
#     4  10  19  29  44  63  84 110 138 173 213 252
#     4   9  16  26  41  60  82 109 138 168 205 251
#     4   9  17  28  40  54  76 108 144 180 213 246
#
# _framework density 14.609883
#
# number of rings (size 3 to 8) (size 9 to 14) (size 15 to 20)
#    0.000    2.667    1.667    1.000    0.000    6.000 
#    0.000    4.167    0.000    0.500    0.000    3.500 
#    0.000    0.667    0.000    3.500    0.000    5.500 
#
# Total GULP energy -1189493.470975 kJ/mol
# GULP energy per Si atom -12390.556989 kJ/mol
# Density = 1.457663 g / cm^3
# Si number density = 14.609883 Si / 1000 Ang^3
#
#
#
# Elastic Constant Matrix: (Units=GPa)
#
#
# Indices 1 2 3 4 5 6 
#
# 1 87.4222 47.1051 28.7039 0.0000 0.0000 0.0000
# 2 47.1051 87.4223 28.7040 0.0000 0.0000 0.0000
# 3 28.7039 28.7040 70.8102 0.0000 0.0000 0.0000
# 4 0.0000 0.0000 0.0000 13.0174 0.0000 0.0000
# 5 0.0000 0.0000 0.0000 0.0000 13.0174 0.0000
# 6 0.0000 0.0000 0.0000 0.0000 0.0000 16.2099
#
#
#
# Elastic Compliance Matrix: (Units=1/GPa)
#
#
# Indices 1 2 3 4 5 6 
#
# 1 0.016896 -0.007908 -0.003644 0.000000 0.000000 0.000000
# 2 -0.007908 0.016896 -0.003644 0.000000 0.000000 0.000000
# 3 -0.003644 -0.003644 0.017076 0.000000 0.000000 0.000000
# 4 0.000000 0.000000 0.000000 0.076820 0.000000 0.000000
# 5 0.000000 0.000000 0.000000 0.000000 0.076820 0.000000
# 6 0.000000 0.000000 0.000000 0.000000 0.000000 0.061691
#
#
# Mechanical properties :
#
#
# Convention : Reuss Voigt Hill
#
# Bulk Modulus (GPa) = 48.83149 50.52011 49.67580
# Shear Modulus (GPa) = 16.47912 17.85839 17.16875
#
# Velocity S-wave (km/s) = 3.36213 3.50000 3.43176
# Velocity P-wave (km/s) = 6.96908 7.14058 7.05535
#
# Compressibility (1/GPa) = 0.02047859
#
# Stress axis : x y z
#
# Youngs Moduli (GPa) = 59.18628 59.18633 58.56111
#
# Poissons Ratio (x) = 0.46802 0.21337
# Poissons Ratio (y) = 0.46802 0.21337
# Poissons Ratio (z) = 0.21565 0.21565
#
# Static dielectric constant tensor:
#      x y z
#    x 2.854960 0.000000 0.000000 
#    y 0.000000 2.854970 0.000000 
#    z 0.000000 0.000000 2.854030 
# 
# 
# High freq. dielectric constant tensor:
#      x y z
#    x 1.536960 0.000000 0.000000 
#    y 0.000000 1.536960 0.000000 
#    z 0.000000 0.000000 1.548440 
# 
# From -- ./inp_files/13675.got.cif
#   From: 2010.03.12/outbox.cif.g09.slc.cpg/sg131_7_cif.got.tgz:13675.got - 2010.04.06 17:36:35.
