data_PCOD8315902
_publ_section_title
;
Structure prediction by ZEFSAII (Michael W. Deem and Ramdas Pophale) SiO2 
 PCOD8315902
Probable space group: P 42/M M C
;
_chemical_formula_sum "Si O2"
_cell_formula_units_Z 88
_cell_length_a 15.857865
_cell_length_b 15.857865
_cell_length_c 22.044495
_cell_angle_alpha 90.000000
_cell_angle_beta 90.000000
_cell_angle_gamma 90.000000
_cell_volume 5543.570653
_symmetry_space_group_name_H-M "P 42/M M C"
_symmetry_group_IT_number 131
_symmetry_cell_setting 'tetragonal'
loop_
_space_group_symop_operation_xyz
x,y,z
-x,-y,z
-y,x,1/2+z
y,-x,1/2+z
-x,y,-z
x,-y,-z
y,x,1/2-z
-y,-x,1/2-z
-x,-y,-z
x,y,-z
y,-x,1/2-z
-y,x,1/2-z
x,-y,z
-x,y,z
-y,-x,1/2+z
y,x,1/2+z
loop_
_atom_site_type_symbol
_atom_site_label
_atom_site_fract_x
_atom_site_fract_y
_atom_site_fract_z
Si Si1 0.172955 0.597224 0.868736
Si Si2 0.000000 0.599986 0.929882
Si Si3 0.000000 0.599528 0.431870
Si Si4 0.596494 0.500000 0.571451
Si Si5 0.672747 0.669036 0.567756
Si Si6 0.740533 0.597384 0.744890
Si Si7 0.401769 0.174564 0.882112
O O1 0.182186 0.500000 0.887555
O O2 0.082319 0.631759 0.892293
O O3 0.245273 0.649552 0.900702
O O4 0.188986 0.610452 0.797318
O O5 0.000000 0.500000 0.931028
O O6 0.000000 0.633836 0.000000
O O7 0.079395 0.629072 0.391938
O O8 0.000000 0.500000 0.438614
O O9 0.000000 0.638841 0.500000
O O10 0.500000 0.500000 0.587060
O O11 0.617140 0.500000 0.500000
O O12 0.633745 0.585609 0.601223
O O13 0.637843 0.674686 0.500000
O O14 0.772719 0.654621 0.570330
O O15 0.660344 0.660344 0.750000
O O16 0.707802 0.500000 0.745650
O O17 0.793630 0.618623 0.685169
O O18 0.500000 0.185379 0.898601
#
# Coordination Sequence:
#
# PCOD8315902 Si02
#       7
#    16   8   8   8  16  16  16
#     4  10  20  33  49  68  94 129 169 210 252 296
#     4   9  18  33  51  71  95 123 161 212 263 305
#     4   9  18  31  49  71  95 123 159 204 257 313
#     4   9  18  28  38  59  91 125 165 206 240 283
#     4  11  19  28  45  66  93 128 164 205 252 295
#     4  10  20  34  49  68  97 136 178 214 247 285
#     4  10  19  32  48  67  94 128 166 206 250 297
#
# _framework density 15.874245
#
# number of rings (size 3 to 8) (size 9 to 14) (size 15 to 20)
#    0.000    2.091    2.727    1.636    0.000    3.455 
#    0.000    3.636    0.000    0.000    0.000    0.000 
#    0.000    0.727    0.000    5.273    0.000    0.364 
#
# Total GULP energy -1090585.708762 kJ/mol
# GULP energy per Si atom -12393.019418 kJ/mol
# Density = 1.583811 g / cm^3
# Si number density = 15.874245 Si / 1000 Ang^3
#
#
#
# Elastic Constant Matrix: (Units=GPa)
#
#
# Indices 1 2 3 4 5 6 
#
# 1 96.8328 46.1334 34.1558 0.0000 0.0000 0.0000
# 2 46.1334 96.8328 34.1558 0.0000 0.0000 0.0000
# 3 34.1558 34.1558 78.7845 0.0000 0.0000 0.0000
# 4 0.0000 0.0000 0.0000 22.6342 0.0000 0.0000
# 5 0.0000 0.0000 0.0000 0.0000 22.6342 0.0000
# 6 0.0000 0.0000 0.0000 0.0000 0.0000 9.7150
#
#
#
# Elastic Compliance Matrix: (Units=1/GPa)
#
#
# Indices 1 2 3 4 5 6 
#
# 1 0.014273 -0.005451 -0.003825 0.000000 0.000000 0.000000
# 2 -0.005451 0.014273 -0.003825 0.000000 0.000000 0.000000
# 3 -0.003825 -0.003825 0.016009 0.000000 0.000000 0.000000
# 4 0.000000 0.000000 0.000000 0.044181 0.000000 0.000000
# 5 0.000000 0.000000 0.000000 0.000000 0.044181 0.000000
# 6 0.000000 0.000000 0.000000 0.000000 0.000000 0.102934
#
#
# Mechanical properties :
#
#
# Convention : Reuss Voigt Hill
#
# Bulk Modulus (GPa) = 54.48219 55.70446 55.09332
# Shear Modulus (GPa) = 18.64489 21.53035 20.08762
#
# Velocity S-wave (km/s) = 3.43087 3.68680 3.56114
# Velocity P-wave (km/s) = 7.07744 7.30004 7.18960
#
# Compressibility (1/GPa) = 0.01835462
#
# Stress axis : x y z
#
# Youngs Moduli (GPa) = 70.06160 70.06160 62.46426
#
# Poissons Ratio (x) = 0.38190 0.23891
# Poissons Ratio (y) = 0.38190 0.23891
# Poissons Ratio (z) = 0.26797 0.26797
#
# Static dielectric constant tensor:
#      x y z
#    x 2.972700 0.000000 0.000000 
#    y 0.000000 2.972700 0.000000 
#    z 0.000000 0.000000 3.170820 
# 
# 
# High freq. dielectric constant tensor:
#      x y z
#    x 1.584160 0.000000 0.000000 
#    y 0.000000 1.584160 0.000000 
#    z 0.000000 0.000000 1.620150 
# 
# From -- ./inp_files/11097.got.cif
#   From: 2010.03.12/outbox.cif.g09.slc.cpg/sg131_6_cif.got.tgz:11097.got - 2010.04.06 17:36:35.
