data_PCOD8315382
_publ_section_title
;
Structure prediction by ZEFSAII (Michael W. Deem and Ramdas Pophale) SiO2 
 PCOD8315382
Probable space group: P 4/N M M
;
_chemical_formula_sum "Si O2"
_cell_formula_units_Z 96
_cell_length_a 20.001691
_cell_length_b 20.001691
_cell_length_c 12.006530
_cell_angle_alpha 90.000000
_cell_angle_beta 90.000000
_cell_angle_gamma 90.000000
_cell_volume 4803.424156
_symmetry_space_group_name_H-M "P 4/N M M"
_symmetry_group_IT_number 129
_symmetry_cell_setting 'tetragonal'
loop_
_space_group_symop_operation_xyz
x,y,z
1/2-y,x,z
1/2-x,1/2-y,z
y,1/2-x,z
1/2+x,-y,-z
-x,1/2+y,-z
1/2+y,1/2+x,-z
-y,-x,-z
-x,-y,-z
1/2+y,-x,-z
1/2+x,1/2+y,-z
-y,1/2+x,-z
1/2-x,y,z
x,1/2-y,z
1/2-y,1/2-x,z
y,x,z
loop_
_atom_site_type_symbol
_atom_site_label
_atom_site_fract_x
_atom_site_fract_y
_atom_site_fract_z
Si Si1 0.673467 0.062573 0.491283
Si Si2 0.138812 0.465357 0.115327
Si Si3 0.385424 0.828272 0.891497
Si Si4 0.324552 0.070962 0.881623
Si Si5 0.563775 0.674167 0.637217
Si Si6 0.325834 0.941516 0.761712
O O1 0.627788 0.127788 0.500000
O O2 0.750000 0.083012 0.518887
O O3 0.666900 0.036226 0.365603
O O4 0.649457 0.002849 0.572547
O O5 0.062155 0.437846 0.122052
O O6 0.142185 0.542221 0.081924
O O7 0.175307 0.451255 0.231551
O O8 0.176690 0.426932 0.015941
O O9 0.386873 0.750000 0.860048
O O10 0.360412 0.870065 0.784837
O O11 0.339387 0.839387 0.000000
O O12 0.250000 0.080937 0.834476
O O13 0.369235 0.130766 0.833267
O O14 0.355872 0.001114 0.837184
O O15 0.582197 0.750000 0.600560
O O16 0.625179 0.625179 0.607122
O O17 0.250000 0.930871 0.798520
#
# Coordination Sequence:
#
# PCOD8315382 Si02
#       6
#    16  16  16  16  16  16
#     4  10  22  40  61  84 113 152 197 243 295 352
#     4  10  21  37  59  85 117 156 195 236 289 350
#     4  12  23  36  58  86 120 157 197 242 293 350
#     4  10  20  36  58  84 115 152 193 237 290 349
#     4  10  21  38  61  89 120 156 199 247 298 352
#     4  10  22  39  56  80 116 154 190 236 295 353
#
# _framework density 19.985744
#
# number of rings (size 3 to 8) (size 9 to 14) (size 15 to 20)
#    0.000    1.667    1.667    3.000    0.000    5.667 
#    0.000    1.667    0.000    3.000    0.000    4.667 
#    0.000    0.000    0.000    0.000    0.000    0.000 
#
# Total GULP energy -1190182.368940 kJ/mol
# GULP energy per Si atom -12397.733010 kJ/mol
# Density = 1.994026 g / cm^3
# Si number density = 19.985744 Si / 1000 Ang^3
#
#
#
# Elastic Constant Matrix: (Units=GPa)
#
#
# Indices 1 2 3 4 5 6 
#
# 1 112.3464 84.4670 32.4944 0.0000 0.0000 0.0000
# 2 84.4670 112.3464 32.4944 0.0000 0.0000 0.0000
# 3 32.4944 32.4944 74.5148 0.0000 0.0000 0.0000
# 4 0.0000 0.0000 0.0000 24.6279 0.0000 0.0000
# 5 0.0000 0.0000 0.0000 0.0000 24.6279 0.0000
# 6 0.0000 0.0000 0.0000 0.0000 0.0000 31.4620
#
#
#
# Elastic Compliance Matrix: (Units=1/GPa)
#
#
# Indices 1 2 3 4 5 6 
#
# 1 0.020902 -0.014967 -0.002588 0.000000 0.000000 0.000000
# 2 -0.014967 0.020902 -0.002588 0.000000 0.000000 0.000000
# 3 -0.002588 -0.002588 0.015678 0.000000 0.000000 0.000000
# 4 0.000000 0.000000 0.000000 0.040604 0.000000 0.000000
# 5 0.000000 0.000000 0.000000 0.000000 0.040604 0.000000
# 6 0.000000 0.000000 0.000000 0.000000 0.000000 0.031784
#
#
# Mechanical properties :
#
#
# Convention : Reuss Voigt Hill
#
# Bulk Modulus (GPa) = 58.15542 66.45771 62.30656
# Shear Modulus (GPa) = 23.09536 26.12702 24.61119
#
# Velocity S-wave (km/s) = 3.40309 3.61956 3.51299
# Velocity P-wave (km/s) = 6.67854 7.12692 6.90637
#
# Compressibility (1/GPa) = 0.01719530
#
# Stress axis : x y z
#
# Youngs Moduli (GPa) = 47.84178 47.84178 63.78494
#
# Poissons Ratio (x) = 0.71603 0.16510
# Poissons Ratio (y) = 0.71603 0.16510
# Poissons Ratio (z) = 0.12384 0.12384
#
# Static dielectric constant tensor:
#      x y z
#    x 3.617950 0.000000 0.000000 
#    y 0.000000 3.617950 0.000000 
#    z 0.000000 0.000000 3.633570 
# 
# 
# High freq. dielectric constant tensor:
#      x y z
#    x 1.773950 0.000000 0.000000 
#    y 0.000000 1.773950 0.000000 
#    z 0.000000 0.000000 1.782830 
# 
# From -- ./inp_files/3826.got.cif
#   From: 2010.03.12/outbox.cif.g09.slc.cpg/sg129_2_cif.got.tgz:3826.got - 2010.04.06 17:19:44.
