data_PCOD8315038
_publ_section_title
;
Structure prediction by ZEFSAII (Michael W. Deem and Ramdas Pophale) SiO2 
 PCOD8315038
Probable space group: P 4/N M M
;
_chemical_formula_sum "Si O2"
_cell_formula_units_Z 112
_cell_length_a 29.398287
_cell_length_b 29.398287
_cell_length_c 8.948659
_cell_angle_alpha 90.000000
_cell_angle_beta 90.000000
_cell_angle_gamma 90.000000
_cell_volume 7733.961571
_symmetry_space_group_name_H-M "P 4/N M M"
_symmetry_group_IT_number 129
_symmetry_cell_setting 'tetragonal'
loop_
_space_group_symop_operation_xyz
x,y,z
1/2-y,x,z
1/2-x,1/2-y,z
y,1/2-x,z
1/2+x,-y,-z
-x,1/2+y,-z
1/2+y,1/2+x,-z
-y,-x,-z
-x,-y,-z
1/2+y,-x,-z
1/2+x,1/2+y,-z
-y,1/2+x,-z
1/2-x,y,z
x,1/2-y,z
1/2-y,1/2-x,z
y,x,z
loop_
_atom_site_type_symbol
_atom_site_label
_atom_site_fract_x
_atom_site_fract_y
_atom_site_fract_z
Si Si1 0.478683 0.891952 0.345336
Si Si2 0.701100 0.143246 0.401180
Si Si3 0.300234 0.671766 0.155052
Si Si4 0.959241 0.540760 0.178864
Si Si5 0.964799 0.535202 0.844300
Si Si6 0.697203 0.445743 0.211819
Si Si7 0.902299 0.032601 0.688911
Si Si8 0.584662 0.352009 0.077652
O O1 0.522571 0.916756 0.275122
O O2 0.480121 0.841742 0.269656
O O3 0.480688 0.885480 0.523812
O O4 0.435330 0.923514 0.308272
O O5 0.657588 0.157588 0.500000
O O6 0.750000 0.141325 0.487544
O O7 0.707243 0.182150 0.276951
O O8 0.690813 0.095767 0.324681
O O9 0.250000 0.655249 0.191630
O O10 0.332632 0.628108 0.163060
O O11 0.302025 0.697976 0.000000
O O12 0.996981 0.503020 0.152429
O O13 0.946842 0.553159 0.006415
O O14 0.923175 0.513799 0.753207
O O15 0.750000 0.463761 0.216834
O O16 0.685410 0.431986 0.042176
O O17 0.860679 0.045614 0.799244
O O18 0.600118 0.399883 0.000000
#
# Coordination Sequence:
#
# PCOD8315038 Si02
#       8
#    16  16  16   8   8  16  16  16
#     4  10  19  31  47  69  92 113 141 175 221 266
#     4  11  23  35  45  58  75  98 131 178 232 284
#     4  11  21  33  47  59  72  93 131 180 230 279
#     4   9  17  29  49  69  94 117 138 166 207 265
#     4   9  17  27  45  73  95 112 137 164 210 258
#     4  11  22  35  48  62  84 113 147 184 224 273
#     4  10  19  29  48  69  91 113 137 177 219 268
#     4  11  19  32  46  59  78 105 141 173 220 266
#
# _framework density 14.481581
#
# number of rings (size 3 to 8) (size 9 to 14) (size 15 to 20)
#    0.000    1.571    4.286    2.571    6.000    3.429 
#    0.000    0.714    0.000    0.000    0.000    0.000 
#    0.000    0.000    0.000    0.000    0.000    0.357 
#
# Total GULP energy -1387699.442682 kJ/mol
# GULP energy per Si atom -12390.173595 kJ/mol
# Density = 1.444862 g / cm^3
# Si number density = 14.481581 Si / 1000 Ang^3
#
#
#
# Elastic Constant Matrix: (Units=GPa)
#
#
# Indices 1 2 3 4 5 6 
#
# 1 56.5104 36.7957 25.1656 0.0000 0.0000 0.0000
# 2 36.7957 56.5086 25.1635 0.0000 0.0000 0.0000
# 3 25.1656 25.1635 67.0300 0.0000 0.0000 0.0000
# 4 0.0000 0.0000 0.0000 19.4884 0.0000 0.0000
# 5 0.0000 0.0000 0.0000 0.0000 19.4877 0.0000
# 6 0.0000 0.0000 0.0000 0.0000 0.0000 13.9602
#
#
#
# Elastic Compliance Matrix: (Units=1/GPa)
#
#
# Indices 1 2 3 4 5 6 
#
# 1 0.032082 -0.018643 -0.005046 0.000000 0.000000 0.000000
# 2 -0.018643 0.032082 -0.005045 0.000000 0.000000 0.000000
# 3 -0.005046 -0.005045 0.018707 0.000000 0.000000 0.000000
# 4 0.000000 0.000000 0.000000 0.051313 0.000000 0.000000
# 5 0.000000 0.000000 0.000000 0.000000 0.051315 0.000000
# 6 0.000000 0.000000 0.000000 0.000000 0.000000 0.071632
#
#
# Mechanical properties :
#
#
# Convention : Reuss Voigt Hill
#
# Bulk Modulus (GPa) = 39.36434 39.36651 39.36543
# Shear Modulus (GPa) = 15.47667 16.78220 16.12943
#
# Velocity S-wave (km/s) = 3.27267 3.40790 3.34097
# Velocity P-wave (km/s) = 6.44374 6.53666 6.49037
#
# Compressibility (1/GPa) = 0.02540370
#
# Stress axis : x y z
#
# Youngs Moduli (GPa) = 31.16983 31.16974 53.45616
#
# Poissons Ratio (x) = 0.58111 0.26974
# Poissons Ratio (y) = 0.58111 0.26966
# Poissons Ratio (z) = 0.15729 0.15724
#
# Static dielectric constant tensor:
#      x y z
#    x 2.621200 0.000000 0.000000 
#    y 0.000000 2.621210 0.000000 
#    z 0.000000 0.000000 3.043870 
# 
# 
# High freq. dielectric constant tensor:
#      x y z
#    x 1.513620 0.000000 0.000000 
#    y 0.000000 1.513620 0.000000 
#    z 0.000000 0.000000 1.576980 
# 
# From -- ./inp_files/2979.got.cif
#   From: 2010.03.12/outbox.cif.g09.slc.cpg/sg129_2_cif.got.tgz:2979.got - 2010.04.06 17:19:44.
