data_PCOD8315114
_publ_section_title
;
Structure prediction by ZEFSAII (Michael W. Deem and Ramdas Pophale) SiO2 
 PCOD8315114
Probable space group: P 4/N M M
;
_chemical_formula_sum "Si O2"
_cell_formula_units_Z 128
_cell_length_a 17.822714
_cell_length_b 17.822714
_cell_length_c 22.875727
_cell_angle_alpha 90.000000
_cell_angle_beta 90.000000
_cell_angle_gamma 90.000000
_cell_volume 7266.454879
_symmetry_space_group_name_H-M "P 4/N M M"
_symmetry_group_IT_number 129
_symmetry_cell_setting 'tetragonal'
loop_
_space_group_symop_operation_xyz
x,y,z
1/2-y,x,z
1/2-x,1/2-y,z
y,1/2-x,z
1/2+x,-y,-z
-x,1/2+y,-z
1/2+y,1/2+x,-z
-y,-x,-z
-x,-y,-z
1/2+y,-x,-z
1/2+x,1/2+y,-z
-y,1/2+x,-z
1/2-x,y,z
x,1/2-y,z
1/2-y,1/2-x,z
y,x,z
loop_
_atom_site_type_symbol
_atom_site_label
_atom_site_fract_x
_atom_site_fract_y
_atom_site_fract_z
Si Si1 0.834110 0.546983 0.790632
Si Si2 0.831565 0.549512 0.570914
Si Si3 0.553226 0.164036 0.532202
Si Si4 0.335912 0.044811 0.773091
Si Si5 0.955129 0.168992 0.319103
Si Si6 0.482296 0.894871 0.339763
Si Si7 0.064848 0.942819 0.854566
Si Si8 0.335877 0.835321 0.930982
O O1 0.750000 0.551936 0.816117
O O2 0.873056 0.626945 0.801039
O O3 0.833869 0.528589 0.721720
O O4 0.878367 0.480745 0.822017
O O5 0.750000 0.587176 0.575354
O O6 0.890468 0.609533 0.591765
O O7 0.846596 0.522283 0.505196
O O8 0.837562 0.478382 0.613344
O O9 0.618366 0.118366 0.500000
O O10 0.580130 0.250000 0.533825
O O11 0.530017 0.138809 0.596626
O O12 0.250000 0.050519 0.792981
O O13 0.375621 0.124380 0.786115
O O14 0.340344 0.028256 0.703346
O O15 0.377308 0.979928 0.809395
O O16 0.913858 0.250000 0.308983
O O17 0.902028 0.098372 0.307445
O O18 0.524616 0.975385 0.344469
O O19 0.110839 0.900284 0.905015
O O20 0.006866 0.006866 0.879091
O O21 0.250000 0.849902 0.911053
O O22 0.359262 0.750000 0.911970
O O23 0.342724 0.842724 0.000000
#
# Coordination Sequence:
#
# PCOD8315114 Si02
#       8
#    16  16  16  16  16  16  16  16
#     4  10  19  31  48  71 101 136 172 211 254 300
#     4  10  20  33  49  70  93 118 153 194 240 295
#     4  11  23  35  50  71  91 120 158 197 247 302
#     4  10  21  36  55  79 105 134 168 210 258 306
#     4  10  19  31  49  72  99 125 156 200 247 295
#     4  11  20  34  56  74  96 126 164 209 248 294
#     4  10  19  32  52  78 106 138 175 215 255 296
#     4   9  18  33  53  77 107 143 178 213 256 302
#
# _framework density 17.615193000000001
#
# number of rings (size 3 to 8) (size 9 to 14) (size 15 to 20)
#    0.000    1.875    2.500    3.000    0.000    1.250 
#    0.000    0.000    0.000    4.125    0.000    1.750 
#    0.000    0.000    0.000   23.250    0.000    0.000 
#
# Total GULP energy -1586331.362075 kJ/mol
# GULP energy per Si atom -12393.213766 kJ/mol
# Density = 1.757510 g / cm^3
# Si number density = 17.615193 Si / 1000 Ang^3
#
#
#
# Elastic Constant Matrix: (Units=GPa)
#
#
# Indices 1 2 3 4 5 6 
#
# 1 100.2893 51.4418 30.5799 0.0000 0.0000 0.0000
# 2 51.4418 100.2893 30.5799 0.0000 0.0000 0.0000
# 3 30.5799 30.5799 60.8512 0.0000 0.0000 0.0000
# 4 0.0000 0.0000 0.0000 21.4114 0.0000 0.0000
# 5 0.0000 0.0000 0.0000 0.0000 21.4114 0.0000
# 6 0.0000 0.0000 0.0000 0.0000 0.0000 20.8341
#
#
#
# Elastic Compliance Matrix: (Units=1/GPa)
#
#
# Indices 1 2 3 4 5 6 
#
# 1 0.014368 -0.006104 -0.004153 0.000000 0.000000 0.000000
# 2 -0.006104 0.014368 -0.004153 0.000000 0.000000 0.000000
# 3 -0.004153 -0.004153 0.020608 0.000000 0.000000 0.000000
# 4 0.000000 0.000000 0.000000 0.046704 0.000000 0.000000
# 5 0.000000 0.000000 0.000000 0.000000 0.046704 0.000000
# 6 0.000000 0.000000 0.000000 0.000000 0.000000 0.047998
#
#
# Mechanical properties :
#
#
# Convention : Reuss Voigt Hill
#
# Bulk Modulus (GPa) = 48.72324 54.07033 51.39678
# Shear Modulus (GPa) = 22.08356 22.65326 22.36841
#
# Velocity S-wave (km/s) = 3.54456 3.58998 3.56734
# Velocity P-wave (km/s) = 6.66871 6.92430 6.79770
#
# Compressibility (1/GPa) = 0.02052409
#
# Stress axis : x y z
#
# Youngs Moduli (GPa) = 69.59770 69.59770 48.52509
#
# Poissons Ratio (x) = 0.42479 0.20154
# Poissons Ratio (y) = 0.42479 0.20154
# Poissons Ratio (z) = 0.28906 0.28906
#
# Static dielectric constant tensor:
#      x y z
#    x 3.286420 0.000000 0.000000 
#    y 0.000000 3.286420 0.000000 
#    z 0.000000 0.000000 3.105450 
# 
# 
# High freq. dielectric constant tensor:
#      x y z
#    x 1.676590 0.000000 0.000000 
#    y 0.000000 1.676590 0.000000 
#    z 0.000000 0.000000 1.668420 
# 
# From -- ./inp_files/7308.got.cif
#   From: 2010.03.12/outbox.cif.g09.slc.cpg/sg129_4_cif.got.tgz:7308.got - 2010.04.06 17:19:44.
