data_PCOD8315430
_publ_section_title
;
Structure prediction by ZEFSAII (Michael W. Deem and Ramdas Pophale) SiO2 
 PCOD8315430
Probable space group: P 4/N M M
;
_chemical_formula_sum "Si O2"
_cell_formula_units_Z 80
_cell_length_a 20.092261
_cell_length_b 20.092261
_cell_length_c 15.140981
_cell_angle_alpha 90.000000
_cell_angle_beta 90.000000
_cell_angle_gamma 90.000000
_cell_volume 6112.398163
_symmetry_space_group_name_H-M "P 4/N M M"
_symmetry_group_IT_number 129
_symmetry_cell_setting 'tetragonal'
loop_
_space_group_symop_operation_xyz
x,y,z
1/2-y,x,z
1/2-x,1/2-y,z
y,1/2-x,z
1/2+x,-y,-z
-x,1/2+y,-z
1/2+y,1/2+x,-z
-y,-x,-z
-x,-y,-z
1/2+y,-x,-z
1/2+x,1/2+y,-z
-y,1/2+x,-z
1/2-x,y,z
x,1/2-y,z
1/2-y,1/2-x,z
y,x,z
loop_
_atom_site_type_symbol
_atom_site_label
_atom_site_fract_x
_atom_site_fract_y
_atom_site_fract_z
Si Si1 0.429691 0.323926 0.946717
Si Si2 0.925166 0.170830 0.741625
Si Si3 0.928294 0.675982 0.263248
Si Si4 0.329316 0.824054 0.597533
Si Si5 0.419419 0.828315 0.059326
O O1 0.412415 0.250000 0.983701
O O2 0.377936 0.377936 0.986792
O O3 0.423881 0.321959 0.841856
O O4 0.505189 0.343476 0.972738
O O5 0.923303 0.250000 0.742615
O O6 0.872333 0.140500 0.672405
O O7 0.909030 0.145806 0.840328
O O8 0.998774 0.148648 0.710427
O O9 0.915593 0.750000 0.301504
O O10 0.873102 0.626898 0.304120
O O11 0.350061 0.850061 0.500000
O O12 0.250000 0.822359 0.602422
O O13 0.357719 0.750000 0.614870
O O14 0.404200 0.750000 0.051753
O O15 0.367656 0.867656 0.000000
#
# Coordination Sequence:
#
# PCOD8315430 Si02
#       5
#    16  16  16  16  16
#     4   8  14  24  36  50  67  85 109 142 175 207
#     4   8  14  24  35  47  66  90 112 136 168 201
#     4   8  13  21  33  48  66  88 111 135 164 197
#     4   8  13  21  34  51  66  80 105 141 173 199
#     4   9  17  26  34  47  68  94 123 147 164 191
#
# _framework density 13.088153
#
# number of rings (size 3 to 8) (size 9 to 14) (size 15 to 20)
#    0.000    3.800    0.000    3.000    0.000    1.800 
#    0.000    4.000    0.000    0.600    0.000    0.000 
#    0.000    0.000    0.000    0.000    0.000    0.400 
#
# Total GULP energy -991211.599220 kJ/mol
# GULP energy per Si atom -12390.144990 kJ/mol
# Density = 1.305836 g / cm^3
# Si number density = 13.088153 Si / 1000 Ang^3
#
#
#
# Elastic Constant Matrix: (Units=GPa)
#
#
# Indices 1 2 3 4 5 6 
#
# 1 73.9471 49.8366 36.5028 0.0000 0.0000 0.0000
# 2 49.8366 73.9471 36.5028 0.0000 0.0000 0.0000
# 3 36.5028 36.5028 52.2910 0.0000 0.0000 0.0000
# 4 0.0000 0.0000 0.0000 7.8234 0.0000 0.0000
# 5 0.0000 0.0000 0.0000 0.0000 7.8234 0.0000
# 6 0.0000 0.0000 0.0000 0.0000 0.0000 18.7299
#
#
#
# Elastic Compliance Matrix: (Units=1/GPa)
#
#
# Indices 1 2 3 4 5 6 
#
# 1 0.027604 -0.013872 -0.009586 0.000000 0.000000 0.000000
# 2 -0.013872 0.027604 -0.009586 0.000000 0.000000 0.000000
# 3 -0.009586 -0.009586 0.032507 0.000000 0.000000 0.000000
# 4 0.000000 0.000000 0.000000 0.127822 0.000000 0.000000
# 5 0.000000 0.000000 0.000000 0.000000 0.127822 0.000000
# 6 0.000000 0.000000 0.000000 0.000000 0.000000 0.053391
#
#
# Mechanical properties :
#
#
# Convention : Reuss Voigt Hill
#
# Bulk Modulus (GPa) = 46.23748 49.54107 47.88927
# Shear Modulus (GPa) = 10.63720 12.03151 11.33436
#
# Velocity S-wave (km/s) = 2.85394 3.03523 2.94598
# Velocity P-wave (km/s) = 6.80180 7.08643 6.94557
#
# Compressibility (1/GPa) = 0.02162748
#
# Stress axis : x y z
#
# Youngs Moduli (GPa) = 36.22654 36.22654 30.76216
#
# Poissons Ratio (x) = 0.50252 0.29489
# Poissons Ratio (y) = 0.50252 0.29489
# Poissons Ratio (z) = 0.34727 0.34727
#
# Static dielectric constant tensor:
#      x y z
#    x 2.743430 0.000000 0.000000 
#    y 0.000000 2.743430 0.000000 
#    z 0.000000 0.000000 2.468450 
# 
# 
# High freq. dielectric constant tensor:
#      x y z
#    x 1.484410 0.000000 0.000000 
#    y 0.000000 1.484410 0.000000 
#    z 0.000000 0.000000 1.456020 
# 
# From -- ./inp_files/4858.got.cif
#   From: 2010.03.12/outbox.cif.g09.slc.cpg/sg129_3_cif.got.tgz:4858.got - 2010.04.06 17:19:44.
