data_PCOD8315868
_publ_section_title
;
Structure prediction by ZEFSAII (Michael W. Deem and Ramdas Pophale) SiO2 
 PCOD8315868
Probable space group: P 42/M M C
;
_chemical_formula_sum "Si O2"
_cell_formula_units_Z 96
_cell_length_a 25.150714
_cell_length_b 25.150714
_cell_length_c 8.875399
_cell_angle_alpha 90.000000
_cell_angle_beta 90.000000
_cell_angle_gamma 90.000000
_cell_volume 5614.208321
_symmetry_space_group_name_H-M "P 42/M M C"
_symmetry_group_IT_number 131
_symmetry_cell_setting 'tetragonal'
loop_
_space_group_symop_operation_xyz
x,y,z
-x,-y,z
-y,x,1/2+z
y,-x,1/2+z
-x,y,-z
x,-y,-z
y,x,1/2-z
-y,-x,1/2-z
-x,-y,-z
x,y,-z
y,-x,1/2-z
-y,x,1/2-z
x,-y,z
-x,y,z
-y,-x,1/2+z
y,x,1/2+z
loop_
_atom_site_type_symbol
_atom_site_label
_atom_site_fract_x
_atom_site_fract_y
_atom_site_fract_z
Si Si1 0.212363 0.335447 0.830531
Si Si2 0.120298 0.611220 0.324087
Si Si3 0.605450 0.318182 0.325151
Si Si4 0.149194 0.500000 0.680096
Si Si5 0.288324 0.939855 0.179147
Si Si6 0.153987 0.228884 0.826657
Si Si7 0.500000 0.271300 0.179711
O O1 0.179721 0.369482 0.710150
O O2 0.273956 0.348346 0.805301
O O3 0.199314 0.273613 0.803174
O O4 0.194614 0.351488 0.000000
O O5 0.111783 0.608592 0.500000
O O6 0.116440 0.551275 0.258324
O O7 0.077323 0.653016 0.257981
O O8 0.627903 0.372098 0.250000
O O9 0.592867 0.328696 0.500000
O O10 0.551809 0.300799 0.242587
O O11 0.151351 0.500000 0.500000
O O12 0.210198 0.500000 0.738231
O O13 0.244231 0.901834 0.250435
O O14 0.277278 0.000000 0.230783
O O15 0.286006 0.933756 0.000000
O O16 0.175115 0.175115 0.750000
O O17 0.142549 0.217299 0.000000
O O18 0.500000 0.274754 0.000000
#
# Coordination Sequence:
#
# PCOD8315868 Si02
#       7
#    16  16  16   8  16  16   8
#     4   9  18  30  45  69  99 127 157 193 241 295
#     4   9  16  28  46  67  94 129 168 206 248 294
#     4  11  22  35  51  73  99 126 156 194 240 296
#     4   9  16  27  46  71  95 124 163 205 250 293
#     4   9  18  32  49  69  97 135 175 213 252 294
#     4  10  19  31  48  72 100 131 165 205 250 297
#     4  11  21  35  53  73  98 127 158 198 245 295
#
# _framework density 17.099473
#
# number of rings (size 3 to 8) (size 9 to 14) (size 15 to 20)
#    0.000    2.333    1.667    1.750    0.000    1.667 
#    0.000    0.833    0.000    2.750    0.000    1.750 
#    0.000    5.667    0.000    3.500    0.000    1.500 
#
# Total GULP energy -1189841.685125 kJ/mol
# GULP energy per Si atom -12394.184220 kJ/mol
# Density = 1.706055 g / cm^3
# Si number density = 17.099473 Si / 1000 Ang^3
#
#
#
# Elastic Constant Matrix: (Units=GPa)
#
#
# Indices 1 2 3 4 5 6 
#
# 1 101.5178 66.0028 37.5008 0.0000 0.0000 0.0000
# 2 66.0028 101.5156 37.5000 0.0000 0.0000 0.0000
# 3 37.5008 37.5000 52.8522 0.0000 0.0000 0.0000
# 4 0.0000 0.0000 0.0000 21.9156 0.0000 0.0000
# 5 0.0000 0.0000 0.0000 0.0000 21.9158 0.0000
# 6 0.0000 0.0000 0.0000 0.0000 0.0000 16.2507
#
#
#
# Elastic Compliance Matrix: (Units=1/GPa)
#
#
# Indices 1 2 3 4 5 6 
#
# 1 0.018453 -0.009705 -0.006208 0.000000 0.000000 0.000000
# 2 -0.009705 0.018453 -0.006207 0.000000 0.000000 0.000000
# 3 -0.006208 -0.006207 0.027729 0.000000 0.000000 0.000000
# 4 0.000000 0.000000 0.000000 0.045630 0.000000 0.000000
# 5 0.000000 0.000000 0.000000 0.000000 0.045629 0.000000
# 6 0.000000 0.000000 0.000000 0.000000 0.000000 0.061536
#
#
# Mechanical properties :
#
#
# Convention : Reuss Voigt Hill
#
# Bulk Modulus (GPa) = 49.02695 59.76587 54.39641
# Shear Modulus (GPa) = 18.62412 19.67520 19.14966
#
# Velocity S-wave (km/s) = 3.30383 3.39578 3.35012
# Velocity P-wave (km/s) = 6.57933 7.09949 6.84435
#
# Compressibility (1/GPa) = 0.02039695
#
# Stress axis : x y z
#
# Youngs Moduli (GPa) = 54.19121 54.19044 36.06270
#
# Poissons Ratio (x) = 0.52590 0.22386
# Poissons Ratio (y) = 0.52591 0.22385
# Poissons Ratio (z) = 0.33639 0.33638
#
# Static dielectric constant tensor:
#      x y z
#    x 3.098590 0.000000 0.000000 
#    y 0.000000 3.098590 0.000000 
#    z 0.000000 0.000000 3.149360 
# 
# 
# High freq. dielectric constant tensor:
#      x y z
#    x 1.639340 0.000000 0.000000 
#    y 0.000000 1.639340 0.000000 
#    z 0.000000 0.000000 1.655910 
# 
# From -- ./inp_files/2321.got.cif
#   From: 2010.03.12/outbox.cif.g09.slc.cpg/sg131_2_cif.got.tgz:2321.got - 2010.04.06 17:36:35.
