data_PCOD8315224
_publ_section_title
;
Structure prediction by ZEFSAII (Michael W. Deem and Ramdas Pophale) SiO2 
 PCOD8315224
Probable space group: P 4/N M M
;
_chemical_formula_sum "Si O2"
_cell_formula_units_Z 112
_cell_length_a 13.933578
_cell_length_b 13.933578
_cell_length_c 35.471901
_cell_angle_alpha 90.000000
_cell_angle_beta 90.000000
_cell_angle_gamma 90.000000
_cell_volume 6886.677885
_symmetry_space_group_name_H-M "P 4/N M M"
_symmetry_group_IT_number 129
_symmetry_cell_setting 'tetragonal'
loop_
_space_group_symop_operation_xyz
x,y,z
1/2-y,x,z
1/2-x,1/2-y,z
y,1/2-x,z
1/2+x,-y,-z
-x,1/2+y,-z
1/2+y,1/2+x,-z
-y,-x,-z
-x,-y,-z
1/2+y,-x,-z
1/2+x,1/2+y,-z
-y,1/2+x,-z
1/2-x,y,z
x,1/2-y,z
1/2-y,1/2-x,z
y,x,z
loop_
_atom_site_type_symbol
_atom_site_label
_atom_site_fract_x
_atom_site_fract_y
_atom_site_fract_z
Si Si1 0.013425 0.640290 0.611821
Si Si2 0.140647 0.987014 0.254456
Si Si3 0.019937 0.863994 0.111908
Si Si4 0.361467 0.518268 0.168560
Si Si5 0.643483 0.136342 0.958524
Si Si6 0.983018 0.139576 0.473689
Si Si7 0.135926 0.855608 0.321211
O O1 0.989844 0.750000 0.620881
O O2 0.914152 0.585849 0.617792
O O3 0.052437 0.626703 0.569371
O O4 0.091635 0.599364 0.641021
O O5 0.250000 0.010896 0.264012
O O6 0.085933 0.085933 0.260597
O O7 0.128423 0.948791 0.211924
O O8 0.099545 0.908116 0.283349
O O9 0.002063 0.750000 0.113942
O O10 0.067976 0.898100 0.072704
O O11 0.093110 0.894891 0.144795
O O12 0.917957 0.917957 0.116099
O O13 0.250000 0.502019 0.157624
O O14 0.418946 0.418946 0.160876
O O15 0.750000 0.092572 0.950551
O O16 0.652443 0.250000 0.957494
O O17 0.605299 0.105299 0.000000
O O18 0.897119 0.102882 0.500000
O O19 0.005514 0.250000 0.483018
O O20 0.080164 0.080164 0.481544
O O21 0.250000 0.848889 0.321275
O O22 0.089828 0.750000 0.321225
#
# Coordination Sequence:
#
# PCOD8315224 Si02
#       7
#    16  16  16  16  16  16  16
#     4   9  17  29  45  65  89 115 143 178 221 270
#     4   9  17  29  45  66  92 118 144 176 214 261
#     4  10  20  32  46  65  89 119 156 195 232 268
#     4   9  18  31  47  69  94 119 148 182 224 275
#     4   8  14  26  45  68  91 113 140 178 224 273
#     4   9  18  31  46  66  91 118 150 188 229 274
#     4   9  17  28  41  59  85 116 148 179 210 246
#
# _framework density 16.263283999999999
#
# number of rings (size 3 to 8) (size 9 to 14) (size 15 to 20)
#    0.000    3.000    0.000    1.286    0.000    3.143 
#    0.000    5.714    0.000    2.571    0.000    0.000 
#    0.000    8.000    0.000    0.000    0.000    0.857 
#
# Total GULP energy -1388397.986513 kJ/mol
# GULP energy per Si atom -12396.410594 kJ/mol
# Density = 1.622627 g / cm^3
# Si number density = 16.263284 Si / 1000 Ang^3
#
#
#
# Elastic Constant Matrix: (Units=GPa)
#
#
# Indices 1 2 3 4 5 6 
#
# 1 87.6768 40.6296 54.2531 0.0000 0.0000 0.0000
# 2 40.6296 87.6759 54.2531 0.0000 0.0000 0.0000
# 3 54.2531 54.2531 111.0163 0.0000 0.0000 0.0000
# 4 0.0000 0.0000 0.0000 24.6895 0.0000 0.0000
# 5 0.0000 0.0000 0.0000 0.0000 24.6895 0.0000
# 6 0.0000 0.0000 0.0000 0.0000 0.0000 14.1108
#
#
#
# Elastic Compliance Matrix: (Units=1/GPa)
#
#
# Indices 1 2 3 4 5 6 
#
# 1 0.017270 -0.003986 -0.006492 0.000000 0.000000 0.000000
# 2 -0.003986 0.017270 -0.006492 0.000000 0.000000 0.000000
# 3 -0.006492 -0.006492 0.015353 0.000000 0.000000 0.000000
# 4 0.000000 0.000000 0.000000 0.040503 0.000000 0.000000
# 5 0.000000 0.000000 0.000000 0.000000 0.040503 0.000000
# 6 0.000000 0.000000 0.000000 0.000000 0.000000 0.070868
#
#
# Mechanical properties :
#
#
# Convention : Reuss Voigt Hill
#
# Bulk Modulus (GPa) = 62.68278 64.96006 63.82142
# Shear Modulus (GPa) = 20.74498 21.84684 21.29591
#
# Velocity S-wave (km/s) = 3.57539 3.66911 3.62255
# Velocity P-wave (km/s) = 7.46128 7.61442 7.53824
#
# Compressibility (1/GPa) = 0.01595334
#
# Stress axis : x y z
#
# Youngs Moduli (GPa) = 57.90550 57.90471 65.13531
#
# Poissons Ratio (x) = 0.23080 0.42284
# Poissons Ratio (y) = 0.23080 0.42285
# Poissons Ratio (z) = 0.37590 0.37591
#
# Static dielectric constant tensor:
#      x y z
#    x 2.949880 0.000000 0.000000 
#    y 0.000000 2.949880 0.000000 
#    z 0.000000 0.000000 3.391080 
# 
# 
# High freq. dielectric constant tensor:
#      x y z
#    x 1.604960 0.000000 0.000000 
#    y 0.000000 1.604960 0.000000 
#    z 0.000000 0.000000 1.641440 
# 
# From -- ./inp_files/7923.got.cif
#   From: 2010.03.12/outbox.cif.g09.slc.cpg/sg129_4_cif.got.tgz:7923.got - 2010.04.06 17:19:44.
