data_PCOD8315787
_publ_section_title
;
Structure prediction by ZEFSAII (Michael W. Deem and Ramdas Pophale) SiO2 
 PCOD8315787
Probable space group: P 42/M M C
;
_chemical_formula_sum "Si O2"
_cell_formula_units_Z 112
_cell_length_a 15.118735
_cell_length_b 15.118735
_cell_length_c 27.888359
_cell_angle_alpha 90.000000
_cell_angle_beta 90.000000
_cell_angle_gamma 90.000000
_cell_volume 6374.613674
_symmetry_space_group_name_H-M "P 42/M M C"
_symmetry_group_IT_number 131
_symmetry_cell_setting 'tetragonal'
loop_
_space_group_symop_operation_xyz
x,y,z
-x,-y,z
-y,x,1/2+z
y,-x,1/2+z
-x,y,-z
x,-y,-z
y,x,1/2-z
-y,-x,1/2-z
-x,-y,-z
x,y,-z
y,-x,1/2-z
-y,x,1/2-z
x,-y,z
-x,y,z
-y,-x,1/2+z
y,x,1/2+z
loop_
_atom_site_type_symbol
_atom_site_label
_atom_site_fract_x
_atom_site_fract_y
_atom_site_fract_z
Si Si1 0.732905 0.399649 0.277512
Si Si2 0.802442 0.160963 0.672594
Si Si3 0.099207 0.704335 0.738220
Si Si4 0.102753 0.714511 0.553916
Si Si5 0.258470 0.678025 0.378557
Si Si6 0.102203 0.905018 0.585268
Si Si7 0.399106 0.399432 0.055256
O O1 0.665225 0.334776 0.250000
O O2 0.709725 0.500000 0.263170
O O3 0.832696 0.377300 0.261139
O O4 0.729790 0.391376 0.335207
O O5 0.873523 0.226126 0.697354
O O6 0.751010 0.101333 0.710292
O O7 0.734678 0.223602 0.643211
O O8 0.850337 0.095458 0.636576
O O9 0.000000 0.670017 0.728215
O O10 0.120584 0.679028 0.500000
O O11 0.165312 0.664491 0.592361
O O12 0.126809 0.819621 0.553402
O O13 0.000000 0.698512 0.568174
O O14 0.339060 0.667102 0.414890
O O15 0.000000 0.901833 0.597059
O O16 0.126270 0.000000 0.560131
O O17 0.387989 0.500000 0.072767
O O18 0.500000 0.368062 0.062968
O O19 0.372400 0.390859 0.000000
#
# Coordination Sequence:
#
# PCOD8315787 Si02
#       7
#    16  16  16  16  16  16  16
#     4  11  23  40  56  79 108 137 179 223 268 324
#     4   9  17  30  45  72 100 137 175 218 258 306
#     4  10  18  33  53  72 101 138 174 221 268 305
#     4   9  18  31  49  75 107 144 181 216 262 316
#     4  10  18  33  54  74 101 138 173 212 259 311
#     4   9  16  25  40  66 100 136 176 217 256 304
#     4   9  18  32  51  77 102 123 157 205 256 310
#
# _framework density 17.569693000000001
#
# number of rings (size 3 to 8) (size 9 to 14) (size 15 to 20)
#    0.000    2.429    2.857    2.143    0.000    4.714 
#    0.000    1.429    0.000    4.714    0.000    5.000 
#    0.000    0.000    0.000   17.571    0.000    0.143 
#
# Total GULP energy -1388032.601099 kJ/mol
# GULP energy per Si atom -12393.148224 kJ/mol
# Density = 1.752970 g / cm^3
# Si number density = 17.569693 Si / 1000 Ang^3
#
#
#
# Elastic Constant Matrix: (Units=GPa)
#
#
# Indices 1 2 3 4 5 6 
#
# 1 86.6504 38.3249 33.4489 0.0000 0.0000 0.0000
# 2 38.3249 86.6511 33.4488 0.0000 0.0000 0.0000
# 3 33.4489 33.4488 85.3322 0.0000 0.0000 0.0000
# 4 0.0000 0.0000 0.0000 20.8877 0.0000 0.0000
# 5 0.0000 0.0000 0.0000 0.0000 20.8877 0.0000
# 6 0.0000 0.0000 0.0000 0.0000 0.0000 16.4666
#
#
#
# Elastic Compliance Matrix: (Units=1/GPa)
#
#
# Indices 1 2 3 4 5 6 
#
# 1 0.015410 -0.005283 -0.003969 0.000000 0.000000 0.000000
# 2 -0.005283 0.015409 -0.003969 0.000000 0.000000 0.000000
# 3 -0.003969 -0.003969 0.014831 0.000000 0.000000 0.000000
# 4 0.000000 0.000000 0.000000 0.047875 0.000000 0.000000
# 5 0.000000 0.000000 0.000000 0.000000 0.047875 0.000000
# 6 0.000000 0.000000 0.000000 0.000000 0.000000 0.060729
#
#
# Mechanical properties :
#
#
# Convention : Reuss Voigt Hill
#
# Bulk Modulus (GPa) = 52.06719 52.11988 52.09354
# Shear Modulus (GPa) = 21.27884 21.87579 21.57731
#
# Velocity S-wave (km/s) = 3.48388 3.53241 3.50823
# Velocity P-wave (km/s) = 6.77364 6.80928 6.79148
#
# Compressibility (1/GPa) = 0.01920595
#
# Stress axis : x y z
#
# Youngs Moduli (GPa) = 64.89442 64.89506 67.42746
#
# Poissons Ratio (x) = 0.34286 0.26765
# Poissons Ratio (y) = 0.34286 0.26764
# Poissons Ratio (z) = 0.25759 0.25759
#
# Static dielectric constant tensor:
#      x y z
#    x 3.140810 0.000000 0.000000 
#    y 0.000000 3.140810 0.000000 
#    z 0.000000 0.000000 3.354170 
# 
# 
# High freq. dielectric constant tensor:
#      x y z
#    x 1.659900 0.000000 0.000000 
#    y 0.000000 1.659900 0.000000 
#    z 0.000000 0.000000 1.687040 
# 
# From -- ./inp_files/13841.got.cif
#   From: 2010.03.12/outbox.cif.g09.slc.cpg/sg131_7_cif.got.tgz:13841.got - 2010.04.06 17:36:35.
