data_PCOD8315727
_publ_section_title
;
Structure prediction by ZEFSAII (Michael W. Deem and Ramdas Pophale) SiO2 
 PCOD8315727
Probable space group: P 42/M M C
;
_chemical_formula_sum "Si O2"
_cell_formula_units_Z 88
_cell_length_a 14.585924
_cell_length_b 14.585924
_cell_length_c 27.802567
_cell_angle_alpha 90.000000
_cell_angle_beta 90.000000
_cell_angle_gamma 90.000000
_cell_volume 5914.973302
_symmetry_space_group_name_H-M "P 42/M M C"
_symmetry_group_IT_number 131
_symmetry_cell_setting 'tetragonal'
loop_
_space_group_symop_operation_xyz
x,y,z
-x,-y,z
-y,x,1/2+z
y,-x,1/2+z
-x,y,-z
x,-y,-z
y,x,1/2-z
-y,-x,1/2-z
-x,-y,-z
x,y,-z
y,-x,1/2-z
-y,x,1/2-z
x,-y,z
-x,y,z
-y,-x,1/2+z
y,x,1/2+z
loop_
_atom_site_type_symbol
_atom_site_label
_atom_site_fract_x
_atom_site_fract_y
_atom_site_fract_z
Si Si1 0.895489 0.771600 0.312922
Si Si2 0.740110 0.105991 0.080992
Si Si3 0.105436 0.271276 0.209017
Si Si4 0.601022 0.891302 0.627698
Si Si5 0.894809 0.244606 0.944642
Si Si6 0.397424 0.108698 0.000000
O O1 0.879754 0.715042 0.362446
O O2 0.877692 0.708117 0.265733
O O3 0.825220 0.855022 0.309416
O O4 0.000000 0.809894 0.311482
O O5 0.834004 0.157220 0.068664
O O6 0.758564 0.000000 0.069137
O O7 0.656508 0.142513 0.047893
O O8 0.145721 0.355580 0.177949
O O9 0.000000 0.261638 0.196410
O O10 0.500000 0.846974 0.621530
O O11 0.666352 0.859677 0.584245
O O12 0.591525 0.000000 0.628195
O O13 0.000000 0.220342 0.931612
O O14 0.883903 0.270422 0.000000
O O15 0.500000 0.151570 0.000000
O O16 0.405323 0.000000 0.000000
#
# Coordination Sequence:
#
# PCOD8315727 Si02
#       6
#    16  16  16  16  16   8
#     4   9  17  26  40  61  85 113 143 178 215 249
#     4  10  18  29  44  64  89 117 148 179 212 252
#     4   9  16  27  40  58  85 117 148 175 209 250
#     4   9  17  29  43  58  82 118 152 179 212 255
#     4  10  19  29  42  63  90 118 147 180 215 251
#     4   9  18  32  47  61  82 115 149 179 215 258
#
# _framework density 14.877497999999999
#
# number of rings (size 3 to 8) (size 9 to 14) (size 15 to 20)
#    0.000    2.636    2.727    0.000    0.000    1.091 
#    0.000    7.273    0.000    5.455    0.000    0.000 
#    0.000    1.455    0.000    0.364    0.000    0.000 
#
# Total GULP energy -1090432.052056 kJ/mol
# GULP energy per Si atom -12391.273319 kJ/mol
# Density = 1.484364 g / cm^3
# Si number density = 14.877498 Si / 1000 Ang^3
#
#
#
# Elastic Constant Matrix: (Units=GPa)
#
#
# Indices 1 2 3 4 5 6 
#
# 1 67.6876 30.6242 44.0628 0.0000 0.0000 0.0000
# 2 30.6242 67.6876 44.0628 0.0000 0.0000 0.0000
# 3 44.0628 44.0628 137.7045 0.0000 0.0000 0.0000
# 4 0.0000 0.0000 0.0000 14.2182 0.0000 0.0000
# 5 0.0000 0.0000 0.0000 0.0000 14.2182 0.0000
# 6 0.0000 0.0000 0.0000 0.0000 0.0000 2.6090
#
#
#
# Elastic Compliance Matrix: (Units=1/GPa)
#
#
# Indices 1 2 3 4 5 6 
#
# 1 0.020622 -0.006359 -0.004564 0.000000 0.000000 0.000000
# 2 -0.006359 0.020622 -0.004564 0.000000 0.000000 0.000000
# 3 -0.004564 -0.004564 0.010183 0.000000 0.000000 0.000000
# 4 0.000000 0.000000 0.000000 0.070332 0.000000 0.000000
# 5 0.000000 0.000000 0.000000 0.000000 0.070332 0.000000
# 6 0.000000 0.000000 0.000000 0.000000 0.000000 0.383292
#
#
# Mechanical properties :
#
#
# Convention : Reuss Voigt Hill
#
# Bulk Modulus (GPa) = 48.89317 56.73101 52.81209
# Shear Modulus (GPa) = 8.15431 16.49776 12.32603
#
# Velocity S-wave (km/s) = 2.34369 3.33364 2.88149
# Velocity P-wave (km/s) = 6.34500 7.28233 6.82977
#
# Compressibility (1/GPa) = 0.02045276
#
# Stress axis : x y z
#
# Youngs Moduli (GPa) = 48.49263 48.49263 98.20718
#
# Poissons Ratio (x) = 0.30837 0.44819
# Poissons Ratio (y) = 0.30837 0.44819
# Poissons Ratio (z) = 0.22131 0.22131
#
# Static dielectric constant tensor:
#      x y z
#    x 2.750810 0.000000 0.000000 
#    y 0.000000 2.750810 0.000000 
#    z 0.000000 0.000000 3.324700 
# 
# 
# High freq. dielectric constant tensor:
#      x y z
#    x 1.531610 0.000000 0.000000 
#    y 0.000000 1.531610 0.000000 
#    z 0.000000 0.000000 1.596810 
# 
# From -- ./inp_files/12276.got.cif
#   From: 2010.03.12/outbox.cif.g09.slc.cpg/sg131_7_cif.got.tgz:12276.got - 2010.04.06 17:36:35.
