data_PCOD8315895
_publ_section_title
;
Structure prediction by ZEFSAII (Michael W. Deem and Ramdas Pophale) SiO2 
 PCOD8315895
Probable space group: P 42/M M C
;
_chemical_formula_sum "Si O2"
_cell_formula_units_Z 104
_cell_length_a 18.005448
_cell_length_b 18.005448
_cell_length_c 19.156753
_cell_angle_alpha 90.000000
_cell_angle_beta 90.000000
_cell_angle_gamma 90.000000
_cell_volume 6210.545716
_symmetry_space_group_name_H-M "P 42/M M C"
_symmetry_group_IT_number 131
_symmetry_cell_setting 'tetragonal'
loop_
_space_group_symop_operation_xyz
x,y,z
-x,-y,z
-y,x,1/2+z
y,-x,1/2+z
-x,y,-z
x,-y,-z
y,x,1/2-z
-y,-x,1/2-z
-x,-y,-z
x,y,-z
y,-x,1/2-z
-y,x,1/2-z
x,-y,z
-x,y,z
-y,-x,1/2+z
y,x,1/2+z
loop_
_atom_site_type_symbol
_atom_site_label
_atom_site_fract_x
_atom_site_fract_y
_atom_site_fract_z
Si Si1 0.584881 0.084997 0.835452
Si Si2 0.084226 0.825102 0.803060
Si Si3 0.131314 0.585431 0.177252
Si Si4 0.916550 0.858827 0.579777
Si Si5 0.721000 0.220084 0.682146
Si Si6 0.289972 0.833686 0.918871
Si Si7 0.000000 0.588043 0.921523
O O1 0.500000 0.103115 0.855509
O O2 0.597493 0.097021 0.753560
O O3 0.635649 0.139445 0.881003
O O4 0.604124 0.000000 0.853923
O O5 0.111585 0.888416 0.750000
O O6 0.086828 0.861298 0.879636
O O7 0.138802 0.754793 0.799122
O O8 0.000000 0.800197 0.785746
O O9 0.153027 0.500000 0.164501
O O10 0.205971 0.634087 0.167098
O O11 0.072727 0.614781 0.119823
O O12 0.908426 0.881739 0.500000
O O13 0.896281 0.772546 0.591778
O O14 0.000000 0.869850 0.606865
O O15 0.728094 0.271907 0.750000
O O16 0.757776 0.260048 0.615784
O O17 0.306686 0.818212 0.000000
O O18 0.000000 0.500000 0.923627
O O19 0.000000 0.621592 0.000000
#
# Coordination Sequence:
#
# PCOD8315895 Si02
#       7
#    16  16  16  16  16  16   8
#     4  10  19  31  51  79 108 140 176 214 253 304
#     4  10  21  32  44  64  87 116 157 206 249 292
#     4  10  19  33  54  78 103 132 171 213 256 310
#     4   9  18  32  47  62  83 118 161 202 249 293
#     4  10  20  35  52  72  95 132 168 205 254 311
#     4  10  20  34  50  71 101 134 169 209 253 308
#     4   9  18  32  50  76 107 135 166 210 262 305
#
# _framework density 16.745709999999999
#
# number of rings (size 3 to 8) (size 9 to 14) (size 15 to 20)
#    0.000    2.231    2.308    0.923    1.077    3.231 
#    0.000    1.538    0.000    0.000    0.000    0.000 
#    0.000    2.154    0.000    1.385    0.000    0.000 
#
# Total GULP energy -1289559.813912 kJ/mol
# GULP energy per Si atom -12399.613595 kJ/mol
# Density = 1.670760 g / cm^3
# Si number density = 16.745710 Si / 1000 Ang^3
#
#
#
# Elastic Constant Matrix: (Units=GPa)
#
#
# Indices 1 2 3 4 5 6 
#
# 1 79.0882 35.3633 32.8661 0.0000 0.0000 0.0000
# 2 35.3633 79.0875 32.8654 0.0000 0.0000 0.0000
# 3 32.8661 32.8654 96.2137 0.0000 0.0000 0.0000
# 4 0.0000 0.0000 0.0000 21.6484 0.0000 0.0000
# 5 0.0000 0.0000 0.0000 0.0000 21.6483 0.0000
# 6 0.0000 0.0000 0.0000 0.0000 0.0000 22.7924
#
#
#
# Elastic Compliance Matrix: (Units=1/GPa)
#
#
# Indices 1 2 3 4 5 6 
#
# 1 0.016870 -0.006000 -0.003713 0.000000 0.000000 0.000000
# 2 -0.006000 0.016870 -0.003713 0.000000 0.000000 0.000000
# 3 -0.003713 -0.003713 0.012930 0.000000 0.000000 0.000000
# 4 0.000000 0.000000 0.000000 0.046193 0.000000 0.000000
# 5 0.000000 0.000000 0.000000 0.000000 0.046193 0.000000
# 6 0.000000 0.000000 0.000000 0.000000 0.000000 0.043874
#
#
# Mechanical properties :
#
#
# Convention : Reuss Voigt Hill
#
# Bulk Modulus (GPa) = 50.45991 50.73100 50.59546
# Shear Modulus (GPa) = 23.10652 23.43747 23.27200
#
# Velocity S-wave (km/s) = 3.71866 3.74520 3.73195
# Velocity P-wave (km/s) = 6.97398 7.00448 6.98924
#
# Compressibility (1/GPa) = 0.01981771
#
# Stress axis : x y z
#
# Youngs Moduli (GPa) = 59.27650 59.27624 77.33828
#
# Poissons Ratio (x) = 0.35568 0.28716
# Poissons Ratio (y) = 0.35568 0.28715
# Poissons Ratio (z) = 0.22010 0.22009
#
# Static dielectric constant tensor:
#      x y z
#    x 2.995930 0.000000 0.000000 
#    y 0.000000 2.995930 0.000000 
#    z 0.000000 0.000000 3.336650 
# 
# 
# High freq. dielectric constant tensor:
#      x y z
#    x 1.621100 0.000000 0.000000 
#    y 0.000000 1.621100 0.000000 
#    z 0.000000 0.000000 1.656700 
# 
# From -- ./inp_files/8079.got.cif
#   From: 2010.03.12/outbox.cif.g09.slc.cpg/sg131_5_cif.got.tgz:8079.got - 2010.04.06 17:36:35.
