data_PCOD8315132
_publ_section_title
;
Structure prediction by ZEFSAII (Michael W. Deem and Ramdas Pophale) SiO2 
 PCOD8315132
Probable space group: P 4/N M M
;
_chemical_formula_sum "Si O2"
_cell_formula_units_Z 112
_cell_length_a 17.698444
_cell_length_b 17.698444
_cell_length_c 21.302458
_cell_angle_alpha 90.000000
_cell_angle_beta 90.000000
_cell_angle_gamma 90.000000
_cell_volume 6672.673728
_symmetry_space_group_name_H-M "P 4/N M M"
_symmetry_group_IT_number 129
_symmetry_cell_setting 'tetragonal'
loop_
_space_group_symop_operation_xyz
x,y,z
1/2-y,x,z
1/2-x,1/2-y,z
y,1/2-x,z
1/2+x,-y,-z
-x,1/2+y,-z
1/2+y,1/2+x,-z
-y,-x,-z
-x,-y,-z
1/2+y,-x,-z
1/2+x,1/2+y,-z
-y,1/2+x,-z
1/2-x,y,z
x,1/2-y,z
1/2-y,1/2-x,z
y,x,z
loop_
_atom_site_type_symbol
_atom_site_label
_atom_site_fract_x
_atom_site_fract_y
_atom_site_fract_z
Si Si1 0.334475 0.460319 0.866582
Si Si2 0.336356 0.458725 0.572812
Si Si3 0.936413 0.063553 0.647714
Si Si4 0.458723 0.163646 0.427251
Si Si5 0.436720 0.936688 0.788966
Si Si6 0.165511 0.039685 0.133371
Si Si7 0.496141 0.878388 0.000056
O O1 0.250000 0.439219 0.844359
O O2 0.386439 0.386439 0.858537
O O3 0.364286 0.529980 0.824802
O O4 0.329329 0.488281 0.938286
O O5 0.250000 0.440446 0.589709
O O6 0.384542 0.384542 0.590736
O O7 0.362926 0.531490 0.612337
O O8 0.346739 0.479265 0.500031
O O9 0.913604 0.086298 0.718419
O O10 0.862920 0.031486 0.612277
O O11 0.999987 0.999987 0.646402
O O12 0.440438 0.250000 0.410357
O O13 0.384542 0.115459 0.409326
O O14 0.469969 0.864280 0.824899
O O15 0.500043 0.999957 0.788207
O O16 0.250000 0.060749 0.155569
O O17 0.113557 0.113557 0.141517
O O18 0.170565 0.011866 0.061631
O O19 0.550207 0.949794 0.000221
O O20 0.410219 0.910219 0.000000
#
# Coordination Sequence:
#
# PCOD8315132 Si02
#       7
#    16  16  16  16  16  16  16
#     4  10  19  31  49  73  99 126 157 194 237 285
#     4   9  17  29  47  72 100 128 157 191 233 281
#     4   9  17  30  48  67  91 124 164 204 235 267
#     4   9  17  29  47  72 100 128 157 191 233 281
#     4   9  18  32  48  67  90 124 168 202 229 274
#     4  10  19  31  49  73  99 126 157 194 237 285
#     4   9  15  28  49  70  94 124 161 197 230 274
#
# _framework density 16.784875
#
# number of rings (size 3 to 8) (size 9 to 14) (size 15 to 20)
#    0.000    2.714    1.429    0.857    0.000    3.429 
#    0.000    1.429    0.000    3.429    0.000   13.000 
#    0.000    0.000    0.000    0.000    0.000    0.000 
#
# Total GULP energy -1388522.072577 kJ/mol
# GULP energy per Si atom -12397.518505 kJ/mol
# Density = 1.674667 g / cm^3
# Si number density = 16.784875 Si / 1000 Ang^3
#
#
#
# Elastic Constant Matrix: (Units=GPa)
#
#
# Indices 1 2 3 4 5 6 
#
# 1 83.5817 66.4312 46.3178 0.0000 0.0000 0.0000
# 2 66.4312 83.5817 46.3178 0.0000 0.0000 0.0000
# 3 46.3178 46.3178 106.3316 0.0000 0.0000 0.0000
# 4 0.0000 0.0000 0.0000 12.7714 0.0000 0.0000
# 5 0.0000 0.0000 0.0000 0.0000 12.7714 0.0000
# 6 0.0000 0.0000 0.0000 0.0000 0.0000 15.9666
#
#
#
# Elastic Compliance Matrix: (Units=1/GPa)
#
#
# Indices 1 2 3 4 5 6 
#
# 1 0.033713 -0.024594 -0.003972 0.000000 0.000000 0.000000
# 2 -0.024594 0.033713 -0.003972 0.000000 0.000000 0.000000
# 3 -0.003972 -0.003972 0.012865 0.000000 0.000000 0.000000
# 4 0.000000 0.000000 0.000000 0.078300 0.000000 0.000000
# 5 0.000000 0.000000 0.000000 0.000000 0.078300 0.000000
# 6 0.000000 0.000000 0.000000 0.000000 0.000000 0.062631
#
#
# Mechanical properties :
#
#
# Convention : Reuss Voigt Hill
#
# Bulk Modulus (GPa) = 65.72777 65.73648 65.73213
# Shear Modulus (GPa) = 13.52556 15.93044 14.72800
#
# Velocity S-wave (km/s) = 2.84177 3.08408 2.96540
# Velocity P-wave (km/s) = 7.07188 7.20633 7.13942
#
# Compressibility (1/GPa) = 0.01521427
#
# Stress axis : x y z
#
# Youngs Moduli (GPa) = 29.66197 29.66197 77.72955
#
# Poissons Ratio (x) = 0.72951 0.30876
# Poissons Ratio (y) = 0.72951 0.30876
# Poissons Ratio (z) = 0.11782 0.11782
#
# Static dielectric constant tensor:
#      x y z
#    x 2.952290 0.000000 0.000000 
#    y 0.000000 2.952290 0.000000 
#    z 0.000000 0.000000 3.378970 
# 
# 
# High freq. dielectric constant tensor:
#      x y z
#    x 1.625060 0.000000 0.000000 
#    y 0.000000 1.625060 0.000000 
#    z 0.000000 0.000000 1.652560 
# 
# From -- ./inp_files/6641.got.cif
#   From: 2010.03.12/outbox.cif.g09.slc.cpg/sg129_4_cif.got.tgz:6641.got - 2010.04.06 17:19:44.
