data_PCOD8315028
_publ_section_title
;
Structure prediction by ZEFSAII (Michael W. Deem and Ramdas Pophale) SiO2 
 PCOD8315028
Probable space group: P 4/N M M
;
_chemical_formula_sum "Si O2"
_cell_formula_units_Z 128
_cell_length_a 18.323369
_cell_length_b 18.323369
_cell_length_c 23.195687
_cell_angle_alpha 90.000000
_cell_angle_beta 90.000000
_cell_angle_gamma 90.000000
_cell_volume 7787.855683
_symmetry_space_group_name_H-M "P 4/N M M"
_symmetry_group_IT_number 129
_symmetry_cell_setting 'tetragonal'
loop_
_space_group_symop_operation_xyz
x,y,z
1/2-y,x,z
1/2-x,1/2-y,z
y,1/2-x,z
1/2+x,-y,-z
-x,1/2+y,-z
1/2+y,1/2+x,-z
-y,-x,-z
-x,-y,-z
1/2+y,-x,-z
1/2+x,1/2+y,-z
-y,1/2+x,-z
1/2-x,y,z
x,1/2-y,z
1/2-y,1/2-x,z
y,x,z
loop_
_atom_site_type_symbol
_atom_site_label
_atom_site_fract_x
_atom_site_fract_y
_atom_site_fract_z
Si Si1 0.952459 0.836139 0.694328
Si Si2 0.937313 0.442660 0.261641
Si Si3 0.065217 0.836031 0.370003
Si Si4 0.115979 0.496877 0.519503
Si Si5 0.438575 0.558842 0.868200
Si Si6 0.546435 0.328785 0.408607
Si Si7 0.440323 0.833763 0.029491
Si Si8 0.664924 0.544295 0.925832
O O1 0.942368 0.750000 0.703999
O O2 0.874287 0.874287 0.705122
O O3 0.014645 0.868503 0.736328
O O4 0.981513 0.860688 0.631095
O O5 0.870255 0.446465 0.306647
O O6 0.907062 0.443392 0.196692
O O7 0.988233 0.511768 0.275401
O O8 0.079714 0.750000 0.363080
O O9 0.131017 0.876339 0.402861
O O10 0.000032 0.852719 0.415114
O O11 0.084866 0.415135 0.513368
O O12 0.178635 0.514496 0.473193
O O13 0.052309 0.552309 0.500000
O O14 0.492553 0.492553 0.880140
O O15 0.369060 0.546245 0.908426
O O16 0.483361 0.633343 0.881678
O O17 0.565062 0.250000 0.384021
O O18 0.420437 0.750000 0.038721
O O19 0.370923 0.870923 0.000000
O O20 0.512613 0.843604 0.990452
O O21 0.750000 0.558917 0.910660
O O22 0.620246 0.620246 0.921189
#
# Coordination Sequence:
#
# PCOD8315028 Si02
#       8
#    16  16  16  16  16  16  16  16
#     4   9  17  29  45  64  86 113 146 185 228 273
#     4   9  18  32  47  63  87 119 152 187 227 269
#     4  10  19  29  43  65  91 116 145 184 225 264
#     4   9  16  27  44  63  83 109 141 176 215 261
#     4   9  17  30  48  66  86 117 154 188 223 262
#     4   9  17  29  44  62  86 117 149 178 215 266
#     4   9  17  29  46  68  93 120 149 181 217 258
#     4   9  17  29  46  69  95 120 147 180 219 265
#
# _framework density 16.435846999999999
#
# number of rings (size 3 to 8) (size 9 to 14) (size 15 to 20)
#    0.000    2.875    0.000    1.500    0.000    6.125 
#    0.000    0.000    0.000    2.250    0.000   10.500 
#    0.000   11.000    0.000    9.250    0.000    0.000 
#
# Total GULP energy -1585767.048595 kJ/mol
# GULP energy per Si atom -12388.805067 kJ/mol
# Density = 1.639844 g / cm^3
# Si number density = 16.435847 Si / 1000 Ang^3
#
#
#
# Elastic Constant Matrix: (Units=GPa)
#
#
# Indices 1 2 3 4 5 6 
#
# 1 76.7353 32.3708 33.3342 0.0000 0.0000 0.0000
# 2 32.3708 76.7353 33.3342 0.0000 0.0000 0.0000
# 3 33.3342 33.3342 109.1982 0.0000 0.0000 0.0000
# 4 0.0000 0.0000 0.0000 17.3461 0.0000 0.0000
# 5 0.0000 0.0000 0.0000 0.0000 17.3461 0.0000
# 6 0.0000 0.0000 0.0000 0.0000 0.0000 14.6003
#
#
#
# Elastic Compliance Matrix: (Units=1/GPa)
#
#
# Indices 1 2 3 4 5 6 
#
# 1 0.016904 -0.005637 -0.003439 0.000000 0.000000 0.000000
# 2 -0.005637 0.016904 -0.003439 0.000000 0.000000 0.000000
# 3 -0.003439 -0.003439 0.011258 0.000000 0.000000 0.000000
# 4 0.000000 0.000000 0.000000 0.057650 0.000000 0.000000
# 5 0.000000 0.000000 0.000000 0.000000 0.057650 0.000000
# 6 0.000000 0.000000 0.000000 0.000000 0.000000 0.068492
#
#
# Mechanical properties :
#
#
# Convention : Reuss Voigt Hill
#
# Bulk Modulus (GPa) = 49.91536 51.19414 50.55475
# Shear Modulus (GPa) = 19.18902 20.76714 19.97808
#
# Velocity S-wave (km/s) = 3.42059 3.55847 3.49021
# Velocity P-wave (km/s) = 6.78501 6.93535 6.86059
#
# Compressibility (1/GPa) = 0.02003391
#
# Stress axis : x y z
#
# Youngs Moduli (GPa) = 59.15833 59.15833 88.82958
#
# Poissons Ratio (x) = 0.33346 0.30552
# Poissons Ratio (y) = 0.33346 0.30552
# Poissons Ratio (z) = 0.20347 0.20347
#
# Static dielectric constant tensor:
#      x y z
#    x 2.946800 0.000000 0.000000 
#    y 0.000000 2.946800 0.000000 
#    z 0.000000 0.000000 3.246850 
# 
# 
# High freq. dielectric constant tensor:
#      x y z
#    x 1.615570 0.000000 0.000000 
#    y 0.000000 1.615570 0.000000 
#    z 0.000000 0.000000 1.637470 
# 
# From -- ./inp_files/7361.got.cif
#   From: 2010.03.12/outbox.cif.g09.slc.cpg/sg129_4_cif.got.tgz:7361.got - 2010.04.06 17:19:44.
