data_PCOD8315049
_publ_section_title
;
Structure prediction by ZEFSAII (Michael W. Deem and Ramdas Pophale) SiO2 
 PCOD8315049
Probable space group: P 4/N M M
;
_chemical_formula_sum "Si O2"
_cell_formula_units_Z 112
_cell_length_a 14.079855
_cell_length_b 14.079855
_cell_length_c 35.240260
_cell_angle_alpha 90.000000
_cell_angle_beta 90.000000
_cell_angle_gamma 90.000000
_cell_volume 6986.110788
_symmetry_space_group_name_H-M "P 4/N M M"
_symmetry_group_IT_number 129
_symmetry_cell_setting 'tetragonal'
loop_
_space_group_symop_operation_xyz
x,y,z
1/2-y,x,z
1/2-x,1/2-y,z
y,1/2-x,z
1/2+x,-y,-z
-x,1/2+y,-z
1/2+y,1/2+x,-z
-y,-x,-z
-x,-y,-z
1/2+y,-x,-z
1/2+x,1/2+y,-z
-y,1/2+x,-z
1/2-x,y,z
x,1/2-y,z
1/2-y,1/2-x,z
y,x,z
loop_
_atom_site_type_symbol
_atom_site_label
_atom_site_fract_x
_atom_site_fract_y
_atom_site_fract_z
Si Si1 0.483386 0.862364 0.748491
Si Si2 0.858054 0.010144 0.111676
Si Si3 0.139879 0.858321 0.180002
Si Si4 0.358497 0.988024 0.388169
Si Si5 0.014005 0.859562 0.524877
Si Si6 0.860172 0.014901 0.025482
Si Si7 0.862236 0.144466 0.678631
O O1 0.503757 0.750000 0.746760
O O2 0.426066 0.892334 0.785970
O O3 0.420721 0.898239 0.713055
O O4 0.584040 0.915961 0.747979
O O5 0.750000 0.981371 0.118353
O O6 0.890912 0.090435 0.141103
O O7 0.874340 0.047782 0.068991
O O8 0.915306 0.915306 0.119921
O O9 0.250000 0.869411 0.171932
O O10 0.114302 0.750000 0.191160
O O11 0.250000 0.015605 0.379283
O O12 0.418334 0.081667 0.379054
O O13 0.371419 0.954764 0.431454
O O14 0.392914 0.902143 0.361366
O O15 0.995391 0.750000 0.514391
O O16 0.917066 0.917066 0.516384
O O17 0.100432 0.899569 0.500000
O O18 0.750000 0.996168 0.015855
O O19 0.917596 0.917596 0.017163
O O20 0.899388 0.100613 0.000000
O O21 0.750000 0.153808 0.681366
O O22 0.907747 0.250000 0.681162
#
# Coordination Sequence:
#
# PCOD8315049 Si02
#       7
#    16  16  16  16  16  16  16
#     4  10  19  30  45  64  87 115 145 178 216 258
#     4   9  17  29  45  65  89 115 143 177 217 261
#     4   9  17  29  45  65  88 114 145 179 214 253
#     4   9  17  29  45  66  92 119 146 178 217 263
#     4   9  18  31  46  66  92 121 154 191 230 274
#     4   9  18  31  46  66  91 118 149 185 225 269
#     4   9  17  29  44  62  85 112 142 176 212 250
#
# _framework density 16.03181
#
# number of rings (size 3 to 8) (size 9 to 14) (size 15 to 20)
#    0.000    2.857    0.000    1.286    0.000    3.857 
#    0.000    5.714    0.000    2.571    0.000    0.000 
#    0.000   16.000    0.000    0.000    0.000    0.143 
#
# Total GULP energy -1388650.482902 kJ/mol
# GULP energy per Si atom -12398.665026 kJ/mol
# Density = 1.599532 g / cm^3
# Si number density = 16.031810 Si / 1000 Ang^3
#
#
#
# Elastic Constant Matrix: (Units=GPa)
#
#
# Indices 1 2 3 4 5 6 
#
# 1 87.8010 48.8053 57.3107 0.0000 0.0000 0.0000
# 2 48.8053 87.8008 57.3106 0.0000 0.0000 0.0000
# 3 57.3107 57.3106 102.2259 0.0000 0.0000 0.0000
# 4 0.0000 0.0000 0.0000 25.8416 0.0000 0.0000
# 5 0.0000 0.0000 0.0000 0.0000 25.8417 0.0000
# 6 0.0000 0.0000 0.0000 0.0000 0.0000 21.1862
#
#
#
# Elastic Compliance Matrix: (Units=1/GPa)
#
#
# Indices 1 2 3 4 5 6 
#
# 1 0.019733 -0.005911 -0.007749 0.000000 0.000000 0.000000
# 2 -0.005911 0.019733 -0.007749 0.000000 0.000000 0.000000
# 3 -0.007749 -0.007749 0.018471 0.000000 0.000000 0.000000
# 4 0.000000 0.000000 0.000000 0.038697 0.000000 0.000000
# 5 0.000000 0.000000 0.000000 0.000000 0.038697 0.000000
# 6 0.000000 0.000000 0.000000 0.000000 0.000000 0.047200
#
#
# Mechanical properties :
#
#
# Convention : Reuss Voigt Hill
#
# Bulk Modulus (GPa) = 66.14177 67.18675 66.66426
# Shear Modulus (GPa) = 21.70229 22.20065 21.95147
#
# Velocity S-wave (km/s) = 3.68326 3.72531 3.70434
# Velocity P-wave (km/s) = 7.70939 7.77839 7.74396
#
# Compressibility (1/GPa) = 0.01511904
#
# Stress axis : x y z
#
# Youngs Moduli (GPa) = 50.67617 50.67604 54.13864
#
# Poissons Ratio (x) = 0.29953 0.41953
# Poissons Ratio (y) = 0.29954 0.41953
# Poissons Ratio (z) = 0.39270 0.39270
#
# Static dielectric constant tensor:
#      x y z
#    x 2.968740 0.000000 0.000000 
#    y 0.000000 2.968740 0.000000 
#    z 0.000000 0.000000 3.231320 
# 
# 
# High freq. dielectric constant tensor:
#      x y z
#    x 1.603390 0.000000 0.000000 
#    y 0.000000 1.603390 0.000000 
#    z 0.000000 0.000000 1.627720 
# 
# From -- ./inp_files/7893.got.cif
#   From: 2010.03.12/outbox.cif.g09.slc.cpg/sg129_4_cif.got.tgz:7893.got - 2010.04.06 17:19:44.
