data_PCOD8315739
_publ_section_title
;
Structure prediction by ZEFSAII (Michael W. Deem and Ramdas Pophale) SiO2 
 PCOD8315739
Probable space group: P 42/M M C
;
_chemical_formula_sum "Si O2"
_cell_formula_units_Z 128
_cell_length_a 19.569492
_cell_length_b 19.569492
_cell_length_c 18.910688
_cell_angle_alpha 90.000000
_cell_angle_beta 90.000000
_cell_angle_gamma 90.000000
_cell_volume 7242.131954
_symmetry_space_group_name_H-M "P 42/M M C"
_symmetry_group_IT_number 131
_symmetry_cell_setting 'tetragonal'
loop_
_space_group_symop_operation_xyz
x,y,z
-x,-y,z
-y,x,1/2+z
y,-x,1/2+z
-x,y,-z
x,-y,-z
y,x,1/2-z
-y,-x,1/2-z
-x,-y,-z
x,y,-z
y,-x,1/2-z
-y,x,1/2-z
x,-y,z
-x,y,z
-y,-x,1/2+z
y,x,1/2+z
loop_
_atom_site_type_symbol
_atom_site_label
_atom_site_fract_x
_atom_site_fract_y
_atom_site_fract_z
Si Si1 0.817198 0.301864 0.920064
Si Si2 0.290696 0.920890 0.306659
Si Si3 0.140121 0.805204 0.578960
Si Si4 0.130575 0.075988 0.320786
Si Si5 0.423114 0.423305 0.833980
Si Si6 0.324080 0.846602 0.166092
Si Si7 0.075374 0.579952 0.577180
Si Si8 0.315083 0.688334 0.834054
O O1 0.889418 0.318048 0.880967
O O2 0.809547 0.221154 0.924384
O O3 0.755230 0.333020 0.873275
O O4 0.817738 0.332688 0.000000
O O5 0.209614 0.915147 0.301530
O O6 0.318880 0.869410 0.247183
O O7 0.315237 0.000000 0.299172
O O8 0.109119 0.801533 0.500000
O O9 0.108614 0.871251 0.618137
O O10 0.119180 0.738319 0.622999
O O11 0.087662 0.087662 0.250000
O O12 0.115620 0.000000 0.349538
O O13 0.421717 0.421717 0.750000
O O14 0.401067 0.500000 0.859310
O O15 0.500000 0.407413 0.861129
O O16 0.372245 0.364643 0.863535
O O17 0.394729 0.875664 0.138235
O O18 0.330970 0.766740 0.149516
O O19 0.103918 0.601520 0.500000
O O20 0.071221 0.500000 0.583779
O O21 0.000000 0.611391 0.587602
O O22 0.313065 0.686936 0.750000
#
# Coordination Sequence:
#
# PCOD8315739 Si02
#       8
#    16  16  16  16  16  16  16  16
#     4   9  18  31  47  71 102 134 166 209 263 309
#     4  10  19  30  49  73  96 130 170 213 260 309
#     4   9  18  30  48  73  99 126 162 209 258 306
#     4  10  19  32  49  67  93 128 169 212 259 311
#     4   8  15  29  49  76 111 144 175 212 247 287
#     4  11  18  29  52  76 106 132 168 213 256 302
#     4   9  19  35  51  70 103 143 173 201 247 304
#     4  10  18  29  51  78 105 138 172 211 260 306
#
# _framework density 17.674353
#
# number of rings (size 3 to 8) (size 9 to 14) (size 15 to 20)
#    0.000    2.500    2.500    1.500    0.000    1.625 
#    0.000    2.500    0.000    1.875    0.000    1.750 
#    0.000    0.000    0.000    3.750    0.000    1.375 
#
# Total GULP energy -1586209.149088 kJ/mol
# GULP energy per Si atom -12392.258977 kJ/mol
# Density = 1.763413 g / cm^3
# Si number density = 17.674353 Si / 1000 Ang^3
#
#
#
# Elastic Constant Matrix: (Units=GPa)
#
#
# Indices 1 2 3 4 5 6 
#
# 1 68.3926 49.2176 29.6530 0.0000 0.0000 0.0000
# 2 49.2176 68.3923 29.6528 0.0000 0.0000 0.0000
# 3 29.6530 29.6528 98.0139 0.0000 0.0000 0.0000
# 4 0.0000 0.0000 0.0000 13.9849 0.0000 0.0000
# 5 0.0000 0.0000 0.0000 0.0000 13.9849 0.0000
# 6 0.0000 0.0000 0.0000 0.0000 0.0000 22.0623
#
#
#
# Elastic Compliance Matrix: (Units=1/GPa)
#
#
# Indices 1 2 3 4 5 6 
#
# 1 0.031092 -0.021059 -0.003035 0.000000 0.000000 0.000000
# 2 -0.021059 0.031093 -0.003035 0.000000 0.000000 0.000000
# 3 -0.003035 -0.003035 0.012039 0.000000 0.000000 0.000000
# 4 0.000000 0.000000 0.000000 0.071506 0.000000 0.000000
# 5 0.000000 0.000000 0.000000 0.000000 0.071506 0.000000
# 6 0.000000 0.000000 0.000000 0.000000 0.000000 0.045326
#
#
# Mechanical properties :
#
#
# Convention : Reuss Voigt Hill
#
# Bulk Modulus (GPa) = 50.08983 50.20507 50.14745
# Shear Modulus (GPa) = 15.45707 18.42478 16.94092
#
# Velocity S-wave (km/s) = 2.96048 3.23221 3.09933
# Velocity P-wave (km/s) = 6.33150 6.51129 6.42202
#
# Compressibility (1/GPa) = 0.01996413
#
# Stress axis : x y z
#
# Youngs Moduli (GPa) = 32.16220 32.16209 83.06117
#
# Poissons Ratio (x) = 0.67731 0.25213
# Poissons Ratio (y) = 0.67731 0.25213
# Poissons Ratio (z) = 0.09763 0.09763
#
# Static dielectric constant tensor:
#      x y z
#    x 3.236520 0.000000 0.000000 
#    y 0.000000 3.236530 0.000000 
#    z 0.000000 0.000000 3.319110 
# 
# 
# High freq. dielectric constant tensor:
#      x y z
#    x 1.665950 0.000000 0.000000 
#    y 0.000000 1.665950 0.000000 
#    z 0.000000 0.000000 1.673450 
# 
# From -- ./inp_files/8439.got.cif
#   From: 2010.03.12/outbox.cif.g09.slc.cpg/sg131_5_cif.got.tgz:8439.got - 2010.04.06 17:36:35.
