data_PCOD8315054
_publ_section_title
;
Structure prediction by ZEFSAII (Michael W. Deem and Ramdas Pophale) SiO2 
 PCOD8315054
Probable space group: P 4/N M M
;
_chemical_formula_sum "Si O2"
_cell_formula_units_Z 104
_cell_length_a 13.997399
_cell_length_b 13.997399
_cell_length_c 32.957977
_cell_angle_alpha 90.000000
_cell_angle_beta 90.000000
_cell_angle_gamma 90.000000
_cell_volume 6457.363451
_symmetry_space_group_name_H-M "P 4/N M M"
_symmetry_group_IT_number 129
_symmetry_cell_setting 'tetragonal'
loop_
_space_group_symop_operation_xyz
x,y,z
1/2-y,x,z
1/2-x,1/2-y,z
y,1/2-x,z
1/2+x,-y,-z
-x,1/2+y,-z
1/2+y,1/2+x,-z
-y,-x,-z
-x,-y,-z
1/2+y,-x,-z
1/2+x,1/2+y,-z
-y,1/2+x,-z
1/2-x,y,z
x,1/2-y,z
1/2-y,1/2-x,z
y,x,z
loop_
_atom_site_type_symbol
_atom_site_label
_atom_site_fract_x
_atom_site_fract_y
_atom_site_fract_z
Si Si1 0.360102 0.639899 0.500000
Si Si2 0.013372 0.640809 0.120111
Si Si3 0.638380 0.016546 0.577283
Si Si4 0.637828 0.017130 0.267198
Si Si5 0.860018 0.484582 0.027467
Si Si6 0.855998 0.136938 0.807615
Si Si7 0.359639 0.640340 0.654620
O O1 0.250000 0.622184 0.511306
O O2 0.422222 0.607912 0.538312
O O3 0.986069 0.750000 0.129351
O O4 0.048385 0.627242 0.073996
O O5 0.097924 0.605525 0.149553
O O6 0.918197 0.581804 0.129197
O O7 0.750000 0.992668 0.576859
O O8 0.609202 0.076270 0.616825
O O9 0.583253 0.916748 0.577153
O O10 0.750000 0.994928 0.263767
O O11 0.599896 0.079358 0.229364
O O12 0.612346 0.075378 0.307498
O O13 0.583554 0.916447 0.267753
O O14 0.750000 0.505060 0.016845
O O15 0.918271 0.581730 0.018572
O O16 0.898303 0.398303 0.000000
O O17 0.750000 0.091379 0.804863
O O18 0.847540 0.250000 0.804755
O O19 0.250000 0.625167 0.641834
O O20 0.377941 0.750000 0.667066
#
# Coordination Sequence:
#
# PCOD8315054 Si02
#       7
#     8  16  16  16  16  16  16
#     4   9  17  30  48  68  87 109 142 184 226 263
#     4   9  17  29  45  66  92 119 146 178 218 267
#     4  10  19  30  45  65  90 118 146 178 216 260
#     4  10  19  30  45  65  90 118 146 178 216 261
#     4   9  18  31  46  66  92 121 154 191 230 275
#     4   9  17  29  44  62  85 113 145 180 215 250
#     4   9  17  30  48  68  88 112 145 184 222 256
#
# _framework density 16.105644000000002
#
# number of rings (size 3 to 8) (size 9 to 14) (size 15 to 20)
#    0.000    2.692    0.000    2.077    0.000    5.077 
#    0.000    3.077    0.000    2.769    0.000    0.000 
#    0.000   24.615    0.000    0.000    0.000    0.154 
#
# Total GULP energy -1289638.556682 kJ/mol
# GULP energy per Si atom -12400.370737 kJ/mol
# Density = 1.606899 g / cm^3
# Si number density = 16.105644 Si / 1000 Ang^3
#
#
#
# Elastic Constant Matrix: (Units=GPa)
#
#
# Indices 1 2 3 4 5 6 
#
# 1 84.2493 51.4030 58.2123 0.0000 0.0000 0.0000
# 2 51.4030 84.2497 58.2123 0.0000 0.0000 0.0000
# 3 58.2123 58.2123 115.5746 0.0000 0.0000 0.0000
# 4 0.0000 0.0000 0.0000 22.8447 0.0000 0.0000
# 5 0.0000 0.0000 0.0000 0.0000 22.8446 0.0000
# 6 0.0000 0.0000 0.0000 0.0000 0.0000 24.3858
#
#
#
# Elastic Compliance Matrix: (Units=1/GPa)
#
#
# Indices 1 2 3 4 5 6 
#
# 1 0.021715 -0.008730 -0.006540 0.000000 0.000000 0.000000
# 2 -0.008730 0.021715 -0.006540 0.000000 0.000000 0.000000
# 3 -0.006540 -0.006540 0.015241 0.000000 0.000000 0.000000
# 4 0.000000 0.000000 0.000000 0.043774 0.000000 0.000000
# 5 0.000000 0.000000 0.000000 0.000000 0.043774 0.000000
# 6 0.000000 0.000000 0.000000 0.000000 0.000000 0.041007
#
#
# Mechanical properties :
#
#
# Convention : Reuss Voigt Hill
#
# Bulk Modulus (GPa) = 66.44622 68.85874 67.65248
# Shear Modulus (GPa) = 21.19876 21.76476 21.48176
#
# Velocity S-wave (km/s) = 3.63193 3.68009 3.65609
# Velocity P-wave (km/s) = 7.67684 7.80414 7.74076
#
# Compressibility (1/GPa) = 0.01504977
#
# Stress axis : x y z
#
# Youngs Moduli (GPa) = 46.05131 46.05168 65.61352
#
# Poissons Ratio (x) = 0.40202 0.42913
# Poissons Ratio (y) = 0.40202 0.42912
# Poissons Ratio (z) = 0.30119 0.30119
#
# Static dielectric constant tensor:
#      x y z
#    x 2.933140 0.000000 0.000000 
#    y 0.000000 2.933140 0.000000 
#    z 0.000000 0.000000 3.223260 
# 
# 
# High freq. dielectric constant tensor:
#      x y z
#    x 1.604440 0.000000 0.000000 
#    y 0.000000 1.604440 0.000000 
#    z 0.000000 0.000000 1.634230 
# 
# From -- ./inp_files/7921.got.cif
#   From: 2010.03.12/outbox.cif.g09.slc.cpg/sg129_4_cif.got.tgz:7921.got - 2010.04.06 17:19:44.
