data_PCOD8315093
_publ_section_title
;
Structure prediction by ZEFSAII (Michael W. Deem and Ramdas Pophale) SiO2 
 PCOD8315093
Probable space group: P 4/N M M
;
_chemical_formula_sum "Si O2"
_cell_formula_units_Z 112
_cell_length_a 14.381720
_cell_length_b 14.381720
_cell_length_c 31.459283
_cell_angle_alpha 90.000000
_cell_angle_beta 90.000000
_cell_angle_gamma 90.000000
_cell_volume 6506.845255
_symmetry_space_group_name_H-M "P 4/N M M"
_symmetry_group_IT_number 129
_symmetry_cell_setting 'tetragonal'
loop_
_space_group_symop_operation_xyz
x,y,z
1/2-y,x,z
1/2-x,1/2-y,z
y,1/2-x,z
1/2+x,-y,-z
-x,1/2+y,-z
1/2+y,1/2+x,-z
-y,-x,-z
-x,-y,-z
1/2+y,-x,-z
1/2+x,1/2+y,-z
-y,1/2+x,-z
1/2-x,y,z
x,1/2-y,z
1/2-y,1/2-x,z
y,x,z
loop_
_atom_site_type_symbol
_atom_site_label
_atom_site_fract_x
_atom_site_fract_y
_atom_site_fract_z
Si Si1 0.845839 0.987367 0.478395
Si Si2 0.638690 0.017518 0.968266
Si Si3 0.355403 0.644585 0.887566
Si Si4 0.644277 0.357529 0.731670
Si Si5 0.920085 0.353509 0.434264
Si Si6 0.487658 0.858214 0.191283
Si Si7 0.494724 0.642593 0.656504
O O1 0.750000 0.931937 0.472040
O O2 0.929547 0.929547 0.458961
O O3 0.859484 0.002608 0.528657
O O4 0.837210 0.081116 0.450612
O O5 0.750000 0.000955 0.978598
O O6 0.628176 0.066151 0.922789
O O7 0.581097 0.918904 0.969230
O O8 0.591639 0.091639 0.000000
O O9 0.250000 0.627520 0.905183
O O10 0.362268 0.750000 0.870005
O O11 0.377960 0.573115 0.850281
O O12 0.750000 0.377878 0.746593
O O13 0.631120 0.250000 0.720462
O O14 0.574591 0.388677 0.768711
O O15 0.619432 0.412673 0.689125
O O16 0.879794 0.250000 0.428825
O O17 0.962324 0.388779 0.390158
O O18 0.516392 0.750000 0.194057
O O19 0.581386 0.918615 0.189905
O O20 0.523265 0.750000 0.657305
O O21 0.585473 0.585473 0.669902
#
# Coordination Sequence:
#
# PCOD8315093 Si02
#       7
#    16  16  16  16  16  16  16
#     4  10  19  31  47  66  91 120 148 181 218 260
#     4  10  20  33  50  73 101 133 170 211 253 298
#     4   9  17  30  50  74  97 124 160 201 244 288
#     4   9  18  32  49  69  91 116 150 192 233 269
#     4   9  18  32  49  67  88 116 149 185 224 261
#     4  10  19  31  48  69  95 125 156 192 233 279
#     4  10  19  31  48  69  94 121 147 178 218 268
#
# _framework density 17.212641999999999
#
# number of rings (size 3 to 8) (size 9 to 14) (size 15 to 20)
#    0.000    2.429    0.000    3.429    0.000    3.857 
#    0.000    2.857    0.000    2.571    0.000    2.000 
#    0.000   13.714    0.000    0.000    0.000    0.143 
#
# Total GULP energy -1387707.048032 kJ/mol
# GULP energy per Si atom -12390.241500 kJ/mol
# Density = 1.717346 g / cm^3
# Si number density = 17.212642 Si / 1000 Ang^3
#
#
#
# Elastic Constant Matrix: (Units=GPa)
#
#
# Indices 1 2 3 4 5 6 
#
# 1 98.5351 65.4277 51.4214 0.0000 0.0000 0.0000
# 2 65.4277 98.5351 51.4214 0.0000 0.0000 0.0000
# 3 51.4214 51.4214 85.4738 0.0000 0.0000 0.0000
# 4 0.0000 0.0000 0.0000 18.9347 0.0000 0.0000
# 5 0.0000 0.0000 0.0000 0.0000 18.9347 0.0000
# 6 0.0000 0.0000 0.0000 0.0000 0.0000 22.0793
#
#
#
# Elastic Compliance Matrix: (Units=1/GPa)
#
#
# Indices 1 2 3 4 5 6 
#
# 1 0.020000 -0.010205 -0.005893 0.000000 0.000000 0.000000
# 2 -0.010205 0.020000 -0.005893 0.000000 0.000000 0.000000
# 3 -0.005893 -0.005893 0.018790 0.000000 0.000000 0.000000
# 4 0.000000 0.000000 0.000000 0.052813 0.000000 0.000000
# 5 0.000000 0.000000 0.000000 0.000000 0.052813 0.000000
# 6 0.000000 0.000000 0.000000 0.000000 0.000000 0.045291
#
#
# Mechanical properties :
#
#
# Convention : Reuss Voigt Hill
#
# Bulk Modulus (GPa) = 67.52731 68.78722 68.15726
# Shear Modulus (GPa) = 19.33307 19.60795 19.47051
#
# Velocity S-wave (km/s) = 3.35504 3.37881 3.36694
# Velocity P-wave (km/s) = 7.37053 7.43450 7.40258
#
# Compressibility (1/GPa) = 0.01480882
#
# Stress axis : x y z
#
# Youngs Moduli (GPa) = 50.00015 50.00015 53.22068
#
# Poissons Ratio (x) = 0.51025 0.31362
# Poissons Ratio (y) = 0.51025 0.31362
# Poissons Ratio (z) = 0.29464 0.29464
#
# Static dielectric constant tensor:
#      x y z
#    x 3.394500 0.000000 0.000000 
#    y 0.000000 3.394500 0.000000 
#    z 0.000000 0.000000 3.175040 
# 
# 
# High freq. dielectric constant tensor:
#      x y z
#    x 1.660490 0.000000 0.000000 
#    y 0.000000 1.660490 0.000000 
#    z 0.000000 0.000000 1.661590 
# 
# From -- ./inp_files/7585.got.cif
#   From: 2010.03.12/outbox.cif.g09.slc.cpg/sg129_4_cif.got.tgz:7585.got - 2010.04.06 17:19:44.
