data_PCOD8315716
_publ_section_title
;
Structure prediction by ZEFSAII (Michael W. Deem and Ramdas Pophale) SiO2 
 PCOD8315716
Probable space group: P 42/M M C
;
_chemical_formula_sum "Si O2"
_cell_formula_units_Z 112
_cell_length_a 27.438602
_cell_length_b 27.438602
_cell_length_c 9.410777
_cell_angle_alpha 90.000000
_cell_angle_beta 90.000000
_cell_angle_gamma 90.000000
_cell_volume 7085.156423
_symmetry_space_group_name_H-M "P 42/M M C"
_symmetry_group_IT_number 131
_symmetry_cell_setting 'tetragonal'
loop_
_space_group_symop_operation_xyz
x,y,z
-x,-y,z
-y,x,1/2+z
y,-x,1/2+z
-x,y,-z
x,-y,-z
y,x,1/2-z
-y,-x,1/2-z
-x,-y,-z
x,y,-z
y,-x,1/2-z
-y,x,1/2-z
x,-y,z
-x,y,z
-y,-x,1/2+z
y,x,1/2+z
loop_
_atom_site_type_symbol
_atom_site_label
_atom_site_fract_x
_atom_site_fract_y
_atom_site_fract_z
Si Si1 0.702411 0.227616 0.666626
Si Si2 0.343441 0.054009 0.155269
Si Si3 0.778764 0.500000 0.339286
Si Si4 0.105118 0.412280 0.843650
Si Si5 0.228783 0.945841 0.840828
Si Si6 0.104803 0.500000 0.658716
Si Si7 0.850848 0.219334 0.833027
Si Si8 0.591443 0.219360 0.341910
O O1 0.729648 0.270353 0.750000
O O2 0.705408 0.239262 0.500000
O O3 0.728057 0.175030 0.696800
O O4 0.646093 0.227942 0.718672
O O5 0.360490 0.090755 0.277512
O O6 0.286194 0.052018 0.156956
O O7 0.364430 0.000000 0.185053
O O8 0.361356 0.072487 0.000000
O O9 0.758079 0.500000 0.500000
O O10 0.836857 0.500000 0.342091
O O11 0.759020 0.450884 0.260404
O O12 0.083610 0.453415 0.740459
O O13 0.162393 0.417061 0.855308
O O14 0.081930 0.417478 0.000000
O O15 0.214325 0.905695 0.724986
O O16 0.208789 0.000000 0.798318
O O17 0.209870 0.932133 0.000000
O O18 0.083862 0.500000 0.500000
O O19 0.820999 0.179002 0.750000
O O20 0.851340 0.207785 0.000000
O O21 0.586043 0.242519 0.500000
#
# Coordination Sequence:
#
# PCOD8315716 Si02
#       8
#    16  16   8  16  16   8  16  16
#     4   9  18  30  43  62  88 118 150 181 216 260
#     4   9  18  31  44  58  78 104 132 163 204 253
#     4   9  17  27  41  62  80  99 135 176 211 250
#     4  10  18  28  43  60  76  96 127 168 210 251
#     4   9  18  32  48  66  89 116 145 177 213 253
#     4   9  17  29  42  56  75  97 123 160 209 261
#     4  10  19  31  47  68  94 122 152 184 219 261
#     4   9  17  29  43  59  82 109 135 169 215 258
#
# _framework density 15.807696
#
# number of rings (size 3 to 8) (size 9 to 14) (size 15 to 20)
#    0.000    2.714    0.000    3.000    0.000    5.714 
#    0.000    1.786    0.000    2.143    0.000    0.000 
#    0.000    0.286    0.000    3.000    0.000    1.643 
#
# Total GULP energy -1387878.018985 kJ/mol
# GULP energy per Si atom -12391.768027 kJ/mol
# Density = 1.577172 g / cm^3
# Si number density = 15.807696 Si / 1000 Ang^3
#
#
#
# Elastic Constant Matrix: (Units=GPa)
#
#
# Indices 1 2 3 4 5 6 
#
# 1 70.9215 20.5892 42.9724 0.0000 0.0000 0.0000
# 2 20.5892 70.9222 42.9721 0.0000 0.0000 0.0000
# 3 42.9724 42.9721 114.7961 0.0000 0.0000 0.0000
# 4 0.0000 0.0000 0.0000 22.1221 0.0000 0.0000
# 5 0.0000 0.0000 0.0000 0.0000 22.1221 0.0000
# 6 0.0000 0.0000 0.0000 0.0000 0.0000 9.9769
#
#
#
# Elastic Compliance Matrix: (Units=1/GPa)
#
#
# Indices 1 2 3 4 5 6 
#
# 1 0.018360 -0.001508 -0.006309 0.000000 0.000000 0.000000
# 2 -0.001508 0.018360 -0.006308 0.000000 0.000000 0.000000
# 3 -0.006309 -0.006308 0.013434 0.000000 0.000000 0.000000
# 4 0.000000 0.000000 0.000000 0.045204 0.000000 0.000000
# 5 0.000000 0.000000 0.000000 0.000000 0.045204 0.000000
# 6 0.000000 0.000000 0.000000 0.000000 0.000000 0.100232
#
#
# Mechanical properties :
#
#
# Convention : Reuss Voigt Hill
#
# Bulk Modulus (GPa) = 45.65169 52.18967 48.92068
# Shear Modulus (GPa) = 18.09336 20.85127 19.47231
#
# Velocity S-wave (km/s) = 3.38685 3.63582 3.51354
# Velocity P-wave (km/s) = 6.65105 7.12128 6.89018
#
# Compressibility (1/GPa) = 0.02190499
#
# Stress axis : x y z
#
# Youngs Moduli (GPa) = 54.46555 54.46652 74.43783
#
# Poissons Ratio (x) = 0.08212 0.46959
# Poissons Ratio (y) = 0.08212 0.46958
# Poissons Ratio (z) = 0.34360 0.34359
#
# Static dielectric constant tensor:
#      x y z
#    x 2.901290 0.000000 0.000000 
#    y 0.000000 2.901270 0.000000 
#    z 0.000000 0.000000 3.344480 
# 
# 
# High freq. dielectric constant tensor:
#      x y z
#    x 1.573820 0.000000 0.000000 
#    y 0.000000 1.573820 0.000000 
#    z 0.000000 0.000000 1.620670 
# 
# From -- ./inp_files/2768.got.cif
#   From: 2010.03.12/outbox.cif.g09.slc.cpg/sg131_2_cif.got.tgz:2768.got - 2010.04.06 17:36:35.
