data_PCOD8315721
_publ_section_title
;
Structure prediction by ZEFSAII (Michael W. Deem and Ramdas Pophale) SiO2 
 PCOD8315721
Probable space group: P 42/M M C
;
_chemical_formula_sum "Si O2"
_cell_formula_units_Z 56
_cell_length_a 12.560780
_cell_length_b 12.560780
_cell_length_c 23.161415
_cell_angle_alpha 90.000000
_cell_angle_beta 90.000000
_cell_angle_gamma 90.000000
_cell_volume 3654.250427
_symmetry_space_group_name_H-M "P 42/M M C"
_symmetry_group_IT_number 131
_symmetry_cell_setting 'tetragonal'
loop_
_space_group_symop_operation_xyz
x,y,z
-x,-y,z
-y,x,1/2+z
y,-x,1/2+z
-x,y,-z
x,-y,-z
y,x,1/2-z
-y,-x,1/2-z
-x,-y,-z
x,y,-z
y,-x,1/2-z
-y,x,1/2-z
x,-y,z
-x,y,z
-y,-x,1/2+z
y,x,1/2+z
loop_
_atom_site_type_symbol
_atom_site_label
_atom_site_fract_x
_atom_site_fract_y
_atom_site_fract_z
Si Si1 0.269346 0.376193 0.568207
Si Si2 0.121544 0.121544 0.250000
Si Si3 0.000000 0.126589 0.934770
Si Si4 0.374180 0.500000 0.063124
Si Si5 0.124936 0.790484 0.628569
O O1 0.260198 0.351262 0.500000
O O2 0.247728 0.500000 0.579755
O O3 0.387458 0.342018 0.592766
O O4 0.182167 0.313116 0.604252
O O5 0.198766 0.148696 0.196750
O O6 0.000000 0.137187 0.229106
O O7 0.105428 0.170628 0.903686
O O8 0.000000 0.000000 0.931382
O O9 0.000000 0.168790 0.000000
O O10 0.500000 0.500000 0.055368
O O11 0.321152 0.500000 0.000000
O O12 0.000000 0.777251 0.616796
#
# Coordination Sequence:
#
# PCOD8315721 Si02
#       5
#    16   8   8   8  16
#     4   9  17  29  47  71  96 121 149 184 230 279
#     4   9  16  30  48  64  85 118 166 196 217 258
#     4   9  16  26  40  65  95 117 141 179 225 271
#     4   7  12  26  46  65  85 115 153 182 208 259
#     4  10  18  28  45  68  91 121 152 188 228 275
#
# _framework density 15.324621
#
# number of rings (size 3 to 8) (size 9 to 14) (size 15 to 20)
#    0.000    3.000    1.429    2.571    0.000    2.286 
#    0.000    1.429    3.143    0.857    0.000    4.000 
#    0.000    0.000    0.000    0.000    0.000    0.000 
#
# Total GULP energy -693859.521837 kJ/mol
# GULP energy per Si atom -12390.348604 kJ/mol
# Density = 1.528974 g / cm^3
# Si number density = 15.324621 Si / 1000 Ang^3
#
#
#
# Elastic Constant Matrix: (Units=GPa)
#
#
# Indices 1 2 3 4 5 6 
#
# 1 76.3821 49.2904 46.2516 0.0000 0.0000 0.0000
# 2 49.2904 76.3821 46.2516 0.0000 0.0000 0.0000
# 3 46.2516 46.2516 77.5000 0.0000 0.0000 0.0000
# 4 0.0000 0.0000 0.0000 18.0815 0.0000 0.0000
# 5 0.0000 0.0000 0.0000 0.0000 18.0815 0.0000
# 6 0.0000 0.0000 0.0000 0.0000 0.0000 17.9113
#
#
#
# Elastic Compliance Matrix: (Units=1/GPa)
#
#
# Indices 1 2 3 4 5 6 
#
# 1 0.025551 -0.011360 -0.008469 0.000000 0.000000 0.000000
# 2 -0.011360 0.025551 -0.008469 0.000000 0.000000 0.000000
# 3 -0.008469 -0.008469 0.023012 0.000000 0.000000 0.000000
# 4 0.000000 0.000000 0.000000 0.055305 0.000000 0.000000
# 5 0.000000 0.000000 0.000000 0.000000 0.055305 0.000000
# 6 0.000000 0.000000 0.000000 0.000000 0.000000 0.055831
#
#
# Mechanical properties :
#
#
# Convention : Reuss Voigt Hill
#
# Bulk Modulus (GPa) = 57.08602 57.09459 57.09030
# Shear Modulus (GPa) = 16.50208 16.71289 16.60749
#
# Velocity S-wave (km/s) = 3.28508 3.30599 3.29555
# Velocity P-wave (km/s) = 7.19173 7.20489 7.19831
#
# Compressibility (1/GPa) = 0.01751743
#
# Stress axis : x y z
#
# Youngs Moduli (GPa) = 39.13685 39.13685 43.45579
#
# Poissons Ratio (x) = 0.44461 0.36803
# Poissons Ratio (y) = 0.44461 0.36803
# Poissons Ratio (z) = 0.33146 0.33146
#
# Static dielectric constant tensor:
#      x y z
#    x 2.835120 0.000000 0.000000 
#    y 0.000000 2.835120 0.000000 
#    z 0.000000 0.000000 2.809590 
# 
# 
# High freq. dielectric constant tensor:
#      x y z
#    x 1.570430 0.000000 0.000000 
#    y 0.000000 1.570430 0.000000 
#    z 0.000000 0.000000 1.571270 
# 
# From -- ./inp_files/10666.got.cif
#   From: 2010.03.12/outbox.cif.g09.slc.cpg/sg131_6_cif.got.tgz:10666.got - 2010.04.06 17:36:35.
