data_PCOD8315802
_publ_section_title
;
Structure prediction by ZEFSAII (Michael W. Deem and Ramdas Pophale) SiO2 
 PCOD8315802
Probable space group: P 42/M M C
;
_chemical_formula_sum "Si O2"
_cell_formula_units_Z 88
_cell_length_a 13.673568
_cell_length_b 13.673568
_cell_length_c 31.284146
_cell_angle_alpha 90.000000
_cell_angle_beta 90.000000
_cell_angle_gamma 90.000000
_cell_volume 5849.086090
_symmetry_space_group_name_H-M "P 42/M M C"
_symmetry_group_IT_number 131
_symmetry_cell_setting 'tetragonal'
loop_
_space_group_symop_operation_xyz
x,y,z
-x,-y,z
-y,x,1/2+z
y,-x,1/2+z
-x,y,-z
x,-y,-z
y,x,1/2-z
-y,-x,1/2-z
-x,-y,-z
x,y,-z
y,-x,1/2-z
-y,x,1/2-z
x,-y,z
-x,y,z
-y,-x,1/2+z
y,x,1/2+z
loop_
_atom_site_type_symbol
_atom_site_label
_atom_site_fract_x
_atom_site_fract_y
_atom_site_fract_z
Si Si1 0.776687 0.886271 0.548763
Si Si2 0.384298 0.890671 0.000000
Si Si3 0.263850 0.389554 0.049333
Si Si4 0.891692 0.883684 0.796531
Si Si5 0.227661 0.385688 0.583091
Si Si6 0.884484 0.224811 0.378581
O O1 0.813102 0.868505 0.500000
O O2 0.671369 0.835622 0.556294
O O3 0.856914 0.843237 0.581129
O O4 0.762159 0.000000 0.558298
O O5 0.349409 0.831459 0.958786
O O6 0.500000 0.897509 0.000000
O O7 0.339028 0.000000 0.000000
O O8 0.247975 0.500000 0.066188
O O9 0.351501 0.339584 0.076641
O O10 0.295861 0.390840 0.000000
O O11 0.850082 0.850082 0.750000
O O12 0.823438 0.846782 0.834707
O O13 0.000000 0.839854 0.804110
O O14 0.898031 0.000000 0.796652
O O15 0.222886 0.500000 0.592387
O O16 0.172868 0.328394 0.621004
O O17 0.000000 0.243147 0.378861
#
# Coordination Sequence:
#
# PCOD8315802 Si02
#       6
#    16   8  16  16  16  16
#     4   9  18  30  41  58  87 118 146 174 209 257
#     4   9  16  26  39  53  76 115 151 173 201 245
#     4   9  17  29  44  60  78 105 146 192 228 254
#     4   8  14  26  44  65  87 109 137 176 219 259
#     4  10  19  30  41  59  86 115 149 184 218 258
#     4  10  19  28  42  63  87 117 151 180 207 247
#
# _framework density 15.045085
#
# number of rings (size 3 to 8) (size 9 to 14) (size 15 to 20)
#    0.000    2.818    0.909    1.636    1.273    3.273 
#    0.000    3.636    0.000    0.000    0.000    5.091 
#    0.000   11.636    0.000    0.000    0.000    0.000 
#
# Total GULP energy -1090808.051725 kJ/mol
# GULP energy per Si atom -12395.546042 kJ/mol
# Density = 1.501084 g / cm^3
# Si number density = 15.045085 Si / 1000 Ang^3
#
#
#
# Elastic Constant Matrix: (Units=GPa)
#
#
# Indices 1 2 3 4 5 6 
#
# 1 83.5840 24.7559 35.6326 0.0000 0.0000 0.0000
# 2 24.7559 83.5840 35.6326 0.0000 0.0000 0.0000
# 3 35.6326 35.6326 82.3838 0.0000 0.0000 0.0000
# 4 0.0000 0.0000 0.0000 12.4840 0.0000 0.0000
# 5 0.0000 0.0000 0.0000 0.0000 12.4840 0.0000
# 6 0.0000 0.0000 0.0000 0.0000 0.0000 16.1663
#
#
#
# Elastic Compliance Matrix: (Units=1/GPa)
#
#
# Indices 1 2 3 4 5 6 
#
# 1 0.014950 -0.002049 -0.005580 0.000000 0.000000 0.000000
# 2 -0.002049 0.014950 -0.005580 0.000000 0.000000 0.000000
# 3 -0.005580 -0.005580 0.016965 0.000000 0.000000 0.000000
# 4 0.000000 0.000000 0.000000 0.080102 0.000000 0.000000
# 5 0.000000 0.000000 0.000000 0.000000 0.080102 0.000000
# 6 0.000000 0.000000 0.000000 0.000000 0.000000 0.061857
#
#
# Mechanical properties :
#
#
# Convention : Reuss Voigt Hill
#
# Bulk Modulus (GPa) = 48.90664 49.06600 48.98632
# Shear Modulus (GPa) = 16.54760 18.46226 17.50493
#
# Velocity S-wave (km/s) = 3.32002 3.50684 3.41471
# Velocity P-wave (km/s) = 6.87561 7.00576 6.94099
#
# Compressibility (1/GPa) = 0.02044712
#
# Stress axis : x y z
#
# Youngs Moduli (GPa) = 66.89145 66.89145 58.94495
#
# Poissons Ratio (x) = 0.13707 0.32890
# Poissons Ratio (y) = 0.13707 0.32890
# Poissons Ratio (z) = 0.37324 0.37324
#
# Static dielectric constant tensor:
#      x y z
#    x 2.861870 0.000000 0.000000 
#    y 0.000000 2.861870 0.000000 
#    z 0.000000 0.000000 2.925280 
# 
# 
# High freq. dielectric constant tensor:
#      x y z
#    x 1.567450 0.000000 0.000000 
#    y 0.000000 1.567450 0.000000 
#    z 0.000000 0.000000 1.546420 
# 
# From -- ./inp_files/12257.got.cif
#   From: 2010.03.12/outbox.cif.g09.slc.cpg/sg131_7_cif.got.tgz:12257.got - 2010.04.06 17:36:35.
