data_PCOD8315588
_publ_section_title
;
Structure prediction by ZEFSAII (Michael W. Deem and Ramdas Pophale) SiO2 
 PCOD8315588
Probable space group: P 4/N C C
;
_chemical_formula_sum "Si O2"
_cell_formula_units_Z 88
_cell_length_a 11.837167
_cell_length_b 11.837167
_cell_length_c 27.457048
_cell_angle_alpha 90.000000
_cell_angle_beta 90.000000
_cell_angle_gamma 90.000000
_cell_volume 3847.241000
_symmetry_space_group_name_H-M "P 4/N C C"
_symmetry_group_IT_number 130
_symmetry_cell_setting 'tetragonal'
loop_
_space_group_symop_operation_xyz
x,y,z
1/2-y,x,z
1/2-x,1/2-y,z
y,1/2-x,z
1/2+x,-y,1/2-z
-x,1/2+y,1/2-z
1/2+y,1/2+x,1/2-z
-y,-x,1/2-z
-x,-y,-z
1/2+y,-x,-z
1/2+x,1/2+y,-z
-y,1/2+x,-z
1/2-x,y,1/2+z
x,1/2-y,1/2+z
1/2-y,1/2-x,1/2+z
y,x,1/2+z
loop_
_atom_site_type_symbol
_atom_site_label
_atom_site_fract_x
_atom_site_fract_y
_atom_site_fract_z
Si Si1 0.156813 0.598985 0.122286
Si Si2 0.594500 0.344109 0.851355
Si Si3 0.835321 0.094212 0.488309
Si Si4 0.961634 0.461634 0.250000
Si Si5 0.164632 0.083345 0.432048
Si Si6 0.403243 0.147530 0.688595
O O1 0.292566 0.600076 0.126698
O O2 0.106801 0.708504 0.149109
O O3 0.116976 0.591157 0.066439
O O4 0.102425 0.487274 0.146882
O O5 0.575323 0.387934 0.796555
O O6 0.488689 0.375796 0.885553
O O7 0.700387 0.109377 0.484457
O O8 0.867438 0.981093 0.517772
O O9 0.945865 0.596022 0.260094
O O10 0.299280 0.099506 0.430665
O O11 0.404983 0.280288 0.683744
#
# Coordination Sequence:
#
# PCOD8315588 Si02
#       6
#    16  16  16   8  16  16
#     4  11  23  44  77 108 144 182 243 303 356 430
#     4  11  24  46  72 107 138 190 248 296 353 434
#     4  11  20  42  74 107 139 182 231 291 354 434
#     4  12  28  45  76 103 142 198 246 302 376 427
#     4  11  26  44  66 106 149 186 233 290 358 437
#     4  11  27  48  69 106 149 185 240 305 369 433
#
# _framework density 22.873533999999999
#
# number of rings (size 3 to 8) (size 9 to 14) (size 15 to 20)
#    0.000    0.909    5.455    1.091    5.091    3.636 
#    0.000    3.636    0.000    0.000    0.000    0.000 
#    0.000    0.000    0.000    0.000    0.000    0.000 
#
# Total GULP energy -1090989.997538 kJ/mol
# GULP energy per Si atom -12397.613608 kJ/mol
# Density = 2.282147 g / cm^3
# Si number density = 22.873534 Si / 1000 Ang^3
#
#
#
# Elastic Constant Matrix: (Units=GPa)
#
#
# Indices 1 2 3 4 5 6 
#
# 1 89.2254 -1.7514 43.1139 0.0000 0.0000 0.0000
# 2 -1.7514 89.2254 43.1139 0.0000 0.0000 0.0000
# 3 43.1139 43.1139 158.9226 0.0000 0.0000 0.0000
# 4 0.0000 0.0000 0.0000 37.2545 0.0000 0.0000
# 5 0.0000 0.0000 0.0000 0.0000 37.2545 0.0000
# 6 0.0000 0.0000 0.0000 0.0000 0.0000 4.5303
#
#
#
# Elastic Compliance Matrix: (Units=1/GPa)
#
#
# Indices 1 2 3 4 5 6 
#
# 1 0.013298 0.002307 -0.004234 0.000000 0.000000 0.000000
# 2 0.002307 0.013298 -0.004234 0.000000 0.000000 0.000000
# 3 -0.004234 -0.004234 0.008589 0.000000 0.000000 0.000000
# 4 0.000000 0.000000 0.000000 0.026842 0.000000 0.000000
# 5 0.000000 0.000000 0.000000 0.000000 0.026842 0.000000
# 6 0.000000 0.000000 0.000000 0.000000 0.000000 0.220737
#
#
# Mechanical properties :
#
#
# Convention : Reuss Voigt Hill
#
# Bulk Modulus (GPa) = 43.73366 56.25848 49.99607
# Shear Modulus (GPa) = 15.17218 32.66764 23.91991
#
# Velocity S-wave (km/s) = 2.57827 3.78323 3.23731
# Velocity P-wave (km/s) = 5.29382 6.61307 5.98988
#
# Compressibility (1/GPa) = 0.02286568
#
# Stress axis : x y z
#
# Youngs Moduli (GPa) = 75.19651 75.19651 116.42283
#
# Poissons Ratio (x) = -0.17345 0.49288
# Poissons Ratio (y) = -0.17345 0.49288
# Poissons Ratio (z) = 0.31835 0.31835
#
# Static dielectric constant tensor:
#      x y z
#    x 4.288660 0.000000 0.000000 
#    y 0.000000 4.288660 0.000000 
#    z 0.000000 0.000000 4.150450 
# 
# 
# High freq. dielectric constant tensor:
#      x y z
#    x 1.916680 0.000000 0.000000 
#    y 0.000000 1.916680 0.000000 
#    z 0.000000 0.000000 1.892900 
# 
# From -- ./inp_files/4876.got.cif
#   From: 2010.03.12/outbox.cif.g09.slc.cpg/sg130_3_cif.got.tgz:4876.got - 2010.04.06 17:30:23.
