data_PCOD8315953
_publ_section_title
;
Structure prediction by ZEFSAII (Michael W. Deem and Ramdas Pophale) SiO2 
 PCOD8315953
Probable space group: P 42/M M C
;
_chemical_formula_sum "Si O2"
_cell_formula_units_Z 112
_cell_length_a 18.393318
_cell_length_b 18.393318
_cell_length_c 18.589183
_cell_angle_alpha 90.000000
_cell_angle_beta 90.000000
_cell_angle_gamma 90.000000
_cell_volume 6288.983591
_symmetry_space_group_name_H-M "P 42/M M C"
_symmetry_group_IT_number 131
_symmetry_cell_setting 'tetragonal'
loop_
_space_group_symop_operation_xyz
x,y,z
-x,-y,z
-y,x,1/2+z
y,-x,1/2+z
-x,y,-z
x,-y,-z
y,x,1/2-z
-y,-x,1/2-z
-x,-y,-z
x,y,-z
y,-x,1/2-z
-y,x,1/2-z
x,-y,z
-x,y,z
-y,-x,1/2+z
y,x,1/2+z
loop_
_atom_site_type_symbol
_atom_site_label
_atom_site_fract_x
_atom_site_fract_y
_atom_site_fract_z
Si Si1 0.211340 0.158580 0.083817
Si Si2 0.709441 0.692728 0.916025
Si Si3 0.674014 0.921439 0.699936
Si Si4 0.582739 0.224747 0.149570
Si Si5 0.920769 0.651112 0.363542
Si Si6 0.159685 0.915670 0.314513
Si Si7 0.211996 0.585751 0.182160
O O1 0.236224 0.240808 0.102467
O O2 0.267009 0.100180 0.115908
O O3 0.132073 0.141513 0.115531
O O4 0.206659 0.146141 0.000000
O O5 0.628414 0.716054 0.893995
O O6 0.727347 0.621600 0.868745
O O7 0.712254 0.672213 0.000000
O O8 0.642436 0.929541 0.779016
O O9 0.757611 0.897370 0.706726
O O10 0.623969 0.863622 0.658006
O O11 0.668169 0.000000 0.660193
O O12 0.500000 0.246126 0.137766
O O13 0.596953 0.144716 0.114327
O O14 0.603655 0.227684 0.234178
O O15 0.000000 0.631431 0.398655
O O16 0.106822 0.893179 0.250000
O O17 0.147300 0.000000 0.333071
O O18 0.208297 0.500000 0.167647
#
# Coordination Sequence:
#
# PCOD8315953 Si02
#       7
#    16  16  16  16  16  16  16
#     4  10  20  33  51  74 101 138 181 221 263 314
#     4  10  20  34  53  76 105 142 180 214 251 311
#     4   9  17  30  51  76 101 138 175 210 262 316
#     4   9  19  33  53  81 108 138 175 218 266 313
#     4   9  17  30  50  76 106 136 172 216 265 322
#     4  11  21  34  54  76 101 136 182 230 271 313
#     4  10  19  32  54  82 109 136 170 217 265 312
#
# _framework density 17.808918999999999
#
# number of rings (size 3 to 8) (size 9 to 14) (size 15 to 20)
#    0.000    2.286    2.857    0.429    0.000    1.857 
#    0.000    2.857    0.000    0.857    0.000   10.000 
#    0.000    0.000    0.000    0.000    0.000    0.000 
#
# Total GULP energy -1388290.447409 kJ/mol
# GULP energy per Si atom -12395.450423 kJ/mol
# Density = 1.776838 g / cm^3
# Si number density = 17.808919 Si / 1000 Ang^3
#
#
#
# Elastic Constant Matrix: (Units=GPa)
#
#
# Indices 1 2 3 4 5 6 
#
# 1 102.1649 38.7070 35.2860 0.0000 0.0000 0.0000
# 2 38.7070 102.1631 35.2863 0.0000 0.0000 0.0000
# 3 35.2860 35.2863 48.6816 0.0000 0.0000 0.0000
# 4 0.0000 0.0000 0.0000 11.2290 0.0000 0.0000
# 5 0.0000 0.0000 0.0000 0.0000 11.2299 0.0000
# 6 0.0000 0.0000 0.0000 0.0000 0.0000 18.3527
#
#
#
# Elastic Compliance Matrix: (Units=1/GPa)
#
#
# Indices 1 2 3 4 5 6 
#
# 1 0.013452 -0.002306 -0.008079 0.000000 0.000000 0.000000
# 2 -0.002306 0.013453 -0.008079 0.000000 0.000000 0.000000
# 3 -0.008079 -0.008079 0.032254 0.000000 0.000000 0.000000
# 4 0.000000 0.000000 0.000000 0.089055 0.000000 0.000000
# 5 0.000000 0.000000 0.000000 0.000000 0.089048 0.000000
# 6 0.000000 0.000000 0.000000 0.000000 0.000000 0.054488
#
#
# Mechanical properties :
#
#
# Convention : Reuss Voigt Hill
#
# Bulk Modulus (GPa) = 44.98528 52.39648 48.69088
# Shear Modulus (GPa) = 14.87708 17.74436 16.31072
#
# Velocity S-wave (km/s) = 2.89342 3.15997 3.02962
# Velocity P-wave (km/s) = 6.03964 6.54211 6.29589
#
# Compressibility (1/GPa) = 0.02222950
#
# Stress axis : x y z
#
# Youngs Moduli (GPa) = 74.33722 74.33523 31.00427
#
# Poissons Ratio (x) = 0.17144 0.25048
# Poissons Ratio (y) = 0.17145 0.25049
# Poissons Ratio (z) = 0.60056 0.60057
#
# Static dielectric constant tensor:
#      x y z
#    x 3.292800 0.000000 0.000000 
#    y 0.000000 3.292810 0.000000 
#    z 0.000000 0.000000 3.053210 
# 
# 
# High freq. dielectric constant tensor:
#      x y z
#    x 1.680700 0.000000 0.000000 
#    y 0.000000 1.680700 0.000000 
#    z 0.000000 0.000000 1.666610 
# 
# From -- ./inp_files/10035.got.cif
#   From: 2010.03.12/outbox.cif.g09.slc.cpg/sg131_6_cif.got.tgz:10035.got - 2010.04.06 17:36:35.
