data_PCOD8315291
_publ_section_title
;
Structure prediction by ZEFSAII (Michael W. Deem and Ramdas Pophale) SiO2 
 PCOD8315291
Probable space group: P 4/N M M
;
_chemical_formula_sum "Si O2"
_cell_formula_units_Z 88
_cell_length_a 14.054161
_cell_length_b 14.054161
_cell_length_c 28.508677
_cell_angle_alpha 90.000000
_cell_angle_beta 90.000000
_cell_angle_gamma 90.000000
_cell_volume 5631.017956
_symmetry_space_group_name_H-M "P 4/N M M"
_symmetry_group_IT_number 129
_symmetry_cell_setting 'tetragonal'
loop_
_space_group_symop_operation_xyz
x,y,z
1/2-y,x,z
1/2-x,1/2-y,z
y,1/2-x,z
1/2+x,-y,-z
-x,1/2+y,-z
1/2+y,1/2+x,-z
-y,-x,-z
-x,-y,-z
1/2+y,-x,-z
1/2+x,1/2+y,-z
-y,1/2+x,-z
1/2-x,y,z
x,1/2-y,z
1/2-y,1/2-x,z
y,x,z
loop_
_atom_site_type_symbol
_atom_site_label
_atom_site_fract_x
_atom_site_fract_y
_atom_site_fract_z
Si Si1 0.511340 0.359609 0.682171
Si Si2 0.863837 0.356613 0.399712
Si Si3 0.136355 0.979451 0.037251
Si Si4 0.860550 0.139451 0.500000
Si Si5 0.487667 0.641226 0.213210
Si Si6 0.357420 0.639809 0.872519
O O1 0.491855 0.250000 0.671568
O O2 0.410214 0.410214 0.677634
O O3 0.582961 0.403707 0.643829
O O4 0.554431 0.375496 0.734399
O O5 0.750000 0.353667 0.399202
O O6 0.904059 0.250000 0.393591
O O7 0.897842 0.403485 0.450089
O O8 0.250000 0.995629 0.029626
O O9 0.113925 0.932610 0.087349
O O10 0.096239 0.903762 0.000000
O O11 0.080531 0.080531 0.033387
O O12 0.750000 0.118984 0.505498
O O13 0.517160 0.750000 0.206250
O O14 0.583043 0.583043 0.204523
O O15 0.409919 0.609374 0.175361
O O16 0.250000 0.608725 0.887470
O O17 0.359395 0.750000 0.861205
#
# Coordination Sequence:
#
# PCOD8315291 Si02
#       6
#    16  16  16   8  16  16
#     4   9  17  27  38  54  77 105 135 164 194 232
#     4   8  13  22  37  55  74  96 122 156 199 241
#     4  10  20  33  50  71  94 121 151 182 217 256
#     4   7  10  18  33  52  72  94 119 149 192 242
#     4   9  17  28  41  57  79 107 137 169 202 236
#     4   9  17  29  46  67  88 110 138 172 210 253
#
# _framework density 15.627725
#
# number of rings (size 3 to 8) (size 9 to 14) (size 15 to 20)
#    0.000    3.182    0.000    2.182    0.000    2.182 
#    0.000    5.909    0.000    0.000    0.000    2.545 
#    0.000    0.364    0.000    4.000    0.000    0.364 
#
# Total GULP energy -1090159.291806 kJ/mol
# GULP energy per Si atom -12388.173771 kJ/mol
# Density = 1.559216 g / cm^3
# Si number density = 15.627725 Si / 1000 Ang^3
#
#
#
# Elastic Constant Matrix: (Units=GPa)
#
#
# Indices 1 2 3 4 5 6 
#
# 1 58.1047 34.4397 51.8237 0.0000 0.0000 0.0000
# 2 34.4397 58.1060 51.8237 0.0000 0.0000 0.0000
# 3 51.8237 51.8237 137.5883 0.0000 0.0000 0.0000
# 4 0.0000 0.0000 0.0000 18.7675 0.0000 0.0000
# 5 0.0000 0.0000 0.0000 0.0000 18.7672 0.0000
# 6 0.0000 0.0000 0.0000 0.0000 0.0000 16.2420
#
#
#
# Elastic Compliance Matrix: (Units=1/GPa)
#
#
# Indices 1 2 3 4 5 6 
#
# 1 0.030473 -0.011783 -0.007040 0.000000 0.000000 0.000000
# 2 -0.011783 0.030472 -0.007039 0.000000 0.000000 0.000000
# 3 -0.007040 -0.007039 0.012571 0.000000 0.000000 0.000000
# 4 0.000000 0.000000 0.000000 0.053284 0.000000 0.000000
# 5 0.000000 0.000000 0.000000 0.000000 0.053284 0.000000
# 6 0.000000 0.000000 0.000000 0.000000 0.000000 0.061569
#
#
# Mechanical properties :
#
#
# Convention : Reuss Voigt Hill
#
# Bulk Modulus (GPa) = 45.88837 58.88592 52.38715
# Shear Modulus (GPa) = 16.63113 18.46947 17.55030
#
# Velocity S-wave (km/s) = 3.26576 3.44152 3.35479
# Velocity P-wave (km/s) = 6.60662 7.31808 6.97143
#
# Compressibility (1/GPa) = 0.02179201
#
# Stress axis : x y z
#
# Youngs Moduli (GPa) = 32.81597 32.81710 79.54753
#
# Poissons Ratio (x) = 0.38668 0.56000
# Poissons Ratio (y) = 0.38666 0.55997
# Poissons Ratio (z) = 0.23102 0.23101
#
# Static dielectric constant tensor:
#      x y z
#    x 2.785950 0.000000 0.000000 
#    y 0.000000 2.785940 0.000000 
#    z 0.000000 0.000000 3.410960 
# 
# 
# High freq. dielectric constant tensor:
#      x y z
#    x 1.571250 0.000000 0.000000 
#    y 0.000000 1.571250 0.000000 
#    z 0.000000 0.000000 1.623460 
# 
# From -- ./inp_files/7480.got.cif
#   From: 2010.03.12/outbox.cif.g09.slc.cpg/sg129_4_cif.got.tgz:7480.got - 2010.04.06 17:19:44.
