data_PCOD8315455
_publ_section_title
;
Structure prediction by ZEFSAII (Michael W. Deem and Ramdas Pophale) SiO2 
 PCOD8315455
Probable space group: P 4/N M M
;
_chemical_formula_sum "Si O2"
_cell_formula_units_Z 112
_cell_length_a 14.095553
_cell_length_b 14.095553
_cell_length_c 34.529830
_cell_angle_alpha 90.000000
_cell_angle_beta 90.000000
_cell_angle_gamma 90.000000
_cell_volume 6860.545958
_symmetry_space_group_name_H-M "P 4/N M M"
_symmetry_group_IT_number 129
_symmetry_cell_setting 'tetragonal'
loop_
_space_group_symop_operation_xyz
x,y,z
1/2-y,x,z
1/2-x,1/2-y,z
y,1/2-x,z
1/2+x,-y,-z
-x,1/2+y,-z
1/2+y,1/2+x,-z
-y,-x,-z
-x,-y,-z
1/2+y,-x,-z
1/2+x,1/2+y,-z
-y,1/2+x,-z
1/2-x,y,z
x,1/2-y,z
1/2-y,1/2-x,z
y,x,z
loop_
_atom_site_type_symbol
_atom_site_label
_atom_site_fract_x
_atom_site_fract_y
_atom_site_fract_z
Si Si1 0.858627 0.012026 0.113746
Si Si2 0.862554 0.354612 0.681283
Si Si3 0.514002 0.140577 0.162948
Si Si4 0.489075 0.641594 0.748639
Si Si5 0.514220 0.140438 0.474504
Si Si6 0.488196 0.858471 0.023669
Si Si7 0.858385 0.489129 0.613951
O O1 0.750000 0.994998 0.126012
O O2 0.867346 0.037162 0.068695
O O3 0.900459 0.101181 0.136983
O O4 0.916444 0.916444 0.123949
O O5 0.750000 0.346736 0.681292
O O6 0.908509 0.250000 0.681282
O O7 0.897565 0.408006 0.719994
O O8 0.897551 0.407990 0.642566
O O9 0.494770 0.250000 0.152311
O O10 0.417094 0.082907 0.154707
O O11 0.546688 0.129052 0.207423
O O12 0.513509 0.750000 0.739104
O O13 0.585413 0.585413 0.741055
O O14 0.600286 0.100286 0.500000
O O15 0.495434 0.250000 0.485187
O O16 0.546515 0.129086 0.429990
O O17 0.417313 0.082688 0.482826
O O18 0.505867 0.750000 0.011433
O O19 0.583627 0.916374 0.013435
O O20 0.399321 0.899321 0.000000
O O21 0.750000 0.513546 0.623519
O O22 0.914559 0.585442 0.621584
#
# Coordination Sequence:
#
# PCOD8315455 Si02
#       7
#    16  16  16  16  16  16  16
#     4   9  18  32  49  69  92 118 150 189 231 272
#     4   9  17  28  41  59  85 115 145 176 210 251
#     4   9  18  31  46  66  92 121 153 188 226 270
#     4   9  17  29  45  65  89 116 146 181 220 263
#     4   9  18  31  46  66  91 118 150 188 229 273
#     4   9  18  32  49  69  93 120 150 186 227 270
#     4   9  17  29  45  65  89 115 143 178 220 266
#
# _framework density 16.325230000000001
#
# number of rings (size 3 to 8) (size 9 to 14) (size 15 to 20)
#    0.000    3.000    0.000    0.429    0.000    3.143 
#    0.000    8.571    0.000    2.571    0.000    4.000 
#    0.000    4.571    0.000    0.000    0.000    0.857 
#
# Total GULP energy -1388720.562154 kJ/mol
# GULP energy per Si atom -12399.290734 kJ/mol
# Density = 1.628807 g / cm^3
# Si number density = 16.325230 Si / 1000 Ang^3
#
#
#
# Elastic Constant Matrix: (Units=GPa)
#
#
# Indices 1 2 3 4 5 6 
#
# 1 111.2133 51.6943 54.8432 0.0000 0.0000 0.0000
# 2 51.6943 111.2133 54.8432 0.0000 0.0000 0.0000
# 3 54.8432 54.8432 73.7312 0.0000 0.0000 0.0000
# 4 0.0000 0.0000 0.0000 26.7684 0.0000 0.0000
# 5 0.0000 0.0000 0.0000 0.0000 26.7684 0.0000
# 6 0.0000 0.0000 0.0000 0.0000 0.0000 15.1257
#
#
#
# Elastic Compliance Matrix: (Units=1/GPa)
#
#
# Indices 1 2 3 4 5 6 
#
# 1 0.014549 -0.002252 -0.009147 0.000000 0.000000 0.000000
# 2 -0.002252 0.014549 -0.009147 0.000000 0.000000 0.000000
# 3 -0.009147 -0.009147 0.027170 0.000000 0.000000 0.000000
# 4 0.000000 0.000000 0.000000 0.037358 0.000000 0.000000
# 5 0.000000 0.000000 0.000000 0.000000 0.037358 0.000000
# 6 0.000000 0.000000 0.000000 0.000000 0.000000 0.066113
#
#
# Mechanical properties :
#
#
# Convention : Reuss Voigt Hill
#
# Bulk Modulus (GPa) = 65.89014 68.76878 67.32946
# Shear Modulus (GPa) = 20.55522 22.71762 21.63642
#
# Velocity S-wave (km/s) = 3.55224 3.73442 3.64447
# Velocity P-wave (km/s) = 7.56790 7.79809 7.68385
#
# Compressibility (1/GPa) = 0.01517678
#
# Stress axis : x y z
#
# Youngs Moduli (GPa) = 68.73211 68.73211 36.80497
#
# Poissons Ratio (x) = 0.15479 0.33665
# Poissons Ratio (y) = 0.15479 0.33665
# Poissons Ratio (z) = 0.62869 0.62869
#
# Static dielectric constant tensor:
#      x y z
#    x 3.058100 0.000000 0.000000 
#    y 0.000000 3.058100 0.000000 
#    z 0.000000 0.000000 3.212910 
# 
# 
# High freq. dielectric constant tensor:
#      x y z
#    x 1.615990 0.000000 0.000000 
#    y 0.000000 1.615990 0.000000 
#    z 0.000000 0.000000 1.635380 
# 
# From -- ./inp_files/7875.got.cif
#   From: 2010.03.12/outbox.cif.g09.slc.cpg/sg129_4_cif.got.tgz:7875.got - 2010.04.06 17:19:44.
