data_PCOD8315486
_publ_section_title
;
Structure prediction by ZEFSAII (Michael W. Deem and Ramdas Pophale) SiO2 
 PCOD8315486
Probable space group: P 4/N C C
;
_chemical_formula_sum "Si O2"
_cell_formula_units_Z 96
_cell_length_a 19.707135
_cell_length_b 19.707135
_cell_length_c 15.037470
_cell_angle_alpha 90.000000
_cell_angle_beta 90.000000
_cell_angle_gamma 90.000000
_cell_volume 5840.119816
_symmetry_space_group_name_H-M "P 4/N C C"
_symmetry_group_IT_number 130
_symmetry_cell_setting 'tetragonal'
loop_
_space_group_symop_operation_xyz
x,y,z
1/2-y,x,z
1/2-x,1/2-y,z
y,1/2-x,z
1/2+x,-y,1/2-z
-x,1/2+y,1/2-z
1/2+y,1/2+x,1/2-z
-y,-x,1/2-z
-x,-y,-z
1/2+y,-x,-z
1/2+x,1/2+y,-z
-y,1/2+x,-z
1/2-x,y,1/2+z
x,1/2-y,1/2+z
1/2-y,1/2-x,1/2+z
y,x,1/2+z
loop_
_atom_site_type_symbol
_atom_site_label
_atom_site_fract_x
_atom_site_fract_y
_atom_site_fract_z
Si Si1 0.591124 0.299439 0.071576
Si Si2 0.140689 0.272069 0.350749
Si Si3 0.750000 0.537792 0.500000
Si Si4 0.200561 0.591124 0.428424
Si Si5 0.639841 0.253240 0.750000
Si Si6 0.359311 0.227931 0.149252
O O1 0.627491 0.372509 0.075188
O O2 0.593108 0.260165 0.164948
O O3 0.511705 0.307901 0.043277
O O4 0.628323 0.250000 1.000000
O O5 0.171512 0.197720 0.366846
O O6 0.081987 0.284670 0.422537
O O7 0.112361 0.277871 0.250000
O O8 0.807902 0.488296 0.543277
O O9 0.784671 0.581987 0.422536
O O10 0.239834 0.593107 0.335052
O O11 0.702217 0.202217 0.750000
O O12 0.670080 0.329921 0.750000
O O13 0.328488 0.302280 0.133154
#
# Coordination Sequence:
#
# PCOD8315486 Si02
#       6
#    16  16  16  16  16  16
#     4   9  19  30  44  69  99 132 167 201 234 274
#     4   9  18  34  56  79  98 116 149 202 256 299
#     4  10  20  27  51  74 104 130 156 194 244 290
#     4   9  19  30  44  69  99 132 167 201 234 274
#     4   9  16  28  46  64  88 127 172 214 248 271
#     4   9  18  34  56  79  98 116 149 202 256 299
#
# _framework density 16.438019000000001
#
# number of rings (size 3 to 8) (size 9 to 14) (size 15 to 20)
#    1.000    1.833    0.000    3.000    2.333    3.000 
#    0.000    0.000    0.000    4.000    0.000    4.667 
#    0.000    0.000    0.000    0.000    0.000    0.000 
#
# Total GULP energy -1189368.105622 kJ/mol
# GULP energy per Si atom -12389.251100 kJ/mol
# Density = 1.640061 g / cm^3
# Si number density = 16.438019 Si / 1000 Ang^3
#
#
#
# Elastic Constant Matrix: (Units=GPa)
#
#
# Indices 1 2 3 4 5 6 
#
# 1 76.4394 18.8609 47.3656 0.0000 0.0000 0.0000
# 2 18.8609 76.4389 47.3655 0.0000 0.0000 0.0000
# 3 47.3656 47.3655 146.0367 0.0000 0.0000 0.0000
# 4 0.0000 0.0000 0.0000 31.5010 0.0000 0.0000
# 5 0.0000 0.0000 0.0000 0.0000 31.5012 0.0000
# 6 0.0000 0.0000 0.0000 0.0000 0.0000 10.4659
#
#
#
# Elastic Compliance Matrix: (Units=1/GPa)
#
#
# Indices 1 2 3 4 5 6 
#
# 1 0.016427 -0.000941 -0.005023 0.000000 0.000000 0.000000
# 2 -0.000941 0.016427 -0.005023 0.000000 0.000000 0.000000
# 3 -0.005023 -0.005023 0.010106 0.000000 0.000000 0.000000
# 4 0.000000 0.000000 0.000000 0.031745 0.000000 0.000000
# 5 0.000000 0.000000 0.000000 0.000000 0.031745 0.000000
# 6 0.000000 0.000000 0.000000 0.000000 0.000000 0.095548
#
#
# Mechanical properties :
#
#
# Convention : Reuss Voigt Hill
#
# Bulk Modulus (GPa) = 47.64924 58.45545 53.05234
# Shear Modulus (GPa) = 21.64824 27.04850 24.34837
#
# Velocity S-wave (km/s) = 3.63293 4.06086 3.85284
# Velocity P-wave (km/s) = 6.82992 7.59116 7.22058
#
# Compressibility (1/GPa) = 0.02098669
#
# Stress axis : x y z
#
# Youngs Moduli (GPa) = 60.87649 60.87606 98.95403
#
# Poissons Ratio (x) = 0.05728 0.49701
# Poissons Ratio (y) = 0.05728 0.49702
# Poissons Ratio (z) = 0.30576 0.30576
#
# Static dielectric constant tensor:
#      x y z
#    x 2.789730 0.000000 0.000000 
#    y 0.000000 2.789730 0.000000 
#    z 0.000000 0.000000 3.379030 
# 
# 
# High freq. dielectric constant tensor:
#      x y z
#    x 1.599270 0.000000 0.000000 
#    y 0.000000 1.599270 0.000000 
#    z 0.000000 0.000000 1.660260 
# 
# From -- ./inp_files/2509.got.cif
#   From: 2010.03.12/outbox.cif.g09.slc.cpg/sg130_2_cif.got.tgz:2509.got - 2010.04.06 17:30:23.
