data_PCOD8315197
_publ_section_title
;
Structure prediction by ZEFSAII (Michael W. Deem and Ramdas Pophale) SiO2 
 PCOD8315197
Probable space group: P 4/N M M
;
_chemical_formula_sum "Si O2"
_cell_formula_units_Z 112
_cell_length_a 19.422188
_cell_length_b 19.422188
_cell_length_c 17.846664
_cell_angle_alpha 90.000000
_cell_angle_beta 90.000000
_cell_angle_gamma 90.000000
_cell_volume 6732.143342
_symmetry_space_group_name_H-M "P 4/N M M"
_symmetry_group_IT_number 129
_symmetry_cell_setting 'tetragonal'
loop_
_space_group_symop_operation_xyz
x,y,z
1/2-y,x,z
1/2-x,1/2-y,z
y,1/2-x,z
1/2+x,-y,-z
-x,1/2+y,-z
1/2+y,1/2+x,-z
-y,-x,-z
-x,-y,-z
1/2+y,-x,-z
1/2+x,1/2+y,-z
-y,1/2+x,-z
1/2-x,y,z
x,1/2-y,z
1/2-y,1/2-x,z
y,x,z
loop_
_atom_site_type_symbol
_atom_site_label
_atom_site_fract_x
_atom_site_fract_y
_atom_site_fract_z
Si Si1 0.829490 0.435838 0.694009
Si Si2 0.885944 0.505232 0.154865
Si Si3 0.502256 0.611329 0.833816
Si Si4 0.327391 0.554298 0.704922
Si Si5 0.830512 0.558793 0.411275
Si Si6 0.509136 0.102024 0.454056
Si Si7 0.610919 0.004564 0.993621
O O1 0.750000 0.414844 0.684975
O O2 0.837247 0.486118 0.765641
O O3 0.874335 0.367952 0.707457
O O4 0.855522 0.472641 0.619425
O O5 0.829104 0.486595 0.216364
O O6 0.921226 0.578775 0.173311
O O7 0.944793 0.447337 0.157458
O O8 0.849094 0.509277 0.072262
O O9 0.575796 0.575796 0.816697
O O10 0.503926 0.652562 0.914606
O O11 0.250000 0.574534 0.685251
O O12 0.357355 0.503004 0.641963
O O13 0.750000 0.573965 0.399881
O O14 0.872059 0.627942 0.390763
O O15 0.846230 0.536038 0.495861
O O16 0.576702 0.076702 0.500000
O O17 0.465079 0.034922 0.430474
O O18 0.547346 0.952655 0.988062
O O19 0.582196 0.082196 0.000000
#
# Coordination Sequence:
#
# PCOD8315197 Si02
#       7
#    16  16  16  16  16  16  16
#     4  11  21  32  47  67  93 123 159 202 243 282
#     4   8  13  23  43  66  86 110 146 193 239 278
#     4   8  14  25  43  66  90 114 142 182 237 291
#     4  10  20  32  45  63  90 127 168 202 236 278
#     4  10  20  34  53  76 101 126 153 190 238 294
#     4  10  19  33  54  75  93 116 152 196 241 288
#     4   7  10  19  37  63  89 110 137 180 234 286
#
# _framework density 16.636603000000001
#
# number of rings (size 3 to 8) (size 9 to 14) (size 15 to 20)
#    0.000    2.857    1.429    3.000    0.000    1.571 
#    0.000    0.714    0.000    0.000    0.000    0.000 
#    0.000    8.286    0.000    0.000    0.000   33.143 
#
# Total GULP energy -1387579.273038 kJ/mol
# GULP energy per Si atom -12389.100652 kJ/mol
# Density = 1.659874 g / cm^3
# Si number density = 16.636603 Si / 1000 Ang^3
#
#
#
# Elastic Constant Matrix: (Units=GPa)
#
#
# Indices 1 2 3 4 5 6 
#
# 1 61.8431 33.4980 36.7436 0.0000 0.0000 0.0000
# 2 33.4980 61.8431 36.7436 0.0000 0.0000 0.0000
# 3 36.7436 36.7436 134.6788 0.0000 0.0000 0.0000
# 4 0.0000 0.0000 0.0000 13.5132 0.0000 0.0000
# 5 0.0000 0.0000 0.0000 0.0000 13.5132 0.0000
# 6 0.0000 0.0000 0.0000 0.0000 0.0000 14.6220
#
#
#
# Elastic Compliance Matrix: (Units=1/GPa)
#
#
# Indices 1 2 3 4 5 6 
#
# 1 0.024281 -0.010999 -0.003624 0.000000 0.000000 0.000000
# 2 -0.010999 0.024281 -0.003624 0.000000 0.000000 0.000000
# 3 -0.003624 -0.003624 0.009402 0.000000 0.000000 0.000000
# 4 0.000000 0.000000 0.000000 0.074002 0.000000 0.000000
# 5 0.000000 0.000000 0.000000 0.000000 0.074002 0.000000
# 6 0.000000 0.000000 0.000000 0.000000 0.000000 0.068390
#
#
# Mechanical properties :
#
#
# Convention : Reuss Voigt Hill
#
# Bulk Modulus (GPa) = 46.57377 52.48171 49.52774
# Shear Modulus (GPa) = 15.72299 18.42168 17.07234
#
# Velocity S-wave (km/s) = 3.07756 3.33122 3.20690
# Velocity P-wave (km/s) = 6.37840 6.81252 6.59903
#
# Compressibility (1/GPa) = 0.02147131
#
# Stress axis : x y z
#
# Youngs Moduli (GPa) = 41.18518 41.18518 106.35753
#
# Poissons Ratio (x) = 0.45299 0.38539
# Poissons Ratio (y) = 0.45299 0.38539
# Poissons Ratio (z) = 0.14924 0.14924
#
# Static dielectric constant tensor:
#      x y z
#    x 2.770470 0.000000 0.000000 
#    y 0.000000 2.770470 0.000000 
#    z 0.000000 0.000000 3.602440 
# 
# 
# High freq. dielectric constant tensor:
#      x y z
#    x 1.602200 0.000000 0.000000 
#    y 0.000000 1.602200 0.000000 
#    z 0.000000 0.000000 1.667540 
# 
# From -- ./inp_files/5999.got.cif
#   From: 2010.03.12/outbox.cif.g09.slc.cpg/sg129_3_cif.got.tgz:5999.got - 2010.04.06 17:19:44.
