data_PCOD8315419
_publ_section_title
;
Structure prediction by ZEFSAII (Michael W. Deem and Ramdas Pophale) SiO2 
 PCOD8315419
Probable space group: P 4/N M M
;
_chemical_formula_sum "Si O2"
_cell_formula_units_Z 128
_cell_length_a 18.437211
_cell_length_b 18.437211
_cell_length_c 22.541098
_cell_angle_alpha 90.000000
_cell_angle_beta 90.000000
_cell_angle_gamma 90.000000
_cell_volume 7662.412337
_symmetry_space_group_name_H-M "P 4/N M M"
_symmetry_group_IT_number 129
_symmetry_cell_setting 'tetragonal'
loop_
_space_group_symop_operation_xyz
x,y,z
1/2-y,x,z
1/2-x,1/2-y,z
y,1/2-x,z
1/2+x,-y,-z
-x,1/2+y,-z
1/2+y,1/2+x,-z
-y,-x,-z
-x,-y,-z
1/2+y,-x,-z
1/2+x,1/2+y,-z
-y,1/2+x,-z
1/2-x,y,z
x,1/2-y,z
1/2-y,1/2-x,z
y,x,z
loop_
_atom_site_type_symbol
_atom_site_label
_atom_site_fract_x
_atom_site_fract_y
_atom_site_fract_z
Si Si1 0.167432 0.049189 0.876722
Si Si2 0.170735 0.664236 0.173110
Si Si3 0.937616 0.054791 0.346485
Si Si4 0.596097 0.165619 0.944611
Si Si5 0.410474 0.833093 0.451632
Si Si6 0.443807 0.329882 0.480764
Si Si7 0.666945 0.947443 0.659159
Si Si8 0.466177 0.834274 0.243599
O O1 0.250000 0.076877 0.878838
O O2 0.116082 0.116082 0.892179
O O3 0.155504 0.987618 0.926324
O O4 0.149891 0.019432 0.811099
O O5 0.250000 0.632231 0.188527
O O6 0.172030 0.750000 0.167586
O O7 0.145065 0.635435 0.109235
O O8 0.115438 0.643314 0.224981
O O9 0.887276 0.092051 0.396137
O O10 0.885886 0.015015 0.298671
O O11 0.985020 0.119573 0.316040
O O12 0.993263 0.993263 0.371610
O O13 0.612578 0.250000 0.959204
O O14 0.614883 0.114883 0.000000
O O15 0.347240 0.847240 0.500000
O O16 0.404249 0.750000 0.429446
O O17 0.483937 0.850359 0.485602
O O18 0.417068 0.250000 0.497461
O O19 0.382604 0.382604 0.504966
O O20 0.457051 0.336610 0.411209
O O21 0.750000 0.948564 0.682832
O O22 0.629131 0.870870 0.677566
O O23 0.471242 0.750000 0.262740
#
# Coordination Sequence:
#
# PCOD8315419 Si02
#       8
#    16  16  16  16  16  16  16  16
#     4   9  18  32  48  66  92 124 161 206 246 281
#     4   8  14  25  41  62  90 125 160 190 222 262
#     4  11  21  32  51  71  90 118 150 184 226 275
#     4   9  16  25  41  67  97 128 161 196 234 279
#     4  11  22  35  50  67  89 115 144 179 218 266
#     4   9  17  30  47  66  88 111 136 169 209 254
#     4   9  18  31  47  68  90 113 142 176 216 262
#     4   9  18  32  47  67  94 123 158 195 232 273
#
# _framework density 16.704920999999999
#
# number of rings (size 3 to 8) (size 9 to 14) (size 15 to 20)
#    0.000    2.625    1.250    3.000    0.000    2.375 
#    0.000    1.250    0.000    2.250    0.000    0.000 
#    0.000    9.000    0.000    0.000    0.000   36.500 
#
# Total GULP energy -1586453.298432 kJ/mol
# GULP energy per Si atom -12394.166394 kJ/mol
# Density = 1.666690 g / cm^3
# Si number density = 16.704921 Si / 1000 Ang^3
#
#
#
# Elastic Constant Matrix: (Units=GPa)
#
#
# Indices 1 2 3 4 5 6 
#
# 1 74.4307 49.3821 17.7405 0.0000 0.0000 0.0000
# 2 49.3821 74.4307 17.7405 0.0000 0.0000 0.0000
# 3 17.7405 17.7405 44.6662 0.0000 0.0000 0.0000
# 4 0.0000 0.0000 0.0000 18.6862 0.0000 0.0000
# 5 0.0000 0.0000 0.0000 0.0000 18.6862 0.0000
# 6 0.0000 0.0000 0.0000 0.0000 0.0000 25.1956
#
#
#
# Elastic Compliance Matrix: (Units=1/GPa)
#
#
# Indices 1 2 3 4 5 6 
#
# 1 0.024518 -0.015404 -0.003620 0.000000 0.000000 0.000000
# 2 -0.015404 0.024518 -0.003620 0.000000 0.000000 0.000000
# 3 -0.003620 -0.003620 0.025264 0.000000 0.000000 0.000000
# 4 0.000000 0.000000 0.000000 0.053515 0.000000 0.000000
# 5 0.000000 0.000000 0.000000 0.000000 0.053515 0.000000
# 6 0.000000 0.000000 0.000000 0.000000 0.000000 0.039689
#
#
# Mechanical properties :
#
#
# Convention : Reuss Voigt Hill
#
# Bulk Modulus (GPa) = 34.46815 40.36151 37.41483
# Shear Modulus (GPa) = 18.11732 19.75792 18.93762
#
# Velocity S-wave (km/s) = 3.29682 3.44286 3.37063
# Velocity P-wave (km/s) = 5.93046 6.32600 6.13142
#
# Compressibility (1/GPa) = 0.02901229
#
# Stress axis : x y z
#
# Youngs Moduli (GPa) = 40.78609 40.78609 39.58230
#
# Poissons Ratio (x) = 0.62827 0.14328
# Poissons Ratio (y) = 0.62827 0.14328
# Poissons Ratio (z) = 0.14764 0.14764
#
# Static dielectric constant tensor:
#      x y z
#    x 3.183100 0.000000 0.000000 
#    y 0.000000 3.183100 0.000000 
#    z 0.000000 0.000000 2.868480 
# 
# 
# High freq. dielectric constant tensor:
#      x y z
#    x 1.638220 0.000000 0.000000 
#    y 0.000000 1.638220 0.000000 
#    z 0.000000 0.000000 1.615580 
# 
# From -- ./inp_files/7343.got.cif
#   From: 2010.03.12/outbox.cif.g09.slc.cpg/sg129_4_cif.got.tgz:7343.got - 2010.04.06 17:19:44.
