data_PCOD8315818
_publ_section_title
;
Structure prediction by ZEFSAII (Michael W. Deem and Ramdas Pophale) SiO2 
 PCOD8315818
Probable space group: P 42/M M C
;
_chemical_formula_sum "Si O2"
_cell_formula_units_Z 104
_cell_length_a 26.772267
_cell_length_b 26.772267
_cell_length_c 8.910329
_cell_angle_alpha 90.000000
_cell_angle_beta 90.000000
_cell_angle_gamma 90.000000
_cell_volume 6386.516450
_symmetry_space_group_name_H-M "P 42/M M C"
_symmetry_group_IT_number 131
_symmetry_cell_setting 'tetragonal'
loop_
_space_group_symop_operation_xyz
x,y,z
-x,-y,z
-y,x,1/2+z
y,-x,1/2+z
-x,y,-z
x,-y,-z
y,x,1/2-z
-y,-x,1/2-z
-x,-y,-z
x,y,-z
y,-x,1/2-z
-y,x,1/2-z
x,-y,z
-x,y,z
-y,-x,1/2+z
y,x,1/2+z
loop_
_atom_site_type_symbol
_atom_site_label
_atom_site_fract_x
_atom_site_fract_y
_atom_site_fract_z
Si Si1 0.500000 0.943998 0.321434
Si Si2 0.265058 0.339878 0.821023
Si Si3 0.237800 0.446385 0.176644
Si Si4 0.160696 0.682010 0.324096
Si Si5 0.870354 0.056437 0.177556
Si Si6 0.871913 0.413799 0.176901
Si Si7 0.136629 0.207971 0.674227
O O1 0.500000 0.943773 0.500000
O O2 0.450021 0.915997 0.265756
O O3 0.500000 0.000000 0.255885
O O4 0.311916 0.311916 0.750000
O O5 0.269207 0.398178 0.768151
O O6 0.213381 0.317140 0.762014
O O7 0.265844 0.334577 0.000000
O O8 0.256446 0.500000 0.245140
O O9 0.180094 0.439704 0.220779
O O10 0.242601 0.449226 0.000000
O O11 0.171213 0.675057 0.500000
O O12 0.124199 0.638654 0.263884
O O13 0.131989 0.733516 0.288462
O O14 0.919665 0.080336 0.250000
O O15 0.821089 0.087053 0.230333
O O16 0.864401 0.000000 0.236486
O O17 0.876702 0.057804 0.000000
O O18 0.875205 0.403299 0.000000
O O19 0.186173 0.186173 0.750000
O O20 0.144084 0.198907 0.500000
#
# Coordination Sequence:
#
# PCOD8315818 Si02
#       7
#     8  16  16  16  16  16  16
#     4   9  16  28  49  71  89 115 155 201 240 279
#     4  10  19  29  44  66  95 125 152 187 229 274
#     4   8  13  24  43  63  82 112 153 188 219 264
#     4  10  19  30  45  66  92 119 152 190 228 273
#     4   9  18  33  51  69  89 113 142 175 213 260
#     4   9  16  28  47  67  88 115 152 194 234 276
#     4   9  18  31  47  66  88 117 149 180 214 260
#
# _framework density 16.284307999999999
#
# number of rings (size 3 to 8) (size 9 to 14) (size 15 to 20)
#    0.000    2.846    0.769    2.308    0.000    2.923 
#    0.000    1.923    0.000    3.231    0.000    0.000 
#    0.000    0.308    0.000    3.846    0.000    0.000 
#
# Total GULP energy -1288986.398361 kJ/mol
# GULP energy per Si atom -12394.099984 kJ/mol
# Density = 1.624724 g / cm^3
# Si number density = 16.284308 Si / 1000 Ang^3
#
#
#
# Elastic Constant Matrix: (Units=GPa)
#
#
# Indices 1 2 3 4 5 6 
#
# 1 132.5489 73.8243 33.9063 0.0000 0.0000 0.0000
# 2 73.8243 132.5510 33.9060 0.0000 0.0000 0.0000
# 3 33.9063 33.9060 40.8858 0.0000 0.0000 0.0000
# 4 0.0000 0.0000 0.0000 20.6193 0.0000 0.0000
# 5 0.0000 0.0000 0.0000 0.0000 20.6190 0.0000
# 6 0.0000 0.0000 0.0000 0.0000 0.0000 24.6170
#
#
#
# Elastic Compliance Matrix: (Units=1/GPa)
#
#
# Indices 1 2 3 4 5 6 
#
# 1 0.011845 -0.005184 -0.005524 0.000000 0.000000 0.000000
# 2 -0.005184 0.011844 -0.005523 0.000000 0.000000 0.000000
# 3 -0.005524 -0.005523 0.033620 0.000000 0.000000 0.000000
# 4 0.000000 0.000000 0.000000 0.048498 0.000000 0.000000
# 5 0.000000 0.000000 0.000000 0.000000 0.048499 0.000000
# 6 0.000000 0.000000 0.000000 0.000000 0.000000 0.040622
#
#
# Mechanical properties :
#
#
# Convention : Reuss Voigt Hill
#
# Bulk Modulus (GPa) = 40.24702 65.47320 52.86011
# Shear Modulus (GPa) = 21.21593 24.12766 22.67179
#
# Velocity S-wave (km/s) = 3.61341 3.85340 3.73533
# Velocity P-wave (km/s) = 6.49445 7.75189 7.15086
#
# Compressibility (1/GPa) = 0.02484656
#
# Stress axis : x y z
#
# Youngs Moduli (GPa) = 84.42684 84.42890 29.74462
#
# Poissons Ratio (x) = 0.43767 0.16430
# Poissons Ratio (y) = 0.43766 0.16429
# Poissons Ratio (z) = 0.46635 0.46633
#
# Static dielectric constant tensor:
#      x y z
#    x 3.258110 0.000000 0.000000 
#    y 0.000000 3.258100 0.000000 
#    z 0.000000 0.000000 2.909560 
# 
# 
# High freq. dielectric constant tensor:
#      x y z
#    x 1.617350 0.000000 0.000000 
#    y 0.000000 1.617350 0.000000 
#    z 0.000000 0.000000 1.609610 
# 
# From -- ./inp_files/2535.got.cif
#   From: 2010.03.12/outbox.cif.g09.slc.cpg/sg131_2_cif.got.tgz:2535.got - 2010.04.06 17:36:35.
