data_PCOD8315626
_publ_section_title
;
Structure prediction by ZEFSAII (Michael W. Deem and Ramdas Pophale) SiO2 
 PCOD8315626
Probable space group: P 4/N C C
;
_chemical_formula_sum "Si O2"
_cell_formula_units_Z 112
_cell_length_a 14.999856
_cell_length_b 14.999856
_cell_length_c 27.151207
_cell_angle_alpha 90.000000
_cell_angle_beta 90.000000
_cell_angle_gamma 90.000000
_cell_volume 6108.904282
_symmetry_space_group_name_H-M "P 4/N C C"
_symmetry_group_IT_number 130
_symmetry_cell_setting 'tetragonal'
loop_
_space_group_symop_operation_xyz
x,y,z
1/2-y,x,z
1/2-x,1/2-y,z
y,1/2-x,z
1/2+x,-y,1/2-z
-x,1/2+y,1/2-z
1/2+y,1/2+x,1/2-z
-y,-x,1/2-z
-x,-y,-z
1/2+y,-x,-z
1/2+x,1/2+y,-z
-y,1/2+x,-z
1/2-x,y,1/2+z
x,1/2-y,1/2+z
1/2-y,1/2-x,1/2+z
y,x,1/2+z
loop_
_atom_site_type_symbol
_atom_site_label
_atom_site_fract_x
_atom_site_fract_y
_atom_site_fract_z
Si Si1 0.315298 0.818831 0.150311
Si Si2 0.145466 0.642275 0.805635
Si Si3 0.615018 0.800566 0.452703
Si Si4 0.849563 0.144523 0.989352
Si Si5 0.115058 0.300047 0.432492
Si Si6 0.042883 0.592694 0.602675
Si Si7 0.953837 0.093505 0.078812
O O1 0.250000 0.750000 0.117961
O O2 0.247255 0.877243 0.183913
O O3 0.373784 0.752184 0.184945
O O4 0.379348 0.878989 0.118094
O O5 0.118371 0.618371 0.750000
O O6 0.088518 0.579714 0.841909
O O7 0.636729 0.698779 0.439245
O O8 0.592231 0.810154 0.510087
O O9 0.530420 0.831303 0.421160
O O10 0.906425 0.082376 0.026091
O O11 0.745914 0.125045 0.997628
O O12 0.875554 0.115730 0.934142
O O13 0.137073 0.198443 0.419107
O O14 0.030039 0.329030 0.401056
O O15 0.996885 0.499899 0.591392
#
# Coordination Sequence:
#
# PCOD8315626 Si02
#       7
#    16  16  16  16  16  16  16
#     4   8  20  38  65  85 108 153 192 234 296 358
#     4   9  20  42  65  83 111 146 192 245 305 351
#     4   9  20  35  52  76 120 174 202 223 271 344
#     4  11  25  38  55  82 127 169 194 236 291 350
#     4   9  20  36  52  75 114 165 202 229 276 346
#     4  12  24  33  59  88 119 151 192 251 289 348
#     4  12  23  33  57  92 123 149 196 240 290 355
#
# _framework density 18.333893
#
# number of rings (size 3 to 8) (size 9 to 14) (size 15 to 20)
#    0.857    1.000    1.429    3.857   10.000    0.000 
#    0.000    1.429    0.000    0.000    0.000    0.000 
#    0.000    0.000    0.000    0.000    0.000    0.000 
#
# Total GULP energy -1388181.703364 kJ/mol
# GULP energy per Si atom -12394.479494 kJ/mol
# Density = 1.829216 g / cm^3
# Si number density = 18.333893 Si / 1000 Ang^3
#
#
#
# Elastic Constant Matrix: (Units=GPa)
#
#
# Indices 1 2 3 4 5 6 
#
# 1 74.6128 32.3182 44.6144 0.0000 0.0000 0.0000
# 2 32.3182 74.6128 44.6144 0.0000 0.0000 0.0000
# 3 44.6144 44.6144 112.0057 0.0000 0.0000 0.0000
# 4 0.0000 0.0000 0.0000 16.3310 0.0000 0.0000
# 5 0.0000 0.0000 0.0000 0.0000 16.3310 0.0000
# 6 0.0000 0.0000 0.0000 0.0000 0.0000 31.0974
#
#
#
# Elastic Compliance Matrix: (Units=1/GPa)
#
#
# Indices 1 2 3 4 5 6 
#
# 1 0.018826 -0.004818 -0.005580 0.000000 0.000000 0.000000
# 2 -0.004818 0.018826 -0.005580 0.000000 0.000000 0.000000
# 3 -0.005580 -0.005580 0.013373 0.000000 0.000000 0.000000
# 4 0.000000 0.000000 0.000000 0.061233 0.000000 0.000000
# 5 0.000000 0.000000 0.000000 0.000000 0.061233 0.000000
# 6 0.000000 0.000000 0.000000 0.000000 0.000000 0.032157
#
#
# Mechanical properties :
#
#
# Convention : Reuss Voigt Hill
#
# Bulk Modulus (GPa) = 52.43796 56.03613 54.23705
# Shear Modulus (GPa) = 20.49526 22.06418 21.27972
#
# Velocity S-wave (km/s) = 3.34711 3.47286 3.41057
# Velocity P-wave (km/s) = 6.60313 6.83459 6.71985
#
# Compressibility (1/GPa) = 0.01907015
#
# Stress axis : x y z
#
# Youngs Moduli (GPa) = 53.11891 53.11891 74.77723
#
# Poissons Ratio (x) = 0.25593 0.41723
# Poissons Ratio (y) = 0.25593 0.41723
# Poissons Ratio (z) = 0.29638 0.29638
#
# Static dielectric constant tensor:
#      x y z
#    x 3.391600 0.000000 0.000000 
#    y 0.000000 3.391600 0.000000 
#    z 0.000000 0.000000 2.995550 
# 
# 
# High freq. dielectric constant tensor:
#      x y z
#    x 1.713470 0.000000 0.000000 
#    y 0.000000 1.713470 0.000000 
#    z 0.000000 0.000000 1.662170 
# 
# From -- ./inp_files/4615.got.cif
#   From: 2010.03.12/outbox.cif.g09.slc.cpg/sg130_3_cif.got.tgz:4615.got - 2010.04.06 17:30:23.
