data_PCOD8315801
_publ_section_title
;
Structure prediction by ZEFSAII (Michael W. Deem and Ramdas Pophale) SiO2 
 PCOD8315801
Probable space group: P 42/M M C
;
_chemical_formula_sum "Si O2"
_cell_formula_units_Z 88
_cell_length_a 26.797196
_cell_length_b 26.797196
_cell_length_c 9.043576
_cell_angle_alpha 90.000000
_cell_angle_beta 90.000000
_cell_angle_gamma 90.000000
_cell_volume 6494.098899
_symmetry_space_group_name_H-M "P 42/M M C"
_symmetry_group_IT_number 131
_symmetry_cell_setting 'tetragonal'
loop_
_space_group_symop_operation_xyz
x,y,z
-x,-y,z
-y,x,1/2+z
y,-x,1/2+z
-x,y,-z
x,-y,-z
y,x,1/2-z
-y,-x,1/2-z
-x,-y,-z
x,y,-z
y,-x,1/2-z
-y,x,1/2-z
x,-y,z
-x,y,z
-y,-x,1/2+z
y,x,1/2+z
loop_
_atom_site_type_symbol
_atom_site_label
_atom_site_fract_x
_atom_site_fract_y
_atom_site_fract_z
Si Si1 0.768750 0.442535 0.673432
Si Si2 0.058214 0.500000 0.158723
Si Si3 0.306301 0.624925 0.834079
Si Si4 0.223112 0.709230 0.833673
Si Si5 0.056476 0.607168 0.823177
Si Si6 0.848561 0.639523 0.325737
O O1 0.758989 0.437050 0.500000
O O2 0.778352 0.500000 0.719405
O O3 0.718931 0.422365 0.753216
O O4 0.817464 0.410269 0.719877
O O5 0.070256 0.448270 0.242310
O O6 0.000000 0.500000 0.124778
O O7 0.086274 0.500000 0.000000
O O8 0.356315 0.643686 0.750000
O O9 0.267464 0.669759 0.838461
O O10 0.321269 0.608856 0.000000
O O11 0.241046 0.758955 0.750000
O O12 0.177507 0.688167 0.739556
O O13 0.205794 0.722370 0.000000
O O14 0.096287 0.642192 0.744276
O O15 0.000000 0.622838 0.779230
O O16 0.062444 0.608161 0.000000
O O17 0.852666 0.644621 0.500000
#
# Coordination Sequence:
#
# PCOD8315801 Si02
#       6
#    16   8  16  16  16  16
#     4   9  18  30  40  53  77 103 122 146 181 217
#     4   7  12  24  39  51  63  85 119 157 195 231
#     4   9  16  26  41  58  74  94 119 144 172 211
#     4   9  16  27  42  58  76  95 119 148 183 224
#     4   9  17  29  42  54  70  95 128 164 199 232
#     4  10  19  28  40  57  77 100 127 155 190 230
#
# _framework density 13.550763999999999
#
# number of rings (size 3 to 8) (size 9 to 14) (size 15 to 20)
#    0.000    3.000    0.000    2.727    1.273    5.818 
#    0.000    0.000    0.000    1.636    0.000    0.000 
#    0.000    0.364    0.000    3.818    0.000    2.000 
#
# Total GULP energy -1090434.054661 kJ/mol
# GULP energy per Si atom -12391.296076 kJ/mol
# Density = 1.351992 g / cm^3
# Si number density = 13.550764 Si / 1000 Ang^3
#
#
#
# Elastic Constant Matrix: (Units=GPa)
#
#
# Indices 1 2 3 4 5 6 
#
# 1 63.0677 46.4246 35.8479 0.0000 0.0000 0.0000
# 2 46.4246 63.0680 35.8472 0.0000 0.0000 0.0000
# 3 35.8479 35.8472 67.4901 0.0000 0.0000 0.0000
# 4 0.0000 0.0000 0.0000 20.3465 0.0000 0.0000
# 5 0.0000 0.0000 0.0000 0.0000 20.3466 0.0000
# 6 0.0000 0.0000 0.0000 0.0000 0.0000 14.3269
#
#
#
# Elastic Compliance Matrix: (Units=1/GPa)
#
#
# Indices 1 2 3 4 5 6 
#
# 1 0.037044 -0.023041 -0.007439 0.000000 0.000000 0.000000
# 2 -0.023041 0.037044 -0.007437 0.000000 0.000000 0.000000
# 3 -0.007439 -0.007437 0.022718 0.000000 0.000000 0.000000
# 4 0.000000 0.000000 0.000000 0.049149 0.000000 0.000000
# 5 0.000000 0.000000 0.000000 0.000000 0.049148 0.000000
# 6 0.000000 0.000000 0.000000 0.000000 0.000000 0.069799
#
#
# Mechanical properties :
#
#
# Convention : Reuss Voigt Hill
#
# Bulk Modulus (GPa) = 47.67952 47.76281 47.72116
# Shear Modulus (GPa) = 14.37915 16.03773 15.20844
#
# Velocity S-wave (km/s) = 3.26104 3.44398 3.35376
# Velocity P-wave (km/s) = 7.03146 7.15112 7.09154
#
# Compressibility (1/GPa) = 0.02097336
#
# Stress axis : x y z
#
# Youngs Moduli (GPa) = 26.99461 26.99529 44.01729
#
# Poissons Ratio (x) = 0.62199 0.32742
# Poissons Ratio (y) = 0.62197 0.32737
# Poissons Ratio (z) = 0.20080 0.20077
#
# Static dielectric constant tensor:
#      x y z
#    x 2.534230 0.000000 0.000000 
#    y 0.000000 2.534230 0.000000 
#    z 0.000000 0.000000 2.731600 
# 
# 
# High freq. dielectric constant tensor:
#      x y z
#    x 1.481940 0.000000 0.000000 
#    y 0.000000 1.481940 0.000000 
#    z 0.000000 0.000000 1.522980 
# 
# From -- ./inp_files/2451.got.cif
#   From: 2010.03.12/outbox.cif.g09.slc.cpg/sg131_2_cif.got.tgz:2451.got - 2010.04.06 17:36:35.
