data_PCOD8315733
_publ_section_title
;
Structure prediction by ZEFSAII (Michael W. Deem and Ramdas Pophale) SiO2 
 PCOD8315733
Probable space group: P 42/M M C
;
_chemical_formula_sum "Si O2"
_cell_formula_units_Z 96
_cell_length_a 19.306193
_cell_length_b 19.306193
_cell_length_c 15.124550
_cell_angle_alpha 90.000000
_cell_angle_beta 90.000000
_cell_angle_gamma 90.000000
_cell_volume 5637.359730
_symmetry_space_group_name_H-M "P 42/M M C"
_symmetry_group_IT_number 131
_symmetry_cell_setting 'tetragonal'
loop_
_space_group_symop_operation_xyz
x,y,z
-x,-y,z
-y,x,1/2+z
y,-x,1/2+z
-x,y,-z
x,-y,-z
y,x,1/2-z
-y,-x,1/2-z
-x,-y,-z
x,y,-z
y,-x,1/2-z
-y,x,1/2-z
x,-y,z
-x,y,z
-y,-x,1/2+z
y,x,1/2+z
loop_
_atom_site_type_symbol
_atom_site_label
_atom_site_fract_x
_atom_site_fract_y
_atom_site_fract_z
Si Si1 0.078402 0.690166 0.727966
Si Si2 0.281734 0.686575 0.653116
Si Si3 0.188472 0.421811 0.274949
Si Si4 0.077198 0.229342 0.900267
Si Si5 0.267862 0.576487 0.099238
Si Si6 0.218915 0.837522 0.902185
O O1 0.117707 0.618974 0.708579
O O2 0.084984 0.707676 0.831628
O O3 0.110110 0.752562 0.670667
O O4 0.000000 0.679053 0.698015
O O5 0.280176 0.719825 0.750000
O O6 0.248486 0.610088 0.661867
O O7 0.359794 0.678527 0.614354
O O8 0.235395 0.739179 0.596045
O O9 0.177247 0.500000 0.305799
O O10 0.206928 0.416341 0.170887
O O11 0.137455 0.173614 0.881359
O O12 0.000000 0.195641 0.888928
O O13 0.085964 0.258997 0.000000
O O14 0.303700 0.500000 0.111480
O O15 0.237009 0.581915 0.000000
O O16 0.227116 0.870065 0.000000
#
# Coordination Sequence:
#
# PCOD8315733 Si02
#       6
#    16  16  16  16  16  16
#     4  10  20  32  47  68  94 124 158 196 234 273
#     4   9  16  27  45  67  90 119 157 196 230 269
#     4   9  18  31  46  66  91 121 158 194 230 272
#     4   9  17  29  47  72  99 123 147 181 228 280
#     4   9  16  26  44  71  99 121 142 178 228 279
#     4  10  18  29  48  69  90 120 158 198 235 271
#
# _framework density 17.029247999999999
#
# number of rings (size 3 to 8) (size 9 to 14) (size 15 to 20)
#    0.000    2.667    0.000    4.000    0.000    2.667 
#    0.000    0.000    0.000   13.500    0.000   18.667 
#    0.000    0.000    0.000    0.000    0.000    0.000 
#
# Total GULP energy -1189573.444661 kJ/mol
# GULP energy per Si atom -12391.390049 kJ/mol
# Density = 1.699049 g / cm^3
# Si number density = 17.029248 Si / 1000 Ang^3
#
#
#
# Elastic Constant Matrix: (Units=GPa)
#
#
# Indices 1 2 3 4 5 6 
#
# 1 126.3582 60.2271 34.5167 0.0000 0.0000 0.0000
# 2 60.2271 126.3576 34.5166 0.0000 0.0000 0.0000
# 3 34.5167 34.5166 61.6318 0.0000 0.0000 0.0000
# 4 0.0000 0.0000 0.0000 19.0816 0.0000 0.0000
# 5 0.0000 0.0000 0.0000 0.0000 19.0816 0.0000
# 6 0.0000 0.0000 0.0000 0.0000 0.0000 14.7653
#
#
#
# Elastic Compliance Matrix: (Units=1/GPa)
#
#
# Indices 1 2 3 4 5 6 
#
# 1 0.010941 -0.004181 -0.003786 0.000000 0.000000 0.000000
# 2 -0.004181 0.010941 -0.003786 0.000000 0.000000 0.000000
# 3 -0.003786 -0.003786 0.020466 0.000000 0.000000 0.000000
# 4 0.000000 0.000000 0.000000 0.052407 0.000000 0.000000
# 5 0.000000 0.000000 0.000000 0.000000 0.052407 0.000000
# 6 0.000000 0.000000 0.000000 0.000000 0.000000 0.067726
#
#
# Mechanical properties :
#
#
# Convention : Reuss Voigt Hill
#
# Bulk Modulus (GPa) = 53.07174 63.65202 58.36188
# Shear Modulus (GPa) = 20.43537 22.92484 21.68010
#
# Velocity S-wave (km/s) = 3.46788 3.67305 3.57194
# Velocity P-wave (km/s) = 6.87515 7.44631 7.16642
#
# Compressibility (1/GPa) = 0.01884242
#
# Stress axis : x y z
#
# Youngs Moduli (GPa) = 91.40036 91.39997 48.86124
#
# Poissons Ratio (x) = 0.38211 0.18499
# Poissons Ratio (y) = 0.38211 0.18499
# Poissons Ratio (z) = 0.34605 0.34605
#
# Static dielectric constant tensor:
#      x y z
#    x 3.161580 0.000000 0.000000 
#    y 0.000000 3.161570 0.000000 
#    z 0.000000 0.000000 3.286240 
# 
# 
# High freq. dielectric constant tensor:
#      x y z
#    x 1.636380 0.000000 0.000000 
#    y 0.000000 1.636380 0.000000 
#    z 0.000000 0.000000 1.665010 
# 
# From -- ./inp_files/7947.got.cif
#   From: 2010.03.12/outbox.cif.g09.slc.cpg/sg131_4_cif.got.tgz:7947.got - 2010.04.06 17:36:35.
