data_PCOD8315813
_publ_section_title
;
Structure prediction by ZEFSAII (Michael W. Deem and Ramdas Pophale) SiO2 
 PCOD8315813
Probable space group: P 42/M M C
;
_chemical_formula_sum "Si O2"
_cell_formula_units_Z 96
_cell_length_a 14.084638
_cell_length_b 14.084638
_cell_length_c 31.245511
_cell_angle_alpha 90.000000
_cell_angle_beta 90.000000
_cell_angle_gamma 90.000000
_cell_volume 6198.391598
_symmetry_space_group_name_H-M "P 42/M M C"
_symmetry_group_IT_number 131
_symmetry_cell_setting 'tetragonal'
loop_
_space_group_symop_operation_xyz
x,y,z
-x,-y,z
-y,x,1/2+z
y,-x,1/2+z
-x,y,-z
x,-y,-z
y,x,1/2-z
-y,-x,1/2-z
-x,-y,-z
x,y,-z
y,-x,1/2-z
-y,x,1/2-z
x,-y,z
-x,y,z
-y,-x,1/2+z
y,x,1/2+z
loop_
_atom_site_type_symbol
_atom_site_label
_atom_site_fract_x
_atom_site_fract_y
_atom_site_fract_z
Si Si1 0.886760 0.219656 0.371433
Si Si2 0.890192 0.605150 0.752503
Si Si3 0.208610 0.607805 0.337838
Si Si4 0.395636 0.612354 0.297191
Si Si5 0.888714 0.799547 0.791481
Si Si6 0.112644 0.106133 0.547083
O O1 0.847946 0.327234 0.371373
O O2 0.840106 0.163932 0.332451
O O3 0.849685 0.175276 0.415914
O O4 0.000000 0.217258 0.367082
O O5 0.868295 0.500000 0.771943
O O6 0.834946 0.620199 0.708871
O O7 0.861598 0.687628 0.786062
O O8 0.000000 0.615676 0.740465
O O9 0.200302 0.500000 0.354416
O O10 0.318917 0.641177 0.333397
O O11 0.357167 0.642834 0.250000
O O12 0.404481 0.500000 0.295600
O O13 0.500000 0.656824 0.307564
O O14 0.858418 0.858418 0.750000
O O15 0.000000 0.813405 0.798748
O O16 0.146880 0.141513 0.500000
O O17 0.000000 0.103895 0.548341
O O18 0.151704 0.000000 0.555625
#
# Coordination Sequence:
#
# PCOD8315813 Si02
#       6
#    16  16  16  16  16  16
#     4  11  21  31  45  66  91 119 152 187 221 267
#     4   9  18  32  45  56  79 120 162 191 215 253
#     4  10  19  29  43  61  85 120 156 187 221 265
#     4   8  15  27  41  58  80 109 149 195 235 263
#     4  11  21  31  42  60  89 121 151 184 222 265
#     4   8  15  30  51  71  89 111 142 182 229 276
#
# _framework density 15.487888999999999
#
# number of rings (size 3 to 8) (size 9 to 14) (size 15 to 20)
#    0.000    2.500    1.667    2.500    2.333    2.833 
#    0.000    0.000    0.000    0.500    0.000    2.333 
#    0.000    2.667    0.000   16.000    0.000    0.667 
#
# Total GULP energy -1189694.331652 kJ/mol
# GULP energy per Si atom -12392.649288 kJ/mol
# Density = 1.545264 g / cm^3
# Si number density = 15.487889 Si / 1000 Ang^3
#
#
#
# Elastic Constant Matrix: (Units=GPa)
#
#
# Indices 1 2 3 4 5 6 
#
# 1 72.7924 40.2114 41.9395 0.0000 0.0000 0.0000
# 2 40.2114 72.7919 41.9395 0.0000 0.0000 0.0000
# 3 41.9395 41.9395 91.8544 0.0000 0.0000 0.0000
# 4 0.0000 0.0000 0.0000 5.9210 0.0000 0.0000
# 5 0.0000 0.0000 0.0000 0.0000 5.9209 0.0000
# 6 0.0000 0.0000 0.0000 0.0000 0.0000 15.6063
#
#
#
# Elastic Compliance Matrix: (Units=1/GPa)
#
#
# Indices 1 2 3 4 5 6 
#
# 1 0.022039 -0.008654 -0.006112 0.000000 0.000000 0.000000
# 2 -0.008654 0.022039 -0.006112 0.000000 0.000000 0.000000
# 3 -0.006112 -0.006112 0.016468 0.000000 0.000000 0.000000
# 4 0.000000 0.000000 0.000000 0.168891 0.000000 0.000000
# 5 0.000000 0.000000 0.000000 0.000000 0.168894 0.000000
# 6 0.000000 0.000000 0.000000 0.000000 0.000000 0.064077
#
#
# Mechanical properties :
#
#
# Convention : Reuss Voigt Hill
#
# Bulk Modulus (GPa) = 53.21287 53.95773 53.58530
# Shear Modulus (GPa) = 9.79573 13.04619 11.42096
#
# Velocity S-wave (km/s) = 2.51764 2.90547 2.71848
# Velocity P-wave (km/s) = 6.54856 6.79485 6.67284
#
# Compressibility (1/GPa) = 0.01879245
#
# Stress axis : x y z
#
# Youngs Moduli (GPa) = 45.37350 45.37308 60.72399
#
# Poissons Ratio (x) = 0.39264 0.37113
# Poissons Ratio (y) = 0.39264 0.37114
# Poissons Ratio (z) = 0.27731 0.27731
#
# Static dielectric constant tensor:
#      x y z
#    x 3.272810 0.000000 0.000000 
#    y 0.000000 3.272820 0.000000 
#    z 0.000000 0.000000 2.852090 
# 
# 
# High freq. dielectric constant tensor:
#      x y z
#    x 1.598080 0.000000 0.000000 
#    y 0.000000 1.598080 0.000000 
#    z 0.000000 0.000000 1.540140 
# 
# From -- ./inp_files/13683.got.cif
#   From: 2010.03.12/outbox.cif.g09.slc.cpg/sg131_7_cif.got.tgz:13683.got - 2010.04.06 17:36:35.
