data_PCOD8315289
_publ_section_title
;
Structure prediction by ZEFSAII (Michael W. Deem and Ramdas Pophale) SiO2 
 PCOD8315289
Probable space group: P 4/N M M
;
_chemical_formula_sum "Si O2"
_cell_formula_units_Z 112
_cell_length_a 17.558810
_cell_length_b 17.558810
_cell_length_c 21.723534
_cell_angle_alpha 90.000000
_cell_angle_beta 90.000000
_cell_angle_gamma 90.000000
_cell_volume 6697.622057
_symmetry_space_group_name_H-M "P 4/N M M"
_symmetry_group_IT_number 129
_symmetry_cell_setting 'tetragonal'
loop_
_space_group_symop_operation_xyz
x,y,z
1/2-y,x,z
1/2-x,1/2-y,z
y,1/2-x,z
1/2+x,-y,-z
-x,1/2+y,-z
1/2+y,1/2+x,-z
-y,-x,-z
-x,-y,-z
1/2+y,-x,-z
1/2+x,1/2+y,-z
-y,1/2+x,-z
1/2-x,y,z
x,1/2-y,z
1/2-y,1/2-x,z
y,x,z
loop_
_atom_site_type_symbol
_atom_site_label
_atom_site_fract_x
_atom_site_fract_y
_atom_site_fract_z
Si Si1 0.037065 0.161692 0.605888
Si Si2 0.666615 0.394994 0.062112
Si Si3 0.338380 0.035991 0.257772
Si Si4 0.014010 0.606488 0.871508
Si Si5 0.550333 0.832326 0.996368
Si Si6 0.959766 0.836766 0.537901
Si Si7 0.580795 0.454260 0.636261
O O1 0.049361 0.250000 0.625668
O O2 0.112955 0.112955 0.623954
O O3 0.021365 0.154337 0.533514
O O4 0.959593 0.129082 0.637825
O O5 0.750000 0.371994 0.088316
O O6 0.604436 0.387121 0.116055
O O7 0.653043 0.346958 0.000000
O O8 0.664774 0.482120 0.043578
O O9 0.250000 0.053096 0.272100
O O10 0.385886 0.114115 0.267039
O O11 0.346079 0.004117 0.189146
O O12 0.370084 0.969705 0.302452
O O13 0.980228 0.519773 0.865592
O O14 0.972857 0.646804 0.927701
O O15 0.588461 0.750000 0.993997
O O16 0.610763 0.889238 0.024737
O O17 0.941405 0.750000 0.555464
O O18 0.885227 0.885227 0.556632
O O19 0.033079 0.865368 0.576669
O O20 0.511468 0.511468 0.630720
#
# Coordination Sequence:
#
# PCOD8315289 Si02
#       7
#    16  16  16  16  16  16  16
#     4   9  17  29  47  70  93 117 147 186 231 276
#     4   9  17  29  45  64  85 110 143 183 224 265
#     4  10  20  33  50  70  92 120 151 184 220 257
#     4   9  17  30  46  63  86 117 151 183 217 261
#     4   9  16  26  42  64  89 116 144 176 216 261
#     4   9  16  26  43  67  93 121 152 188 229 270
#     4   9  17  30  46  64  89 122 157 186 216 262
#
# _framework density 16.722352000000001
#
# number of rings (size 3 to 8) (size 9 to 14) (size 15 to 20)
#    0.000    2.857    0.000    1.714    0.000    4.714 
#    0.000    2.143    0.000    7.714    0.000    4.000 
#    0.000    0.000    0.000    9.000    0.000    0.143 
#
# Total GULP energy -1387891.644053 kJ/mol
# GULP energy per Si atom -12391.889679 kJ/mol
# Density = 1.668429 g / cm^3
# Si number density = 16.722352 Si / 1000 Ang^3
#
#
#
# Elastic Constant Matrix: (Units=GPa)
#
#
# Indices 1 2 3 4 5 6 
#
# 1 117.1355 35.6536 18.7172 0.0000 0.0000 0.0000
# 2 35.6536 117.1305 18.7142 0.0000 0.0000 0.0000
# 3 18.7172 18.7142 35.5648 0.0000 0.0000 0.0000
# 4 0.0000 0.0000 0.0000 17.8194 0.0000 0.0000
# 5 0.0000 0.0000 0.0000 0.0000 17.8193 0.0000
# 6 0.0000 0.0000 0.0000 0.0000 0.0000 15.3034
#
#
#
# Elastic Compliance Matrix: (Units=1/GPa)
#
#
# Indices 1 2 3 4 5 6 
#
# 1 0.009893 -0.002380 -0.003955 0.000000 0.000000 0.000000
# 2 -0.002380 0.009893 -0.003954 0.000000 0.000000 0.000000
# 3 -0.003955 -0.003954 0.032279 0.000000 0.000000 0.000000
# 4 0.000000 0.000000 0.000000 0.056119 0.000000 0.000000
# 5 0.000000 0.000000 0.000000 0.000000 0.056119 0.000000
# 6 0.000000 0.000000 0.000000 0.000000 0.000000 0.065345
#
#
# Mechanical properties :
#
#
# Convention : Reuss Voigt Hill
#
# Bulk Modulus (GPa) = 31.75556 46.22232 38.98894
# Shear Modulus (GPa) = 19.17758 23.30481 21.24120
#
# Velocity S-wave (km/s) = 3.39015 3.73719 3.56789
# Velocity P-wave (km/s) = 5.86134 6.80611 6.35132
#
# Compressibility (1/GPa) = 0.03149055
#
# Stress axis : x y z
#
# Youngs Moduli (GPa) = 101.07821 101.07653 30.97966
#
# Poissons Ratio (x) = 0.24052 0.12251
# Poissons Ratio (y) = 0.24053 0.12248
# Poissons Ratio (z) = 0.39972 0.39962
#
# Static dielectric constant tensor:
#      x y z
#    x 3.299070 0.000000 0.000000 
#    y 0.000000 3.299070 0.000000 
#    z 0.000000 0.000000 2.969390 
# 
# 
# High freq. dielectric constant tensor:
#      x y z
#    x 1.637340 0.000000 0.000000 
#    y 0.000000 1.637340 0.000000 
#    z 0.000000 0.000000 1.622470 
# 
# From -- ./inp_files/6673.got.cif
#   From: 2010.03.12/outbox.cif.g09.slc.cpg/sg129_4_cif.got.tgz:6673.got - 2010.04.06 17:19:44.
