data_PCOD8315587
_publ_section_title
;
Structure prediction by ZEFSAII (Michael W. Deem and Ramdas Pophale) SiO2 
 PCOD8315587
Probable space group: P 4/N C C
;
_chemical_formula_sum "Si O2"
_cell_formula_units_Z 88
_cell_length_a 13.935867
_cell_length_b 13.935867
_cell_length_c 20.321452
_cell_angle_alpha 90.000000
_cell_angle_beta 90.000000
_cell_angle_gamma 90.000000
_cell_volume 3946.596456
_symmetry_space_group_name_H-M "P 4/N C C"
_symmetry_group_IT_number 130
_symmetry_cell_setting 'tetragonal'
loop_
_space_group_symop_operation_xyz
x,y,z
1/2-y,x,z
1/2-x,1/2-y,z
y,1/2-x,z
1/2+x,-y,1/2-z
-x,1/2+y,1/2-z
1/2+y,1/2+x,1/2-z
-y,-x,1/2-z
-x,-y,-z
1/2+y,-x,-z
1/2+x,1/2+y,-z
-y,1/2+x,-z
1/2-x,y,1/2+z
x,1/2-y,1/2+z
1/2-y,1/2-x,1/2+z
y,x,1/2+z
loop_
_atom_site_type_symbol
_atom_site_label
_atom_site_fract_x
_atom_site_fract_y
_atom_site_fract_z
Si Si1 0.667205 0.617991 0.457524
Si Si2 0.987470 0.861493 0.087991
Si Si3 0.062996 0.937005 0.750000
Si Si4 0.150695 0.868927 0.004763
Si Si5 0.122740 0.153860 0.192148
Si Si6 0.351697 0.981901 0.376493
O O1 0.779864 0.619960 0.470727
O O2 0.627319 0.547295 0.512341
O O3 0.640230 0.589255 0.383437
O O4 0.980056 0.757028 0.121203
O O5 0.925977 0.929867 0.134882
O O6 0.098695 0.892884 0.075133
O O7 0.087641 0.869427 0.686757
O O8 0.951262 0.911573 0.766296
O O9 0.117589 0.933312 0.944146
O O10 0.262453 0.879379 0.017810
O O11 0.231274 0.117482 0.206862
#
# Coordination Sequence:
#
# PCOD8315587 Si02
#       6
#    16  16   8  16  16  16
#     4   9  16  32  61  99 129 153 205 279 352 406
#     4  11  20  38  64  97 127 161 205 273 345 387
#     4  12  26  44  60  92 138 178 230 264 318 402
#     4   9  20  40  63  89 123 163 212 266 326 388
#     4   9  21  42  70  95 127 181 232 284 339 404
#     4  11  25  39  61  95 128 171 213 269 326 399
#
# _framework density 22.297694
#
# number of rings (size 3 to 8) (size 9 to 14) (size 15 to 20)
#    0.000    2.000    1.818    2.727    2.545    0.364 
#    6.545    0.000    0.000    8.182    0.000    0.000 
#    0.000    0.000    0.000    0.000    0.000    0.000 
#
# Total GULP energy -1090290.165834 kJ/mol
# GULP energy per Si atom -12389.660975 kJ/mol
# Density = 2.224694 g / cm^3
# Si number density = 22.297694 Si / 1000 Ang^3
#
#
#
# Elastic Constant Matrix: (Units=GPa)
#
#
# Indices 1 2 3 4 5 6 
#
# 1 80.3491 43.1896 35.4128 0.0000 0.0000 0.0000
# 2 43.1896 80.3503 35.4131 0.0000 0.0000 0.0000
# 3 35.4128 35.4131 75.4863 0.0000 0.0000 0.0000
# 4 0.0000 0.0000 0.0000 26.3489 0.0000 0.0000
# 5 0.0000 0.0000 0.0000 0.0000 26.3489 0.0000
# 6 0.0000 0.0000 0.0000 0.0000 0.0000 36.1730
#
#
#
# Elastic Compliance Matrix: (Units=1/GPa)
#
#
# Indices 1 2 3 4 5 6 
#
# 1 0.018992 -0.007919 -0.005195 0.000000 0.000000 0.000000
# 2 -0.007919 0.018991 -0.005194 0.000000 0.000000 0.000000
# 3 -0.005195 -0.005194 0.018121 0.000000 0.000000 0.000000
# 4 0.000000 0.000000 0.000000 0.037952 0.000000 0.000000
# 5 0.000000 0.000000 0.000000 0.000000 0.037952 0.000000
# 6 0.000000 0.000000 0.000000 0.000000 0.000000 0.027645
#
#
# Mechanical properties :
#
#
# Convention : Reuss Voigt Hill
#
# Bulk Modulus (GPa) = 51.31239 51.57962 51.44601
# Shear Modulus (GPa) = 24.65895 25.91883 25.28889
#
# Velocity S-wave (km/s) = 3.32911 3.41310 3.37137
# Velocity P-wave (km/s) = 6.15140 6.22212 6.18686
#
# Compressibility (1/GPa) = 0.01948847
#
# Stress axis : x y z
#
# Youngs Moduli (GPa) = 52.65442 52.65524 55.18383
#
# Poissons Ratio (x) = 0.41698 0.28665
# Poissons Ratio (y) = 0.41697 0.28665
# Poissons Ratio (z) = 0.27352 0.27352
#
# Static dielectric constant tensor:
#      x y z
#    x 4.090850 0.000000 0.000000 
#    y 0.000000 4.090840 0.000000 
#    z 0.000000 0.000000 4.003790 
# 
# 
# High freq. dielectric constant tensor:
#      x y z
#    x 1.876740 0.000000 0.000000 
#    y 0.000000 1.876740 0.000000 
#    z 0.000000 0.000000 1.866500 
# 
# From -- ./inp_files/3684.got.cif
#   From: 2010.03.12/outbox.cif.g09.slc.cpg/sg130_2_cif.got.tgz:3684.got - 2010.04.06 17:30:23.
