data_PCOD8315371
_publ_section_title
;
Structure prediction by ZEFSAII (Michael W. Deem and Ramdas Pophale) SiO2 
 PCOD8315371
Probable space group: P 4/N M M
;
_chemical_formula_sum "Si O2"
_cell_formula_units_Z 72
_cell_length_a 20.354274
_cell_length_b 20.354274
_cell_length_c 9.793446
_cell_angle_alpha 90.000000
_cell_angle_beta 90.000000
_cell_angle_gamma 90.000000
_cell_volume 4057.390108
_symmetry_space_group_name_H-M "P 4/N M M"
_symmetry_group_IT_number 129
_symmetry_cell_setting 'tetragonal'
loop_
_space_group_symop_operation_xyz
x,y,z
1/2-y,x,z
1/2-x,1/2-y,z
y,1/2-x,z
1/2+x,-y,-z
-x,1/2+y,-z
1/2+y,1/2+x,-z
-y,-x,-z
-x,-y,-z
1/2+y,-x,-z
1/2+x,1/2+y,-z
-y,1/2+x,-z
1/2-x,y,z
x,1/2-y,z
1/2-y,1/2-x,z
y,x,z
loop_
_atom_site_type_symbol
_atom_site_label
_atom_site_fract_x
_atom_site_fract_y
_atom_site_fract_z
Si Si1 0.324570 0.675431 0.000000
Si Si2 0.048311 0.825383 0.167445
Si Si3 0.175751 0.069553 0.349136
Si Si4 0.101588 0.502870 0.568505
Si Si5 0.825786 0.933779 0.961729
O O1 0.337620 0.623163 0.880124
O O2 0.250000 0.666146 0.057415
O O3 0.036895 0.750000 0.206126
O O4 0.036857 0.867937 0.300522
O O5 0.996846 0.846621 0.050327
O O6 0.250000 0.090401 0.373913
O O7 0.134458 0.134458 0.377935
O O8 0.163977 0.044083 0.194996
O O9 0.156801 0.012847 0.455669
O O10 0.052256 0.552256 0.500000
O O11 0.063268 0.436733 0.613202
O O12 0.750000 0.913117 0.988579
O O13 0.871546 0.871546 0.999610
#
# Coordination Sequence:
#
# PCOD8315371 Si02
#       5
#     8  16  16  16  16
#     4   9  20  38  57  78 102 128 165 216 274 329
#     4  10  20  35  56  79 100 133 173 214 264 314
#     4   9  18  33  52  75 106 141 176 218 261 307
#     4  10  21  35  50  74 106 139 173 212 260 308
#     4   9  18  32  52  80 111 144 181 216 256 306
#
# _framework density 17.745398999999999
#
# number of rings (size 3 to 8) (size 9 to 14) (size 15 to 20)
#    0.000    2.556    0.000    1.333    3.111    0.444 
#    0.000    4.444    0.000    0.000    0.000    3.111 
#    0.000    0.000    0.000    0.000    0.000    0.000 
#
# Total GULP energy -892690.313230 kJ/mol
# GULP energy per Si atom -12398.476573 kJ/mol
# Density = 1.770501 g / cm^3
# Si number density = 17.745399 Si / 1000 Ang^3
#
#
#
# Elastic Constant Matrix: (Units=GPa)
#
#
# Indices 1 2 3 4 5 6 
#
# 1 92.1444 39.5796 56.1985 0.0000 0.0000 0.0000
# 2 39.5796 92.1466 56.1984 0.0000 0.0000 0.0000
# 3 56.1985 56.1984 106.0806 0.0000 0.0000 0.0000
# 4 0.0000 0.0000 0.0000 23.9010 0.0000 0.0000
# 5 0.0000 0.0000 0.0000 0.0000 23.9018 0.0000
# 6 0.0000 0.0000 0.0000 0.0000 0.0000 21.6072
#
#
#
# Elastic Compliance Matrix: (Units=1/GPa)
#
#
# Indices 1 2 3 4 5 6 
#
# 1 0.016439 -0.002585 -0.007340 0.000000 0.000000 0.000000
# 2 -0.002585 0.016439 -0.007339 0.000000 0.000000 0.000000
# 3 -0.007340 -0.007339 0.017203 0.000000 0.000000 0.000000
# 4 0.000000 0.000000 0.000000 0.041839 0.000000 0.000000
# 5 0.000000 0.000000 0.000000 0.000000 0.041838 0.000000
# 6 0.000000 0.000000 0.000000 0.000000 0.000000 0.046281
#
#
# Mechanical properties :
#
#
# Convention : Reuss Voigt Hill
#
# Bulk Modulus (GPa) = 64.29411 66.03607 65.16509
# Shear Modulus (GPa) = 22.75297 23.10833 22.93065
#
# Velocity S-wave (km/s) = 3.58465 3.61254 3.59862
# Velocity P-wave (km/s) = 7.31048 7.39557 7.35314
#
# Compressibility (1/GPa) = 0.01555352
#
# Stress axis : x y z
#
# Youngs Moduli (GPa) = 60.82995 60.83223 58.12823
#
# Poissons Ratio (x) = 0.15724 0.42664
# Poissons Ratio (y) = 0.15723 0.42662
# Poissons Ratio (z) = 0.44647 0.44647
#
# Static dielectric constant tensor:
#      x y z
#    x 3.356410 0.000000 0.000000 
#    y 0.000000 3.356390 0.000000 
#    z 0.000000 0.000000 3.236400 
# 
# 
# High freq. dielectric constant tensor:
#      x y z
#    x 1.689160 0.000000 0.000000 
#    y 0.000000 1.689160 0.000000 
#    z 0.000000 0.000000 1.680390 
# 
# From -- ./inp_files/2298.got.cif
#   From: 2010.03.12/outbox.cif.g09.slc.cpg/sg129_2_cif.got.tgz:2298.got - 2010.04.06 17:19:44.
