data_PCOD8315723
_publ_section_title
;
Structure prediction by ZEFSAII (Michael W. Deem and Ramdas Pophale) SiO2 
 PCOD8315723
Probable space group: P 42/M M C
;
_chemical_formula_sum "Si O2"
_cell_formula_units_Z 64
_cell_length_a 11.225386
_cell_length_b 11.225386
_cell_length_c 31.199118
_cell_angle_alpha 90.000000
_cell_angle_beta 90.000000
_cell_angle_gamma 90.000000
_cell_volume 3931.378734
_symmetry_space_group_name_H-M "P 42/M M C"
_symmetry_group_IT_number 131
_symmetry_cell_setting 'tetragonal'
loop_
_space_group_symop_operation_xyz
x,y,z
-x,-y,z
-y,x,1/2+z
y,-x,1/2+z
-x,y,-z
x,-y,-z
y,x,1/2-z
-y,-x,1/2-z
-x,-y,-z
x,y,-z
y,-x,1/2-z
-y,x,1/2-z
x,-y,z
-x,y,z
-y,-x,1/2+z
y,x,1/2+z
loop_
_atom_site_type_symbol
_atom_site_label
_atom_site_fract_x
_atom_site_fract_y
_atom_site_fract_z
Si Si1 0.000000 0.354696 0.721695
Si Si2 0.754028 0.641592 0.413965
Si Si3 0.753401 0.753401 0.750000
Si Si4 0.364512 0.642379 0.500000
Si Si5 0.000000 0.640180 0.379090
Si Si6 0.631067 0.361567 0.171757
O O1 0.890007 0.282932 0.742338
O O2 0.000000 0.327846 0.671034
O O3 0.000000 0.500000 0.730537
O O4 0.755595 0.500000 0.417667
O O5 0.703262 0.694525 0.458300
O O6 0.885081 0.693248 0.403514
O O7 0.669475 0.682645 0.374977
O O8 0.680574 0.718604 0.708188
O O9 0.500000 0.689068 0.500000
O O10 0.363343 0.500000 0.500000
O O11 0.000000 0.500000 0.384298
O O12 0.615590 0.500000 0.175879
O O13 0.500000 0.300119 0.177704
#
# Coordination Sequence:
#
# PCOD8315723 Si02
#       6
#     8  16   8   8   8  16
#     4  11  22  37  54  75 104 136 175 222 268 314
#     4   9  16  26  41  61  91 130 168 207 255 311
#     4  12  22  34  52  70  98 136 172 213 264 315
#     4   9  16  25  37  59  93 131 169 210 257 309
#     4   9  16  29  45  62  91 130 168 205 252 302
#     4  10  18  28  45  70  96 126 169 216 262 313
#
# _framework density 16.279275999999999
#
# number of rings (size 3 to 8) (size 9 to 14) (size 15 to 20)
#    0.000    2.125    2.500    3.000    0.000    4.750 
#    0.000    2.500    0.000    0.000    0.000    0.000 
#    0.000    1.000    0.000    7.250    0.000    3.250 
#
# Total GULP energy -793058.731212 kJ/mol
# GULP energy per Si atom -12391.542675 kJ/mol
# Density = 1.624222 g / cm^3
# Si number density = 16.279276 Si / 1000 Ang^3
#
#
#
# Elastic Constant Matrix: (Units=GPa)
#
#
# Indices 1 2 3 4 5 6 
#
# 1 108.9834 9.4132 52.5857 0.0000 0.0000 0.0000
# 2 9.4132 108.9834 52.5857 0.0000 0.0000 0.0000
# 3 52.5857 52.5857 159.2243 0.0000 0.0000 0.0000
# 4 0.0000 0.0000 0.0000 19.0949 0.0000 0.0000
# 5 0.0000 0.0000 0.0000 0.0000 19.0949 0.0000
# 6 0.0000 0.0000 0.0000 0.0000 0.0000 15.4034
#
#
#
# Elastic Compliance Matrix: (Units=1/GPa)
#
#
# Indices 1 2 3 4 5 6 
#
# 1 0.010998 0.000955 -0.003948 0.000000 0.000000 0.000000
# 2 0.000955 0.010998 -0.003948 0.000000 0.000000 0.000000
# 3 -0.003948 -0.003948 0.008888 0.000000 0.000000 0.000000
# 4 0.000000 0.000000 0.000000 0.052370 0.000000 0.000000
# 5 0.000000 0.000000 0.000000 0.000000 0.052370 0.000000
# 6 0.000000 0.000000 0.000000 0.000000 0.000000 0.064921
#
#
# Mechanical properties :
#
#
# Convention : Reuss Voigt Hill
#
# Bulk Modulus (GPa) = 58.81221 67.37338 63.09279
# Shear Modulus (GPa) = 22.71768 28.22575 25.47171
#
# Velocity S-wave (km/s) = 3.73969 4.16846 3.95988
# Velocity P-wave (km/s) = 7.40625 8.04015 7.72970
#
# Compressibility (1/GPa) = 0.01700327
#
# Stress axis : x y z
#
# Youngs Moduli (GPa) = 90.92584 90.92584 112.51257
#
# Poissons Ratio (x) = -0.08682 0.44415
# Poissons Ratio (y) = -0.08682 0.44415
# Poissons Ratio (z) = 0.35893 0.35893
#
# Static dielectric constant tensor:
#      x y z
#    x 2.951320 0.000000 0.000000 
#    y 0.000000 2.951320 0.000000 
#    z 0.000000 0.000000 3.299300 
# 
# 
# High freq. dielectric constant tensor:
#      x y z
#    x 1.593540 0.000000 0.000000 
#    y 0.000000 1.593540 0.000000 
#    z 0.000000 0.000000 1.641350 
# 
# From -- ./inp_files/12026.got.cif
#   From: 2010.03.12/outbox.cif.g09.slc.cpg/sg131_7_cif.got.tgz:12026.got - 2010.04.06 17:36:35.
