data_PCOD8315788
_publ_section_title
;
Structure prediction by ZEFSAII (Michael W. Deem and Ramdas Pophale) SiO2 
 PCOD8315788
Probable space group: P 42/M M C
;
_chemical_formula_sum "Si O2"
_cell_formula_units_Z 96
_cell_length_a 15.034584
_cell_length_b 15.034584
_cell_length_c 22.681043
_cell_angle_alpha 90.000000
_cell_angle_beta 90.000000
_cell_angle_gamma 90.000000
_cell_volume 5126.793838
_symmetry_space_group_name_H-M "P 42/M M C"
_symmetry_group_IT_number 131
_symmetry_cell_setting 'tetragonal'
loop_
_space_group_symop_operation_xyz
x,y,z
-x,-y,z
-y,x,1/2+z
y,-x,1/2+z
-x,y,-z
x,-y,-z
y,x,1/2-z
-y,-x,1/2-z
-x,-y,-z
x,y,-z
y,-x,1/2-z
-y,x,1/2-z
x,-y,z
-x,y,z
-y,-x,1/2+z
y,x,1/2+z
loop_
_atom_site_type_symbol
_atom_site_label
_atom_site_fract_x
_atom_site_fract_y
_atom_site_fract_z
Si Si1 0.600961 0.354068 0.182927
Si Si2 0.897525 0.749177 0.816700
Si Si3 0.770711 0.096745 0.821646
Si Si4 0.782495 0.401211 0.127223
Si Si5 0.601395 0.752761 0.000000
Si Si6 0.601576 0.737238 0.500000
Si Si7 0.832791 0.599713 0.374814
O O1 0.626491 0.373510 0.250000
O O2 0.500000 0.390057 0.169604
O O3 0.676850 0.397645 0.142315
O O4 0.603397 0.249493 0.170289
O O5 0.891770 0.752850 0.747034
O O6 0.842974 0.832016 0.844606
O O7 0.846379 0.660761 0.835252
O O8 0.000000 0.750117 0.838967
O O9 0.675833 0.100008 0.854517
O O10 0.812235 0.000000 0.834414
O O11 0.816427 0.500000 0.140693
O O12 0.795382 0.377602 0.058193
O O13 0.625022 0.808024 0.058291
O O14 0.500000 0.724605 0.000000
O O15 0.649791 0.659698 0.000000
O O16 0.500000 0.704947 0.500000
O O17 0.875022 0.500000 0.372618
#
# Coordination Sequence:
#
# PCOD8315788 Si02
#       7
#    16  16  16  16   8   8  16
#     4  11  21  33  50  75 112 151 186 223 267 318
#     4  10  21  38  59  82 110 142 179 225 278 334
#     4  10  20  36  59  85 113 142 176 222 276 334
#     4  11  22  36  55  79 110 146 189 232 272 323
#     4  10  18  33  53  73 104 150 194 230 269 314
#     4  10  20  33  51  75 104 142 188 240 281 312
#     4  10  20  34  55  80 110 149 188 226 268 321
#
# _framework density 18.725154
#
# number of rings (size 3 to 8) (size 9 to 14) (size 15 to 20)
#    0.000    1.667    3.333    1.500    0.000    4.333 
#    0.000    5.833    0.000    3.000    0.000    0.000 
#    0.000    4.000    0.000    0.000    0.000    0.000 
#
# Total GULP energy -1189894.719856 kJ/mol
# GULP energy per Si atom -12394.736665 kJ/mol
# Density = 1.868253 g / cm^3
# Si number density = 18.725154 Si / 1000 Ang^3
#
#
#
# Elastic Constant Matrix: (Units=GPa)
#
#
# Indices 1 2 3 4 5 6 
#
# 1 108.4198 54.1710 26.3699 0.0000 0.0000 0.0000
# 2 54.1710 108.4198 26.3696 0.0000 0.0000 0.0000
# 3 26.3699 26.3696 49.8372 0.0000 0.0000 0.0000
# 4 0.0000 0.0000 0.0000 9.2702 0.0000 0.0000
# 5 0.0000 0.0000 0.0000 0.0000 9.2697 0.0000
# 6 0.0000 0.0000 0.0000 0.0000 0.0000 6.2670
#
#
#
# Elastic Compliance Matrix: (Units=1/GPa)
#
#
# Indices 1 2 3 4 5 6 
#
# 1 0.012929 -0.005504 -0.003929 0.000000 0.000000 0.000000
# 2 -0.005504 0.012929 -0.003928 0.000000 0.000000 0.000000
# 3 -0.003929 -0.003928 0.024223 0.000000 0.000000 0.000000
# 4 0.000000 0.000000 0.000000 0.107873 0.000000 0.000000
# 5 0.000000 0.000000 0.000000 0.000000 0.107878 0.000000
# 6 0.000000 0.000000 0.000000 0.000000 0.000000 0.159566
#
#
# Mechanical properties :
#
#
# Convention : Reuss Voigt Hill
#
# Bulk Modulus (GPa) = 42.81207 53.38864 48.10035
# Shear Modulus (GPa) = 10.87175 15.61246 13.24211
#
# Velocity S-wave (km/s) = 2.41217 2.89064 2.66218
# Velocity P-wave (km/s) = 5.53815 6.30196 5.93236
#
# Compressibility (1/GPa) = 0.02335790
#
# Stress axis : x y z
#
# Youngs Moduli (GPa) = 77.34447 77.34474 41.28362
#
# Poissons Ratio (x) = 0.42574 0.16219
# Poissons Ratio (y) = 0.42574 0.16218
# Poissons Ratio (z) = 0.30386 0.30385
#
# Static dielectric constant tensor:
#      x y z
#    x 3.447700 0.000000 0.000000 
#    y 0.000000 3.447700 0.000000 
#    z 0.000000 0.000000 3.734860 
# 
# 
# High freq. dielectric constant tensor:
#      x y z
#    x 1.718020 0.000000 0.000000 
#    y 0.000000 1.718020 0.000000 
#    z 0.000000 0.000000 1.724010 
# 
# From -- ./inp_files/9811.got.cif
#   From: 2010.03.12/outbox.cif.g09.slc.cpg/sg131_5_cif.got.tgz:9811.got - 2010.04.06 17:36:35.
