data_PCOD8315395
_publ_section_title
;
Structure prediction by ZEFSAII (Michael W. Deem and Ramdas Pophale) SiO2 
 PCOD8315395
Probable space group: P 4/N M M
;
_chemical_formula_sum "Si O2"
_cell_formula_units_Z 96
_cell_length_a 23.522849
_cell_length_b 23.522849
_cell_length_c 9.214697
_cell_angle_alpha 90.000000
_cell_angle_beta 90.000000
_cell_angle_gamma 90.000000
_cell_volume 5098.716920
_symmetry_space_group_name_H-M "P 4/N M M"
_symmetry_group_IT_number 129
_symmetry_cell_setting 'tetragonal'
loop_
_space_group_symop_operation_xyz
x,y,z
1/2-y,x,z
1/2-x,1/2-y,z
y,1/2-x,z
1/2+x,-y,-z
-x,1/2+y,-z
1/2+y,1/2+x,-z
-y,-x,-z
-x,-y,-z
1/2+y,-x,-z
1/2+x,1/2+y,-z
-y,1/2+x,-z
1/2-x,y,z
x,1/2-y,z
1/2-y,1/2-x,z
y,x,z
loop_
_atom_site_type_symbol
_atom_site_label
_atom_site_fract_x
_atom_site_fract_y
_atom_site_fract_z
Si Si1 0.121049 0.923105 0.764792
Si Si2 0.984888 0.606472 0.470415
Si Si3 0.904664 0.685778 0.300510
Si Si4 0.503106 0.596202 0.805946
Si Si5 0.314405 0.488630 0.955466
Si Si6 0.185636 0.684328 0.170420
O O1 0.146617 0.859813 0.739618
O O2 0.061165 0.919771 0.848296
O O3 0.109747 0.954814 0.611715
O O4 0.164534 0.957126 0.865291
O O5 0.954501 0.545500 0.436926
O O6 0.944375 0.657087 0.420397
O O7 0.994786 0.615376 0.639570
O O8 0.895271 0.750000 0.349890
O O9 0.843563 0.656438 0.293298
O O10 0.932760 0.681070 0.142652
O O11 0.542462 0.542462 0.839950
O O12 0.523431 0.649122 0.901727
O O13 0.250000 0.501087 0.003211
O O14 0.250000 0.665017 0.210899
O O15 0.177390 0.750000 0.212588
O O16 0.175036 0.675036 0.000000
#
# Coordination Sequence:
#
# PCOD8315395 Si02
#       6
#    16  16  16  16  16  16
#     4  11  20  32  54  79 105 136 174 218 266 316
#     4   9  20  37  53  74 107 141 173 213 264 318
#     4   9  18  34  55  78 105 137 171 210 257 307
#     4  11  22  35  54  80 107 138 177 220 265 316
#     4  10  21  35  52  77 108 138 171 214 261 312
#     4   9  18  33  52  74 102 136 175 220 265 308
#
# _framework density 18.828265999999999
#
# number of rings (size 3 to 8) (size 9 to 14) (size 15 to 20)
#    0.000    2.167    0.000    4.000    0.000    7.500 
#    0.000    0.000    0.000    6.000    0.000    4.667 
#    0.000    4.000    0.000    0.000    0.000    0.000 
#
# Total GULP energy -1190550.619955 kJ/mol
# GULP energy per Si atom -12401.568958 kJ/mol
# Density = 1.878541 g / cm^3
# Si number density = 18.828266 Si / 1000 Ang^3
#
#
#
# Elastic Constant Matrix: (Units=GPa)
#
#
# Indices 1 2 3 4 5 6 
#
# 1 119.0963 66.7228 29.7567 0.0000 0.0000 0.0000
# 2 66.7228 119.0963 29.7567 0.0000 0.0000 0.0000
# 3 29.7567 29.7567 58.1032 0.0000 0.0000 0.0000
# 4 0.0000 0.0000 0.0000 20.7470 0.0000 0.0000
# 5 0.0000 0.0000 0.0000 0.0000 20.7470 0.0000
# 6 0.0000 0.0000 0.0000 0.0000 0.0000 32.6652
#
#
#
# Elastic Compliance Matrix: (Units=1/GPa)
#
#
# Indices 1 2 3 4 5 6 
#
# 1 0.012766 -0.006328 -0.003297 0.000000 0.000000 0.000000
# 2 -0.006328 0.012766 -0.003297 0.000000 0.000000 0.000000
# 3 -0.003297 -0.003297 0.020588 0.000000 0.000000 0.000000
# 4 0.000000 0.000000 0.000000 0.048200 0.000000 0.000000
# 5 0.000000 0.000000 0.000000 0.000000 0.048200 0.000000
# 6 0.000000 0.000000 0.000000 0.000000 0.000000 0.030614
#
#
# Mechanical properties :
#
#
# Convention : Reuss Voigt Hill
#
# Bulk Modulus (GPa) = 49.32149 60.97427 55.14788
# Shear Modulus (GPa) = 24.30324 26.16913 25.23618
#
# Velocity S-wave (km/s) = 3.59665 3.73216 3.66503
# Velocity P-wave (km/s) = 6.59546 7.14330 6.87484
#
# Compressibility (1/GPa) = 0.02027514
#
# Stress axis : x y z
#
# Youngs Moduli (GPa) = 78.33570 78.33570 48.57284
#
# Poissons Ratio (x) = 0.49571 0.16014
# Poissons Ratio (y) = 0.49571 0.16014
# Poissons Ratio (z) = 0.25826 0.25826
#
# Static dielectric constant tensor:
#      x y z
#    x 3.521580 0.000000 0.000000 
#    y 0.000000 3.521580 0.000000 
#    z 0.000000 0.000000 3.251700 
# 
# 
# High freq. dielectric constant tensor:
#      x y z
#    x 1.734480 0.000000 0.000000 
#    y 0.000000 1.734480 0.000000 
#    z 0.000000 0.000000 1.714670 
# 
# From -- ./inp_files/2654.got.cif
#   From: 2010.03.12/outbox.cif.g09.slc.cpg/sg129_2_cif.got.tgz:2654.got - 2010.04.06 17:19:44.
