data_PCOD8315615
_publ_section_title
;
Structure prediction by ZEFSAII (Michael W. Deem and Ramdas Pophale) SiO2 
 PCOD8315615
Probable space group: P 4/N C C
;
_chemical_formula_sum "Si O2"
_cell_formula_units_Z 48
_cell_length_a 9.483219
_cell_length_b 9.483219
_cell_length_c 25.490982
_cell_angle_alpha 90.000000
_cell_angle_beta 90.000000
_cell_angle_gamma 90.000000
_cell_volume 2292.440785
_symmetry_space_group_name_H-M "P 4/N C C"
_symmetry_group_IT_number 130
_symmetry_cell_setting 'tetragonal'
loop_
_space_group_symop_operation_xyz
x,y,z
1/2-y,x,z
1/2-x,1/2-y,z
y,1/2-x,z
1/2+x,-y,1/2-z
-x,1/2+y,1/2-z
1/2+y,1/2+x,1/2-z
-y,-x,1/2-z
-x,-y,-z
1/2+y,-x,-z
1/2+x,1/2+y,-z
-y,1/2+x,-z
1/2-x,y,1/2+z
x,1/2-y,1/2+z
1/2-y,1/2-x,1/2+z
y,x,1/2+z
loop_
_atom_site_type_symbol
_atom_site_label
_atom_site_fract_x
_atom_site_fract_y
_atom_site_fract_z
Si Si1 0.406587 0.426191 0.543930
Si Si2 0.577947 0.095430 0.651180
Si Si3 0.616900 0.115179 0.190999
O O1 0.238356 0.446981 0.539839
O O2 0.500000 0.500000 0.500000
O O3 0.452829 0.506909 0.596767
O O4 0.747061 0.084499 0.654469
O O5 0.531385 0.254235 0.665353
O O6 0.519228 0.984306 0.693502
O O7 0.659274 0.159274 0.250000
#
# Coordination Sequence:
#
# PCOD8315615 Si02
#       3
#    16  16  16
#     4  11  26  46  70  99 131 177 227 280 345 404
#     4  11  23  42  65  97 136 174 226 277 340 403
#     4  11  23  41  67  99 138 182 225 275 340 412
#
# _framework density 20.938383999999999
#
# number of rings (size 3 to 8) (size 9 to 14) (size 15 to 20)
#    0.000    1.000    3.333    4.000    4.667    2.000 
#    0.000    3.333    0.000    0.000    0.000    0.000 
#    0.000    0.000    0.000    0.000    0.000    0.000 
#
# Total GULP energy -594855.929250 kJ/mol
# GULP energy per Si atom -12392.831859 kJ/mol
# Density = 2.089073 g / cm^3
# Si number density = 20.938384 Si / 1000 Ang^3
#
#
#
# Elastic Constant Matrix: (Units=GPa)
#
#
# Indices 1 2 3 4 5 6 
#
# 1 96.1898 98.6216 48.2655 0.0000 0.0000 0.0000
# 2 98.6216 96.1898 48.2655 0.0000 0.0000 0.0000
# 3 48.2655 48.2655 130.4396 0.0000 0.0000 0.0000
# 4 0.0000 0.0000 0.0000 29.0412 0.0000 0.0000
# 5 0.0000 0.0000 0.0000 0.0000 29.0412 0.0000
# 6 0.0000 0.0000 0.0000 0.0000 0.0000 50.7134
#
#
#
# Elastic Compliance Matrix: (Units=1/GPa)
#
#
# Indices 1 2 3 4 5 6 
#
# 1 -0.202468 0.208753 -0.002326 0.000000 0.000000 0.000000
# 2 0.208753 -0.202468 -0.002326 0.000000 0.000000 0.000000
# 3 -0.002326 -0.002326 0.009388 0.000000 0.000000 0.000000
# 4 0.000000 0.000000 0.000000 0.034434 0.000000 0.000000
# 5 0.000000 0.000000 0.000000 0.000000 0.034434 0.000000
# 6 0.000000 0.000000 0.000000 0.000000 0.000000 0.019719
#
#
# Mechanical properties :
#
#
# Convention : Reuss Voigt Hill
#
# Bulk Modulus (GPa) = 79.01657 79.23608 79.12632
# Shear Modulus (GPa) = -7.03288 30.27026 11.61869
#
# Velocity S-wave (km/s) = -1.83470 3.80634 2.35819
# Velocity P-wave (km/s) = 5.77334 7.56586 6.72955
#
# Compressibility (1/GPa) = 0.01265557
#
# Stress axis : x y z
#
# Youngs Moduli (GPa) = -4.93906 -4.93906 106.52351
#
# Poissons Ratio (x) = 1.03105 0.24776
# Poissons Ratio (y) = 1.03105 0.24776
# Poissons Ratio (z) = -0.01149 -0.01149
#
# Static dielectric constant tensor:
#      x y z
#    x 3.844050 0.000000 0.000000 
#    y 0.000000 3.844050 0.000000 
#    z 0.000000 0.000000 3.724390 
# 
# 
# High freq. dielectric constant tensor:
#      x y z
#    x 1.826760 0.000000 0.000000 
#    y 0.000000 1.826760 0.000000 
#    z 0.000000 0.000000 1.821030 
# 
# From -- ./inp_files/4691.got.cif
#   From: 2010.03.12/outbox.cif.g09.slc.cpg/sg130_3_cif.got.tgz:4691.got - 2010.04.06 17:30:23.
