data_PCOD8315392
_publ_section_title
;
Structure prediction by ZEFSAII (Michael W. Deem and Ramdas Pophale) SiO2 
 PCOD8315392
Probable space group: P 4/N M M
;
_chemical_formula_sum "Si O2"
_cell_formula_units_Z 96
_cell_length_a 20.885193
_cell_length_b 20.885193
_cell_length_c 12.261121
_cell_angle_alpha 90.000000
_cell_angle_beta 90.000000
_cell_angle_gamma 90.000000
_cell_volume 5348.194145
_symmetry_space_group_name_H-M "P 4/N M M"
_symmetry_group_IT_number 129
_symmetry_cell_setting 'tetragonal'
loop_
_space_group_symop_operation_xyz
x,y,z
1/2-y,x,z
1/2-x,1/2-y,z
y,1/2-x,z
1/2+x,-y,-z
-x,1/2+y,-z
1/2+y,1/2+x,-z
-y,-x,-z
-x,-y,-z
1/2+y,-x,-z
1/2+x,1/2+y,-z
-y,1/2+x,-z
1/2-x,y,z
x,1/2-y,z
1/2-y,1/2-x,z
y,x,z
loop_
_atom_site_type_symbol
_atom_site_label
_atom_site_fract_x
_atom_site_fract_y
_atom_site_fract_z
Si Si1 0.677405 0.574659 0.605916
Si Si2 0.674093 0.446945 0.232587
Si Si3 0.676717 0.573272 0.855365
Si Si4 0.396450 0.998486 0.969851
Si Si5 0.599194 0.494173 0.442531
Si Si6 0.825552 0.320281 0.120340
O O1 0.750000 0.587798 0.572985
O O2 0.641239 0.641239 0.587074
O O3 0.670312 0.551144 0.730248
O O4 0.649501 0.519890 0.529739
O O5 0.750000 0.455811 0.247786
O O6 0.651211 0.489386 0.131057
O O7 0.637346 0.469674 0.338767
O O8 0.655036 0.372547 0.210871
O O9 0.750000 0.584810 0.889179
O O10 0.639908 0.639908 0.876219
O O11 0.646127 0.516334 0.925401
O O12 0.445100 0.054901 0.938061
O O13 0.434466 0.934466 0.000000
O O14 0.564632 0.435369 0.500000
O O15 0.548218 0.548218 0.406237
O O16 0.750000 0.312686 0.116846
O O17 0.856155 0.250000 0.147445
O O18 0.846038 0.346038 0.000000
#
# Coordination Sequence:
#
# PCOD8315392 Si02
#       6
#    16  16  16  16  16  16
#     4   9  18  34  56  81 109 140 176 221 271 323
#     4  11  21  34  55  80 105 133 174 221 267 318
#     4   9  18  33  54  81 112 143 176 219 270 323
#     4  10  21  34  52  78 111 146 181 219 260 310
#     4  10  22  38  56  74 101 141 182 222 267 318
#     4   8  15  30  50  72 101 133 164 202 252 308
#
# _framework density 17.949984000000001
#
# number of rings (size 3 to 8) (size 9 to 14) (size 15 to 20)
#    0.000    2.500    0.000    2.500    2.333    0.333 
#    0.000    4.167    0.000    0.000    0.000    0.000 
#    0.000   12.000    0.000    0.000    0.000    0.000 
#
# Total GULP energy -1190284.471643 kJ/mol
# GULP energy per Si atom -12398.796580 kJ/mol
# Density = 1.790913 g / cm^3
# Si number density = 17.949984 Si / 1000 Ang^3
#
#
#
# Elastic Constant Matrix: (Units=GPa)
#
#
# Indices 1 2 3 4 5 6 
#
# 1 116.1153 63.2787 81.0200 0.0000 0.0000 0.0000
# 2 63.2787 116.1149 81.0212 0.0000 0.0000 0.0000
# 3 81.0200 81.0212 122.7240 0.0000 0.0000 0.0000
# 4 0.0000 0.0000 0.0000 31.3750 0.0000 0.0000
# 5 0.0000 0.0000 0.0000 0.0000 31.3753 0.0000
# 6 0.0000 0.0000 0.0000 0.0000 0.0000 20.6641
#
#
#
# Elastic Compliance Matrix: (Units=1/GPa)
#
#
# Indices 1 2 3 4 5 6 
#
# 1 0.016367 -0.002559 -0.009116 0.000000 0.000000 0.000000
# 2 -0.002559 0.016368 -0.009117 0.000000 0.000000 0.000000
# 3 -0.009116 -0.009117 0.020186 0.000000 0.000000 0.000000
# 4 0.000000 0.000000 0.000000 0.031873 0.000000 0.000000
# 5 0.000000 0.000000 0.000000 0.000000 0.031872 0.000000
# 6 0.000000 0.000000 0.000000 0.000000 0.000000 0.048393
#
#
# Mechanical properties :
#
#
# Convention : Reuss Voigt Hill
#
# Bulk Modulus (GPa) = 88.20268 89.51044 88.85656
# Shear Modulus (GPa) = 23.76189 25.32518 24.54353
#
# Velocity S-wave (km/s) = 3.64233 3.76024 3.70175
# Velocity P-wave (km/s) = 8.18129 8.29622 8.23896
#
# Compressibility (1/GPa) = 0.01133752
#
# Stress axis : x y z
#
# Youngs Moduli (GPa) = 61.09707 61.09504 49.54050
#
# Poissons Ratio (x) = 0.15632 0.45162
# Poissons Ratio (y) = 0.15633 0.45165
# Poissons Ratio (z) = 0.55697 0.55699
#
# Static dielectric constant tensor:
#      x y z
#    x 3.425290 0.000000 0.000000 
#    y 0.000000 3.425290 0.000000 
#    z 0.000000 0.000000 3.287670 
# 
# 
# High freq. dielectric constant tensor:
#      x y z
#    x 1.699090 0.000000 0.000000 
#    y 0.000000 1.699090 0.000000 
#    z 0.000000 0.000000 1.686470 
# 
# From -- ./inp_files/3809.got.cif
#   From: 2010.03.12/outbox.cif.g09.slc.cpg/sg129_2_cif.got.tgz:3809.got - 2010.04.06 17:19:44.
