data_PCOD8315946
_publ_section_title
;
Structure prediction by ZEFSAII (Michael W. Deem and Ramdas Pophale) SiO2 
 PCOD8315946
Probable space group: P 42/M M C
;
_chemical_formula_sum "Si O2"
_cell_formula_units_Z 80
_cell_length_a 14.562233
_cell_length_b 14.562233
_cell_length_c 18.314292
_cell_angle_alpha 90.000000
_cell_angle_beta 90.000000
_cell_angle_gamma 90.000000
_cell_volume 3883.703670
_symmetry_space_group_name_H-M "P 42/M M C"
_symmetry_group_IT_number 131
_symmetry_cell_setting 'tetragonal'
loop_
_space_group_symop_operation_xyz
x,y,z
-x,-y,z
-y,x,1/2+z
y,-x,1/2+z
-x,y,-z
x,-y,-z
y,x,1/2-z
-y,-x,1/2-z
-x,-y,-z
x,y,-z
y,-x,1/2-z
-y,x,1/2-z
x,-y,z
-x,y,z
-y,-x,1/2+z
y,x,1/2+z
loop_
_atom_site_type_symbol
_atom_site_label
_atom_site_fract_x
_atom_site_fract_y
_atom_site_fract_z
Si Si1 0.286122 0.107764 0.155040
Si Si2 0.600494 0.745459 0.084884
Si Si3 0.898516 0.891097 0.917508
Si Si4 0.604841 0.105568 0.703056
Si Si5 0.251729 0.605109 0.916316
O O1 0.354145 0.155662 0.098055
O O2 0.181130 0.141899 0.138815
O O3 0.320809 0.135180 0.235785
O O4 0.295725 0.000000 0.141355
O O5 0.500000 0.739940 0.122517
O O6 0.665330 0.665262 0.116872
O O7 0.588734 0.729364 0.000000
O O8 0.000000 0.854951 0.892180
O O9 0.900792 0.000000 0.918032
O O10 0.877016 0.856048 0.000000
O O11 0.500000 0.124177 0.730361
O O12 0.626881 0.160990 0.629803
O O13 0.617757 0.000000 0.682211
O O14 0.282419 0.500000 0.909268
O O15 0.229269 0.631456 0.000000
#
# Coordination Sequence:
#
# PCOD8315946 Si02
#       5
#    16  16  16  16  16
#     4  10  19  32  52  79 114 151 182 218 270 326
#     4  10  21  35  53  81 112 140 175 218 264 323
#     4   8  14  26  46  73 106 146 190 230 265 305
#     4   9  18  33  55  83 111 141 181 228 277 329
#     4   9  19  37  59  80 104 138 179 225 280 334
#
# _framework density 20.598893
#
# number of rings (size 3 to 8) (size 9 to 14) (size 15 to 20)
#    0.000    2.800    0.000    1.800    0.000    4.000 
#    0.000    6.000    0.000    2.400    0.000    2.800 
#    0.000    0.000    0.000    7.800    0.000    0.200 
#
# Total GULP energy -991573.272270 kJ/mol
# GULP energy per Si atom -12394.665903 kJ/mol
# Density = 2.055201 g / cm^3
# Si number density = 20.598893 Si / 1000 Ang^3
#
#
#
# Elastic Constant Matrix: (Units=GPa)
#
#
# Indices 1 2 3 4 5 6 
#
# 1 120.0449 60.3785 58.6302 0.0000 0.0000 0.0000
# 2 60.3785 120.0449 58.6302 0.0000 0.0000 0.0000
# 3 58.6302 58.6302 75.9346 0.0000 0.0000 0.0000
# 4 0.0000 0.0000 0.0000 26.9667 0.0000 0.0000
# 5 0.0000 0.0000 0.0000 0.0000 26.9667 0.0000
# 6 0.0000 0.0000 0.0000 0.0000 0.0000 28.8331
#
#
#
# Elastic Compliance Matrix: (Units=1/GPa)
#
#
# Indices 1 2 3 4 5 6 
#
# 1 0.013943 -0.002817 -0.008590 0.000000 0.000000 0.000000
# 2 -0.002817 0.013943 -0.008590 0.000000 0.000000 0.000000
# 3 -0.008590 -0.008590 0.026434 0.000000 0.000000 0.000000
# 4 0.000000 0.000000 0.000000 0.037083 0.000000 0.000000
# 5 0.000000 0.000000 0.000000 0.000000 0.037083 0.000000
# 6 0.000000 0.000000 0.000000 0.000000 0.000000 0.034682
#
#
# Mechanical properties :
#
#
# Convention : Reuss Voigt Hill
#
# Bulk Modulus (GPa) = 69.80924 74.58911 72.19918
# Shear Modulus (GPa) = 24.04577 25.77902 24.91240
#
# Velocity S-wave (km/s) = 3.42033 3.54146 3.48142
# Velocity P-wave (km/s) = 7.04000 7.28089 7.16146
#
# Compressibility (1/GPa) = 0.01432475
#
# Stress axis : x y z
#
# Youngs Moduli (GPa) = 71.72271 71.72271 37.82976
#
# Poissons Ratio (x) = 0.20206 0.32496
# Poissons Ratio (y) = 0.20206 0.32496
# Poissons Ratio (z) = 0.61610 0.61610
#
# Static dielectric constant tensor:
#      x y z
#    x 4.012220 0.000000 0.000000 
#    y 0.000000 4.012220 0.000000 
#    z 0.000000 0.000000 3.549460 
# 
# 
# High freq. dielectric constant tensor:
#      x y z
#    x 1.805910 0.000000 0.000000 
#    y 0.000000 1.805910 0.000000 
#    z 0.000000 0.000000 1.783040 
# 
# From -- ./inp_files/9445.got.cif
#   From: 2010.03.12/outbox.cif.g09.slc.cpg/sg131_5_cif.got.tgz:9445.got - 2010.04.06 17:36:35.
