data_PCOD8315417
_publ_section_title
;
Structure prediction by ZEFSAII (Michael W. Deem and Ramdas Pophale) SiO2 
 PCOD8315417
Probable space group: P 4/N M M
;
_chemical_formula_sum "Si O2"
_cell_formula_units_Z 96
_cell_length_a 25.591730
_cell_length_b 25.591730
_cell_length_c 9.422697
_cell_angle_alpha 90.000000
_cell_angle_beta 90.000000
_cell_angle_gamma 90.000000
_cell_volume 6171.269554
_symmetry_space_group_name_H-M "P 4/N M M"
_symmetry_group_IT_number 129
_symmetry_cell_setting 'tetragonal'
loop_
_space_group_symop_operation_xyz
x,y,z
1/2-y,x,z
1/2-x,1/2-y,z
y,1/2-x,z
1/2+x,-y,-z
-x,1/2+y,-z
1/2+y,1/2+x,-z
-y,-x,-z
-x,-y,-z
1/2+y,-x,-z
1/2+x,1/2+y,-z
-y,1/2+x,-z
1/2-x,y,z
x,1/2-y,z
1/2-y,1/2-x,z
y,x,z
loop_
_atom_site_type_symbol
_atom_site_label
_atom_site_fract_x
_atom_site_fract_y
_atom_site_fract_z
Si Si1 0.688827 0.026377 0.781396
Si Si2 0.905456 0.990953 0.623764
Si Si3 0.692233 0.344987 0.143041
Si Si4 0.924867 0.009869 0.308202
Si Si5 0.556061 0.369190 0.937258
Si Si6 0.192330 0.632040 0.388701
O O1 0.750000 0.008928 0.780228
O O2 0.679911 0.077914 0.688073
O O3 0.650047 0.984601 0.706352
O O4 0.670798 0.034567 0.944086
O O5 0.937439 0.937439 0.646131
O O6 0.895294 0.001182 0.457251
O O7 0.938173 0.039478 0.687122
O O8 0.750000 0.366202 0.164605
O O9 0.655144 0.394940 0.144001
O O10 0.676738 0.306527 0.269785
O O11 0.688040 0.311961 0.000000
O O12 0.881737 0.013102 0.183101
O O13 0.960224 0.960224 0.273923
O O14 0.575154 0.424847 0.000000
O O15 0.146554 0.646554 0.500000
O O16 0.250000 0.630709 0.460725
#
# Coordination Sequence:
#
# PCOD8315417 Si02
#       6
#    16  16  16  16  16  16
#     4  11  22  35  49  69  97 127 162 200 242 291
#     4   9  18  33  52  74  98 122 155 200 245 292
#     4  11  21  33  46  59  78 113 159 205 250 281
#     4   9  18  31  51  76  97 120 155 198 244 293
#     4  11  19  31  46  64  92 122 153 197 236 288
#     4  11  23  35  45  60  83 114 158 210 253 289
#
# _framework density 15.555956
#
# number of rings (size 3 to 8) (size 9 to 14) (size 15 to 20)
#    0.000    1.667    5.000    2.500    4.667    3.000 
#    0.000    0.833    0.000    0.000    0.000    0.000 
#    0.000    0.333    0.000    0.000    0.000    4.167 
#
# Total GULP energy -1189923.516663 kJ/mol
# GULP energy per Si atom -12395.036632 kJ/mol
# Density = 1.552055 g / cm^3
# Si number density = 15.555956 Si / 1000 Ang^3
#
#
#
# Elastic Constant Matrix: (Units=GPa)
#
#
# Indices 1 2 3 4 5 6 
#
# 1 62.9379 30.0299 36.5239 0.0000 0.0000 0.0000
# 2 30.0299 62.9385 36.5254 0.0000 0.0000 0.0000
# 3 36.5239 36.5254 74.9635 0.0000 0.0000 0.0000
# 4 0.0000 0.0000 0.0000 -10.6088 0.0000 0.0000
# 5 0.0000 0.0000 0.0000 0.0000 -10.5505 0.0000
# 6 0.0000 0.0000 0.0000 0.0000 0.0000 14.4458
#
#
#
# Elastic Compliance Matrix: (Units=1/GPa)
#
#
# Indices 1 2 3 4 5 6 
#
# 1 0.023908 -0.006479 -0.008492 0.000000 0.000000 0.000000
# 2 -0.006479 0.023908 -0.008492 0.000000 0.000000 0.000000
# 3 -0.008492 -0.008492 0.021615 0.000000 0.000000 0.000000
# 4 0.000000 0.000000 0.000000 -0.094262 0.000000 0.000000
# 5 0.000000 0.000000 0.000000 0.000000 -0.094782 0.000000
# 6 0.000000 0.000000 0.000000 0.000000 0.000000 0.069224
#
#
# Mechanical properties :
#
#
# Convention : Reuss Voigt Hill
#
# Bulk Modulus (GPa) = 44.43460 45.22204 44.82832
# Shear Modulus (GPa) = 1237.67126 5.17467 621.42297
#
# Velocity S-wave (km/s) = 28.23743 1.82585 20.00858
# Velocity P-wave (km/s) = 33.04184 5.79471 23.72068
#
# Compressibility (1/GPa) = 0.02250498
#
# Stress axis : x y z
#
# Youngs Moduli (GPa) = 41.82704 41.82625 46.26437
#
# Poissons Ratio (x) = 0.27101 0.39285
# Poissons Ratio (y) = 0.27101 0.39289
# Poissons Ratio (z) = 0.35517 0.35520
#
# Static dielectric constant tensor:
#      x y z
#    x 2.776580 0.000000 0.000000 
#    y 0.000000 2.776820 0.000000 
#    z 0.000000 0.000000 3.708150 
# 
# 
# High freq. dielectric constant tensor:
#      x y z
#    x 1.562920 0.000000 0.000000 
#    y 0.000000 1.562920 0.000000 
#    z 0.000000 0.000000 1.613470 
# 
# From -- ./inp_files/2760.got.cif
#   From: 2010.03.12/outbox.cif.g09.slc.cpg/sg129_2_cif.got.tgz:2760.got - 2010.04.06 17:19:44.
