data_PCOD8315339
_publ_section_title
;
Structure prediction by ZEFSAII (Michael W. Deem and Ramdas Pophale) SiO2 
 PCOD8315339
Probable space group: P 4/N M M
;
_chemical_formula_sum "Si O2"
_cell_formula_units_Z 96
_cell_length_a 23.299052
_cell_length_b 23.299052
_cell_length_c 9.880584
_cell_angle_alpha 90.000000
_cell_angle_beta 90.000000
_cell_angle_gamma 90.000000
_cell_volume 5363.633764
_symmetry_space_group_name_H-M "P 4/N M M"
_symmetry_group_IT_number 129
_symmetry_cell_setting 'tetragonal'
loop_
_space_group_symop_operation_xyz
x,y,z
1/2-y,x,z
1/2-x,1/2-y,z
y,1/2-x,z
1/2+x,-y,-z
-x,1/2+y,-z
1/2+y,1/2+x,-z
-y,-x,-z
-x,-y,-z
1/2+y,-x,-z
1/2+x,1/2+y,-z
-y,1/2+x,-z
1/2-x,y,z
x,1/2-y,z
1/2-y,1/2-x,z
y,x,z
loop_
_atom_site_type_symbol
_atom_site_label
_atom_site_fract_x
_atom_site_fract_y
_atom_site_fract_z
Si Si1 0.026224 0.118908 0.760761
Si Si2 0.624978 0.315208 0.118225
Si Si3 0.091949 0.183975 0.539904
Si Si4 0.370952 0.466745 0.298366
Si Si5 0.184397 0.495507 0.029681
Si Si6 0.097102 0.900424 0.655987
O O1 0.056380 0.056380 0.759182
O O2 0.064420 0.164444 0.680469
O O3 0.964470 0.115702 0.692122
O O4 0.022533 0.141172 0.912704
O O5 0.635455 0.250000 0.165937
O O6 0.562641 0.323277 0.054389
O O7 0.632137 0.355655 0.250013
O O8 0.669798 0.330203 0.000000
O O9 0.107610 0.250000 0.548441
O O10 0.150839 0.150839 0.509995
O O11 0.046802 0.172031 0.420544
O O12 0.424753 0.424753 0.297193
O O13 0.334318 0.460264 0.161915
O O14 0.395626 0.529874 0.317696
O O15 0.250000 0.480229 0.992612
O O16 0.112568 0.887433 0.500000
#
# Coordination Sequence:
#
# PCOD8315339 Si02
#       6
#    16  16  16  16  16  16
#     4  11  21  34  56  82 113 147 183 228 282 339
#     4  10  21  39  59  81 107 142 185 227 271 325
#     4  10  21  36  54  79 109 147 191 231 278 332
#     4  10  20  33  54  81 112 147 183 224 277 338
#     4  10  20  35  54  78 111 144 182 228 274 323
#     4  11  21  37  55  85 120 148 180 222 281 338
#
# _framework density 17.898313999999999
#
# number of rings (size 3 to 8) (size 9 to 14) (size 15 to 20)
#    0.000    1.667    3.333    2.000    0.000    1.667 
#    0.000    3.333    0.000    0.000    0.000    0.000 
#    0.000   12.000    0.000    0.000    0.000    0.000 
#
# Total GULP energy -1190689.512590 kJ/mol
# GULP energy per Si atom -12403.015756 kJ/mol
# Density = 1.785758 g / cm^3
# Si number density = 17.898314 Si / 1000 Ang^3
#
#
#
# Elastic Constant Matrix: (Units=GPa)
#
#
# Indices 1 2 3 4 5 6 
#
# 1 77.5384 21.2109 25.3449 0.0000 0.0000 0.0000
# 2 21.2109 77.5391 25.3460 0.0000 0.0000 0.0000
# 3 25.3449 25.3460 111.3934 0.0000 0.0000 0.0000
# 4 0.0000 0.0000 0.0000 21.9525 0.0000 0.0000
# 5 0.0000 0.0000 0.0000 0.0000 21.9525 0.0000
# 6 0.0000 0.0000 0.0000 0.0000 0.0000 12.1586
#
#
#
# Elastic Compliance Matrix: (Units=1/GPa)
#
#
# Indices 1 2 3 4 5 6 
#
# 1 0.014610 -0.003144 -0.002609 0.000000 0.000000 0.000000
# 2 -0.003144 0.014609 -0.002609 0.000000 0.000000 0.000000
# 3 -0.002609 -0.002609 0.010164 0.000000 0.000000 0.000000
# 4 0.000000 0.000000 0.000000 0.045553 0.000000 0.000000
# 5 0.000000 0.000000 0.000000 0.000000 0.045553 0.000000
# 6 0.000000 0.000000 0.000000 0.000000 0.000000 0.082246
#
#
# Mechanical properties :
#
#
# Convention : Reuss Voigt Hill
#
# Bulk Modulus (GPa) = 44.12932 45.58606 44.85769
# Shear Modulus (GPa) = 21.09602 24.18400 22.64001
#
# Velocity S-wave (km/s) = 3.43689 3.67984 3.56044
# Velocity P-wave (km/s) = 6.36071 6.60149 6.48222
#
# Compressibility (1/GPa) = 0.02266067
#
# Stress axis : x y z
#
# Youngs Moduli (GPa) = 68.44845 68.44866 98.38293
#
# Poissons Ratio (x) = 0.21518 0.25666
# Poissons Ratio (y) = 0.21518 0.25667
# Poissons Ratio (z) = 0.17856 0.17858
#
# Static dielectric constant tensor:
#      x y z
#    x 3.238820 0.000000 0.000000 
#    y 0.000000 3.238820 0.000000 
#    z 0.000000 0.000000 3.506760 
# 
# 
# High freq. dielectric constant tensor:
#      x y z
#    x 1.685650 0.000000 0.000000 
#    y 0.000000 1.685650 0.000000 
#    z 0.000000 0.000000 1.706400 
# 
# From -- ./inp_files/2597.got.cif
#   From: 2010.03.12/outbox.cif.g09.slc.cpg/sg129_2_cif.got.tgz:2597.got - 2010.04.06 17:19:44.
