data_PCOD8315662
_publ_section_title
;
Structure prediction by ZEFSAII (Michael W. Deem and Ramdas Pophale) SiO2 
 PCOD8315662
Probable space group: P 42/M M C
;
_chemical_formula_sum "Si O2"
_cell_formula_units_Z 80
_cell_length_a 17.729424
_cell_length_b 17.729424
_cell_length_c 17.812178
_cell_angle_alpha 90.000000
_cell_angle_beta 90.000000
_cell_angle_gamma 90.000000
_cell_volume 5598.946003
_symmetry_space_group_name_H-M "P 42/M M C"
_symmetry_group_IT_number 131
_symmetry_cell_setting 'tetragonal'
loop_
_space_group_symop_operation_xyz
x,y,z
-x,-y,z
-y,x,1/2+z
y,-x,1/2+z
-x,y,-z
x,-y,-z
y,x,1/2-z
-y,-x,1/2-z
-x,-y,-z
x,y,-z
y,-x,1/2-z
-y,x,1/2-z
x,-y,z
-x,y,z
-y,-x,1/2+z
y,x,1/2+z
loop_
_atom_site_type_symbol
_atom_site_label
_atom_site_fract_x
_atom_site_fract_y
_atom_site_fract_z
Si Si1 0.087362 0.295254 0.586280
Si Si2 0.910790 0.417486 0.000000
Si Si3 0.672226 0.910234 0.354973
Si Si4 0.917356 0.000000 0.588828
Si Si5 0.856252 0.176155 0.911445
Si Si6 0.584692 0.910768 0.793223
O O1 0.099263 0.317889 0.500000
O O2 0.135672 0.222102 0.607787
O O3 0.115430 0.366453 0.635041
O O4 0.000000 0.276062 0.602953
O O5 0.883391 0.375964 0.074247
O O6 0.873825 0.500000 0.000000
O O7 0.000000 0.423518 0.000000
O O8 0.749425 0.863478 0.360821
O O9 0.627447 0.883496 0.281452
O O10 0.688370 0.000000 0.355808
O O11 0.876302 0.924506 0.615705
O O12 0.923426 0.000000 0.500000
O O13 0.000000 0.000000 0.625578
O O14 0.863223 0.195324 0.000000
O O15 0.500000 0.875833 0.797433
O O16 0.577527 0.000000 0.791522
#
# Coordination Sequence:
#
# PCOD8315662 Si02
#       6
#    16   8  16   8  16  16
#     4   9  18  31  45  61  81 108 146 190 226 256
#     4   9  16  24  38  58  82 110 141 176 209 251
#     4  10  17  26  41  61  84 112 142 176 216 260
#     4   9  16  24  38  58  82 116 155 192 219 243
#     4  10  17  26  41  61  86 114 149 184 215 253
#     4   9  18  31  45  61  79 101 136 184 230 269
#
# _framework density 14.288403000000001
#
# number of rings (size 3 to 8) (size 9 to 14) (size 15 to 20)
#    0.000    2.600    2.000    1.200    0.000    6.000 
#    0.000    2.000    0.000    0.000    0.000    0.000 
#    0.000    0.000    0.000    0.000    0.000   18.000 
#
# Total GULP energy -991751.157802 kJ/mol
# GULP energy per Si atom -12396.889473 kJ/mol
# Density = 1.425588 g / cm^3
# Si number density = 14.288403 Si / 1000 Ang^3
#
#
#
# Elastic Constant Matrix: (Units=GPa)
#
#
# Indices 1 2 3 4 5 6 
#
# 1 98.6772 42.8333 47.8448 0.0000 0.0000 0.0000
# 2 42.8333 98.6772 47.8448 0.0000 0.0000 0.0000
# 3 47.8448 47.8448 86.5447 0.0000 0.0000 0.0000
# 4 0.0000 0.0000 0.0000 14.1991 0.0000 0.0000
# 5 0.0000 0.0000 0.0000 0.0000 14.1991 0.0000
# 6 0.0000 0.0000 0.0000 0.0000 0.0000 7.6037
#
#
#
# Elastic Compliance Matrix: (Units=1/GPa)
#
#
# Indices 1 2 3 4 5 6 
#
# 1 0.014596 -0.003311 -0.006239 0.000000 0.000000 0.000000
# 2 -0.003311 0.014596 -0.006239 0.000000 0.000000 0.000000
# 3 -0.006239 -0.006239 0.018453 0.000000 0.000000 0.000000
# 4 0.000000 0.000000 0.000000 0.070427 0.000000 0.000000
# 5 0.000000 0.000000 0.000000 0.000000 0.070427 0.000000
# 6 0.000000 0.000000 0.000000 0.000000 0.000000 0.131514
#
#
# Mechanical properties :
#
#
# Convention : Reuss Voigt Hill
#
# Bulk Modulus (GPa) = 62.23580 62.32725 62.28152
# Shear Modulus (GPa) = 14.00766 16.89211 15.44988
#
# Velocity S-wave (km/s) = 3.13445 3.44208 3.29186
# Velocity P-wave (km/s) = 7.53334 7.71445 7.62443
#
# Compressibility (1/GPa) = 0.01606792
#
# Stress axis : x y z
#
# Youngs Moduli (GPa) = 68.51085 68.51085 54.19194
#
# Poissons Ratio (x) = 0.22683 0.33810
# Poissons Ratio (y) = 0.22683 0.33810
# Poissons Ratio (z) = 0.42744 0.42744
#
# Static dielectric constant tensor:
#      x y z
#    x 2.704290 0.000000 0.000000 
#    y 0.000000 2.704290 0.000000 
#    z 0.000000 0.000000 2.791340 
# 
# 
# High freq. dielectric constant tensor:
#      x y z
#    x 1.518590 0.000000 0.000000 
#    y 0.000000 1.518590 0.000000 
#    z 0.000000 0.000000 1.545810 
# 
# From -- ./inp_files/7857.got.cif
#   From: 2010.03.12/outbox.cif.g09.slc.cpg/sg131_4_cif.got.tgz:7857.got - 2010.04.06 17:36:35.
