data_PCOD8315212
_publ_section_title
;
Structure prediction by ZEFSAII (Michael W. Deem and Ramdas Pophale) SiO2 
 PCOD8315212
Probable space group: P 4/N M M
;
_chemical_formula_sum "Si O2"
_cell_formula_units_Z 104
_cell_length_a 19.118342
_cell_length_b 19.118342
_cell_length_c 18.335922
_cell_angle_alpha 90.000000
_cell_angle_beta 90.000000
_cell_angle_gamma 90.000000
_cell_volume 6701.981201
_symmetry_space_group_name_H-M "P 4/N M M"
_symmetry_group_IT_number 129
_symmetry_cell_setting 'tetragonal'
loop_
_space_group_symop_operation_xyz
x,y,z
1/2-y,x,z
1/2-x,1/2-y,z
y,1/2-x,z
1/2+x,-y,-z
-x,1/2+y,-z
1/2+y,1/2+x,-z
-y,-x,-z
-x,-y,-z
1/2+y,-x,-z
1/2+x,1/2+y,-z
-y,1/2+x,-z
1/2-x,y,z
x,1/2-y,z
1/2-y,1/2-x,z
y,x,z
loop_
_atom_site_type_symbol
_atom_site_label
_atom_site_fract_x
_atom_site_fract_y
_atom_site_fract_z
Si Si1 0.947044 0.831096 0.698473
Si Si2 0.671482 0.939213 0.857247
Si Si3 0.331772 0.668229 0.500000
Si Si4 0.053590 0.331030 0.983608
Si Si5 0.830502 0.167589 0.787102
Si Si6 0.094829 0.668307 0.066951
Si Si7 0.332225 0.906460 0.356248
O O1 0.923557 0.750000 0.688650
O O2 0.881295 0.881295 0.681216
O O3 0.979601 0.843191 0.780797
O O4 0.010784 0.849690 0.644429
O O5 0.750000 0.915703 0.861048
O O6 0.634189 0.865812 0.852168
O O7 0.652010 0.976620 0.934003
O O8 0.250000 0.653634 0.512269
O O9 0.372800 0.637395 0.569933
O O10 0.078004 0.250000 0.976805
O O11 0.118712 0.381289 0.963334
O O12 0.988613 0.346067 0.930282
O O13 0.750000 0.145331 0.799592
O O14 0.837935 0.250000 0.776627
O O15 0.873412 0.140635 0.857197
O O16 0.863416 0.131760 0.715145
O O17 0.111021 0.750000 0.056300
O O18 0.128812 0.628812 0.000000
O O19 0.250000 0.892491 0.354867
#
# Coordination Sequence:
#
# PCOD8315212 Si02
#       7
#    16  16   8  16  16  16  16
#     4   9  17  28  42  61  85 113 144 176 211 251
#     4   8  14  24  38  55  76 103 135 173 214 254
#     4   9  16  28  47  70  92 112 137 170 208 251
#     4   9  18  31  45  62  83 109 145 187 230 270
#     4   9  17  29  44  62  84 113 148 180 211 250
#     4  10  20  30  42  60  85 116 149 183 216 252
#     4   9  17  28  45  66  88 113 141 174 211 251
#
# _framework density 15.517799999999999
#
# number of rings (size 3 to 8) (size 9 to 14) (size 15 to 20)
#    0.000    3.000    0.000    0.923    2.154    3.385 
#    0.000    4.231    0.000    0.000    0.000    0.000 
#    0.000    0.000    0.000    0.000    0.000   20.308 
#
# Total GULP energy -1288441.334827 kJ/mol
# GULP energy per Si atom -12388.858989 kJ/mol
# Density = 1.548248 g / cm^3
# Si number density = 15.517800 Si / 1000 Ang^3
#
#
#
# Elastic Constant Matrix: (Units=GPa)
#
#
# Indices 1 2 3 4 5 6 
#
# 1 57.8154 38.8200 49.9468 0.0000 0.0000 0.0000
# 2 38.8200 57.8160 49.9468 0.0000 0.0000 0.0000
# 3 49.9468 49.9468 110.0974 0.0000 0.0000 0.0000
# 4 0.0000 0.0000 0.0000 14.9014 0.0000 0.0000
# 5 0.0000 0.0000 0.0000 0.0000 14.9014 0.0000
# 6 0.0000 0.0000 0.0000 0.0000 0.0000 16.2664
#
#
#
# Elastic Compliance Matrix: (Units=1/GPa)
#
#
# Indices 1 2 3 4 5 6 
#
# 1 0.036065 -0.016579 -0.008840 0.000000 0.000000 0.000000
# 2 -0.016579 0.036065 -0.008840 0.000000 0.000000 0.000000
# 3 -0.008840 -0.008840 0.017104 0.000000 0.000000 0.000000
# 4 0.000000 0.000000 0.000000 0.067108 0.000000 0.000000
# 5 0.000000 0.000000 0.000000 0.000000 0.067108 0.000000
# 6 0.000000 0.000000 0.000000 0.000000 0.000000 0.061476
#
#
# Mechanical properties :
#
#
# Convention : Reuss Voigt Hill
#
# Bulk Modulus (GPa) = 48.27253 55.90625 52.08939
# Shear Modulus (GPa) = 13.87547 15.01488 14.44517
#
# Velocity S-wave (km/s) = 2.99350 3.11399 3.05434
# Velocity P-wave (km/s) = 6.56685 7.00247 6.78815
#
# Compressibility (1/GPa) = 0.02071571
#
# Stress axis : x y z
#
# Youngs Moduli (GPa) = 27.72755 27.72804 58.46674
#
# Poissons Ratio (x) = 0.45969 0.51687
# Poissons Ratio (y) = 0.45968 0.51685
# Poissons Ratio (z) = 0.24512 0.24512
#
# Static dielectric constant tensor:
#      x y z
#    x 2.811410 0.000000 0.000000 
#    y 0.000000 2.811400 0.000000 
#    z 0.000000 0.000000 3.140380 
# 
# 
# High freq. dielectric constant tensor:
#      x y z
#    x 1.578040 0.000000 0.000000 
#    y 0.000000 1.578040 0.000000 
#    z 0.000000 0.000000 1.582900 
# 
# From -- ./inp_files/5073.got.cif
#   From: 2010.03.12/outbox.cif.g09.slc.cpg/sg129_3_cif.got.tgz:5073.got - 2010.04.06 17:19:44.
