data_PCOD8315087
_publ_section_title
;
Structure prediction by ZEFSAII (Michael W. Deem and Ramdas Pophale) SiO2 
 PCOD8315087
Probable space group: P 4/N M M
;
_chemical_formula_sum "Si O2"
_cell_formula_units_Z 128
_cell_length_a 17.602561
_cell_length_b 17.602561
_cell_length_c 27.077722
_cell_angle_alpha 90.000000
_cell_angle_beta 90.000000
_cell_angle_gamma 90.000000
_cell_volume 8390.036325
_symmetry_space_group_name_H-M "P 4/N M M"
_symmetry_group_IT_number 129
_symmetry_cell_setting 'tetragonal'
loop_
_space_group_symop_operation_xyz
x,y,z
1/2-y,x,z
1/2-x,1/2-y,z
y,1/2-x,z
1/2+x,-y,-z
-x,1/2+y,-z
1/2+y,1/2+x,-z
-y,-x,-z
-x,-y,-z
1/2+y,-x,-z
1/2+x,1/2+y,-z
-y,1/2+x,-z
1/2-x,y,z
x,1/2-y,z
1/2-y,1/2-x,z
y,x,z
loop_
_atom_site_type_symbol
_atom_site_label
_atom_site_fract_x
_atom_site_fract_y
_atom_site_fract_z
Si Si1 0.042574 0.336703 0.299623
Si Si2 0.957260 0.663423 0.302156
Si Si3 0.542525 0.335927 0.598780
Si Si4 0.339952 0.833497 0.051651
Si Si5 0.838719 0.340828 0.840057
Si Si6 0.338615 0.460000 0.499566
Si Si7 0.436959 0.938956 0.765286
Si Si8 0.458993 0.836108 0.600283
O O1 0.050702 0.250000 0.282944
O O2 0.123486 0.376515 0.291542
O O3 0.978817 0.375019 0.266190
O O4 0.021139 0.344626 0.356982
O O5 0.949507 0.750000 0.284937
O O6 0.876329 0.623671 0.293918
O O7 0.978263 0.656372 0.359664
O O8 0.021625 0.624185 0.269677
O O9 0.572359 0.250000 0.594922
O O10 0.508819 0.363475 0.546847
O O11 0.614079 0.386332 0.613579
O O12 0.250000 0.827781 0.044574
O O13 0.375902 0.750000 0.056279
O O14 0.356997 0.872647 0.104353
O O15 0.372060 0.872060 0.000000
O O16 0.750000 0.356564 0.826687
O O17 0.854031 0.250000 0.834770
O O18 0.896434 0.390301 0.807802
O O19 0.250000 0.441887 0.499718
O O20 0.379312 0.379312 0.500974
O O21 0.364059 0.505050 0.450890
O O22 0.498268 0.001733 0.785356
O O23 0.430068 0.750000 0.595792
#
# Coordination Sequence:
#
# PCOD8315087 Si02
#       8
#    16  16  16  16  16  16  16  16
#     4  10  20  33  49  67  88 115 146 181 220 262
#     4  10  20  33  49  67  88 115 146 181 220 262
#     4  10  20  34  50  69  91 113 141 174 212 262
#     4   7  10  18  34  58  87 116 144 176 217 259
#     4   9  16  26  43  67  92 115 145 188 225 256
#     4  10  21  34  50  70  88 110 139 174 216 262
#     4  10  19  31  46  62  88 121 150 181 219 263
#     4  10  20  34  50  69  91 113 141 174 212 262
#
# _framework density 15.256192
#
# number of rings (size 3 to 8) (size 9 to 14) (size 15 to 20)
#    0.000    2.500    1.250    3.000    0.000    2.625 
#    0.000    0.000    0.000    7.125    0.000    0.000 
#    0.000    0.000    0.000    0.000    0.000    0.000 
#
# Total GULP energy -1586211.952361 kJ/mol
# GULP energy per Si atom -12392.280878 kJ/mol
# Density = 1.522147 g / cm^3
# Si number density = 15.256192 Si / 1000 Ang^3
#
#
#
# Elastic Constant Matrix: (Units=GPa)
#
#
# Indices 1 2 3 4 5 6 
#
# 1 86.3999 54.8593 35.8936 0.0000 0.0000 0.0000
# 2 54.8593 86.3999 35.8936 0.0000 0.0000 0.0000
# 3 35.8936 35.8936 98.6995 0.0000 0.0000 0.0000
# 4 0.0000 0.0000 0.0000 11.5057 0.0000 0.0000
# 5 0.0000 0.0000 0.0000 0.0000 11.5057 0.0000
# 6 0.0000 0.0000 0.0000 0.0000 0.0000 24.3196
#
#
#
# Elastic Compliance Matrix: (Units=1/GPa)
#
#
# Indices 1 2 3 4 5 6 
#
# 1 0.020195 -0.011510 -0.003158 0.000000 0.000000 0.000000
# 2 -0.011510 0.020195 -0.003158 0.000000 0.000000 0.000000
# 3 -0.003158 -0.003158 0.012429 0.000000 0.000000 0.000000
# 4 0.000000 0.000000 0.000000 0.086913 0.000000 0.000000
# 5 0.000000 0.000000 0.000000 0.000000 0.086913 0.000000
# 6 0.000000 0.000000 0.000000 0.000000 0.000000 0.041119
#
#
# Mechanical properties :
#
#
# Convention : Reuss Voigt Hill
#
# Bulk Modulus (GPa) = 58.25965 58.31027 58.28496
# Shear Modulus (GPa) = 16.17397 19.12306 17.64851
#
# Velocity S-wave (km/s) = 3.25954 3.54427 3.40488
# Velocity P-wave (km/s) = 7.24131 7.41976 7.33108
#
# Compressibility (1/GPa) = 0.01716454
#
# Stress axis : x y z
#
# Youngs Moduli (GPa) = 49.51817 49.51817 80.45853
#
# Poissons Ratio (x) = 0.56998 0.25410
# Poissons Ratio (y) = 0.56998 0.25410
# Poissons Ratio (z) = 0.15638 0.15638
#
# Static dielectric constant tensor:
#      x y z
#    x 2.798020 0.000000 0.000000 
#    y 0.000000 2.798020 0.000000 
#    z 0.000000 0.000000 3.096380 
# 
# 
# High freq. dielectric constant tensor:
#      x y z
#    x 1.570970 0.000000 0.000000 
#    y 0.000000 1.570970 0.000000 
#    z 0.000000 0.000000 1.582970 
# 
# From -- ./inp_files/7322.got.cif
#   From: 2010.03.12/outbox.cif.g09.slc.cpg/sg129_4_cif.got.tgz:7322.got - 2010.04.06 17:19:44.
