data_PCOD8315676
_publ_section_title
;
Structure prediction by ZEFSAII (Michael W. Deem and Ramdas Pophale) SiO2 
 PCOD8315676
Probable space group: P 42/M M C
;
_chemical_formula_sum "Si O2"
_cell_formula_units_Z 112
_cell_length_a 18.748547
_cell_length_b 18.748547
_cell_length_c 18.816911
_cell_angle_alpha 90.000000
_cell_angle_beta 90.000000
_cell_angle_gamma 90.000000
_cell_volume 6614.295027
_symmetry_space_group_name_H-M "P 42/M M C"
_symmetry_group_IT_number 131
_symmetry_cell_setting 'tetragonal'
loop_
_space_group_symop_operation_xyz
x,y,z
-x,-y,z
-y,x,1/2+z
y,-x,1/2+z
-x,y,-z
x,-y,-z
y,x,1/2-z
-y,-x,1/2-z
-x,-y,-z
x,y,-z
y,-x,1/2-z
-y,x,1/2-z
x,-y,z
-x,y,z
-y,-x,1/2+z
y,x,1/2+z
loop_
_atom_site_type_symbol
_atom_site_label
_atom_site_fract_x
_atom_site_fract_y
_atom_site_fract_z
Si Si1 0.338338 0.787654 0.330440
Si Si2 0.581290 0.676593 0.417987
Si Si3 0.080809 0.786038 0.314388
Si Si4 0.080626 0.697621 0.081131
Si Si5 0.920914 0.162933 0.841715
Si Si6 0.288546 0.420638 0.416887
Si Si7 0.687044 0.793920 0.830142
O O1 0.401271 0.742777 0.367035
O O2 0.342200 0.865644 0.365880
O O3 0.261311 0.751714 0.342281
O O4 0.351038 0.790845 0.246432
O O5 0.592963 0.699553 0.500000
O O6 0.500000 0.651660 0.404915
O O7 0.634156 0.612076 0.397477
O O8 0.092842 0.790637 0.229682
O O9 0.101359 0.862107 0.349593
O O10 0.128597 0.721290 0.344176
O O11 0.000000 0.768535 0.335119
O O12 0.084556 0.782907 0.092643
O O13 0.000000 0.670545 0.096767
O O14 0.102518 0.681755 0.000000
O O15 0.000000 0.127670 0.838118
O O16 0.276407 0.422415 0.500000
O O17 0.286655 0.500000 0.384582
O O18 0.223178 0.375030 0.385715
#
# Coordination Sequence:
#
# PCOD8315676 Si02
#       7
#    16  16  16  16  16  16  16
#     4  10  17  30  48  69  99 128 164 204 241 282
#     4   9  18  31  49  76 105 131 157 188 233 287
#     4  10  17  28  46  69  96 126 163 211 256 286
#     4  10  18  27  44  69  96 130 168 202 237 281
#     4   9  16  28  43  65  98 130 163 201 243 293
#     4   9  19  35  54  75  98 126 158 194 239 293
#     4  10  18  30  49  72  94 125 166 208 249 286
#
# _framework density 16.933021
#
# number of rings (size 3 to 8) (size 9 to 14) (size 15 to 20)
#    0.000    2.429    2.857    1.286    0.000    1.714 
#    0.000    2.857    0.000    2.571    0.000   11.000 
#    0.000    0.000    0.000    0.000    0.000    0.000 
#
# Total GULP energy -1388546.677199 kJ/mol
# GULP energy per Si atom -12397.738189 kJ/mol
# Density = 1.689448 g / cm^3
# Si number density = 16.933021 Si / 1000 Ang^3
#
#
#
# Elastic Constant Matrix: (Units=GPa)
#
#
# Indices 1 2 3 4 5 6 
#
# 1 102.7847 57.7066 28.8177 0.0000 0.0000 0.0000
# 2 57.7066 102.7847 28.8177 0.0000 0.0000 0.0000
# 3 28.8177 28.8177 40.6106 0.0000 0.0000 0.0000
# 4 0.0000 0.0000 0.0000 21.3531 0.0000 0.0000
# 5 0.0000 0.0000 0.0000 0.0000 21.3531 0.0000
# 6 0.0000 0.0000 0.0000 0.0000 0.0000 18.5060
#
#
#
# Elastic Compliance Matrix: (Units=1/GPa)
#
#
# Indices 1 2 3 4 5 6 
#
# 1 0.015273 -0.006911 -0.005934 0.000000 0.000000 0.000000
# 2 -0.006911 0.015273 -0.005934 0.000000 0.000000 0.000000
# 3 -0.005934 -0.005934 0.033045 0.000000 0.000000 0.000000
# 4 0.000000 0.000000 0.000000 0.046832 0.000000 0.000000
# 5 0.000000 0.000000 0.000000 0.000000 0.046832 0.000000
# 6 0.000000 0.000000 0.000000 0.000000 0.000000 0.054037
#
#
# Mechanical properties :
#
#
# Convention : Reuss Voigt Hill
#
# Bulk Modulus (GPa) = 38.41078 52.98489 45.69783
# Shear Modulus (GPa) = 19.41560 20.96497 20.19028
#
# Velocity S-wave (km/s) = 3.38984 3.52250 3.45681
# Velocity P-wave (km/s) = 6.16884 6.92118 6.55581
#
# Compressibility (1/GPa) = 0.02603436
#
# Stress axis : x y z
#
# Youngs Moduli (GPa) = 65.47623 65.47623 30.26162
#
# Poissons Ratio (x) = 0.45251 0.17956
# Poissons Ratio (y) = 0.45251 0.17956
# Poissons Ratio (z) = 0.38851 0.38851
#
# Static dielectric constant tensor:
#      x y z
#    x 3.092480 0.000000 0.000000 
#    y 0.000000 3.092480 0.000000 
#    z 0.000000 0.000000 3.098020 
# 
# 
# High freq. dielectric constant tensor:
#      x y z
#    x 1.637870 0.000000 0.000000 
#    y 0.000000 1.637870 0.000000 
#    z 0.000000 0.000000 1.639810 
# 
# From -- ./inp_files/10041.got.cif
#   From: 2010.03.12/outbox.cif.g09.slc.cpg/sg131_6_cif.got.tgz:10041.got - 2010.04.06 17:36:35.
