data_PCOD8315689
_publ_section_title
;
Structure prediction by ZEFSAII (Michael W. Deem and Ramdas Pophale) SiO2 
 PCOD8315689
Probable space group: P 42/M M C
;
_chemical_formula_sum "Si O2"
_cell_formula_units_Z 96
_cell_length_a 24.739471
_cell_length_b 24.739471
_cell_length_c 9.604344
_cell_angle_alpha 90.000000
_cell_angle_beta 90.000000
_cell_angle_gamma 90.000000
_cell_volume 5878.256391
_symmetry_space_group_name_H-M "P 42/M M C"
_symmetry_group_IT_number 131
_symmetry_cell_setting 'tetragonal'
loop_
_space_group_symop_operation_xyz
x,y,z
-x,-y,z
-y,x,1/2+z
y,-x,1/2+z
-x,y,-z
x,-y,-z
y,x,1/2-z
-y,-x,1/2-z
-x,-y,-z
x,y,-z
y,-x,1/2-z
-y,x,1/2-z
x,-y,z
-x,y,z
-y,-x,1/2+z
y,x,1/2+z
loop_
_atom_site_type_symbol
_atom_site_label
_atom_site_fract_x
_atom_site_fract_y
_atom_site_fract_z
Si Si1 0.940058 0.776491 0.655505
Si Si2 0.940111 0.647899 0.656512
Si Si3 0.222597 0.845375 0.343848
Si Si4 0.649531 0.843582 0.654832
Si Si5 0.648435 0.722638 0.336973
Si Si6 0.633706 0.561698 0.839455
O O1 0.924765 0.796447 0.500000
O O2 0.937597 0.712102 0.658477
O O3 0.898812 0.801188 0.768068
O O4 0.000000 0.796495 0.695652
O O5 0.931243 0.626318 0.500000
O O6 0.891439 0.624062 0.750971
O O7 0.000000 0.629453 0.710239
O O8 0.205870 0.794131 0.250000
O O9 0.198683 0.841012 0.500000
O O10 0.286417 0.848181 0.349698
O O11 0.625494 0.851106 0.500000
O O12 0.635067 0.783756 0.712455
O O13 0.698626 0.698626 0.250000
O O14 0.664811 0.722240 0.500000
O O15 0.594839 0.688053 0.306558
O O16 0.583817 0.583817 0.750000
O O17 0.645051 0.500000 0.797909
O O18 0.617163 0.567528 0.000000
#
# Coordination Sequence:
#
# PCOD8315689 Si02
#       6
#    16  16  16  16  16  16
#     4   8  14  25  38  49  64  89 119 150 186 226
#     4   8  14  24  37  53  74 102 135 168 201 239
#     4  10  18  25  34  50  72  96 123 153 184 221
#     4   9  17  26  37  55  78 106 137 168 202 240
#     4   9  17  29  43  60  84 112 143 176 211 255
#     4   9  18  32  49  68  90 117 147 180 219 260
#
# _framework density 16.331372999999999
#
# number of rings (size 3 to 8) (size 9 to 14) (size 15 to 20)
#    0.000    3.167    0.000    2.000    0.000    2.500 
#    0.000    4.167    0.000    0.000    0.000    0.000 
#    0.000    1.000    0.000   11.833    0.000    3.500 
#
# Total GULP energy -1189739.616338 kJ/mol
# GULP energy per Si atom -12393.121004 kJ/mol
# Density = 1.629420 g / cm^3
# Si number density = 16.331373 Si / 1000 Ang^3
#
#
#
# Elastic Constant Matrix: (Units=GPa)
#
#
# Indices 1 2 3 4 5 6 
#
# 1 80.8586 22.3784 38.3309 0.0000 0.0000 0.0000
# 2 22.3784 80.8596 38.3311 0.0000 0.0000 0.0000
# 3 38.3309 38.3311 84.1336 0.0000 0.0000 0.0000
# 4 0.0000 0.0000 0.0000 20.7722 0.0000 0.0000
# 5 0.0000 0.0000 0.0000 0.0000 20.7721 0.0000
# 6 0.0000 0.0000 0.0000 0.0000 0.0000 8.0258
#
#
#
# Elastic Compliance Matrix: (Units=1/GPa)
#
#
# Indices 1 2 3 4 5 6 
#
# 1 0.015869 -0.001230 -0.006670 0.000000 0.000000 0.000000
# 2 -0.001230 0.015869 -0.006669 0.000000 0.000000 0.000000
# 3 -0.006670 -0.006669 0.017963 0.000000 0.000000 0.000000
# 4 0.000000 0.000000 0.000000 0.048141 0.000000 0.000000
# 5 0.000000 0.000000 0.000000 0.000000 0.048142 0.000000
# 6 0.000000 0.000000 0.000000 0.000000 0.000000 0.124599
#
#
# Mechanical properties :
#
#
# Convention : Reuss Voigt Hill
#
# Bulk Modulus (GPa) = 48.63072 49.32585 48.97829
# Shear Modulus (GPa) = 16.30915 19.70143 18.00529
#
# Velocity S-wave (km/s) = 3.16355 3.47703 3.32399
# Velocity P-wave (km/s) = 6.57162 6.81090 6.69233
#
# Compressibility (1/GPa) = 0.02056313
#
# Stress axis : x y z
#
# Youngs Moduli (GPa) = 63.01416 63.01500 55.66981
#
# Poissons Ratio (x) = 0.07753 0.37129
# Poissons Ratio (y) = 0.07753 0.37129
# Poissons Ratio (z) = 0.42027 0.42028
#
# Static dielectric constant tensor:
#      x y z
#    x 2.963640 0.000000 0.000000 
#    y 0.000000 2.963630 0.000000 
#    z 0.000000 0.000000 3.363960 
# 
# 
# High freq. dielectric constant tensor:
#      x y z
#    x 1.598880 0.000000 0.000000 
#    y 0.000000 1.598880 0.000000 
#    z 0.000000 0.000000 1.633110 
# 
# From -- ./inp_files/4385.got.cif
#   From: 2010.03.12/outbox.cif.g09.slc.cpg/sg131_3_cif.got.tgz:4385.got - 2010.04.06 17:36:35.
