data_PCOD8315897
_publ_section_title
;
Structure prediction by ZEFSAII (Michael W. Deem and Ramdas Pophale) SiO2 
 PCOD8315897
Probable space group: P 42/M M C
;
_chemical_formula_sum "Si O2"
_cell_formula_units_Z 128
_cell_length_a 19.393575
_cell_length_b 19.393575
_cell_length_c 18.753448
_cell_angle_alpha 90.000000
_cell_angle_beta 90.000000
_cell_angle_gamma 90.000000
_cell_volume 7053.373416
_symmetry_space_group_name_H-M "P 42/M M C"
_symmetry_group_IT_number 131
_symmetry_cell_setting 'tetragonal'
loop_
_space_group_symop_operation_xyz
x,y,z
-x,-y,z
-y,x,1/2+z
y,-x,1/2+z
-x,y,-z
x,-y,-z
y,x,1/2-z
-y,-x,1/2-z
-x,-y,-z
x,y,-z
y,-x,1/2-z
-y,x,1/2-z
x,-y,z
-x,y,z
-y,-x,1/2+z
y,x,1/2+z
loop_
_atom_site_type_symbol
_atom_site_label
_atom_site_fract_x
_atom_site_fract_y
_atom_site_fract_z
Si Si1 0.811601 0.307455 0.919475
Si Si2 0.295950 0.920508 0.309941
Si Si3 0.144139 0.801755 0.579526
Si Si4 0.134012 0.076803 0.321171
Si Si5 0.421546 0.419366 0.582719
Si Si6 0.327059 0.843503 0.169172
Si Si7 0.075590 0.580821 0.577715
Si Si8 0.321997 0.681197 0.833515
O O1 0.886650 0.322603 0.884183
O O2 0.803076 0.226070 0.923817
O O3 0.751441 0.339633 0.869207
O O4 0.808867 0.338800 0.000000
O O5 0.214181 0.916293 0.302936
O O6 0.325093 0.869352 0.249935
O O7 0.321991 0.000000 0.304491
O O8 0.112932 0.796641 0.500000
O O9 0.113497 0.870326 0.616370
O O10 0.121590 0.736256 0.626373
O O11 0.091397 0.091397 0.250000
O O12 0.116476 0.000000 0.348390
O O13 0.408918 0.402300 0.500000
O O14 0.411404 0.500000 0.597424
O O15 0.500000 0.397661 0.604081
O O16 0.364209 0.379920 0.628234
O O17 0.397866 0.870359 0.136932
O O18 0.330839 0.762451 0.157650
O O19 0.099316 0.608289 0.500000
O O20 0.071982 0.500000 0.576619
O O21 0.000000 0.610953 0.596059
O O22 0.331307 0.668694 0.750000
#
# Coordination Sequence:
#
# PCOD8315897 Si02
#       8
#    16  16  16  16  16  16  16  16
#     4   9  18  32  50  76 108 142 177 224 280 326
#     4  10  19  31  52  77 101 140 183 225 276 332
#     4   9  18  30  49  75 102 131 169 220 273 322
#     4  10  19  32  50  69  96 134 177 221 271 329
#     4   9  20  40  62  84 117 160 198 231 269 318
#     4  11  19  32  54  78 112 143 178 224 273 327
#     4   9  19  35  52  73 106 145 179 215 265 322
#     4  11  21  33  55  85 116 150 185 229 281 332
#
# _framework density 18.147345000000001
#
# number of rings (size 3 to 8) (size 9 to 14) (size 15 to 20)
#    0.000    2.250    2.500    1.875    0.000    3.125 
#    0.000    4.375    0.000    1.125    0.000    0.875 
#    0.000    0.000    0.000    5.250    0.000    2.625 
#
# Total GULP energy -1586353.597210 kJ/mol
# GULP energy per Si atom -12393.387478 kJ/mol
# Density = 1.810604 g / cm^3
# Si number density = 18.147345 Si / 1000 Ang^3
#
#
#
# Elastic Constant Matrix: (Units=GPa)
#
#
# Indices 1 2 3 4 5 6 
#
# 1 71.0304 40.9878 45.7371 0.0000 0.0000 0.0000
# 2 40.9878 71.0304 45.7371 0.0000 0.0000 0.0000
# 3 45.7371 45.7371 129.6355 0.0000 0.0000 0.0000
# 4 0.0000 0.0000 0.0000 26.8051 0.0000 0.0000
# 5 0.0000 0.0000 0.0000 0.0000 26.8051 0.0000
# 6 0.0000 0.0000 0.0000 0.0000 0.0000 21.1853
#
#
#
# Elastic Compliance Matrix: (Units=1/GPa)
#
#
# Indices 1 2 3 4 5 6 
#
# 1 0.022913 -0.010373 -0.004424 0.000000 0.000000 0.000000
# 2 -0.010373 0.022913 -0.004424 0.000000 0.000000 0.000000
# 3 -0.004424 -0.004424 0.010836 0.000000 0.000000 0.000000
# 4 0.000000 0.000000 0.000000 0.037306 0.000000 0.000000
# 5 0.000000 0.000000 0.000000 0.000000 0.037306 0.000000
# 6 0.000000 0.000000 0.000000 0.000000 0.000000 0.047203
#
#
# Mechanical properties :
#
#
# Convention : Reuss Voigt Hill
#
# Bulk Modulus (GPa) = 54.88863 59.62447 57.25655
# Shear Modulus (GPa) = 22.42221 24.24137 23.33179
#
# Velocity S-wave (km/s) = 3.51887 3.65884 3.58954
# Velocity P-wave (km/s) = 6.84264 7.12576 6.98564
#
# Compressibility (1/GPa) = 0.01821871
#
# Stress axis : x y z
#
# Youngs Moduli (GPa) = 43.64333 43.64329 92.28645
#
# Poissons Ratio (x) = 0.45271 0.40830
# Poissons Ratio (y) = 0.45271 0.40830
# Poissons Ratio (z) = 0.19309 0.19309
#
# Static dielectric constant tensor:
#      x y z
#    x 3.204880 0.000000 0.000000 
#    y 0.000000 3.204890 0.000000 
#    z 0.000000 0.000000 3.534920 
# 
# 
# High freq. dielectric constant tensor:
#      x y z
#    x 1.684250 0.000000 0.000000 
#    y 0.000000 1.684250 0.000000 
#    z 0.000000 0.000000 1.710000 
# 
# From -- ./inp_files/8440.got.cif
#   From: 2010.03.12/outbox.cif.g09.slc.cpg/sg131_5_cif.got.tgz:8440.got - 2010.04.06 17:36:35.
