data_PCOD8315192
_publ_section_title
;
Structure prediction by ZEFSAII (Michael W. Deem and Ramdas Pophale) SiO2 
 PCOD8315192
Probable space group: P 4/N M M
;
_chemical_formula_sum "Si O2"
_cell_formula_units_Z 72
_cell_length_a 28.146863
_cell_length_b 28.146863
_cell_length_c 5.050003
_cell_angle_alpha 90.000000
_cell_angle_beta 90.000000
_cell_angle_gamma 90.000000
_cell_volume 4000.844155
_symmetry_space_group_name_H-M "P 4/N M M"
_symmetry_group_IT_number 129
_symmetry_cell_setting 'tetragonal'
loop_
_space_group_symop_operation_xyz
x,y,z
1/2-y,x,z
1/2-x,1/2-y,z
y,1/2-x,z
1/2+x,-y,-z
-x,1/2+y,-z
1/2+y,1/2+x,-z
-y,-x,-z
-x,-y,-z
1/2+y,-x,-z
1/2+x,1/2+y,-z
-y,1/2+x,-z
1/2-x,y,z
x,1/2-y,z
1/2-y,1/2-x,z
y,x,z
loop_
_atom_site_type_symbol
_atom_site_label
_atom_site_fract_x
_atom_site_fract_y
_atom_site_fract_z
Si Si1 0.441653 0.194501 0.635311
Si Si2 0.305699 0.117813 0.123992
Si Si3 0.198254 0.698254 0.000000
Si Si4 0.333273 0.602518 0.135881
Si Si5 0.804534 0.047828 0.368814
O O1 0.445948 0.250000 0.689598
O O2 0.418618 0.182296 0.356410
O O3 0.494842 0.173481 0.648244
O O4 0.407707 0.173794 0.862962
O O5 0.250000 0.130245 0.109566
O O6 0.332576 0.167425 0.167182
O O7 0.193757 0.652902 0.197924
O O8 0.194999 0.750000 0.145365
O O9 0.336720 0.575887 0.416256
O O10 0.384683 0.615317 0.000000
O O11 0.305327 0.571023 0.920980
O O12 0.750000 0.047179 0.470699
#
# Coordination Sequence:
#
# PCOD8315192 Si02
#       5
#    16  16   8  16  16
#     4   9  19  32  51  75  99 135 175 217 255 282
#     4  10  19  33  51  78 114 145 173 200 232 283
#     4   9  18  32  46  64  96 136 169 198 238 300
#     4  10  22  33  46  72  96 127 171 204 259 302
#     4  11  19  34  53  69  95 129 171 217 263 304
#
# _framework density 17.996200999999999
#
# number of rings (size 3 to 8) (size 9 to 14) (size 15 to 20)
#    0.667    1.444    0.000    4.667    0.000    3.778 
#    0.000    1.111    0.000    8.000    0.000    0.000 
#    0.000   62.222    0.000    0.000    0.000    0.000 
#
# Total GULP energy -892050.829285 kJ/mol
# GULP energy per Si atom -12389.594851 kJ/mol
# Density = 1.795524 g / cm^3
# Si number density = 17.996201 Si / 1000 Ang^3
#
#
#
# Elastic Constant Matrix: (Units=GPa)
#
#
# Indices 1 2 3 4 5 6 
#
# 1 74.4669 47.4245 16.9068 0.0000 0.0000 0.0000
# 2 47.4245 74.4676 16.9067 0.0000 0.0000 0.0000
# 3 16.9068 16.9067 59.1845 0.0000 0.0000 0.0000
# 4 0.0000 0.0000 0.0000 16.7666 0.0000 0.0000
# 5 0.0000 0.0000 0.0000 0.0000 16.7661 0.0000
# 6 0.0000 0.0000 0.0000 0.0000 0.0000 12.1056
#
#
#
# Elastic Compliance Matrix: (Units=1/GPa)
#
#
# Indices 1 2 3 4 5 6 
#
# 1 0.022944 -0.014034 -0.002545 0.000000 0.000000 0.000000
# 2 -0.014034 0.022944 -0.002545 0.000000 0.000000 0.000000
# 3 -0.002545 -0.002545 0.018350 0.000000 0.000000 0.000000
# 4 0.000000 0.000000 0.000000 0.059642 0.000000 0.000000
# 5 0.000000 0.000000 0.000000 0.000000 0.059644 0.000000
# 6 0.000000 0.000000 0.000000 0.000000 0.000000 0.082606
#
#
# Mechanical properties :
#
#
# Convention : Reuss Voigt Hill
#
# Bulk Modulus (GPa) = 38.47697 41.17721 39.82709
# Shear Modulus (GPa) = 15.97217 17.58641 16.77929
#
# Velocity S-wave (km/s) = 2.98238 3.12946 3.05680
# Velocity P-wave (km/s) = 5.76944 5.99906 5.88537
#
# Compressibility (1/GPa) = 0.02598957
#
# Stress axis : x y z
#
# Youngs Moduli (GPa) = 43.58368 43.58418 54.49446
#
# Poissons Ratio (x) = 0.61167 0.13871
# Poissons Ratio (y) = 0.61166 0.13870
# Poissons Ratio (z) = 0.11094 0.11093
#
# Static dielectric constant tensor:
#      x y z
#    x 3.222890 0.000000 0.000000 
#    y 0.000000 3.222890 0.000000 
#    z 0.000000 0.000000 3.213360 
# 
# 
# High freq. dielectric constant tensor:
#      x y z
#    x 1.673050 0.000000 0.000000 
#    y 0.000000 1.673050 0.000000 
#    z 0.000000 0.000000 1.697240 
# 
# From -- ./inp_files/904.got.cif
#   From: 2010.03.12/outbox.cif.g09.slc.cpg/sg129_1_cif.got.tgz:904.got - 2010.04.06 17:19:44.
