data_PCOD8315075
_publ_section_title
;
Structure prediction by ZEFSAII (Michael W. Deem and Ramdas Pophale) SiO2 
 PCOD8315075
Probable space group: P 4/N M M
;
_chemical_formula_sum "Si O2"
_cell_formula_units_Z 112
_cell_length_a 15.048581
_cell_length_b 15.048581
_cell_length_c 26.759751
_cell_angle_alpha 90.000000
_cell_angle_beta 90.000000
_cell_angle_gamma 90.000000
_cell_volume 6060.007595
_symmetry_space_group_name_H-M "P 4/N M M"
_symmetry_group_IT_number 129
_symmetry_cell_setting 'tetragonal'
loop_
_space_group_symop_operation_xyz
x,y,z
1/2-y,x,z
1/2-x,1/2-y,z
y,1/2-x,z
1/2+x,-y,-z
-x,1/2+y,-z
1/2+y,1/2+x,-z
-y,-x,-z
-x,-y,-z
1/2+y,-x,-z
1/2+x,1/2+y,-z
-y,1/2+x,-z
1/2-x,y,z
x,1/2-y,z
1/2-y,1/2-x,z
y,x,z
loop_
_atom_site_type_symbol
_atom_site_label
_atom_site_fract_x
_atom_site_fract_y
_atom_site_fract_z
Si Si1 0.144829 0.848240 0.444400
Si Si2 0.347636 0.011998 0.160191
Si Si3 0.348494 0.936531 0.266886
Si Si4 0.847204 0.986502 0.233593
Si Si5 0.852352 0.506106 0.624721
Si Si6 0.347965 0.940573 0.873046
Si Si7 0.356273 0.501407 0.982348
O O1 0.118537 0.881464 0.500000
O O2 0.250000 0.840391 0.441092
O O3 0.103922 0.750000 0.433120
O O4 0.110180 0.919059 0.403869
O O5 0.250000 0.046818 0.147106
O O6 0.416668 0.083333 0.139200
O O7 0.359597 0.001819 0.219678
O O8 0.362047 0.920061 0.130379
O O9 0.250000 0.893593 0.267705
O O10 0.419132 0.857465 0.261543
O O11 0.365181 0.993151 0.316345
O O12 0.750000 0.949297 0.245640
O O13 0.918193 0.918193 0.255947
O O14 0.861897 0.994863 0.174205
O O15 0.750000 0.524388 0.610607
O O16 0.908700 0.591301 0.607575
O O17 0.250000 0.896342 0.871103
O O18 0.359183 0.998999 0.922432
O O19 0.250000 0.499144 0.999705
O O20 0.413013 0.413013 0.000043
O O21 0.407804 0.592197 0.000000
#
# Coordination Sequence:
#
# PCOD8315075 Si02
#       7
#    16  16  16  16  16  16  16
#     4   8  15  29  47  66  89 117 151 193 238 279
#     4  10  19  31  48  68  95 130 163 198 237 280
#     4   9  18  32  48  66  90 122 161 203 243 276
#     4  10  19  31  49  72 100 130 157 190 231 279
#     4  10  19  30  46  68  95 125 155 190 232 280
#     4   9  18  34  55  75  96 125 160 199 244 286
#     4  10  21  37  57  80 105 133 166 204 246 293
#
# _framework density 18.481825000000001
#
# number of rings (size 3 to 8) (size 9 to 14) (size 15 to 20)
#    0.000    2.571    0.000    3.857    0.000    2.714 
#    0.000    5.714    0.000    5.143    0.000    2.000 
#    0.000    0.286    0.000    0.286    0.000    0.000 
#
# Total GULP energy -1387890.083107 kJ/mol
# GULP energy per Si atom -12391.875742 kJ/mol
# Density = 1.843976 g / cm^3
# Si number density = 18.481825 Si / 1000 Ang^3
#
#
#
# Elastic Constant Matrix: (Units=GPa)
#
#
# Indices 1 2 3 4 5 6 
#
# 1 115.4356 75.5427 26.2726 0.0000 0.0000 0.0000
# 2 75.5427 115.4352 26.2729 0.0000 0.0000 0.0000
# 3 26.2726 26.2729 42.3761 0.0000 0.0000 0.0000
# 4 0.0000 0.0000 0.0000 14.7288 0.0000 0.0000
# 5 0.0000 0.0000 0.0000 0.0000 14.7291 0.0000
# 6 0.0000 0.0000 0.0000 0.0000 0.0000 16.4561
#
#
#
# Elastic Compliance Matrix: (Units=1/GPa)
#
#
# Indices 1 2 3 4 5 6 
#
# 1 0.015690 -0.009377 -0.003914 0.000000 0.000000 0.000000
# 2 -0.009377 0.015690 -0.003914 0.000000 0.000000 0.000000
# 3 -0.003914 -0.003914 0.028452 0.000000 0.000000 0.000000
# 4 0.000000 0.000000 0.000000 0.067894 0.000000 0.000000
# 5 0.000000 0.000000 0.000000 0.000000 0.067893 0.000000
# 6 0.000000 0.000000 0.000000 0.000000 0.000000 0.060768
#
#
# Mechanical properties :
#
#
# Convention : Reuss Voigt Hill
#
# Bulk Modulus (GPa) = 39.33674 58.82481 49.08078
# Shear Modulus (GPa) = 16.70728 18.86006 17.78367
#
# Velocity S-wave (km/s) = 3.00990 3.19794 3.10534
# Velocity P-wave (km/s) = 5.78010 6.74784 6.28263
#
# Compressibility (1/GPa) = 0.02542152
#
# Stress axis : x y z
#
# Youngs Moduli (GPa) = 63.73438 63.73386 35.14748
#
# Poissons Ratio (x) = 0.59764 0.13757
# Poissons Ratio (y) = 0.59764 0.13757
# Poissons Ratio (z) = 0.24945 0.24947
#
# Static dielectric constant tensor:
#      x y z
#    x 3.395120 0.000000 0.000000 
#    y 0.000000 3.395120 0.000000 
#    z 0.000000 0.000000 3.391440 
# 
# 
# High freq. dielectric constant tensor:
#      x y z
#    x 1.702200 0.000000 0.000000 
#    y 0.000000 1.702200 0.000000 
#    z 0.000000 0.000000 1.704510 
# 
# From -- ./inp_files/7573.got.cif
#   From: 2010.03.12/outbox.cif.g09.slc.cpg/sg129_4_cif.got.tgz:7573.got - 2010.04.06 17:19:44.
