data_PCOD8315930
_publ_section_title
;
Structure prediction by ZEFSAII (Michael W. Deem and Ramdas Pophale) SiO2 
 PCOD8315930
Probable space group: P 42/M M C
;
_chemical_formula_sum "Si O2"
_cell_formula_units_Z 96
_cell_length_a 14.670558
_cell_length_b 14.670558
_cell_length_c 27.675237
_cell_angle_alpha 90.000000
_cell_angle_beta 90.000000
_cell_angle_gamma 90.000000
_cell_volume 5956.410412
_symmetry_space_group_name_H-M "P 42/M M C"
_symmetry_group_IT_number 131
_symmetry_cell_setting 'tetragonal'
loop_
_space_group_symop_operation_xyz
x,y,z
-x,-y,z
-y,x,1/2+z
y,-x,1/2+z
-x,y,-z
x,-y,-z
y,x,1/2-z
-y,-x,1/2-z
-x,-y,-z
x,y,-z
y,-x,1/2-z
-y,x,1/2-z
x,-y,z
-x,y,z
-y,-x,1/2+z
y,x,1/2+z
loop_
_atom_site_type_symbol
_atom_site_label
_atom_site_fract_x
_atom_site_fract_y
_atom_site_fract_z
Si Si1 0.500000 0.892516 0.053359
Si Si2 0.894251 0.230544 0.781646
Si Si3 0.396749 0.106924 0.443982
Si Si4 0.399904 0.892359 0.776380
Si Si5 0.000000 0.895791 0.942781
Si Si6 0.667112 0.892058 0.118531
Si Si7 0.217912 0.154151 0.392777
O O1 0.588434 0.861448 0.082258
O O2 0.500000 0.000000 0.049021
O O3 0.500000 0.847831 0.000000
O O4 0.845732 0.154269 0.750000
O O5 0.859177 0.330846 0.765379
O O6 0.877751 0.217280 0.837755
O O7 0.000000 0.220328 0.769281
O O8 0.381540 0.130736 0.500000
O O9 0.500000 0.134866 0.428437
O O10 0.321989 0.160110 0.412069
O O11 0.382410 0.000000 0.434942
O O12 0.500000 0.848459 0.767423
O O13 0.360912 0.861523 0.827908
O O14 0.410365 0.000000 0.776245
O O15 0.912375 0.842416 0.924739
O O16 0.000000 0.000000 0.923297
O O17 0.000000 0.894699 0.000000
O O18 0.750270 0.831048 0.101623
O O19 0.689583 0.000000 0.115780
#
# Coordination Sequence:
#
# PCOD8315930 Si02
#       7
#     8  16  16  16   8  16  16
#     4   9  18  32  50  74 101 131 175 223 262 304
#     4  11  22  34  47  73 103 137 178 216 249 303
#     4   9  18  34  55  75  98 133 175 219 270 316
#     4   9  17  32  53  71  95 133 173 212 263 308
#     4  11  24  38  51  71 107 151 190 218 254 307
#     4  10  19  32  51  73 104 141 175 210 258 313
#     4  12  21  34  53  77 107 138 177 222 265 309
#
# _framework density 16.117089
#
# number of rings (size 3 to 8) (size 9 to 14) (size 15 to 20)
#    0.000    1.833    4.167    1.500    0.000    2.833 
#    0.000    3.333    0.000    0.000    0.000    0.583 
#    0.000    3.667    0.000    0.000    0.000    0.000 
#
# Total GULP energy -1190207.534112 kJ/mol
# GULP energy per Si atom -12397.995147 kJ/mol
# Density = 1.608041 g / cm^3
# Si number density = 16.117089 Si / 1000 Ang^3
#
#
#
# Elastic Constant Matrix: (Units=GPa)
#
#
# Indices 1 2 3 4 5 6 
#
# 1 101.4617 50.7848 37.1168 0.0000 0.0000 0.0000
# 2 50.7848 101.4617 37.1163 0.0000 0.0000 0.0000
# 3 37.1168 37.1163 84.2126 0.0000 0.0000 0.0000
# 4 0.0000 0.0000 0.0000 22.3986 0.0000 0.0000
# 5 0.0000 0.0000 0.0000 0.0000 22.3979 0.0000
# 6 0.0000 0.0000 0.0000 0.0000 0.0000 -2.5966
#
#
#
# Elastic Compliance Matrix: (Units=1/GPa)
#
#
# Indices 1 2 3 4 5 6 
#
# 1 0.014050 -0.005683 -0.003687 0.000000 0.000000 0.000000
# 2 -0.005683 0.014049 -0.003687 0.000000 0.000000 0.000000
# 3 -0.003687 -0.003687 0.015125 0.000000 0.000000 0.000000
# 4 0.000000 0.000000 0.000000 0.044646 0.000000 0.000000
# 5 0.000000 0.000000 0.000000 0.000000 0.044647 0.000000
# 6 0.000000 0.000000 0.000000 0.000000 0.000000 -0.385124
#
#
# Mechanical properties :
#
#
# Convention : Reuss Voigt Hill
#
# Bulk Modulus (GPa) = 58.45226 59.68577 59.06901
# Shear Modulus (GPa) = -22.64618 19.24786 -1.69916
#
# Velocity S-wave (km/s) = -3.75254 3.45954 -1.02789
# Velocity P-wave (km/s) = 4.19173 7.28498 5.94313
#
# Compressibility (1/GPa) = 0.01710798
#
# Stress axis : x y z
#
# Youngs Moduli (GPa) = 71.17657 71.17692 66.11515
#
# Poissons Ratio (x) = 0.40452 0.24380
# Poissons Ratio (y) = 0.40452 0.24379
# Poissons Ratio (z) = 0.26246 0.26245
#
# Static dielectric constant tensor:
#      x y z
#    x 2.974870 0.000000 0.000000 
#    y 0.000000 2.974950 0.000000 
#    z 0.000000 0.000000 3.459320 
# 
# 
# High freq. dielectric constant tensor:
#      x y z
#    x 1.602200 0.000000 0.000000 
#    y 0.000000 1.602200 0.000000 
#    z 0.000000 0.000000 1.632260 
# 
# From -- ./inp_files/11149.got.cif
#   From: 2010.03.12/outbox.cif.g09.slc.cpg/sg131_6_cif.got.tgz:11149.got - 2010.04.06 17:36:35.
