data_PCOD8315630
_publ_section_title
;
Structure prediction by ZEFSAII (Michael W. Deem and Ramdas Pophale) SiO2 
 PCOD8315630
Probable space group: P 4/N C C
;
_chemical_formula_sum "Si O2"
_cell_formula_units_Z 52
_cell_length_a 13.258961
_cell_length_b 13.258961
_cell_length_c 13.670940
_cell_angle_alpha 90.000000
_cell_angle_beta 90.000000
_cell_angle_gamma 90.000000
_cell_volume 2403.351892
_symmetry_space_group_name_H-M "P 4/N C C"
_symmetry_group_IT_number 130
_symmetry_cell_setting 'tetragonal'
loop_
_space_group_symop_operation_xyz
x,y,z
1/2-y,x,z
1/2-x,1/2-y,z
y,1/2-x,z
1/2+x,-y,1/2-z
-x,1/2+y,1/2-z
1/2+y,1/2+x,1/2-z
-y,-x,1/2-z
-x,-y,-z
1/2+y,-x,-z
1/2+x,1/2+y,-z
-y,1/2+x,-z
1/2-x,y,1/2+z
x,1/2-y,1/2+z
1/2-y,1/2-x,1/2+z
y,x,1/2+z
loop_
_atom_site_type_symbol
_atom_site_label
_atom_site_fract_x
_atom_site_fract_y
_atom_site_fract_z
Si Si1 0.222196 0.558496 0.624887
Si Si2 0.750000 0.250000 0.750000
Si Si3 0.094714 0.312619 0.287133
Si Si4 0.527402 0.112971 0.474031
O O1 0.261658 0.648213 0.690432
O O2 0.166657 0.473639 0.691390
O O3 0.314640 0.508032 0.566452
O O4 0.145260 0.609860 0.549817
O O5 0.119749 0.194227 0.285623
O O6 0.035001 0.342154 0.384069
O O7 0.500000 0.000000 0.500000
#
# Coordination Sequence:
#
# PCOD8315630 Si02
#       4
#    16   4  16  16
#     4  12  25  44  67 104 138 184 231 296 354 426
#     4  12  24  42  68  96 142 168 230 284 360 416
#     4  11  25  46  69  99 140 186 238 291 359 432
#     4  12  25  44  72 103 142 185 239 291 359 425
#
# _framework density 21.636448000000001
#
# number of rings (size 3 to 8) (size 9 to 14) (size 15 to 20)
#    0.000    0.308    3.077    5.538    4.308    0.000 
#    0.000    3.077    0.000    0.000    0.000    0.000 
#    0.000    0.000    0.000    0.000    0.000    0.000 
#
# Total GULP energy -644940.407116 kJ/mol
# GULP energy per Si atom -12402.700137 kJ/mol
# Density = 2.158720 g / cm^3
# Si number density = 21.636448 Si / 1000 Ang^3
#
#
#
# Elastic Constant Matrix: (Units=GPa)
#
#
# Indices 1 2 3 4 5 6 
#
# 1 111.2595 27.7581 47.6106 0.0000 0.0000 0.0000
# 2 27.7581 111.2595 47.6106 0.0000 0.0000 0.0000
# 3 47.6106 47.6106 130.5784 0.0000 0.0000 0.0000
# 4 0.0000 0.0000 0.0000 72.3991 0.0000 0.0000
# 5 0.0000 0.0000 0.0000 0.0000 72.3991 0.0000
# 6 0.0000 0.0000 0.0000 0.0000 0.0000 38.7860
#
#
#
# Elastic Compliance Matrix: (Units=1/GPa)
#
#
# Indices 1 2 3 4 5 6 
#
# 1 0.010782 -0.001194 -0.003496 0.000000 0.000000 0.000000
# 2 -0.001194 0.010782 -0.003496 0.000000 0.000000 0.000000
# 3 -0.003496 -0.003496 0.010208 0.000000 0.000000 0.000000
# 4 0.000000 0.000000 0.000000 0.013812 0.000000 0.000000
# 5 0.000000 0.000000 0.000000 0.000000 0.013812 0.000000
# 6 0.000000 0.000000 0.000000 0.000000 0.000000 0.025782
#
#
# Mechanical properties :
#
#
# Convention : Reuss Voigt Hill
#
# Bulk Modulus (GPa) = 64.93602 66.56179 65.74890
# Shear Modulus (GPa) = 46.86780 52.05803 49.46292
#
# Velocity S-wave (km/s) = 4.65924 4.91046 4.78650
# Velocity P-wave (km/s) = 7.68259 7.93603 7.81034
#
# Compressibility (1/GPa) = 0.01539977
#
# Stress axis : x y z
#
# Youngs Moduli (GPa) = 92.74846 92.74846 97.96709
#
# Poissons Ratio (x) = 0.11074 0.34248
# Poissons Ratio (y) = 0.11074 0.34248
# Poissons Ratio (z) = 0.32424 0.32424
#
# Static dielectric constant tensor:
#      x y z
#    x 3.962760 0.000000 0.000000 
#    y 0.000000 3.962760 0.000000 
#    z 0.000000 0.000000 3.842870 
# 
# 
# High freq. dielectric constant tensor:
#      x y z
#    x 1.863380 0.000000 0.000000 
#    y 0.000000 1.863380 0.000000 
#    z 0.000000 0.000000 1.862360 
# 
# From -- ./inp_files/1372.got.cif
#   From: 2010.03.12/outbox.cif.g09.slc.cpg/sg130_1_cif.got.tgz:1372.got - 2010.04.06 17:30:23.
