data_PCOD8315805
_publ_section_title
;
Structure prediction by ZEFSAII (Michael W. Deem and Ramdas Pophale) SiO2 
 PCOD8315805
Probable space group: P 42/M M C
;
_chemical_formula_sum "Si O2"
_cell_formula_units_Z 50
_cell_length_a 19.447075
_cell_length_b 19.447075
_cell_length_c 9.537533
_cell_angle_alpha 90.000000
_cell_angle_beta 90.000000
_cell_angle_gamma 90.000000
_cell_volume 3606.987455
_symmetry_space_group_name_H-M "P 42/M M C"
_symmetry_group_IT_number 131
_symmetry_cell_setting 'tetragonal'
loop_
_space_group_symop_operation_xyz
x,y,z
-x,-y,z
-y,x,1/2+z
y,-x,1/2+z
-x,y,-z
x,-y,-z
y,x,1/2-z
-y,-x,1/2-z
-x,-y,-z
x,y,-z
y,-x,1/2-z
-y,x,1/2-z
x,-y,z
-x,y,z
-y,-x,1/2+z
y,x,1/2+z
loop_
_atom_site_type_symbol
_atom_site_label
_atom_site_fract_x
_atom_site_fract_y
_atom_site_fract_z
Si Si1 0.579541 0.127330 0.339770
Si Si2 0.349153 0.500000 0.842346
Si Si3 0.418191 0.000000 0.158819
Si Si4 0.500000 0.500000 0.250000
Si Si5 0.724347 0.633842 0.163699
O O1 0.588030 0.102673 0.500000
O O2 0.500000 0.144428 0.308113
O O3 0.623893 0.194999 0.309732
O O4 0.608596 0.067746 0.238882
O O5 0.431817 0.500000 0.844352
O O6 0.317923 0.568619 0.772220
O O7 0.320607 0.500000 0.000000
O O8 0.500000 0.000000 0.162434
O O9 0.389945 0.000000 0.000000
O O10 0.700781 0.700781 0.250000
O O11 0.707896 0.644797 0.000000
#
# Coordination Sequence:
#
# PCOD8315805 Si02
#       5
#    16   8   8   2  16
#     4   9  16  28  45  59  76 103 133 162 199 249
#     4  10  19  29  39  53  72  97 132 174 216 250
#     4   9  17  27  41  63  85  97 117 158 205 248
#     4  12  18  28  44  50  72  96 138 184 222 248
#     4  10  19  31  43  57  77 103 135 171 208 249
#
# _framework density 13.861983
#
# number of rings (size 3 to 8) (size 9 to 14) (size 15 to 20)
#    0.000    2.400    3.200    0.720    0.000    3.200 
#    0.000    0.800    0.000    0.000    0.000    0.000 
#    0.000    0.000    0.000    0.000    0.000    0.800 
#
# Total GULP energy -619913.253899 kJ/mol
# GULP energy per Si atom -12398.265078 kJ/mol
# Density = 1.383043 g / cm^3
# Si number density = 13.861983 Si / 1000 Ang^3
#
#
#
# Elastic Constant Matrix: (Units=GPa)
#
#
# Indices 1 2 3 4 5 6 
#
# 1 76.3500 32.0894 43.7333 0.0000 0.0000 0.0000
# 2 32.0894 76.3500 43.7333 0.0000 0.0000 0.0000
# 3 43.7333 43.7333 76.6910 0.0000 0.0000 0.0000
# 4 0.0000 0.0000 0.0000 20.1332 0.0000 0.0000
# 5 0.0000 0.0000 0.0000 0.0000 20.1332 0.0000
# 6 0.0000 0.0000 0.0000 0.0000 0.0000 9.7867
#
#
#
# Elastic Compliance Matrix: (Units=1/GPa)
#
#
# Indices 1 2 3 4 5 6 
#
# 1 0.019835 -0.002759 -0.009738 0.000000 0.000000 0.000000
# 2 -0.002759 0.019835 -0.009738 0.000000 0.000000 0.000000
# 3 -0.009738 -0.009738 0.024145 0.000000 0.000000 0.000000
# 4 0.000000 0.000000 0.000000 0.049669 0.000000 0.000000
# 5 0.000000 0.000000 0.000000 0.000000 0.049669 0.000000
# 6 0.000000 0.000000 0.000000 0.000000 0.000000 0.102179
#
#
# Mechanical properties :
#
#
# Convention : Reuss Voigt Hill
#
# Bulk Modulus (GPa) = 51.68853 52.05589 51.87221
# Shear Modulus (GPa) = 15.81031 17.33296 16.57163
#
# Velocity S-wave (km/s) = 3.38087 3.53993 3.46131
# Velocity P-wave (km/s) = 7.25323 7.37175 7.31273
#
# Compressibility (1/GPa) = 0.01934665
#
# Stress axis : x y z
#
# Youngs Moduli (GPa) = 50.41644 50.41644 41.41595
#
# Poissons Ratio (x) = 0.13908 0.40330
# Poissons Ratio (y) = 0.13908 0.40330
# Poissons Ratio (z) = 0.49094 0.49094
#
# Static dielectric constant tensor:
#      x y z
#    x 2.554750 0.000000 0.000000 
#    y 0.000000 2.554750 0.000000 
#    z 0.000000 0.000000 2.693030 
# 
# 
# High freq. dielectric constant tensor:
#      x y z
#    x 1.501160 0.000000 0.000000 
#    y 0.000000 1.501160 0.000000 
#    z 0.000000 0.000000 1.525400 
# 
# From -- ./inp_files/1419.got.cif
#   From: 2010.03.12/outbox.cif.g09.slc.cpg/sg131_1_cif.got.tgz:1419.got - 2010.04.06 17:36:35.
