data_PCOD8315967
_publ_section_title
;
Structure prediction by ZEFSAII (Michael W. Deem and Ramdas Pophale) SiO2 
 PCOD8315967
Probable space group: P 42/M M C
;
_chemical_formula_sum "Si O2"
_cell_formula_units_Z 56
_cell_length_a 13.072245
_cell_length_b 13.072245
_cell_length_c 17.016992
_cell_angle_alpha 90.000000
_cell_angle_beta 90.000000
_cell_angle_gamma 90.000000
_cell_volume 2907.924673
_symmetry_space_group_name_H-M "P 42/M M C"
_symmetry_group_IT_number 131
_symmetry_cell_setting 'tetragonal'
loop_
_space_group_symop_operation_xyz
x,y,z
-x,-y,z
-y,x,1/2+z
y,-x,1/2+z
-x,y,-z
x,-y,-z
y,x,1/2-z
-y,-x,1/2-z
-x,-y,-z
x,y,-z
y,-x,1/2-z
-y,x,1/2-z
x,-y,z
-x,y,z
-y,-x,1/2+z
y,x,1/2+z
loop_
_atom_site_type_symbol
_atom_site_label
_atom_site_fract_x
_atom_site_fract_y
_atom_site_fract_z
Si Si1 0.747083 0.881957 0.142986
Si Si2 0.119461 0.290808 0.092263
Si Si3 0.222735 0.382008 0.769024
Si Si4 0.387973 0.878657 0.000000
O O1 0.852290 0.820094 0.129567
O O2 0.688139 0.860510 0.223943
O O3 0.670289 0.840834 0.076659
O O4 0.775894 0.000000 0.135910
O O5 0.189345 0.373632 0.139255
O O6 0.000000 0.311950 0.106282
O O7 0.146023 0.297219 0.000000
O O8 0.335199 0.335199 0.750000
O O9 0.220990 0.500000 0.742547
O O10 0.500000 0.828299 0.000000
O O11 0.395911 0.000000 0.000000
#
# Coordination Sequence:
#
# PCOD8315967 Si02
#       4
#    16  16  16   8
#     4  10  19  33  53  80 112 145 184 227 269 319
#     4  10  21  36  54  80 115 152 187 222 263 319
#     4  10  22  39  59  82 107 138 180 231 282 332
#     4   9  16  26  45  73 102 135 175 221 271 315
#
# _framework density 19.257719000000002
#
# number of rings (size 3 to 8) (size 9 to 14) (size 15 to 20)
#    0.000    2.143    1.429    1.714    0.000    4.857 
#    0.000    2.857    0.000    5.143    0.000    4.000 
#    0.000    0.000    0.000    0.000    0.000    0.000 
#
# Total GULP energy -694104.178765 kJ/mol
# GULP energy per Si atom -12394.717478 kJ/mol
# Density = 1.921389 g / cm^3
# Si number density = 19.257719 Si / 1000 Ang^3
#
#
#
# Elastic Constant Matrix: (Units=GPa)
#
#
# Indices 1 2 3 4 5 6 
#
# 1 80.8435 23.6608 29.2360 0.0000 0.0000 0.0000
# 2 23.6608 80.8435 29.2360 0.0000 0.0000 0.0000
# 3 29.2360 29.2360 103.5512 0.0000 0.0000 0.0000
# 4 0.0000 0.0000 0.0000 22.8703 0.0000 0.0000
# 5 0.0000 0.0000 0.0000 0.0000 22.8703 0.0000
# 6 0.0000 0.0000 0.0000 0.0000 0.0000 15.4654
#
#
#
# Elastic Compliance Matrix: (Units=1/GPa)
#
#
# Indices 1 2 3 4 5 6 
#
# 1 0.014426 -0.003062 -0.003208 0.000000 0.000000 0.000000
# 2 -0.003062 0.014426 -0.003208 0.000000 0.000000 0.000000
# 3 -0.003208 -0.003208 0.011469 0.000000 0.000000 0.000000
# 4 0.000000 0.000000 0.000000 0.043725 0.000000 0.000000
# 5 0.000000 0.000000 0.000000 0.000000 0.043725 0.000000
# 6 0.000000 0.000000 0.000000 0.000000 0.000000 0.064660
#
#
# Mechanical properties :
#
#
# Convention : Reuss Voigt Hill
#
# Bulk Modulus (GPa) = 46.80949 47.72266 47.26608
# Shear Modulus (GPa) = 22.88230 24.44823 23.66527
#
# Velocity S-wave (km/s) = 3.45079 3.56691 3.50933
# Velocity P-wave (km/s) = 6.34326 6.46519 6.40451
#
# Compressibility (1/GPa) = 0.02136319
#
# Stress axis : x y z
#
# Youngs Moduli (GPa) = 69.31927 69.31927 87.19315
#
# Poissons Ratio (x) = 0.21224 0.27976
# Poissons Ratio (y) = 0.21224 0.27976
# Poissons Ratio (z) = 0.22241 0.22241
#
# Static dielectric constant tensor:
#      x y z
#    x 3.366420 0.000000 0.000000 
#    y 0.000000 3.366420 0.000000 
#    z 0.000000 0.000000 3.762680 
# 
# 
# High freq. dielectric constant tensor:
#      x y z
#    x 1.729890 0.000000 0.000000 
#    y 0.000000 1.729890 0.000000 
#    z 0.000000 0.000000 1.768570 
# 
# From -- ./inp_files/7229.got.cif
#   From: 2010.03.12/outbox.cif.g09.slc.cpg/sg131_4_cif.got.tgz:7229.got - 2010.04.06 17:36:35.
