data_PCOD8315770
_publ_section_title
;
Structure prediction by ZEFSAII (Michael W. Deem and Ramdas Pophale) SiO2 
 PCOD8315770
Probable space group: P 42/M M C
;
_chemical_formula_sum "Si O2"
_cell_formula_units_Z 96
_cell_length_a 24.074606
_cell_length_b 24.074606
_cell_length_c 9.648169
_cell_angle_alpha 90.000000
_cell_angle_beta 90.000000
_cell_angle_gamma 90.000000
_cell_volume 5591.949988
_symmetry_space_group_name_H-M "P 42/M M C"
_symmetry_group_IT_number 131
_symmetry_cell_setting 'tetragonal'
loop_
_space_group_symop_operation_xyz
x,y,z
-x,-y,z
-y,x,1/2+z
y,-x,1/2+z
-x,y,-z
x,-y,-z
y,x,1/2-z
-y,-x,1/2-z
-x,-y,-z
x,y,-z
y,-x,1/2-z
-y,x,1/2-z
x,-y,z
-x,y,z
-y,-x,1/2+z
y,x,1/2+z
loop_
_atom_site_type_symbol
_atom_site_label
_atom_site_fract_x
_atom_site_fract_y
_atom_site_fract_z
Si Si1 0.937712 0.347405 0.162605
Si Si2 0.771039 0.065601 0.258776
Si Si3 0.639012 0.565921 0.160405
Si Si4 0.435649 0.153463 0.660005
Si Si5 0.565813 0.257697 0.841595
Si Si6 0.934319 0.149826 0.000000
Si Si7 0.065535 0.839653 0.500000
O O1 0.910590 0.291625 0.229339
O O2 0.900672 0.400457 0.200517
O O3 0.000000 0.359206 0.218930
O O4 0.939673 0.336567 0.000000
O O5 0.813242 0.086177 0.373926
O O6 0.764333 0.000000 0.269513
O O7 0.800917 0.086320 0.122523
O O8 0.586344 0.586344 0.250000
O O9 0.637535 0.500000 0.158001
O O10 0.692456 0.588630 0.245242
O O11 0.638809 0.587819 0.000000
O O12 0.425391 0.171749 0.500000
O O13 0.500000 0.138463 0.682845
O O14 0.415842 0.201538 0.764135
O O15 0.500000 0.261455 0.848046
O O16 0.589636 0.260002 0.000000
O O17 0.900725 0.092204 0.000000
O O18 0.000000 0.135357 0.000000
O O19 0.000000 0.850560 0.500000
#
# Coordination Sequence:
#
# PCOD8315770 Si02
#       7
#    16  16  16  16  16   8   8
#     4   9  16  29  50  73  97 129 166 199 236 288
#     4   9  17  31  48  68  93 126 164 194 229 284
#     4  10  20  33  51  75 102 133 169 208 250 297
#     4   9  17  29  48  75 101 125 158 203 251 295
#     4   9  17  31  50  71  97 130 167 202 242 296
#     4  10  18  31  52  70  91 125 157 191 241 297
#     4  10  20  31  46  72  99 119 153 203 245 283
#
# _framework density 17.167535000000001
#
# number of rings (size 3 to 8) (size 9 to 14) (size 15 to 20)
#    0.000    2.667    0.833    1.500    0.000    3.667 
#    1.500    2.500    0.000    5.000    0.000    2.333 
#    0.000    0.000    0.000    0.000    0.000    0.000 
#
# Total GULP energy -1189646.890175 kJ/mol
# GULP energy per Si atom -12392.155106 kJ/mol
# Density = 1.712846 g / cm^3
# Si number density = 17.167535 Si / 1000 Ang^3
#
#
#
# Elastic Constant Matrix: (Units=GPa)
#
#
# Indices 1 2 3 4 5 6 
#
# 1 73.0889 41.9135 44.7090 0.0000 0.0000 0.0000
# 2 41.9135 73.0889 44.7090 0.0000 0.0000 0.0000
# 3 44.7090 44.7090 134.4369 0.0000 0.0000 0.0000
# 4 0.0000 0.0000 0.0000 18.3278 0.0000 0.0000
# 5 0.0000 0.0000 0.0000 0.0000 18.3278 0.0000
# 6 0.0000 0.0000 0.0000 0.0000 0.0000 8.0427
#
#
#
# Elastic Compliance Matrix: (Units=1/GPa)
#
#
# Indices 1 2 3 4 5 6 
#
# 1 0.021902 -0.010174 -0.003900 0.000000 0.000000 0.000000
# 2 -0.010174 0.021902 -0.003900 0.000000 0.000000 0.000000
# 3 -0.003900 -0.003900 0.010033 0.000000 0.000000 0.000000
# 4 0.000000 0.000000 0.000000 0.054562 0.000000 0.000000
# 5 0.000000 0.000000 0.000000 0.000000 0.054562 0.000000
# 6 0.000000 0.000000 0.000000 0.000000 0.000000 0.124336
#
#
# Mechanical properties :
#
#
# Convention : Reuss Voigt Hill
#
# Bulk Modulus (GPa) = 55.90499 60.36415 58.13457
# Shear Modulus (GPa) = 15.18787 18.89186 17.03987
#
# Velocity S-wave (km/s) = 2.97759 3.32089 3.15392
# Velocity P-wave (km/s) = 6.66757 7.06700 6.87019
#
# Compressibility (1/GPa) = 0.01788749
#
# Stress axis : x y z
#
# Youngs Moduli (GPa) = 45.65718 45.65718 99.67425
#
# Poissons Ratio (x) = 0.46453 0.38877
# Poissons Ratio (y) = 0.46453 0.38877
# Poissons Ratio (z) = 0.17808 0.17808
#
# Static dielectric constant tensor:
#      x y z
#    x 3.073700 0.000000 0.000000 
#    y 0.000000 3.073700 0.000000 
#    z 0.000000 0.000000 3.575830 
# 
# 
# High freq. dielectric constant tensor:
#      x y z
#    x 1.643540 0.000000 0.000000 
#    y 0.000000 1.643540 0.000000 
#    z 0.000000 0.000000 1.670400 
# 
# From -- ./inp_files/2309.got.cif
#   From: 2010.03.12/outbox.cif.g09.slc.cpg/sg131_2_cif.got.tgz:2309.got - 2010.04.06 17:36:35.
