data_PCOD8315001
_publ_section_title
;
Structure prediction by ZEFSAII (Michael W. Deem and Ramdas Pophale) SiO2 
 PCOD8315001
Probable space group: P 4/N M M
;
_chemical_formula_sum "Si O2"
_cell_formula_units_Z 104
_cell_length_a 13.945917
_cell_length_b 13.945917
_cell_length_c 33.039608
_cell_angle_alpha 90.000000
_cell_angle_beta 90.000000
_cell_angle_gamma 90.000000
_cell_volume 6425.827137
_symmetry_space_group_name_H-M "P 4/N M M"
_symmetry_group_IT_number 129
_symmetry_cell_setting 'tetragonal'
loop_
_space_group_symop_operation_xyz
x,y,z
1/2-y,x,z
1/2-x,1/2-y,z
y,1/2-x,z
1/2+x,-y,-z
-x,1/2+y,-z
1/2+y,1/2+x,-z
-y,-x,-z
-x,-y,-z
1/2+y,-x,-z
1/2+x,1/2+y,-z
-y,1/2+x,-z
1/2-x,y,z
x,1/2-y,z
1/2-y,1/2-x,z
y,x,z
loop_
_atom_site_type_symbol
_atom_site_label
_atom_site_fract_x
_atom_site_fract_y
_atom_site_fract_z
Si Si1 0.359138 0.512288 0.231428
Si Si2 0.019840 0.862337 0.078980
Si Si3 0.516198 0.363344 0.618496
Si Si4 0.136044 0.643515 0.544536
Si Si5 0.359144 0.640857 0.000000
Si Si6 0.138766 0.640070 0.694815
Si Si7 0.982140 0.138336 0.139664
O O1 0.250000 0.485546 0.239333
O O2 0.414482 0.414482 0.238605
O O3 0.395324 0.590443 0.263624
O O4 0.374460 0.551907 0.186052
O O5 0.998309 0.750000 0.085257
O O6 0.068716 0.883299 0.036042
O O7 0.093806 0.896971 0.113208
O O8 0.919736 0.919736 0.081587
O O9 0.499930 0.250000 0.617473
O O10 0.412576 0.412576 0.619988
O O11 0.571851 0.401539 0.578870
O O12 0.576743 0.396698 0.657358
O O13 0.105223 0.605223 0.500000
O O14 0.250000 0.650149 0.546360
O O15 0.093406 0.750000 0.552453
O O16 0.250000 0.626159 0.015160
O O17 0.250000 0.625612 0.702168
O O18 0.113792 0.750000 0.684594
O O19 0.998420 0.250000 0.128666
O O20 0.082080 0.082080 0.131518
#
# Coordination Sequence:
#
# PCOD8315001 Si02
#       7
#    16  16  16  16   8  16  16
#     4   9  17  29  45  66  92 118 143 173 211 259
#     4  10  20  33  49  69  94 124 157 193 230 268
#     4  10  19  29  42  60  83 112 142 171 205 246
#     4   8  14  26  44  64  84 104 129 167 212 251
#     4   9  17  30  50  74  95 117 148 186 229 275
#     4   9  17  29  45  64  84 107 139 180 221 254
#     4   9  18  31  47  69  95 122 152 185 223 268
#
# _framework density 16.184685999999999
#
# number of rings (size 3 to 8) (size 9 to 14) (size 15 to 20)
#    0.000    2.846    0.000    2.077    0.000    4.308 
#    0.000    3.077    0.000    0.000    0.000    2.154 
#    0.000    6.462    0.000    0.615    0.000    0.154 
#
# Total GULP energy -1289324.563676 kJ/mol
# GULP energy per Si atom -12397.351574 kJ/mol
# Density = 1.614785 g / cm^3
# Si number density = 16.184686 Si / 1000 Ang^3
#
#
#
# Elastic Constant Matrix: (Units=GPa)
#
#
# Indices 1 2 3 4 5 6 
#
# 1 79.4840 48.5792 57.2848 0.0000 0.0000 0.0000
# 2 48.5792 79.4844 57.2847 0.0000 0.0000 0.0000
# 3 57.2848 57.2847 116.6970 0.0000 0.0000 0.0000
# 4 0.0000 0.0000 0.0000 21.4309 0.0000 0.0000
# 5 0.0000 0.0000 0.0000 0.0000 21.4309 0.0000
# 6 0.0000 0.0000 0.0000 0.0000 0.0000 22.3039
#
#
#
# Elastic Compliance Matrix: (Units=1/GPa)
#
#
# Indices 1 2 3 4 5 6 
#
# 1 0.023140 -0.009217 -0.006835 0.000000 0.000000 0.000000
# 2 -0.009217 0.023140 -0.006835 0.000000 0.000000 0.000000
# 3 -0.006835 -0.006835 0.015279 0.000000 0.000000 0.000000
# 4 0.000000 0.000000 0.000000 0.046662 0.000000 0.000000
# 5 0.000000 0.000000 0.000000 0.000000 0.046662 0.000000
# 6 0.000000 0.000000 0.000000 0.000000 0.000000 0.044835
#
#
# Mechanical properties :
#
#
# Convention : Reuss Voigt Hill
#
# Bulk Modulus (GPa) = 63.34364 66.88475 65.11420
# Shear Modulus (GPa) = 19.93994 20.53424 20.23709
#
# Velocity S-wave (km/s) = 3.51383 3.56581 3.53991
# Velocity P-wave (km/s) = 7.46228 7.63996 7.55164
#
# Compressibility (1/GPa) = 0.01578690
#
# Stress axis : x y z
#
# Youngs Moduli (GPa) = 43.21467 43.21512 65.44831
#
# Poissons Ratio (x) = 0.39832 0.44732
# Poissons Ratio (y) = 0.39831 0.44731
# Poissons Ratio (z) = 0.29536 0.29536
#
# Static dielectric constant tensor:
#      x y z
#    x 2.927210 0.000000 0.000000 
#    y 0.000000 2.927200 0.000000 
#    z 0.000000 0.000000 3.346530 
# 
# 
# High freq. dielectric constant tensor:
#      x y z
#    x 1.607270 0.000000 0.000000 
#    y 0.000000 1.607270 0.000000 
#    z 0.000000 0.000000 1.636890 
# 
# From -- ./inp_files/7897.got.cif
#   From: 2010.03.12/outbox.cif.g09.slc.cpg/sg129_4_cif.got.tgz:7897.got - 2010.04.06 17:19:44.
