data_PCOD8315412
_publ_section_title
;
Structure prediction by ZEFSAII (Michael W. Deem and Ramdas Pophale) SiO2 
 PCOD8315412
Probable space group: P 4/N M M
;
_chemical_formula_sum "Si O2"
_cell_formula_units_Z 96
_cell_length_a 22.188074
_cell_length_b 22.188074
_cell_length_c 9.369667
_cell_angle_alpha 90.000000
_cell_angle_beta 90.000000
_cell_angle_gamma 90.000000
_cell_volume 4612.786643
_symmetry_space_group_name_H-M "P 4/N M M"
_symmetry_group_IT_number 129
_symmetry_cell_setting 'tetragonal'
loop_
_space_group_symop_operation_xyz
x,y,z
1/2-y,x,z
1/2-x,1/2-y,z
y,1/2-x,z
1/2+x,-y,-z
-x,1/2+y,-z
1/2+y,1/2+x,-z
-y,-x,-z
-x,-y,-z
1/2+y,-x,-z
1/2+x,1/2+y,-z
-y,1/2+x,-z
1/2-x,y,z
x,1/2-y,z
1/2-y,1/2-x,z
y,x,z
loop_
_atom_site_type_symbol
_atom_site_label
_atom_site_fract_x
_atom_site_fract_y
_atom_site_fract_z
Si Si1 0.010111 0.914284 0.600853
Si Si2 0.322665 0.420094 0.908153
Si Si3 0.316368 0.615489 0.618618
Si Si4 0.974166 0.816133 0.399583
Si Si5 0.685636 0.360769 0.873490
Si Si6 0.029158 0.883522 0.926339
O O1 0.067834 0.932167 0.500000
O O2 0.965656 0.866161 0.522637
O O3 0.028592 0.889497 0.754559
O O4 0.975028 0.975028 0.633011
O O5 0.250000 0.417218 0.942297
O O6 0.353959 0.353959 0.927655
O O7 0.334134 0.440528 0.745650
O O8 0.359874 0.465679 0.011249
O O9 0.361299 0.638702 0.500000
O O10 0.250000 0.643555 0.594295
O O11 0.312316 0.544618 0.626635
O O12 0.343906 0.633491 0.767497
O O13 0.950896 0.750000 0.451250
O O14 0.750000 0.364820 0.794432
O O15 0.669998 0.423494 0.953269
O O16 0.688570 0.311431 0.000000
O O17 0.054013 0.945988 0.000000
#
# Coordination Sequence:
#
# PCOD8315412 Si02
#       6
#    16  16  16  16  16  16
#     4  11  22  36  57  85 117 151 190 239 294 357
#     4  11  24  43  67  94 126 164 209 265 330 404
#     4  11  22  35  52  76 111 156 203 251 301 358
#     4  10  21  38  59  83 113 151 196 247 308 374
#     4  11  22  35  52  73 103 145 191 240 289 340
#     4  11  23  39  60  89 125 162 204 252 311 380
#
# _framework density 20.811715
#
# number of rings (size 3 to 8) (size 9 to 14) (size 15 to 20)
#    0.000    1.167    0.000    8.000    0.000    8.833 
#    0.000    0.000    0.000    0.000    0.000    0.000 
#    0.000    4.000    0.000    0.000    0.000    0.000 
#
# Total GULP energy -1189357.844725 kJ/mol
# GULP energy per Si atom -12389.144216 kJ/mol
# Density = 2.076435 g / cm^3
# Si number density = 20.811715 Si / 1000 Ang^3
#
#
#
# Elastic Constant Matrix: (Units=GPa)
#
#
# Indices 1 2 3 4 5 6 
#
# 1 91.0502 48.3665 29.6792 0.0000 0.0000 0.0000
# 2 48.3665 91.0471 29.6808 0.0000 0.0000 0.0000
# 3 29.6792 29.6808 117.6871 0.0000 0.0000 0.0000
# 4 0.0000 0.0000 0.0000 25.9665 0.0000 0.0000
# 5 0.0000 0.0000 0.0000 0.0000 25.9563 0.0000
# 6 0.0000 0.0000 0.0000 0.0000 0.0000 16.3865
#
#
#
# Elastic Compliance Matrix: (Units=1/GPa)
#
#
# Indices 1 2 3 4 5 6 
#
# 1 0.015732 -0.007697 -0.002026 0.000000 0.000000 0.000000
# 2 -0.007697 0.015733 -0.002027 0.000000 0.000000 0.000000
# 3 -0.002026 -0.002027 0.009519 0.000000 0.000000 0.000000
# 4 0.000000 0.000000 0.000000 0.038511 0.000000 0.000000
# 5 0.000000 0.000000 0.000000 0.000000 0.038526 0.000000
# 6 0.000000 0.000000 0.000000 0.000000 0.000000 0.061026
#
#
# Mechanical properties :
#
#
# Convention : Reuss Voigt Hill
#
# Bulk Modulus (GPa) = 57.19372 57.24859 57.22115
# Shear Modulus (GPa) = 23.99520 26.46570 25.23045
#
# Velocity S-wave (km/s) = 3.39922 3.56992 3.48562
# Velocity P-wave (km/s) = 6.55343 6.67533 6.61466
#
# Compressibility (1/GPa) = 0.01748444
#
# Stress axis : x y z
#
# Youngs Moduli (GPa) = 63.56481 63.56184 105.04996
#
# Poissons Ratio (x) = 0.48921 0.21286
# Poissons Ratio (y) = 0.48924 0.21292
# Poissons Ratio (z) = 0.12880 0.12883
#
# Static dielectric constant tensor:
#      x y z
#    x 4.242890 0.000000 0.000000 
#    y 0.000000 4.242830 0.000000 
#    z 0.000000 0.000000 3.702670 
# 
# 
# High freq. dielectric constant tensor:
#      x y z
#    x 1.810160 0.000000 0.000000 
#    y 0.000000 1.810160 0.000000 
#    z 0.000000 0.000000 1.816860 
# 
# From -- ./inp_files/2629.got.cif
#   From: 2010.03.12/outbox.cif.g09.slc.cpg/sg129_2_cif.got.tgz:2629.got - 2010.04.06 17:19:44.
