data_PCOD8315185
_publ_section_title
;
Structure prediction by ZEFSAII (Michael W. Deem and Ramdas Pophale) SiO2 
 PCOD8315185
Probable space group: P 4/N M M
;
_chemical_formula_sum "Si O2"
_cell_formula_units_Z 88
_cell_length_a 13.466796
_cell_length_b 13.466796
_cell_length_c 28.741117
_cell_angle_alpha 90.000000
_cell_angle_beta 90.000000
_cell_angle_gamma 90.000000
_cell_volume 5212.333619
_symmetry_space_group_name_H-M "P 4/N M M"
_symmetry_group_IT_number 129
_symmetry_cell_setting 'tetragonal'
loop_
_space_group_symop_operation_xyz
x,y,z
1/2-y,x,z
1/2-x,1/2-y,z
y,1/2-x,z
1/2+x,-y,-z
-x,1/2+y,-z
1/2+y,1/2+x,-z
-y,-x,-z
-x,-y,-z
1/2+y,-x,-z
1/2+x,1/2+y,-z
-y,1/2+x,-z
1/2-x,y,z
x,1/2-y,z
1/2-y,1/2-x,z
y,x,z
loop_
_atom_site_type_symbol
_atom_site_label
_atom_site_fract_x
_atom_site_fract_y
_atom_site_fract_z
Si Si1 0.473636 0.865939 0.039387
Si Si2 0.499241 0.000760 0.616938
Si Si3 0.135631 0.135631 0.552835
Si Si4 0.364369 0.864602 0.133092
Si Si5 0.864316 0.864316 0.554364
Si Si6 0.364233 0.635669 0.319178
Si Si7 0.475327 0.864105 0.774321
O O1 0.496934 0.750000 0.036527
O O2 0.429197 0.896958 0.089085
O O3 0.576395 0.923605 0.031117
O O4 0.393986 0.893986 0.000000
O O5 0.432391 0.067610 0.584156
O O6 0.567029 0.070403 0.648194
O O7 0.568323 0.931678 0.586268
O O8 0.250000 0.111929 0.563977
O O9 0.112110 0.112110 0.499226
O O10 0.250000 0.885803 0.121014
O O11 0.380873 0.750000 0.145485
O O12 0.399699 0.927628 0.177317
O O13 0.750000 0.887998 0.565507
O O14 0.250000 0.618940 0.333867
O O15 0.395097 0.750000 0.324704
O O16 0.380814 0.605788 0.265693
O O17 0.508762 0.750000 0.776823
O O18 0.573230 0.926771 0.763303
#
# Coordination Sequence:
#
# PCOD8315185 Si02
#       7
#    16   8   8  16   8  16  16
#     4  10  20  33  50  74 102 131 167 212 260 306
#     4  12  19  32  54  80 100 130 169 210 252 294
#     4   9  19  35  53  75 103 135 171 206 244 294
#     4   9  17  30  51  75  97 127 167 207 248 299
#     4   9  19  35  53  75 105 137 167 202 244 296
#     4  10  21  35  50  72 102 132 165 208 254 300
#     4  10  19  33  50  71  98 132 169 206 248 298
#
# _framework density 16.883033999999999
#
# number of rings (size 3 to 8) (size 9 to 14) (size 15 to 20)
#    0.000    2.182    0.909    3.545    0.000    3.455 
#    0.000    0.000    0.000    0.000    0.000   10.182 
#    0.000    0.000    0.000    0.000    0.000    0.000 
#
# Total GULP energy -1091366.367183 kJ/mol
# GULP energy per Si atom -12401.890536 kJ/mol
# Density = 1.684461 g / cm^3
# Si number density = 16.883034 Si / 1000 Ang^3
#
#
#
# Elastic Constant Matrix: (Units=GPa)
#
#
# Indices 1 2 3 4 5 6 
#
# 1 97.4589 68.1037 65.8345 0.0000 0.0000 0.0000
# 2 68.1037 97.4589 65.8345 0.0000 0.0000 0.0000
# 3 65.8345 65.8345 114.2266 0.0000 0.0000 0.0000
# 4 0.0000 0.0000 0.0000 30.6405 0.0000 0.0000
# 5 0.0000 0.0000 0.0000 0.0000 30.6405 0.0000
# 6 0.0000 0.0000 0.0000 0.0000 0.0000 30.0983
#
#
#
# Elastic Compliance Matrix: (Units=1/GPa)
#
#
# Indices 1 2 3 4 5 6 
#
# 1 0.022608 -0.011457 -0.006427 0.000000 0.000000 0.000000
# 2 -0.011457 0.022608 -0.006427 0.000000 0.000000 0.000000
# 3 -0.006427 -0.006427 0.016163 0.000000 0.000000 0.000000
# 4 0.000000 0.000000 0.000000 0.032637 0.000000 0.000000
# 5 0.000000 0.000000 0.000000 0.000000 0.032637 0.000000
# 6 0.000000 0.000000 0.000000 0.000000 0.000000 0.033224
#
#
# Mechanical properties :
#
#
# Convention : Reuss Voigt Hill
#
# Bulk Modulus (GPa) = 78.38583 78.74329 78.56456
# Shear Modulus (GPa) = 23.50153 25.56733 24.53443
#
# Velocity S-wave (km/s) = 3.73503 3.89573 3.81622
# Velocity P-wave (km/s) = 8.07032 8.18397 8.12734
#
# Compressibility (1/GPa) = 0.01275741
#
# Stress axis : x y z
#
# Youngs Moduli (GPa) = 44.23138 44.23138 61.86958
#
# Poissons Ratio (x) = 0.50676 0.39764
# Poissons Ratio (y) = 0.50676 0.39764
# Poissons Ratio (z) = 0.28428 0.28428
#
# Static dielectric constant tensor:
#      x y z
#    x 3.101080 0.000000 0.000000 
#    y 0.000000 3.101080 0.000000 
#    z 0.000000 0.000000 3.240810 
# 
# 
# High freq. dielectric constant tensor:
#      x y z
#    x 1.649770 0.000000 0.000000 
#    y 0.000000 1.649770 0.000000 
#    z 0.000000 0.000000 1.662380 
# 
# From -- ./inp_files/7810.got.cif
#   From: 2010.03.12/outbox.cif.g09.slc.cpg/sg129_4_cif.got.tgz:7810.got - 2010.04.06 17:19:44.
