data_PCOD8315454
_publ_section_title
;
Structure prediction by ZEFSAII (Michael W. Deem and Ramdas Pophale) SiO2 
 PCOD8315454
Probable space group: P 4/N M M
;
_chemical_formula_sum "Si O2"
_cell_formula_units_Z 88
_cell_length_a 14.302246
_cell_length_b 14.302246
_cell_length_c 27.585879
_cell_angle_alpha 90.000000
_cell_angle_beta 90.000000
_cell_angle_gamma 90.000000
_cell_volume 5642.808531
_symmetry_space_group_name_H-M "P 4/N M M"
_symmetry_group_IT_number 129
_symmetry_cell_setting 'tetragonal'
loop_
_space_group_symop_operation_xyz
x,y,z
1/2-y,x,z
1/2-x,1/2-y,z
y,1/2-x,z
1/2+x,-y,-z
-x,1/2+y,-z
1/2+y,1/2+x,-z
-y,-x,-z
-x,-y,-z
1/2+y,-x,-z
1/2+x,1/2+y,-z
-y,1/2+x,-z
1/2-x,y,z
x,1/2-y,z
1/2-y,1/2-x,z
y,x,z
loop_
_atom_site_type_symbol
_atom_site_label
_atom_site_fract_x
_atom_site_fract_y
_atom_site_fract_z
Si Si1 0.857904 0.009647 0.694040
Si Si2 0.360648 0.853592 0.222812
Si Si3 0.510939 0.358543 0.029176
Si Si4 0.007646 0.643267 0.859088
Si Si5 0.357662 0.642339 0.500000
Si Si6 0.007871 0.642852 0.584485
O O1 0.750000 0.985207 0.704643
O O2 0.894805 0.091067 0.729481
O O3 0.872360 0.045766 0.639080
O O4 0.915364 0.915364 0.703929
O O5 0.250000 0.844363 0.223580
O O6 0.406096 0.750000 0.222842
O O7 0.393125 0.907355 0.174249
O O8 0.496425 0.250000 0.014439
O O9 0.414848 0.414848 0.017900
O O10 0.538531 0.367975 0.085374
O O11 0.597545 0.402456 0.000000
O O12 0.982169 0.750000 0.846609
O O13 0.915484 0.584517 0.847126
O O14 0.250000 0.622941 0.511470
O O15 0.391876 0.587186 0.452502
O O16 0.981623 0.750000 0.575263
O O17 0.913729 0.586272 0.574901
#
# Coordination Sequence:
#
# PCOD8315454 Si02
#       6
#    16  16  16  16   8  16
#     4   9  17  28  42  61  84 109 137 169 206 250
#     4   9  17  28  41  58  82 111 140 169 201 239
#     4   9  18  31  46  66  91 118 150 187 225 267
#     4   9  17  29  45  65  89 115 142 174 213 257
#     4   9  17  28  42  60  81 107 140 174 206 241
#     4   9  17  28  42  60  82 108 136 168 207 249
#
# _framework density 15.59507
#
# number of rings (size 3 to 8) (size 9 to 14) (size 15 to 20)
#    0.000    3.000    0.000    0.818    0.000    2.364 
#    0.000    9.091    0.000    3.273    0.000    0.000 
#    0.000    5.818    0.000   13.455    0.000    1.091 
#
# Total GULP energy -1091001.289147 kJ/mol
# GULP energy per Si atom -12397.741922 kJ/mol
# Density = 1.555958 g / cm^3
# Si number density = 15.595070 Si / 1000 Ang^3
#
#
#
# Elastic Constant Matrix: (Units=GPa)
#
#
# Indices 1 2 3 4 5 6 
#
# 1 89.5335 48.5954 58.0710 0.0000 0.0000 0.0000
# 2 48.5954 89.5346 58.0709 0.0000 0.0000 0.0000
# 3 58.0710 58.0709 100.3530 0.0000 0.0000 0.0000
# 4 0.0000 0.0000 0.0000 25.5574 0.0000 0.0000
# 5 0.0000 0.0000 0.0000 0.0000 25.5574 0.0000
# 6 0.0000 0.0000 0.0000 0.0000 0.0000 17.3094
#
#
#
# Elastic Compliance Matrix: (Units=1/GPa)
#
#
# Indices 1 2 3 4 5 6 
#
# 1 0.019264 -0.005163 -0.008159 0.000000 0.000000 0.000000
# 2 -0.005163 0.019263 -0.008159 0.000000 0.000000 0.000000
# 3 -0.008159 -0.008159 0.019408 0.000000 0.000000 0.000000
# 4 0.000000 0.000000 0.000000 0.039128 0.000000 0.000000
# 5 0.000000 0.000000 0.000000 0.000000 0.039128 0.000000
# 6 0.000000 0.000000 0.000000 0.000000 0.000000 0.057772
#
#
# Mechanical properties :
#
#
# Convention : Reuss Voigt Hill
#
# Bulk Modulus (GPa) = 66.79608 67.65507 67.22558
# Shear Modulus (GPa) = 20.66835 21.33043 20.99939
#
# Velocity S-wave (km/s) = 3.64443 3.70235 3.67350
# Velocity P-wave (km/s) = 7.78677 7.85831 7.82262
#
# Compressibility (1/GPa) = 0.01497094
#
# Stress axis : x y z
#
# Youngs Moduli (GPa) = 51.91131 51.91251 51.52577
#
# Poissons Ratio (x) = 0.26804 0.42042
# Poissons Ratio (y) = 0.26804 0.42040
# Poissons Ratio (z) = 0.42356 0.42356
#
# Static dielectric constant tensor:
#      x y z
#    x 2.934310 0.000000 0.000000 
#    y 0.000000 2.934290 0.000000 
#    z 0.000000 0.000000 3.175630 
# 
# 
# High freq. dielectric constant tensor:
#      x y z
#    x 1.581440 0.000000 0.000000 
#    y 0.000000 1.581440 0.000000 
#    z 0.000000 0.000000 1.610740 
# 
# From -- ./inp_files/6976.got.cif
#   From: 2010.03.12/outbox.cif.g09.slc.cpg/sg129_4_cif.got.tgz:6976.got - 2010.04.06 17:19:44.
