data_PCOD8315452
_publ_section_title
;
Structure prediction by ZEFSAII (Michael W. Deem and Ramdas Pophale) SiO2 
 PCOD8315452
Probable space group: P 4/N M M
;
_chemical_formula_sum "Si O2"
_cell_formula_units_Z 112
_cell_length_a 17.774094
_cell_length_b 17.774094
_cell_length_c 22.533546
_cell_angle_alpha 90.000000
_cell_angle_beta 90.000000
_cell_angle_gamma 90.000000
_cell_volume 7118.762193
_symmetry_space_group_name_H-M "P 4/N M M"
_symmetry_group_IT_number 129
_symmetry_cell_setting 'tetragonal'
loop_
_space_group_symop_operation_xyz
x,y,z
1/2-y,x,z
1/2-x,1/2-y,z
y,1/2-x,z
1/2+x,-y,-z
-x,1/2+y,-z
1/2+y,1/2+x,-z
-y,-x,-z
-x,-y,-z
1/2+y,-x,-z
1/2+x,1/2+y,-z
-y,1/2+x,-z
1/2-x,y,z
x,1/2-y,z
1/2-y,1/2-x,z
y,x,z
loop_
_atom_site_type_symbol
_atom_site_label
_atom_site_fract_x
_atom_site_fract_y
_atom_site_fract_z
Si Si1 0.428030 0.949250 0.869293
Si Si2 0.335615 0.665057 0.676158
Si Si3 0.835916 0.953933 0.366571
Si Si4 0.164373 0.457530 0.951256
Si Si5 0.835260 0.096773 0.444471
Si Si6 0.663283 0.959229 0.910197
Si Si7 0.965558 0.084655 0.734090
O O1 0.464899 0.866401 0.877185
O O2 0.396154 0.962447 0.803441
O O3 0.494948 0.005053 0.885970
O O4 0.360701 0.967668 0.915024
O O5 0.250000 0.635484 0.691027
O O6 0.345073 0.750000 0.697912
O O7 0.346614 0.661085 0.605232
O O8 0.401718 0.617899 0.708289
O O9 0.750000 0.931338 0.367294
O O10 0.880773 0.880773 0.386499
O O11 0.855909 0.017988 0.414087
O O12 0.857505 0.979929 0.300067
O O13 0.250000 0.437891 0.935047
O O14 0.114619 0.385381 0.932490
O O15 0.155294 0.475620 0.020274
O O16 0.889943 0.110058 0.500000
O O17 0.750000 0.097442 0.468227
O O18 0.750000 0.945276 0.891676
O O19 0.615180 0.884821 0.892265
O O20 0.999228 0.999228 0.724777
#
# Coordination Sequence:
#
# PCOD8315452 Si02
#       7
#    16  16  16  16  16  16  16
#     4   9  17  29  45  62  81 111 146 174 206 253
#     4   9  17  28  42  62  88 114 138 169 212 259
#     4   9  18  31  45  63  88 116 146 180 214 249
#     4   9  17  28  43  63  85 109 138 174 214 254
#     4   9  16  26  42  64  88 113 141 173 210 253
#     4   9  17  29  45  65  87 109 136 172 212 255
#     4   9  17  29  44  61  82 109 141 176 211 246
#
# _framework density 15.733072
#
# number of rings (size 3 to 8) (size 9 to 14) (size 15 to 20)
#    0.000    3.000    0.000    2.143    0.000    4.857 
#    0.000    1.429    0.000    0.429    0.000    6.000 
#    0.000    0.286    0.000    0.000    0.000    7.143 
#
# Total GULP energy -1387965.377715 kJ/mol
# GULP energy per Si atom -12392.548015 kJ/mol
# Density = 1.569726 g / cm^3
# Si number density = 15.733072 Si / 1000 Ang^3
#
#
#
# Elastic Constant Matrix: (Units=GPa)
#
#
# Indices 1 2 3 4 5 6 
#
# 1 79.5843 55.8073 36.9483 0.0000 0.0000 0.0000
# 2 55.8073 79.5848 36.9486 0.0000 0.0000 0.0000
# 3 36.9483 36.9486 67.6358 0.0000 0.0000 0.0000
# 4 0.0000 0.0000 0.0000 14.9726 0.0000 0.0000
# 5 0.0000 0.0000 0.0000 0.0000 14.9723 0.0000
# 6 0.0000 0.0000 0.0000 0.0000 0.0000 25.0302
#
#
#
# Elastic Compliance Matrix: (Units=1/GPa)
#
#
# Indices 1 2 3 4 5 6 
#
# 1 0.026290 -0.015767 -0.005749 0.000000 0.000000 0.000000
# 2 -0.015767 0.026290 -0.005749 0.000000 0.000000 0.000000
# 3 -0.005749 -0.005749 0.021066 0.000000 0.000000 0.000000
# 4 0.000000 0.000000 0.000000 0.066788 0.000000 0.000000
# 5 0.000000 0.000000 0.000000 0.000000 0.066790 0.000000
# 6 0.000000 0.000000 0.000000 0.000000 0.000000 0.039952
#
#
# Mechanical properties :
#
#
# Convention : Reuss Voigt Hill
#
# Bulk Modulus (GPa) = 52.30714 54.02369 53.16542
# Shear Modulus (GPa) = 16.22961 17.46841 16.84901
#
# Velocity S-wave (km/s) = 3.21527 3.33573 3.27606
# Velocity P-wave (km/s) = 6.86315 7.01772 6.94086
#
# Compressibility (1/GPa) = 0.01911785
#
# Stress axis : x y z
#
# Youngs Moduli (GPa) = 38.03666 38.03685 47.46933
#
# Poissons Ratio (x) = 0.59971 0.27290
# Poissons Ratio (y) = 0.59971 0.27290
# Poissons Ratio (z) = 0.21867 0.21867
#
# Static dielectric constant tensor:
#      x y z
#    x 2.987110 0.000000 0.000000 
#    y 0.000000 2.987110 0.000000 
#    z 0.000000 0.000000 2.872260 
# 
# 
# High freq. dielectric constant tensor:
#      x y z
#    x 1.591720 0.000000 0.000000 
#    y 0.000000 1.591720 0.000000 
#    z 0.000000 0.000000 1.594540 
# 
# From -- ./inp_files/6634.got.cif
#   From: 2010.03.12/outbox.cif.g09.slc.cpg/sg129_4_cif.got.tgz:6634.got - 2010.04.06 17:19:44.
