data_PCOD8315732
_publ_section_title
;
Structure prediction by ZEFSAII (Michael W. Deem and Ramdas Pophale) SiO2 
 PCOD8315732
Probable space group: P 42/M M C
;
_chemical_formula_sum "Si O2"
_cell_formula_units_Z 88
_cell_length_a 18.143854
_cell_length_b 18.143854
_cell_length_c 14.272085
_cell_angle_alpha 90.000000
_cell_angle_beta 90.000000
_cell_angle_gamma 90.000000
_cell_volume 4698.362361
_symmetry_space_group_name_H-M "P 42/M M C"
_symmetry_group_IT_number 131
_symmetry_cell_setting 'tetragonal'
loop_
_space_group_symop_operation_xyz
x,y,z
-x,-y,z
-y,x,1/2+z
y,-x,1/2+z
-x,y,-z
x,-y,-z
y,x,1/2-z
-y,-x,1/2-z
-x,-y,-z
x,y,-z
y,-x,1/2-z
-y,x,1/2-z
x,-y,z
-x,y,z
-y,-x,1/2+z
y,x,1/2+z
loop_
_atom_site_type_symbol
_atom_site_label
_atom_site_fract_x
_atom_site_fract_y
_atom_site_fract_z
Si Si1 0.803283 0.086207 0.100313
Si Si2 0.587935 0.000000 0.393275
Si Si3 0.584861 0.855270 0.293287
Si Si4 0.085321 0.085321 0.250000
Si Si5 0.637252 0.914118 0.891556
Si Si6 0.585406 0.585406 0.250000
Si Si7 0.412727 0.709767 0.606239
O O1 0.867460 0.117565 0.164912
O O2 0.721523 0.100633 0.138271
O O3 0.815465 0.000000 0.088583
O O4 0.812474 0.125387 0.000000
O O5 0.620794 0.072690 0.342381
O O6 0.500000 0.000000 0.386342
O O7 0.615086 0.000000 0.500000
O O8 0.500000 0.852747 0.319991
O O9 0.592096 0.862596 0.180166
O O10 0.620067 0.780220 0.336071
O O11 0.000000 0.100421 0.227931
O O12 0.615751 0.000000 0.878584
O O13 0.622225 0.891357 0.000000
O O14 0.599093 0.500000 0.277425
O O15 0.634864 0.609200 0.160829
O O16 0.380174 0.707923 0.500000
O O17 0.500000 0.715568 0.600591
#
# Coordination Sequence:
#
# PCOD8315732 Si02
#       7
#    16   8  16   8  16   8  16
#     4   8  15  28  45  65  89 119 152 186 232 289
#     4   9  16  26  43  69  99 131 167 202 234 280
#     4  10  18  29  47  74 103 132 167 205 243 287
#     4   9  16  26  45  72  90 106 141 190 240 285
#     4   9  17  30  47  66  92 131 173 206 242 288
#     4   9  18  34  57  82 102 128 173 218 258 313
#     4   9  18  33  53  77 106 136 164 204 259 310
#
# _framework density 18.729932000000002
#
# number of rings (size 3 to 8) (size 9 to 14) (size 15 to 20)
#    0.000    3.000    0.909    1.636    0.000    3.273 
#    0.000    6.364    0.000    7.636    0.000    0.000 
#    0.000    0.000    0.000    0.000    0.000    0.000 
#
# Total GULP energy -1090388.156814 kJ/mol
# GULP energy per Si atom -12390.774509 kJ/mol
# Density = 1.868730 g / cm^3
# Si number density = 18.729932 Si / 1000 Ang^3
#
#
#
# Elastic Constant Matrix: (Units=GPa)
#
#
# Indices 1 2 3 4 5 6 
#
# 1 58.8721 22.4174 42.6257 0.0000 0.0000 0.0000
# 2 22.4174 58.8721 42.6257 0.0000 0.0000 0.0000
# 3 42.6257 42.6257 138.3428 0.0000 0.0000 0.0000
# 4 0.0000 0.0000 0.0000 37.4134 0.0000 0.0000
# 5 0.0000 0.0000 0.0000 0.0000 37.4134 0.0000
# 6 0.0000 0.0000 0.0000 0.0000 0.0000 10.3709
#
#
#
# Elastic Compliance Matrix: (Units=1/GPa)
#
#
# Indices 1 2 3 4 5 6 
#
# 1 0.022803 -0.004628 -0.005600 0.000000 0.000000 0.000000
# 2 -0.004628 0.022803 -0.005600 0.000000 0.000000 0.000000
# 3 -0.005600 -0.005600 0.010679 0.000000 0.000000 0.000000
# 4 0.000000 0.000000 0.000000 0.026728 0.000000 0.000000
# 5 0.000000 0.000000 0.000000 0.000000 0.026728 0.000000
# 6 0.000000 0.000000 0.000000 0.000000 0.000000 0.096424
#
#
# Mechanical properties :
#
#
# Convention : Reuss Voigt Hill
#
# Bulk Modulus (GPa) = 40.60288 52.38049 46.49168
# Shear Modulus (GPa) = 20.32260 26.93410 23.62835
#
# Velocity S-wave (km/s) = 3.29756 3.79624 3.55565
# Velocity P-wave (km/s) = 6.01861 6.87330 6.46010
#
# Compressibility (1/GPa) = 0.02462880
#
# Stress axis : x y z
#
# Youngs Moduli (GPa) = 43.85402 43.85402 93.63968
#
# Poissons Ratio (x) = 0.20298 0.52437
# Poissons Ratio (y) = 0.20298 0.52437
# Poissons Ratio (z) = 0.24558 0.24558
#
# Static dielectric constant tensor:
#      x y z
#    x 3.243920 0.000000 0.000000 
#    y 0.000000 3.243920 0.000000 
#    z 0.000000 0.000000 3.222890 
# 
# 
# High freq. dielectric constant tensor:
#      x y z
#    x 1.696150 0.000000 0.000000 
#    y 0.000000 1.696150 0.000000 
#    z 0.000000 0.000000 1.736110 
# 
# From -- ./inp_files/5951.got.cif
#   From: 2010.03.12/outbox.cif.g09.slc.cpg/sg131_3_cif.got.tgz:5951.got - 2010.04.06 17:36:35.
