data_PCOD8315384
_publ_section_title
;
Structure prediction by ZEFSAII (Michael W. Deem and Ramdas Pophale) SiO2 
 PCOD8315384
Probable space group: P 4/N M M
;
_chemical_formula_sum "Si O2"
_cell_formula_units_Z 96
_cell_length_a 22.796549
_cell_length_b 22.796549
_cell_length_c 9.897403
_cell_angle_alpha 90.000000
_cell_angle_beta 90.000000
_cell_angle_gamma 90.000000
_cell_volume 5143.508583
_symmetry_space_group_name_H-M "P 4/N M M"
_symmetry_group_IT_number 129
_symmetry_cell_setting 'tetragonal'
loop_
_space_group_symop_operation_xyz
x,y,z
1/2-y,x,z
1/2-x,1/2-y,z
y,1/2-x,z
1/2+x,-y,-z
-x,1/2+y,-z
1/2+y,1/2+x,-z
-y,-x,-z
-x,-y,-z
1/2+y,-x,-z
1/2+x,1/2+y,-z
-y,1/2+x,-z
1/2-x,y,z
x,1/2-y,z
1/2-y,1/2-x,z
y,x,z
loop_
_atom_site_type_symbol
_atom_site_label
_atom_site_fract_x
_atom_site_fract_y
_atom_site_fract_z
Si Si1 0.914491 0.681752 0.493790
Si Si2 0.185186 0.681497 0.848307
Si Si3 0.012606 0.392011 0.305194
Si Si4 0.107038 0.879186 0.355116
Si Si5 0.682032 0.996167 0.248413
Si Si6 0.095485 0.500528 0.000544
O O1 0.900842 0.750000 0.519200
O O2 0.854200 0.645800 0.508413
O O3 0.961313 0.661580 0.607686
O O4 0.939338 0.671644 0.342466
O O5 0.250000 0.654970 0.816980
O O6 0.187651 0.750000 0.825187
O O7 0.134968 0.655459 0.755732
O O8 0.166338 0.666338 0.000000
O O9 0.049795 0.450206 0.333536
O O10 0.947518 0.409185 0.350491
O O11 0.013373 0.375928 0.146142
O O12 0.135215 0.864786 0.500000
O O13 0.050716 0.838818 0.336973
O O14 0.750000 0.002854 0.210373
O O15 0.646564 0.994726 0.109063
O O16 0.046350 0.453651 0.960150
O O17 0.065212 0.565212 0.000000
#
# Coordination Sequence:
#
# PCOD8315384 Si02
#       6
#    16  16  16  16  16  16
#     4  10  22  41  63  88 119 152 189 235 290 352
#     4   9  21  41  60  78 106 150 201 247 287 330
#     4  10  22  38  58  85 117 151 190 235 286 344
#     4  12  23  36  55  83 115 153 196 236 288 344
#     4  11  23  37  55  86 122 154 193 241 291 342
#     4  10  20  36  60  86 114 152 198 239 289 353
#
# _framework density 18.664303
#
# number of rings (size 3 to 8) (size 9 to 14) (size 15 to 20)
#    0.000    1.667    3.333    1.500    2.333    3.833 
#    0.000    0.833    0.000    0.000    0.000    0.000 
#    0.000    4.000    0.000    0.000    0.000    0.000 
#
# Total GULP energy -1190449.662607 kJ/mol
# GULP energy per Si atom -12400.517319 kJ/mol
# Density = 1.862182 g / cm^3
# Si number density = 18.664303 Si / 1000 Ang^3
#
#
#
# Elastic Constant Matrix: (Units=GPa)
#
#
# Indices 1 2 3 4 5 6 
#
# 1 79.0953 71.0207 66.0099 0.0000 0.0000 0.0000
# 2 71.0207 79.0957 66.0100 0.0000 0.0000 0.0000
# 3 66.0099 66.0100 105.9847 0.0000 0.0000 0.0000
# 4 0.0000 0.0000 0.0000 32.5012 0.0000 0.0000
# 5 0.0000 0.0000 0.0000 0.0000 32.5002 0.0000
# 6 0.0000 0.0000 0.0000 0.0000 0.0000 22.8823
#
#
#
# Elastic Compliance Matrix: (Units=1/GPa)
#
#
# Indices 1 2 3 4 5 6 
#
# 1 0.069287 -0.054557 -0.009174 0.000000 0.000000 0.000000
# 2 -0.054557 0.069286 -0.009174 0.000000 0.000000 0.000000
# 3 -0.009174 -0.009174 0.020863 0.000000 0.000000 0.000000
# 4 0.000000 0.000000 0.000000 0.030768 0.000000 0.000000
# 5 0.000000 0.000000 0.000000 0.000000 0.030769 0.000000
# 6 0.000000 0.000000 0.000000 0.000000 0.000000 0.043702
#
#
# Mechanical properties :
#
#
# Convention : Reuss Voigt Hill
#
# Bulk Modulus (GPa) = 73.38809 74.47299 73.93054
# Shear Modulus (GPa) = 12.04743 21.65241 16.84992
#
# Velocity S-wave (km/s) = 2.54339 3.40972 3.00790
# Velocity P-wave (km/s) = 6.93040 7.44913 7.19444
#
# Compressibility (1/GPa) = 0.01362619
#
# Stress axis : x y z
#
# Youngs Moduli (GPa) = 14.43278 14.43290 47.93213
#
# Poissons Ratio (x) = 0.78741 0.43973
# Poissons Ratio (y) = 0.78741 0.43972
# Poissons Ratio (z) = 0.13241 0.13240
#
# Static dielectric constant tensor:
#      x y z
#    x 1.578420 0.000000 0.000000 
#    y 0.000000 1.577610 0.000000 
#    z 0.000000 0.000000 3.881930 
# 
# 
# High freq. dielectric constant tensor:
#      x y z
#    x 1.718180 0.000000 0.000000 
#    y 0.000000 1.718180 0.000000 
#    z 0.000000 0.000000 1.738140 
# 
# From -- ./inp_files/2596.got.cif
#   From: 2010.03.12/outbox.cif.g09.slc.cpg/sg129_2_cif.got.tgz:2596.got - 2010.04.06 17:19:44.
