data_PCOD8315945
_publ_section_title
;
Structure prediction by ZEFSAII (Michael W. Deem and Ramdas Pophale) SiO2 
 PCOD8315945
Probable space group: P 42/M M C
;
_chemical_formula_sum "Si O2"
_cell_formula_units_Z 48
_cell_length_a 7.907480
_cell_length_b 7.907480
_cell_length_c 37.059718
_cell_angle_alpha 90.000000
_cell_angle_beta 90.000000
_cell_angle_gamma 90.000000
_cell_volume 2317.278940
_symmetry_space_group_name_H-M "P 42/M M C"
_symmetry_group_IT_number 131
_symmetry_cell_setting 'tetragonal'
loop_
_space_group_symop_operation_xyz
x,y,z
-x,-y,z
-y,x,1/2+z
y,-x,1/2+z
-x,y,-z
x,-y,-z
y,x,1/2-z
-y,-x,1/2-z
-x,-y,-z
x,y,-z
y,-x,1/2-z
-y,x,1/2-z
x,-y,z
-x,y,z
-y,-x,1/2+z
y,x,1/2+z
loop_
_atom_site_type_symbol
_atom_site_label
_atom_site_fract_x
_atom_site_fract_y
_atom_site_fract_z
Si Si1 0.701882 0.500000 0.087716
Si Si2 0.700683 0.812243 0.959550
Si Si3 0.692076 0.186307 0.213599
Si Si4 0.500000 0.192719 0.331090
O O1 0.500000 0.500000 0.091610
O O2 0.769324 0.333094 0.066959
O O3 0.787981 0.500000 0.126300
O O4 0.500000 0.803878 0.960277
O O5 0.759338 0.000000 0.946487
O O6 0.769592 0.778444 0.000000
O O7 0.800165 0.199836 0.250000
O O8 0.500000 0.203636 0.226468
O O9 0.725573 0.328926 0.183993
O O10 0.727368 0.000000 0.196498
O O11 0.500000 0.000000 0.319174
#
# Coordination Sequence:
#
# PCOD8315945 Si02
#       4
#     8  16  16   8
#     4  10  19  32  52  78 110 148 192 242 298 349
#     4   8  14  26  48  79 110 141 185 243 301 355
#     4  11  23  41  66  92 117 149 193 247 303 362
#     4  12  26  41  57  85 122 164 204 243 299 364
#
# _framework density 20.713949
#
# number of rings (size 3 to 8) (size 9 to 14) (size 15 to 20)
#    0.000    2.000    1.667    4.000    0.000    5.667 
#    0.000    3.333    0.000    2.000    0.000    2.333 
#    0.000    0.000    0.000    0.000    0.000    0.000 
#
# Total GULP energy -595055.332369 kJ/mol
# GULP energy per Si atom -12396.986091 kJ/mol
# Density = 2.066680 g / cm^3
# Si number density = 20.713949 Si / 1000 Ang^3
#
#
#
# Elastic Constant Matrix: (Units=GPa)
#
#
# Indices 1 2 3 4 5 6 
#
# 1 123.3027 43.0798 48.0164 0.0000 0.0000 0.0000
# 2 43.0798 123.3037 48.0169 0.0000 0.0000 0.0000
# 3 48.0164 48.0169 121.3745 0.0000 0.0000 0.0000
# 4 0.0000 0.0000 0.0000 18.6378 0.0000 0.0000
# 5 0.0000 0.0000 0.0000 0.0000 18.6334 0.0000
# 6 0.0000 0.0000 0.0000 0.0000 0.0000 1.9031
#
#
#
# Elastic Compliance Matrix: (Units=1/GPa)
#
#
# Indices 1 2 3 4 5 6 
#
# 1 0.010127 -0.002338 -0.003081 0.000000 0.000000 0.000000
# 2 -0.002338 0.010127 -0.003081 0.000000 0.000000 0.000000
# 3 -0.003081 -0.003081 0.010677 0.000000 0.000000 0.000000
# 4 0.000000 0.000000 0.000000 0.053654 0.000000 0.000000
# 5 0.000000 0.000000 0.000000 0.000000 0.053667 0.000000
# 6 0.000000 0.000000 0.000000 0.000000 0.000000 0.525456
#
#
# Mechanical properties :
#
#
# Convention : Reuss Voigt Hill
#
# Bulk Modulus (GPa) = 71.79152 71.80079 71.79615
# Shear Modulus (GPa) = 7.29552 23.09272 15.19412
#
# Velocity S-wave (km/s) = 1.87874 3.34254 2.71130
# Velocity P-wave (km/s) = 6.28013 7.04521 6.67364
#
# Compressibility (1/GPa) = 0.01392922
#
# Stress axis : x y z
#
# Youngs Moduli (GPa) = 98.74628 98.74685 93.66018
#
# Poissons Ratio (x) = 0.23090 0.28859
# Poissons Ratio (y) = 0.23089 0.28859
# Poissons Ratio (z) = 0.30426 0.30427
#
# Static dielectric constant tensor:
#      x y z
#    x 3.846430 0.000000 0.000000 
#    y 0.000000 3.846420 0.000000 
#    z 0.000000 0.000000 3.572660 
# 
# 
# High freq. dielectric constant tensor:
#      x y z
#    x 1.808200 0.000000 0.000000 
#    y 0.000000 1.808200 0.000000 
#    z 0.000000 0.000000 1.793860 
# 
# From -- ./inp_files/12926.got.cif
#   From: 2010.03.12/outbox.cif.g09.slc.cpg/sg131_7_cif.got.tgz:12926.got - 2010.04.06 17:36:35.
