data_PCOD8315036
_publ_section_title
;
Structure prediction by ZEFSAII (Michael W. Deem and Ramdas Pophale) SiO2 
 PCOD8315036
Probable space group: P 4/N M M
;
_chemical_formula_sum "Si O2"
_cell_formula_units_Z 96
_cell_length_a 20.369716
_cell_length_b 20.369716
_cell_length_c 12.887491
_cell_angle_alpha 90.000000
_cell_angle_beta 90.000000
_cell_angle_gamma 90.000000
_cell_volume 5347.346455
_symmetry_space_group_name_H-M "P 4/N M M"
_symmetry_group_IT_number 129
_symmetry_cell_setting 'tetragonal'
loop_
_space_group_symop_operation_xyz
x,y,z
1/2-y,x,z
1/2-x,1/2-y,z
y,1/2-x,z
1/2+x,-y,-z
-x,1/2+y,-z
1/2+y,1/2+x,-z
-y,-x,-z
-x,-y,-z
1/2+y,-x,-z
1/2+x,1/2+y,-z
-y,1/2+x,-z
1/2-x,y,z
x,1/2-y,z
1/2-y,1/2-x,z
y,x,z
loop_
_atom_site_type_symbol
_atom_site_label
_atom_site_fract_x
_atom_site_fract_y
_atom_site_fract_z
Si Si1 0.539781 0.173307 0.681077
Si Si2 0.178712 0.674607 0.378155
Si Si3 0.066173 0.326420 0.517408
Si Si4 0.430886 0.176001 0.282276
Si Si5 0.608915 0.499371 0.890564
Si Si6 0.605665 0.003732 0.119291
O O1 0.547204 0.250000 0.664112
O O2 0.613716 0.142023 0.674696
O O3 0.492695 0.146338 0.589489
O O4 0.504711 0.159675 0.790683
O O5 0.168285 0.668285 0.500000
O O6 0.250000 0.641502 0.347299
O O7 0.183288 0.750000 0.344066
O O8 0.082393 0.250000 0.540471
O O9 0.132144 0.367856 0.539561
O O10 0.042487 0.336580 0.398578
O O11 0.406653 0.250000 0.269205
O O12 0.368049 0.131951 0.257015
O O13 0.489120 0.162364 0.199507
O O14 0.553115 0.553115 0.879706
O O15 0.574353 0.429564 0.875954
O O16 0.640187 0.504196 0.006471
O O17 0.555246 0.944755 0.140038
#
# Coordination Sequence:
#
# PCOD8315036 Si02
#       6
#    16  16  16  16  16  16
#     4  10  19  29  45  71  97 119 150 193 235 279
#     4   8  15  29  46  62  85 119 153 182 219 273
#     4   9  18  31  46  68  99 132 166 203 243 289
#     4   9  17  30  48  70  98 129 160 197 239 283
#     4   8  16  31  48  65  85 114 155 196 231 272
#     4   9  17  31  49  65  87 120 153 188 233 283
#
# _framework density 17.952829000000001
#
# number of rings (size 3 to 8) (size 9 to 14) (size 15 to 20)
#    0.000    3.167    0.000    2.000    0.000    2.333 
#    0.000    4.167    0.000    6.000    0.000    0.000 
#    0.000    4.000    0.000    0.667    0.000    0.000 
#
# Total GULP energy -1189352.973682 kJ/mol
# GULP energy per Si atom -12389.093476 kJ/mol
# Density = 1.791197 g / cm^3
# Si number density = 17.952829 Si / 1000 Ang^3
#
#
#
# Elastic Constant Matrix: (Units=GPa)
#
#
# Indices 1 2 3 4 5 6 
#
# 1 58.1099 21.4821 39.3856 0.0000 0.0000 0.0000
# 2 21.4821 58.1099 39.3856 0.0000 0.0000 0.0000
# 3 39.3856 39.3856 114.5068 0.0000 0.0000 0.0000
# 4 0.0000 0.0000 0.0000 23.8486 0.0000 0.0000
# 5 0.0000 0.0000 0.0000 0.0000 23.8486 0.0000
# 6 0.0000 0.0000 0.0000 0.0000 0.0000 14.0774
#
#
#
# Elastic Compliance Matrix: (Units=1/GPa)
#
#
# Indices 1 2 3 4 5 6 
#
# 1 0.023175 -0.004127 -0.006552 0.000000 0.000000 0.000000
# 2 -0.004127 0.023175 -0.006552 0.000000 0.000000 0.000000
# 3 -0.006552 -0.006552 0.013240 0.000000 0.000000 0.000000
# 4 0.000000 0.000000 0.000000 0.041931 0.000000 0.000000
# 5 0.000000 0.000000 0.000000 0.000000 0.041931 0.000000
# 6 0.000000 0.000000 0.000000 0.000000 0.000000 0.071036
#
#
# Mechanical properties :
#
#
# Convention : Reuss Voigt Hill
#
# Bulk Modulus (GPa) = 39.79378 47.91482 43.85430
# Shear Modulus (GPa) = 19.43061 21.05313 20.24187
#
# Velocity S-wave (km/s) = 3.29342 3.42817 3.36147
# Velocity P-wave (km/s) = 6.05608 6.51284 6.28861
#
# Compressibility (1/GPa) = 0.02512956
#
# Stress axis : x y z
#
# Youngs Moduli (GPa) = 43.14985 43.14985 75.52726
#
# Poissons Ratio (x) = 0.17807 0.49484
# Poissons Ratio (y) = 0.17807 0.49484
# Poissons Ratio (z) = 0.28271 0.28271
#
# Static dielectric constant tensor:
#      x y z
#    x 3.266740 0.000000 0.000000 
#    y 0.000000 3.266740 0.000000 
#    z 0.000000 0.000000 3.445780 
# 
# 
# High freq. dielectric constant tensor:
#      x y z
#    x 1.674910 0.000000 0.000000 
#    y 0.000000 1.674910 0.000000 
#    z 0.000000 0.000000 1.694200 
# 
# From -- ./inp_files/3821.got.cif
#   From: 2010.03.12/outbox.cif.g09.slc.cpg/sg129_2_cif.got.tgz:3821.got - 2010.04.06 17:19:44.
