data_PCOD8315650
_publ_section_title
;
Structure prediction by ZEFSAII (Michael W. Deem and Ramdas Pophale) SiO2 
 PCOD8315650
Probable space group: P 42/M M C
;
_chemical_formula_sum "Si O2"
_cell_formula_units_Z 96
_cell_length_a 18.586220
_cell_length_b 18.586220
_cell_length_c 16.730260
_cell_angle_alpha 90.000000
_cell_angle_beta 90.000000
_cell_angle_gamma 90.000000
_cell_volume 5779.427728
_symmetry_space_group_name_H-M "P 42/M M C"
_symmetry_group_IT_number 131
_symmetry_cell_setting 'tetragonal'
loop_
_space_group_symop_operation_xyz
x,y,z
-x,-y,z
-y,x,1/2+z
y,-x,1/2+z
-x,y,-z
x,-y,-z
y,x,1/2-z
-y,-x,1/2-z
-x,-y,-z
x,y,-z
y,-x,1/2-z
-y,x,1/2-z
x,-y,z
-x,y,z
-y,-x,1/2+z
y,x,1/2+z
loop_
_atom_site_type_symbol
_atom_site_label
_atom_site_fract_x
_atom_site_fract_y
_atom_site_fract_z
Si Si1 0.222126 0.825150 0.665751
Si Si2 0.420112 0.663608 0.313434
Si Si3 0.080720 0.682869 0.263437
Si Si4 0.580952 0.797676 0.798130
Si Si5 0.080603 0.790685 0.593272
Si Si6 0.312676 0.716168 0.908440
O O1 0.215338 0.784663 0.750000
O O2 0.265374 0.897522 0.688275
O O3 0.144704 0.844144 0.623729
O O4 0.267458 0.770834 0.610705
O O5 0.397088 0.602912 0.250000
O O6 0.500000 0.644985 0.344948
O O7 0.418405 0.741446 0.273552
O O8 0.365341 0.665793 0.387033
O O9 0.127563 0.610653 0.263341
O O10 0.087693 0.720825 0.350508
O O11 0.000000 0.658656 0.246942
O O12 0.500000 0.808340 0.831383
O O13 0.634178 0.772228 0.867100
O O14 0.092685 0.770024 0.500000
O O15 0.000000 0.824834 0.604155
O O16 0.326363 0.727614 0.000000
#
# Coordination Sequence:
#
# PCOD8315650 Si02
#       6
#    16  16  16  16  16  16
#     4  10  16  30  50  70  99 129 170 210 245 288
#     4   9  18  33  51  72  97 129 168 208 251 304
#     4  10  19  31  50  75 101 131 171 215 251 296
#     4  10  19  33  50  70 100 133 167 206 251 302
#     4   9  17  28  47  76 104 132 163 197 248 306
#     4  11  19  30  51  75 100 132 167 209 253 297
#
# _framework density 16.61064
#
# number of rings (size 3 to 8) (size 9 to 14) (size 15 to 20)
#    0.000    2.167    5.000    1.000    0.000    1.167 
#    0.000    0.000    0.000    2.500    0.000   12.833 
#    0.000    2.667    0.000    0.000    0.000    0.000 
#
# Total GULP energy -1189651.267660 kJ/mol
# GULP energy per Si atom -12392.200705 kJ/mol
# Density = 1.657283 g / cm^3
# Si number density = 16.610640 Si / 1000 Ang^3
#
#
#
# Elastic Constant Matrix: (Units=GPa)
#
#
# Indices 1 2 3 4 5 6 
#
# 1 106.8846 46.7969 27.6586 0.0000 0.0000 0.0000
# 2 46.7969 106.8862 27.6590 0.0000 0.0000 0.0000
# 3 27.6586 27.6590 49.4073 0.0000 0.0000 0.0000
# 4 0.0000 0.0000 0.0000 14.2083 0.0000 0.0000
# 5 0.0000 0.0000 0.0000 0.0000 14.2081 0.0000
# 6 0.0000 0.0000 0.0000 0.0000 0.0000 12.4409
#
#
#
# Elastic Compliance Matrix: (Units=1/GPa)
#
#
# Indices 1 2 3 4 5 6 
#
# 1 0.012396 -0.004247 -0.004562 0.000000 0.000000 0.000000
# 2 -0.004247 0.012395 -0.004562 0.000000 0.000000 0.000000
# 3 -0.004562 -0.004562 0.025348 0.000000 0.000000 0.000000
# 4 0.000000 0.000000 0.000000 0.070381 0.000000 0.000000
# 5 0.000000 0.000000 0.000000 0.000000 0.070382 0.000000
# 6 0.000000 0.000000 0.000000 0.000000 0.000000 0.080380
#
#
# Mechanical properties :
#
#
# Convention : Reuss Voigt Hill
#
# Bulk Modulus (GPa) = 42.73884 51.93409 47.33646
# Shear Modulus (GPa) = 16.34935 18.90903 17.62919
#
# Velocity S-wave (km/s) = 3.14071 3.37763 3.26132
# Velocity P-wave (km/s) = 6.24001 6.82236 6.53767
#
# Compressibility (1/GPa) = 0.02339792
#
# Stress axis : x y z
#
# Youngs Moduli (GPa) = 80.67362 80.67464 39.45158
#
# Poissons Ratio (x) = 0.34259 0.17997
# Poissons Ratio (y) = 0.34259 0.17997
# Poissons Ratio (z) = 0.36802 0.36803
#
# Static dielectric constant tensor:
#      x y z
#    x 3.266350 0.000000 0.000000 
#    y 0.000000 3.266360 0.000000 
#    z 0.000000 0.000000 3.008930 
# 
# 
# High freq. dielectric constant tensor:
#      x y z
#    x 1.629560 0.000000 0.000000 
#    y 0.000000 1.629560 0.000000 
#    z 0.000000 0.000000 1.622540 
# 
# From -- ./inp_files/7974.got.cif
#   From: 2010.03.12/outbox.cif.g09.slc.cpg/sg131_4_cif.got.tgz:7974.got - 2010.04.06 17:36:35.
