data_PCOD8315552
_publ_section_title
;
Structure prediction by ZEFSAII (Michael W. Deem and Ramdas Pophale) SiO2 
 PCOD8315552
Probable space group: P 4/N C C
;
_chemical_formula_sum "Si O2"
_cell_formula_units_Z 96
_cell_length_a 21.787598
_cell_length_b 21.787598
_cell_length_c 11.031519
_cell_angle_alpha 90.000000
_cell_angle_beta 90.000000
_cell_angle_gamma 90.000000
_cell_volume 5236.655744
_symmetry_space_group_name_H-M "P 4/N C C"
_symmetry_group_IT_number 130
_symmetry_cell_setting 'tetragonal'
loop_
_space_group_symop_operation_xyz
x,y,z
1/2-y,x,z
1/2-x,1/2-y,z
y,1/2-x,z
1/2+x,-y,1/2-z
-x,1/2+y,1/2-z
1/2+y,1/2+x,1/2-z
-y,-x,1/2-z
-x,-y,-z
1/2+y,-x,-z
1/2+x,1/2+y,-z
-y,1/2+x,-z
1/2-x,y,1/2+z
x,1/2-y,1/2+z
1/2-y,1/2-x,1/2+z
y,x,1/2+z
loop_
_atom_site_type_symbol
_atom_site_label
_atom_site_fract_x
_atom_site_fract_y
_atom_site_fract_z
Si Si1 0.656423 0.238499 0.539027
Si Si2 0.155418 0.655418 0.250000
Si Si3 0.828682 0.476113 0.677034
Si Si4 0.505293 0.413270 0.527204
Si Si5 0.454800 0.799019 0.604178
Si Si6 0.504680 0.897325 0.426228
Si Si7 0.594890 0.094890 0.250000
O O1 0.687358 0.304585 0.533952
O O2 0.653259 0.218888 0.678093
O O3 0.587606 0.238659 0.489496
O O4 0.156369 0.596386 0.336030
O O5 0.851699 0.505302 0.550790
O O6 0.754660 0.489583 0.680700
O O7 0.863149 0.502371 0.796315
O O8 0.547536 0.455092 0.438422
O O9 0.434981 0.432819 0.554658
O O10 0.539038 0.408129 0.655319
O O11 0.499218 0.845485 0.531121
O O12 0.410635 0.838600 0.690129
#
# Coordination Sequence:
#
# PCOD8315552 Si02
#       7
#    16   8  16  16  16  16   8
#     4  11  24  35  46  68 101 151 201 238 274 323
#     4  12  20  36  52  68 101 144 197 236 280 328
#     4  12  22  37  60  76 112 149 189 245 298 347
#     4  10  22  38  60  78 109 149 199 241 297 350
#     4  11  24  36  55  81 114 147 194 241 294 345
#     4  10  22  38  57  83 107 146 196 240 290 355
#     4  10  24  37  54  85 113 152 193 249 284 351
#
# _framework density 18.33231
#
# number of rings (size 3 to 8) (size 9 to 14) (size 15 to 20)
#    0.000    1.167    5.000    1.000   11.667    1.333 
#    0.000    0.000    0.000    0.000    0.000    0.000 
#    0.000    0.667    2.000    0.000    0.000    0.000 
#
# Total GULP energy -1189530.191176 kJ/mol
# GULP energy per Si atom -12390.939491 kJ/mol
# Density = 1.829058 g / cm^3
# Si number density = 18.332310 Si / 1000 Ang^3
#
#
#
# Elastic Constant Matrix: (Units=GPa)
#
#
# Indices 1 2 3 4 5 6 
#
# 1 68.9380 47.6237 36.9517 0.0000 0.0000 0.0000
# 2 47.6237 68.9380 36.9517 0.0000 0.0000 0.0000
# 3 36.9517 36.9517 107.3064 0.0000 0.0000 0.0000
# 4 0.0000 0.0000 0.0000 27.5598 0.0000 0.0000
# 5 0.0000 0.0000 0.0000 0.0000 27.5598 0.0000
# 6 0.0000 0.0000 0.0000 0.0000 0.0000 17.1414
#
#
#
# Elastic Compliance Matrix: (Units=1/GPa)
#
#
# Indices 1 2 3 4 5 6 
#
# 1 0.028946 -0.017971 -0.003779 0.000000 0.000000 0.000000
# 2 -0.017971 0.028946 -0.003779 0.000000 0.000000 0.000000
# 3 -0.003779 -0.003779 0.011922 0.000000 0.000000 0.000000
# 4 0.000000 0.000000 0.000000 0.036285 0.000000 0.000000
# 5 0.000000 0.000000 0.000000 0.000000 0.036285 0.000000
# 6 0.000000 0.000000 0.000000 0.000000 0.000000 0.058338
#
#
# Mechanical properties :
#
#
# Convention : Reuss Voigt Hill
#
# Bulk Modulus (GPa) = 53.31888 54.24851 53.78370
# Shear Modulus (GPa) = 19.37731 22.69585 21.03658
#
# Velocity S-wave (km/s) = 3.25469 3.52237 3.39117
# Velocity P-wave (km/s) = 6.57813 6.79697 6.68844
#
# Compressibility (1/GPa) = 0.01875508
#
# Stress axis : x y z
#
# Youngs Moduli (GPa) = 34.54680 34.54680 83.87793
#
# Poissons Ratio (x) = 0.62083 0.31701
# Poissons Ratio (y) = 0.62083 0.31701
# Poissons Ratio (z) = 0.13057 0.13057
#
# Static dielectric constant tensor:
#      x y z
#    x 3.352410 0.000000 0.000000 
#    y 0.000000 3.352410 0.000000 
#    z 0.000000 0.000000 3.512210 
# 
# 
# High freq. dielectric constant tensor:
#      x y z
#    x 1.678970 0.000000 0.000000 
#    y 0.000000 1.678970 0.000000 
#    z 0.000000 0.000000 1.727220 
# 
# From -- ./inp_files/1800.got.cif
#   From: 2010.03.12/outbox.cif.g09.slc.cpg/sg130_1_cif.got.tgz:1800.got - 2010.04.06 17:30:23.
