data_PCOD8315986
_publ_section_title
;
Structure prediction by ZEFSAII (Michael W. Deem and Ramdas Pophale) SiO2 
 PCOD8315986
Probable space group: P 42/M M C
;
_chemical_formula_sum "Si O2"
_cell_formula_units_Z 120
_cell_length_a 27.601714
_cell_length_b 27.601714
_cell_length_c 9.052183
_cell_angle_alpha 90.000000
_cell_angle_beta 90.000000
_cell_angle_gamma 90.000000
_cell_volume 6896.447401
_symmetry_space_group_name_H-M "P 42/M M C"
_symmetry_group_IT_number 131
_symmetry_cell_setting 'tetragonal'
loop_
_space_group_symop_operation_xyz
x,y,z
-x,-y,z
-y,x,1/2+z
y,-x,1/2+z
-x,y,-z
x,-y,-z
y,x,1/2-z
-y,-x,1/2-z
-x,-y,-z
x,y,-z
y,-x,1/2-z
-y,x,1/2-z
x,-y,z
-x,y,z
-y,-x,1/2+z
y,x,1/2+z
loop_
_atom_site_type_symbol
_atom_site_label
_atom_site_fract_x
_atom_site_fract_y
_atom_site_fract_z
Si Si1 0.442961 0.734466 0.337796
Si Si2 0.794981 0.865578 0.826070
Si Si3 0.372200 0.555059 0.824968
Si Si4 0.216669 0.717229 0.329291
Si Si5 0.056710 0.268527 0.827126
Si Si6 0.811837 0.614084 0.673534
Si Si7 0.080608 0.629291 0.674924
Si Si8 0.000000 0.445208 0.325184
O O1 0.420265 0.743072 0.500000
O O2 0.500000 0.734028 0.350146
O O3 0.426936 0.681653 0.276313
O O4 0.428386 0.778483 0.233497
O O5 0.844021 0.844021 0.750000
O O6 0.751552 0.828569 0.797282
O O7 0.776538 0.915249 0.750209
O O8 0.804936 0.873936 0.000000
O O9 0.411706 0.588295 0.750000
O O10 0.381228 0.500000 0.772269
O O11 0.376981 0.558735 0.000000
O O12 0.264606 0.735394 0.250000
O O13 0.228409 0.714210 0.500000
O O14 0.205603 0.665139 0.260577
O O15 0.069995 0.320238 0.755861
O O16 0.000000 0.258405 0.803388
O O17 0.070327 0.269991 0.000000
O O18 0.806908 0.614006 0.500000
O O19 0.867443 0.607789 0.719816
O O20 0.076174 0.639893 0.500000
O O21 0.045786 0.586095 0.728373
O O22 0.000000 0.500000 0.256889
O O23 0.000000 0.450056 0.500000
#
# Coordination Sequence:
#
# PCOD8315986 Si02
#       8
#    16  16  16  16  16  16  16   8
#     4   9  20  38  54  69  94 130 167 202 250 309
#     4  10  19  34  54  77 109 146 182 220 268 320
#     4   9  19  36  56  78 105 134 164 201 247 304
#     4   9  18  31  46  69 100 130 164 202 246 302
#     4  11  22  34  52  80 112 146 188 231 274 325
#     4  10  20  33  50  75 100 127 170 219 261 310
#     4  10  19  34  54  74 101 135 175 226 280 335
#     4   9  18  32  53  77  97 127 173 225 286 347
#
# _framework density 17.400262999999999
#
# number of rings (size 3 to 8) (size 9 to 14) (size 15 to 20)
#    0.000    2.333    2.000    1.600    0.000    4.667 
#    0.000    6.000    0.000    0.800    0.000    0.000 
#    0.000    0.267    0.000    2.800    0.000    1.200 
#
# Total GULP energy -1487476.609769 kJ/mol
# GULP energy per Si atom -12395.638415 kJ/mol
# Density = 1.736066 g / cm^3
# Si number density = 17.400263 Si / 1000 Ang^3
#
#
#
# Elastic Constant Matrix: (Units=GPa)
#
#
# Indices 1 2 3 4 5 6 
#
# 1 104.1319 66.8378 40.9419 0.0000 0.0000 0.0000
# 2 66.8378 104.1360 40.9424 0.0000 0.0000 0.0000
# 3 40.9419 40.9424 53.7074 0.0000 0.0000 0.0000
# 4 0.0000 0.0000 0.0000 25.7748 0.0000 0.0000
# 5 0.0000 0.0000 0.0000 0.0000 25.7749 0.0000
# 6 0.0000 0.0000 0.0000 0.0000 0.0000 27.7576
#
#
#
# Elastic Compliance Matrix: (Units=1/GPa)
#
#
# Indices 1 2 3 4 5 6 
#
# 1 0.018013 -0.008800 -0.007023 0.000000 0.000000 0.000000
# 2 -0.008800 0.018012 -0.007023 0.000000 0.000000 0.000000
# 3 -0.007023 -0.007023 0.029327 0.000000 0.000000 0.000000
# 4 0.000000 0.000000 0.000000 0.038798 0.000000 0.000000
# 5 0.000000 0.000000 0.000000 0.000000 0.038798 0.000000
# 6 0.000000 0.000000 0.000000 0.000000 0.000000 0.036026
#
#
# Mechanical properties :
#
#
# Convention : Reuss Voigt Hill
#
# Bulk Modulus (GPa) = 50.86401 62.15771 56.51086
# Shear Modulus (GPa) = 21.62469 23.41166 22.51818
#
# Velocity S-wave (km/s) = 3.52913 3.67205 3.60130
# Velocity P-wave (km/s) = 6.77507 7.33338 7.05975
#
# Compressibility (1/GPa) = 0.01966027
#
# Stress axis : x y z
#
# Youngs Moduli (GPa) = 55.51602 55.51857 34.09879
#
# Poissons Ratio (x) = 0.48857 0.23947
# Poissons Ratio (y) = 0.48854 0.23946
# Poissons Ratio (z) = 0.38989 0.38988
#
# Static dielectric constant tensor:
#      x y z
#    x 3.369170 0.000000 0.000000 
#    y 0.000000 3.369170 0.000000 
#    z 0.000000 0.000000 3.164060 
# 
# 
# High freq. dielectric constant tensor:
#      x y z
#    x 1.667180 0.000000 0.000000 
#    y 0.000000 1.667180 0.000000 
#    z 0.000000 0.000000 1.663630 
# 
# From -- ./inp_files/2641.got.cif
#   From: 2010.03.12/outbox.cif.g09.slc.cpg/sg131_2_cif.got.tgz:2641.got - 2010.04.06 17:36:35.
