data_PCOD8315757
_publ_section_title
;
Structure prediction by ZEFSAII (Michael W. Deem and Ramdas Pophale) SiO2 
 PCOD8315757
Probable space group: P 42/M M C
;
_chemical_formula_sum "Si O2"
_cell_formula_units_Z 120
_cell_length_a 27.405048
_cell_length_b 27.405048
_cell_length_c 9.200012
_cell_angle_alpha 90.000000
_cell_angle_beta 90.000000
_cell_angle_gamma 90.000000
_cell_volume 6909.546247
_symmetry_space_group_name_H-M "P 42/M M C"
_symmetry_group_IT_number 131
_symmetry_cell_setting 'tetragonal'
loop_
_space_group_symop_operation_xyz
x,y,z
-x,-y,z
-y,x,1/2+z
y,-x,1/2+z
-x,y,-z
x,-y,-z
y,x,1/2-z
-y,-x,1/2-z
-x,-y,-z
x,y,-z
y,-x,1/2-z
-y,x,1/2-z
x,-y,z
-x,y,z
-y,-x,1/2+z
y,x,1/2+z
loop_
_atom_site_type_symbol
_atom_site_label
_atom_site_fract_x
_atom_site_fract_y
_atom_site_fract_z
Si Si1 0.276907 0.555978 0.667929
Si Si2 0.373832 0.190459 0.834205
Si Si3 0.800247 0.131774 0.333401
Si Si4 0.279799 0.784734 0.337018
Si Si5 0.080946 0.627097 0.667102
Si Si6 0.734701 0.942586 0.168748
Si Si7 0.627298 0.442629 0.831499
Si Si8 0.444953 0.000000 0.173729
O O1 0.290856 0.563698 0.500000
O O2 0.266117 0.500000 0.703846
O O3 0.227934 0.584193 0.711520
O O4 0.321662 0.575814 0.763990
O O5 0.328896 0.195431 0.729035
O O6 0.393152 0.135586 0.813192
O O7 0.356890 0.199167 0.000000
O O8 0.848720 0.151281 0.250000
O O9 0.814111 0.119197 0.500000
O O10 0.759840 0.173321 0.327397
O O11 0.778087 0.084081 0.255838
O O12 0.262896 0.737105 0.250000
O O13 0.289637 0.767718 0.500000
O O14 0.065898 0.633068 0.500000
O O15 0.072832 0.681440 0.734008
O O16 0.046542 0.585225 0.734850
O O17 0.742246 0.000000 0.189322
O O18 0.738828 0.926910 0.000000
O O19 0.582739 0.417262 0.750000
O O20 0.620975 0.500000 0.806330
O O21 0.626384 0.428393 0.000000
O O22 0.500000 0.000000 0.238472
O O23 0.448430 0.000000 0.000000
#
# Coordination Sequence:
#
# PCOD8315757 Si02
#       8
#    16  16  16  16  16  16  16   8
#     4   9  19  35  52  71  96 127 164 206 252 300
#     4  10  19  31  50  71  96 130 169 213 258 305
#     4  10  20  33  50  73 103 137 174 215 261 310
#     4  10  20  32  47  69  97 128 164 203 249 302
#     4   9  16  27  43  67  98 132 170 215 265 318
#     4  10  18  30  51  75 105 143 181 218 265 319
#     4  10  21  37  58  82 106 133 162 195 241 297
#     4   9  16  26  42  68 101 133 167 215 274 325
#
# _framework density 17.367277000000001
#
# number of rings (size 3 to 8) (size 9 to 14) (size 15 to 20)
#    0.000    2.333    2.000    1.200    0.000    3.867 
#    0.000    3.333    0.000    0.000    0.000    0.000 
#    0.000    2.933    0.000    2.800    0.000    1.200 
#
# Total GULP energy -1487851.148375 kJ/mol
# GULP energy per Si atom -12398.759570 kJ/mol
# Density = 1.732775 g / cm^3
# Si number density = 17.367277 Si / 1000 Ang^3
#
#
#
# Elastic Constant Matrix: (Units=GPa)
#
#
# Indices 1 2 3 4 5 6 
#
# 1 84.3568 48.6956 39.7688 0.0000 0.0000 0.0000
# 2 48.6956 84.3515 39.7695 0.0000 0.0000 0.0000
# 3 39.7688 39.7695 81.9832 0.0000 0.0000 0.0000
# 4 0.0000 0.0000 0.0000 19.3470 0.0000 0.0000
# 5 0.0000 0.0000 0.0000 0.0000 19.3467 0.0000
# 6 0.0000 0.0000 0.0000 0.0000 0.0000 50.8896
#
#
#
# Elastic Compliance Matrix: (Units=1/GPa)
#
#
# Indices 1 2 3 4 5 6 
#
# 1 0.019314 -0.008729 -0.005134 0.000000 0.000000 0.000000
# 2 -0.008729 0.019316 -0.005136 0.000000 0.000000 0.000000
# 3 -0.005134 -0.005136 0.017180 0.000000 0.000000 0.000000
# 4 0.000000 0.000000 0.000000 0.051688 0.000000 0.000000
# 5 0.000000 0.000000 0.000000 0.000000 0.051688 0.000000
# 6 0.000000 0.000000 0.000000 0.000000 0.000000 0.019650
#
#
# Mechanical properties :
#
#
# Convention : Reuss Voigt Hill
#
# Bulk Modulus (GPa) = 56.14544 56.35105 56.24825
# Shear Modulus (GPa) = 22.44461 26.08050 24.26255
#
# Velocity S-wave (km/s) = 3.59883 3.87939 3.74174
# Velocity P-wave (km/s) = 7.04750 7.25143 7.15019
#
# Compressibility (1/GPa) = 0.01781089
#
# Stress axis : x y z
#
# Youngs Moduli (GPa) = 51.77625 51.77154 58.20883
#
# Poissons Ratio (x) = 0.45191 0.29887
# Poissons Ratio (y) = 0.45195 0.29894
# Poissons Ratio (z) = 0.26584 0.26588
#
# Static dielectric constant tensor:
#      x y z
#    x 2.453080 0.000000 0.000000 
#    y 0.000000 2.450470 0.000000 
#    z 0.000000 0.000000 3.162210 
# 
# 
# High freq. dielectric constant tensor:
#      x y z
#    x 1.662950 0.000000 0.000000 
#    y 0.000000 1.662950 0.000000 
#    z 0.000000 0.000000 1.652790 
# 
# From -- ./inp_files/2678.got.cif
#   From: 2010.03.12/outbox.cif.g09.slc.cpg/sg131_2_cif.got.tgz:2678.got - 2010.04.06 17:36:35.
