data_PCOD8315653
_publ_section_title
;
Structure prediction by ZEFSAII (Michael W. Deem and Ramdas Pophale) SiO2 
 PCOD8315653
Probable space group: P 42/M M C
;
_chemical_formula_sum "Si O2"
_cell_formula_units_Z 80
_cell_length_a 14.759420
_cell_length_b 14.759420
_cell_length_c 27.253092
_cell_angle_alpha 90.000000
_cell_angle_beta 90.000000
_cell_angle_gamma 90.000000
_cell_volume 5936.826608
_symmetry_space_group_name_H-M "P 42/M M C"
_symmetry_group_IT_number 131
_symmetry_cell_setting 'tetragonal'
loop_
_space_group_symop_operation_xyz
x,y,z
-x,-y,z
-y,x,1/2+z
y,-x,1/2+z
-x,y,-z
x,-y,-z
y,x,1/2-z
-y,-x,1/2-z
-x,-y,-z
x,y,-z
y,-x,1/2-z
-y,x,1/2-z
x,-y,z
-x,y,z
-y,-x,1/2+z
y,x,1/2+z
loop_
_atom_site_type_symbol
_atom_site_label
_atom_site_fract_x
_atom_site_fract_y
_atom_site_fract_z
Si Si1 0.606273 0.897431 0.137381
Si Si2 0.394349 0.769630 0.053851
Si Si3 0.285115 0.606325 0.210168
Si Si4 0.900076 0.392532 0.253299
Si Si5 0.602859 0.396740 0.615935
O O1 0.500000 0.878087 0.138775
O O2 0.651048 0.833572 0.095589
O O3 0.645377 0.876740 0.191930
O O4 0.627926 0.000000 0.122246
O O5 0.500000 0.792539 0.050122
O O6 0.379098 0.665149 0.068778
O O7 0.349828 0.785440 0.000000
O O8 0.344805 0.655196 0.250000
O O9 0.294780 0.500000 0.219780
O O10 0.179350 0.637183 0.215577
O O11 0.324510 0.632187 0.157210
O O12 0.905738 0.500000 0.256576
O O13 0.000000 0.356040 0.236491
O O14 0.616325 0.500000 0.635806
O O15 0.500000 0.380733 0.599109
#
# Coordination Sequence:
#
# PCOD8315653 Si02
#       5
#    16  16  16  16  16
#     4   8  13  21  32  45  61  81 107 139 171 202
#     4   9  16  24  33  44  60  86 118 147 173 201
#     4  10  17  23  34  51  71  94 118 144 174 208
#     4   8  14  24  36  49  67  92 118 143 173 208
#     4   9  17  26  33  44  64  89 118 149 176 201
#
# _framework density 13.475213
#
# number of rings (size 3 to 8) (size 9 to 14) (size 15 to 20)
#    0.000    3.200    0.000    3.000    0.000    5.000 
#    0.000    4.000    0.000    0.000    0.000    0.000 
#    0.000    1.200    0.000    7.800    0.000    0.200 
#
# Total GULP energy -991077.090977 kJ/mol
# GULP energy per Si atom -12388.463637 kJ/mol
# Density = 1.344454 g / cm^3
# Si number density = 13.475213 Si / 1000 Ang^3
#
#
#
# Elastic Constant Matrix: (Units=GPa)
#
#
# Indices 1 2 3 4 5 6 
#
# 1 27.0342 20.1628 22.8713 0.0000 0.0000 0.0000
# 2 20.1628 27.0446 22.8700 0.0000 0.0000 0.0000
# 3 22.8713 22.8700 54.0776 0.0000 0.0000 0.0000
# 4 0.0000 0.0000 0.0000 11.7121 0.0000 0.0000
# 5 0.0000 0.0000 0.0000 0.0000 11.7122 0.0000
# 6 0.0000 0.0000 0.0000 0.0000 0.0000 3.4125
#
#
#
# Elastic Compliance Matrix: (Units=1/GPa)
#
#
# Indices 1 2 3 4 5 6 
#
# 1 0.090690 -0.054762 -0.015196 0.000000 0.000000 0.000000
# 2 -0.054762 0.090630 -0.015168 0.000000 0.000000 0.000000
# 3 -0.015196 -0.015168 0.031333 0.000000 0.000000 0.000000
# 4 0.000000 0.000000 0.000000 0.085382 0.000000 0.000000
# 5 0.000000 0.000000 0.000000 0.000000 0.085381 0.000000
# 6 0.000000 0.000000 0.000000 0.000000 0.000000 0.293044
#
#
# Mechanical properties :
#
#
# Convention : Reuss Voigt Hill
#
# Bulk Modulus (GPa) = 23.58439 26.66274 25.12356
# Shear Modulus (GPa) = 5.80824 8.18416 6.99620
#
# Velocity S-wave (km/s) = 2.07838 2.46712 2.28105
# Velocity P-wave (km/s) = 4.82697 5.28631 5.06185
#
# Compressibility (1/GPa) = 0.04240094
#
# Stress axis : x y z
#
# Youngs Moduli (GPa) = 11.02660 11.03388 31.91477
#
# Poissons Ratio (x) = 0.60424 0.48498
# Poissons Ratio (y) = 0.60384 0.48407
# Poissons Ratio (z) = 0.16756 0.16736
#
# Static dielectric constant tensor:
#      x y z
#    x 2.603500 0.000000 0.000000 
#    y 0.000000 2.603510 0.000000 
#    z 0.000000 0.000000 2.886540 
# 
# 
# High freq. dielectric constant tensor:
#      x y z
#    x 1.477910 0.000000 0.000000 
#    y 0.000000 1.477910 0.000000 
#    z 0.000000 0.000000 1.506260 
# 
# From -- ./inp_files/10951.got.cif
#   From: 2010.03.12/outbox.cif.g09.slc.cpg/sg131_6_cif.got.tgz:10951.got - 2010.04.06 17:36:35.
