data_PCOD8315998
_publ_section_title
;
Structure prediction by ZEFSAII (Michael W. Deem and Ramdas Pophale) SiO2 
 PCOD8315998
Probable space group: P 42/M M C
;
_chemical_formula_sum "Si O2"
_cell_formula_units_Z 80
_cell_length_a 11.513673
_cell_length_b 11.513673
_cell_length_c 34.330623
_cell_angle_alpha 90.000000
_cell_angle_beta 90.000000
_cell_angle_gamma 90.000000
_cell_volume 4551.027570
_symmetry_space_group_name_H-M "P 42/M M C"
_symmetry_group_IT_number 131
_symmetry_cell_setting 'tetragonal'
loop_
_space_group_symop_operation_xyz
x,y,z
-x,-y,z
-y,x,1/2+z
y,-x,1/2+z
-x,y,-z
x,-y,-z
y,x,1/2-z
-y,-x,1/2-z
-x,-y,-z
x,y,-z
y,-x,1/2-z
-y,x,1/2-z
x,-y,z
-x,y,z
-y,-x,1/2+z
y,x,1/2+z
loop_
_atom_site_type_symbol
_atom_site_label
_atom_site_fract_x
_atom_site_fract_y
_atom_site_fract_z
Si Si1 0.000000 0.138407 0.543744
Si Si2 0.637395 0.500000 0.412930
Si Si3 0.865191 0.134810 0.250000
Si Si4 0.132913 0.500000 0.642331
Si Si5 0.263813 0.633323 0.042738
Si Si6 0.789832 0.864956 0.595851
Si Si7 0.868096 0.251055 0.328558
O O1 0.109693 0.184836 0.567775
O O2 0.000000 0.190335 0.500000
O O3 0.000000 0.000000 0.541690
O O4 0.500000 0.500000 0.396305
O O5 0.748622 0.500000 0.383569
O O6 0.657554 0.389813 0.439908
O O7 0.820224 0.207172 0.287149
O O8 0.000000 0.158805 0.241501
O O9 0.139656 0.389617 0.670586
O O10 0.000000 0.500000 0.622086
O O11 0.240380 0.500000 0.036909
O O12 0.164234 0.673354 0.072652
O O13 0.253644 0.693807 0.000000
O O14 0.789654 0.800808 0.637107
O O15 0.802735 0.000000 0.604021
O O16 0.000000 0.205656 0.334297
#
# Coordination Sequence:
#
# PCOD8315998 Si02
#       7
#     8   8   8   8  16  16  16
#     4   9  18  30  44  69 105 145 179 208 255 321
#     4  10  19  36  60  80 102 144 194 236 270 325
#     4   9  18  32  56  86 111 138 176 218 261 324
#     4  10  20  35  59  85 112 144 180 224 283 333
#     4  10  21  36  54  75 101 140 189 235 272 314
#     4  11  20  31  51  76 107 144 178 220 270 324
#     4  10  19  34  56  82 111 142 178 219 270 330
#
# _framework density 17.578447000000001
#
# number of rings (size 3 to 8) (size 9 to 14) (size 15 to 20)
#    0.000    2.000    3.000    1.500    0.000    3.600 
#    0.000    1.000    4.400    0.600    0.000    0.000 
#    0.000    0.000    0.000    0.000    0.000    0.000 
#
# Total GULP energy -991356.682998 kJ/mol
# GULP energy per Si atom -12391.958537 kJ/mol
# Density = 1.753844 g / cm^3
# Si number density = 17.578447 Si / 1000 Ang^3
#
#
#
# Elastic Constant Matrix: (Units=GPa)
#
#
# Indices 1 2 3 4 5 6 
#
# 1 72.8587 23.7631 51.2443 0.0000 0.0000 0.0000
# 2 23.7631 72.8580 51.2444 0.0000 0.0000 0.0000
# 3 51.2443 51.2444 152.3954 0.0000 0.0000 0.0000
# 4 0.0000 0.0000 0.0000 20.4976 0.0000 0.0000
# 5 0.0000 0.0000 0.0000 0.0000 20.4977 0.0000
# 6 0.0000 0.0000 0.0000 0.0000 0.0000 23.3963
#
#
#
# Elastic Compliance Matrix: (Units=1/GPa)
#
#
# Indices 1 2 3 4 5 6 
#
# 1 0.018228 -0.002140 -0.005410 0.000000 0.000000 0.000000
# 2 -0.002140 0.018228 -0.005410 0.000000 0.000000 0.000000
# 3 -0.005410 -0.005410 0.010200 0.000000 0.000000 0.000000
# 4 0.000000 0.000000 0.000000 0.048786 0.000000 0.000000
# 5 0.000000 0.000000 0.000000 0.000000 0.048786 0.000000
# 6 0.000000 0.000000 0.000000 0.000000 0.000000 0.042742
#
#
# Mechanical properties :
#
#
# Convention : Reuss Voigt Hill
#
# Bulk Modulus (GPa) = 48.22312 61.17953 54.70132
# Shear Modulus (GPa) = 22.74774 24.33568 23.54171
#
# Velocity S-wave (km/s) = 3.60122 3.72480 3.66353
# Velocity P-wave (km/s) = 6.69211 7.30603 7.00580
#
# Compressibility (1/GPa) = 0.02073694
#
# Stress axis : x y z
#
# Youngs Moduli (GPa) = 54.86034 54.85964 98.03922
#
# Poissons Ratio (x) = 0.11742 0.53036
# Poissons Ratio (y) = 0.11742 0.53037
# Poissons Ratio (z) = 0.29678 0.29678
#
# Static dielectric constant tensor:
#      x y z
#    x 3.296790 0.000000 0.000000 
#    y 0.000000 3.296800 0.000000 
#    z 0.000000 0.000000 3.286590 
# 
# 
# High freq. dielectric constant tensor:
#      x y z
#    x 1.672370 0.000000 0.000000 
#    y 0.000000 1.672370 0.000000 
#    z 0.000000 0.000000 1.673130 
# 
# From -- ./inp_files/13482.got.cif
#   From: 2010.03.12/outbox.cif.g09.slc.cpg/sg131_7_cif.got.tgz:13482.got - 2010.04.06 17:36:35.
