data_PCOD8315816
_publ_section_title
;
Structure prediction by ZEFSAII (Michael W. Deem and Ramdas Pophale) SiO2 
 PCOD8315816
Probable space group: P 42/M M C
;
_chemical_formula_sum "Si O2"
_cell_formula_units_Z 104
_cell_length_a 26.350989
_cell_length_b 26.350989
_cell_length_c 9.122628
_cell_angle_alpha 90.000000
_cell_angle_beta 90.000000
_cell_angle_gamma 90.000000
_cell_volume 6334.521363
_symmetry_space_group_name_H-M "P 42/M M C"
_symmetry_group_IT_number 131
_symmetry_cell_setting 'tetragonal'
loop_
_space_group_symop_operation_xyz
x,y,z
-x,-y,z
-y,x,1/2+z
y,-x,1/2+z
-x,y,-z
x,-y,-z
y,x,1/2-z
-y,-x,1/2-z
-x,-y,-z
x,y,-z
y,-x,1/2-z
-y,x,1/2-z
x,-y,z
-x,y,z
-y,-x,1/2+z
y,x,1/2+z
loop_
_atom_site_type_symbol
_atom_site_label
_atom_site_fract_x
_atom_site_fract_y
_atom_site_fract_z
Si Si1 0.500000 0.940301 0.171588
Si Si2 0.270467 0.346170 0.671344
Si Si3 0.241024 0.443148 0.168907
Si Si4 0.155525 0.677133 0.330427
Si Si5 0.870509 0.057293 0.172341
Si Si6 0.873694 0.419183 0.171472
Si Si7 0.138933 0.209760 0.670107
O O1 0.450091 0.916595 0.243987
O O2 0.500000 0.000000 0.202187
O O3 0.500000 0.927842 0.000000
O O4 0.312906 0.312906 0.750000
O O5 0.282557 0.347185 0.500000
O O6 0.272285 0.403831 0.731574
O O7 0.215403 0.322563 0.705975
O O8 0.261346 0.500000 0.200253
O O9 0.181342 0.442472 0.207082
O O10 0.249085 0.427771 0.000000
O O11 0.146953 0.662685 0.500000
O O12 0.124882 0.638356 0.228943
O O13 0.132010 0.731524 0.290233
O O14 0.920006 0.079995 0.250000
O O15 0.820375 0.088505 0.219491
O O16 0.862502 0.000000 0.226473
O O17 0.879750 0.060082 0.000000
O O18 0.886066 0.420819 0.000000
O O19 0.188331 0.188331 0.750000
O O20 0.149726 0.202624 0.500000
#
# Coordination Sequence:
#
# PCOD8315816 Si02
#       7
#     8  16  16  16  16  16  16
#     4  11  23  37  53  71  93 123 159 203 252 295
#     4  10  19  29  43  67  98 130 161 197 240 283
#     4   9  17  31  49  69  94 125 161 198 240 289
#     4   9  18  31  47  70  97 126 159 195 237 287
#     4   9  18  32  49  69  91 117 149 185 229 279
#     4  10  19  33  52  73  95 122 159 201 244 288
#     4   9  17  30  48  68  94 125 159 194 231 281
#
# _framework density 16.417971999999999
#
# number of rings (size 3 to 8) (size 9 to 14) (size 15 to 20)
#    0.000    2.538    0.769    1.615    0.000    3.231 
#    0.000    1.538    0.000    2.769    0.000    0.000 
#    0.000    0.308    0.000    3.231    0.000    1.385 
#
# Total GULP energy -1289726.870691 kJ/mol
# GULP energy per Si atom -12401.219910 kJ/mol
# Density = 1.638060 g / cm^3
# Si number density = 16.417972 Si / 1000 Ang^3
#
#
#
# Elastic Constant Matrix: (Units=GPa)
#
#
# Indices 1 2 3 4 5 6 
#
# 1 104.5235 60.3408 55.4570 0.0000 0.0000 0.0000
# 2 60.3408 104.5269 55.4562 0.0000 0.0000 0.0000
# 3 55.4570 55.4562 80.0280 0.0000 0.0000 0.0000
# 4 0.0000 0.0000 0.0000 27.7018 0.0000 0.0000
# 5 0.0000 0.0000 0.0000 0.0000 27.7016 0.0000
# 6 0.0000 0.0000 0.0000 0.0000 0.0000 22.2584
#
#
#
# Elastic Compliance Matrix: (Units=1/GPa)
#
#
# Indices 1 2 3 4 5 6 
#
# 1 0.016998 -0.005635 -0.007874 0.000000 0.000000 0.000000
# 2 -0.005635 0.016997 -0.007873 0.000000 0.000000 0.000000
# 3 -0.007874 -0.007873 0.023408 0.000000 0.000000 0.000000
# 4 0.000000 0.000000 0.000000 0.036099 0.000000 0.000000
# 5 0.000000 0.000000 0.000000 0.000000 0.036099 0.000000
# 6 0.000000 0.000000 0.000000 0.000000 0.000000 0.044927
#
#
# Mechanical properties :
#
#
# Convention : Reuss Voigt Hill
#
# Bulk Modulus (GPa) = 68.31552 70.17628 69.24590
# Shear Modulus (GPa) = 22.50497 23.38731 22.94614
#
# Velocity S-wave (km/s) = 3.70638 3.77834 3.74254
# Velocity P-wave (km/s) = 7.74706 7.86580 7.80666
#
# Compressibility (1/GPa) = 0.01463796
#
# Stress axis : x y z
#
# Youngs Moduli (GPa) = 58.82998 58.83384 42.71972
#
# Poissons Ratio (x) = 0.33152 0.33639
# Poissons Ratio (y) = 0.33150 0.33635
# Poissons Ratio (z) = 0.46325 0.46323
#
# Static dielectric constant tensor:
#      x y z
#    x 3.071110 0.000000 0.000000 
#    y 0.000000 3.071100 0.000000 
#    z 0.000000 0.000000 3.134470 
# 
# 
# High freq. dielectric constant tensor:
#      x y z
#    x 1.619360 0.000000 0.000000 
#    y 0.000000 1.619360 0.000000 
#    z 0.000000 0.000000 1.638260 
# 
# From -- ./inp_files/2534.got.cif
#   From: 2010.03.12/outbox.cif.g09.slc.cpg/sg131_2_cif.got.tgz:2534.got - 2010.04.06 17:36:35.
