data_PCOD8315328
_publ_section_title
;
Structure prediction by ZEFSAII (Michael W. Deem and Ramdas Pophale) SiO2 
 PCOD8315328
Probable space group: P 4/N M M
;
_chemical_formula_sum "Si O2"
_cell_formula_units_Z 88
_cell_length_a 13.040965
_cell_length_b 13.040965
_cell_length_c 29.230495
_cell_angle_alpha 90.000000
_cell_angle_beta 90.000000
_cell_angle_gamma 90.000000
_cell_volume 4971.135816
_symmetry_space_group_name_H-M "P 4/N M M"
_symmetry_group_IT_number 129
_symmetry_cell_setting 'tetragonal'
loop_
_space_group_symop_operation_xyz
x,y,z
1/2-y,x,z
1/2-x,1/2-y,z
y,1/2-x,z
1/2+x,-y,-z
-x,1/2+y,-z
1/2+y,1/2+x,-z
-y,-x,-z
-x,-y,-z
1/2+y,-x,-z
1/2+x,1/2+y,-z
-y,1/2+x,-z
1/2-x,y,z
x,1/2-y,z
1/2-y,1/2-x,z
y,x,z
loop_
_atom_site_type_symbol
_atom_site_label
_atom_site_fract_x
_atom_site_fract_y
_atom_site_fract_z
Si Si1 0.629715 0.367461 0.359168
Si Si2 0.999522 0.999522 0.428124
Si Si3 0.866820 0.036161 0.821979
Si Si4 0.869631 0.467941 0.093976
Si Si5 0.034871 0.868612 0.263459
Si Si6 0.872301 0.627700 0.500366
Si Si7 0.868521 0.368521 0.000000
O O1 0.750000 0.380698 0.367248
O O2 0.595604 0.250000 0.363005
O O3 0.572757 0.430078 0.397893
O O4 0.597233 0.407338 0.309357
O O5 0.925082 0.925082 0.456727
O O6 0.074424 0.074424 0.456214
O O7 0.750000 0.000760 0.819923
O O8 0.884394 0.100930 0.868081
O O9 0.891090 0.108406 0.778960
O O10 0.933534 0.933534 0.821023
O O11 0.750000 0.489413 0.095187
O O12 0.925346 0.574655 0.105296
O O13 0.906657 0.429055 0.044481
O O14 0.005788 0.750000 0.264250
O O15 0.928693 0.928693 0.258375
O O16 0.893747 0.750000 0.500423
O O17 0.889692 0.250000 0.009548
#
# Coordination Sequence:
#
# PCOD8315328 Si02
#       7
#    16   8  16  16  16   8   8
#     4  10  20  34  54  80 108 139 176 219 266 313
#     4  11  20  36  58  80 108 142 180 221 264 314
#     4  10  21  36  55  78 104 137 176 218 265 319
#     4  10  20  33  50  74 103 137 178 221 267 320
#     4  10  20  35  54  79 110 142 175 214 258 307
#     4  10  22  38  56  80 110 144 180 220 266 314
#     4   9  17  30  50  74  99 129 170 224 275 319
#
# _framework density 17.702192
#
# number of rings (size 3 to 8) (size 9 to 14) (size 15 to 20)
#    0.000    2.000    0.909    3.000    0.000    3.455 
#    0.000    0.000    0.000    7.636    0.000    2.545 
#    0.000    0.000    0.000    0.000    0.000    0.000 
#
# Total GULP energy -1091365.804198 kJ/mol
# GULP energy per Si atom -12401.884139 kJ/mol
# Density = 1.766190 g / cm^3
# Si number density = 17.702192 Si / 1000 Ang^3
#
#
#
# Elastic Constant Matrix: (Units=GPa)
#
#
# Indices 1 2 3 4 5 6 
#
# 1 84.3615 53.1368 52.4382 0.0000 0.0000 0.0000
# 2 53.1368 84.3615 52.4382 0.0000 0.0000 0.0000
# 3 52.4382 52.4382 135.4586 0.0000 0.0000 0.0000
# 4 0.0000 0.0000 0.0000 38.9402 0.0000 0.0000
# 5 0.0000 0.0000 0.0000 0.0000 38.9402 0.0000
# 6 0.0000 0.0000 0.0000 0.0000 0.0000 22.4672
#
#
#
# Elastic Compliance Matrix: (Units=1/GPa)
#
#
# Indices 1 2 3 4 5 6 
#
# 1 0.021173 -0.010853 -0.003995 0.000000 0.000000 0.000000
# 2 -0.010853 0.021173 -0.003995 0.000000 0.000000 0.000000
# 3 -0.003995 -0.003995 0.010475 0.000000 0.000000 0.000000
# 4 0.000000 0.000000 0.000000 0.025680 0.000000 0.000000
# 5 0.000000 0.000000 0.000000 0.000000 0.025680 0.000000
# 6 0.000000 0.000000 0.000000 0.000000 0.000000 0.044509
#
#
# Mechanical properties :
#
#
# Convention : Reuss Voigt Hill
#
# Bulk Modulus (GPa) = 66.07077 68.91199 67.49138
# Shear Modulus (GPa) = 26.12021 29.81408 27.96714
#
# Velocity S-wave (km/s) = 3.84544 4.10836 3.97907
# Velocity P-wave (km/s) = 7.55785 7.84333 7.70191
#
# Compressibility (1/GPa) = 0.01513529
#
# Stress axis : x y z
#
# Youngs Moduli (GPa) = 47.23005 47.23005 95.46165
#
# Poissons Ratio (x) = 0.51259 0.38137
# Poissons Ratio (y) = 0.51259 0.38137
# Poissons Ratio (z) = 0.18869 0.18869
#
# Static dielectric constant tensor:
#      x y z
#    x 3.204650 0.000000 0.000000 
#    y 0.000000 3.204650 0.000000 
#    z 0.000000 0.000000 3.512480 
# 
# 
# High freq. dielectric constant tensor:
#      x y z
#    x 1.685110 0.000000 0.000000 
#    y 0.000000 1.685110 0.000000 
#    z 0.000000 0.000000 1.702960 
# 
# From -- ./inp_files/7806.got.cif
#   From: 2010.03.12/outbox.cif.g09.slc.cpg/sg129_4_cif.got.tgz:7806.got - 2010.04.06 17:19:44.
