data_PCOD8315137
_publ_section_title
;
Structure prediction by ZEFSAII (Michael W. Deem and Ramdas Pophale) SiO2 
 PCOD8315137
Probable space group: P 4/N M M
;
_chemical_formula_sum "Si O2"
_cell_formula_units_Z 128
_cell_length_a 17.670578
_cell_length_b 17.670578
_cell_length_c 24.337705
_cell_angle_alpha 90.000000
_cell_angle_beta 90.000000
_cell_angle_gamma 90.000000
_cell_volume 7599.432003
_symmetry_space_group_name_H-M "P 4/N M M"
_symmetry_group_IT_number 129
_symmetry_cell_setting 'tetragonal'
loop_
_space_group_symop_operation_xyz
x,y,z
1/2-y,x,z
1/2-x,1/2-y,z
y,1/2-x,z
1/2+x,-y,-z
-x,1/2+y,-z
1/2+y,1/2+x,-z
-y,-x,-z
-x,-y,-z
1/2+y,-x,-z
1/2+x,1/2+y,-z
-y,1/2+x,-z
1/2-x,y,z
x,1/2-y,z
1/2-y,1/2-x,z
y,x,z
loop_
_atom_site_type_symbol
_atom_site_label
_atom_site_fract_x
_atom_site_fract_y
_atom_site_fract_z
Si Si1 0.335167 0.044802 0.499999
Si Si2 0.503904 0.121792 0.000001
Si Si3 0.035818 0.161521 0.380364
Si Si4 0.539561 0.665525 0.883194
Si Si5 0.661521 0.535818 0.380367
Si Si6 0.563416 0.436585 0.184999
Si Si7 0.063596 0.563594 0.691535
Si Si8 0.960439 0.834476 0.116804
O O1 0.250000 0.070513 0.499999
O O2 0.376055 0.123946 0.499999
O O3 0.353611 0.002032 0.442425
O O4 0.353611 0.002032 0.557573
O O5 0.488343 0.170818 0.054025
O O6 0.449679 0.050322 0.000005
O O7 0.589937 0.089937 0.000000
O O8 0.488339 0.170816 0.945978
O O9 0.054934 0.250000 0.370679
O O10 0.112137 0.112137 0.370517
O O11 0.969229 0.137349 0.339005
O O12 0.560933 0.750000 0.863673
O O13 0.613448 0.613448 0.876141
O O14 0.469830 0.635843 0.846560
O O15 0.750000 0.554934 0.370681
O O16 0.612137 0.612137 0.370519
O O17 0.637349 0.469229 0.339007
O O18 0.500001 0.500001 0.185832
O O19 0.586723 0.413281 0.246697
O O20 0.635843 0.469828 0.153437
O O21 0.000001 0.500000 0.690979
O O22 0.939068 0.750000 0.136325
O O23 0.886552 0.886552 0.123859
#
# Coordination Sequence:
#
# PCOD8315137 Si02
#       8
#    16  16  16  16  16  16  16  16
#     4   8  14  24  39  63  94 124 153 185 226 278
#     4   9  15  28  49  72  98 128 165 197 222 268
#     4   9  17  29  46  69  96 125 156 191 233 281
#     4  10  19  31  50  75 101 128 158 194 236 281
#     4   9  17  29  46  69  96 125 156 191 233 281
#     4   9  18  33  49  66  89 124 168 201 228 274
#     4   9  18  31  47  66  90 121 160 203 239 274
#     4  10  19  31  50  75 101 128 158 194 236 281
#
# _framework density 16.843364000000001
#
# number of rings (size 3 to 8) (size 9 to 14) (size 15 to 20)
#    0.000    2.875    1.250    0.375    0.000    2.125 
#    0.000    5.000    0.000    3.000    0.000    9.625 
#    0.000    3.000    0.000    0.000    0.000    0.000 
#
# Total GULP energy -1585848.016249 kJ/mol
# GULP energy per Si atom -12389.437627 kJ/mol
# Density = 1.680503 g / cm^3
# Si number density = 16.843364 Si / 1000 Ang^3
#
#
#
# Elastic Constant Matrix: (Units=GPa)
#
#
# Indices 1 2 3 4 5 6 
#
# 1 72.5409 52.9731 44.7696 0.0000 0.0000 0.0000
# 2 52.9731 72.5409 44.7696 0.0000 0.0000 0.0000
# 3 44.7696 44.7696 141.8054 0.0000 0.0000 0.0000
# 4 0.0000 0.0000 0.0000 13.7003 0.0000 0.0000
# 5 0.0000 0.0000 0.0000 0.0000 13.7003 0.0000
# 6 0.0000 0.0000 0.0000 0.0000 0.0000 14.0292
#
#
#
# Elastic Compliance Matrix: (Units=1/GPa)
#
#
# Indices 1 2 3 4 5 6 
#
# 1 0.030694 -0.020411 -0.003247 0.000000 0.000000 0.000000
# 2 -0.020411 0.030694 -0.003247 0.000000 0.000000 0.000000
# 3 -0.003247 -0.003247 0.009102 0.000000 0.000000 0.000000
# 4 0.000000 0.000000 0.000000 0.072991 0.000000 0.000000
# 5 0.000000 0.000000 0.000000 0.000000 0.072991 0.000000
# 6 0.000000 0.000000 0.000000 0.000000 0.000000 0.071280
#
#
# Mechanical properties :
#
#
# Convention : Reuss Voigt Hill
#
# Bulk Modulus (GPa) = 59.94409 63.54574 61.74491
# Shear Modulus (GPa) = 14.40425 17.91095 16.15760
#
# Velocity S-wave (km/s) = 2.92753 3.26449 3.10059
# Velocity P-wave (km/s) = 6.86248 7.21239 7.03961
#
# Compressibility (1/GPa) = 0.01668221
#
# Stress axis : x y z
#
# Youngs Moduli (GPa) = 32.57987 32.57987 109.86769
#
# Poissons Ratio (x) = 0.66497 0.35669
# Poissons Ratio (y) = 0.66497 0.35669
# Poissons Ratio (z) = 0.10577 0.10577
#
# Static dielectric constant tensor:
#      x y z
#    x 2.884630 0.000000 0.000000 
#    y 0.000000 2.884630 0.000000 
#    z 0.000000 0.000000 3.616960 
# 
# 
# High freq. dielectric constant tensor:
#      x y z
#    x 1.621270 0.000000 0.000000 
#    y 0.000000 1.621270 0.000000 
#    z 0.000000 0.000000 1.663890 
# 
# From -- ./inp_files/7247.got.cif
#   From: 2010.03.12/outbox.cif.g09.slc.cpg/sg129_4_cif.got.tgz:7247.got - 2010.04.06 17:19:44.
