data_PCOD8315073
_publ_section_title
;
Structure prediction by ZEFSAII (Michael W. Deem and Ramdas Pophale) SiO2 
 PCOD8315073
Probable space group: P 4/N M M
;
_chemical_formula_sum "Si O2"
_cell_formula_units_Z 80
_cell_length_a 12.534432
_cell_length_b 12.534432
_cell_length_c 29.269129
_cell_angle_alpha 90.000000
_cell_angle_beta 90.000000
_cell_angle_gamma 90.000000
_cell_volume 4598.530973
_symmetry_space_group_name_H-M "P 4/N M M"
_symmetry_group_IT_number 129
_symmetry_cell_setting 'tetragonal'
loop_
_space_group_symop_operation_xyz
x,y,z
1/2-y,x,z
1/2-x,1/2-y,z
y,1/2-x,z
1/2+x,-y,-z
-x,1/2+y,-z
1/2+y,1/2+x,-z
-y,-x,-z
-x,-y,-z
1/2+y,-x,-z
1/2+x,1/2+y,-z
-y,1/2+x,-z
1/2-x,y,z
x,1/2-y,z
1/2-y,1/2-x,z
y,x,z
loop_
_atom_site_type_symbol
_atom_site_label
_atom_site_fract_x
_atom_site_fract_y
_atom_site_fract_z
Si Si1 0.123131 0.750000 0.787498
Si Si2 0.122980 0.632173 0.450949
Si Si3 0.624941 0.461918 0.643525
Si Si4 0.250000 0.623657 0.109696
Si Si5 0.051733 0.875883 0.049204
Si Si6 0.454857 0.871748 0.267554
O O1 0.250000 0.750000 0.786696
O O2 0.077707 0.750000 0.838936
O O3 0.082198 0.644160 0.761753
O O4 0.083667 0.583667 0.500000
O O5 0.250000 0.638444 0.452746
O O6 0.074798 0.750000 0.444145
O O7 0.085781 0.563811 0.407746
O O8 0.750000 0.463357 0.648592
O O9 0.578744 0.578744 0.655621
O O10 0.576047 0.376802 0.678881
O O11 0.250000 0.750000 0.109539
O O12 0.358169 0.584958 0.084944
O O13 0.024831 0.750000 0.054307
O O14 0.101161 0.898840 0.000000
O O15 0.943600 0.943600 0.057671
O O16 0.481667 0.750000 0.254740
O O17 0.558536 0.941465 0.255834
#
# Coordination Sequence:
#
# PCOD8315073 Si02
#       6
#     8  16  16   8  16  16
#     4   9  18  34  54  77 103 135 175 214 249 301
#     4   8  14  25  42  64  89 116 151 200 253 304
#     4  10  19  30  46  68  93 127 167 208 256 306
#     4   9  18  32  54  77 103 139 177 216 253 299
#     4  10  19  32  52  78 108 142 180 221 265 313
#     4  10  20  34  54  78 104 134 170 214 262 310
#
# _framework density 17.396858999999999
#
# number of rings (size 3 to 8) (size 9 to 14) (size 15 to 20)
#    0.000    2.600    2.000    1.200    0.000    2.600 
#    0.000    0.000    0.000    0.600    0.000    7.000 
#    0.000    4.800    0.000    0.000    0.000    0.000 
#
# Total GULP energy -991445.337755 kJ/mol
# GULP energy per Si atom -12393.066722 kJ/mol
# Density = 1.735726 g / cm^3
# Si number density = 17.396859 Si / 1000 Ang^3
#
#
#
# Elastic Constant Matrix: (Units=GPa)
#
#
# Indices 1 2 3 4 5 6 
#
# 1 57.6697 84.0490 33.8331 0.0000 0.0000 0.0000
# 2 84.0490 57.6711 33.8329 0.0000 0.0000 0.0000
# 3 33.8331 33.8329 118.1060 0.0000 0.0000 0.0000
# 4 0.0000 0.0000 0.0000 12.6993 0.0000 0.0000
# 5 0.0000 0.0000 0.0000 0.0000 12.6995 0.0000
# 6 0.0000 0.0000 0.0000 0.0000 0.0000 18.0040
#
#
#
# Elastic Compliance Matrix: (Units=1/GPa)
#
#
# Indices 1 2 3 4 5 6 
#
# 1 -0.014868 0.023042 -0.002342 0.000000 0.000000 0.000000
# 2 0.023042 -0.014867 -0.002342 0.000000 0.000000 0.000000
# 3 -0.002342 -0.002342 0.009809 0.000000 0.000000 0.000000
# 4 0.000000 0.000000 0.000000 0.078745 0.000000 0.000000
# 5 0.000000 0.000000 0.000000 0.000000 0.078743 0.000000
# 6 0.000000 0.000000 0.000000 0.000000 0.000000 0.055543
#
#
# Mechanical properties :
#
#
# Convention : Reuss Voigt Hill
#
# Bulk Modulus (GPa) = 59.55729 59.65296 59.60513
# Shear Modulus (GPa) = 30.86730 14.12935 22.49833
#
# Velocity S-wave (km/s) = 4.21682 2.85297 3.60007
# Velocity P-wave (km/s) = 7.61693 6.72432 7.18450
#
# Compressibility (1/GPa) = 0.01679055
#
# Stress axis : x y z
#
# Youngs Moduli (GPa) = -67.25899 -67.26124 101.95190
#
# Poissons Ratio (x) = 1.54983 0.23872
# Poissons Ratio (y) = 1.54977 0.23874
# Poissons Ratio (z) = -0.15749 -0.15751
#
# Static dielectric constant tensor:
#      x y z
#    x 3.026000 0.000000 0.000000 
#    y 0.000000 3.026000 0.000000 
#    z 0.000000 0.000000 3.562780 
# 
# 
# High freq. dielectric constant tensor:
#      x y z
#    x 1.651150 0.000000 0.000000 
#    y 0.000000 1.651150 0.000000 
#    z 0.000000 0.000000 1.684880 
# 
# From -- ./inp_files/7719.got.cif
#   From: 2010.03.12/outbox.cif.g09.slc.cpg/sg129_4_cif.got.tgz:7719.got - 2010.04.06 17:19:44.
