data_PCOD8315232
_publ_section_title
;
Structure prediction by ZEFSAII (Michael W. Deem and Ramdas Pophale) SiO2 
 PCOD8315232
Probable space group: P 4/N M M
;
_chemical_formula_sum "Si O2"
_cell_formula_units_Z 96
_cell_length_a 14.116177
_cell_length_b 14.116177
_cell_length_c 30.970101
_cell_angle_alpha 90.000000
_cell_angle_beta 90.000000
_cell_angle_gamma 90.000000
_cell_volume 6171.302178
_symmetry_space_group_name_H-M "P 4/N M M"
_symmetry_group_IT_number 129
_symmetry_cell_setting 'tetragonal'
loop_
_space_group_symop_operation_xyz
x,y,z
1/2-y,x,z
1/2-x,1/2-y,z
y,1/2-x,z
1/2+x,-y,-z
-x,1/2+y,-z
1/2+y,1/2+x,-z
-y,-x,-z
-x,-y,-z
1/2+y,-x,-z
1/2+x,1/2+y,-z
-y,1/2+x,-z
1/2-x,y,z
x,1/2-y,z
1/2-y,1/2-x,z
y,x,z
loop_
_atom_site_type_symbol
_atom_site_label
_atom_site_fract_x
_atom_site_fract_y
_atom_site_fract_z
Si Si1 0.136985 0.854720 0.047204
Si Si2 0.354971 0.637934 0.385596
Si Si3 0.141374 0.990011 0.121052
Si Si4 0.510266 0.358739 0.217437
Si Si5 0.354402 0.862139 0.709092
Si Si6 0.519990 0.135974 0.533963
O O1 0.250000 0.850208 0.048600
O O2 0.094751 0.750000 0.054416
O O3 0.096787 0.918818 0.085910
O O4 0.105634 0.894367 0.000000
O O5 0.250000 0.597313 0.398183
O O6 0.345758 0.750000 0.382830
O O7 0.386305 0.600881 0.338068
O O8 0.435169 0.609232 0.419771
O O9 0.250000 0.010619 0.110439
O O10 0.128978 0.946348 0.169215
O O11 0.090064 0.090064 0.117336
O O12 0.489567 0.250000 0.228142
O O13 0.410228 0.410228 0.221262
O O14 0.581836 0.403978 0.252370
O O15 0.250000 0.907771 0.713710
O O16 0.346587 0.750000 0.714077
O O17 0.596772 0.096772 0.500000
O O18 0.505299 0.250000 0.528172
O O19 0.419012 0.080989 0.529257
#
# Coordination Sequence:
#
# PCOD8315232 Si02
#       6
#    16  16  16  16  16  16
#     4   8  14  25  40  57  76  96 119 151 193 238
#     4   8  14  26  44  64  85 108 135 169 206 244
#     4   9  17  27  38  54  76 102 132 161 189 226
#     4   9  17  27  38  54  77 105 135 164 193 228
#     4   8  14  25  41  61  83 105 131 166 207 244
#     4  10  20  32  47  68  91 116 147 179 213 254
#
# _framework density 15.555873999999999
#
# number of rings (size 3 to 8) (size 9 to 14) (size 15 to 20)
#    0.000    3.333    0.000    2.000    0.000    3.000 
#    0.000    5.000    0.000    0.000    0.000    0.000 
#    0.000    4.667    0.000    3.667    0.000    0.333 
#
# Total GULP energy -1189404.234565 kJ/mol
# GULP energy per Si atom -12389.627443 kJ/mol
# Density = 1.552047 g / cm^3
# Si number density = 15.555874 Si / 1000 Ang^3
#
#
#
# Elastic Constant Matrix: (Units=GPa)
#
#
# Indices 1 2 3 4 5 6 
#
# 1 58.3972 30.6249 45.4197 0.0000 0.0000 0.0000
# 2 30.6249 58.3971 45.4197 0.0000 0.0000 0.0000
# 3 45.4197 45.4197 126.1503 0.0000 0.0000 0.0000
# 4 0.0000 0.0000 0.0000 18.8574 0.0000 0.0000
# 5 0.0000 0.0000 0.0000 0.0000 18.8575 0.0000
# 6 0.0000 0.0000 0.0000 0.0000 0.0000 13.2094
#
#
#
# Elastic Compliance Matrix: (Units=1/GPa)
#
#
# Indices 1 2 3 4 5 6 
#
# 1 0.026882 -0.009125 -0.006393 0.000000 0.000000 0.000000
# 2 -0.009125 0.026882 -0.006393 0.000000 0.000000 0.000000
# 3 -0.006393 -0.006393 0.012531 0.000000 0.000000 0.000000
# 4 0.000000 0.000000 0.000000 0.053030 0.000000 0.000000
# 5 0.000000 0.000000 0.000000 0.000000 0.053029 0.000000
# 6 0.000000 0.000000 0.000000 0.000000 0.000000 0.075704
#
#
# Mechanical properties :
#
#
# Convention : Reuss Voigt Hill
#
# Bulk Modulus (GPa) = 44.50067 53.98589 49.24328
# Shear Modulus (GPa) = 16.70167 18.28356 17.49261
#
# Velocity S-wave (km/s) = 3.28022 3.43205 3.35700
# Velocity P-wave (km/s) = 6.55863 7.10529 6.83742
#
# Compressibility (1/GPa) = 0.02247157
#
# Stress axis : x y z
#
# Youngs Moduli (GPa) = 37.19961 37.19950 79.80344
#
# Poissons Ratio (x) = 0.33945 0.51021
# Poissons Ratio (y) = 0.33945 0.51021
# Poissons Ratio (z) = 0.23783 0.23783
#
# Static dielectric constant tensor:
#      x y z
#    x 2.784710 0.000000 0.000000 
#    y 0.000000 2.784710 0.000000 
#    z 0.000000 0.000000 3.439310 
# 
# 
# High freq. dielectric constant tensor:
#      x y z
#    x 1.564260 0.000000 0.000000 
#    y 0.000000 1.564260 0.000000 
#    z 0.000000 0.000000 1.617340 
# 
# From -- ./inp_files/7828.got.cif
#   From: 2010.03.12/outbox.cif.g09.slc.cpg/sg129_4_cif.got.tgz:7828.got - 2010.04.06 17:19:44.
