data_PCOD8315812
_publ_section_title
;
Structure prediction by ZEFSAII (Michael W. Deem and Ramdas Pophale) SiO2 
 PCOD8315812
Probable space group: P 42/M M C
;
_chemical_formula_sum "Si O2"
_cell_formula_units_Z 88
_cell_length_a 26.649775
_cell_length_b 26.649775
_cell_length_c 9.017314
_cell_angle_alpha 90.000000
_cell_angle_beta 90.000000
_cell_angle_gamma 90.000000
_cell_volume 6404.191153
_symmetry_space_group_name_H-M "P 42/M M C"
_symmetry_group_IT_number 131
_symmetry_cell_setting 'tetragonal'
loop_
_space_group_symop_operation_xyz
x,y,z
-x,-y,z
-y,x,1/2+z
y,-x,1/2+z
-x,y,-z
x,-y,-z
y,x,1/2-z
-y,-x,1/2-z
-x,-y,-z
x,y,-z
y,-x,1/2-z
-y,x,1/2-z
x,-y,z
-x,y,z
-y,-x,1/2+z
y,x,1/2+z
loop_
_atom_site_type_symbol
_atom_site_label
_atom_site_fract_x
_atom_site_fract_y
_atom_site_fract_z
Si Si1 0.194975 0.874285 0.666280
Si Si2 0.442432 0.899714 0.325235
Si Si3 0.942303 0.730121 0.673500
Si Si4 0.000000 0.558938 0.664242
Si Si5 0.210370 0.721107 0.167255
Si Si6 0.649092 0.139975 0.825215
O O1 0.144728 0.855273 0.750000
O O2 0.179807 0.890019 0.500000
O O3 0.219758 0.922310 0.746116
O O4 0.234535 0.829572 0.663425
O O5 0.435033 0.902151 0.500000
O O6 0.500000 0.886870 0.283859
O O7 0.424181 0.952045 0.256178
O O8 0.405463 0.859469 0.252237
O O9 0.936791 0.740405 0.500000
O O10 0.909424 0.681476 0.718912
O O11 0.000000 0.720050 0.719540
O O12 0.000000 0.500000 0.643736
O O13 0.000000 0.584579 0.500000
O O14 0.260520 0.739481 0.250000
O O15 0.189573 0.675239 0.263196
O O16 0.223138 0.703678 0.000000
O O17 0.642162 0.144423 0.000000
#
# Coordination Sequence:
#
# PCOD8315812 Si02
#       6
#    16  16  16   8  16  16
#     4   9  16  26  41  58  75  97 122 146 174 214
#     4  10  20  32  43  56  75  99 129 166 204 237
#     4   9  18  30  41  56  79 102 122 150 185 220
#     4   9  17  29  43  55  67  89 123 161 199 237
#     4   9  16  27  42  59  79  99 123 153 189 230
#     4  10  19  29  43  60  78 102 132 160 194 235
#
# _framework density 13.741002
#
# number of rings (size 3 to 8) (size 9 to 14) (size 15 to 20)
#    0.000    2.636    0.000    2.455    1.273    7.636 
#    0.000    0.000    0.000    0.000    0.000    0.000 
#    0.000    0.364    0.000    3.818    0.000    2.000 
#
# Total GULP energy -1090981.176817 kJ/mol
# GULP energy per Si atom -12397.513373 kJ/mol
# Density = 1.370973 g / cm^3
# Si number density = 13.741002 Si / 1000 Ang^3
#
#
#
# Elastic Constant Matrix: (Units=GPa)
#
#
# Indices 1 2 3 4 5 6 
#
# 1 58.0354 41.8757 38.6856 0.0000 0.0000 0.0000
# 2 41.8757 58.0353 38.6862 0.0000 0.0000 0.0000
# 3 38.6856 38.6862 90.2479 0.0000 0.0000 0.0000
# 4 0.0000 0.0000 0.0000 21.4747 0.0000 0.0000
# 5 0.0000 0.0000 0.0000 0.0000 21.4746 0.0000
# 6 0.0000 0.0000 0.0000 0.0000 0.0000 15.7589
#
#
#
# Elastic Compliance Matrix: (Units=1/GPa)
#
#
# Indices 1 2 3 4 5 6 
#
# 1 0.038432 -0.023450 -0.006422 0.000000 0.000000 0.000000
# 2 -0.023450 0.038433 -0.006423 0.000000 0.000000 0.000000
# 3 -0.006422 -0.006423 0.016587 0.000000 0.000000 0.000000
# 4 0.000000 0.000000 0.000000 0.046566 0.000000 0.000000
# 5 0.000000 0.000000 0.000000 0.000000 0.046567 0.000000
# 6 0.000000 0.000000 0.000000 0.000000 0.000000 0.063456
#
#
# Mechanical properties :
#
#
# Convention : Reuss Voigt Hill
#
# Bulk Modulus (GPa) = 47.93416 49.42373 48.67895
# Shear Modulus (GPa) = 15.17061 17.54639 16.35850
#
# Velocity S-wave (km/s) = 3.32631 3.57730 3.45409
# Velocity P-wave (km/s) = 7.05069 7.28759 7.17012
#
# Compressibility (1/GPa) = 0.02086195
#
# Stress axis : x y z
#
# Youngs Moduli (GPa) = 26.01984 26.01941 60.28926
#
# Poissons Ratio (x) = 0.61016 0.38718
# Poissons Ratio (y) = 0.61017 0.38723
# Poissons Ratio (z) = 0.16710 0.16712
#
# Static dielectric constant tensor:
#      x y z
#    x 2.551690 0.000000 0.000000 
#    y 0.000000 2.551690 0.000000 
#    z 0.000000 0.000000 2.900240 
# 
# 
# High freq. dielectric constant tensor:
#      x y z
#    x 1.488390 0.000000 0.000000 
#    y 0.000000 1.488390 0.000000 
#    z 0.000000 0.000000 1.544260 
# 
# From -- ./inp_files/2410.got.cif
#   From: 2010.03.12/outbox.cif.g09.slc.cpg/sg131_2_cif.got.tgz:2410.got - 2010.04.06 17:36:35.
