data_PCOD8315217
_publ_section_title
;
Structure prediction by ZEFSAII (Michael W. Deem and Ramdas Pophale) SiO2 
 PCOD8315217
Probable space group: P 4/N M M
;
_chemical_formula_sum "Si O2"
_cell_formula_units_Z 96
_cell_length_a 17.881446
_cell_length_b 17.881446
_cell_length_c 18.183656
_cell_angle_alpha 90.000000
_cell_angle_beta 90.000000
_cell_angle_gamma 90.000000
_cell_volume 5814.153291
_symmetry_space_group_name_H-M "P 4/N M M"
_symmetry_group_IT_number 129
_symmetry_cell_setting 'tetragonal'
loop_
_space_group_symop_operation_xyz
x,y,z
1/2-y,x,z
1/2-x,1/2-y,z
y,1/2-x,z
1/2+x,-y,-z
-x,1/2+y,-z
1/2+y,1/2+x,-z
-y,-x,-z
-x,-y,-z
1/2+y,-x,-z
1/2+x,1/2+y,-z
-y,1/2+x,-z
1/2-x,y,z
x,1/2-y,z
1/2-y,1/2-x,z
y,x,z
loop_
_atom_site_type_symbol
_atom_site_label
_atom_site_fract_x
_atom_site_fract_y
_atom_site_fract_z
Si Si1 0.334406 0.534027 0.301120
Si Si2 0.165088 0.045790 0.153094
Si Si3 0.336622 0.462480 0.687130
Si Si4 0.333377 0.600578 0.778381
Si Si5 0.948439 0.429318 0.579520
Si Si6 0.837163 0.390254 0.922301
O O1 0.250000 0.521033 0.328199
O O2 0.356309 0.476029 0.236828
O O3 0.341014 0.616225 0.266203
O O4 0.388545 0.526408 0.370612
O O5 0.250000 0.074246 0.150053
O O6 0.112551 0.112551 0.126169
O O7 0.153575 0.977162 0.097525
O O8 0.250000 0.436841 0.681475
O O9 0.389014 0.389014 0.690112
O O10 0.352420 0.513311 0.759719
O O11 0.355332 0.517746 0.618389
O O12 0.250000 0.617433 0.751957
O O13 0.341209 0.615223 0.864963
O O14 0.910918 0.410918 0.500000
O O15 0.018000 0.482001 0.566033
O O16 0.750000 0.366458 0.921142
O O17 0.874438 0.374438 0.000000
#
# Coordination Sequence:
#
# PCOD8315217 Si02
#       6
#    16  16  16  16  16  16
#     4   9  17  28  44  65  88 116 149 186 226 268
#     4   9  18  32  48  67  90 116 150 189 229 274
#     4   9  18  32  49  69  92 120 157 198 237 278
#     4   9  17  29  45  65  90 120 150 180 220 271
#     4   9  17  29  45  65  90 120 152 186 227 275
#     4  10  20  31  46  71  98 123 152 186 225 271
#
# _framework density 16.511433
#
# number of rings (size 3 to 8) (size 9 to 14) (size 15 to 20)
#    0.000    2.833    0.000    2.500    0.000    7.500 
#    0.000    0.000    0.000    0.000    0.000    2.333 
#    0.000    9.333    0.000    0.000    0.000    0.000 
#
# Total GULP energy -1189815.925141 kJ/mol
# GULP energy per Si atom -12393.915887 kJ/mol
# Density = 1.647385 g / cm^3
# Si number density = 16.511433 Si / 1000 Ang^3
#
#
#
# Elastic Constant Matrix: (Units=GPa)
#
#
# Indices 1 2 3 4 5 6 
#
# 1 78.9526 46.4672 32.3977 0.0000 0.0000 0.0000
# 2 46.4672 78.9526 32.3977 0.0000 0.0000 0.0000
# 3 32.3977 32.3977 106.5073 0.0000 0.0000 0.0000
# 4 0.0000 0.0000 0.0000 16.2847 0.0000 0.0000
# 5 0.0000 0.0000 0.0000 0.0000 16.2847 0.0000
# 6 0.0000 0.0000 0.0000 0.0000 0.0000 23.1262
#
#
#
# Elastic Compliance Matrix: (Units=1/GPa)
#
#
# Indices 1 2 3 4 5 6 
#
# 1 0.020121 -0.010662 -0.002878 0.000000 0.000000 0.000000
# 2 -0.010662 0.020121 -0.002878 0.000000 0.000000 0.000000
# 3 -0.002878 -0.002878 0.011140 0.000000 0.000000 0.000000
# 4 0.000000 0.000000 0.000000 0.061407 0.000000 0.000000
# 5 0.000000 0.000000 0.000000 0.000000 0.061407 0.000000
# 6 0.000000 0.000000 0.000000 0.000000 0.000000 0.043241
#
#
# Mechanical properties :
#
#
# Convention : Reuss Voigt Hill
#
# Bulk Modulus (GPa) = 53.91069 54.10419 54.00744
# Shear Modulus (GPa) = 19.49665 21.34912 20.42289
#
# Velocity S-wave (km/s) = 3.44000 3.59972 3.52077
# Velocity P-wave (km/s) = 6.96416 7.07928 7.02195
#
# Compressibility (1/GPa) = 0.01854920
#
# Stress axis : x y z
#
# Youngs Moduli (GPa) = 49.69826 49.69826 89.76970
#
# Poissons Ratio (x) = 0.52986 0.25831
# Poissons Ratio (y) = 0.52986 0.25831
# Poissons Ratio (z) = 0.14301 0.14301
#
# Static dielectric constant tensor:
#      x y z
#    x 3.021070 0.000000 0.000000 
#    y 0.000000 3.021070 0.000000 
#    z 0.000000 0.000000 3.257760 
# 
# 
# High freq. dielectric constant tensor:
#      x y z
#    x 1.627790 0.000000 0.000000 
#    y 0.000000 1.627790 0.000000 
#    z 0.000000 0.000000 1.626980 
# 
# From -- ./inp_files/5662.got.cif
#   From: 2010.03.12/outbox.cif.g09.slc.cpg/sg129_3_cif.got.tgz:5662.got - 2010.04.06 17:19:44.
