data_PCOD8315752
_publ_section_title
;
Structure prediction by ZEFSAII (Michael W. Deem and Ramdas Pophale) SiO2 
 PCOD8315752
Probable space group: P 42/M M C
;
_chemical_formula_sum "Si O2"
_cell_formula_units_Z 96
_cell_length_a 18.826330
_cell_length_b 18.826330
_cell_length_c 15.754417
_cell_angle_alpha 90.000000
_cell_angle_beta 90.000000
_cell_angle_gamma 90.000000
_cell_volume 5583.849065
_symmetry_space_group_name_H-M "P 42/M M C"
_symmetry_group_IT_number 131
_symmetry_cell_setting 'tetragonal'
loop_
_space_group_symop_operation_xyz
x,y,z
-x,-y,z
-y,x,1/2+z
y,-x,1/2+z
-x,y,-z
x,-y,-z
y,x,1/2-z
-y,-x,1/2-z
-x,-y,-z
x,y,-z
y,-x,1/2-z
-y,x,1/2-z
x,-y,z
-x,y,z
-y,-x,1/2+z
y,x,1/2+z
loop_
_atom_site_type_symbol
_atom_site_label
_atom_site_fract_x
_atom_site_fract_y
_atom_site_fract_z
Si Si1 0.653426 0.770215 0.244445
Si Si2 0.293729 0.417379 0.095932
Si Si3 0.080107 0.793392 0.092495
Si Si4 0.079656 0.707501 0.747524
Si Si5 0.581707 0.686153 0.096169
Si Si6 0.856448 0.921681 0.833128
O O1 0.730435 0.730435 0.250000
O O2 0.614702 0.760067 0.334808
O O3 0.656973 0.854697 0.223721
O O4 0.607191 0.742633 0.165702
O O5 0.301558 0.500000 0.113248
O O6 0.372155 0.384887 0.108022
O O7 0.265201 0.402091 0.000000
O O8 0.102522 0.733809 0.158913
O O9 0.128283 0.863983 0.094527
O O10 0.000000 0.817868 0.113393
O O11 0.087402 0.758653 0.000000
O O12 0.078051 0.772716 0.683039
O O13 0.000000 0.671516 0.747642
O O14 0.500000 0.666244 0.113322
O O15 0.591461 0.716655 0.000000
O O16 0.900156 0.900156 0.750000
O O17 0.880779 0.000000 0.862863
#
# Coordination Sequence:
#
# PCOD8315752 Si02
#       6
#    16  16  16  16  16  16
#     4  10  18  30  50  73  96 125 162 203 243 282
#     4   9  18  31  48  75 108 136 160 186 222 273
#     4   9  17  27  39  58  83 109 140 182 232 288
#     4   9  18  32  47  62  83 115 157 202 245 285
#     4   9  18  32  51  76 103 131 161 189 223 274
#     4   9  16  26  39  55  77 107 142 181 229 286
#
# _framework density 17.192442
#
# number of rings (size 3 to 8) (size 9 to 14) (size 15 to 20)
#    0.000    2.833    0.000    3.500    0.000    2.500 
#    0.000    6.667    0.000    6.500    0.000    2.333 
#    0.000    0.000    0.000    0.000    0.000    0.000 
#
# Total GULP energy -1189604.037057 kJ/mol
# GULP energy per Si atom -12391.708719 kJ/mol
# Density = 1.715331 g / cm^3
# Si number density = 17.192442 Si / 1000 Ang^3
#
#
#
# Elastic Constant Matrix: (Units=GPa)
#
#
# Indices 1 2 3 4 5 6 
#
# 1 82.6635 31.9254 23.0359 0.0000 0.0000 0.0000
# 2 31.9254 82.6635 23.0359 0.0000 0.0000 0.0000
# 3 23.0359 23.0359 67.2362 0.0000 0.0000 0.0000
# 4 0.0000 0.0000 0.0000 17.1763 0.0000 0.0000
# 5 0.0000 0.0000 0.0000 0.0000 17.1763 0.0000
# 6 0.0000 0.0000 0.0000 0.0000 0.0000 18.7556
#
#
#
# Elastic Compliance Matrix: (Units=1/GPa)
#
#
# Indices 1 2 3 4 5 6 
#
# 1 0.014915 -0.004794 -0.003468 0.000000 0.000000 0.000000
# 2 -0.004794 0.014915 -0.003468 0.000000 0.000000 0.000000
# 3 -0.003468 -0.003468 0.017249 0.000000 0.000000 0.000000
# 4 0.000000 0.000000 0.000000 0.058220 0.000000 0.000000
# 5 0.000000 0.000000 0.000000 0.000000 0.058220 0.000000
# 6 0.000000 0.000000 0.000000 0.000000 0.000000 0.053317
#
#
# Mechanical properties :
#
#
# Convention : Reuss Voigt Hill
#
# Bulk Modulus (GPa) = 42.33568 43.17306 42.75437
# Shear Modulus (GPa) = 20.14766 20.92604 20.53685
#
# Velocity S-wave (km/s) = 3.42700 3.49257 3.45994
# Velocity P-wave (km/s) = 6.35115 6.43663 6.39404
#
# Compressibility (1/GPa) = 0.02362074
#
# Stress axis : x y z
#
# Youngs Moduli (GPa) = 67.04638 67.04638 57.97432
#
# Poissons Ratio (x) = 0.32142 0.20103
# Poissons Ratio (y) = 0.32142 0.20103
# Poissons Ratio (z) = 0.23249 0.23249
#
# Static dielectric constant tensor:
#      x y z
#    x 3.046180 0.000000 0.000000 
#    y 0.000000 3.046180 0.000000 
#    z 0.000000 0.000000 3.364990 
# 
# 
# High freq. dielectric constant tensor:
#      x y z
#    x 1.641070 0.000000 0.000000 
#    y 0.000000 1.641070 0.000000 
#    z 0.000000 0.000000 1.667170 
# 
# From -- ./inp_files/7916.got.cif
#   From: 2010.03.12/outbox.cif.g09.slc.cpg/sg131_4_cif.got.tgz:7916.got - 2010.04.06 17:36:35.
