data_PCOD8315135
_publ_section_title
;
Structure prediction by ZEFSAII (Michael W. Deem and Ramdas Pophale) SiO2 
 PCOD8315135
Probable space group: P 4/N M M
;
_chemical_formula_sum "Si O2"
_cell_formula_units_Z 64
_cell_length_a 19.087944
_cell_length_b 19.087944
_cell_length_c 10.024965
_cell_angle_alpha 90.000000
_cell_angle_beta 90.000000
_cell_angle_gamma 90.000000
_cell_volume 3652.592049
_symmetry_space_group_name_H-M "P 4/N M M"
_symmetry_group_IT_number 129
_symmetry_cell_setting 'tetragonal'
loop_
_space_group_symop_operation_xyz
x,y,z
1/2-y,x,z
1/2-x,1/2-y,z
y,1/2-x,z
1/2+x,-y,-z
-x,1/2+y,-z
1/2+y,1/2+x,-z
-y,-x,-z
-x,-y,-z
1/2+y,-x,-z
1/2+x,1/2+y,-z
-y,1/2+x,-z
1/2-x,y,z
x,1/2-y,z
1/2-y,1/2-x,z
y,x,z
loop_
_atom_site_type_symbol
_atom_site_label
_atom_site_fract_x
_atom_site_fract_y
_atom_site_fract_z
Si Si1 0.169968 0.557660 0.027560
Si Si2 0.470282 0.672544 0.264306
Si Si3 0.560659 0.828538 0.508918
Si Si4 0.589440 0.474351 0.719046
O O1 0.250000 0.573309 0.068621
O O2 0.131902 0.513664 0.143738
O O3 0.131876 0.631876 0.000000
O O4 0.165503 0.510843 0.892645
O O5 0.434930 0.750000 0.288647
O O6 0.540289 0.667916 0.352956
O O7 0.419888 0.608632 0.305944
O O8 0.568486 0.750000 0.561363
O O9 0.635080 0.864921 0.530017
O O10 0.500965 0.866551 0.594171
O O11 0.515052 0.515052 0.728640
#
# Coordination Sequence:
#
# PCOD8315135 Si02
#       4
#    16  16  16  16
#     4   9  18  31  47  69  97 127 159 197 239 284
#     4   9  18  31  47  70  98 124 154 194 239 285
#     4  10  20  33  50  71  95 125 159 198 243 288
#     4  10  19  31  50  73  96 125 163 204 242 283
#
# _framework density 17.521803999999999
#
# number of rings (size 3 to 8) (size 9 to 14) (size 15 to 20)
#    0.000    2.500    0.000    2.250    0.000    8.000 
#    0.000    0.000    0.000    2.250    0.000   17.500 
#    0.000    6.000    0.000    0.000    0.000    0.000 
#
# Total GULP energy -793178.605143 kJ/mol
# GULP energy per Si atom -12393.415705 kJ/mol
# Density = 1.748192 g / cm^3
# Si number density = 17.521804 Si / 1000 Ang^3
#
#
#
# Elastic Constant Matrix: (Units=GPa)
#
#
# Indices 1 2 3 4 5 6 
#
# 1 101.7276 51.2520 42.0894 0.0000 0.0000 0.0000
# 2 51.2520 101.7276 42.0894 0.0000 0.0000 0.0000
# 3 42.0894 42.0894 85.5429 0.0000 0.0000 0.0000
# 4 0.0000 0.0000 0.0000 22.9014 0.0000 0.0000
# 5 0.0000 0.0000 0.0000 0.0000 22.9014 0.0000
# 6 0.0000 0.0000 0.0000 0.0000 0.0000 10.8442
#
#
#
# Elastic Compliance Matrix: (Units=1/GPa)
#
#
# Indices 1 2 3 4 5 6 
#
# 1 0.014388 -0.005424 -0.004410 0.000000 0.000000 0.000000
# 2 -0.005424 0.014388 -0.004410 0.000000 0.000000 0.000000
# 3 -0.004410 -0.004410 0.016030 0.000000 0.000000 0.000000
# 4 0.000000 0.000000 0.000000 0.043666 0.000000 0.000000
# 5 0.000000 0.000000 0.000000 0.000000 0.043666 0.000000
# 6 0.000000 0.000000 0.000000 0.000000 0.000000 0.092216
#
#
# Mechanical properties :
#
#
# Convention : Reuss Voigt Hill
#
# Bulk Modulus (GPa) = 61.28967 62.20661 61.74814
# Shear Modulus (GPa) = 19.35885 21.56721 20.46303
#
# Velocity S-wave (km/s) = 3.32752 3.51219 3.42111
# Velocity P-wave (km/s) = 7.05820 7.21296 7.13600
#
# Compressibility (1/GPa) = 0.01631596
#
# Stress axis : x y z
#
# Youngs Moduli (GPa) = 69.50425 69.50425 62.38277
#
# Poissons Ratio (x) = 0.37699 0.27513
# Poissons Ratio (y) = 0.37699 0.27513
# Poissons Ratio (z) = 0.30654 0.30654
#
# Static dielectric constant tensor:
#      x y z
#    x 3.206830 0.000000 0.000000 
#    y 0.000000 3.206830 0.000000 
#    z 0.000000 0.000000 3.514300 
# 
# 
# High freq. dielectric constant tensor:
#      x y z
#    x 1.661700 0.000000 0.000000 
#    y 0.000000 1.661700 0.000000 
#    z 0.000000 0.000000 1.693140 
# 
# From -- ./inp_files/2036.got.cif
#   From: 2010.03.12/outbox.cif.g09.slc.cpg/sg129_2_cif.got.tgz:2036.got - 2010.04.06 17:19:44.
