data_PCOD8315388
_publ_section_title
;
Structure prediction by ZEFSAII (Michael W. Deem and Ramdas Pophale) SiO2 
 PCOD8315388
Probable space group: P 4/N M M
;
_chemical_formula_sum "Si O2"
_cell_formula_units_Z 128
_cell_length_a 20.883640
_cell_length_b 20.883640
_cell_length_c 17.586684
_cell_angle_alpha 90.000000
_cell_angle_beta 90.000000
_cell_angle_gamma 90.000000
_cell_volume 7670.017526
_symmetry_space_group_name_H-M "P 4/N M M"
_symmetry_group_IT_number 129
_symmetry_cell_setting 'tetragonal'
loop_
_space_group_symop_operation_xyz
x,y,z
1/2-y,x,z
1/2-x,1/2-y,z
y,1/2-x,z
1/2+x,-y,-z
-x,1/2+y,-z
1/2+y,1/2+x,-z
-y,-x,-z
-x,-y,-z
1/2+y,-x,-z
1/2+x,1/2+y,-z
-y,1/2+x,-z
1/2-x,y,z
x,1/2-y,z
1/2-y,1/2-x,z
y,x,z
loop_
_atom_site_type_symbol
_atom_site_label
_atom_site_fract_x
_atom_site_fract_y
_atom_site_fract_z
Si Si1 0.676084 0.929375 0.912038
Si Si2 0.558390 0.175376 0.657344
Si Si3 0.822602 0.574293 0.088619
Si Si4 0.677017 0.088127 0.668182
Si Si5 0.554293 0.130857 0.176208
Si Si6 0.325306 0.677981 0.086376
Si Si7 0.104023 0.498417 0.792575
Si Si8 0.075342 0.677418 0.504858
O O1 0.750000 0.913285 0.889979
O O2 0.630752 0.869248 0.888281
O O3 0.653215 0.994890 0.873631
O O4 0.670272 0.944148 0.000800
O O5 0.559140 0.250000 0.674595
O O6 0.630182 0.149106 0.670393
O O7 0.510559 0.142765 0.715793
O O8 0.533439 0.158950 0.570388
O O9 0.750000 0.588721 0.111248
O O10 0.861475 0.638526 0.107420
O O11 0.848303 0.513952 0.136731
O O12 0.750000 0.113121 0.669882
O O13 0.663791 0.044126 0.741471
O O14 0.665080 0.045963 0.589787
O O15 0.624231 0.147542 0.142529
O O16 0.554505 0.054531 0.185600
O O17 0.250000 0.680089 0.096976
O O18 0.352724 0.750000 0.104495
O O19 0.342086 0.657915 0.000000
O O20 0.064818 0.435183 0.775117
O O21 0.142208 0.642208 0.500000
O O22 0.094850 0.750000 0.494581
#
# Coordination Sequence:
#
# PCOD8315388 Si02
#       8
#    16  16  16  16  16  16  16  16
#     4  10  21  36  54  74  95 121 157 202 251 303
#     4   9  17  29  47  68  88 118 157 188 226 276
#     4   9  19  34  51  72  95 121 155 195 242 290
#     4   9  17  28  43  66  97 126 152 187 229 266
#     4  11  21  32  49  70  93 129 167 198 234 284
#     4   9  19  33  46  65  95 130 167 203 236 270
#     4  10  21  34  47  66  96 125 152 193 237 280
#     4   8  14  25  41  62  89 119 150 186 223 266
#
# _framework density 16.688358000000001
#
# number of rings (size 3 to 8) (size 9 to 14) (size 15 to 20)
#    0.000    2.625    0.000    2.250    1.750    3.125 
#    0.000    5.625    0.000   10.125    0.000    0.000 
#    0.000    0.000    0.000    0.000    0.000   20.375 
#
# Total GULP energy -1585731.441005 kJ/mol
# GULP energy per Si atom -12388.526883 kJ/mol
# Density = 1.665037 g / cm^3
# Si number density = 16.688358 Si / 1000 Ang^3
#
#
#
# Elastic Constant Matrix: (Units=GPa)
#
#
# Indices 1 2 3 4 5 6 
#
# 1 78.6504 38.0401 53.1575 0.0000 0.0000 0.0000
# 2 38.0401 78.6503 53.1575 0.0000 0.0000 0.0000
# 3 53.1575 53.1575 114.1563 0.0000 0.0000 0.0000
# 4 0.0000 0.0000 0.0000 19.6865 0.0000 0.0000
# 5 0.0000 0.0000 0.0000 0.0000 19.6864 0.0000
# 6 0.0000 0.0000 0.0000 0.0000 0.0000 15.4547
#
#
#
# Elastic Compliance Matrix: (Units=1/GPa)
#
#
# Indices 1 2 3 4 5 6 
#
# 1 0.019754 -0.004870 -0.006931 0.000000 0.000000 0.000000
# 2 -0.004870 0.019754 -0.006931 0.000000 0.000000 0.000000
# 3 -0.006931 -0.006931 0.015215 0.000000 0.000000 0.000000
# 4 0.000000 0.000000 0.000000 0.050796 0.000000 0.000000
# 5 0.000000 0.000000 0.000000 0.000000 0.050797 0.000000
# 6 0.000000 0.000000 0.000000 0.000000 0.000000 0.064705
#
#
# Mechanical properties :
#
#
# Convention : Reuss Voigt Hill
#
# Bulk Modulus (GPa) = 57.93860 62.24079 60.08970
# Shear Modulus (GPa) = 18.92228 19.43898 19.18063
#
# Velocity S-wave (km/s) = 3.37094 3.41665 3.39387
# Velocity P-wave (km/s) = 7.06713 7.27610 7.17237
#
# Compressibility (1/GPa) = 0.01725965
#
# Stress axis : x y z
#
# Youngs Moduli (GPa) = 50.62178 50.62164 65.72531
#
# Poissons Ratio (x) = 0.24652 0.45554
# Poissons Ratio (y) = 0.24653 0.45554
# Poissons Ratio (z) = 0.35086 0.35086
#
# Static dielectric constant tensor:
#      x y z
#    x 3.018500 0.000000 0.000000 
#    y 0.000000 3.018500 0.000000 
#    z 0.000000 0.000000 3.678500 
# 
# 
# High freq. dielectric constant tensor:
#      x y z
#    x 1.622870 0.000000 0.000000 
#    y 0.000000 1.622870 0.000000 
#    z 0.000000 0.000000 1.659990 
# 
# From -- ./inp_files/6118.got.cif
#   From: 2010.03.12/outbox.cif.g09.slc.cpg/sg129_4_cif.got.tgz:6118.got - 2010.04.06 17:19:44.
