data_PCOD8315625
_publ_section_title
;
Structure prediction by ZEFSAII (Michael W. Deem and Ramdas Pophale) SiO2 
 PCOD8315625
Probable space group: P 4/N C C
;
_chemical_formula_sum "Si O2"
_cell_formula_units_Z 56
_cell_length_a 10.769317
_cell_length_b 10.769317
_cell_length_c 18.516858
_cell_angle_alpha 90.000000
_cell_angle_beta 90.000000
_cell_angle_gamma 90.000000
_cell_volume 2147.551650
_symmetry_space_group_name_H-M "P 4/N C C"
_symmetry_group_IT_number 130
_symmetry_cell_setting 'tetragonal'
loop_
_space_group_symop_operation_xyz
x,y,z
1/2-y,x,z
1/2-x,1/2-y,z
y,1/2-x,z
1/2+x,-y,1/2-z
-x,1/2+y,1/2-z
1/2+y,1/2+x,1/2-z
-y,-x,1/2-z
-x,-y,-z
1/2+y,-x,-z
1/2+x,1/2+y,-z
-y,1/2+x,-z
1/2-x,y,1/2+z
x,1/2-y,1/2+z
1/2-y,1/2-x,1/2+z
y,x,1/2+z
loop_
_atom_site_type_symbol
_atom_site_label
_atom_site_fract_x
_atom_site_fract_y
_atom_site_fract_z
Si Si1 0.356937 0.078371 0.626739
Si Si2 0.061531 0.693023 0.009962
Si Si3 0.897280 0.102721 0.750000
Si Si4 0.737669 0.952452 0.665207
O O1 0.418502 0.210276 0.639699
O O2 0.379349 0.030117 0.544818
O O3 0.423709 0.986889 0.682055
O O4 0.988697 0.726968 0.082137
O O5 0.107459 0.820123 0.971439
O O6 0.925020 0.241910 0.783198
O O7 0.622758 0.865169 0.684443
#
# Coordination Sequence:
#
# PCOD8315625 Si02
#       4
#    16  16   8  16
#     4  11  25  46  73 107 144 191 246 293 358 440
#     4  11  24  45  72 112 142 187 250 299 358 424
#     4  12  24  46  71 105 142 186 230 298 364 421
#     4  11  25  46  73 107 144 191 246 293 358 440
#
# _framework density 26.076204000000001
#
# number of rings (size 3 to 8) (size 9 to 14) (size 15 to 20)
#    0.000    0.857    2.857    3.429    4.000    6.857 
#    0.000    1.429    0.000    0.000    0.000    0.000 
#    0.000    0.000    0.000    0.000    0.000    0.000 
#
# Total GULP energy -694064.037247 kJ/mol
# GULP energy per Si atom -12394.000665 kJ/mol
# Density = 2.601685 g / cm^3
# Si number density = 26.076204 Si / 1000 Ang^3
#
#
#
# Elastic Constant Matrix: (Units=GPa)
#
#
# Indices 1 2 3 4 5 6 
#
# 1 70.1538 26.4010 18.9954 0.0000 0.0000 0.0000
# 2 26.4010 70.1541 18.9956 0.0000 0.0000 0.0000
# 3 18.9954 18.9956 143.6572 0.0000 0.0000 0.0000
# 4 0.0000 0.0000 0.0000 48.3627 0.0000 0.0000
# 5 0.0000 0.0000 0.0000 0.0000 48.3624 0.0000
# 6 0.0000 0.0000 0.0000 0.0000 0.0000 49.4286
#
#
#
# Elastic Compliance Matrix: (Units=1/GPa)
#
#
# Indices 1 2 3 4 5 6 
#
# 1 0.016890 -0.005965 -0.001445 0.000000 0.000000 0.000000
# 2 -0.005965 0.016890 -0.001445 0.000000 0.000000 0.000000
# 3 -0.001445 -0.001445 0.007343 0.000000 0.000000 0.000000
# 4 0.000000 0.000000 0.000000 0.020677 0.000000 0.000000
# 5 0.000000 0.000000 0.000000 0.000000 0.020677 0.000000
# 6 0.000000 0.000000 0.000000 0.000000 0.000000 0.020231
#
#
# Mechanical properties :
#
#
# Convention : Reuss Voigt Hill
#
# Bulk Modulus (GPa) = 42.70770 45.86103 44.28436
# Shear Modulus (GPa) = 38.99450 43.86893 41.43171
#
# Velocity S-wave (km/s) = 3.87124 4.10608 3.99039
# Velocity P-wave (km/s) = 6.03288 6.33288 6.18470
#
# Compressibility (1/GPa) = 0.02341498
#
# Stress axis : x y z
#
# Youngs Moduli (GPa) = 59.20517 59.20536 136.18313
#
# Poissons Ratio (x) = 0.35317 0.19673
# Poissons Ratio (y) = 0.35317 0.19673
# Poissons Ratio (z) = 0.08553 0.08553
#
# Static dielectric constant tensor:
#      x y z
#    x 4.811910 0.000000 0.000000 
#    y 0.000000 4.811910 0.000000 
#    z 0.000000 0.000000 4.611820 
# 
# 
# High freq. dielectric constant tensor:
#      x y z
#    x 2.045530 0.000000 0.000000 
#    y 0.000000 2.045530 0.000000 
#    z 0.000000 0.000000 2.052940 
# 
# From -- ./inp_files/3437.got.cif
#   From: 2010.03.12/outbox.cif.g09.slc.cpg/sg130_2_cif.got.tgz:3437.got - 2010.04.06 17:30:23.
