data_PCOD8315487
_publ_section_title
;
Structure prediction by ZEFSAII (Michael W. Deem and Ramdas Pophale) SiO2 
 PCOD8315487
Probable space group: P 4/N C C
;
_chemical_formula_sum "Si O2"
_cell_formula_units_Z 76
_cell_length_a 16.857650
_cell_length_b 16.857650
_cell_length_c 14.480202
_cell_angle_alpha 90.000000
_cell_angle_beta 90.000000
_cell_angle_gamma 90.000000
_cell_volume 4114.989068
_symmetry_space_group_name_H-M "P 4/N C C"
_symmetry_group_IT_number 130
_symmetry_cell_setting 'tetragonal'
loop_
_space_group_symop_operation_xyz
x,y,z
1/2-y,x,z
1/2-x,1/2-y,z
y,1/2-x,z
1/2+x,-y,1/2-z
-x,1/2+y,1/2-z
1/2+y,1/2+x,1/2-z
-y,-x,1/2-z
-x,-y,-z
1/2+y,-x,-z
1/2+x,1/2+y,-z
-y,1/2+x,-z
1/2-x,y,1/2+z
x,1/2-y,1/2+z
1/2-y,1/2-x,1/2+z
y,x,1/2+z
loop_
_atom_site_type_symbol
_atom_site_label
_atom_site_fract_x
_atom_site_fract_y
_atom_site_fract_z
Si Si1 0.250000 0.750000 0.250000
Si Si2 0.923343 0.253955 0.715078
Si Si3 0.556183 0.173527 0.410597
Si Si4 0.435208 0.935208 0.250000
Si Si5 0.459631 0.680756 0.463482
Si Si6 0.056968 0.458781 0.429436
O O1 0.170462 0.748137 0.313852
O O2 0.930310 0.202269 0.807011
O O3 0.951256 0.344243 0.723350
O O4 0.980711 0.214551 0.638066
O O5 0.617550 0.109014 0.447110
O O6 0.570970 0.246850 0.476523
O O7 0.468132 0.133350 0.415806
O O8 0.494631 0.953068 0.166663
O O9 0.533447 0.643668 0.521922
O O10 0.000000 0.500000 0.500000
#
# Coordination Sequence:
#
# PCOD8315487 Si02
#       6
#     4  16  16   8  16  16
#     4  10  20  30  50  84 124 152 184 222 296 366
#     4  11  21  35  55  86 121 157 191 243 303 356
#     4  11  23  37  58  88 120 163 198 247 301 359
#     4  11  22  40  58  90 124 154 202 245 292 372
#     4  11  22  38  56  86 119 157 202 240 304 359
#     4  10  23  38  58  83 119 165 204 244 292 359
#
# _framework density 18.469065000000001
#
# number of rings (size 3 to 8) (size 9 to 14) (size 15 to 20)
#    0.000    1.263    4.211    2.526    8.842    0.421 
#    0.000    0.000    0.000    0.632    0.000    0.000 
#    0.000    0.000    0.000    0.000    0.000    0.000 
#
# Total GULP energy -941555.221991 kJ/mol
# GULP energy per Si atom -12388.884500 kJ/mol
# Density = 1.842703 g / cm^3
# Si number density = 18.469065 Si / 1000 Ang^3
#
#
#
# Elastic Constant Matrix: (Units=GPa)
#
#
# Indices 1 2 3 4 5 6 
#
# 1 54.9581 37.7506 42.8963 0.0000 0.0000 0.0000
# 2 37.7506 54.9581 42.8963 0.0000 0.0000 0.0000
# 3 42.8963 42.8963 141.7585 0.0000 0.0000 0.0000
# 4 0.0000 0.0000 0.0000 -30.0941 0.0000 0.0000
# 5 0.0000 0.0000 0.0000 0.0000 -30.0941 0.0000
# 6 0.0000 0.0000 0.0000 0.0000 0.0000 -3.5247
#
#
#
# Elastic Compliance Matrix: (Units=1/GPa)
#
#
# Indices 1 2 3 4 5 6 
#
# 1 0.036548 -0.021566 -0.004534 0.000000 0.000000 0.000000
# 2 -0.021566 0.036548 -0.004534 0.000000 0.000000 0.000000
# 3 -0.004534 -0.004534 0.009798 0.000000 0.000000 0.000000
# 4 0.000000 0.000000 0.000000 -0.033229 0.000000 0.000000
# 5 0.000000 0.000000 0.000000 0.000000 -0.033229 0.000000
# 6 0.000000 0.000000 0.000000 0.000000 0.000000 -0.283715
#
#
# Mechanical properties :
#
#
# Convention : Reuss Voigt Hill
#
# Bulk Modulus (GPa) = 46.23750 55.41793 50.82772
# Shear Modulus (GPa) = -25.15037 -4.20048 -14.67542
#
# Velocity S-wave (km/s) = -3.69420 -1.50972 -2.82191
# Velocity P-wave (km/s) = 2.62551 5.19922 4.11857
#
# Compressibility (1/GPa) = 0.02162747
#
# Stress axis : x y z
#
# Youngs Moduli (GPa) = 27.36132 27.36132 102.06221
#
# Poissons Ratio (x) = 0.59008 0.46270
# Poissons Ratio (y) = 0.59008 0.46270
# Poissons Ratio (z) = 0.12404 0.12404
#
# Static dielectric constant tensor:
#      x y z
#    x 1.604130 0.000000 0.000000 
#    y 0.000000 1.604130 0.000000 
#    z 0.000000 0.000000 3.584140 
# 
# 
# High freq. dielectric constant tensor:
#      x y z
#    x 1.698160 0.000000 0.000000 
#    y 0.000000 1.698160 0.000000 
#    z 0.000000 0.000000 1.734040 
# 
# From -- ./inp_files/2347.got.cif
#   From: 2010.03.12/outbox.cif.g09.slc.cpg/sg130_2_cif.got.tgz:2347.got - 2010.04.06 17:30:23.
