data_PCOD8315591
_publ_section_title
;
Structure prediction by ZEFSAII (Michael W. Deem and Ramdas Pophale) SiO2 
 PCOD8315591
Probable space group: P 4/N C C
;
_chemical_formula_sum "Si O2"
_cell_formula_units_Z 96
_cell_length_a 14.609553
_cell_length_b 14.609553
_cell_length_c 22.423740
_cell_angle_alpha 90.000000
_cell_angle_beta 90.000000
_cell_angle_gamma 90.000000
_cell_volume 4786.101513
_symmetry_space_group_name_H-M "P 4/N C C"
_symmetry_group_IT_number 130
_symmetry_cell_setting 'tetragonal'
loop_
_space_group_symop_operation_xyz
x,y,z
1/2-y,x,z
1/2-x,1/2-y,z
y,1/2-x,z
1/2+x,-y,1/2-z
-x,1/2+y,1/2-z
1/2+y,1/2+x,1/2-z
-y,-x,1/2-z
-x,-y,-z
1/2+y,-x,-z
1/2+x,1/2+y,-z
-y,1/2+x,-z
1/2-x,y,1/2+z
x,1/2-y,1/2+z
1/2-y,1/2-x,1/2+z
y,x,1/2+z
loop_
_atom_site_type_symbol
_atom_site_label
_atom_site_fract_x
_atom_site_fract_y
_atom_site_fract_z
Si Si1 0.074362 0.631953 0.130621
Si Si2 0.389612 0.195765 0.201725
Si Si3 0.574533 0.531926 0.701506
Si Si4 0.816033 0.363638 0.182665
Si Si5 0.789012 0.106806 0.005236
Si Si6 0.954128 0.257524 0.117661
O O1 0.111772 0.710426 0.174516
O O2 0.058359 0.673356 0.064658
O O3 0.147012 0.547089 0.128113
O O4 0.976228 0.598527 0.155124
O O5 0.366614 0.301675 0.191858
O O6 0.423460 0.164342 0.266833
O O7 0.470934 0.183574 0.153980
O O8 0.499141 0.500860 0.750000
O O9 0.617126 0.447709 0.665916
O O10 0.830492 0.330492 0.250000
O O11 0.850572 0.284244 0.138298
O O12 0.687625 0.144684 0.016875
O O13 0.782915 0.032435 0.951844
#
# Coordination Sequence:
#
# PCOD8315591 Si02
#       6
#    16  16  16  16  16  16
#     4  11  23  37  64  91 123 171 209 258 321 375
#     4  11  23  41  61  84 123 172 205 249 317 382
#     4  11  22  38  56  87 124 155 203 262 309 374
#     4  11  22  37  55  91 130 156 203 262 317 376
#     4   9  18  37  59  90 131 169 207 260 323 379
#     4  11  21  38  62  90 125 162 210 259 315 376
#
# _framework density 20.058077999999998
#
# number of rings (size 3 to 8) (size 9 to 14) (size 15 to 20)
#    0.000    1.333    5.000    2.500    2.333    0.667 
#    0.000    2.500    0.000    0.000    0.000    2.333 
#    0.000    0.000    0.000    0.000    0.000    0.000 
#
# Total GULP energy -1189708.645151 kJ/mol
# GULP energy per Si atom -12392.798387 kJ/mol
# Density = 2.001243 g / cm^3
# Si number density = 20.058078 Si / 1000 Ang^3
#
#
#
# Elastic Constant Matrix: (Units=GPa)
#
#
# Indices 1 2 3 4 5 6 
#
# 1 84.3991 38.5875 46.3733 0.0000 0.0000 0.0000
# 2 38.5875 84.3993 46.3733 0.0000 0.0000 0.0000
# 3 46.3733 46.3733 121.7774 0.0000 0.0000 0.0000
# 4 0.0000 0.0000 0.0000 28.3898 0.0000 0.0000
# 5 0.0000 0.0000 0.0000 0.0000 28.3897 0.0000
# 6 0.0000 0.0000 0.0000 0.0000 0.0000 34.3513
#
#
#
# Elastic Compliance Matrix: (Units=1/GPa)
#
#
# Indices 1 2 3 4 5 6 
#
# 1 0.016618 -0.005211 -0.004344 0.000000 0.000000 0.000000
# 2 -0.005211 0.016618 -0.004344 0.000000 0.000000 0.000000
# 3 -0.004344 -0.004344 0.011520 0.000000 0.000000 0.000000
# 4 0.000000 0.000000 0.000000 0.035224 0.000000 0.000000
# 5 0.000000 0.000000 0.000000 0.000000 0.035224 0.000000
# 6 0.000000 0.000000 0.000000 0.000000 0.000000 0.029111
#
#
# Mechanical properties :
#
#
# Convention : Reuss Voigt Hill
#
# Bulk Modulus (GPa) = 58.96790 61.47157 60.21974
# Shear Modulus (GPa) = 28.12730 28.84229 28.48480
#
# Velocity S-wave (km/s) = 3.74878 3.79613 3.77253
# Velocity P-wave (km/s) = 6.94264 7.06594 7.00456
#
# Compressibility (1/GPa) = 0.01695838
#
# Stress axis : x y z
#
# Youngs Moduli (GPa) = 60.17729 60.17745 86.80648
#
# Poissons Ratio (x) = 0.31358 0.37706
# Poissons Ratio (y) = 0.31358 0.37706
# Poissons Ratio (z) = 0.26139 0.26139
#
# Static dielectric constant tensor:
#      x y z
#    x 3.611590 0.000000 0.000000 
#    y 0.000000 3.611590 0.000000 
#    z 0.000000 0.000000 3.609820 
# 
# 
# High freq. dielectric constant tensor:
#      x y z
#    x 1.774870 0.000000 0.000000 
#    y 0.000000 1.774870 0.000000 
#    z 0.000000 0.000000 1.772610 
# 
# From -- ./inp_files/3771.got.cif
#   From: 2010.03.12/outbox.cif.g09.slc.cpg/sg130_2_cif.got.tgz:3771.got - 2010.04.06 17:30:23.
