data_PCOD8315205
_publ_section_title
;
Structure prediction by ZEFSAII (Michael W. Deem and Ramdas Pophale) SiO2 
 PCOD8315205
Probable space group: P 4/N M M
;
_chemical_formula_sum "Si O2"
_cell_formula_units_Z 112
_cell_length_a 30.648165
_cell_length_b 30.648165
_cell_length_c 6.828468
_cell_angle_alpha 90.000000
_cell_angle_beta 90.000000
_cell_angle_gamma 90.000000
_cell_volume 6414.048399
_symmetry_space_group_name_H-M "P 4/N M M"
_symmetry_group_IT_number 129
_symmetry_cell_setting 'tetragonal'
loop_
_space_group_symop_operation_xyz
x,y,z
1/2-y,x,z
1/2-x,1/2-y,z
y,1/2-x,z
1/2+x,-y,-z
-x,1/2+y,-z
1/2+y,1/2+x,-z
-y,-x,-z
-x,-y,-z
1/2+y,-x,-z
1/2+x,1/2+y,-z
-y,1/2+x,-z
1/2-x,y,z
x,1/2-y,z
1/2-y,1/2-x,z
y,x,z
loop_
_atom_site_type_symbol
_atom_site_label
_atom_site_fract_x
_atom_site_fract_y
_atom_site_fract_z
Si Si1 0.566776 0.005255 0.624449
Si Si2 0.586873 0.845538 0.171530
Si Si3 0.445776 0.621685 0.946975
Si Si4 0.466562 0.699306 0.685730
Si Si5 0.354790 0.504678 0.658194
Si Si6 0.701881 0.934818 0.804191
Si Si7 0.298376 0.366101 0.517905
O O1 0.540708 0.040708 0.500000
O O2 0.586273 0.025823 0.824086
O O3 0.606258 0.990884 0.486245
O O4 0.536199 0.963802 0.678349
O O5 0.604578 0.895423 0.195195
O O6 0.540712 0.835534 0.269168
O O7 0.622269 0.812573 0.262234
O O8 0.583754 0.835439 0.942919
O O9 0.437834 0.666600 0.822730
O O10 0.398675 0.601326 0.000000
O O11 0.468392 0.630217 0.154193
O O12 0.449935 0.750000 0.691498
O O13 0.467501 0.681869 0.461094
O O14 0.514376 0.694831 0.773760
O O15 0.750000 0.926501 0.894282
O O16 0.696796 0.910918 0.599150
O O17 0.250000 0.346998 0.516888
O O18 0.328976 0.328976 0.424930
#
# Coordination Sequence:
#
# PCOD8315205 Si02
#       7
#    16  16  16  16  16  16  16
#     4  10  21  35  51  74 109 151 199 239 271 323
#     4  11  21  32  49  74 100 130 171 221 277 330
#     4  11  22  38  57  81 114 152 190 227 280 328
#     4  10  22  37  57  82 108 142 187 232 274 328
#     4  11  21  36  51  75 106 147 185 233 279 325
#     4  10  19  34  52  72  98 128 168 223 276 327
#     4  10  21  36  52  71  96 125 165 221 286 350
#
# _framework density 17.461670000000002
#
# number of rings (size 3 to 8) (size 9 to 14) (size 15 to 20)
#    0.000    1.571    4.286    1.286    0.000    2.714 
#    0.000    0.000    0.000    0.000    0.000    2.000 
#    0.000    0.286    0.000    0.286    0.000    0.000 
#
# Total GULP energy -1388218.725983 kJ/mol
# GULP energy per Si atom -12394.810053 kJ/mol
# Density = 1.742193 g / cm^3
# Si number density = 17.461670 Si / 1000 Ang^3
#
#
#
# Elastic Constant Matrix: (Units=GPa)
#
#
# Indices 1 2 3 4 5 6 
#
# 1 85.0498 36.7055 36.0781 0.0000 0.0000 0.0000
# 2 36.7055 85.0484 36.0768 0.0000 0.0000 0.0000
# 3 36.0781 36.0768 101.1260 0.0000 0.0000 0.0000
# 4 0.0000 0.0000 0.0000 26.6432 0.0000 0.0000
# 5 0.0000 0.0000 0.0000 0.0000 26.6435 0.0000
# 6 0.0000 0.0000 0.0000 0.0000 0.0000 20.3571
#
#
#
# Elastic Compliance Matrix: (Units=1/GPa)
#
#
# Indices 1 2 3 4 5 6 
#
# 1 0.015550 -0.005135 -0.003716 0.000000 0.000000 0.000000
# 2 -0.005135 0.015550 -0.003716 0.000000 0.000000 0.000000
# 3 -0.003716 -0.003716 0.012540 0.000000 0.000000 0.000000
# 4 0.000000 0.000000 0.000000 0.037533 0.000000 0.000000
# 5 0.000000 0.000000 0.000000 0.000000 0.037533 0.000000
# 6 0.000000 0.000000 0.000000 0.000000 0.000000 0.049123
#
#
# Mechanical properties :
#
#
# Convention : Reuss Voigt Hill
#
# Bulk Modulus (GPa) = 54.03209 54.32723 54.17966
# Shear Modulus (GPa) = 25.10910 25.55301 25.33105
#
# Velocity S-wave (km/s) = 3.79615 3.82956 3.81289
# Velocity P-wave (km/s) = 7.08694 7.12277 7.10488
#
# Compressibility (1/GPa) = 0.01850752
#
# Stress axis : x y z
#
# Youngs Moduli (GPa) = 64.30775 64.30737 79.74555
#
# Poissons Ratio (x) = 0.33022 0.29632
# Poissons Ratio (y) = 0.33022 0.29630
# Poissons Ratio (z) = 0.23896 0.23894
#
# Static dielectric constant tensor:
#      x y z
#    x 3.244010 0.000000 0.000000 
#    y 0.000000 3.244020 0.000000 
#    z 0.000000 0.000000 3.370610 
# 
# 
# High freq. dielectric constant tensor:
#      x y z
#    x 1.653640 0.000000 0.000000 
#    y 0.000000 1.653640 0.000000 
#    z 0.000000 0.000000 1.688140 
# 
# From -- ./inp_files/1172.got.cif
#   From: 2010.03.12/outbox.cif.g09.slc.cpg/sg129_1_cif.got.tgz:1172.got - 2010.04.06 17:19:44.
