data_PCOD8315202
_publ_section_title
;
Structure prediction by ZEFSAII (Michael W. Deem and Ramdas Pophale) SiO2 
 PCOD8315202
Probable space group: P 4/N M M
;
_chemical_formula_sum "Si O2"
_cell_formula_units_Z 80
_cell_length_a 19.321364
_cell_length_b 19.321364
_cell_length_c 12.374131
_cell_angle_alpha 90.000000
_cell_angle_beta 90.000000
_cell_angle_gamma 90.000000
_cell_volume 4619.450036
_symmetry_space_group_name_H-M "P 4/N M M"
_symmetry_group_IT_number 129
_symmetry_cell_setting 'tetragonal'
loop_
_space_group_symop_operation_xyz
x,y,z
1/2-y,x,z
1/2-x,1/2-y,z
y,1/2-x,z
1/2+x,-y,-z
-x,1/2+y,-z
1/2+y,1/2+x,-z
-y,-x,-z
-x,-y,-z
1/2+y,-x,-z
1/2+x,1/2+y,-z
-y,1/2+x,-z
1/2-x,y,z
x,1/2-y,z
1/2-y,1/2-x,z
y,x,z
loop_
_atom_site_type_symbol
_atom_site_label
_atom_site_fract_x
_atom_site_fract_y
_atom_site_fract_z
Si Si1 0.059302 0.328334 0.625147
Si Si2 0.438302 0.668644 0.537073
Si Si3 0.170579 0.442377 0.052412
Si Si4 0.504699 0.882702 0.157343
Si Si5 0.516385 0.402801 0.245375
O O1 0.081778 0.250000 0.601568
O O2 0.124358 0.375643 0.596017
O O3 0.037149 0.335314 0.749401
O O4 0.995723 0.351328 0.550988
O O5 0.367551 0.632450 0.500000
O O6 0.423944 0.750000 0.542458
O O7 0.465145 0.642475 0.651596
O O8 0.250000 0.420594 0.063080
O O9 0.127457 0.372544 0.029415
O O10 0.146986 0.477833 0.162486
O O11 0.161121 0.496927 0.953455
O O12 0.549960 0.950041 0.133671
O O13 0.429554 0.911728 0.191796
O O14 0.467447 0.467447 0.279345
#
# Coordination Sequence:
#
# PCOD8315202 Si02
#       5
#    16  16  16  16  16
#     4  10  20  33  52  79 108 140 176 213 259 316
#     4  11  22  36  55  77 103 137 178 221 271 323
#     4  10  20  33  50  75 107 140 175 214 257 311
#     4   9  17  31  52  75 101 134 173 216 261 304
#     4  10  19  33  55  79 103 131 172 223 269 308
#
# _framework density 17.318079000000001
#
# number of rings (size 3 to 8) (size 9 to 14) (size 15 to 20)
#    0.000    2.000    2.000    2.400    0.000    3.800 
#    0.000    0.000    0.000    3.600    0.000    2.800 
#    0.000    3.200    0.000    0.000    0.000    0.000 
#
# Total GULP energy -992080.011840 kJ/mol
# GULP energy per Si atom -12401.000148 kJ/mol
# Density = 1.727866 g / cm^3
# Si number density = 17.318079 Si / 1000 Ang^3
#
#
#
# Elastic Constant Matrix: (Units=GPa)
#
#
# Indices 1 2 3 4 5 6 
#
# 1 88.9950 56.1892 39.9836 0.0000 0.0000 0.0000
# 2 56.1892 88.9884 39.9810 0.0000 0.0000 0.0000
# 3 39.9836 39.9810 104.0448 0.0000 0.0000 0.0000
# 4 0.0000 0.0000 0.0000 25.2057 0.0000 0.0000
# 5 0.0000 0.0000 0.0000 0.0000 25.2060 0.0000
# 6 0.0000 0.0000 0.0000 0.0000 0.0000 21.2516
#
#
#
# Elastic Compliance Matrix: (Units=1/GPa)
#
#
# Indices 1 2 3 4 5 6 
#
# 1 0.019611 -0.010874 -0.003358 0.000000 0.000000 0.000000
# 2 -0.010874 0.019612 -0.003357 0.000000 0.000000 0.000000
# 3 -0.003358 -0.003357 0.012192 0.000000 0.000000 0.000000
# 4 0.000000 0.000000 0.000000 0.039674 0.000000 0.000000
# 5 0.000000 0.000000 0.000000 0.000000 0.039673 0.000000
# 6 0.000000 0.000000 0.000000 0.000000 0.000000 0.047055
#
#
# Mechanical properties :
#
#
# Convention : Reuss Voigt Hill
#
# Bulk Modulus (GPa) = 61.59135 61.59288 61.59212
# Shear Modulus (GPa) = 22.89303 24.05761 23.47532
#
# Velocity S-wave (km/s) = 3.63976 3.73119 3.68576
# Velocity P-wave (km/s) = 7.30108 7.36242 7.33181
#
# Compressibility (1/GPa) = 0.01623605
#
# Stress axis : x y z
#
# Youngs Moduli (GPa) = 50.99230 50.98919 82.02285
#
# Poissons Ratio (x) = 0.55446 0.27541
# Poissons Ratio (y) = 0.55450 0.27538
# Poissons Ratio (z) = 0.17122 0.17119
#
# Static dielectric constant tensor:
#      x y z
#    x 3.143240 0.000000 0.000000 
#    y 0.000000 3.143240 0.000000 
#    z 0.000000 0.000000 3.349050 
# 
# 
# High freq. dielectric constant tensor:
#      x y z
#    x 1.656620 0.000000 0.000000 
#    y 0.000000 1.656620 0.000000 
#    z 0.000000 0.000000 1.684730 
# 
# From -- ./inp_files/4575.got.cif
#   From: 2010.03.12/outbox.cif.g09.slc.cpg/sg129_3_cif.got.tgz:4575.got - 2010.04.06 17:19:44.
