data_PCOD8315811
_publ_section_title
;
Structure prediction by ZEFSAII (Michael W. Deem and Ramdas Pophale) SiO2 
 PCOD8315811
Probable space group: P 42/M M C
;
_chemical_formula_sum "Si O2"
_cell_formula_units_Z 104
_cell_length_a 26.417083
_cell_length_b 26.417083
_cell_length_c 9.354924
_cell_angle_alpha 90.000000
_cell_angle_beta 90.000000
_cell_angle_gamma 90.000000
_cell_volume 6528.448538
_symmetry_space_group_name_H-M "P 42/M M C"
_symmetry_group_IT_number 131
_symmetry_cell_setting 'tetragonal'
loop_
_space_group_symop_operation_xyz
x,y,z
-x,-y,z
-y,x,1/2+z
y,-x,1/2+z
-x,y,-z
x,-y,-z
y,x,1/2-z
-y,-x,1/2-z
-x,-y,-z
x,y,-z
y,-x,1/2-z
-y,x,1/2-z
x,-y,z
-x,y,z
-y,-x,1/2+z
y,x,1/2+z
loop_
_atom_site_type_symbol
_atom_site_label
_atom_site_fract_x
_atom_site_fract_y
_atom_site_fract_z
Si Si1 0.500000 0.943015 0.329582
Si Si2 0.272748 0.347243 0.669083
Si Si3 0.244588 0.442813 0.164552
Si Si4 0.158822 0.678865 0.334998
Si Si5 0.871551 0.057525 0.166912
Si Si6 0.869087 0.414301 0.165521
Si Si7 0.139176 0.208791 0.665396
O O1 0.500000 0.942722 0.500000
O O2 0.450454 0.913354 0.274571
O O3 0.500000 0.000000 0.268003
O O4 0.315037 0.315037 0.750000
O O5 0.284067 0.348503 0.500000
O O6 0.274140 0.404385 0.731232
O O7 0.218338 0.322403 0.703939
O O8 0.263087 0.500000 0.197152
O O9 0.184689 0.440692 0.194271
O O10 0.255967 0.428142 0.000000
O O11 0.151440 0.665924 0.500000
O O12 0.126694 0.638534 0.247036
O O13 0.134632 0.732630 0.293270
O O14 0.918945 0.081056 0.250000
O O15 0.819878 0.087182 0.205605
O O16 0.863971 0.000000 0.216888
O O17 0.883893 0.061247 0.000000
O O18 0.877099 0.402699 0.000000
O O19 0.186061 0.186061 0.750000
O O20 0.152429 0.202349 0.500000
#
# Coordination Sequence:
#
# PCOD8315811 Si02
#       7
#     8  16  16  16  16  16  16
#     4   9  16  28  47  67  87 113 149 195 238 271
#     4  10  19  29  42  64  94 123 151 185 227 270
#     4   9  16  28  46  65  87 117 154 191 227 271
#     4   9  18  30  44  65  91 118 147 183 225 268
#     4   9  18  32  49  68  88 112 142 175 215 263
#     4   9  16  28  46  66  86 113 152 191 227 270
#     4   9  17  30  47  65  88 116 147 179 214 262
#
# _framework density 15.930277
#
# number of rings (size 3 to 8) (size 9 to 14) (size 15 to 20)
#    0.000    2.846    0.769    0.923    0.000    2.000 
#    0.000    1.923    0.000    1.846    0.000    0.000 
#    0.000    0.308    0.000    3.231    0.000    1.385 
#
# Total GULP energy -1289523.187912 kJ/mol
# GULP energy per Si atom -12399.261422 kJ/mol
# Density = 1.589402 g / cm^3
# Si number density = 15.930277 Si / 1000 Ang^3
#
#
#
# Elastic Constant Matrix: (Units=GPa)
#
#
# Indices 1 2 3 4 5 6 
#
# 1 113.5355 66.5522 50.2927 0.0000 0.0000 0.0000
# 2 66.5522 113.5388 50.2927 0.0000 0.0000 0.0000
# 3 50.2927 50.2927 56.2253 0.0000 0.0000 0.0000
# 4 0.0000 0.0000 0.0000 23.5049 0.0000 0.0000
# 5 0.0000 0.0000 0.0000 0.0000 23.5047 0.0000
# 6 0.0000 0.0000 0.0000 0.0000 0.0000 22.2586
#
#
#
# Elastic Compliance Matrix: (Units=1/GPa)
#
#
# Indices 1 2 3 4 5 6 
#
# 1 0.016190 -0.005093 -0.009926 0.000000 0.000000 0.000000
# 2 -0.005093 0.016190 -0.009925 0.000000 0.000000 0.000000
# 3 -0.009926 -0.009925 0.035542 0.000000 0.000000 0.000000
# 4 0.000000 0.000000 0.000000 0.042544 0.000000 0.000000
# 5 0.000000 0.000000 0.000000 0.000000 0.042545 0.000000
# 6 0.000000 0.000000 0.000000 0.000000 0.000000 0.044926
#
#
# Mechanical properties :
#
#
# Convention : Reuss Voigt Hill
#
# Bulk Modulus (GPa) = 55.45492 68.61943 62.03718
# Shear Modulus (GPa) = 19.69754 21.59777 20.64765
#
# Velocity S-wave (km/s) = 3.52018 3.68607 3.60408
# Velocity P-wave (km/s) = 7.17000 7.82844 7.50644
#
# Compressibility (1/GPa) = 0.01803266
#
# Stress axis : x y z
#
# Youngs Moduli (GPa) = 61.76489 61.76787 28.13536
#
# Poissons Ratio (x) = 0.31461 0.27928
# Poissons Ratio (y) = 0.31459 0.27926
# Poissons Ratio (z) = 0.61309 0.61307
#
# Static dielectric constant tensor:
#      x y z
#    x 3.025360 0.000000 0.000000 
#    y 0.000000 3.025350 0.000000 
#    z 0.000000 0.000000 2.975780 
# 
# 
# High freq. dielectric constant tensor:
#      x y z
#    x 1.600420 0.000000 0.000000 
#    y 0.000000 1.600420 0.000000 
#    z 0.000000 0.000000 1.606810 
# 
# From -- ./inp_files/2533.got.cif
#   From: 2010.03.12/outbox.cif.g09.slc.cpg/sg131_2_cif.got.tgz:2533.got - 2010.04.06 17:36:35.
