data_PCOD8315272
_publ_section_title
;
Structure prediction by ZEFSAII (Michael W. Deem and Ramdas Pophale) SiO2 
 PCOD8315272
Probable space group: P 4/N M M
;
_chemical_formula_sum "Si O2"
_cell_formula_units_Z 112
_cell_length_a 14.025284
_cell_length_b 14.025284
_cell_length_c 35.376395
_cell_angle_alpha 90.000000
_cell_angle_beta 90.000000
_cell_angle_gamma 90.000000
_cell_volume 6958.840825
_symmetry_space_group_name_H-M "P 4/N M M"
_symmetry_group_IT_number 129
_symmetry_cell_setting 'tetragonal'
loop_
_space_group_symop_operation_xyz
x,y,z
1/2-y,x,z
1/2-x,1/2-y,z
y,1/2-x,z
1/2+x,-y,-z
-x,1/2+y,-z
1/2+y,1/2+x,-z
-y,-x,-z
-x,-y,-z
1/2+y,-x,-z
1/2+x,1/2+y,-z
-y,1/2+x,-z
1/2-x,y,z
x,1/2-y,z
1/2-y,1/2-x,z
y,x,z
loop_
_atom_site_type_symbol
_atom_site_label
_atom_site_fract_x
_atom_site_fract_y
_atom_site_fract_z
Si Si1 0.139504 0.515754 0.974128
Si Si2 0.136822 0.519567 0.252503
Si Si3 0.641484 0.011162 0.111565
Si Si4 0.860974 0.482964 0.308427
Si Si5 0.360788 0.857964 0.180234
Si Si6 0.858349 0.009181 0.394265
Si Si7 0.636157 0.144683 0.458722
O O1 0.250000 0.496011 0.983322
O O2 0.124469 0.549450 0.930875
O O3 0.081723 0.418278 0.982411
O O4 0.101423 0.601423 0.000000
O O5 0.250000 0.501136 0.256491
O O6 0.103047 0.592030 0.285067
O O7 0.109508 0.569573 0.213105
O O8 0.081286 0.418715 0.255241
O O9 0.750000 0.982002 0.117818
O O10 0.584195 0.915806 0.119742
O O11 0.608954 0.091158 0.141211
O O12 0.750000 0.498235 0.297119
O O13 0.869639 0.449878 0.351972
O O14 0.917968 0.582033 0.300962
O O15 0.250000 0.863354 0.172255
O O16 0.390815 0.750000 0.191680
O O17 0.750000 0.990074 0.404940
O O18 0.907712 0.907712 0.397787
O O19 0.904909 0.081297 0.424545
O O20 0.604471 0.104471 0.500000
O O21 0.750000 0.149190 0.457527
O O22 0.593535 0.250000 0.452608
#
# Coordination Sequence:
#
# PCOD8315272 Si02
#       7
#    16  16  16  16  16  16  16
#     4   9  18  31  46  66  91 119 152 188 226 268
#     4  10  20  33  49  68  90 117 149 185 223 261
#     4   9  17  29  45  65  90 118 146 178 216 259
#     4   9  18  31  46  66  91 117 146 180 218 263
#     4   9  17  29  46  68  91 115 145 179 216 259
#     4   9  17  28  42  62  87 113 141 171 205 250
#     4   8  14  25  40  58  81 108 139 177 217 251
#
# _framework density 16.094635
#
# number of rings (size 3 to 8) (size 9 to 14) (size 15 to 20)
#    0.000    3.000    0.000    1.286    0.000    3.143 
#    0.000    5.714    0.000    0.000    0.000    2.000 
#    0.000    3.714    0.000    0.286    0.000    0.143 
#
# Total GULP energy -1388310.208300 kJ/mol
# GULP energy per Si atom -12395.626860 kJ/mol
# Density = 1.605800 g / cm^3
# Si number density = 16.094635 Si / 1000 Ang^3
#
#
#
# Elastic Constant Matrix: (Units=GPa)
#
#
# Indices 1 2 3 4 5 6 
#
# 1 81.4111 44.2964 56.0670 0.0000 0.0000 0.0000
# 2 44.2964 81.4111 56.0670 0.0000 0.0000 0.0000
# 3 56.0670 56.0670 107.4463 0.0000 0.0000 0.0000
# 4 0.0000 0.0000 0.0000 25.3130 0.0000 0.0000
# 5 0.0000 0.0000 0.0000 0.0000 25.3130 0.0000
# 6 0.0000 0.0000 0.0000 0.0000 0.0000 18.4991
#
#
#
# Elastic Compliance Matrix: (Units=1/GPa)
#
#
# Indices 1 2 3 4 5 6 
#
# 1 0.020913 -0.006031 -0.007766 0.000000 0.000000 0.000000
# 2 -0.006031 0.020913 -0.007766 0.000000 0.000000 0.000000
# 3 -0.007766 -0.007766 0.017412 0.000000 0.000000 0.000000
# 4 0.000000 0.000000 0.000000 0.039505 0.000000 0.000000
# 5 0.000000 0.000000 0.000000 0.000000 0.039505 0.000000
# 6 0.000000 0.000000 0.000000 0.000000 0.000000 0.054057
#
#
# Mechanical properties :
#
#
# Convention : Reuss Voigt Hill
#
# Bulk Modulus (GPa) = 62.06191 64.79217 63.42704
# Shear Modulus (GPa) = 20.76412 21.41422 21.08917
#
# Velocity S-wave (km/s) = 3.59573 3.65159 3.62377
# Velocity P-wave (km/s) = 7.47552 7.62385 7.55005
#
# Compressibility (1/GPa) = 0.01611294
#
# Stress axis : x y z
#
# Youngs Moduli (GPa) = 47.81748 47.81748 57.43320
#
# Poissons Ratio (x) = 0.28837 0.44601
# Poissons Ratio (y) = 0.28837 0.44601
# Poissons Ratio (z) = 0.37134 0.37134
#
# Static dielectric constant tensor:
#      x y z
#    x 2.967670 0.000000 0.000000 
#    y 0.000000 2.967670 0.000000 
#    z 0.000000 0.000000 3.292400 
# 
# 
# High freq. dielectric constant tensor:
#      x y z
#    x 1.604580 0.000000 0.000000 
#    y 0.000000 1.604580 0.000000 
#    z 0.000000 0.000000 1.630720 
# 
# From -- ./inp_files/7588.got.cif
#   From: 2010.03.12/outbox.cif.g09.slc.cpg/sg129_4_cif.got.tgz:7588.got - 2010.04.06 17:19:44.
