data_PCOD8315154
_publ_section_title
;
Structure prediction by ZEFSAII (Michael W. Deem and Ramdas Pophale) SiO2 
 PCOD8315154
Probable space group: P 4/N M M
;
_chemical_formula_sum "Si O2"
_cell_formula_units_Z 128
_cell_length_a 18.028614
_cell_length_b 18.028614
_cell_length_c 23.246402
_cell_angle_alpha 90.000000
_cell_angle_beta 90.000000
_cell_angle_gamma 90.000000
_cell_volume 7555.799493
_symmetry_space_group_name_H-M "P 4/N M M"
_symmetry_group_IT_number 129
_symmetry_cell_setting 'tetragonal'
loop_
_space_group_symop_operation_xyz
x,y,z
1/2-y,x,z
1/2-x,1/2-y,z
y,1/2-x,z
1/2+x,-y,-z
-x,1/2+y,-z
1/2+y,1/2+x,-z
-y,-x,-z
-x,-y,-z
1/2+y,-x,-z
1/2+x,1/2+y,-z
-y,1/2+x,-z
1/2-x,y,z
x,1/2-y,z
1/2-y,1/2-x,z
y,x,z
loop_
_atom_site_type_symbol
_atom_site_label
_atom_site_fract_x
_atom_site_fract_y
_atom_site_fract_z
Si Si1 0.665477 0.549349 0.988531
Si Si2 0.336450 0.835138 0.285967
Si Si3 0.389193 0.666705 0.837459
Si Si4 0.449423 0.332134 0.144946
Si Si5 0.165012 0.905011 0.949247
Si Si6 0.665196 0.060677 0.467101
Si Si7 0.833974 0.548095 0.570172
Si Si8 0.437150 0.559053 0.362024
O O1 0.750000 0.564186 0.003861
O O2 0.623122 0.623122 0.006634
O O3 0.654064 0.530312 0.921629
O O4 0.633055 0.481881 0.025695
O O5 0.250000 0.856885 0.300328
O O6 0.350970 0.750000 0.305720
O O7 0.350297 0.838803 0.217583
O O8 0.396799 0.890888 0.313608
O O9 0.373580 0.750000 0.860124
O O10 0.475287 0.658554 0.818695
O O11 0.375258 0.611402 0.889653
O O12 0.415655 0.250000 0.152896
O O13 0.389409 0.389409 0.169092
O O14 0.250000 0.911136 0.933518
O O15 0.155267 0.844734 0.000000
O O16 0.632743 0.132743 0.500000
O O17 0.750000 0.079026 0.449002
O O18 0.615472 0.039171 0.412375
O O19 0.662277 0.989607 0.507933
O O20 0.750000 0.558709 0.591160
O O21 0.871590 0.628411 0.565440
O O22 0.875649 0.498271 0.616744
O O23 0.510860 0.510860 0.342205
#
# Coordination Sequence:
#
# PCOD8315154 Si02
#       8
#    16  16  16  16  16  16  16  16
#     4   9  18  31  46  67  92 118 149 183 223 272
#     4  10  21  36  53  72  97 130 166 207 255 304
#     4  10  20  34  48  67  94 123 155 193 240 294
#     4   9  17  30  47  67  93 122 153 189 228 275
#     4  11  20  30  46  68  92 118 149 185 228 286
#     4   9  17  29  46  71 102 134 167 204 249 295
#     4   9  17  29  46  69  97 129 163 198 237 282
#     4  10  19  32  50  71  98 131 169 209 249 295
#
# _framework density 16.940629000000001
#
# number of rings (size 3 to 8) (size 9 to 14) (size 15 to 20)
#    0.000    2.375    1.250    1.875    0.000    5.125 
#    0.000    1.250    0.000    0.000    0.000    0.000 
#    0.000    5.250    0.000    0.000    0.000    1.750 
#
# Total GULP energy -1586482.940819 kJ/mol
# GULP energy per Si atom -12394.397975 kJ/mol
# Density = 1.690207 g / cm^3
# Si number density = 16.940629 Si / 1000 Ang^3
#
#
#
# Elastic Constant Matrix: (Units=GPa)
#
#
# Indices 1 2 3 4 5 6 
#
# 1 87.5869 53.1035 23.6809 0.0000 0.0000 0.0000
# 2 53.1035 87.5882 23.6808 0.0000 0.0000 0.0000
# 3 23.6809 23.6808 45.5982 0.0000 0.0000 0.0000
# 4 0.0000 0.0000 0.0000 21.0829 0.0000 0.0000
# 5 0.0000 0.0000 0.0000 0.0000 21.0829 0.0000
# 6 0.0000 0.0000 0.0000 0.0000 0.0000 29.3538
#
#
#
# Elastic Compliance Matrix: (Units=1/GPa)
#
#
# Indices 1 2 3 4 5 6 
#
# 1 0.018806 -0.010193 -0.004474 0.000000 0.000000 0.000000
# 2 -0.010193 0.018806 -0.004473 0.000000 0.000000 0.000000
# 3 -0.004474 -0.004473 0.026577 0.000000 0.000000 0.000000
# 4 0.000000 0.000000 0.000000 0.047432 0.000000 0.000000
# 5 0.000000 0.000000 0.000000 0.000000 0.047432 0.000000
# 6 0.000000 0.000000 0.000000 0.000000 0.000000 0.034067
#
#
# Mechanical properties :
#
#
# Convention : Reuss Voigt Hill
#
# Bulk Modulus (GPa) = 38.59390 46.85597 42.72493
# Shear Modulus (GPa) = 20.83019 22.32446 21.57733
#
# Velocity S-wave (km/s) = 3.51037 3.63410 3.57277
# Velocity P-wave (km/s) = 6.26591 6.73260 6.50344
#
# Compressibility (1/GPa) = 0.02591083
#
# Stress axis : x y z
#
# Youngs Moduli (GPa) = 53.17313 53.17415 37.62638
#
# Poissons Ratio (x) = 0.54198 0.16832
# Poissons Ratio (y) = 0.54197 0.16831
# Poissons Ratio (z) = 0.23787 0.23786
#
# Static dielectric constant tensor:
#      x y z
#    x 3.249960 0.000000 0.000000 
#    y 0.000000 3.249960 0.000000 
#    z 0.000000 0.000000 2.931290 
# 
# 
# High freq. dielectric constant tensor:
#      x y z
#    x 1.651510 0.000000 0.000000 
#    y 0.000000 1.651510 0.000000 
#    z 0.000000 0.000000 1.629280 
# 
# From -- ./inp_files/7336.got.cif
#   From: 2010.03.12/outbox.cif.g09.slc.cpg/sg129_4_cif.got.tgz:7336.got - 2010.04.06 17:19:44.
