data_PCOD8315829
_publ_section_title
;
Structure prediction by ZEFSAII (Michael W. Deem and Ramdas Pophale) SiO2 
 PCOD8315829
Probable space group: P 42/M M C
;
_chemical_formula_sum "Si O2"
_cell_formula_units_Z 72
_cell_length_a 25.899923
_cell_length_b 25.899923
_cell_length_c 8.746278
_cell_angle_alpha 90.000000
_cell_angle_beta 90.000000
_cell_angle_gamma 90.000000
_cell_volume 5867.055860
_symmetry_space_group_name_H-M "P 42/M M C"
_symmetry_group_IT_number 131
_symmetry_cell_setting 'tetragonal'
loop_
_space_group_symop_operation_xyz
x,y,z
-x,-y,z
-y,x,1/2+z
y,-x,1/2+z
-x,y,-z
x,-y,-z
y,x,1/2-z
-y,-x,1/2-z
-x,-y,-z
x,y,-z
y,-x,1/2-z
-y,x,1/2-z
x,-y,z
-x,y,z
-y,-x,1/2+z
y,x,1/2+z
loop_
_atom_site_type_symbol
_atom_site_label
_atom_site_fract_x
_atom_site_fract_y
_atom_site_fract_z
Si Si1 0.294674 0.630389 0.821369
Si Si2 0.441176 0.624760 0.172668
Si Si3 0.102550 0.560689 0.169875
Si Si4 0.000000 0.438277 0.672176
Si Si5 0.790635 0.440822 0.319836
O O1 0.314438 0.685563 0.750000
O O2 0.337997 0.588055 0.788504
O O3 0.243254 0.605415 0.750364
O O4 0.285770 0.638720 0.000000
O O5 0.431772 0.568229 0.250000
O O6 0.500000 0.640251 0.171373
O O7 0.419120 0.628674 0.000000
O O8 0.095227 0.500000 0.157615
O O9 0.050717 0.584257 0.243898
O O10 0.151062 0.573872 0.276539
O O11 0.110760 0.584062 0.000000
O O12 0.000000 0.500000 0.672947
O O13 0.000000 0.417197 0.500000
O O14 0.783150 0.439275 0.500000
O O15 0.777304 0.500000 0.262198
#
# Coordination Sequence:
#
# PCOD8315829 Si02
#       5
#    16  16  16   8  16
#     4  11  21  32  45  57  69  85 105 130 161 196
#     4  10  20  32  44  56  68  81  97 118 147 185
#     4   9  16  25  37  54  74  95 118 140 161 187
#     4   9  15  23  35  51  73  99 121 139 161 187
#     4  10  19  30  43  58  75  92 111 136 165 198
#
# _framework density 12.271914000000001
#
# number of rings (size 3 to 8) (size 9 to 14) (size 15 to 20)
#    0.000    2.111    0.000    6.333    0.000   10.000 
#    0.000    1.111    0.000    0.000    0.000    0.000 
#    0.000    0.000    0.000    0.000    0.000    0.000 
#
# Total GULP energy -891989.965614 kJ/mol
# GULP energy per Si atom -12388.749522 kJ/mol
# Density = 1.224398 g / cm^3
# Si number density = 12.271914 Si / 1000 Ang^3
#
#
#
# Elastic Constant Matrix: (Units=GPa)
#
#
# Indices 1 2 3 4 5 6 
#
# 1 54.3499 26.0310 23.7655 0.0000 0.0000 0.0000
# 2 26.0310 54.3506 23.7644 0.0000 0.0000 0.0000
# 3 23.7655 23.7644 79.2936 0.0000 0.0000 0.0000
# 4 0.0000 0.0000 0.0000 18.2217 0.0000 0.0000
# 5 0.0000 0.0000 0.0000 0.0000 18.2217 0.0000
# 6 0.0000 0.0000 0.0000 0.0000 0.0000 3.6776
#
#
#
# Elastic Compliance Matrix: (Units=1/GPa)
#
#
# Indices 1 2 3 4 5 6 
#
# 1 0.025216 -0.010096 -0.004532 0.000000 0.000000 0.000000
# 2 -0.010096 0.025216 -0.004531 0.000000 0.000000 0.000000
# 3 -0.004532 -0.004531 0.015328 0.000000 0.000000 0.000000
# 4 0.000000 0.000000 0.000000 0.054880 0.000000 0.000000
# 5 0.000000 0.000000 0.000000 0.000000 0.054880 0.000000
# 6 0.000000 0.000000 0.000000 0.000000 0.000000 0.271916
#
#
# Mechanical properties :
#
#
# Convention : Reuss Voigt Hill
#
# Bulk Modulus (GPa) = 36.44099 37.23510 36.83804
# Shear Modulus (GPa) = 10.10304 15.65307 12.87806
#
# Velocity S-wave (km/s) = 2.87237 3.57532 3.24295
# Velocity P-wave (km/s) = 6.38434 6.88850 6.64121
#
# Compressibility (1/GPa) = 0.02744163
#
# Stress axis : x y z
#
# Youngs Moduli (GPa) = 39.65675 39.65791 65.24120
#
# Poissons Ratio (x) = 0.40037 0.29568
# Poissons Ratio (y) = 0.40036 0.29563
# Poissons Ratio (z) = 0.17973 0.17970
#
# Static dielectric constant tensor:
#      x y z
#    x 2.499060 0.000000 0.000000 
#    y 0.000000 2.499070 0.000000 
#    z 0.000000 0.000000 2.786990 
# 
# 
# High freq. dielectric constant tensor:
#      x y z
#    x 1.428450 0.000000 0.000000 
#    y 0.000000 1.428450 0.000000 
#    z 0.000000 0.000000 1.489210 
# 
# From -- ./inp_files/1968.got.cif
#   From: 2010.03.12/outbox.cif.g09.slc.cpg/sg131_1_cif.got.tgz:1968.got - 2010.04.06 17:36:35.
