data_PCOD8315434
_publ_section_title
;
Structure prediction by ZEFSAII (Michael W. Deem and Ramdas Pophale) SiO2 
 PCOD8315434
Probable space group: P 4/N M M
;
_chemical_formula_sum "Si O2"
_cell_formula_units_Z 112
_cell_length_a 18.073765
_cell_length_b 18.073765
_cell_length_c 23.643308
_cell_angle_alpha 90.000000
_cell_angle_beta 90.000000
_cell_angle_gamma 90.000000
_cell_volume 7723.346192
_symmetry_space_group_name_H-M "P 4/N M M"
_symmetry_group_IT_number 129
_symmetry_cell_setting 'tetragonal'
loop_
_space_group_symop_operation_xyz
x,y,z
1/2-y,x,z
1/2-x,1/2-y,z
y,1/2-x,z
1/2+x,-y,-z
-x,1/2+y,-z
1/2+y,1/2+x,-z
-y,-x,-z
-x,-y,-z
1/2+y,-x,-z
1/2+x,1/2+y,-z
-y,1/2+x,-z
1/2-x,y,z
x,1/2-y,z
1/2-y,1/2-x,z
y,x,z
loop_
_atom_site_type_symbol
_atom_site_label
_atom_site_fract_x
_atom_site_fract_y
_atom_site_fract_z
Si Si1 0.429206 0.551133 0.438591
Si Si2 0.663676 0.538811 0.643563
Si Si3 0.539958 0.334207 0.652862
Si Si4 0.666351 0.951786 0.237181
Si Si5 0.164215 0.898402 0.823184
Si Si6 0.837729 0.167715 0.060945
Si Si7 0.166129 0.903745 0.282378
O O1 0.412191 0.587810 0.500000
O O2 0.485246 0.485246 0.447076
O O3 0.356478 0.515206 0.409374
O O4 0.468918 0.613533 0.400989
O O5 0.750000 0.562658 0.638428
O O6 0.612162 0.612162 0.646034
O O7 0.648872 0.489304 0.699976
O O8 0.531485 0.250000 0.632765
O O9 0.479228 0.355147 0.700021
O O10 0.619885 0.345154 0.681094
O O11 0.750000 0.923299 0.236613
O O12 0.615757 0.884244 0.218830
O O13 0.654564 0.015688 0.191015
O O14 0.250000 0.873794 0.813973
O O15 0.138097 0.885575 0.887695
O O16 0.109623 0.850381 0.783689
O O17 0.750000 0.172660 0.056980
O O18 0.870066 0.250000 0.072325
O O19 0.864985 0.135016 0.000000
O O20 0.250000 0.885246 0.296575
#
# Coordination Sequence:
#
# PCOD8315434 Si02
#       7
#    16  16  16  16  16  16  16
#     4   9  17  29  44  60  79 104 131 159 194 235
#     4   9  18  31  45  62  82 104 134 170 206 242
#     4   9  17  27  40  58  78 101 128 157 190 230
#     4   9  17  28  41  57  75  96 125 161 202 244
#     4   9  16  24  37  58  81 108 138 163 192 232
#     4   8  13  21  34  54  81 111 139 163 186 218
#     4   9  16  25  38  57  81 106 130 158 190 227
#
# _framework density 14.501486
#
# number of rings (size 3 to 8) (size 9 to 14) (size 15 to 20)
#    0.000    3.143    0.000    2.571    0.000    6.000 
#    0.000    0.000    0.000    0.429    0.000    2.000 
#    0.000    3.429    0.000    0.000    0.000   18.000 
#
# Total GULP energy -1387878.757202 kJ/mol
# GULP energy per Si atom -12391.774618 kJ/mol
# Density = 1.446848 g / cm^3
# Si number density = 14.501486 Si / 1000 Ang^3
#
#
#
# Elastic Constant Matrix: (Units=GPa)
#
#
# Indices 1 2 3 4 5 6 
#
# 1 59.0928 34.5480 32.4796 0.0000 0.0000 0.0000
# 2 34.5480 59.0928 32.4796 0.0000 0.0000 0.0000
# 3 32.4796 32.4796 113.2294 0.0000 0.0000 0.0000
# 4 0.0000 0.0000 0.0000 14.4049 0.0000 0.0000
# 5 0.0000 0.0000 0.0000 0.0000 14.4048 0.0000
# 6 0.0000 0.0000 0.0000 0.0000 0.0000 21.1000
#
#
#
# Elastic Compliance Matrix: (Units=1/GPa)
#
#
# Indices 1 2 3 4 5 6 
#
# 1 0.027037 -0.013705 -0.003824 0.000000 0.000000 0.000000
# 2 -0.013705 0.027037 -0.003824 0.000000 0.000000 0.000000
# 3 -0.003824 -0.003824 0.011026 0.000000 0.000000 0.000000
# 4 0.000000 0.000000 0.000000 0.069421 0.000000 0.000000
# 5 0.000000 0.000000 0.000000 0.000000 0.069421 0.000000
# 6 0.000000 0.000000 0.000000 0.000000 0.000000 0.047393
#
#
# Mechanical properties :
#
#
# Convention : Reuss Voigt Hill
#
# Bulk Modulus (GPa) = 44.65763 47.82549 46.24156
# Shear Modulus (GPa) = 16.58341 18.77578 17.67959
#
# Velocity S-wave (km/s) = 3.38533 3.60217 3.49543
# Velocity P-wave (km/s) = 6.79284 7.09592 6.94604
#
# Compressibility (1/GPa) = 0.02239259
#
# Stress axis : x y z
#
# Youngs Moduli (GPa) = 36.98648 36.98649 90.69808
#
# Poissons Ratio (x) = 0.50690 0.34685
# Poissons Ratio (y) = 0.50690 0.34685
# Poissons Ratio (z) = 0.14145 0.14145
#
# Static dielectric constant tensor:
#      x y z
#    x 2.673020 0.000000 0.000000 
#    y 0.000000 2.673020 0.000000 
#    z 0.000000 0.000000 3.110570 
# 
# 
# High freq. dielectric constant tensor:
#      x y z
#    x 1.535570 0.000000 0.000000 
#    y 0.000000 1.535570 0.000000 
#    z 0.000000 0.000000 1.548980 
# 
# From -- ./inp_files/6632.got.cif
#   From: 2010.03.12/outbox.cif.g09.slc.cpg/sg129_4_cif.got.tgz:6632.got - 2010.04.06 17:19:44.
