data_PCOD8315245
_publ_section_title
;
Structure prediction by ZEFSAII (Michael W. Deem and Ramdas Pophale) SiO2 
 PCOD8315245
Probable space group: P 4/N M M
;
_chemical_formula_sum "Si O2"
_cell_formula_units_Z 96
_cell_length_a 19.119747
_cell_length_b 19.119747
_cell_length_c 16.640220
_cell_angle_alpha 90.000000
_cell_angle_beta 90.000000
_cell_angle_gamma 90.000000
_cell_volume 6083.077454
_symmetry_space_group_name_H-M "P 4/N M M"
_symmetry_group_IT_number 129
_symmetry_cell_setting 'tetragonal'
loop_
_space_group_symop_operation_xyz
x,y,z
1/2-y,x,z
1/2-x,1/2-y,z
y,1/2-x,z
1/2+x,-y,-z
-x,1/2+y,-z
1/2+y,1/2+x,-z
-y,-x,-z
-x,-y,-z
1/2+y,-x,-z
1/2+x,1/2+y,-z
-y,1/2+x,-z
1/2-x,y,z
x,1/2-y,z
1/2-y,1/2-x,z
y,x,z
loop_
_atom_site_type_symbol
_atom_site_label
_atom_site_fract_x
_atom_site_fract_y
_atom_site_fract_z
Si Si1 0.054798 0.169999 0.867953
Si Si2 0.829926 0.943105 0.670221
Si Si3 0.382498 0.003454 0.166020
Si Si4 0.428593 0.545925 0.413365
Si Si5 0.170222 0.553633 0.005188
Si Si6 0.976105 0.407665 0.743709
O O1 0.077915 0.250000 0.874995
O O2 0.124232 0.124232 0.876120
O O3 0.017265 0.158049 0.781283
O O4 0.001014 0.147263 0.936873
O O5 0.750000 0.929605 0.646915
O O6 0.872878 0.872878 0.650541
O O7 0.836092 0.961126 0.764486
O O8 0.858503 0.006891 0.615737
O O9 0.334785 0.986389 0.089758
O O10 0.411988 0.929455 0.198735
O O11 0.444626 0.055375 0.138932
O O12 0.417285 0.582716 0.500000
O O13 0.490479 0.490479 0.419628
O O14 0.449118 0.605935 0.347460
O O15 0.250000 0.578260 0.991855
O O16 0.121093 0.621093 0.000000
O O17 0.024185 0.475816 0.740725
#
# Coordination Sequence:
#
# PCOD8315245 Si02
#       6
#    16  16  16  16  16  16
#     4  10  20  32  47  68  93 123 159 196 235 279
#     4   9  17  28  43  66  96 125 153 185 226 280
#     4   9  16  28  47  67  88 116 152 195 233 269
#     4   8  14  26  45  67  89 113 146 190 234 267
#     4  11  21  31  46  67  92 124 160 199 241 283
#     4   8  14  26  45  66  86 111 145 189 232 269
#
# _framework density 15.781485999999999
#
# number of rings (size 3 to 8) (size 9 to 14) (size 15 to 20)
#    0.000    2.833    1.667    3.000    0.000    1.167 
#    0.000    0.833    0.000    0.000    0.000    2.333 
#    0.000    8.667    0.000    0.000    0.000    0.000 
#
# Total GULP energy -1189798.512054 kJ/mol
# GULP energy per Si atom -12393.734501 kJ/mol
# Density = 1.574557 g / cm^3
# Si number density = 15.781486 Si / 1000 Ang^3
#
#
#
# Elastic Constant Matrix: (Units=GPa)
#
#
# Indices 1 2 3 4 5 6 
#
# 1 70.0958 43.6441 37.0179 0.0000 0.0000 0.0000
# 2 43.6441 70.0957 37.0179 0.0000 0.0000 0.0000
# 3 37.0179 37.0179 115.3300 0.0000 0.0000 0.0000
# 4 0.0000 0.0000 0.0000 14.9039 0.0000 0.0000
# 5 0.0000 0.0000 0.0000 0.0000 14.9039 0.0000
# 6 0.0000 0.0000 0.0000 0.0000 0.0000 15.3225
#
#
#
# Elastic Compliance Matrix: (Units=1/GPa)
#
#
# Indices 1 2 3 4 5 6 
#
# 1 0.024459 -0.013345 -0.003567 0.000000 0.000000 0.000000
# 2 -0.013345 0.024459 -0.003567 0.000000 0.000000 0.000000
# 3 -0.003567 -0.003567 0.010961 0.000000 0.000000 0.000000
# 4 0.000000 0.000000 0.000000 0.067096 0.000000 0.000000
# 5 0.000000 0.000000 0.000000 0.000000 0.067096 0.000000
# 6 0.000000 0.000000 0.000000 0.000000 0.000000 0.065263
#
#
# Mechanical properties :
#
#
# Convention : Reuss Voigt Hill
#
# Bulk Modulus (GPa) = 52.85518 54.54236 53.69877
# Shear Modulus (GPa) = 16.30777 18.21552 17.26165
#
# Velocity S-wave (km/s) = 3.21806 3.40109 3.31084
# Velocity P-wave (km/s) = 6.88277 7.07525 6.97967
#
# Compressibility (1/GPa) = 0.01891962
#
# Stress axis : x y z
#
# Youngs Moduli (GPa) = 40.88407 40.88401 91.23421
#
# Poissons Ratio (x) = 0.54561 0.32546
# Poissons Ratio (y) = 0.54561 0.32546
# Poissons Ratio (z) = 0.14585 0.14585
#
# Static dielectric constant tensor:
#      x y z
#    x 2.735880 0.000000 0.000000 
#    y 0.000000 2.735880 0.000000 
#    z 0.000000 0.000000 3.339950 
# 
# 
# High freq. dielectric constant tensor:
#      x y z
#    x 1.580740 0.000000 0.000000 
#    y 0.000000 1.580740 0.000000 
#    z 0.000000 0.000000 1.612170 
# 
# From -- ./inp_files/5657.got.cif
#   From: 2010.03.12/outbox.cif.g09.slc.cpg/sg129_3_cif.got.tgz:5657.got - 2010.04.06 17:19:44.
