data_PCOD8315814
_publ_section_title
;
Structure prediction by ZEFSAII (Michael W. Deem and Ramdas Pophale) SiO2 
 PCOD8315814
Probable space group: P 42/M M C
;
_chemical_formula_sum "Si O2"
_cell_formula_units_Z 112
_cell_length_a 18.889057
_cell_length_b 18.889057
_cell_length_c 19.541940
_cell_angle_alpha 90.000000
_cell_angle_beta 90.000000
_cell_angle_gamma 90.000000
_cell_volume 6972.495294
_symmetry_space_group_name_H-M "P 42/M M C"
_symmetry_group_IT_number 131
_symmetry_cell_setting 'tetragonal'
loop_
_space_group_symop_operation_xyz
x,y,z
-x,-y,z
-y,x,1/2+z
y,-x,1/2+z
-x,y,-z
x,-y,-z
y,x,1/2-z
-y,-x,1/2-z
-x,-y,-z
x,y,-z
y,-x,1/2-z
-y,x,1/2-z
x,-y,z
-x,y,z
-y,-x,1/2+z
y,x,1/2+z
loop_
_atom_site_type_symbol
_atom_site_label
_atom_site_fract_x
_atom_site_fract_y
_atom_site_fract_z
Si Si1 0.423424 0.380258 0.920128
Si Si2 0.181408 0.306029 0.322767
Si Si3 0.921435 0.185861 0.327460
Si Si4 0.195470 0.695803 0.833466
Si Si5 0.420760 0.215775 0.076276
Si Si6 0.580312 0.729537 0.420528
Si Si7 0.193485 0.079671 0.664715
O O1 0.500000 0.408479 0.889724
O O2 0.419194 0.297765 0.904609
O O3 0.351247 0.414800 0.890019
O O4 0.425263 0.396752 0.000000
O O5 0.114437 0.259967 0.346347
O O6 0.252331 0.262227 0.337680
O O7 0.180976 0.329780 0.243782
O O8 0.174149 0.375158 0.368684
O O9 0.922453 0.184750 0.245774
O O10 0.877082 0.120741 0.360448
O O11 0.000000 0.181802 0.358456
O O12 0.213787 0.628631 0.880530
O O13 0.124257 0.736936 0.858306
O O14 0.500000 0.185746 0.080294
O O15 0.389793 0.204397 0.000000
O O16 0.604018 0.729678 0.500000
O O17 0.500000 0.755690 0.412020
O O18 0.197658 0.000000 0.634091
#
# Coordination Sequence:
#
# PCOD8315814 Si02
#       7
#    16  16  16  16  16  16  16
#     4   8  14  25  40  59  83 108 136 173 216 260
#     4   9  16  27  44  63  87 116 143 175 214 255
#     4   8  14  24  40  66  95 118 141 171 209 254
#     4   9  17  28  42  63  88 113 145 179 214 258
#     4   9  16  26  43  65  84 107 144 183 214 250
#     4  10  19  29  43  63  86 113 146 186 227 263
#     4   8  14  25  42  64  90 119 146 174 209 251
#
# _framework density 16.063116000000001
#
# number of rings (size 3 to 8) (size 9 to 14) (size 15 to 20)
#    0.000    3.286    1.429    2.571    0.000    1.143 
#    0.000    2.857    0.000    1.714    0.000    6.000 
#    0.000    0.000    0.000    6.286    0.000    6.286 
#
# Total GULP energy -1387477.252866 kJ/mol
# GULP energy per Si atom -12388.189758 kJ/mol
# Density = 1.602656 g / cm^3
# Si number density = 16.063116 Si / 1000 Ang^3
#
#
#
# Elastic Constant Matrix: (Units=GPa)
#
#
# Indices 1 2 3 4 5 6 
#
# 1 100.1084 60.1305 37.0780 0.0000 0.0000 0.0000
# 2 60.1305 100.1084 37.0780 0.0000 0.0000 0.0000
# 3 37.0780 37.0780 40.9941 0.0000 0.0000 0.0000
# 4 0.0000 0.0000 0.0000 13.2303 0.0000 0.0000
# 5 0.0000 0.0000 0.0000 0.0000 13.2303 0.0000
# 6 0.0000 0.0000 0.0000 0.0000 0.0000 17.1868
#
#
#
# Elastic Compliance Matrix: (Units=1/GPa)
#
#
# Indices 1 2 3 4 5 6 
#
# 1 0.017874 -0.007140 -0.009708 0.000000 0.000000 0.000000
# 2 -0.007140 0.017874 -0.009708 0.000000 0.000000 0.000000
# 3 -0.009708 -0.009708 0.041955 0.000000 0.000000 0.000000
# 4 0.000000 0.000000 0.000000 0.075584 0.000000 0.000000
# 5 0.000000 0.000000 0.000000 0.000000 0.075584 0.000000
# 6 0.000000 0.000000 0.000000 0.000000 0.000000 0.058184
#
#
# Mechanical properties :
#
#
# Convention : Reuss Voigt Hill
#
# Bulk Modulus (GPa) = 40.66753 56.64267 48.65510
# Shear Modulus (GPa) = 14.35279 15.85777 15.10528
#
# Velocity S-wave (km/s) = 2.99243 3.14541 3.06987
# Velocity P-wave (km/s) = 6.10834 6.96639 6.55143
#
# Compressibility (1/GPa) = 0.02458964
#
# Stress axis : x y z
#
# Youngs Moduli (GPa) = 55.94840 55.94840 23.83504
#
# Poissons Ratio (x) = 0.39948 0.23139
# Poissons Ratio (y) = 0.39948 0.23139
# Poissons Ratio (z) = 0.54315 0.54315
#
# Static dielectric constant tensor:
#      x y z
#    x 3.148240 0.000000 0.000000 
#    y 0.000000 3.148240 0.000000 
#    z 0.000000 0.000000 2.641570 
# 
# 
# High freq. dielectric constant tensor:
#      x y z
#    x 1.608370 0.000000 0.000000 
#    y 0.000000 1.608370 0.000000 
#    z 0.000000 0.000000 1.569520 
# 
# From -- ./inp_files/10009.got.cif
#   From: 2010.03.12/outbox.cif.g09.slc.cpg/sg131_6_cif.got.tgz:10009.got - 2010.04.06 17:36:35.
