data_PCOD8315302
_publ_section_title
;
Structure prediction by ZEFSAII (Michael W. Deem and Ramdas Pophale) SiO2 
 PCOD8315302
Probable space group: P 4/N M M
;
_chemical_formula_sum "Si O2"
_cell_formula_units_Z 112
_cell_length_a 13.517964
_cell_length_b 13.517964
_cell_length_c 36.046092
_cell_angle_alpha 90.000000
_cell_angle_beta 90.000000
_cell_angle_gamma 90.000000
_cell_volume 6586.895263
_symmetry_space_group_name_H-M "P 4/N M M"
_symmetry_group_IT_number 129
_symmetry_cell_setting 'tetragonal'
loop_
_space_group_symop_operation_xyz
x,y,z
1/2-y,x,z
1/2-x,1/2-y,z
y,1/2-x,z
1/2+x,-y,-z
-x,1/2+y,-z
1/2+y,1/2+x,-z
-y,-x,-z
-x,-y,-z
1/2+y,-x,-z
1/2+x,1/2+y,-z
-y,1/2+x,-z
1/2-x,y,z
x,1/2-y,z
1/2-y,1/2-x,z
y,x,z
loop_
_atom_site_type_symbol
_atom_site_label
_atom_site_fract_x
_atom_site_fract_y
_atom_site_fract_z
Si Si1 0.136695 0.524507 0.970746
Si Si2 0.133307 0.526133 0.256078
Si Si3 0.636329 0.021013 0.111869
Si Si4 0.633406 0.472266 0.319805
Si Si5 0.366143 0.861083 0.183051
Si Si6 0.360686 0.866916 0.393578
Si Si7 0.528052 0.366926 0.532400
O O1 0.250000 0.493978 0.975854
O O2 0.073465 0.426536 0.978934
O O3 0.116573 0.566386 0.929133
O O4 0.109791 0.609791 0.000000
O O5 0.250000 0.506850 0.258553
O O6 0.099799 0.567918 0.216202
O O7 0.077464 0.422537 0.263123
O O8 0.101885 0.607173 0.286433
O O9 0.750000 0.997557 0.117903
O O10 0.583398 0.916603 0.116055
O O11 0.597327 0.094636 0.143748
O O12 0.750000 0.494935 0.319809
O O13 0.576240 0.576240 0.315480
O O14 0.597282 0.419291 0.357365
O O15 0.250000 0.859888 0.179979
O O16 0.405724 0.750000 0.190863
O O17 0.250000 0.913466 0.393988
O O18 0.351207 0.750000 0.393336
O O19 0.421182 0.901660 0.429474
O O20 0.604118 0.395883 0.500000
O O21 0.506469 0.250000 0.531383
O O22 0.423890 0.423890 0.527737
#
# Coordination Sequence:
#
# PCOD8315302 Si02
#       7
#    16  16  16  16  16  16  16
#     4   9  18  31  46  66  91 119 152 189 229 273
#     4  10  20  33  50  71  94 123 159 198 240 283
#     4   9  17  29  45  65  90 118 147 181 221 267
#     4  10  20  33  50  73 100 130 164 200 240 287
#     4   9  17  29  46  68  92 118 150 187 227 273
#     4   9  17  30  49  71  95 125 161 200 239 279
#     4  10  20  33  50  73 100 131 168 208 251 299
#
# _framework density 17.003458999999999
#
# number of rings (size 3 to 8) (size 9 to 14) (size 15 to 20)
#    0.000    2.571    0.000    2.143    0.000    3.571 
#    0.000    2.857    0.000    2.571    0.000    2.000 
#    0.000   13.714    0.000    0.000    0.000    0.000 
#
# Total GULP energy -1388600.429054 kJ/mol
# GULP energy per Si atom -12398.218117 kJ/mol
# Density = 1.696476 g / cm^3
# Si number density = 17.003459 Si / 1000 Ang^3
#
#
#
# Elastic Constant Matrix: (Units=GPa)
#
#
# Indices 1 2 3 4 5 6 
#
# 1 71.7112 35.3916 42.9776 0.0000 0.0000 0.0000
# 2 35.3916 71.7114 42.9777 0.0000 0.0000 0.0000
# 3 42.9776 42.9777 135.6341 0.0000 0.0000 0.0000
# 4 0.0000 0.0000 0.0000 26.7230 0.0000 0.0000
# 5 0.0000 0.0000 0.0000 0.0000 26.7230 0.0000
# 6 0.0000 0.0000 0.0000 0.0000 0.0000 17.0644
#
#
#
# Elastic Compliance Matrix: (Units=1/GPa)
#
#
# Indices 1 2 3 4 5 6 
#
# 1 0.020027 -0.007506 -0.003967 0.000000 0.000000 0.000000
# 2 -0.007506 0.020027 -0.003967 0.000000 0.000000 0.000000
# 3 -0.003967 -0.003967 0.009887 0.000000 0.000000 0.000000
# 4 0.000000 0.000000 0.000000 0.037421 0.000000 0.000000
# 5 0.000000 0.000000 0.000000 0.000000 0.037421 0.000000
# 6 0.000000 0.000000 0.000000 0.000000 0.000000 0.058602
#
#
# Mechanical properties :
#
#
# Convention : Reuss Voigt Hill
#
# Bulk Modulus (GPa) = 52.46838 57.97229 55.22034
# Shear Modulus (GPa) = 22.66343 24.61606 23.63974
#
# Velocity S-wave (km/s) = 3.65481 3.80900 3.73270
# Velocity P-wave (km/s) = 6.98102 7.31527 7.15010
#
# Compressibility (1/GPa) = 0.01905910
#
# Stress axis : x y z
#
# Youngs Moduli (GPa) = 49.93243 49.93249 101.14240
#
# Poissons Ratio (x) = 0.37480 0.40127
# Poissons Ratio (y) = 0.37480 0.40128
# Poissons Ratio (z) = 0.19810 0.19810
#
# Static dielectric constant tensor:
#      x y z
#    x 3.041620 0.000000 0.000000 
#    y 0.000000 3.041610 0.000000 
#    z 0.000000 0.000000 3.516170 
# 
# 
# High freq. dielectric constant tensor:
#      x y z
#    x 1.642900 0.000000 0.000000 
#    y 0.000000 1.642900 0.000000 
#    z 0.000000 0.000000 1.675640 
# 
# From -- ./inp_files/7589.got.cif
#   From: 2010.03.12/outbox.cif.g09.slc.cpg/sg129_4_cif.got.tgz:7589.got - 2010.04.06 17:19:44.
