data_PCOD8315397
_publ_section_title
;
Structure prediction by ZEFSAII (Michael W. Deem and Ramdas Pophale) SiO2 
 PCOD8315397
Probable space group: P 4/N M M
;
_chemical_formula_sum "Si O2"
_cell_formula_units_Z 96
_cell_length_a 13.246795
_cell_length_b 13.246795
_cell_length_c 31.955225
_cell_angle_alpha 90.000000
_cell_angle_beta 90.000000
_cell_angle_gamma 90.000000
_cell_volume 5607.425480
_symmetry_space_group_name_H-M "P 4/N M M"
_symmetry_group_IT_number 129
_symmetry_cell_setting 'tetragonal'
loop_
_space_group_symop_operation_xyz
x,y,z
1/2-y,x,z
1/2-x,1/2-y,z
y,1/2-x,z
1/2+x,-y,-z
-x,1/2+y,-z
1/2+y,1/2+x,-z
-y,-x,-z
-x,-y,-z
1/2+y,-x,-z
1/2+x,1/2+y,-z
-y,1/2+x,-z
1/2-x,y,z
x,1/2-y,z
1/2-y,1/2-x,z
y,x,z
loop_
_atom_site_type_symbol
_atom_site_label
_atom_site_fract_x
_atom_site_fract_y
_atom_site_fract_z
Si Si1 0.521360 0.135280 0.295009
Si Si2 0.633878 0.468290 0.461629
Si Si3 0.369718 0.865521 0.875058
Si Si4 0.639562 0.130462 0.217117
Si Si5 0.371443 0.371443 0.002394
Si Si6 0.497274 0.002727 0.935579
Si Si7 0.531625 0.366509 0.387745
O O1 0.504674 0.250000 0.283598
O O2 0.410604 0.089397 0.297641
O O3 0.581116 0.082816 0.256732
O O4 0.574672 0.120100 0.340292
O O5 0.602238 0.397763 0.500000
O O6 0.750000 0.497781 0.465822
O O7 0.572141 0.572141 0.461855
O O8 0.617481 0.406599 0.418763
O O9 0.250000 0.881254 0.877532
O O10 0.397385 0.750000 0.885636
O O11 0.409412 0.893827 0.828224
O O12 0.422737 0.936529 0.908072
O O13 0.750000 0.081262 0.218644
O O14 0.648458 0.250000 0.222393
O O15 0.250000 0.391746 0.002545
O O16 0.425413 0.425413 0.963233
O O17 0.425748 0.425748 0.041575
O O18 0.506357 0.250000 0.396927
O O19 0.428571 0.428571 0.395288
#
# Coordination Sequence:
#
# PCOD8315397 Si02
#       7
#    16  16  16  16   8   8  16
#     4   9  17  28  44  66  95 129 162 197 236 284
#     4  10  21  36  53  74 100 128 161 204 251 300
#     4   9  18  32  49  72 101 127 158 203 244 284
#     4   8  15  28  44  63  90 122 154 193 240 281
#     4  10  22  38  52  72 104 132 158 200 248 290
#     4  11  20  32  56  78  92 128 172 198 235 294
#     4   9  18  31  46  69  98 129 168 208 245 291
#
# _framework density 17.120156999999999
#
# number of rings (size 3 to 8) (size 9 to 14) (size 15 to 20)
#    0.000    2.750    0.000    2.500    1.167    2.333 
#    0.000    3.333    0.000    7.000    0.000    0.000 
#    0.000    0.333    0.000    0.000    0.000    0.000 
#
# Total GULP energy -1189525.286815 kJ/mol
# GULP energy per Si atom -12390.888404 kJ/mol
# Density = 1.708119 g / cm^3
# Si number density = 17.120157 Si / 1000 Ang^3
#
#
#
# Elastic Constant Matrix: (Units=GPa)
#
#
# Indices 1 2 3 4 5 6 
#
# 1 77.3605 43.5536 53.1750 0.0000 0.0000 0.0000
# 2 43.5536 77.3594 53.1757 0.0000 0.0000 0.0000
# 3 53.1750 53.1757 133.5229 0.0000 0.0000 0.0000
# 4 0.0000 0.0000 0.0000 25.5256 0.0000 0.0000
# 5 0.0000 0.0000 0.0000 0.0000 25.5257 0.0000
# 6 0.0000 0.0000 0.0000 0.0000 0.0000 18.6777
#
#
#
# Elastic Compliance Matrix: (Units=1/GPa)
#
#
# Indices 1 2 3 4 5 6 
#
# 1 0.021154 -0.008426 -0.005069 0.000000 0.000000 0.000000
# 2 -0.008426 0.021155 -0.005070 0.000000 0.000000 0.000000
# 3 -0.005069 -0.005070 0.011527 0.000000 0.000000 0.000000
# 4 0.000000 0.000000 0.000000 0.039176 0.000000 0.000000
# 5 0.000000 0.000000 0.000000 0.000000 0.039176 0.000000
# 6 0.000000 0.000000 0.000000 0.000000 0.000000 0.053540
#
#
# Mechanical properties :
#
#
# Convention : Reuss Voigt Hill
#
# Bulk Modulus (GPa) = 59.85175 65.33906 62.59540
# Shear Modulus (GPa) = 21.88885 23.16837 22.52861
#
# Velocity S-wave (km/s) = 3.57955 3.68269 3.63148
# Velocity P-wave (km/s) = 7.21941 7.50538 7.36379
#
# Compressibility (1/GPa) = 0.01670795
#
# Stress axis : x y z
#
# Youngs Moduli (GPa) = 47.27137 47.27002 86.75202
#
# Poissons Ratio (x) = 0.39828 0.43976
# Poissons Ratio (y) = 0.39829 0.43980
# Poissons Ratio (z) = 0.23963 0.23964
#
# Static dielectric constant tensor:
#      x y z
#    x 3.084500 0.000000 0.000000 
#    y 0.000000 3.084500 0.000000 
#    z 0.000000 0.000000 3.586680 
# 
# 
# High freq. dielectric constant tensor:
#      x y z
#    x 1.644120 0.000000 0.000000 
#    y 0.000000 1.644120 0.000000 
#    z 0.000000 0.000000 1.682410 
# 
# From -- ./inp_files/7536.got.cif
#   From: 2010.03.12/outbox.cif.g09.slc.cpg/sg129_4_cif.got.tgz:7536.got - 2010.04.06 17:19:44.
