data_PCOD8315605
_publ_section_title
;
Structure prediction by ZEFSAII (Michael W. Deem and Ramdas Pophale) SiO2 
 PCOD8315605
Probable space group: P 4/N C C
;
_chemical_formula_sum "Si O2"
_cell_formula_units_Z 112
_cell_length_a 13.896707
_cell_length_b 13.896707
_cell_length_c 25.821575
_cell_angle_alpha 90.000000
_cell_angle_beta 90.000000
_cell_angle_gamma 90.000000
_cell_volume 4986.622939
_symmetry_space_group_name_H-M "P 4/N C C"
_symmetry_group_IT_number 130
_symmetry_cell_setting 'tetragonal'
loop_
_space_group_symop_operation_xyz
x,y,z
1/2-y,x,z
1/2-x,1/2-y,z
y,1/2-x,z
1/2+x,-y,1/2-z
-x,1/2+y,1/2-z
1/2+y,1/2+x,1/2-z
-y,-x,1/2-z
-x,-y,-z
1/2+y,-x,-z
1/2+x,1/2+y,-z
-y,1/2+x,-z
1/2-x,y,1/2+z
x,1/2-y,1/2+z
1/2-y,1/2-x,1/2+z
y,x,1/2+z
loop_
_atom_site_type_symbol
_atom_site_label
_atom_site_fract_x
_atom_site_fract_y
_atom_site_fract_z
Si Si1 0.007122 0.662713 0.749398
Si Si2 0.914942 0.454821 0.594571
Si Si3 0.646286 0.858704 0.547510
Si Si4 0.061592 0.304120 0.552136
Si Si5 0.892904 0.266814 0.984275
Si Si6 0.100614 0.220833 0.657420
Si Si7 0.373239 0.507230 0.787434
O O1 0.993524 0.695725 0.809481
O O2 0.922787 0.593276 0.728615
O O3 0.003041 0.757442 0.713729
O O4 0.110284 0.610284 0.750000
O O5 0.927564 0.560936 0.568581
O O6 0.820036 0.404218 0.570718
O O7 0.906562 0.464550 0.655467
O O8 0.007872 0.390403 0.582381
O O9 0.616371 0.753199 0.568536
O O10 0.646180 0.851540 0.483707
O O11 0.090646 0.223088 0.594824
O O12 0.995738 0.251220 0.509528
O O13 0.835513 0.167249 0.976272
O O14 0.175189 0.138687 0.674104
O O15 0.407754 0.592246 0.750000
#
# Coordination Sequence:
#
# PCOD8315605 Si02
#       7
#    16  16  16  16  16  16  16
#     4  11  25  46  74 100 139 190 240 308 364 429
#     4  11  24  41  68  96 136 182 224 291 359 424
#     4  11  23  41  59  94 141 177 230 280 336 428
#     4  11  22  40  67  98 138 178 227 291 355 429
#     4   9  20  40  63  94 134 177 225 273 341 431
#     4  11  23  42  69 100 133 182 236 294 364 422
#     4  11  26  48  70 106 144 178 252 306 362 442
#
# _framework density 22.460092
#
# number of rings (size 3 to 8) (size 9 to 14) (size 15 to 20)
#    0.000    1.286    2.857    2.143    4.000    2.857 
#    0.000    2.857    0.000    0.000    0.000    0.000 
#    0.000    0.000    0.000    0.000    0.000    0.000 
#
# Total GULP energy -1388363.756979 kJ/mol
# GULP energy per Si atom -12396.104973 kJ/mol
# Density = 2.240897 g / cm^3
# Si number density = 22.460092 Si / 1000 Ang^3
#
#
#
# Elastic Constant Matrix: (Units=GPa)
#
#
# Indices 1 2 3 4 5 6 
#
# 1 91.7151 33.3090 19.9632 0.0000 0.0000 0.0000
# 2 33.3090 91.7121 19.9624 0.0000 0.0000 0.0000
# 3 19.9632 19.9624 126.4560 0.0000 0.0000 0.0000
# 4 0.0000 0.0000 0.0000 34.0408 0.0000 0.0000
# 5 0.0000 0.0000 0.0000 0.0000 34.0411 0.0000
# 6 0.0000 0.0000 0.0000 0.0000 0.0000 -1.0785
#
#
#
# Elastic Compliance Matrix: (Units=1/GPa)
#
#
# Indices 1 2 3 4 5 6 
#
# 1 0.012772 -0.004349 -0.001330 0.000000 0.000000 0.000000
# 2 -0.004349 0.012773 -0.001330 0.000000 0.000000 0.000000
# 3 -0.001330 -0.001330 0.008328 0.000000 0.000000 0.000000
# 4 0.000000 0.000000 0.000000 0.029376 0.000000 0.000000
# 5 0.000000 0.000000 0.000000 0.000000 0.029376 0.000000
# 6 0.000000 0.000000 0.000000 0.000000 0.000000 -0.927250
#
#
# Mechanical properties :
#
#
# Convention : Reuss Voigt Hill
#
# Bulk Modulus (GPa) = 50.36454 50.70582 50.53518
# Shear Modulus (GPa) = -6.14260 29.17726 11.51733
#
# Velocity S-wave (km/s) = -1.65555 3.60817 2.26695
# Velocity P-wave (km/s) = 4.33800 6.32325 5.42226
#
# Compressibility (1/GPa) = 0.01985524
#
# Stress axis : x y z
#
# Youngs Moduli (GPa) = 78.29404 78.29155 120.08092
#
# Poissons Ratio (x) = 0.34052 0.15968
# Poissons Ratio (y) = 0.34053 0.15967
# Poissons Ratio (z) = 0.10411 0.10410
#
# Static dielectric constant tensor:
#      x y z
#    x 4.151250 0.000000 0.000000 
#    y 0.000000 4.151250 0.000000 
#    z 0.000000 0.000000 3.846750 
# 
# 
# High freq. dielectric constant tensor:
#      x y z
#    x 1.893700 0.000000 0.000000 
#    y 0.000000 1.893700 0.000000 
#    z 0.000000 0.000000 1.872930 
# 
# From -- ./inp_files/4277.got.cif
#   From: 2010.03.12/outbox.cif.g09.slc.cpg/sg130_3_cif.got.tgz:4277.got - 2010.04.06 17:30:23.
