data_PCOD8315751
_publ_section_title
;
Structure prediction by ZEFSAII (Michael W. Deem and Ramdas Pophale) SiO2 
 PCOD8315751
Probable space group: P 42/M M C
;
_chemical_formula_sum "Si O2"
_cell_formula_units_Z 112
_cell_length_a 13.964308
_cell_length_b 13.964308
_cell_length_c 32.856656
_cell_angle_alpha 90.000000
_cell_angle_beta 90.000000
_cell_angle_gamma 90.000000
_cell_volume 6407.110279
_symmetry_space_group_name_H-M "P 42/M M C"
_symmetry_group_IT_number 131
_symmetry_cell_setting 'tetragonal'
loop_
_space_group_symop_operation_xyz
x,y,z
-x,-y,z
-y,x,1/2+z
y,-x,1/2+z
-x,y,-z
x,-y,-z
y,x,1/2-z
-y,-x,1/2-z
-x,-y,-z
x,y,-z
y,-x,1/2-z
-y,x,1/2-z
x,-y,z
-x,y,z
-y,-x,1/2+z
y,x,1/2+z
loop_
_atom_site_type_symbol
_atom_site_label
_atom_site_fract_x
_atom_site_fract_y
_atom_site_fract_z
Si Si1 0.390223 0.764979 0.237063
Si Si2 0.112718 0.102444 0.818167
Si Si3 0.307142 0.886828 0.303786
Si Si4 0.111635 0.610362 0.658190
Si Si5 0.110548 0.754173 0.047077
Si Si6 0.893420 0.777336 0.600497
Si Si7 0.112042 0.604898 0.886694
O O1 0.324885 0.675116 0.250000
O O2 0.500000 0.729845 0.234770
O O3 0.381028 0.844799 0.271722
O O4 0.360417 0.817186 0.194985
O O5 0.147906 0.197189 0.793994
O O6 0.142137 0.111117 0.864896
O O7 0.000000 0.100905 0.817332
O O8 0.151726 0.000000 0.799670
O O9 0.334326 0.847359 0.348654
O O10 0.315822 0.000000 0.301829
O O11 0.125455 0.500000 0.645965
O O12 0.141295 0.675776 0.619666
O O13 0.000000 0.630967 0.670395
O O14 0.186241 0.832625 0.062338
O O15 0.134680 0.656942 0.071001
O O16 0.000000 0.786399 0.054633
O O17 0.129753 0.734156 0.000000
O O18 0.000000 0.764369 0.583419
O O19 0.160801 0.500000 0.887816
O O20 0.000000 0.593018 0.880445
#
# Coordination Sequence:
#
# PCOD8315751 Si02
#       7
#    16  16  16  16  16  16  16
#     4  11  23  36  52  75 102 133 170 214 262 309
#     4   9  16  26  44  70 100 135 168 196 233 286
#     4  10  18  31  52  76 103 135 172 212 252 296
#     4   9  19  36  56  77  99 127 168 215 261 309
#     4  10  20  32  47  71 104 138 169 205 251 307
#     4  10  18  30  50  70  95 132 169 205 248 299
#     4   9  17  29  46  69  98 135 176 213 248 289
#
# _framework density 17.48058
#
# number of rings (size 3 to 8) (size 9 to 14) (size 15 to 20)
#    0.000    2.286    1.429    2.143    0.000    3.000 
#    0.000    2.857    0.000    2.143    0.000    8.000 
#    0.000    0.000    0.000    1.286    0.000    0.143 
#
# Total GULP energy -1387841.031915 kJ/mol
# GULP energy per Si atom -12391.437785 kJ/mol
# Density = 1.744079 g / cm^3
# Si number density = 17.480580 Si / 1000 Ang^3
#
#
#
# Elastic Constant Matrix: (Units=GPa)
#
#
# Indices 1 2 3 4 5 6 
#
# 1 71.4981 54.9267 41.8213 0.0000 0.0000 0.0000
# 2 54.9267 71.4973 41.8207 0.0000 0.0000 0.0000
# 3 41.8213 41.8207 84.6082 0.0000 0.0000 0.0000
# 4 0.0000 0.0000 0.0000 22.6883 0.0000 0.0000
# 5 0.0000 0.0000 0.0000 0.0000 22.6885 0.0000
# 6 0.0000 0.0000 0.0000 0.0000 0.0000 20.6379
#
#
#
# Elastic Compliance Matrix: (Units=1/GPa)
#
#
# Indices 1 2 3 4 5 6 
#
# 1 0.036050 -0.024296 -0.005810 0.000000 0.000000 0.000000
# 2 -0.024296 0.036050 -0.005809 0.000000 0.000000 0.000000
# 3 -0.005810 -0.005809 0.017562 0.000000 0.000000 0.000000
# 4 0.000000 0.000000 0.000000 0.044076 0.000000 0.000000
# 5 0.000000 0.000000 0.000000 0.000000 0.044075 0.000000
# 6 0.000000 0.000000 0.000000 0.000000 0.000000 0.048454
#
#
# Mechanical properties :
#
#
# Convention : Reuss Voigt Hill
#
# Bulk Modulus (GPa) = 56.08235 56.08235 56.08235
# Shear Modulus (GPa) = 16.44507 19.13861 17.79184
#
# Velocity S-wave (km/s) = 3.07051 3.31244 3.19377
# Velocity P-wave (km/s) = 6.68753 6.83974 6.76406
#
# Compressibility (1/GPa) = 0.01783092
#
# Stress axis : x y z
#
# Youngs Moduli (GPa) = 27.73936 27.73928 56.93952
#
# Poissons Ratio (x) = 0.67396 0.33081
# Poissons Ratio (y) = 0.67397 0.33079
# Poissons Ratio (z) = 0.16116 0.16115
#
# Static dielectric constant tensor:
#      x y z
#    x 3.360020 0.000000 0.000000 
#    y 0.000000 3.360020 0.000000 
#    z 0.000000 0.000000 3.020400 
# 
# 
# High freq. dielectric constant tensor:
#      x y z
#    x 1.665280 0.000000 0.000000 
#    y 0.000000 1.665280 0.000000 
#    z 0.000000 0.000000 1.652590 
# 
# From -- ./inp_files/13809.got.cif
#   From: 2010.03.12/outbox.cif.g09.slc.cpg/sg131_7_cif.got.tgz:13809.got - 2010.04.06 17:36:35.
