data_PCOD8315178
_publ_section_title
;
Structure prediction by ZEFSAII (Michael W. Deem and Ramdas Pophale) SiO2 
 PCOD8315178
Probable space group: P 4/N M M
;
_chemical_formula_sum "Si O2"
_cell_formula_units_Z 80
_cell_length_a 12.610486
_cell_length_b 12.610486
_cell_length_c 29.245480
_cell_angle_alpha 90.000000
_cell_angle_beta 90.000000
_cell_angle_gamma 90.000000
_cell_volume 4650.743657
_symmetry_space_group_name_H-M "P 4/N M M"
_symmetry_group_IT_number 129
_symmetry_cell_setting 'tetragonal'
loop_
_space_group_symop_operation_xyz
x,y,z
1/2-y,x,z
1/2-x,1/2-y,z
y,1/2-x,z
1/2+x,-y,-z
-x,1/2+y,-z
1/2+y,1/2+x,-z
-y,-x,-z
-x,-y,-z
1/2+y,-x,-z
1/2+x,1/2+y,-z
-y,1/2+x,-z
1/2-x,y,z
x,1/2-y,z
1/2-y,1/2-x,z
y,x,z
loop_
_atom_site_type_symbol
_atom_site_label
_atom_site_fract_x
_atom_site_fract_y
_atom_site_fract_z
Si Si1 0.539461 0.131143 0.371203
Si Si2 0.452900 0.626378 0.732099
Si Si3 0.124296 0.551088 0.049153
Si Si4 0.540968 0.134058 0.543663
Si Si5 0.250000 0.875982 0.788013
Si Si6 0.124517 0.750000 0.109106
O O1 0.499349 0.250000 0.375277
O O2 0.583965 0.109024 0.320349
O O3 0.627905 0.107658 0.409268
O O4 0.436730 0.063271 0.382568
O O5 0.479294 0.750000 0.742040
O O6 0.558057 0.558057 0.743398
O O7 0.356036 0.583565 0.762811
O O8 0.250000 0.524540 0.053690
O O9 0.086421 0.641893 0.084597
O O10 0.056254 0.443747 0.058094
O O11 0.099809 0.599809 0.000000
O O12 0.615140 0.115140 0.500000
O O13 0.492123 0.250000 0.539977
O O14 0.442957 0.057044 0.544125
O O15 0.250000 0.750000 0.787148
O O16 0.250000 0.921142 0.839485
O O17 0.250000 0.750000 0.108941
#
# Coordination Sequence:
#
# PCOD8315178 Si02
#       6
#    16  16  16  16   8   8
#     4   9  18  31  48  72  99 129 164 202 247 298
#     4   9  18  32  51  75 103 134 171 215 262 311
#     4  10  19  32  52  77 106 139 176 216 257 304
#     4  10  21  35  50  71  98 126 161 202 245 297
#     4   9  18  32  50  75 101 133 173 212 255 305
#     4   9  18  32  52  73 101 137 175 214 251 305
#
# _framework density 17.201550999999998
#
# number of rings (size 3 to 8) (size 9 to 14) (size 15 to 20)
#    0.000    2.600    1.000    0.600    1.400    3.000 
#    0.000    2.000    0.000    4.200    0.000    7.000 
#    0.000    0.000    0.000    0.000    0.000    0.000 
#
# Total GULP energy -991648.643812 kJ/mol
# GULP energy per Si atom -12395.608048 kJ/mol
# Density = 1.716240 g / cm^3
# Si number density = 17.201551 Si / 1000 Ang^3
#
#
#
# Elastic Constant Matrix: (Units=GPa)
#
#
# Indices 1 2 3 4 5 6 
#
# 1 90.9764 50.3258 51.5431 0.0000 0.0000 0.0000
# 2 50.3258 90.9764 51.5431 0.0000 0.0000 0.0000
# 3 51.5431 51.5431 129.4761 0.0000 0.0000 0.0000
# 4 0.0000 0.0000 0.0000 20.9654 0.0000 0.0000
# 5 0.0000 0.0000 0.0000 0.0000 20.9654 0.0000
# 6 0.0000 0.0000 0.0000 0.0000 0.0000 12.1467
#
#
#
# Elastic Compliance Matrix: (Units=1/GPa)
#
#
# Indices 1 2 3 4 5 6 
#
# 1 0.017287 -0.007313 -0.003970 0.000000 0.000000 0.000000
# 2 -0.007313 0.017287 -0.003970 0.000000 0.000000 0.000000
# 3 -0.003970 -0.003970 0.010885 0.000000 0.000000 0.000000
# 4 0.000000 0.000000 0.000000 0.047698 0.000000 0.000000
# 5 0.000000 0.000000 0.000000 0.000000 0.047698 0.000000
# 6 0.000000 0.000000 0.000000 0.000000 0.000000 0.082327
#
#
# Mechanical properties :
#
#
# Convention : Reuss Voigt Hill
#
# Bulk Modulus (GPa) = 66.88864 68.69480 67.79172
# Shear Modulus (GPa) = 19.32958 21.34999 20.33978
#
# Velocity S-wave (km/s) = 3.35582 3.52684 3.44239
# Velocity P-wave (km/s) = 7.34745 7.52375 7.43612
#
# Compressibility (1/GPa) = 0.01495022
#
# Stress axis : x y z
#
# Youngs Moduli (GPa) = 57.84781 57.84781 91.87307
#
# Poissons Ratio (x) = 0.42305 0.36477
# Poissons Ratio (y) = 0.42305 0.36477
# Poissons Ratio (z) = 0.22968 0.22968
#
# Static dielectric constant tensor:
#      x y z
#    x 3.082550 0.000000 0.000000 
#    y 0.000000 3.082550 0.000000 
#    z 0.000000 0.000000 3.585210 
# 
# 
# High freq. dielectric constant tensor:
#      x y z
#    x 1.650210 0.000000 0.000000 
#    y 0.000000 1.650210 0.000000 
#    z 0.000000 0.000000 1.675310 
# 
# From -- ./inp_files/7722.got.cif
#   From: 2010.03.12/outbox.cif.g09.slc.cpg/sg129_4_cif.got.tgz:7722.got - 2010.04.06 17:19:44.
