data_PCOD8315442
_publ_section_title
;
Structure prediction by ZEFSAII (Michael W. Deem and Ramdas Pophale) SiO2 
 PCOD8315442
Probable space group: P 4/N M M
;
_chemical_formula_sum "Si O2"
_cell_formula_units_Z 112
_cell_length_a 13.938208
_cell_length_b 13.938208
_cell_length_c 35.091872
_cell_angle_alpha 90.000000
_cell_angle_beta 90.000000
_cell_angle_gamma 90.000000
_cell_volume 6817.425787
_symmetry_space_group_name_H-M "P 4/N M M"
_symmetry_group_IT_number 129
_symmetry_cell_setting 'tetragonal'
loop_
_space_group_symop_operation_xyz
x,y,z
1/2-y,x,z
1/2-x,1/2-y,z
y,1/2-x,z
1/2+x,-y,-z
-x,1/2+y,-z
1/2+y,1/2+x,-z
-y,-x,-z
-x,-y,-z
1/2+y,-x,-z
1/2+x,1/2+y,-z
-y,1/2+x,-z
1/2-x,y,z
x,1/2-y,z
1/2-y,1/2-x,z
y,x,z
loop_
_atom_site_type_symbol
_atom_site_label
_atom_site_fract_x
_atom_site_fract_y
_atom_site_fract_z
Si Si1 0.357952 0.510556 0.611687
Si Si2 0.978827 0.137618 0.528782
Si Si3 0.485183 0.859621 0.025212
Si Si4 0.479247 0.862163 0.305439
Si Si5 0.859608 0.014763 0.836495
Si Si6 0.859827 0.015067 0.748555
Si Si7 0.985180 0.359622 0.886889
O O1 0.250000 0.477208 0.611701
O O2 0.410711 0.410711 0.611690
O O3 0.380567 0.565069 0.571717
O O4 0.380483 0.565096 0.651677
O O5 0.896668 0.103333 0.500000
O O6 0.001164 0.250000 0.521778
O O7 0.076774 0.076774 0.522457
O O8 0.506757 0.750000 0.014679
O O9 0.455584 0.871493 0.069162
O O10 0.581319 0.918682 0.015613
O O11 0.396878 0.896878 0.000000
O O12 0.501671 0.750000 0.298413
O O13 0.577288 0.922713 0.299326
O O14 0.398326 0.895910 0.276000
O O15 0.750000 0.993233 0.847052
O O16 0.871487 0.044195 0.792540
O O17 0.896883 0.103132 0.861673
O O18 0.918665 0.918665 0.846153
O O19 0.750000 0.994129 0.737943
O O20 0.918731 0.918731 0.738884
O O21 0.006782 0.250000 0.876355
O O22 0.081329 0.418672 0.877285
#
# Coordination Sequence:
#
# PCOD8315442 Si02
#       7
#    16  16  16  16  16  16  16
#     4   8  14  25  41  61  85 112 142 177 216 257
#     4   9  17  29  45  65  88 114 145 180 218 260
#     4   9  18  32  49  69  93 121 153 189 227 266
#     4   9  17  29  45  66  92 119 146 177 214 259
#     4   9  18  32  49  69  92 117 147 184 225 268
#     4   9  18  32  49  68  89 115 148 186 226 264
#     4   9  18  32  49  69  93 121 153 188 224 263
#
# _framework density 16.428488999999999
#
# number of rings (size 3 to 8) (size 9 to 14) (size 15 to 20)
#    0.000    3.143    0.000    0.000    0.000    3.000 
#    0.000    9.286    0.000    2.571    0.000    8.000 
#    0.000    5.714    0.000    0.000    0.000    0.000 
#
# Total GULP energy -1387900.152296 kJ/mol
# GULP energy per Si atom -12391.965646 kJ/mol
# Density = 1.639110 g / cm^3
# Si number density = 16.428489 Si / 1000 Ang^3
#
#
#
# Elastic Constant Matrix: (Units=GPa)
#
#
# Indices 1 2 3 4 5 6 
#
# 1 98.2938 42.4060 55.3564 0.0000 0.0000 0.0000
# 2 42.4060 98.2929 55.3563 0.0000 0.0000 0.0000
# 3 55.3564 55.3563 83.8115 0.0000 0.0000 0.0000
# 4 0.0000 0.0000 0.0000 25.7021 0.0000 0.0000
# 5 0.0000 0.0000 0.0000 0.0000 25.7021 0.0000
# 6 0.0000 0.0000 0.0000 0.0000 0.0000 12.1977
#
#
#
# Elastic Compliance Matrix: (Units=1/GPa)
#
#
# Indices 1 2 3 4 5 6 
#
# 1 0.016346 -0.001547 -0.009774 0.000000 0.000000 0.000000
# 2 -0.001547 0.016346 -0.009774 0.000000 0.000000 0.000000
# 3 -0.009774 -0.009774 0.024843 0.000000 0.000000 0.000000
# 4 0.000000 0.000000 0.000000 0.038907 0.000000 0.000000
# 5 0.000000 0.000000 0.000000 0.000000 0.038907 0.000000
# 6 0.000000 0.000000 0.000000 0.000000 0.000000 0.081983
#
#
# Mechanical properties :
#
#
# Convention : Reuss Voigt Hill
#
# Bulk Modulus (GPa) = 65.17574 65.18173 65.17874
# Shear Modulus (GPa) = 18.89378 21.20568 20.04973
#
# Velocity S-wave (km/s) = 3.39494 3.59665 3.49725
# Velocity P-wave (km/s) = 7.42469 7.55050 7.48786
#
# Compressibility (1/GPa) = 0.01534313
#
# Stress axis : x y z
#
# Youngs Moduli (GPa) = 61.17835 61.17764 40.25298
#
# Poissons Ratio (x) = 0.09467 0.39344
# Poissons Ratio (y) = 0.09467 0.39344
# Poissons Ratio (z) = 0.59796 0.59796
#
# Static dielectric constant tensor:
#      x y z
#    x 2.998880 0.000000 0.000000 
#    y 0.000000 2.998890 0.000000 
#    z 0.000000 0.000000 3.441320 
# 
# 
# High freq. dielectric constant tensor:
#      x y z
#    x 1.619370 0.000000 0.000000 
#    y 0.000000 1.619370 0.000000 
#    z 0.000000 0.000000 1.644820 
# 
# From -- ./inp_files/7580.got.cif
#   From: 2010.03.12/outbox.cif.g09.slc.cpg/sg129_4_cif.got.tgz:7580.got - 2010.04.06 17:19:44.
