data_PCOD8315069
_publ_section_title
;
Structure prediction by ZEFSAII (Michael W. Deem and Ramdas Pophale) SiO2 
 PCOD8315069
Probable space group: P 4/N M M
;
_chemical_formula_sum "Si O2"
_cell_formula_units_Z 80
_cell_length_a 29.817544
_cell_length_b 29.817544
_cell_length_c 5.033946
_cell_angle_alpha 90.000000
_cell_angle_beta 90.000000
_cell_angle_gamma 90.000000
_cell_volume 4475.610562
_symmetry_space_group_name_H-M "P 4/N M M"
_symmetry_group_IT_number 129
_symmetry_cell_setting 'tetragonal'
loop_
_space_group_symop_operation_xyz
x,y,z
1/2-y,x,z
1/2-x,1/2-y,z
y,1/2-x,z
1/2+x,-y,-z
-x,1/2+y,-z
1/2+y,1/2+x,-z
-y,-x,-z
-x,-y,-z
1/2+y,-x,-z
1/2+x,1/2+y,-z
-y,1/2+x,-z
1/2-x,y,z
x,1/2-y,z
1/2-y,1/2-x,z
y,x,z
loop_
_atom_site_type_symbol
_atom_site_label
_atom_site_fract_x
_atom_site_fract_y
_atom_site_fract_z
Si Si1 0.698470 0.129338 0.959543
Si Si2 0.912359 0.342171 0.540803
Si Si3 0.656293 0.656293 0.055857
Si Si4 0.698225 0.698225 0.556539
Si Si5 0.198530 0.004275 0.437154
Si Si6 0.563137 0.801103 0.062485
O O1 0.750000 0.129627 0.032718
O O2 0.690924 0.114114 0.657489
O O3 0.679334 0.179334 0.000000
O O4 0.672901 0.095304 0.156410
O O5 0.893072 0.393072 0.500000
O O6 0.965110 0.337843 0.482583
O O7 0.668883 0.668883 0.356323
O O8 0.665266 0.603903 0.008176
O O9 0.685911 0.685911 0.856957
O O10 0.750000 0.687279 0.506968
O O11 0.250000 0.986204 0.462640
O O12 0.190011 0.043851 0.645745
O O13 0.189590 0.023647 0.145952
O O14 0.580695 0.750000 0.034981
#
# Coordination Sequence:
#
# PCOD8315069 Si02
#       6
#    16  16   8   8  16  16
#     4  10  19  30  45  67  96 131 168 202 244 297
#     4  10  20  33  51  74  98 128 166 210 260 308
#     4  12  22  37  54  74 109 140 172 220 248 290
#     4  11  22  34  52  76 104 144 181 206 240 284
#     4  10  19  33  52  75 102 129 166 212 258 307
#     4  10  21  34  52  77 101 134 171 205 253 300
#
# _framework density 17.874656000000002
#
# number of rings (size 3 to 8) (size 9 to 14) (size 15 to 20)
#    0.000    1.700    0.000    6.000    0.000    4.200 
#    0.000    0.000    0.000    3.600    0.000    4.200 
#    0.000    0.000    0.000    0.000    0.000    0.000 
#
# Total GULP energy -992237.807865 kJ/mol
# GULP energy per Si atom -12402.972598 kJ/mol
# Density = 1.783397 g / cm^3
# Si number density = 17.874656 Si / 1000 Ang^3
#
#
#
# Elastic Constant Matrix: (Units=GPa)
#
#
# Indices 1 2 3 4 5 6 
#
# 1 69.3880 58.7737 3.8219 0.0000 0.0000 0.0000
# 2 58.7737 69.3880 3.8219 0.0000 0.0000 0.0000
# 3 3.8219 3.8219 66.5878 0.0000 0.0000 0.0000
# 4 0.0000 0.0000 0.0000 18.8080 0.0000 0.0000
# 5 0.0000 0.0000 0.0000 0.0000 18.8080 0.0000
# 6 0.0000 0.0000 0.0000 0.0000 0.0000 30.3639
#
#
#
# Elastic Compliance Matrix: (Units=1/GPa)
#
#
# Indices 1 2 3 4 5 6 
#
# 1 0.051021 -0.043191 -0.000449 0.000000 0.000000 0.000000
# 2 -0.043191 0.051021 -0.000449 0.000000 0.000000 0.000000
# 3 -0.000449 -0.000449 0.015069 0.000000 0.000000 0.000000
# 4 0.000000 0.000000 0.000000 0.053169 0.000000 0.000000
# 5 0.000000 0.000000 0.000000 0.000000 0.053169 0.000000
# 6 0.000000 0.000000 0.000000 0.000000 0.000000 0.032934
#
#
# Mechanical properties :
#
#
# Convention : Reuss Voigt Hill
#
# Bulk Modulus (GPa) = 34.56532 37.57762 36.07147
# Shear Modulus (GPa) = 14.11604 22.85905 18.48755
#
# Velocity S-wave (km/s) = 2.81325 3.57998 3.21952
# Velocity P-wave (km/s) = 5.47102 6.17713 5.83477
#
# Compressibility (1/GPa) = 0.02893073
#
# Stress axis : x y z
#
# Youngs Moduli (GPa) = 19.59980 19.59980 66.35985
#
# Poissons Ratio (x) = 0.84654 0.02982
# Poissons Ratio (y) = 0.84654 0.02982
# Poissons Ratio (z) = 0.00881 0.00881
#
# Static dielectric constant tensor:
#      x y z
#    x 3.134810 0.000000 0.000000 
#    y 0.000000 3.134810 0.000000 
#    z 0.000000 0.000000 3.494660 
# 
# 
# High freq. dielectric constant tensor:
#      x y z
#    x 1.667870 0.000000 0.000000 
#    y 0.000000 1.667870 0.000000 
#    z 0.000000 0.000000 1.717670 
# 
# From -- ./inp_files/1011.got.cif
#   From: 2010.03.12/outbox.cif.g09.slc.cpg/sg129_1_cif.got.tgz:1011.got - 2010.04.06 17:19:44.
