data_PCOD8315035
_publ_section_title
;
Structure prediction by ZEFSAII (Michael W. Deem and Ramdas Pophale) SiO2 
 PCOD8315035
Probable space group: P 4/N M M
;
_chemical_formula_sum "Si O2"
_cell_formula_units_Z 72
_cell_length_a 18.384360
_cell_length_b 18.384360
_cell_length_c 13.017951
_cell_angle_alpha 90.000000
_cell_angle_beta 90.000000
_cell_angle_gamma 90.000000
_cell_volume 4399.868167
_symmetry_space_group_name_H-M "P 4/N M M"
_symmetry_group_IT_number 129
_symmetry_cell_setting 'tetragonal'
loop_
_space_group_symop_operation_xyz
x,y,z
1/2-y,x,z
1/2-x,1/2-y,z
y,1/2-x,z
1/2+x,-y,-z
-x,1/2+y,-z
1/2+y,1/2+x,-z
-y,-x,-z
-x,-y,-z
1/2+y,-x,-z
1/2+x,1/2+y,-z
-y,1/2+x,-z
1/2-x,y,z
x,1/2-y,z
1/2-y,1/2-x,z
y,x,z
loop_
_atom_site_type_symbol
_atom_site_label
_atom_site_fract_x
_atom_site_fract_y
_atom_site_fract_z
Si Si1 0.169436 0.447336 0.807385
Si Si2 0.594563 0.405438 0.500000
Si Si3 0.668603 0.164597 0.307907
Si Si4 0.833385 0.400327 0.097899
Si Si5 0.048585 0.164631 0.571165
O O1 0.250000 0.414371 0.818625
O O2 0.114355 0.385646 0.842268
O O3 0.158331 0.514224 0.883660
O O4 0.157748 0.473691 0.690473
O O5 0.635375 0.379909 0.601117
O O6 0.509395 0.384850 0.509095
O O7 0.750000 0.131040 0.318283
O O8 0.671243 0.250000 0.317413
O O9 0.636081 0.142429 0.197334
O O10 0.750000 0.377641 0.076980
O O11 0.881352 0.381352 0.000000
O O12 0.049883 0.250000 0.536487
O O13 0.128498 0.128498 0.553337
#
# Coordination Sequence:
#
# PCOD8315035 Si02
#       5
#    16   8  16  16  16
#     4   9  18  33  51  72  98 128 164 207 253 296
#     4  12  19  31  50  74 104 131 162 206 261 306
#     4  10  19  29  44  68  99 137 173 203 240 293
#     4  10  19  32  48  68  98 133 167 202 241 288
#     4  10  20  34  52  74 102 136 172 211 255 302
#
# _framework density 16.364128000000001
#
# number of rings (size 3 to 8) (size 9 to 14) (size 15 to 20)
#    0.000    2.000    2.222    3.000    0.000    2.889 
#    0.000    2.222    0.000    0.000    0.000    0.000 
#    0.000    0.000    0.000    6.444    0.000    0.444 
#
# Total GULP energy -892693.912643 kJ/mol
# GULP energy per Si atom -12398.526564 kJ/mol
# Density = 1.632688 g / cm^3
# Si number density = 16.364128 Si / 1000 Ang^3
#
#
#
# Elastic Constant Matrix: (Units=GPa)
#
#
# Indices 1 2 3 4 5 6 
#
# 1 81.7724 49.0024 37.1067 0.0000 0.0000 0.0000
# 2 49.0024 81.7727 37.1063 0.0000 0.0000 0.0000
# 3 37.1067 37.1063 91.1471 0.0000 0.0000 0.0000
# 4 0.0000 0.0000 0.0000 21.7981 0.0000 0.0000
# 5 0.0000 0.0000 0.0000 0.0000 21.7978 0.0000
# 6 0.0000 0.0000 0.0000 0.0000 0.0000 29.7324
#
#
#
# Elastic Compliance Matrix: (Units=1/GPa)
#
#
# Indices 1 2 3 4 5 6 
#
# 1 0.020230 -0.010286 -0.004048 0.000000 0.000000 0.000000
# 2 -0.010286 0.020230 -0.004048 0.000000 0.000000 0.000000
# 3 -0.004048 -0.004048 0.014267 0.000000 0.000000 0.000000
# 4 0.000000 0.000000 0.000000 0.045876 0.000000 0.000000
# 5 0.000000 0.000000 0.000000 0.000000 0.045876 0.000000
# 6 0.000000 0.000000 0.000000 0.000000 0.000000 0.033633
#
#
# Mechanical properties :
#
#
# Convention : Reuss Voigt Hill
#
# Bulk Modulus (GPa) = 55.67175 55.68033 55.67604
# Shear Modulus (GPa) = 22.43517 23.43077 22.93297
#
# Velocity S-wave (km/s) = 3.70671 3.78807 3.74761
# Velocity P-wave (km/s) = 7.23976 7.29605 7.26796
#
# Compressibility (1/GPa) = 0.01796243
#
# Stress axis : x y z
#
# Youngs Moduli (GPa) = 49.43167 49.43218 70.08967
#
# Poissons Ratio (x) = 0.50845 0.28375
# Poissons Ratio (y) = 0.50844 0.28374
# Poissons Ratio (z) = 0.20012 0.20011
#
# Static dielectric constant tensor:
#      x y z
#    x 3.090880 0.000000 0.000000 
#    y 0.000000 3.090850 0.000000 
#    z 0.000000 0.000000 3.346590 
# 
# 
# High freq. dielectric constant tensor:
#      x y z
#    x 1.626450 0.000000 0.000000 
#    y 0.000000 1.626450 0.000000 
#    z 0.000000 0.000000 1.613440 
# 
# From -- ./inp_files/3522.got.cif
#   From: 2010.03.12/outbox.cif.g09.slc.cpg/sg129_2_cif.got.tgz:3522.got - 2010.04.06 17:19:44.
