data_PCOD8315756
_publ_section_title
;
Structure prediction by ZEFSAII (Michael W. Deem and Ramdas Pophale) SiO2 
 PCOD8315756
Probable space group: P 42/M M C
;
_chemical_formula_sum "Si O2"
_cell_formula_units_Z 112
_cell_length_a 18.064613
_cell_length_b 18.064613
_cell_length_c 20.142001
_cell_angle_alpha 90.000000
_cell_angle_beta 90.000000
_cell_angle_gamma 90.000000
_cell_volume 6572.944078
_symmetry_space_group_name_H-M "P 42/M M C"
_symmetry_group_IT_number 131
_symmetry_cell_setting 'tetragonal'
loop_
_space_group_symop_operation_xyz
x,y,z
-x,-y,z
-y,x,1/2+z
y,-x,1/2+z
-x,y,-z
x,-y,-z
y,x,1/2-z
-y,-x,1/2-z
-x,-y,-z
x,y,-z
y,-x,1/2-z
-y,x,1/2-z
x,-y,z
-x,y,z
-y,-x,1/2+z
y,x,1/2+z
loop_
_atom_site_type_symbol
_atom_site_label
_atom_site_fract_x
_atom_site_fract_y
_atom_site_fract_z
Si Si1 0.809457 0.413433 0.853211
Si Si2 0.586672 0.343601 0.424790
Si Si3 0.795131 0.319550 0.275671
Si Si4 0.314288 0.083965 0.423638
Si Si5 0.083073 0.826061 0.841018
Si Si6 0.082244 0.782307 0.688759
Si Si7 0.335131 0.414813 0.311469
O O1 0.817832 0.500000 0.839403
O O2 0.730695 0.393467 0.885135
O O3 0.822540 0.369400 0.785405
O O4 0.870684 0.387693 0.905572
O O5 0.619108 0.341995 0.500000
O O6 0.500000 0.356807 0.428665
O O7 0.621739 0.409734 0.381401
O O8 0.753449 0.246552 0.250000
O O9 0.863882 0.289277 0.320052
O O10 0.741805 0.370669 0.320358
O O11 0.295656 0.094444 0.500000
O O12 0.242485 0.112063 0.384391
O O13 0.331922 0.000000 0.404512
O O14 0.079835 0.799642 0.766060
O O15 0.144092 0.890513 0.850458
O O16 0.000000 0.852582 0.863070
O O17 0.000000 0.762401 0.662415
O O18 0.381113 0.381113 0.250000
O O19 0.319146 0.500000 0.294552
#
# Coordination Sequence:
#
# PCOD8315756 Si02
#       7
#    16  16  16  16  16  16  16
#     4  11  20  33  50  70 100 138 175 213 255 298
#     4  10  21  35  51  75 105 135 168 210 260 309
#     4  11  18  32  53  73  99 131 171 211 253 298
#     4  10  20  33  50  72 102 141 178 210 246 295
#     4   9  17  30  48  74 102 127 162 203 245 294
#     4  10  18  30  51  74  99 130 160 202 252 295
#     4  11  22  35  54  76  99 132 173 215 259 314
#
# _framework density 17.039549999999998
#
# number of rings (size 3 to 8) (size 9 to 14) (size 15 to 20)
#    0.000    1.714    5.714    1.286    0.000    2.714 
#    0.000    2.857    0.000    1.714    0.000    2.000 
#    0.000    0.000    0.000    1.286    0.000    0.000 
#
# Total GULP energy -1388572.964474 kJ/mol
# GULP energy per Si atom -12397.972897 kJ/mol
# Density = 1.700077 g / cm^3
# Si number density = 17.039550 Si / 1000 Ang^3
#
#
#
# Elastic Constant Matrix: (Units=GPa)
#
#
# Indices 1 2 3 4 5 6 
#
# 1 92.6424 61.6177 22.8861 0.0000 0.0000 0.0000
# 2 61.6177 92.6435 22.8865 0.0000 0.0000 0.0000
# 3 22.8861 22.8865 47.9059 0.0000 0.0000 0.0000
# 4 0.0000 0.0000 0.0000 18.2108 0.0000 0.0000
# 5 0.0000 0.0000 0.0000 0.0000 18.2112 0.0000
# 6 0.0000 0.0000 0.0000 0.0000 0.0000 23.9411
#
#
#
# Elastic Compliance Matrix: (Units=1/GPa)
#
#
# Indices 1 2 3 4 5 6 
#
# 1 0.019893 -0.012339 -0.003608 0.000000 0.000000 0.000000
# 2 -0.012339 0.019892 -0.003609 0.000000 0.000000 0.000000
# 3 -0.003608 -0.003609 0.024322 0.000000 0.000000 0.000000
# 4 0.000000 0.000000 0.000000 0.054912 0.000000 0.000000
# 5 0.000000 0.000000 0.000000 0.000000 0.054911 0.000000
# 6 0.000000 0.000000 0.000000 0.000000 0.000000 0.041769
#
#
# Mechanical properties :
#
#
# Convention : Reuss Voigt Hill
#
# Bulk Modulus (GPa) = 40.00844 49.77470 44.89157
# Shear Modulus (GPa) = 19.00102 20.45939 19.73021
#
# Velocity S-wave (km/s) = 3.34295 3.46887 3.40649
# Velocity P-wave (km/s) = 6.19929 6.73192 6.47109
#
# Compressibility (1/GPa) = 0.02499473
#
# Stress axis : x y z
#
# Youngs Moduli (GPa) = 50.26993 50.27038 41.11500
#
# Poissons Ratio (x) = 0.62030 0.14836
# Poissons Ratio (y) = 0.62029 0.14836
# Poissons Ratio (z) = 0.18139 0.18140
#
# Static dielectric constant tensor:
#      x y z
#    x 3.340590 0.000000 0.000000 
#    y 0.000000 3.340590 0.000000 
#    z 0.000000 0.000000 3.063030 
# 
# 
# High freq. dielectric constant tensor:
#      x y z
#    x 1.654430 0.000000 0.000000 
#    y 0.000000 1.654430 0.000000 
#    z 0.000000 0.000000 1.628300 
# 
# From -- ./inp_files/10018.got.cif
#   From: 2010.03.12/outbox.cif.g09.slc.cpg/sg131_6_cif.got.tgz:10018.got - 2010.04.06 17:36:35.
