data_PCOD8315338
_publ_section_title
;
Structure prediction by ZEFSAII (Michael W. Deem and Ramdas Pophale) SiO2 
 PCOD8315338
Probable space group: P 4/N M M
;
_chemical_formula_sum "Si O2"
_cell_formula_units_Z 96
_cell_length_a 20.784722
_cell_length_b 20.784722
_cell_length_c 11.960276
_cell_angle_alpha 90.000000
_cell_angle_beta 90.000000
_cell_angle_gamma 90.000000
_cell_volume 5166.895070
_symmetry_space_group_name_H-M "P 4/N M M"
_symmetry_group_IT_number 129
_symmetry_cell_setting 'tetragonal'
loop_
_space_group_symop_operation_xyz
x,y,z
1/2-y,x,z
1/2-x,1/2-y,z
y,1/2-x,z
1/2+x,-y,-z
-x,1/2+y,-z
1/2+y,1/2+x,-z
-y,-x,-z
-x,-y,-z
1/2+y,-x,-z
1/2+x,1/2+y,-z
-y,1/2+x,-z
1/2-x,y,z
x,1/2-y,z
1/2-y,1/2-x,z
y,x,z
loop_
_atom_site_type_symbol
_atom_site_label
_atom_site_fract_x
_atom_site_fract_y
_atom_site_fract_z
Si Si1 0.064551 0.878417 0.250452
Si Si2 0.322342 0.076923 0.154439
Si Si3 0.890690 0.173690 0.091001
Si Si4 0.072433 0.822963 0.478282
Si Si5 0.108753 0.494621 0.339744
Si Si6 0.489253 0.115499 0.969524
O O1 0.138198 0.868133 0.204641
O O2 0.052161 0.826733 0.347857
O O3 0.008674 0.868649 0.157711
O O4 0.059461 0.948950 0.305174
O O5 0.250000 0.092743 0.179000
O O6 0.359902 0.140099 0.191310
O O7 0.345443 0.017946 0.232768
O O8 0.333817 0.061356 0.022551
O O9 0.908312 0.250000 0.107526
O O10 0.832899 0.167102 0.000000
O O11 0.948531 0.126882 0.047745
O O12 0.137049 0.862952 0.500000
O O13 0.086693 0.750000 0.511306
O O14 0.013929 0.848895 0.553681
O O15 0.067725 0.432276 0.373254
O O16 0.456272 0.043729 0.980190
#
# Coordination Sequence:
#
# PCOD8315338 Si02
#       6
#    16  16  16  16  16  16
#     4  10  21  33  54  81 107 138 173 221 271 318
#     4  10  20  33  53  79 107 140 173 209 257 313
#     4  10  21  35  52  75 107 145 182 221 262 310
#     4  10  23  40  56  76 105 143 185 226 269 318
#     4  10  20  35  57  81 105 135 173 221 275 323
#     4  10  20  33  54  82 109 137 170 211 265 322
#
# _framework density 18.579823999999999
#
# number of rings (size 3 to 8) (size 9 to 14) (size 15 to 20)
#    0.000    2.000    1.667    1.500    0.000   13.167 
#    0.000    0.000    0.000    0.000    0.000    0.000 
#    0.000    0.000    0.000    9.333    0.000    0.000 
#
# Total GULP energy -1189307.565141 kJ/mol
# GULP energy per Si atom -12388.620470 kJ/mol
# Density = 1.853754 g / cm^3
# Si number density = 18.579824 Si / 1000 Ang^3
#
#
#
# Elastic Constant Matrix: (Units=GPa)
#
#
# Indices 1 2 3 4 5 6 
#
# 1 80.2676 48.3933 44.7372 0.0000 0.0000 0.0000
# 2 48.3933 80.2672 44.7361 0.0000 0.0000 0.0000
# 3 44.7372 44.7361 121.6537 0.0000 0.0000 0.0000
# 4 0.0000 0.0000 0.0000 18.8979 0.0000 0.0000
# 5 0.0000 0.0000 0.0000 0.0000 18.8978 0.0000
# 6 0.0000 0.0000 0.0000 0.0000 0.0000 13.3185
#
#
#
# Elastic Compliance Matrix: (Units=1/GPa)
#
#
# Indices 1 2 3 4 5 6 
#
# 1 0.020908 -0.010465 -0.003840 0.000000 0.000000 0.000000
# 2 -0.010465 0.020908 -0.003840 0.000000 0.000000 0.000000
# 3 -0.003840 -0.003840 0.011044 0.000000 0.000000 0.000000
# 4 0.000000 0.000000 0.000000 0.052916 0.000000 0.000000
# 5 0.000000 0.000000 0.000000 0.000000 0.052916 0.000000
# 6 0.000000 0.000000 0.000000 0.000000 0.000000 0.075083
#
#
# Mechanical properties :
#
#
# Convention : Reuss Voigt Hill
#
# Bulk Modulus (GPa) = 60.35241 61.99129 61.17185
# Shear Modulus (GPa) = 18.14281 19.84429 18.99355
#
# Velocity S-wave (km/s) = 3.12826 3.27166 3.20076
# Velocity P-wave (km/s) = 6.75287 6.90717 6.83045
#
# Compressibility (1/GPa) = 0.01656935
#
# Stress axis : x y z
#
# Youngs Moduli (GPa) = 47.82799 47.82827 90.54289
#
# Poissons Ratio (x) = 0.50053 0.34772
# Poissons Ratio (y) = 0.50053 0.34770
# Poissons Ratio (z) = 0.18368 0.18367
#
# Static dielectric constant tensor:
#      x y z
#    x 3.263640 0.000000 0.000000 
#    y 0.000000 3.263640 0.000000 
#    z 0.000000 0.000000 3.634470 
# 
# 
# High freq. dielectric constant tensor:
#      x y z
#    x 1.701990 0.000000 0.000000 
#    y 0.000000 1.701990 0.000000 
#    z 0.000000 0.000000 1.725630 
# 
# From -- ./inp_files/3874.got.cif
#   From: 2010.03.12/outbox.cif.g09.slc.cpg/sg129_2_cif.got.tgz:3874.got - 2010.04.06 17:19:44.
