data_PCOD8315646
_publ_section_title
;
Structure prediction by ZEFSAII (Michael W. Deem and Ramdas Pophale) SiO2 
 PCOD8315646
Probable space group: P 42/M M C
;
_chemical_formula_sum "Si O2"
_cell_formula_units_Z 72
_cell_length_a 17.126028
_cell_length_b 17.126028
_cell_length_c 19.380040
_cell_angle_alpha 90.000000
_cell_angle_beta 90.000000
_cell_angle_gamma 90.000000
_cell_volume 5684.181915
_symmetry_space_group_name_H-M "P 42/M M C"
_symmetry_group_IT_number 131
_symmetry_cell_setting 'tetragonal'
loop_
_space_group_symop_operation_xyz
x,y,z
-x,-y,z
-y,x,1/2+z
y,-x,1/2+z
-x,y,-z
x,-y,-z
y,x,1/2-z
-y,-x,1/2-z
-x,-y,-z
x,y,-z
y,-x,1/2-z
-y,x,1/2-z
x,-y,z
-x,y,z
-y,-x,1/2+z
y,x,1/2+z
loop_
_atom_site_type_symbol
_atom_site_label
_atom_site_fract_x
_atom_site_fract_y
_atom_site_fract_z
Si Si1 0.407498 0.085642 0.787705
Si Si2 0.408672 0.829071 0.077201
Si Si3 0.500000 0.591111 0.923833
Si Si4 0.238806 0.410549 0.783956
Si Si5 0.679790 0.366040 0.645405
O O1 0.500000 0.083522 0.782908
O O2 0.383693 0.105978 0.866736
O O3 0.377804 0.151421 0.733447
O O4 0.372469 0.000000 0.769394
O O5 0.500000 0.807168 0.085911
O O6 0.358925 0.750547 0.090899
O O7 0.390998 0.860435 0.000000
O O8 0.500000 0.500000 0.931650
O O9 0.421693 0.613076 0.883609
O O10 0.500000 0.630549 0.000000
O O11 0.235646 0.500000 0.809883
O O12 0.279657 0.356291 0.841674
O O13 0.289124 0.406479 0.714628
#
# Coordination Sequence:
#
# PCOD8315646 Si02
#       5
#    16  16   8  16  16
#     4   8  14  24  36  50  66  83 109 149 192 222
#     4   9  15  23  35  48  67  94 117 140 174 213
#     4  11  20  26  32  44  65  93 123 157 188 207
#     4   9  16  25  35  47  63  85 119 156 182 212
#     4  10  16  25  34  45  64  91 121 150 178 213
#
# _framework density 12.666729999999999
#
# number of rings (size 3 to 8) (size 9 to 14) (size 15 to 20)
#    0.000    2.778    2.222    2.667    0.000    0.444 
#    0.000    2.222    0.000    0.000    0.000    0.000 
#    0.000    3.556    0.000   25.111    0.000  142.667 
#
# Total GULP energy -892215.250145 kJ/mol
# GULP energy per Si atom -12391.878474 kJ/mol
# Density = 1.263790 g / cm^3
# Si number density = 12.666730 Si / 1000 Ang^3
#
#
#
# Elastic Constant Matrix: (Units=GPa)
#
#
# Indices 1 2 3 4 5 6 
#
# 1 69.3892 25.6691 24.8263 0.0000 0.0000 0.0000
# 2 25.6691 69.3892 24.8263 0.0000 0.0000 0.0000
# 3 24.8263 24.8263 38.0944 0.0000 0.0000 0.0000
# 4 0.0000 0.0000 0.0000 10.8948 0.0000 0.0000
# 5 0.0000 0.0000 0.0000 0.0000 10.8948 0.0000
# 6 0.0000 0.0000 0.0000 0.0000 0.0000 6.3982
#
#
#
# Elastic Compliance Matrix: (Units=1/GPa)
#
#
# Indices 1 2 3 4 5 6 
#
# 1 0.019411 -0.003462 -0.010394 0.000000 0.000000 0.000000
# 2 -0.003462 0.019411 -0.010394 0.000000 0.000000 0.000000
# 3 -0.010394 -0.010394 0.039798 0.000000 0.000000 0.000000
# 4 0.000000 0.000000 0.000000 0.091787 0.000000 0.000000
# 5 0.000000 0.000000 0.000000 0.000000 0.091787 0.000000
# 6 0.000000 0.000000 0.000000 0.000000 0.000000 0.156295
#
#
# Mechanical properties :
#
#
# Convention : Reuss Voigt Hill
#
# Bulk Modulus (GPa) = 33.20039 36.39068 34.79554
# Shear Modulus (GPa) = 10.48154 12.40762 11.44458
#
# Velocity S-wave (km/s) = 2.87973 3.13316 3.00911
# Velocity P-wave (km/s) = 6.10939 6.47153 6.29307
#
# Compressibility (1/GPa) = 0.03012013
#
# Stress axis : x y z
#
# Youngs Moduli (GPa) = 51.51739 51.51739 25.12670
#
# Poissons Ratio (x) = 0.17834 0.26117
# Poissons Ratio (y) = 0.17834 0.26117
# Poissons Ratio (z) = 0.53548 0.53548
#
# Static dielectric constant tensor:
#      x y z
#    x 2.569880 0.000000 0.000000 
#    y 0.000000 2.569880 0.000000 
#    z 0.000000 0.000000 2.619830 
# 
# 
# High freq. dielectric constant tensor:
#      x y z
#    x 1.451380 0.000000 0.000000 
#    y 0.000000 1.451380 0.000000 
#    z 0.000000 0.000000 1.470500 
# 
# From -- ./inp_files/7735.got.cif
#   From: 2010.03.12/outbox.cif.g09.slc.cpg/sg131_4_cif.got.tgz:7735.got - 2010.04.06 17:36:35.
