data_PCOD8315264
_publ_section_title
;
Structure prediction by ZEFSAII (Michael W. Deem and Ramdas Pophale) SiO2 
 PCOD8315264
Probable space group: P 4/N M M
;
_chemical_formula_sum "Si O2"
_cell_formula_units_Z 64
_cell_length_a 13.063017
_cell_length_b 13.063017
_cell_length_c 21.621612
_cell_angle_alpha 90.000000
_cell_angle_beta 90.000000
_cell_angle_gamma 90.000000
_cell_volume 3689.564048
_symmetry_space_group_name_H-M "P 4/N M M"
_symmetry_group_IT_number 129
_symmetry_cell_setting 'tetragonal'
loop_
_space_group_symop_operation_xyz
x,y,z
1/2-y,x,z
1/2-x,1/2-y,z
y,1/2-x,z
1/2+x,-y,-z
-x,1/2+y,-z
1/2+y,1/2+x,-z
-y,-x,-z
-x,-y,-z
1/2+y,-x,-z
1/2+x,1/2+y,-z
-y,1/2+x,-z
1/2-x,y,z
x,1/2-y,z
1/2-y,1/2-x,z
y,x,z
loop_
_atom_site_type_symbol
_atom_site_label
_atom_site_fract_x
_atom_site_fract_y
_atom_site_fract_z
Si Si1 0.029297 0.867826 0.553043
Si Si2 0.633723 0.371457 0.811173
Si Si3 0.128611 0.862830 0.325144
Si Si4 0.503420 0.503420 0.096826
Si Si5 0.127794 0.372207 0.004066
O O1 0.114514 0.885487 0.500000
O O2 0.001475 0.750000 0.557745
O O3 0.067246 0.911853 0.619087
O O4 0.926283 0.926283 0.534047
O O5 0.750000 0.406100 0.824031
O O6 0.624129 0.250000 0.815775
O O7 0.598979 0.407920 0.742328
O O8 0.562709 0.421187 0.861947
O O9 0.250000 0.853169 0.329382
O O10 0.080006 0.750000 0.333096
O O11 0.575004 0.575004 0.054812
O O12 0.426037 0.426037 0.062518
O O13 0.106445 0.250000 0.004492
#
# Coordination Sequence:
#
# PCOD8315264 Si02
#       5
#    16  16  16   8   8
#     4  10  20  32  49  73 100 133 174 213 252 301
#     4   9  18  32  50  75 104 131 164 207 252 295
#     4   8  15  29  48  69  96 128 160 203 252 292
#     4  11  20  32  56  78  95 132 172 204 247 296
#     4  10  22  38  52  72 104 134 164 204 250 300
#
# _framework density 17.346222000000001
#
# number of rings (size 3 to 8) (size 9 to 14) (size 15 to 20)
#    0.000    2.625    0.000    3.750    1.750    1.500 
#    0.000    0.000    0.000    6.000    0.000    0.000 
#    0.000    0.000    0.000    0.000    0.000    0.000 
#
# Total GULP energy -793207.258198 kJ/mol
# GULP energy per Si atom -12393.863409 kJ/mol
# Density = 1.730674 g / cm^3
# Si number density = 17.346222 Si / 1000 Ang^3
#
#
#
# Elastic Constant Matrix: (Units=GPa)
#
#
# Indices 1 2 3 4 5 6 
#
# 1 67.0326 38.8057 43.1725 0.0000 0.0000 0.0000
# 2 38.8057 67.0340 43.1725 0.0000 0.0000 0.0000
# 3 43.1725 43.1725 129.0055 0.0000 0.0000 0.0000
# 4 0.0000 0.0000 0.0000 -102.9672 0.0000 0.0000
# 5 0.0000 0.0000 0.0000 0.0000 -102.8298 0.0000
# 6 0.0000 0.0000 0.0000 0.0000 0.0000 24.7087
#
#
#
# Elastic Compliance Matrix: (Units=1/GPa)
#
#
# Indices 1 2 3 4 5 6 
#
# 1 0.024212 -0.011215 -0.004350 0.000000 0.000000 0.000000
# 2 -0.011215 0.024211 -0.004349 0.000000 0.000000 0.000000
# 3 -0.004350 -0.004349 0.010663 0.000000 0.000000 0.000000
# 4 0.000000 0.000000 0.000000 -0.009712 0.000000 0.000000
# 5 0.000000 0.000000 0.000000 0.000000 -0.009725 0.000000
# 6 0.000000 0.000000 0.000000 0.000000 0.000000 0.040472
#
#
# Mechanical properties :
#
#
# Convention : Reuss Voigt Hill
#
# Bulk Modulus (GPa) = 51.92555 57.04151 54.48353
# Shear Modulus (GPa) = 39.56719 -27.02290 6.27215
#
# Velocity S-wave (km/s) = 4.78119 -3.95125 1.90360
# Velocity P-wave (km/s) = 7.77686 3.48411 6.02572
#
# Compressibility (1/GPa) = 0.01925834
#
# Stress axis : x y z
#
# Youngs Moduli (GPa) = 41.30218 41.30327 93.78479
#
# Poissons Ratio (x) = 0.46321 0.40792
# Poissons Ratio (y) = 0.46320 0.40790
# Poissons Ratio (z) = 0.17964 0.17964
#
# Static dielectric constant tensor:
#      x y z
#    x 3.085300 0.000000 0.000000 
#    y 0.000000 3.085290 0.000000 
#    z 0.000000 0.000000 3.554230 
# 
# 
# High freq. dielectric constant tensor:
#      x y z
#    x 1.656390 0.000000 0.000000 
#    y 0.000000 1.656390 0.000000 
#    z 0.000000 0.000000 1.687900 
# 
# From -- ./inp_files/6908.got.cif
#   From: 2010.03.12/outbox.cif.g09.slc.cpg/sg129_4_cif.got.tgz:6908.got - 2010.04.06 17:19:44.
