data_PCOD8315059
_publ_section_title
;
Structure prediction by ZEFSAII (Michael W. Deem and Ramdas Pophale) SiO2 
 PCOD8315059
Probable space group: P 4/N M M
;
_chemical_formula_sum "Si O2"
_cell_formula_units_Z 72
_cell_length_a 13.440454
_cell_length_b 13.440454
_cell_length_c 23.110495
_cell_angle_alpha 90.000000
_cell_angle_beta 90.000000
_cell_angle_gamma 90.000000
_cell_volume 4174.813944
_symmetry_space_group_name_H-M "P 4/N M M"
_symmetry_group_IT_number 129
_symmetry_cell_setting 'tetragonal'
loop_
_space_group_symop_operation_xyz
x,y,z
1/2-y,x,z
1/2-x,1/2-y,z
y,1/2-x,z
1/2+x,-y,-z
-x,1/2+y,-z
1/2+y,1/2+x,-z
-y,-x,-z
-x,-y,-z
1/2+y,-x,-z
1/2+x,1/2+y,-z
-y,1/2+x,-z
1/2-x,y,z
x,1/2-y,z
1/2-y,1/2-x,z
y,x,z
loop_
_atom_site_type_symbol
_atom_site_label
_atom_site_fract_x
_atom_site_fract_y
_atom_site_fract_z
Si Si1 0.865409 0.134592 0.000000
Si Si2 0.132957 0.972612 0.655460
Si Si3 0.366975 0.977384 0.113434
Si Si4 0.632809 0.469300 0.553019
Si Si5 0.637502 0.134382 0.772469
O O1 0.906388 0.080521 0.942939
O O2 0.750000 0.112817 0.009052
O O3 0.250000 0.989055 0.645765
O O4 0.091863 0.890785 0.611047
O O5 0.107735 0.933261 0.719185
O O6 0.078038 0.078038 0.645591
O O7 0.250000 0.988934 0.112204
O O8 0.403039 0.920127 0.170662
O O9 0.413058 0.086943 0.113858
O O10 0.599608 0.400393 0.500000
O O11 0.750000 0.491946 0.549461
O O12 0.574474 0.574474 0.551813
O O13 0.750000 0.100599 0.757461
O O14 0.634957 0.250000 0.786747
#
# Coordination Sequence:
#
# PCOD8315059 Si02
#       5
#     8  16  16  16  16
#     4   9  17  30  48  68  87 109 144 190 234 271
#     4  10  20  33  50  73 100 130 164 201 241 286
#     4  10  19  30  45  65  91 121 150 183 224 272
#     4  10  21  36  54  77 103 131 165 203 243 288
#     4   9  17  30  49  71  92 117 153 196 239 279
#
# _framework density 17.246276999999999
#
# number of rings (size 3 to 8) (size 9 to 14) (size 15 to 20)
#    0.000    2.333    0.000    3.000    0.000    5.778 
#    0.000    0.000    0.000    4.000    0.000    3.111 
#    0.000   16.000    0.000    0.000    0.000    0.000 
#
# Total GULP energy -892828.231377 kJ/mol
# GULP energy per Si atom -12400.392102 kJ/mol
# Density = 1.720702 g / cm^3
# Si number density = 17.246277 Si / 1000 Ang^3
#
#
#
# Elastic Constant Matrix: (Units=GPa)
#
#
# Indices 1 2 3 4 5 6 
#
# 1 99.4723 40.8582 51.5553 0.0000 0.0000 0.0000
# 2 40.8582 99.4733 51.5586 0.0000 0.0000 0.0000
# 3 51.5553 51.5586 126.9050 0.0000 0.0000 0.0000
# 4 0.0000 0.0000 0.0000 22.9165 0.0000 0.0000
# 5 0.0000 0.0000 0.0000 0.0000 22.9163 0.0000
# 6 0.0000 0.0000 0.0000 0.0000 0.0000 24.2572
#
#
#
# Elastic Compliance Matrix: (Units=1/GPa)
#
#
# Indices 1 2 3 4 5 6 
#
# 1 0.013609 -0.003451 -0.004127 0.000000 0.000000 0.000000
# 2 -0.003451 0.013610 -0.004127 0.000000 0.000000 0.000000
# 3 -0.004127 -0.004127 0.011233 0.000000 0.000000 0.000000
# 4 0.000000 0.000000 0.000000 0.043637 0.000000 0.000000
# 5 0.000000 0.000000 0.000000 0.000000 0.043637 0.000000
# 6 0.000000 0.000000 0.000000 0.000000 0.000000 0.041225
#
#
# Mechanical properties :
#
#
# Convention : Reuss Voigt Hill
#
# Bulk Modulus (GPa) = 66.47998 68.19942 67.33970
# Shear Modulus (GPa) = 25.59178 26.14324 25.86751
#
# Velocity S-wave (km/s) = 3.85632 3.89765 3.87704
# Velocity P-wave (km/s) = 7.64588 7.73860 7.69238
#
# Compressibility (1/GPa) = 0.01504212
#
# Stress axis : x y z
#
# Youngs Moduli (GPa) = 73.47860 73.47703 89.02145
#
# Poissons Ratio (x) = 0.25357 0.36737
# Poissons Ratio (y) = 0.25358 0.36742
# Poissons Ratio (z) = 0.30323 0.30326
#
# Static dielectric constant tensor:
#      x y z
#    x 3.064060 0.000000 0.000000 
#    y 0.000000 3.064050 0.000000 
#    z 0.000000 0.000000 3.497710 
# 
# 
# High freq. dielectric constant tensor:
#      x y z
#    x 1.655980 0.000000 0.000000 
#    y 0.000000 1.655980 0.000000 
#    z 0.000000 0.000000 1.687080 
# 
# From -- ./inp_files/7395.got.cif
#   From: 2010.03.12/outbox.cif.g09.slc.cpg/sg129_4_cif.got.tgz:7395.got - 2010.04.06 17:19:44.
