data_PCOD8315631
_publ_section_title
;
Structure prediction by ZEFSAII (Michael W. Deem and Ramdas Pophale) SiO2 
 PCOD8315631
Probable space group: P 4/N C C
;
_chemical_formula_sum "Si O2"
_cell_formula_units_Z 64
_cell_length_a 12.111192
_cell_length_b 12.111192
_cell_length_c 18.573692
_cell_angle_alpha 90.000000
_cell_angle_beta 90.000000
_cell_angle_gamma 90.000000
_cell_volume 2724.407190
_symmetry_space_group_name_H-M "P 4/N C C"
_symmetry_group_IT_number 130
_symmetry_cell_setting 'tetragonal'
loop_
_space_group_symop_operation_xyz
x,y,z
1/2-y,x,z
1/2-x,1/2-y,z
y,1/2-x,z
1/2+x,-y,1/2-z
-x,1/2+y,1/2-z
1/2+y,1/2+x,1/2-z
-y,-x,1/2-z
-x,-y,-z
1/2+y,-x,-z
1/2+x,1/2+y,-z
-y,1/2+x,-z
1/2-x,y,1/2+z
x,1/2-y,1/2+z
1/2-y,1/2-x,1/2+z
y,x,1/2+z
loop_
_atom_site_type_symbol
_atom_site_label
_atom_site_fract_x
_atom_site_fract_y
_atom_site_fract_z
Si Si1 0.418299 0.190511 0.725403
Si Si2 0.533293 0.161377 0.864867
Si Si3 0.383235 0.522637 0.431907
Si Si4 0.775511 0.045844 0.415612
O O1 0.388933 0.316496 0.740909
O O2 0.511770 0.143986 0.779939
O O3 0.454812 0.186006 0.642566
O O4 0.493439 0.285450 0.877470
O O5 0.662990 0.156857 0.886807
O O6 0.475430 0.069746 0.916867
O O7 0.434266 0.644901 0.420979
O O8 0.328143 0.507103 0.509685
#
# Coordination Sequence:
#
# PCOD8315631 Si02
#       4
#    16  16  16  16
#     4  11  25  47  73 109 151 197 249 310 369 448
#     4  12  25  48  77 105 154 198 245 311 379 442
#     4  12  27  46  78 111 151 197 251 312 377 444
#     4  12  26  46  73 111 149 198 253 308 370 452
#
# _framework density 23.491347000000001
#
# number of rings (size 3 to 8) (size 9 to 14) (size 15 to 20)
#    0.000    0.250    5.000    3.750    3.500    1.500 
#    0.000    2.500    0.000    0.000    0.000    0.000 
#    0.000    0.000    0.000    0.000    0.000    0.000 
#
# Total GULP energy -793060.188096 kJ/mol
# GULP energy per Si atom -12391.565439 kJ/mol
# Density = 2.343788 g / cm^3
# Si number density = 23.491347 Si / 1000 Ang^3
#
#
#
# Elastic Constant Matrix: (Units=GPa)
#
#
# Indices 1 2 3 4 5 6 
#
# 1 113.3415 13.4066 30.5116 0.0000 0.0000 0.0000
# 2 13.4066 113.3415 30.5116 0.0000 0.0000 0.0000
# 3 30.5116 30.5116 137.4264 0.0000 0.0000 0.0000
# 4 0.0000 0.0000 0.0000 35.3450 0.0000 0.0000
# 5 0.0000 0.0000 0.0000 0.0000 35.3450 0.0000
# 6 0.0000 0.0000 0.0000 0.0000 0.0000 -21.5655
#
#
#
# Elastic Compliance Matrix: (Units=1/GPa)
#
#
# Indices 1 2 3 4 5 6 
#
# 1 0.009420 -0.000586 -0.001961 0.000000 0.000000 0.000000
# 2 -0.000586 0.009420 -0.001961 0.000000 0.000000 0.000000
# 3 -0.001961 -0.001961 0.008148 0.000000 0.000000 0.000000
# 4 0.000000 0.000000 0.000000 0.028293 0.000000 0.000000
# 5 0.000000 0.000000 0.000000 0.000000 0.028293 0.000000
# 6 0.000000 0.000000 0.000000 0.000000 0.000000 -0.046370
#
#
# Mechanical properties :
#
#
# Convention : Reuss Voigt Hill
#
# Bulk Modulus (GPa) = 55.64787 56.99653 56.32220
# Shear Modulus (GPa) = 95.76618 29.13690 62.45154
#
# Velocity S-wave (km/s) = 6.39180 3.52565 5.16165
# Velocity P-wave (km/s) = 8.84384 6.39445 7.71695
#
# Compressibility (1/GPa) = 0.01797014
#
# Stress axis : x y z
#
# Youngs Moduli (GPa) = 106.15452 106.15452 122.73653
#
# Poissons Ratio (x) = 0.06224 0.24073
# Poissons Ratio (y) = 0.06224 0.24073
# Poissons Ratio (z) = 0.20820 0.20820
#
# Static dielectric constant tensor:
#      x y z
#    x 4.333010 0.000000 0.000000 
#    y 0.000000 4.333010 0.000000 
#    z 0.000000 0.000000 4.333610 
# 
# 
# High freq. dielectric constant tensor:
#      x y z
#    x 1.932490 0.000000 0.000000 
#    y 0.000000 1.932490 0.000000 
#    z 0.000000 0.000000 1.950240 
# 
# From -- ./inp_files/3506.got.cif
#   From: 2010.03.12/outbox.cif.g09.slc.cpg/sg130_2_cif.got.tgz:3506.got - 2010.04.06 17:30:23.
