data_PCOD8315251
_publ_section_title
;
Structure prediction by ZEFSAII (Michael W. Deem and Ramdas Pophale) SiO2 
 PCOD8315251
Probable space group: P 4/N M M
;
_chemical_formula_sum "Si O2"
_cell_formula_units_Z 80
_cell_length_a 13.454749
_cell_length_b 13.454749
_cell_length_c 25.445020
_cell_angle_alpha 90.000000
_cell_angle_beta 90.000000
_cell_angle_gamma 90.000000
_cell_volume 4606.318857
_symmetry_space_group_name_H-M "P 4/N M M"
_symmetry_group_IT_number 129
_symmetry_cell_setting 'tetragonal'
loop_
_space_group_symop_operation_xyz
x,y,z
1/2-y,x,z
1/2-x,1/2-y,z
y,1/2-x,z
1/2+x,-y,-z
-x,1/2+y,-z
1/2+y,1/2+x,-z
-y,-x,-z
-x,-y,-z
1/2+y,-x,-z
1/2+x,1/2+y,-z
-y,1/2+x,-z
1/2-x,y,z
x,1/2-y,z
1/2-y,1/2-x,z
y,x,z
loop_
_atom_site_type_symbol
_atom_site_label
_atom_site_fract_x
_atom_site_fract_y
_atom_site_fract_z
Si Si1 0.023010 0.862162 0.959942
Si Si2 0.135050 0.974763 0.159647
Si Si3 0.639846 0.131958 0.442649
Si Si4 0.970730 0.365804 0.750818
Si Si5 0.867072 0.025982 0.659557
O O1 0.989561 0.750000 0.969063
O O2 0.060536 0.878657 0.900424
O O3 0.111428 0.888573 0.000000
O O4 0.926899 0.926899 0.973329
O O5 0.250000 0.990492 0.174575
O O6 0.086433 0.889323 0.195080
O O7 0.079809 0.079809 0.169657
O O8 0.598269 0.098269 0.500000
O O9 0.750000 0.086832 0.432667
O O10 0.647981 0.250000 0.442356
O O11 0.566405 0.096287 0.396916
O O12 0.996887 0.250000 0.748685
O O13 0.897415 0.393646 0.703191
O O14 0.073602 0.426399 0.746726
O O15 0.750000 0.006849 0.661794
O O16 0.921568 0.921568 0.670557
#
# Coordination Sequence:
#
# PCOD8315251 Si02
#       5
#    16  16  16  16  16
#     4   9  18  32  49  70  97 127 160 199 239 280
#     4   9  18  32  50  73  99 127 159 194 234 279
#     4   8  14  26  45  68  92 118 152 196 241 281
#     4  10  21  36  53  73  96 122 154 192 234 281
#     4  10  20  32  47  69  96 127 162 197 235 279
#
# _framework density 17.367448
#
# number of rings (size 3 to 8) (size 9 to 14) (size 15 to 20)
#    0.000    2.800    0.000    1.800    0.000    4.600 
#    0.000    4.000    0.000    3.600    0.000    5.600 
#    0.000    4.800    0.000    0.000    0.000    0.000 
#
# Total GULP energy -991858.424059 kJ/mol
# GULP energy per Si atom -12398.230301 kJ/mol
# Density = 1.732792 g / cm^3
# Si number density = 17.367448 Si / 1000 Ang^3
#
#
#
# Elastic Constant Matrix: (Units=GPa)
#
#
# Indices 1 2 3 4 5 6 
#
# 1 94.7802 39.0544 46.6399 0.0000 0.0000 0.0000
# 2 39.0544 94.7849 46.6397 0.0000 0.0000 0.0000
# 3 46.6399 46.6397 110.1725 0.0000 0.0000 0.0000
# 4 0.0000 0.0000 0.0000 25.4726 0.0000 0.0000
# 5 0.0000 0.0000 0.0000 0.0000 25.4725 0.0000
# 6 0.0000 0.0000 0.0000 0.0000 0.0000 12.4137
#
#
#
# Elastic Compliance Matrix: (Units=1/GPa)
#
#
# Indices 1 2 3 4 5 6 
#
# 1 0.014272 -0.003673 -0.004487 0.000000 0.000000 0.000000
# 2 -0.003673 0.014271 -0.004487 0.000000 0.000000 0.000000
# 3 -0.004487 -0.004487 0.012876 0.000000 0.000000 0.000000
# 4 0.000000 0.000000 0.000000 0.039258 0.000000 0.000000
# 5 0.000000 0.000000 0.000000 0.000000 0.039258 0.000000
# 6 0.000000 0.000000 0.000000 0.000000 0.000000 0.080556
#
#
# Mechanical properties :
#
#
# Convention : Reuss Voigt Hill
#
# Bulk Modulus (GPa) = 62.01192 62.71172 62.36182
# Shear Modulus (GPa) = 21.63011 23.83201 22.73106
#
# Velocity S-wave (km/s) = 3.53291 3.70837 3.62170
# Velocity P-wave (km/s) = 7.24053 7.38398 7.31261
#
# Compressibility (1/GPa) = 0.01612593
#
# Stress axis : x y z
#
# Youngs Moduli (GPa) = 70.06684 70.07143 77.66622
#
# Poissons Ratio (x) = 0.25735 0.34850
# Poissons Ratio (y) = 0.25733 0.34847
# Poissons Ratio (z) = 0.31440 0.31439
#
# Static dielectric constant tensor:
#      x y z
#    x 3.048940 0.000000 0.000000 
#    y 0.000000 3.048930 0.000000 
#    z 0.000000 0.000000 3.615080 
# 
# 
# High freq. dielectric constant tensor:
#      x y z
#    x 1.653400 0.000000 0.000000 
#    y 0.000000 1.653400 0.000000 
#    z 0.000000 0.000000 1.690350 
# 
# From -- ./inp_files/7684.got.cif
#   From: 2010.03.12/outbox.cif.g09.slc.cpg/sg129_4_cif.got.tgz:7684.got - 2010.04.06 17:19:44.
