data_PCOD8315211
_publ_section_title
;
Structure prediction by ZEFSAII (Michael W. Deem and Ramdas Pophale) SiO2 
 PCOD8315211
Probable space group: P 4/N M M
;
_chemical_formula_sum "Si O2"
_cell_formula_units_Z 128
_cell_length_a 23.379336
_cell_length_b 23.379336
_cell_length_c 11.752837
_cell_angle_alpha 90.000000
_cell_angle_beta 90.000000
_cell_angle_gamma 90.000000
_cell_volume 6424.022569
_symmetry_space_group_name_H-M "P 4/N M M"
_symmetry_group_IT_number 129
_symmetry_cell_setting 'tetragonal'
loop_
_space_group_symop_operation_xyz
x,y,z
1/2-y,x,z
1/2-x,1/2-y,z
y,1/2-x,z
1/2+x,-y,-z
-x,1/2+y,-z
1/2+y,1/2+x,-z
-y,-x,-z
-x,-y,-z
1/2+y,-x,-z
1/2+x,1/2+y,-z
-y,1/2+x,-z
1/2-x,y,z
x,1/2-y,z
1/2-y,1/2-x,z
y,x,z
loop_
_atom_site_type_symbol
_atom_site_label
_atom_site_fract_x
_atom_site_fract_y
_atom_site_fract_z
Si Si1 0.021340 0.852506 0.316492
Si Si2 0.459544 0.314550 0.289850
Si Si3 0.683380 0.116720 0.920085
Si Si4 0.100788 0.686855 0.505773
Si Si5 0.683939 0.011275 0.062622
Si Si6 0.912637 0.681268 0.459606
Si Si7 0.902611 0.813804 0.940679
Si Si8 0.068638 0.618720 0.716953
O O1 0.068904 0.816122 0.384597
O O2 0.011700 0.823223 0.196623
O O3 0.050535 0.915973 0.294919
O O4 0.960757 0.850217 0.381945
O O5 0.487257 0.250000 0.291826
O O6 0.431488 0.328201 0.410752
O O7 0.504342 0.363662 0.247370
O O8 0.410405 0.316145 0.195361
O O9 0.750000 0.113183 0.889947
O O10 0.648262 0.115039 0.801391
O O11 0.672293 0.172293 0.000000
O O12 0.657899 0.065966 0.999140
O O13 0.166922 0.666922 0.500000
O O14 0.098796 0.750000 0.554879
O O15 0.068959 0.644706 0.590754
O O16 0.750000 0.011221 0.029494
O O17 0.655959 0.954909 0.007575
O O18 0.906683 0.750000 0.432285
O O19 0.852160 0.647841 0.439348
O O20 0.894409 0.750000 0.985654
O O21 0.845518 0.845518 0.975924
#
# Coordination Sequence:
#
# PCOD8315211 Si02
#       8
#    16  16  16  16  16  16  16  16
#     4  11  22  37  60  87 122 159 202 247 302 359
#     4  10  19  36  62  90 123 163 205 246 297 363
#     4  11  21  36  58  85 120 160 206 259 306 355
#     4  10  20  33  53  80 113 155 201 248 295 348
#     4  10  20  35  57  81 110 155 202 244 290 356
#     4  11  24  42  66  92 120 155 197 249 310 377
#     4  10  21  37  60  90 120 152 196 248 307 375
#     4  11  20  35  61  88 119 156 208 250 293 351
#
# _framework density 19.925211000000001
#
# number of rings (size 3 to 8) (size 9 to 14) (size 15 to 20)
#    0.000    1.500    3.750    2.625    0.000    1.000 
#    0.000    1.875    0.000    4.875    0.000    1.750 
#    0.000    0.000    0.000    0.000    0.000    0.000 
#
# Total GULP energy -1585793.547275 kJ/mol
# GULP energy per Si atom -12389.012088 kJ/mol
# Density = 1.987986 g / cm^3
# Si number density = 19.925211 Si / 1000 Ang^3
#
#
#
# Elastic Constant Matrix: (Units=GPa)
#
#
# Indices 1 2 3 4 5 6 
#
# 1 86.5904 54.5168 20.6341 0.0000 0.0000 0.0000
# 2 54.5168 86.5904 20.6341 0.0000 0.0000 0.0000
# 3 20.6341 20.6341 108.1931 0.0000 0.0000 0.0000
# 4 0.0000 0.0000 0.0000 21.8487 0.0000 0.0000
# 5 0.0000 0.0000 0.0000 0.0000 21.8487 0.0000
# 6 0.0000 0.0000 0.0000 0.0000 0.0000 28.6571
#
#
#
# Elastic Compliance Matrix: (Units=1/GPa)
#
#
# Indices 1 2 3 4 5 6 
#
# 1 0.019342 -0.011836 -0.001431 0.000000 0.000000 0.000000
# 2 -0.011836 0.019342 -0.001431 0.000000 0.000000 0.000000
# 3 -0.001431 -0.001431 0.009789 0.000000 0.000000 0.000000
# 4 0.000000 0.000000 0.000000 0.045769 0.000000 0.000000
# 5 0.000000 0.000000 0.000000 0.000000 0.045769 0.000000
# 6 0.000000 0.000000 0.000000 0.000000 0.000000 0.034895
#
#
# Mechanical properties :
#
#
# Convention : Reuss Voigt Hill
#
# Bulk Modulus (GPa) = 52.42746 52.54933 52.48840
# Shear Modulus (GPa) = 23.73460 26.84349 25.28904
#
# Velocity S-wave (km/s) = 3.45510 3.67442 3.56645
# Velocity P-wave (km/s) = 6.50278 6.66576 6.58478
#
# Compressibility (1/GPa) = 0.01907397
#
# Stress axis : x y z
#
# Youngs Moduli (GPa) = 51.70141 51.70141 102.15844
#
# Poissons Ratio (x) = 0.61196 0.14623
# Poissons Ratio (y) = 0.61196 0.14623
# Poissons Ratio (z) = 0.07401 0.07401
#
# Static dielectric constant tensor:
#      x y z
#    x 3.606110 0.000000 0.000000 
#    y 0.000000 3.606110 0.000000 
#    z 0.000000 0.000000 3.654560 
# 
# 
# High freq. dielectric constant tensor:
#      x y z
#    x 1.755460 0.000000 0.000000 
#    y 0.000000 1.755460 0.000000 
#    z 0.000000 0.000000 1.792430 
# 
# From -- ./inp_files/4201.got.cif
#   From: 2010.03.12/outbox.cif.g09.slc.cpg/sg129_3_cif.got.tgz:4201.got - 2010.04.06 17:19:44.
