data_PCOD8315803
_publ_section_title
;
Structure prediction by ZEFSAII (Michael W. Deem and Ramdas Pophale) SiO2 
 PCOD8315803
Probable space group: P 42/M M C
;
_chemical_formula_sum "Si O2"
_cell_formula_units_Z 40
_cell_length_a 7.755758
_cell_length_b 7.755758
_cell_length_c 32.598653
_cell_angle_alpha 90.000000
_cell_angle_beta 90.000000
_cell_angle_gamma 90.000000
_cell_volume 1960.867074
_symmetry_space_group_name_H-M "P 42/M M C"
_symmetry_group_IT_number 131
_symmetry_cell_setting 'tetragonal'
loop_
_space_group_symop_operation_xyz
x,y,z
-x,-y,z
-y,x,1/2+z
y,-x,1/2+z
-x,y,-z
x,-y,-z
y,x,1/2-z
-y,-x,1/2-z
-x,-y,-z
x,y,-z
y,-x,1/2-z
-y,x,1/2-z
x,-y,z
-x,y,z
-y,-x,1/2+z
y,x,1/2+z
loop_
_atom_site_type_symbol
_atom_site_label
_atom_site_fract_x
_atom_site_fract_y
_atom_site_fract_z
Si Si1 0.301469 0.698532 0.250000
Si Si2 0.689544 0.204729 0.953859
Si Si3 0.000000 0.698477 0.811674
Si Si4 0.196247 0.000000 0.597435
O O1 0.500000 0.727756 0.235799
O O2 0.173429 0.746464 0.213046
O O3 0.500000 0.279808 0.942921
O O4 0.828468 0.283897 0.921839
O O5 0.681747 0.000000 0.950535
O O6 0.741935 0.259613 0.000000
O O7 0.000000 0.500000 0.823516
O O8 0.000000 0.802334 0.853615
O O9 0.000000 0.000000 0.582487
#
# Coordination Sequence:
#
# PCOD8315803 Si02
#       4
#     8  16   8   8
#     4   9  20  39  58  76 102 137 176 217 266 328
#     4   8  14  26  44  68 102 139 172 209 255 306
#     4  10  22  37  55  77 102 138 174 211 270 326
#     4  10  19  28  46  78 102 126 166 220 262 304
#
# _framework density 20.399141
#
# number of rings (size 3 to 8) (size 9 to 14) (size 15 to 20)
#    0.000    3.000    0.000    1.800    2.800    4.000 
#    0.000    0.000    0.000    2.400    0.000    2.800 
#    0.000    0.000    0.000    0.000    0.000    0.000 
#
# Total GULP energy -495725.280423 kJ/mol
# GULP energy per Si atom -12393.132011 kJ/mol
# Density = 2.035271 g / cm^3
# Si number density = 20.399141 Si / 1000 Ang^3
#
#
#
# Elastic Constant Matrix: (Units=GPa)
#
#
# Indices 1 2 3 4 5 6 
#
# 1 92.8707 33.9340 62.7415 0.0000 0.0000 0.0000
# 2 33.9340 92.8696 62.7418 0.0000 0.0000 0.0000
# 3 62.7415 62.7418 148.6388 0.0000 0.0000 0.0000
# 4 0.0000 0.0000 0.0000 -8.2853 0.0000 0.0000
# 5 0.0000 0.0000 0.0000 0.0000 -8.2880 0.0000
# 6 0.0000 0.0000 0.0000 0.0000 0.0000 9.9563
#
#
#
# Elastic Compliance Matrix: (Units=1/GPa)
#
#
# Indices 1 2 3 4 5 6 
#
# 1 0.015255 -0.001712 -0.005717 0.000000 0.000000 0.000000
# 2 -0.001712 0.015256 -0.005717 0.000000 0.000000 0.000000
# 3 -0.005717 -0.005717 0.011554 0.000000 0.000000 0.000000
# 4 0.000000 0.000000 0.000000 -0.120695 0.000000 0.000000
# 5 0.000000 0.000000 0.000000 0.000000 -0.120656 0.000000
# 6 0.000000 0.000000 0.000000 0.000000 0.000000 0.100439
#
#
# Mechanical properties :
#
#
# Convention : Reuss Voigt Hill
#
# Bulk Modulus (GPa) = 63.39701 72.57928 67.98815
# Shear Modulus (GPa) = -74.29607 10.34071 -31.97768
#
# Velocity S-wave (km/s) = -6.04154 2.25393 -3.96359
# Velocity P-wave (km/s) = 4.18584 6.51386 3.52910
#
# Compressibility (1/GPa) = 0.01577361
#
# Stress axis : x y z
#
# Youngs Moduli (GPa) = 65.55098 65.54962 86.55075
#
# Poissons Ratio (x) = 0.11222 0.49478
# Poissons Ratio (y) = 0.11223 0.49480
# Poissons Ratio (z) = 0.37474 0.37474
#
# Static dielectric constant tensor:
#      x y z
#    x 3.811950 0.000000 0.000000 
#    y 0.000000 3.811960 0.000000 
#    z 0.000000 0.000000 3.418800 
# 
# 
# High freq. dielectric constant tensor:
#      x y z
#    x 1.789740 0.000000 0.000000 
#    y 0.000000 1.789740 0.000000 
#    z 0.000000 0.000000 1.777590 
# 
# From -- ./inp_files/11767.got.cif
#   From: 2010.03.12/outbox.cif.g09.slc.cpg/sg131_6_cif.got.tgz:11767.got - 2010.04.06 17:36:35.
