data_PCOD8315652
_publ_section_title
;
Structure prediction by ZEFSAII (Michael W. Deem and Ramdas Pophale) SiO2 
 PCOD8315652
Probable space group: P 42/M M C
;
_chemical_formula_sum "Si O2"
_cell_formula_units_Z 128
_cell_length_a 21.591314
_cell_length_b 21.591314
_cell_length_c 17.523411
_cell_angle_alpha 90.000000
_cell_angle_beta 90.000000
_cell_angle_gamma 90.000000
_cell_volume 8169.148558
_symmetry_space_group_name_H-M "P 42/M M C"
_symmetry_group_IT_number 131
_symmetry_cell_setting 'tetragonal'
loop_
_space_group_symop_operation_xyz
x,y,z
-x,-y,z
-y,x,1/2+z
y,-x,1/2+z
-x,y,-z
x,-y,-z
y,x,1/2-z
-y,-x,1/2-z
-x,-y,-z
x,y,-z
y,-x,1/2-z
-y,x,1/2-z
x,-y,z
-x,y,z
-y,-x,1/2+z
y,x,1/2+z
loop_
_atom_site_type_symbol
_atom_site_label
_atom_site_fract_x
_atom_site_fract_y
_atom_site_fract_z
Si Si1 0.929467 0.845869 0.212765
Si Si2 0.571244 0.927974 0.659459
Si Si3 0.329652 0.229960 0.264477
Si Si4 0.845426 0.429785 0.306716
Si Si5 0.658495 0.167170 0.415109
Si Si6 0.071370 0.358269 0.411316
Si Si7 0.867379 0.251958 0.318927
Si Si8 0.198578 0.155595 0.414173
O O1 0.911983 0.911983 0.250000
O O2 0.910011 0.796347 0.276043
O O3 0.897530 0.836257 0.131673
O O4 0.000000 0.841768 0.194175
O O5 0.500000 0.922046 0.633015
O O6 0.581041 0.896771 0.741566
O O7 0.614096 0.891691 0.599545
O O8 0.591306 0.000000 0.663879
O O9 0.297097 0.297097 0.250000
O O10 0.389117 0.216973 0.209508
O O11 0.350916 0.222532 0.353051
O O12 0.283273 0.173551 0.247037
O O13 0.822515 0.500000 0.312219
O O14 0.880607 0.411574 0.384826
O O15 0.643614 0.193442 0.500000
O O16 0.728491 0.143455 0.411683
O O17 0.082937 0.345094 0.500000
O O18 0.086689 0.297213 0.363191
O O19 0.000000 0.377946 0.396725
O O20 0.818698 0.222056 0.377977
O O21 0.173149 0.154110 0.500000
#
# Coordination Sequence:
#
# PCOD8315652 Si02
#       8
#    16  16  16  16  16  16  16  16
#     4  10  20  33  49  65  82 108 140 175 223 280
#     4   9  18  32  47  62  86 126 166 187 207 253
#     4  10  16  31  50  68  87 117 152 184 218 263
#     4   9  19  32  47  66  92 122 156 192 228 266
#     4  10  19  29  43  66  92 114 141 183 225 257
#     4  10  20  30  44  67  91 119 157 198 235 271
#     4  10  17  32  49  67  85 113 148 187 228 272
#     4  10  19  31  47  68  93 112 133 177 235 284
#
# _framework density 15.668706999999999
#
# number of rings (size 3 to 8) (size 9 to 14) (size 15 to 20)
#    0.000    2.250    2.500    1.500    0.000    2.375 
#    0.000    2.500    0.000    3.375    0.000    3.500 
#    0.000    0.250    0.000    0.000    0.000    0.000 
#
# Total GULP energy -1586618.089614 kJ/mol
# GULP energy per Si atom -12395.453825 kJ/mol
# Density = 1.563304 g / cm^3
# Si number density = 15.668707 Si / 1000 Ang^3
#
#
#
# Elastic Constant Matrix: (Units=GPa)
#
#
# Indices 1 2 3 4 5 6 
#
# 1 67.3827 27.6635 17.7981 0.0000 0.0000 0.0000
# 2 27.6635 67.3827 17.7981 0.0000 0.0000 0.0000
# 3 17.7981 17.7981 87.8818 0.0000 0.0000 0.0000
# 4 0.0000 0.0000 0.0000 13.9795 0.0000 0.0000
# 5 0.0000 0.0000 0.0000 0.0000 13.9795 0.0000
# 6 0.0000 0.0000 0.0000 0.0000 0.0000 21.9777
#
#
#
# Elastic Compliance Matrix: (Units=1/GPa)
#
#
# Indices 1 2 3 4 5 6 
#
# 1 0.018281 -0.006896 -0.002306 0.000000 0.000000 0.000000
# 2 -0.006896 0.018281 -0.002306 0.000000 0.000000 0.000000
# 3 -0.002306 -0.002306 0.012313 0.000000 0.000000 0.000000
# 4 0.000000 0.000000 0.000000 0.071533 0.000000 0.000000
# 5 0.000000 0.000000 0.000000 0.000000 0.071533 0.000000
# 6 0.000000 0.000000 0.000000 0.000000 0.000000 0.045501
#
#
# Mechanical properties :
#
#
# Convention : Reuss Voigt Hill
#
# Bulk Modulus (GPa) = 38.67042 38.79630 38.73336
# Shear Modulus (GPa) = 18.58212 20.61319 19.59765
#
# Velocity S-wave (km/s) = 3.44748 3.63101 3.54043
# Velocity P-wave (km/s) = 6.37028 6.51099 6.44102
#
# Compressibility (1/GPa) = 0.02585956
#
# Stress axis : x y z
#
# Youngs Moduli (GPa) = 54.70242 54.70242 81.21616
#
# Poissons Ratio (x) = 0.37723 0.18726
# Poissons Ratio (y) = 0.37723 0.18726
# Poissons Ratio (z) = 0.12613 0.12613
#
# Static dielectric constant tensor:
#      x y z
#    x 2.922940 0.000000 0.000000 
#    y 0.000000 2.922940 0.000000 
#    z 0.000000 0.000000 3.184070 
# 
# 
# High freq. dielectric constant tensor:
#      x y z
#    x 1.578660 0.000000 0.000000 
#    y 0.000000 1.578660 0.000000 
#    z 0.000000 0.000000 1.611950 
# 
# From -- ./inp_files/8438.got.cif
#   From: 2010.03.12/outbox.cif.g09.slc.cpg/sg131_5_cif.got.tgz:8438.got - 2010.04.06 17:36:35.
