data_PCOD8315562
_publ_section_title
;
Structure prediction by ZEFSAII (Michael W. Deem and Ramdas Pophale) SiO2 
 PCOD8315562
Probable space group: P 4/N C C
;
_chemical_formula_sum "Si O2"
_cell_formula_units_Z 112
_cell_length_a 15.429713
_cell_length_b 15.429713
_cell_length_c 23.602146
_cell_angle_alpha 90.000000
_cell_angle_beta 90.000000
_cell_angle_gamma 90.000000
_cell_volume 5619.105532
_symmetry_space_group_name_H-M "P 4/N C C"
_symmetry_group_IT_number 130
_symmetry_cell_setting 'tetragonal'
loop_
_space_group_symop_operation_xyz
x,y,z
1/2-y,x,z
1/2-x,1/2-y,z
y,1/2-x,z
1/2+x,-y,1/2-z
-x,1/2+y,1/2-z
1/2+y,1/2+x,1/2-z
-y,-x,1/2-z
-x,-y,-z
1/2+y,-x,-z
1/2+x,1/2+y,-z
-y,1/2+x,-z
1/2-x,y,1/2+z
x,1/2-y,1/2+z
1/2-y,1/2-x,1/2+z
y,x,1/2+z
loop_
_atom_site_type_symbol
_atom_site_label
_atom_site_fract_x
_atom_site_fract_y
_atom_site_fract_z
Si Si1 0.315550 0.868969 0.993448
Si Si2 0.805240 0.164643 0.184470
Si Si3 0.616446 0.450758 0.399204
Si Si4 0.821973 0.871430 0.241307
Si Si5 0.688260 0.624219 0.370471
Si Si6 0.985059 0.274298 0.386254
Si Si7 0.899525 0.939692 0.135958
O O1 0.304027 0.927725 0.938775
O O2 0.355132 0.776542 0.974878
O O3 0.382011 0.909729 0.038433
O O4 0.750000 0.250000 0.171433
O O5 0.835652 0.164349 0.250000
O O6 0.890746 0.168157 0.145307
O O7 0.747985 0.079517 0.166860
O O8 0.657227 0.544992 0.408106
O O9 0.518208 0.464646 0.377184
O O10 0.720432 0.866250 0.227725
O O11 0.831997 0.900323 0.305757
O O12 0.868542 0.942055 0.201704
O O13 0.788894 0.636478 0.384566
O O14 0.053680 0.349778 0.375401
O O15 0.042201 0.188354 0.400693
#
# Coordination Sequence:
#
# PCOD8315562 Si02
#       7
#    16  16  16  16  16  16  16
#     4  11  22  44  69  88 121 168 224 265 330 396
#     4  10  22  41  64  94 132 164 208 275 336 388
#     4  11  24  37  64  97 119 169 214 278 316 392
#     4   9  17  33  61  85 121 173 206 242 306 398
#     4   9  21  40  60  88 126 173 212 250 324 399
#     4  11  24  41  64  96 129 171 214 272 328 399
#     4  11  22  38  60  98 127 161 215 266 327 383
#
# _framework density 19.931998
#
# number of rings (size 3 to 8) (size 9 to 14) (size 15 to 20)
#    0.000    1.714    4.286    1.714    4.000    3.143 
#    2.571    1.429    0.000    0.000    0.000    0.000 
#    0.000    0.000    0.000    0.000    0.000    0.000 
#
# Total GULP energy -1388071.346296 kJ/mol
# GULP energy per Si atom -12393.494163 kJ/mol
# Density = 1.988663 g / cm^3
# Si number density = 19.931998 Si / 1000 Ang^3
#
#
#
# Elastic Constant Matrix: (Units=GPa)
#
#
# Indices 1 2 3 4 5 6 
#
# 1 95.7804 45.7001 20.4339 0.0000 0.0000 0.0000
# 2 45.7001 95.7804 20.4339 0.0000 0.0000 0.0000
# 3 20.4339 20.4339 68.3998 0.0000 0.0000 0.0000
# 4 0.0000 0.0000 0.0000 26.2196 0.0000 0.0000
# 5 0.0000 0.0000 0.0000 0.0000 26.2195 0.0000
# 6 0.0000 0.0000 0.0000 0.0000 0.0000 33.9067
#
#
#
# Elastic Compliance Matrix: (Units=1/GPa)
#
#
# Indices 1 2 3 4 5 6 
#
# 1 0.013852 -0.006116 -0.002311 0.000000 0.000000 0.000000
# 2 -0.006116 0.013852 -0.002311 0.000000 0.000000 0.000000
# 3 -0.002311 -0.002311 0.016001 0.000000 0.000000 0.000000
# 4 0.000000 0.000000 0.000000 0.038139 0.000000 0.000000
# 5 0.000000 0.000000 0.000000 0.000000 0.038139 0.000000
# 6 0.000000 0.000000 0.000000 0.000000 0.000000 0.029493
#
#
# Mechanical properties :
#
#
# Convention : Reuss Voigt Hill
#
# Bulk Modulus (GPa) = 44.98803 48.12182 46.55492
# Shear Modulus (GPa) = 28.03297 28.82868 28.43082
#
# Velocity S-wave (km/s) = 3.75431 3.80722 3.78086
# Velocity P-wave (km/s) = 6.43528 6.59712 6.51670
#
# Compressibility (1/GPa) = 0.02222814
#
# Stress axis : x y z
#
# Youngs Moduli (GPa) = 72.19288 72.19288 62.49732
#
# Poissons Ratio (x) = 0.44154 0.14443
# Poissons Ratio (y) = 0.44154 0.14443
# Poissons Ratio (z) = 0.16683 0.16684
#
# Static dielectric constant tensor:
#      x y z
#    x 3.683500 0.000000 0.000000 
#    y 0.000000 3.683500 0.000000 
#    z 0.000000 0.000000 3.470130 
# 
# 
# High freq. dielectric constant tensor:
#      x y z
#    x 1.779580 0.000000 0.000000 
#    y 0.000000 1.779580 0.000000 
#    z 0.000000 0.000000 1.761490 
# 
# From -- ./inp_files/4288.got.cif
#   From: 2010.03.12/outbox.cif.g09.slc.cpg/sg130_3_cif.got.tgz:4288.got - 2010.04.06 17:30:23.
