data_PCOD8315219
_publ_section_title
;
Structure prediction by ZEFSAII (Michael W. Deem and Ramdas Pophale) SiO2 
 PCOD8315219
Probable space group: P 4/N M M
;
_chemical_formula_sum "Si O2"
_cell_formula_units_Z 112
_cell_length_a 13.722333
_cell_length_b 13.722333
_cell_length_c 36.344355
_cell_angle_alpha 90.000000
_cell_angle_beta 90.000000
_cell_angle_gamma 90.000000
_cell_volume 6843.730108
_symmetry_space_group_name_H-M "P 4/N M M"
_symmetry_group_IT_number 129
_symmetry_cell_setting 'tetragonal'
loop_
_space_group_symop_operation_xyz
x,y,z
1/2-y,x,z
1/2-x,1/2-y,z
y,1/2-x,z
1/2+x,-y,-z
-x,1/2+y,-z
1/2+y,1/2+x,-z
-y,-x,-z
-x,-y,-z
1/2+y,-x,-z
1/2+x,1/2+y,-z
-y,1/2+x,-z
1/2-x,y,z
x,1/2-y,z
1/2-y,1/2-x,z
y,x,z
loop_
_atom_site_type_symbol
_atom_site_label
_atom_site_fract_x
_atom_site_fract_y
_atom_site_fract_z
Si Si1 0.976950 0.365436 0.811672
Si Si2 0.137846 0.520963 0.527616
Si Si3 0.361580 0.517018 0.610107
Si Si4 0.134695 0.976319 0.248902
Si Si5 0.640177 0.135994 0.320672
Si Si6 0.633859 0.358841 0.117646
Si Si7 0.642139 0.133568 0.038704
O O1 0.994762 0.250000 0.808788
O O2 0.898032 0.397982 0.781496
O O3 0.934444 0.398040 0.851147
O O4 0.079694 0.420307 0.805560
O O5 0.250000 0.494586 0.520861
O O6 0.076856 0.423145 0.519671
O O7 0.119851 0.559857 0.569212
O O8 0.106401 0.606401 0.500000
O O9 0.250000 0.491315 0.616138
O O10 0.415894 0.415894 0.615616
O O11 0.398252 0.592889 0.640769
O O12 0.250000 0.995018 0.245610
O O13 0.104305 0.931763 0.288168
O O14 0.078796 0.078796 0.243482
O O15 0.750000 0.100005 0.311442
O O16 0.639075 0.250000 0.325917
O O17 0.750000 0.354289 0.114792
O O18 0.594952 0.250000 0.127263
O O19 0.589983 0.393806 0.077657
O O20 0.750000 0.088599 0.040629
O O21 0.647326 0.250000 0.035985
O O22 0.593755 0.093755 0.000000
#
# Coordination Sequence:
#
# PCOD8315219 Si02
#       7
#    16  16  16  16  16  16  16
#     4  10  20  32  46  64  86 114 148 185 224 265
#     4   9  18  31  46  66  91 119 152 189 229 272
#     4   9  17  29  45  65  90 118 147 181 220 262
#     4  10  20  33  50  71  93 118 147 179 217 260
#     4   9  17  29  46  68  92 118 149 182 214 251
#     4   8  13  22  38  59  81 106 137 173 213 258
#     4   7   9  14  27  50  78 104 130 162 204 254
#
# _framework density 16.365342999999999
#
# number of rings (size 3 to 8) (size 9 to 14) (size 15 to 20)
#    0.000    3.143    0.000    2.571    0.000    2.714 
#    0.000    2.857    0.000    0.429    0.000    2.000 
#    0.000    3.429    0.000    0.000    0.000   29.429 
#
# Total GULP energy -1387565.201151 kJ/mol
# GULP energy per Si atom -12388.975010 kJ/mol
# Density = 1.632810 g / cm^3
# Si number density = 16.365343 Si / 1000 Ang^3
#
#
#
# Elastic Constant Matrix: (Units=GPa)
#
#
# Indices 1 2 3 4 5 6 
#
# 1 57.5108 29.8132 43.6616 0.0000 0.0000 0.0000
# 2 29.8132 57.5108 43.6616 0.0000 0.0000 0.0000
# 3 43.6616 43.6616 132.8773 0.0000 0.0000 0.0000
# 4 0.0000 0.0000 0.0000 15.5699 0.0000 0.0000
# 5 0.0000 0.0000 0.0000 0.0000 15.5699 0.0000
# 6 0.0000 0.0000 0.0000 0.0000 0.0000 14.8651
#
#
#
# Elastic Compliance Matrix: (Units=1/GPa)
#
#
# Indices 1 2 3 4 5 6 
#
# 1 0.026580 -0.009524 -0.005604 0.000000 0.000000 0.000000
# 2 -0.009524 0.026580 -0.005604 0.000000 0.000000 0.000000
# 3 -0.005604 -0.005604 0.011209 0.000000 0.000000 0.000000
# 4 0.000000 0.000000 0.000000 0.064227 0.000000 0.000000
# 5 0.000000 0.000000 0.000000 0.000000 0.064227 0.000000
# 6 0.000000 0.000000 0.000000 0.000000 0.000000 0.067272
#
#
# Mechanical properties :
#
#
# Convention : Reuss Voigt Hill
#
# Bulk Modulus (GPa) = 43.66200 53.57462 48.61831
# Shear Modulus (GPa) = 16.17109 17.91847 17.04478
#
# Velocity S-wave (km/s) = 3.14686 3.31252 3.23076
# Velocity P-wave (km/s) = 6.31990 6.88753 6.60981
#
# Compressibility (1/GPa) = 0.02290321
#
# Stress axis : x y z
#
# Youngs Moduli (GPa) = 37.62220 37.62220 89.21612
#
# Poissons Ratio (x) = 0.35832 0.50000
# Poissons Ratio (y) = 0.35832 0.50000
# Poissons Ratio (z) = 0.21085 0.21085
#
# Static dielectric constant tensor:
#      x y z
#    x 2.806660 0.000000 0.000000 
#    y 0.000000 2.806660 0.000000 
#    z 0.000000 0.000000 3.599630 
# 
# 
# High freq. dielectric constant tensor:
#      x y z
#    x 1.599130 0.000000 0.000000 
#    y 0.000000 1.599130 0.000000 
#    z 0.000000 0.000000 1.655870 
# 
# From -- ./inp_files/7902.got.cif
#   From: 2010.03.12/outbox.cif.g09.slc.cpg/sg129_4_cif.got.tgz:7902.got - 2010.04.06 17:19:44.
