data_PCOD8315457
_publ_section_title
;
Structure prediction by ZEFSAII (Michael W. Deem and Ramdas Pophale) SiO2 
 PCOD8315457
Probable space group: P 4/N M M
;
_chemical_formula_sum "Si O2"
_cell_formula_units_Z 112
_cell_length_a 14.180305
_cell_length_b 14.180305
_cell_length_c 34.381951
_cell_angle_alpha 90.000000
_cell_angle_beta 90.000000
_cell_angle_gamma 90.000000
_cell_volume 6913.558804
_symmetry_space_group_name_H-M "P 4/N M M"
_symmetry_group_IT_number 129
_symmetry_cell_setting 'tetragonal'
loop_
_space_group_symop_operation_xyz
x,y,z
1/2-y,x,z
1/2-x,1/2-y,z
y,1/2-x,z
1/2+x,-y,-z
-x,1/2+y,-z
1/2+y,1/2+x,-z
-y,-x,-z
-x,-y,-z
1/2+y,-x,-z
1/2+x,1/2+y,-z
-y,1/2+x,-z
1/2-x,y,z
x,1/2-y,z
1/2-y,1/2-x,z
y,x,z
loop_
_atom_site_type_symbol
_atom_site_label
_atom_site_fract_x
_atom_site_fract_y
_atom_site_fract_z
Si Si1 0.513139 0.359411 0.338721
Si Si2 0.642427 0.491566 0.113839
Si Si3 0.642125 0.489772 0.477402
Si Si4 0.858069 0.489474 0.386543
Si Si5 0.141351 0.641326 0.181959
Si Si6 0.140419 0.513452 0.974820
Si Si7 0.142394 0.991491 0.250118
O O1 0.495669 0.250000 0.349242
O O2 0.416180 0.416180 0.347089
O O3 0.598182 0.399799 0.364523
O O4 0.545221 0.371972 0.294021
O O5 0.750000 0.516890 0.122113
O O6 0.587198 0.587198 0.121630
O O7 0.605469 0.412118 0.143471
O O8 0.628090 0.454991 0.069931
O O9 0.599508 0.400493 0.500000
O O10 0.750000 0.505351 0.490422
O O11 0.584661 0.584661 0.488074
O O12 0.634855 0.467083 0.431987
O O13 0.750000 0.504398 0.373515
O O14 0.915511 0.584490 0.375874
O O15 0.250000 0.621046 0.173634
O O16 0.121224 0.750000 0.190283
O O17 0.105473 0.587884 0.220451
O O18 0.250000 0.496330 0.985372
O O19 0.083410 0.416591 0.983339
O O20 0.099271 0.599271 0.000000
O O21 0.250000 0.016850 0.241901
O O22 0.087144 0.087144 0.242371
#
# Coordination Sequence:
#
# PCOD8315457 Si02
#       7
#    16  16  16  16  16  16  16
#     4   9  18  31  46  66  91 118 150 186 223 265
#     4   9  17  29  45  64  86 112 141 174 212 253
#     4   9  18  32  49  69  93 120 150 185 223 263
#     4   9  18  32  49  69  92 118 149 185 224 265
#     4   9  17  28  42  62  87 113 142 175 211 253
#     4   9  18  31  46  66  90 115 146 182 219 261
#     4   9  17  29  45  64  86 113 144 178 216 256
#
# _framework density 16.200050000000001
#
# number of rings (size 3 to 8) (size 9 to 14) (size 15 to 20)
#    0.000    3.000    0.000    0.429    0.000    3.143 
#    0.000    8.571    0.000    0.000    0.000    4.000 
#    0.000    6.857    0.000    0.000    0.000    0.000 
#
# Total GULP energy -1388673.111113 kJ/mol
# GULP energy per Si atom -12398.867064 kJ/mol
# Density = 1.616318 g / cm^3
# Si number density = 16.200050 Si / 1000 Ang^3
#
#
#
# Elastic Constant Matrix: (Units=GPa)
#
#
# Indices 1 2 3 4 5 6 
#
# 1 103.8456 55.8400 53.6709 0.0000 0.0000 0.0000
# 2 55.8400 103.8469 53.6709 0.0000 0.0000 0.0000
# 3 53.6709 53.6709 68.1930 0.0000 0.0000 0.0000
# 4 0.0000 0.0000 0.0000 28.1076 0.0000 0.0000
# 5 0.0000 0.0000 0.0000 0.0000 28.1075 0.0000
# 6 0.0000 0.0000 0.0000 0.0000 0.0000 20.1373
#
#
#
# Elastic Compliance Matrix: (Units=1/GPa)
#
#
# Indices 1 2 3 4 5 6 
#
# 1 0.017064 -0.003767 -0.010466 0.000000 0.000000 0.000000
# 2 -0.003767 0.017064 -0.010465 0.000000 0.000000 0.000000
# 3 -0.010466 -0.010465 0.031138 0.000000 0.000000 0.000000
# 4 0.000000 0.000000 0.000000 0.035578 0.000000 0.000000
# 5 0.000000 0.000000 0.000000 0.000000 0.035578 0.000000
# 6 0.000000 0.000000 0.000000 0.000000 0.000000 0.049659
#
#
# Mechanical properties :
#
#
# Convention : Reuss Voigt Hill
#
# Bulk Modulus (GPa) = 63.01067 66.91658 64.96363
# Shear Modulus (GPa) = 20.76707 22.78405 21.77556
#
# Velocity S-wave (km/s) = 3.58427 3.75429 3.67026
# Velocity P-wave (km/s) = 7.49060 7.75816 7.62555
#
# Compressibility (1/GPa) = 0.01587033
#
# Stress axis : x y z
#
# Youngs Moduli (GPa) = 58.60244 58.60381 32.11519
#
# Poissons Ratio (x) = 0.22074 0.33611
# Poissons Ratio (y) = 0.22074 0.33610
# Poissons Ratio (z) = 0.61331 0.61331
#
# Static dielectric constant tensor:
#      x y z
#    x 3.071620 0.000000 0.000000 
#    y 0.000000 3.071610 0.000000 
#    z 0.000000 0.000000 3.188310 
# 
# 
# High freq. dielectric constant tensor:
#      x y z
#    x 1.619000 0.000000 0.000000 
#    y 0.000000 1.619000 0.000000 
#    z 0.000000 0.000000 1.625360 
# 
# From -- ./inp_files/7569.got.cif
#   From: 2010.03.12/outbox.cif.g09.slc.cpg/sg129_4_cif.got.tgz:7569.got - 2010.04.06 17:19:44.
