data_PCOD8315106
_publ_section_title
;
Structure prediction by ZEFSAII (Michael W. Deem and Ramdas Pophale) SiO2 
 PCOD8315106
Probable space group: P 4/N M M
;
_chemical_formula_sum "Si O2"
_cell_formula_units_Z 96
_cell_length_a 18.244043
_cell_length_b 18.244043
_cell_length_c 17.139062
_cell_angle_alpha 90.000000
_cell_angle_beta 90.000000
_cell_angle_gamma 90.000000
_cell_volume 5704.652891
_symmetry_space_group_name_H-M "P 4/N M M"
_symmetry_group_IT_number 129
_symmetry_cell_setting 'tetragonal'
loop_
_space_group_symop_operation_xyz
x,y,z
1/2-y,x,z
1/2-x,1/2-y,z
y,1/2-x,z
1/2+x,-y,-z
-x,1/2+y,-z
1/2+y,1/2+x,-z
-y,-x,-z
-x,-y,-z
1/2+y,-x,-z
1/2+x,1/2+y,-z
-y,1/2+x,-z
1/2-x,y,z
x,1/2-y,z
1/2-y,1/2-x,z
y,x,z
loop_
_atom_site_type_symbol
_atom_site_label
_atom_site_fract_x
_atom_site_fract_y
_atom_site_fract_z
Si Si1 0.046424 0.166351 0.983058
Si Si2 0.589720 0.332944 0.430349
Si Si3 0.666433 0.099199 0.927843
Si Si4 0.455931 0.835362 0.170197
Si Si5 0.668097 0.947930 0.471213
Si Si6 0.526241 0.409251 0.668140
O O1 0.071422 0.250000 0.995072
O O2 0.115589 0.115589 0.000248
O O3 0.017902 0.154503 0.895274
O O4 0.982580 0.145435 0.044000
O O5 0.644888 0.355113 0.500000
O O6 0.609434 0.250000 0.403154
O O7 0.507432 0.336976 0.461039
O O8 0.592627 0.388304 0.357041
O O9 0.750000 0.103331 0.900650
O O10 0.617859 0.122561 0.854561
O O11 0.654556 0.154556 0.000000
O O12 0.438019 0.750000 0.183891
O O13 0.484641 0.872892 0.248124
O O14 0.750000 0.919678 0.458612
O O15 0.620346 0.879655 0.499155
O O16 0.640456 0.980575 0.390410
O O17 0.491637 0.491637 0.668232
#
# Coordination Sequence:
#
# PCOD8315106 Si02
#       6
#    16  16  16  16  16  16
#     4   9  18  32  49  69  92 118 151 190 230 273
#     4   9  18  32  48  67  91 118 152 191 230 275
#     4   9  18  31  47  67  91 120 152 185 224 271
#     4  10  20  31  45  68  95 122 153 188 225 268
#     4   9  17  30  48  68  91 118 148 186 228 271
#     4  10  19  31  48  67  90 124 159 189 226 271
#
# _framework density 16.828368000000001
#
# number of rings (size 3 to 8) (size 9 to 14) (size 15 to 20)
#    0.000    2.667    0.000    3.000    0.000    8.667 
#    0.000    0.000    0.000    0.000    0.000    2.333 
#    0.000    0.000    0.000    8.667    0.000    0.667 
#
# Total GULP energy -1190287.823900 kJ/mol
# GULP energy per Si atom -12398.831499 kJ/mol
# Density = 1.679007 g / cm^3
# Si number density = 16.828368 Si / 1000 Ang^3
#
#
#
# Elastic Constant Matrix: (Units=GPa)
#
#
# Indices 1 2 3 4 5 6 
#
# 1 100.6455 58.1158 16.4738 0.0000 0.0000 0.0000
# 2 58.1158 100.6468 16.4740 0.0000 0.0000 0.0000
# 3 16.4738 16.4740 39.7362 0.0000 0.0000 0.0000
# 4 0.0000 0.0000 0.0000 15.3853 0.0000 0.0000
# 5 0.0000 0.0000 0.0000 0.0000 15.3854 0.0000
# 6 0.0000 0.0000 0.0000 0.0000 0.0000 22.9589
#
#
#
# Elastic Compliance Matrix: (Units=1/GPa)
#
#
# Indices 1 2 3 4 5 6 
#
# 1 0.015202 -0.008310 -0.002857 0.000000 0.000000 0.000000
# 2 -0.008310 0.015202 -0.002857 0.000000 0.000000 0.000000
# 3 -0.002857 -0.002857 0.027535 0.000000 0.000000 0.000000
# 4 0.000000 0.000000 0.000000 0.064997 0.000000 0.000000
# 5 0.000000 0.000000 0.000000 0.000000 0.064997 0.000000
# 6 0.000000 0.000000 0.000000 0.000000 0.000000 0.043556
#
#
# Mechanical properties :
#
#
# Convention : Reuss Voigt Hill
#
# Bulk Modulus (GPa) = 33.45627 47.01729 40.23678
# Shear Modulus (GPa) = 18.55274 20.74359 19.64817
#
# Velocity S-wave (km/s) = 3.32395 3.51473 3.42067
# Velocity P-wave (km/s) = 5.88689 6.66866 6.28994
#
# Compressibility (1/GPa) = 0.02988976
#
# Stress axis : x y z
#
# Youngs Moduli (GPa) = 65.77969 65.78056 36.31735
#
# Poissons Ratio (x) = 0.54667 0.10376
# Poissons Ratio (y) = 0.54666 0.10377
# Poissons Ratio (z) = 0.18794 0.18795
#
# Static dielectric constant tensor:
#      x y z
#    x 3.210010 0.000000 0.000000 
#    y 0.000000 3.210010 0.000000 
#    z 0.000000 0.000000 2.931890 
# 
# 
# High freq. dielectric constant tensor:
#      x y z
#    x 1.648450 0.000000 0.000000 
#    y 0.000000 1.648450 0.000000 
#    z 0.000000 0.000000 1.629030 
# 
# From -- ./inp_files/5647.got.cif
#   From: 2010.03.12/outbox.cif.g09.slc.cpg/sg129_3_cif.got.tgz:5647.got - 2010.04.06 17:19:44.
