data_PCOD8315501
_publ_section_title
;
Structure prediction by ZEFSAII (Michael W. Deem and Ramdas Pophale) SiO2 
 PCOD8315501
Probable space group: P 4/N C C
;
_chemical_formula_sum "Si O2"
_cell_formula_units_Z 96
_cell_length_a 23.533647
_cell_length_b 23.533647
_cell_length_c 9.233028
_cell_angle_alpha 90.000000
_cell_angle_beta 90.000000
_cell_angle_gamma 90.000000
_cell_volume 5113.551359
_symmetry_space_group_name_H-M "P 4/N C C"
_symmetry_group_IT_number 130
_symmetry_cell_setting 'tetragonal'
loop_
_space_group_symop_operation_xyz
x,y,z
1/2-y,x,z
1/2-x,1/2-y,z
y,1/2-x,z
1/2+x,-y,1/2-z
-x,1/2+y,1/2-z
1/2+y,1/2+x,1/2-z
-y,-x,1/2-z
-x,-y,-z
1/2+y,-x,-z
1/2+x,1/2+y,-z
-y,1/2+x,-z
1/2-x,y,1/2+z
x,1/2-y,1/2+z
1/2-y,1/2-x,1/2+z
y,x,1/2+z
loop_
_atom_site_type_symbol
_atom_site_label
_atom_site_fract_x
_atom_site_fract_y
_atom_site_fract_z
Si Si1 0.382922 0.179299 0.460965
Si Si2 0.484196 0.772259 0.277640
Si Si3 0.204651 0.106213 0.792036
Si Si4 0.820992 0.006789 0.568846
Si Si5 0.127054 0.841341 0.096356
Si Si6 0.291454 0.866508 0.347748
O O1 0.369649 0.196803 0.627763
O O2 0.339021 0.132736 0.405897
O O3 0.379103 0.232899 0.352808
O O4 0.445531 0.149044 0.446496
O O5 0.538219 0.805189 0.207893
O O6 0.491990 0.769837 0.450399
O O7 0.425088 0.803032 0.237877
O O8 0.484641 0.707050 0.226144
O O9 0.857909 0.063379 0.538564
O O10 0.129783 0.870217 0.250000
O O11 0.140220 0.774131 0.109453
O O12 0.173796 0.869788 0.995799
O O13 0.313667 0.813667 0.250000
#
# Coordination Sequence:
#
# PCOD8315501 Si02
#       6
#    16  16  16  16  16  16
#     4  10  20  36  58  85 114 143 178 218 264 316
#     4   9  19  34  55  76 103 143 183 219 259 316
#     4  10  20  36  57  86 113 144 178 217 265 314
#     4   9  19  35  54  76 104 141 185 219 259 316
#     4  11  23  34  51  79 106 143 180 225 274 326
#     4  11  21  36  53  75 108 142 181 221 276 325
#
# _framework density 18.773644999999998
#
# number of rings (size 3 to 8) (size 9 to 14) (size 15 to 20)
#    0.000    2.000    1.667    2.000    7.000    3.667 
#    0.000    1.667    0.000    2.000    0.000    0.000 
#    0.000    0.000    0.000    0.000    0.000    0.000 
#
# Total GULP energy -1189412.345156 kJ/mol
# GULP energy per Si atom -12389.711929 kJ/mol
# Density = 1.873092 g / cm^3
# Si number density = 18.773645 Si / 1000 Ang^3
#
#
#
# Elastic Constant Matrix: (Units=GPa)
#
#
# Indices 1 2 3 4 5 6 
#
# 1 59.3265 21.3382 -7.2689 0.0000 0.0000 0.0000
# 2 21.3382 59.3251 -7.2690 0.0000 0.0000 0.0000
# 3 -7.2689 -7.2690 57.8614 0.0000 0.0000 0.0000
# 4 0.0000 0.0000 0.0000 28.1059 0.0000 0.0000
# 5 0.0000 0.0000 0.0000 0.0000 28.1054 0.0000
# 6 0.0000 0.0000 0.0000 0.0000 0.0000 -0.3092
#
#
#
# Elastic Compliance Matrix: (Units=1/GPa)
#
#
# Indices 1 2 3 4 5 6 
#
# 1 0.019504 -0.006820 0.001593 0.000000 0.000000 0.000000
# 2 -0.006820 0.019505 0.001594 0.000000 0.000000 0.000000
# 3 0.001593 0.001594 0.017683 0.000000 0.000000 0.000000
# 4 0.000000 0.000000 0.000000 0.035580 0.000000 0.000000
# 5 0.000000 0.000000 0.000000 0.000000 0.035580 0.000000
# 6 0.000000 0.000000 0.000000 0.000000 0.000000 -3.234210
#
#
# Mechanical properties :
#
#
# Convention : Reuss Voigt Hill
#
# Bulk Modulus (GPa) = 20.23245 21.12375 20.67810
# Shear Modulus (GPa) = -1.62200 22.49460 10.43630
#
# Velocity S-wave (km/s) = -0.93051 3.46526 2.36031
# Velocity P-wave (km/s) = 3.10580 5.22369 4.29726
#
# Compressibility (1/GPa) = 0.04942556
#
# Stress axis : x y z
#
# Youngs Moduli (GPa) = 51.27123 51.27004 56.55139
#
# Poissons Ratio (x) = 0.34966 -0.09011
# Poissons Ratio (y) = 0.34967 -0.09012
# Poissons Ratio (z) = -0.08170 -0.08170
#
# Static dielectric constant tensor:
#      x y z
#    x 3.415280 0.000000 0.000000 
#    y 0.000000 3.415280 0.000000 
#    z 0.000000 0.000000 3.700920 
# 
# 
# High freq. dielectric constant tensor:
#      x y z
#    x 1.706510 0.000000 0.000000 
#    y 0.000000 1.706510 0.000000 
#    z 0.000000 0.000000 1.753770 
# 
# From -- ./inp_files/905.got.cif
#   From: 2010.03.12/outbox.cif.g09.slc.cpg/sg130_1_cif.got.tgz:905.got - 2010.04.06 17:30:23.
