data_PCOD8315965
_publ_section_title
;
Structure prediction by ZEFSAII (Michael W. Deem and Ramdas Pophale) SiO2 
 PCOD8315965
Probable space group: P 42/M M C
;
_chemical_formula_sum "Si O2"
_cell_formula_units_Z 120
_cell_length_a 27.678911
_cell_length_b 27.678911
_cell_length_c 8.806792
_cell_angle_alpha 90.000000
_cell_angle_beta 90.000000
_cell_angle_gamma 90.000000
_cell_volume 6747.078106
_symmetry_space_group_name_H-M "P 42/M M C"
_symmetry_group_IT_number 131
_symmetry_cell_setting 'tetragonal'
loop_
_space_group_symop_operation_xyz
x,y,z
-x,-y,z
-y,x,1/2+z
y,-x,1/2+z
-x,y,-z
x,-y,-z
y,x,1/2-z
-y,-x,1/2-z
-x,-y,-z
x,y,-z
y,-x,1/2-z
-y,x,1/2-z
x,-y,z
-x,y,z
-y,-x,1/2+z
y,x,1/2+z
loop_
_atom_site_type_symbol
_atom_site_label
_atom_site_fract_x
_atom_site_fract_y
_atom_site_fract_z
Si Si1 0.444684 0.726398 0.178434
Si Si2 0.798285 0.868868 0.823060
Si Si3 0.371718 0.555858 0.821961
Si Si4 0.213047 0.720323 0.325272
Si Si5 0.056546 0.271017 0.823433
Si Si6 0.813679 0.618010 0.320130
Si Si7 0.078812 0.624753 0.680151
Si Si8 0.000000 0.556344 0.819891
O O1 0.500000 0.732440 0.222863
O O2 0.423139 0.678756 0.257961
O O3 0.419711 0.774704 0.244191
O O4 0.436404 0.720642 0.000000
O O5 0.848693 0.848693 0.750000
O O6 0.757635 0.829347 0.794498
O O7 0.776588 0.916916 0.744591
O O8 0.807685 0.879256 0.000000
O O9 0.416376 0.583625 0.750000
O O10 0.377391 0.500000 0.775274
O O11 0.372482 0.563521 0.000000
O O12 0.262458 0.737542 0.250000
O O13 0.223929 0.713323 0.500000
O O14 0.198264 0.670084 0.248807
O O15 0.070635 0.320972 0.740542
O O16 0.000000 0.261617 0.800102
O O17 0.070087 0.276155 0.000000
O O18 0.809949 0.620283 0.500000
O O19 0.868221 0.605217 0.274649
O O20 0.070254 0.626523 0.500000
O O21 0.045859 0.584300 0.755222
O O22 0.000000 0.500000 0.768127
O O23 0.000000 0.560381 0.000000
#
# Coordination Sequence:
#
# PCOD8315965 Si02
#       8
#    16  16  16  16  16  16  16   8
#     4   9  18  34  55  75  99 133 168 207 258 312
#     4  10  19  33  53  77 109 148 187 229 278 329
#     4  10  21  37  57  81 109 138 169 208 255 312
#     4   9  17  30  45  67  99 132 167 209 257 307
#     4  11  22  35  54  81 115 152 191 233 284 340
#     4   9  18  33  52  76 104 133 173 225 268 314
#     4  11  21  36  58  81 106 137 183 236 284 341
#     4  11  25  43  57  75 107 141 177 231 298 357
#
# _framework density 17.785478000000001
#
# number of rings (size 3 to 8) (size 9 to 14) (size 15 to 20)
#    0.000    2.067    2.000    1.800    0.000    3.867 
#    0.000    5.333    0.000    1.600    0.000    0.000 
#    0.000    0.267    0.000    2.800    0.000    1.200 
#
# Total GULP energy -1487560.088834 kJ/mol
# GULP energy per Si atom -12396.334074 kJ/mol
# Density = 1.774500 g / cm^3
# Si number density = 17.785478 Si / 1000 Ang^3
#
#
#
# Elastic Constant Matrix: (Units=GPa)
#
#
# Indices 1 2 3 4 5 6 
#
# 1 132.5035 40.5017 45.1391 0.0000 0.0000 0.0000
# 2 40.5017 132.4571 45.2161 0.0000 0.0000 0.0000
# 3 45.1391 45.2161 48.5211 0.0000 0.0000 0.0000
# 4 0.0000 0.0000 0.0000 24.1524 0.0000 0.0000
# 5 0.0000 0.0000 0.0000 0.0000 24.1523 0.0000
# 6 0.0000 0.0000 0.0000 0.0000 0.0000 12.0385
#
#
#
# Elastic Compliance Matrix: (Units=1/GPa)
#
#
# Indices 1 2 3 4 5 6 
#
# 1 0.011052 0.000191 -0.010460 0.000000 0.000000 0.000000
# 2 0.000191 0.011075 -0.010498 0.000000 0.000000 0.000000
# 3 -0.010460 -0.010498 0.040123 0.000000 0.000000 0.000000
# 4 0.000000 0.000000 0.000000 0.041404 0.000000 0.000000
# 5 0.000000 0.000000 0.000000 0.000000 0.041404 0.000000
# 6 0.000000 0.000000 0.000000 0.000000 0.000000 0.083067
#
#
# Mechanical properties :
#
#
# Convention : Reuss Voigt Hill
#
# Bulk Modulus (GPa) = 48.27077 63.91063 56.09070
# Shear Modulus (GPa) = 18.07903 24.24365 21.16134
#
# Velocity S-wave (km/s) = 3.19173 3.69604 3.45310
# Velocity P-wave (km/s) = 6.38610 7.36386 6.89234
#
# Compressibility (1/GPa) = 0.02071647
#
# Stress axis : x y z
#
# Youngs Moduli (GPa) = 90.48362 90.29393 24.92308
#
# Poissons Ratio (x) = -0.01727 0.26069
# Poissons Ratio (y) = -0.01730 0.26165
# Poissons Ratio (z) = 0.94642 0.94795
#
# Static dielectric constant tensor:
#      x y z
#    x 3.452360 0.000000 0.000000 
#    y 0.000000 3.452360 0.000000 
#    z 0.000000 0.000000 3.261390 
# 
# 
# High freq. dielectric constant tensor:
#      x y z
#    x 1.683370 0.000000 0.000000 
#    y 0.000000 1.683370 0.000000 
#    z 0.000000 0.000000 1.684770 
# 
# From -- ./inp_files/2643.got.cif
#   From: 2010.03.12/outbox.cif.g09.slc.cpg/sg131_2_cif.got.tgz:2643.got - 2010.04.06 17:36:35.
