data_PCOD8315022
_publ_section_title
;
Structure prediction by ZEFSAII (Michael W. Deem and Ramdas Pophale) SiO2 
 PCOD8315022
Probable space group: P 4/N M M
;
_chemical_formula_sum "Si O2"
_cell_formula_units_Z 104
_cell_length_a 19.435769
_cell_length_b 19.435769
_cell_length_c 17.390465
_cell_angle_alpha 90.000000
_cell_angle_beta 90.000000
_cell_angle_gamma 90.000000
_cell_volume 6569.232791
_symmetry_space_group_name_H-M "P 4/N M M"
_symmetry_group_IT_number 129
_symmetry_cell_setting 'tetragonal'
loop_
_space_group_symop_operation_xyz
x,y,z
1/2-y,x,z
1/2-x,1/2-y,z
y,1/2-x,z
1/2+x,-y,-z
-x,1/2+y,-z
1/2+y,1/2+x,-z
-y,-x,-z
-x,-y,-z
1/2+y,-x,-z
1/2+x,1/2+y,-z
-y,1/2+x,-z
1/2-x,y,z
x,1/2-y,z
1/2-y,1/2-x,z
y,x,z
loop_
_atom_site_type_symbol
_atom_site_label
_atom_site_fract_x
_atom_site_fract_y
_atom_site_fract_z
Si Si1 0.410762 0.873674 0.416711
Si Si2 0.174424 0.826968 0.713060
Si Si3 0.169463 0.830538 0.000000
Si Si4 0.868645 0.979489 0.631694
Si Si5 0.331207 0.587145 0.148013
Si Si6 0.172645 0.441428 0.203077
Si Si7 0.671890 0.941851 0.466900
O O1 0.375421 0.875421 0.500000
O O2 0.373539 0.817749 0.363582
O O3 0.492215 0.859645 0.422873
O O4 0.393840 0.942967 0.371227
O O5 0.250000 0.822543 0.750286
O O6 0.148482 0.750000 0.690132
O O7 0.125017 0.861900 0.776791
O O8 0.141720 0.876301 0.070955
O O9 0.250000 0.843693 0.982700
O O10 0.938998 0.938998 0.633533
O O11 0.824957 0.964755 0.707974
O O12 0.824321 0.957351 0.557729
O O13 0.250000 0.597297 0.151862
O O14 0.351064 0.506283 0.150675
O O15 0.250000 0.418149 0.180967
O O16 0.121712 0.378289 0.187083
O O17 0.750000 0.927176 0.438796
O O18 0.624306 0.875695 0.448541
#
# Coordination Sequence:
#
# PCOD8315022 Si02
#       7
#    16  16   8  16  16  16  16
#     4  10  19  30  45  63  89 119 155 191 230 274
#     4  10  19  29  42  63  92 124 156 190 228 273
#     4   9  16  28  49  74  96 120 153 188 220 263
#     4   9  17  30  47  64  84 113 150 192 235 281
#     4   9  17  30  47  67  92 122 153 186 227 274
#     4  10  19  31  48  69  93 123 157 192 232 277
#     4  10  20  32  46  64  86 117 158 203 246 283
#
# _framework density 15.831377
#
# number of rings (size 3 to 8) (size 9 to 14) (size 15 to 20)
#    0.000    2.385    1.538    1.846    0.000    7.077 
#    0.000    1.154    0.000    2.769    0.000    0.000 
#    0.000    0.000    0.000    0.000    0.000   13.385 
#
# Total GULP energy -1288991.782022 kJ/mol
# GULP energy per Si atom -12394.151750 kJ/mol
# Density = 1.579534 g / cm^3
# Si number density = 15.831377 Si / 1000 Ang^3
#
#
#
# Elastic Constant Matrix: (Units=GPa)
#
#
# Indices 1 2 3 4 5 6 
#
# 1 85.7114 45.9692 35.4346 0.0000 0.0000 0.0000
# 2 45.9692 85.7108 35.4346 0.0000 0.0000 0.0000
# 3 35.4346 35.4346 73.8554 0.0000 0.0000 0.0000
# 4 0.0000 0.0000 0.0000 18.7440 0.0000 0.0000
# 5 0.0000 0.0000 0.0000 0.0000 18.7440 0.0000
# 6 0.0000 0.0000 0.0000 0.0000 0.0000 6.4426
#
#
#
# Elastic Compliance Matrix: (Units=1/GPa)
#
#
# Indices 1 2 3 4 5 6 
#
# 1 0.017700 -0.007462 -0.004912 0.000000 0.000000 0.000000
# 2 -0.007462 0.017700 -0.004912 0.000000 0.000000 0.000000
# 3 -0.004912 -0.004912 0.018253 0.000000 0.000000 0.000000
# 4 0.000000 0.000000 0.000000 0.053350 0.000000 0.000000
# 5 0.000000 0.000000 0.000000 0.000000 0.053351 0.000000
# 6 0.000000 0.000000 0.000000 0.000000 0.000000 0.155217
#
#
# Mechanical properties :
#
#
# Convention : Reuss Voigt Hill
#
# Bulk Modulus (GPa) = 52.40785 53.21717 52.81251
# Shear Modulus (GPa) = 14.02511 17.34872 15.68691
#
# Velocity S-wave (km/s) = 2.97965 3.31395 3.15123
# Velocity P-wave (km/s) = 6.70920 6.95205 6.83170
#
# Compressibility (1/GPa) = 0.01908111
#
# Stress axis : x y z
#
# Youngs Moduli (GPa) = 56.49732 56.49681 54.78483
#
# Poissons Ratio (x) = 0.42160 0.26909
# Poissons Ratio (y) = 0.42160 0.26910
# Poissons Ratio (z) = 0.27751 0.27751
#
# Static dielectric constant tensor:
#      x y z
#    x 2.939320 0.000000 0.000000 
#    y 0.000000 2.939330 0.000000 
#    z 0.000000 0.000000 2.942600 
# 
# 
# High freq. dielectric constant tensor:
#      x y z
#    x 1.599750 0.000000 0.000000 
#    y 0.000000 1.599750 0.000000 
#    z 0.000000 0.000000 1.583990 
# 
# From -- ./inp_files/5074.got.cif
#   From: 2010.03.12/outbox.cif.g09.slc.cpg/sg129_3_cif.got.tgz:5074.got - 2010.04.06 17:19:44.
