data_PCOD8315680
_publ_section_title
;
Structure prediction by ZEFSAII (Michael W. Deem and Ramdas Pophale) SiO2 
 PCOD8315680
Probable space group: P 42/M M C
;
_chemical_formula_sum "Si O2"
_cell_formula_units_Z 112
_cell_length_a 18.320240
_cell_length_b 18.320240
_cell_length_c 19.036707
_cell_angle_alpha 90.000000
_cell_angle_beta 90.000000
_cell_angle_gamma 90.000000
_cell_volume 6389.312694
_symmetry_space_group_name_H-M "P 42/M M C"
_symmetry_group_IT_number 131
_symmetry_cell_setting 'tetragonal'
loop_
_space_group_symop_operation_xyz
x,y,z
-x,-y,z
-y,x,1/2+z
y,-x,1/2+z
-x,y,-z
x,-y,-z
y,x,1/2-z
-y,-x,1/2-z
-x,-y,-z
x,y,-z
y,-x,1/2-z
-y,x,1/2-z
x,-y,z
-x,y,z
-y,-x,1/2+z
y,x,1/2+z
loop_
_atom_site_type_symbol
_atom_site_label
_atom_site_fract_x
_atom_site_fract_y
_atom_site_fract_z
Si Si1 0.658517 0.585974 0.814843
Si Si2 0.684745 0.417162 0.417767
Si Si3 0.307679 0.210067 0.300536
Si Si4 0.080939 0.679582 0.705845
Si Si5 0.654160 0.834189 0.076937
Si Si6 0.799406 0.819879 0.421754
Si Si7 0.918092 0.851403 0.681226
O O1 0.607299 0.607299 0.750000
O O2 0.670458 0.500000 0.818161
O O3 0.617945 0.612817 0.884755
O O4 0.736589 0.624533 0.810675
O O5 0.674855 0.410154 0.500000
O O6 0.693101 0.500000 0.392540
O O7 0.757148 0.374669 0.392253
O O8 0.245534 0.245534 0.250000
O O9 0.342230 0.137865 0.265979
O O10 0.273770 0.185808 0.375082
O O11 0.102693 0.637657 0.633402
O O12 0.084580 0.766255 0.698362
O O13 0.000000 0.653419 0.726756
O O14 0.740036 0.831295 0.067492
O O15 0.618324 0.851045 0.000000
O O16 0.782643 0.852659 0.500000
O O17 0.860868 0.868709 0.381843
O O18 0.896719 0.896719 0.750000
O O19 0.000000 0.874211 0.657936
#
# Coordination Sequence:
#
# PCOD8315680 Si02
#       7
#    16  16  16  16  16  16  16
#     4  11  23  35  52  75 101 135 176 217 257 303
#     4  10  20  34  53  76 105 142 174 201 245 309
#     4  11  17  34  54  70  96 135 172 211 256 311
#     4  10  18  29  50  75  97 127 167 213 257 297
#     4   9  16  29  48  73 102 130 164 203 246 298
#     4  10  17  29  51  75  96 125 167 216 257 290
#     4  10  18  30  48  73 104 137 170 201 246 304
#
# _framework density 17.529273
#
# number of rings (size 3 to 8) (size 9 to 14) (size 15 to 20)
#    0.000    1.857    5.714    1.286    0.000    2.000 
#    0.000    3.571    0.000    3.429    0.000    3.000 
#    0.000    0.000    0.000    2.571    0.000    0.000 
#
# Total GULP energy -1388321.719079 kJ/mol
# GULP energy per Si atom -12395.729635 kJ/mol
# Density = 1.748938 g / cm^3
# Si number density = 17.529273 Si / 1000 Ang^3
#
#
#
# Elastic Constant Matrix: (Units=GPa)
#
#
# Indices 1 2 3 4 5 6 
#
# 1 63.4716 64.9608 45.9839 0.0000 0.0000 0.0000
# 2 64.9608 63.4716 45.9839 0.0000 0.0000 0.0000
# 3 45.9839 45.9839 97.0535 0.0000 0.0000 0.0000
# 4 0.0000 0.0000 0.0000 16.8644 0.0000 0.0000
# 5 0.0000 0.0000 0.0000 0.0000 16.8644 0.0000
# 6 0.0000 0.0000 0.0000 0.0000 0.0000 7.7556
#
#
#
# Elastic Compliance Matrix: (Units=1/GPa)
#
#
# Indices 1 2 3 4 5 6 
#
# 1 -0.329857 0.341642 -0.005583 0.000000 0.000000 0.000000
# 2 0.341642 -0.329857 -0.005583 0.000000 0.000000 0.000000
# 3 -0.005583 -0.005583 0.015594 0.000000 0.000000 0.000000
# 4 0.000000 0.000000 0.000000 0.059297 0.000000 0.000000
# 5 0.000000 0.000000 0.000000 0.000000 0.059297 0.000000
# 6 0.000000 0.000000 0.000000 0.000000 0.000000 0.128939
#
#
# Mechanical properties :
#
#
# Convention : Reuss Voigt Hill
#
# Bulk Modulus (GPa) = 59.41954 59.76153 59.59053
# Shear Modulus (GPa) = -4.75317 12.76810 4.00746
#
# Velocity S-wave (km/s) = -1.64847 2.70179 1.51364
# Velocity P-wave (km/s) = 5.50887 6.62566 6.09291
#
# Compressibility (1/GPa) = 0.01682948
#
# Stress axis : x y z
#
# Youngs Moduli (GPa) = -3.03161 -3.03161 64.12545
#
# Poissons Ratio (x) = 1.03573 0.35804
# Poissons Ratio (y) = 1.03573 0.35804
# Poissons Ratio (z) = -0.01693 -0.01693
#
# Static dielectric constant tensor:
#      x y z
#    x 3.158620 0.000000 0.000000 
#    y 0.000000 3.158620 0.000000 
#    z 0.000000 0.000000 3.584560 
# 
# 
# High freq. dielectric constant tensor:
#      x y z
#    x 1.652400 0.000000 0.000000 
#    y 0.000000 1.652400 0.000000 
#    z 0.000000 0.000000 1.682470 
# 
# From -- ./inp_files/10044.got.cif
#   From: 2010.03.12/outbox.cif.g09.slc.cpg/sg131_6_cif.got.tgz:10044.got - 2010.04.06 17:36:35.
