data_PCOD8315064
_publ_section_title
;
Structure prediction by ZEFSAII (Michael W. Deem and Ramdas Pophale) SiO2 
 PCOD8315064
Probable space group: P 4/N M M
;
_chemical_formula_sum "Si O2"
_cell_formula_units_Z 56
_cell_length_a 13.556900
_cell_length_b 13.556900
_cell_length_c 18.041390
_cell_angle_alpha 90.000000
_cell_angle_beta 90.000000
_cell_angle_gamma 90.000000
_cell_volume 3315.818726
_symmetry_space_group_name_H-M "P 4/N M M"
_symmetry_group_IT_number 129
_symmetry_cell_setting 'tetragonal'
loop_
_space_group_symop_operation_xyz
x,y,z
1/2-y,x,z
1/2-x,1/2-y,z
y,1/2-x,z
1/2+x,-y,-z
-x,1/2+y,-z
1/2+y,1/2+x,-z
-y,-x,-z
-x,-y,-z
1/2+y,-x,-z
1/2+x,1/2+y,-z
-y,1/2+x,-z
1/2-x,y,z
x,1/2-y,z
1/2-y,1/2-x,z
y,x,z
loop_
_atom_site_type_symbol
_atom_site_label
_atom_site_fract_x
_atom_site_fract_y
_atom_site_fract_z
Si Si1 0.859790 0.366774 0.290257
Si Si2 0.026583 0.866423 0.563392
Si Si3 0.023104 0.634089 0.852832
Si Si4 0.136403 0.636403 0.000000
O O1 0.750000 0.412838 0.296992
O O2 0.851381 0.250000 0.289474
O O3 0.926360 0.400703 0.358995
O O4 0.908470 0.404024 0.214126
O O5 0.104452 0.895549 0.500000
O O6 0.005413 0.750000 0.560419
O O7 0.923095 0.923095 0.552181
O O8 0.004391 0.750000 0.847653
O O9 0.074458 0.602612 0.929187
O O10 0.917110 0.582891 0.847600
O O11 0.117451 0.750000 0.019384
#
# Coordination Sequence:
#
# PCOD8315064 Si02
#       4
#    16  16  16   8
#     4   9  17  30  48  68  90 118 153 193 235 277
#     4  10  20  33  50  73 100 130 164 201 243 291
#     4  10  19  30  45  66  93 123 154 189 231 281
#     4   9  17  30  48  68  89 115 150 194 240 277
#
# _framework density 16.888739999999999
#
# number of rings (size 3 to 8) (size 9 to 14) (size 15 to 20)
#    0.000    2.429    0.000    3.000    0.000    5.429 
#    0.000    0.000    0.000    5.143    0.000    0.000 
#    0.000   23.429    0.000    0.000    0.000    0.000 
#
# Total GULP energy -694425.730642 kJ/mol
# GULP energy per Si atom -12400.459476 kJ/mol
# Density = 1.685030 g / cm^3
# Si number density = 16.888740 Si / 1000 Ang^3
#
#
#
# Elastic Constant Matrix: (Units=GPa)
#
#
# Indices 1 2 3 4 5 6 
#
# 1 77.8369 44.2864 42.8972 0.0000 0.0000 0.0000
# 2 44.2864 77.8375 42.8974 0.0000 0.0000 0.0000
# 3 42.8972 42.8974 130.6864 0.0000 0.0000 0.0000
# 4 0.0000 0.0000 0.0000 22.1348 0.0000 0.0000
# 5 0.0000 0.0000 0.0000 0.0000 22.1346 0.0000
# 6 0.0000 0.0000 0.0000 0.0000 0.0000 22.4538
#
#
#
# Elastic Compliance Matrix: (Units=1/GPa)
#
#
# Indices 1 2 3 4 5 6 
#
# 1 0.020224 -0.009581 -0.003493 0.000000 0.000000 0.000000
# 2 -0.009581 0.020224 -0.003493 0.000000 0.000000 0.000000
# 3 -0.003493 -0.003493 0.009945 0.000000 0.000000 0.000000
# 4 0.000000 0.000000 0.000000 0.045178 0.000000 0.000000
# 5 0.000000 0.000000 0.000000 0.000000 0.045178 0.000000
# 6 0.000000 0.000000 0.000000 0.000000 0.000000 0.044536
#
#
# Mechanical properties :
#
#
# Convention : Reuss Voigt Hill
#
# Bulk Modulus (GPa) = 57.94771 60.72476 59.33623
# Shear Modulus (GPa) = 22.30409 23.76329 23.03369
#
# Velocity S-wave (km/s) = 3.63802 3.75514 3.69704
# Velocity P-wave (km/s) = 7.21338 7.40508 7.30986
#
# Compressibility (1/GPa) = 0.01725694
#
# Stress axis : x y z
#
# Youngs Moduli (GPa) = 49.44576 49.44612 100.55005
#
# Poissons Ratio (x) = 0.47377 0.35126
# Poissons Ratio (y) = 0.47376 0.35126
# Poissons Ratio (z) = 0.17273 0.17273
#
# Static dielectric constant tensor:
#      x y z
#    x 2.988810 0.000000 0.000000 
#    y 0.000000 2.988800 0.000000 
#    z 0.000000 0.000000 3.418650 
# 
# 
# High freq. dielectric constant tensor:
#      x y z
#    x 1.634510 0.000000 0.000000 
#    y 0.000000 1.634510 0.000000 
#    z 0.000000 0.000000 1.672290 
# 
# From -- ./inp_files/4409.got.cif
#   From: 2010.03.12/outbox.cif.g09.slc.cpg/sg129_3_cif.got.tgz:4409.got - 2010.04.06 17:19:44.
