data_PCOD8315491
_publ_section_title
;
Structure prediction by ZEFSAII (Michael W. Deem and Ramdas Pophale) SiO2 
 PCOD8315491
Probable space group: P 4/N C C
;
_chemical_formula_sum "Si O2"
_cell_formula_units_Z 80
_cell_length_a 28.203900
_cell_length_b 28.203900
_cell_length_c 5.098673
_cell_angle_alpha 90.000000
_cell_angle_beta 90.000000
_cell_angle_gamma 90.000000
_cell_volume 4055.790298
_symmetry_space_group_name_H-M "P 4/N C C"
_symmetry_group_IT_number 130
_symmetry_cell_setting 'tetragonal'
loop_
_space_group_symop_operation_xyz
x,y,z
1/2-y,x,z
1/2-x,1/2-y,z
y,1/2-x,z
1/2+x,-y,1/2-z
-x,1/2+y,1/2-z
1/2+y,1/2+x,1/2-z
-y,-x,1/2-z
-x,-y,-z
1/2+y,-x,-z
1/2+x,1/2+y,-z
-y,1/2+x,-z
1/2-x,y,1/2+z
x,1/2-y,1/2+z
1/2-y,1/2-x,1/2+z
y,x,1/2+z
loop_
_atom_site_type_symbol
_atom_site_label
_atom_site_fract_x
_atom_site_fract_y
_atom_site_fract_z
Si Si1 0.279888 0.469551 0.121713
Si Si2 0.622013 0.377988 0.750000
Si Si3 0.978133 0.558460 0.098226
Si Si4 0.577673 0.218929 0.105554
Si Si5 0.920711 0.079290 0.250000
Si Si6 0.600305 0.863243 0.029462
O O1 0.263404 0.461838 0.420352
O O2 0.299897 0.523268 0.105894
O O3 0.318459 0.430775 0.048444
O O4 0.675610 0.386532 0.845963
O O5 0.613270 0.411804 0.498797
O O6 0.972492 0.520934 0.335131
O O7 0.933926 0.592694 0.070760
O O8 0.025947 0.588286 0.147464
O O9 0.587729 0.259266 0.320476
O O10 0.627845 0.859438 0.306467
#
# Coordination Sequence:
#
# PCOD8315491 Si02
#       6
#    16   8  16  16   8  16
#     4  10  20  35  56  80 110 146 184 226 277 328
#     4  12  24  37  60  85 106 140 184 237 288 335
#     4  10  20  33  48  70 108 154 186 218 261 310
#     4  10  22  40  60  83 112 144 181 230 283 339
#     4  12  22  33  52  80 110 141 190 229 258 321
#     4  10  20  33  51  76 109 145 183 226 271 320
#
# _framework density 19.724888
#
# number of rings (size 3 to 8) (size 9 to 14) (size 15 to 20)
#    0.000    1.600    0.000    5.400    0.000    6.400 
#    0.000    0.000    0.000    1.800    0.000    0.000 
#    0.000   28.000    0.000    0.000    0.000    0.000 
#
# Total GULP energy -991756.328686 kJ/mol
# GULP energy per Si atom -12396.954109 kJ/mol
# Density = 1.967999 g / cm^3
# Si number density = 19.724888 Si / 1000 Ang^3
#
#
#
# Elastic Constant Matrix: (Units=GPa)
#
#
# Indices 1 2 3 4 5 6 
#
# 1 63.6531 41.4385 25.6212 0.0000 0.0000 0.0000
# 2 41.4385 63.6595 25.6206 0.0000 0.0000 0.0000
# 3 25.6212 25.6206 104.0843 0.0000 0.0000 0.0000
# 4 0.0000 0.0000 0.0000 21.9038 0.0000 0.0000
# 5 0.0000 0.0000 0.0000 0.0000 21.9039 0.0000
# 6 0.0000 0.0000 0.0000 0.0000 0.0000 31.1243
#
#
#
# Elastic Compliance Matrix: (Units=1/GPa)
#
#
# Indices 1 2 3 4 5 6 
#
# 1 0.027913 -0.017098 -0.002662 0.000000 0.000000 0.000000
# 2 -0.017098 0.027909 -0.002661 0.000000 0.000000 0.000000
# 3 -0.002662 -0.002661 0.010918 0.000000 0.000000 0.000000
# 4 0.000000 0.000000 0.000000 0.045654 0.000000 0.000000
# 5 0.000000 0.000000 0.000000 0.000000 0.045654 0.000000
# 6 0.000000 0.000000 0.000000 0.000000 0.000000 0.032129
#
#
# Mechanical properties :
#
#
# Convention : Reuss Voigt Hill
#
# Bulk Modulus (GPa) = 45.66785 46.30640 45.98712
# Shear Modulus (GPa) = 20.63394 24.23416 22.43405
#
# Velocity S-wave (km/s) = 3.23784 3.50895 3.37612
# Velocity P-wave (km/s) = 6.09760 6.32013 6.20987
#
# Compressibility (1/GPa) = 0.02189724
#
# Stress axis : x y z
#
# Youngs Moduli (GPa) = 35.82611 35.83028 91.59210
#
# Poissons Ratio (x) = 0.61263 0.24384
# Poissons Ratio (y) = 0.61255 0.24374
# Poissons Ratio (z) = 0.09538 0.09535
#
# Static dielectric constant tensor:
#      x y z
#    x 3.370090 0.000000 0.000000 
#    y 0.000000 3.370120 0.000000 
#    z 0.000000 0.000000 4.307910 
# 
# 
# High freq. dielectric constant tensor:
#      x y z
#    x 1.741540 0.000000 0.000000 
#    y 0.000000 1.741540 0.000000 
#    z 0.000000 0.000000 1.804240 
# 
# From -- ./inp_files/228.got.cif
#   From: 2010.03.12/outbox.cif.g09.slc.cpg/sg130_1_cif.got.tgz:228.got - 2010.04.06 17:30:23.
