data_PCOD8315861
_publ_section_title
;
Structure prediction by ZEFSAII (Michael W. Deem and Ramdas Pophale) SiO2 
 PCOD8315861
Probable space group: P 42/M M C
;
_chemical_formula_sum "Si O2"
_cell_formula_units_Z 80
_cell_length_a 12.946926
_cell_length_b 12.946926
_cell_length_c 29.287781
_cell_angle_alpha 90.000000
_cell_angle_beta 90.000000
_cell_angle_gamma 90.000000
_cell_volume 4909.302576
_symmetry_space_group_name_H-M "P 42/M M C"
_symmetry_group_IT_number 131
_symmetry_cell_setting 'tetragonal'
loop_
_space_group_symop_operation_xyz
x,y,z
-x,-y,z
-y,x,1/2+z
y,-x,1/2+z
-x,y,-z
x,-y,-z
y,x,1/2-z
-y,-x,1/2-z
-x,-y,-z
x,y,-z
y,-x,1/2-z
-y,x,1/2-z
x,-y,z
-x,y,z
-y,-x,1/2+z
y,x,1/2+z
loop_
_atom_site_type_symbol
_atom_site_label
_atom_site_fract_x
_atom_site_fract_y
_atom_site_fract_z
Si Si1 0.230520 0.616357 0.800867
Si Si2 0.000000 0.377770 0.357142
Si Si3 0.253534 0.000000 0.947311
Si Si4 0.199040 0.117517 0.552468
Si Si5 0.879460 0.387718 0.108876
Si Si6 0.800747 0.619656 0.301715
O O1 0.277158 0.500000 0.801680
O O2 0.140372 0.630558 0.837699
O O3 0.321744 0.695050 0.814072
O O4 0.177484 0.637959 0.752004
O O5 0.000000 0.345281 0.410396
O O6 0.897853 0.336241 0.330717
O O7 0.000000 0.500000 0.355319
O O8 0.183586 0.098498 0.937436
O O9 0.295306 0.000000 0.000000
O O10 0.230288 0.120549 0.500000
O O11 0.294951 0.169316 0.579426
O O12 0.176597 0.000000 0.568333
O O13 0.833385 0.500000 0.093941
O O14 0.000000 0.387951 0.099636
O O15 0.782982 0.500000 0.313370
#
# Coordination Sequence:
#
# PCOD8315861 Si02
#       6
#    16   8   8  16  16  16
#     4   9  17  29  45  65  89 114 146 182 215 261
#     4  10  20  32  47  66  90 117 148 185 220 266
#     4  10  19  31  48  65  85 114 147 186 225 260
#     4   9  17  29  45  66  89 113 145 181 218 262
#     4   9  17  27  42  64  89 117 143 173 214 262
#     4   9  18  30  45  65  87 115 146 181 223 259
#
# _framework density 16.295593
#
# number of rings (size 3 to 8) (size 9 to 14) (size 15 to 20)
#    0.000    2.800    0.000    1.500    1.400    2.200 
#    0.000    4.000    0.000    0.000    0.000    0.000 
#    0.000    0.000    0.000   37.200    0.000    0.800 
#
# Total GULP energy -991503.867992 kJ/mol
# GULP energy per Si atom -12393.798350 kJ/mol
# Density = 1.625850 g / cm^3
# Si number density = 16.295593 Si / 1000 Ang^3
#
#
#
# Elastic Constant Matrix: (Units=GPa)
#
#
# Indices 1 2 3 4 5 6 
#
# 1 72.8118 31.6916 43.1102 0.0000 0.0000 0.0000
# 2 31.6916 72.8118 43.1102 0.0000 0.0000 0.0000
# 3 43.1102 43.1102 81.1065 0.0000 0.0000 0.0000
# 4 0.0000 0.0000 0.0000 26.7981 0.0000 0.0000
# 5 0.0000 0.0000 0.0000 0.0000 26.7981 0.0000
# 6 0.0000 0.0000 0.0000 0.0000 0.0000 17.9054
#
#
#
# Elastic Compliance Matrix: (Units=1/GPa)
#
#
# Indices 1 2 3 4 5 6 
#
# 1 0.020681 -0.003638 -0.009059 0.000000 0.000000 0.000000
# 2 -0.003638 0.020681 -0.009059 0.000000 0.000000 0.000000
# 3 -0.009059 -0.009059 0.021959 0.000000 0.000000 0.000000
# 4 0.000000 0.000000 0.000000 0.037316 0.000000 0.000000
# 5 0.000000 0.000000 0.000000 0.000000 0.037316 0.000000
# 6 0.000000 0.000000 0.000000 0.000000 0.000000 0.055849
#
#
# Mechanical properties :
#
#
# Convention : Reuss Voigt Hill
#
# Bulk Modulus (GPa) = 50.47889 51.39491 50.93690
# Shear Modulus (GPa) = 20.49878 21.55489 21.02683
#
# Velocity S-wave (km/s) = 3.55058 3.64090 3.59603
# Velocity P-wave (km/s) = 6.91760 7.02015 6.96906
#
# Compressibility (1/GPa) = 0.01981026
#
# Stress axis : x y z
#
# Youngs Moduli (GPa) = 48.35361 48.35361 45.53849
#
# Poissons Ratio (x) = 0.17591 0.41252
# Poissons Ratio (y) = 0.17591 0.41252
# Poissons Ratio (z) = 0.43803 0.43803
#
# Static dielectric constant tensor:
#      x y z
#    x 3.111780 0.000000 0.000000 
#    y 0.000000 3.111780 0.000000 
#    z 0.000000 0.000000 3.132230 
# 
# 
# High freq. dielectric constant tensor:
#      x y z
#    x 1.617290 0.000000 0.000000 
#    y 0.000000 1.617290 0.000000 
#    z 0.000000 0.000000 1.627510 
# 
# From -- ./inp_files/13410.got.cif
#   From: 2010.03.12/outbox.cif.g09.slc.cpg/sg131_7_cif.got.tgz:13410.got - 2010.04.06 17:36:35.
