data_PCOD8315943
_publ_section_title
;
Structure prediction by ZEFSAII (Michael W. Deem and Ramdas Pophale) SiO2 
 PCOD8315943
Probable space group: P 42/M M C
;
_chemical_formula_sum "Si O2"
_cell_formula_units_Z 120
_cell_length_a 27.423877
_cell_length_b 27.423877
_cell_length_c 9.158008
_cell_angle_alpha 90.000000
_cell_angle_beta 90.000000
_cell_angle_gamma 90.000000
_cell_volume 6887.454191
_symmetry_space_group_name_H-M "P 42/M M C"
_symmetry_group_IT_number 131
_symmetry_cell_setting 'tetragonal'
loop_
_space_group_symop_operation_xyz
x,y,z
-x,-y,z
-y,x,1/2+z
y,-x,1/2+z
-x,y,-z
x,-y,-z
y,x,1/2-z
-y,-x,1/2-z
-x,-y,-z
x,y,-z
y,-x,1/2-z
-y,x,1/2-z
x,-y,z
-x,y,z
-y,-x,1/2+z
y,x,1/2+z
loop_
_atom_site_type_symbol
_atom_site_label
_atom_site_fract_x
_atom_site_fract_y
_atom_site_fract_z
Si Si1 0.055232 0.872603 0.171447
Si Si2 0.315203 0.113586 0.827685
Si Si3 0.124211 0.413256 0.173166
Si Si4 0.557241 0.233105 0.329383
Si Si5 0.781687 0.716462 0.666898
Si Si6 0.702914 0.366438 0.329370
Si Si7 0.500000 0.055251 0.673069
Si Si8 0.057599 0.763735 0.838027
O O1 0.088990 0.911011 0.250000
O O2 0.074124 0.818054 0.208573
O O3 0.000000 0.879793 0.227773
O O4 0.057776 0.881721 0.000000
O O5 0.365468 0.102557 0.747713
O O6 0.298092 0.166171 0.771123
O O7 0.274681 0.074932 0.781774
O O8 0.323465 0.111771 0.000000
O O9 0.179467 0.425566 0.225063
O O10 0.086166 0.453838 0.227260
O O11 0.123472 0.407643 0.000000
O O12 0.569169 0.239329 0.500000
O O13 0.500000 0.238267 0.298493
O O14 0.583772 0.276977 0.242380
O O15 0.764530 0.764530 0.750000
O O16 0.784872 0.731194 0.500000
O O17 0.745524 0.672117 0.695532
O O18 0.653750 0.346251 0.250000
O O19 0.691356 0.375057 0.500000
O O20 0.500000 0.052086 0.500000
O O21 0.500000 0.000000 0.738428
O O22 0.000000 0.762303 0.843706
O O23 0.078140 0.750915 0.000000
#
# Coordination Sequence:
#
# PCOD8315943 Si02
#       8
#    16  16  16  16  16  16   8  16
#     4   9  19  36  57  81 109 138 168 206 253 308
#     4  11  22  35  51  76 105 132 168 216 265 315
#     4  10  19  33  53  76 101 135 177 223 271 324
#     4  10  19  32  52  78 108 143 186 229 272 321
#     4   9  19  32  46  68  99 132 166 203 247 301
#     4  10  19  33  51  74 106 143 180 217 265 317
#     4   9  18  34  55  77  99 127 171 225 274 323
#     4   9  20  39  57  72  94 129 171 209 250 305
#
# _framework density 17.422984
#
# number of rings (size 3 to 8) (size 9 to 14) (size 15 to 20)
#    0.000    2.333    2.000    1.600    0.000    4.133 
#    0.000    6.333    0.000    0.400    0.000    0.000 
#    0.000    0.267    0.000    2.800    0.000    1.200 
#
# Total GULP energy -1487839.068298 kJ/mol
# GULP energy per Si atom -12398.658902 kJ/mol
# Density = 1.738333 g / cm^3
# Si number density = 17.422984 Si / 1000 Ang^3
#
#
#
# Elastic Constant Matrix: (Units=GPa)
#
#
# Indices 1 2 3 4 5 6 
#
# 1 92.0262 58.8535 39.2220 0.0000 0.0000 0.0000
# 2 58.8535 92.0225 39.2194 0.0000 0.0000 0.0000
# 3 39.2220 39.2194 50.9589 0.0000 0.0000 0.0000
# 4 0.0000 0.0000 0.0000 19.4701 0.0000 0.0000
# 5 0.0000 0.0000 0.0000 0.0000 19.4707 0.0000
# 6 0.0000 0.0000 0.0000 0.0000 0.0000 20.4869
#
#
#
# Elastic Compliance Matrix: (Units=1/GPa)
#
#
# Indices 1 2 3 4 5 6 
#
# 1 0.020598 -0.009549 -0.008505 0.000000 0.000000 0.000000
# 2 -0.009549 0.020598 -0.008503 0.000000 0.000000 0.000000
# 3 -0.008505 -0.008503 0.032714 0.000000 0.000000 0.000000
# 4 0.000000 0.000000 0.000000 0.051361 0.000000 0.000000
# 5 0.000000 0.000000 0.000000 0.000000 0.051359 0.000000
# 6 0.000000 0.000000 0.000000 0.000000 0.000000 0.048812
#
#
# Mechanical properties :
#
#
# Convention : Reuss Voigt Hill
#
# Bulk Modulus (GPa) = 48.08575 56.62195 52.35385
# Shear Modulus (GPa) = 17.51391 18.39973 17.95682
#
# Velocity S-wave (km/s) = 3.17396 3.25323 3.21384
# Velocity P-wave (km/s) = 6.41022 6.83230 6.62462
#
# Compressibility (1/GPa) = 0.02079618
#
# Stress axis : x y z
#
# Youngs Moduli (GPa) = 48.54827 48.54843 30.56800
#
# Poissons Ratio (x) = 0.46359 0.25997
# Poissons Ratio (y) = 0.46358 0.25993
# Poissons Ratio (z) = 0.41289 0.41282
#
# Static dielectric constant tensor:
#      x y z
#    x 3.265420 0.000000 0.000000 
#    y 0.000000 3.265420 0.000000 
#    z 0.000000 0.000000 3.118830 
# 
# 
# High freq. dielectric constant tensor:
#      x y z
#    x 1.666370 0.000000 0.000000 
#    y 0.000000 1.666370 0.000000 
#    z 0.000000 0.000000 1.664770 
# 
# From -- ./inp_files/2629.got.cif
#   From: 2010.03.12/outbox.cif.g09.slc.cpg/sg131_2_cif.got.tgz:2629.got - 2010.04.06 17:36:35.
