data_PCOD8315774
_publ_section_title
;
Structure prediction by ZEFSAII (Michael W. Deem and Ramdas Pophale) SiO2 
 PCOD8315774
Probable space group: P 42/M M C
;
_chemical_formula_sum "Si O2"
_cell_formula_units_Z 80
_cell_length_a 16.449474
_cell_length_b 16.449474
_cell_length_c 16.395838
_cell_angle_alpha 90.000000
_cell_angle_beta 90.000000
_cell_angle_gamma 90.000000
_cell_volume 4436.471020
_symmetry_space_group_name_H-M "P 42/M M C"
_symmetry_group_IT_number 131
_symmetry_cell_setting 'tetragonal'
loop_
_space_group_symop_operation_xyz
x,y,z
-x,-y,z
-y,x,1/2+z
y,-x,1/2+z
-x,y,-z
x,-y,-z
y,x,1/2-z
-y,-x,1/2-z
-x,-y,-z
x,y,-z
y,-x,1/2-z
-y,x,1/2-z
x,-y,z
-x,y,z
-y,-x,1/2+z
y,x,1/2+z
loop_
_atom_site_type_symbol
_atom_site_label
_atom_site_fract_x
_atom_site_fract_y
_atom_site_fract_z
Si Si1 0.500000 0.762675 0.597181
Si Si2 0.094639 0.907731 0.344630
Si Si3 0.744095 0.326362 0.171772
Si Si4 0.087960 0.500000 0.202266
Si Si5 0.908736 0.671349 0.742125
Si Si6 0.247886 0.835908 0.090787
O O1 0.500000 0.750902 0.500000
O O2 0.583344 0.726052 0.636095
O O3 0.500000 0.856588 0.621837
O O4 0.112389 0.887612 0.250000
O O5 0.149883 0.848889 0.399258
O O6 0.000000 0.894202 0.364118
O O7 0.119785 0.000000 0.364794
O O8 0.685316 0.314685 0.250000
O O9 0.837566 0.303198 0.195482
O O10 0.725166 0.257857 0.104512
O O11 0.100451 0.574498 0.263524
O O12 0.000000 0.500000 0.161016
O O13 0.896141 0.706959 0.652576
O O14 0.000000 0.696669 0.772697
O O15 0.274513 0.859604 0.000000
#
# Coordination Sequence:
#
# PCOD8315774 Si02
#       6
#     8  16  16   8  16  16
#     4  10  18  31  54  80 104 129 159 199 247 289
#     4   9  18  32  47  61  82 120 168 210 248 291
#     4   9  19  34  51  72  98 129 162 193 233 293
#     4   8  16  31  49  70  97 129 163 195 229 279
#     4   9  17  31  50  68  90 124 161 192 227 278
#     4  11  21  30  43  67  96 122 155 201 245 281
#
# _framework density 18.032350999999998
#
# number of rings (size 3 to 8) (size 9 to 14) (size 15 to 20)
#    0.000    2.600    0.000    3.600    0.000    4.600 
#    0.000    1.500    0.000    5.700    0.000    2.800 
#    0.000    0.000    0.000    0.000    0.000    0.000 
#
# Total GULP energy -991204.414746 kJ/mol
# GULP energy per Si atom -12390.055184 kJ/mol
# Density = 1.799131 g / cm^3
# Si number density = 18.032351 Si / 1000 Ang^3
#
#
#
# Elastic Constant Matrix: (Units=GPa)
#
#
# Indices 1 2 3 4 5 6 
#
# 1 71.5150 20.5251 29.2049 0.0000 0.0000 0.0000
# 2 20.5251 71.5153 29.2050 0.0000 0.0000 0.0000
# 3 29.2049 29.2050 96.2627 0.0000 0.0000 0.0000
# 4 0.0000 0.0000 0.0000 16.3002 0.0000 0.0000
# 5 0.0000 0.0000 0.0000 0.0000 16.3002 0.0000
# 6 0.0000 0.0000 0.0000 0.0000 0.0000 18.2906
#
#
#
# Elastic Compliance Matrix: (Units=1/GPa)
#
#
# Indices 1 2 3 4 5 6 
#
# 1 0.016534 -0.003078 -0.004082 0.000000 0.000000 0.000000
# 2 -0.003078 0.016534 -0.004082 0.000000 0.000000 0.000000
# 3 -0.004082 -0.004082 0.012865 0.000000 0.000000 0.000000
# 4 0.000000 0.000000 0.000000 0.061349 0.000000 0.000000
# 5 0.000000 0.000000 0.000000 0.000000 0.061349 0.000000
# 6 0.000000 0.000000 0.000000 0.000000 0.000000 0.054673
#
#
# Mechanical properties :
#
#
# Convention : Reuss Voigt Hill
#
# Bulk Modulus (GPa) = 42.64896 44.12923 43.38909
# Shear Modulus (GPa) = 19.71578 20.86873 20.29226
#
# Velocity S-wave (km/s) = 3.31018 3.40559 3.35823
# Velocity P-wave (km/s) = 6.18970 6.32372 6.25707
#
# Compressibility (1/GPa) = 0.02344723
#
# Stress axis : x y z
#
# Youngs Moduli (GPa) = 60.48294 60.48320 77.72884
#
# Poissons Ratio (x) = 0.18617 0.31731
# Poissons Ratio (y) = 0.18617 0.31731
# Poissons Ratio (z) = 0.24690 0.24691
#
# Static dielectric constant tensor:
#      x y z
#    x 3.410140 0.000000 0.000000 
#    y 0.000000 3.410140 0.000000 
#    z 0.000000 0.000000 3.038270 
# 
# 
# High freq. dielectric constant tensor:
#      x y z
#    x 1.691850 0.000000 0.000000 
#    y 0.000000 1.691850 0.000000 
#    z 0.000000 0.000000 1.671570 
# 
# From -- ./inp_files/5757.got.cif
#   From: 2010.03.12/outbox.cif.g09.slc.cpg/sg131_3_cif.got.tgz:5757.got - 2010.04.06 17:36:35.
