data_PCOD8315300
_publ_section_title
;
Structure prediction by ZEFSAII (Michael W. Deem and Ramdas Pophale) SiO2 
 PCOD8315300
Probable space group: P 4/N M M
;
_chemical_formula_sum "Si O2"
_cell_formula_units_Z 96
_cell_length_a 13.900050
_cell_length_b 13.900050
_cell_length_c 29.974293
_cell_angle_alpha 90.000000
_cell_angle_beta 90.000000
_cell_angle_gamma 90.000000
_cell_volume 5791.374815
_symmetry_space_group_name_H-M "P 4/N M M"
_symmetry_group_IT_number 129
_symmetry_cell_setting 'tetragonal'
loop_
_space_group_symop_operation_xyz
x,y,z
1/2-y,x,z
1/2-x,1/2-y,z
y,1/2-x,z
1/2+x,-y,-z
-x,1/2+y,-z
1/2+y,1/2+x,-z
-y,-x,-z
-x,-y,-z
1/2+y,-x,-z
1/2+x,1/2+y,-z
-y,1/2+x,-z
1/2-x,y,z
x,1/2-y,z
1/2-y,1/2-x,z
y,x,z
loop_
_atom_site_type_symbol
_atom_site_label
_atom_site_fract_x
_atom_site_fract_y
_atom_site_fract_z
Si Si1 0.982329 0.138961 0.305432
Si Si2 0.639973 0.484280 0.367271
Si Si3 0.984502 0.359873 0.529974
Si Si4 0.478111 0.635576 0.036142
Si Si5 0.641459 0.361947 0.877455
Si Si6 0.140225 0.986422 0.204831
O O1 0.005194 0.250000 0.315161
O O2 0.946011 0.122527 0.254689
O O3 0.897301 0.104269 0.337714
O O4 0.079968 0.079968 0.314986
O O5 0.750000 0.506210 0.355256
O O6 0.580693 0.580693 0.356093
O O7 0.627625 0.454129 0.418665
O O8 0.896252 0.396252 0.500000
O O9 0.007002 0.250000 0.518038
O O10 0.080735 0.419266 0.518768
O O11 0.495088 0.750000 0.030240
O O12 0.580046 0.580046 0.031276
O O13 0.432293 0.609463 0.083795
O O14 0.401460 0.598541 0.000000
O O15 0.750000 0.395243 0.890365
O O16 0.639684 0.250000 0.868643
O O17 0.605979 0.408440 0.831229
O O18 0.250000 0.014219 0.197558
O O19 0.084335 0.084335 0.196503
#
# Coordination Sequence:
#
# PCOD8315300 Si02
#       6
#    16  16  16  16  16  16
#     4   9  18  31  46  66  92 122 156 192 229 270
#     4   9  18  32  49  69  92 118 149 186 228 272
#     4   9  18  32  49  69  93 120 150 185 224 267
#     4  10  20  33  50  71  94 122 155 190 229 272
#     4   9  17  29  46  68  92 118 150 187 225 267
#     4   9  17  29  45  65  90 119 150 185 224 266
#
# _framework density 16.576374000000001
#
# number of rings (size 3 to 8) (size 9 to 14) (size 15 to 20)
#    0.000    2.833    0.000    1.000    0.000    3.500 
#    0.000    6.667    0.000    0.000    0.000    7.000 
#    0.000    4.000    0.000    0.000    0.000    0.000 
#
# Total GULP energy -1190291.067580 kJ/mol
# GULP energy per Si atom -12398.865287 kJ/mol
# Density = 1.653865 g / cm^3
# Si number density = 16.576374 Si / 1000 Ang^3
#
#
#
# Elastic Constant Matrix: (Units=GPa)
#
#
# Indices 1 2 3 4 5 6 
#
# 1 92.9631 48.0272 56.1264 0.0000 0.0000 0.0000
# 2 48.0272 92.9619 56.1265 0.0000 0.0000 0.0000
# 3 56.1264 56.1265 90.1752 0.0000 0.0000 0.0000
# 4 0.0000 0.0000 0.0000 28.0754 0.0000 0.0000
# 5 0.0000 0.0000 0.0000 0.0000 28.0754 0.0000
# 6 0.0000 0.0000 0.0000 0.0000 0.0000 18.5531
#
#
#
# Elastic Compliance Matrix: (Units=1/GPa)
#
#
# Indices 1 2 3 4 5 6 
#
# 1 0.018157 -0.004097 -0.008751 0.000000 0.000000 0.000000
# 2 -0.004097 0.018158 -0.008752 0.000000 0.000000 0.000000
# 3 -0.008751 -0.008752 0.021984 0.000000 0.000000 0.000000
# 4 0.000000 0.000000 0.000000 0.035618 0.000000 0.000000
# 5 0.000000 0.000000 0.000000 0.000000 0.035618 0.000000
# 6 0.000000 0.000000 0.000000 0.000000 0.000000 0.053899
#
#
# Mechanical properties :
#
#
# Convention : Reuss Voigt Hill
#
# Bulk Modulus (GPa) = 66.23085 66.29560 66.26323
# Shear Modulus (GPa) = 21.58273 22.66211 22.12242
#
# Velocity S-wave (km/s) = 3.61226 3.70149 3.65715
# Velocity P-wave (km/s) = 7.57889 7.63864 7.60883
#
# Compressibility (1/GPa) = 0.01509870
#
# Stress axis : x y z
#
# Youngs Moduli (GPa) = 55.07490 55.07364 45.48862
#
# Poissons Ratio (x) = 0.22563 0.39808
# Poissons Ratio (y) = 0.22564 0.39810
# Poissons Ratio (z) = 0.48197 0.48198
#
# Static dielectric constant tensor:
#      x y z
#    x 3.074950 0.000000 0.000000 
#    y 0.000000 3.074950 0.000000 
#    z 0.000000 0.000000 3.283230 
# 
# 
# High freq. dielectric constant tensor:
#      x y z
#    x 1.632380 0.000000 0.000000 
#    y 0.000000 1.632380 0.000000 
#    z 0.000000 0.000000 1.646650 
# 
# From -- ./inp_files/6512.got.cif
#   From: 2010.03.12/outbox.cif.g09.slc.cpg/sg129_4_cif.got.tgz:6512.got - 2010.04.06 17:19:44.
