data_PCOD8315781
_publ_section_title
;
Structure prediction by ZEFSAII (Michael W. Deem and Ramdas Pophale) SiO2 
 PCOD8315781
Probable space group: P 42/M M C
;
_chemical_formula_sum "Si O2"
_cell_formula_units_Z 104
_cell_length_a 17.374736
_cell_length_b 17.374736
_cell_length_c 16.958428
_cell_angle_alpha 90.000000
_cell_angle_beta 90.000000
_cell_angle_gamma 90.000000
_cell_volume 5119.434853
_symmetry_space_group_name_H-M "P 42/M M C"
_symmetry_group_IT_number 131
_symmetry_cell_setting 'tetragonal'
loop_
_space_group_symop_operation_xyz
x,y,z
-x,-y,z
-y,x,1/2+z
y,-x,1/2+z
-x,y,-z
x,-y,-z
y,x,1/2-z
-y,-x,1/2-z
-x,-y,-z
x,y,-z
y,-x,1/2-z
-y,x,1/2-z
x,-y,z
-x,y,z
-y,-x,1/2+z
y,x,1/2+z
loop_
_atom_site_type_symbol
_atom_site_label
_atom_site_fract_x
_atom_site_fract_y
_atom_site_fract_z
Si Si1 0.688249 0.414711 0.409435
Si Si2 0.000000 0.198892 0.592285
Si Si3 0.658063 0.838585 0.141998
Si Si4 0.364872 0.000000 0.150352
Si Si5 0.726580 0.587937 0.091898
Si Si6 0.825952 0.167809 0.911729
Si Si7 0.317380 0.144187 0.325454
Si Si8 0.000000 0.588504 0.172638
O O1 0.713305 0.407970 0.500000
O O2 0.660396 0.500000 0.387068
O O3 0.764838 0.396602 0.359514
O O4 0.615949 0.360175 0.391135
O O5 0.078841 0.150847 0.609170
O O6 0.000000 0.225763 0.500000
O O7 0.000000 0.271290 0.651909
O O8 0.614128 0.917043 0.110152
O O9 0.733468 0.822900 0.090400
O O10 0.683637 0.855067 0.231534
O O11 0.407170 0.000000 0.233573
O O12 0.735010 0.500000 0.121153
O O13 0.778367 0.645520 0.141685
O O14 0.747766 0.594718 0.000000
O O15 0.865343 0.228740 0.852954
O O16 0.853170 0.188057 0.000000
O O17 0.368339 0.074929 0.360848
O O18 0.000000 0.500000 0.144211
#
# Coordination Sequence:
#
# PCOD8315781 Si02
#       8
#    16   8  16   8  16  16  16   8
#     4  10  21  36  54  78 109 144 182 229 283 336
#     4   8  16  30  52  84 115 143 177 225 278 336
#     4  10  19  33  54  82 111 145 184 226 272 329
#     4   8  18  32  52  76 108 147 183 216 271 334
#     4  10  21  37  56  77 104 142 187 232 279 331
#     4  10  18  32  55  82 113 145 182 225 273 332
#     4  11  21  35  58  83 108 148 192 231 276 335
#     4  10  22  38  53  76 114 151 188 239 289 330
#
# _framework density 20.314743
#
# number of rings (size 3 to 8) (size 9 to 14) (size 15 to 20)
#    0.000    2.154    1.538    1.846    0.000    4.000 
#    0.000    3.077    0.000    4.385    0.000    3.769 
#    0.000    7.385    0.000    0.231    0.000    0.000 
#
# Total GULP energy -1288768.230488 kJ/mol
# GULP energy per Si atom -12392.002216 kJ/mol
# Density = 2.026851 g / cm^3
# Si number density = 20.314743 Si / 1000 Ang^3
#
#
#
# Elastic Constant Matrix: (Units=GPa)
#
#
# Indices 1 2 3 4 5 6 
#
# 1 114.8266 31.0324 22.1324 0.0000 0.0000 0.0000
# 2 31.0324 114.8266 22.1324 0.0000 0.0000 0.0000
# 3 22.1324 22.1324 48.9094 0.0000 0.0000 0.0000
# 4 0.0000 0.0000 0.0000 21.6420 0.0000 0.0000
# 5 0.0000 0.0000 0.0000 0.0000 21.6420 0.0000
# 6 0.0000 0.0000 0.0000 0.0000 0.0000 24.9357
#
#
#
# Elastic Compliance Matrix: (Units=1/GPa)
#
#
# Indices 1 2 3 4 5 6 
#
# 1 0.009941 -0.001993 -0.003596 0.000000 0.000000 0.000000
# 2 -0.001993 0.009941 -0.003596 0.000000 0.000000 0.000000
# 3 -0.003596 -0.003596 0.023701 0.000000 0.000000 0.000000
# 4 0.000000 0.000000 0.000000 0.046207 0.000000 0.000000
# 5 0.000000 0.000000 0.000000 0.000000 0.046207 0.000000
# 6 0.000000 0.000000 0.000000 0.000000 0.000000 0.040103
#
#
# Mechanical properties :
#
#
# Convention : Reuss Voigt Hill
#
# Bulk Modulus (GPa) = 39.66652 47.68410 43.67531
# Shear Modulus (GPa) = 24.64590 27.19497 25.92043
#
# Velocity S-wave (km/s) = 3.48688 3.66277 3.57591
# Velocity P-wave (km/s) = 5.98160 6.43517 6.21253
#
# Compressibility (1/GPa) = 0.02521017
#
# Stress axis : x y z
#
# Youngs Moduli (GPa) = 100.59694 100.59694 42.19281
#
# Poissons Ratio (x) = 0.20052 0.15174
# Poissons Ratio (y) = 0.20052 0.15174
# Poissons Ratio (z) = 0.36178 0.36178
#
# Static dielectric constant tensor:
#      x y z
#    x 3.763150 0.000000 0.000000 
#    y 0.000000 3.763150 0.000000 
#    z 0.000000 0.000000 3.454680 
# 
# 
# High freq. dielectric constant tensor:
#      x y z
#    x 1.786920 0.000000 0.000000 
#    y 0.000000 1.786920 0.000000 
#    z 0.000000 0.000000 1.771480 
# 
# From -- ./inp_files/8129.got.cif
#   From: 2010.03.12/outbox.cif.g09.slc.cpg/sg131_5_cif.got.tgz:8129.got - 2010.04.06 17:36:35.
