data_PCOD8315084
_publ_section_title
;
Structure prediction by ZEFSAII (Michael W. Deem and Ramdas Pophale) SiO2 
 PCOD8315084
Probable space group: P 4/N M M
;
_chemical_formula_sum "Si O2"
_cell_formula_units_Z 128
_cell_length_a 18.382544
_cell_length_b 18.382544
_cell_length_c 24.351571
_cell_angle_alpha 90.000000
_cell_angle_beta 90.000000
_cell_angle_gamma 90.000000
_cell_volume 8228.832316
_symmetry_space_group_name_H-M "P 4/N M M"
_symmetry_group_IT_number 129
_symmetry_cell_setting 'tetragonal'
loop_
_space_group_symop_operation_xyz
x,y,z
1/2-y,x,z
1/2-x,1/2-y,z
y,1/2-x,z
1/2+x,-y,-z
-x,1/2+y,-z
1/2+y,1/2+x,-z
-y,-x,-z
-x,-y,-z
1/2+y,-x,-z
1/2+x,1/2+y,-z
-y,1/2+x,-z
1/2-x,y,z
x,1/2-y,z
1/2-y,1/2-x,z
y,x,z
loop_
_atom_site_type_symbol
_atom_site_label
_atom_site_fract_x
_atom_site_fract_y
_atom_site_fract_z
Si Si1 0.167017 0.919731 0.037541
Si Si2 0.166869 0.448784 0.502200
Si Si3 0.333567 0.604474 0.657051
Si Si4 0.902049 0.333885 0.449647
Si Si5 0.914026 0.334005 0.877261
Si Si6 0.335086 0.668874 0.769286
Si Si7 0.044135 0.166243 0.952415
Si Si8 0.830656 0.553802 0.370653
O O1 0.250000 0.925745 0.052961
O O2 0.125362 0.902226 0.093435
O O3 0.150859 0.849142 0.000000
O O4 0.142468 0.992142 0.003758
O O5 0.250000 0.429503 0.489432
O O6 0.120177 0.379824 0.483452
O O7 0.140288 0.517883 0.467609
O O8 0.155050 0.467325 0.566086
O O9 0.250000 0.628063 0.646216
O O10 0.381327 0.623357 0.604692
O O11 0.367598 0.642996 0.710915
O O12 0.338658 0.517946 0.666304
O O13 0.847336 0.347336 0.500000
O O14 0.900079 0.250000 0.434653
O O15 0.888617 0.250000 0.892208
O O16 0.894296 0.350811 0.814122
O O17 0.998977 0.340275 0.894872
O O18 0.250000 0.675453 0.761151
O O19 0.365658 0.750000 0.785017
O O20 0.069926 0.250000 0.960171
O O21 0.114341 0.114341 0.950694
O O22 0.750000 0.587090 0.364410
O O23 0.886541 0.613460 0.348482
#
# Coordination Sequence:
#
# PCOD8315084 Si02
#       8
#    16  16  16  16  16  16  16  16
#     4   9  16  24  38  63  92 119 145 174 211 256
#     4   9  18  31  46  65  85 107 137 172 217 269
#     4  10  19  31  44  62  88 119 153 185 219 263
#     4  11  20  29  42  63  89 116 146 179 215 263
#     4   9  17  28  43  65  91 120 153 187 223 265
#     4   9  17  29  45  63  85 117 153 184 215 255
#     4   9  18  31  46  66  91 120 155 191 228 269
#     4   9  17  30  46  63  84 108 138 178 222 269
#
# _framework density 15.555063000000001
#
# number of rings (size 3 to 8) (size 9 to 14) (size 15 to 20)
#    0.000    2.625    1.250    2.250    0.000    6.125 
#    0.000    1.875    0.000    0.000    0.000    0.000 
#    0.000    5.000    0.000    0.000    0.000   11.500 
#
# Total GULP energy -1585769.334981 kJ/mol
# GULP energy per Si atom -12388.822930 kJ/mol
# Density = 1.551966 g / cm^3
# Si number density = 15.555063 Si / 1000 Ang^3
#
#
#
# Elastic Constant Matrix: (Units=GPa)
#
#
# Indices 1 2 3 4 5 6 
#
# 1 66.5969 45.4952 29.0541 0.0000 0.0000 0.0000
# 2 45.4952 66.5979 29.0540 0.0000 0.0000 0.0000
# 3 29.0541 29.0540 76.3949 0.0000 0.0000 0.0000
# 4 0.0000 0.0000 0.0000 16.0291 0.0000 0.0000
# 5 0.0000 0.0000 0.0000 0.0000 16.0290 0.0000
# 6 0.0000 0.0000 0.0000 0.0000 0.0000 28.1405
#
#
#
# Elastic Compliance Matrix: (Units=1/GPa)
#
#
# Indices 1 2 3 4 5 6 
#
# 1 0.029250 -0.018138 -0.004226 0.000000 0.000000 0.000000
# 2 -0.018138 0.029250 -0.004226 0.000000 0.000000 0.000000
# 3 -0.004226 -0.004226 0.016304 0.000000 0.000000 0.000000
# 4 0.000000 0.000000 0.000000 0.062387 0.000000 0.000000
# 5 0.000000 0.000000 0.000000 0.000000 0.062387 0.000000
# 6 0.000000 0.000000 0.000000 0.000000 0.000000 0.035536
#
#
# Mechanical properties :
#
#
# Convention : Reuss Voigt Hill
#
# Bulk Modulus (GPa) = 46.24471 46.31068 46.27769
# Shear Modulus (GPa) = 16.92032 19.10547 18.01289
#
# Velocity S-wave (km/s) = 3.30171 3.50844 3.40664
# Velocity P-wave (km/s) = 6.65802 6.80066 6.72972
#
# Compressibility (1/GPa) = 0.02162410
#
# Stress axis : x y z
#
# Youngs Moduli (GPa) = 34.18752 34.18822 61.33343
#
# Poissons Ratio (x) = 0.62011 0.25921
# Poissons Ratio (y) = 0.62010 0.25919
# Poissons Ratio (z) = 0.14448 0.14448
#
# Static dielectric constant tensor:
#      x y z
#    x 2.897730 0.000000 0.000000 
#    y 0.000000 2.897730 0.000000 
#    z 0.000000 0.000000 2.957650 
# 
# 
# High freq. dielectric constant tensor:
#      x y z
#    x 1.582040 0.000000 0.000000 
#    y 0.000000 1.582040 0.000000 
#    z 0.000000 0.000000 1.578420 
# 
# From -- ./inp_files/7329.got.cif
#   From: 2010.03.12/outbox.cif.g09.slc.cpg/sg129_4_cif.got.tgz:7329.got - 2010.04.06 17:19:44.
