data_PCOD8315737
_publ_section_title
;
Structure prediction by ZEFSAII (Michael W. Deem and Ramdas Pophale) SiO2 
 PCOD8315737
Probable space group: P 42/M M C
;
_chemical_formula_sum "Si O2"
_cell_formula_units_Z 64
_cell_length_a 14.733410
_cell_length_b 14.733410
_cell_length_c 18.449903
_cell_angle_alpha 90.000000
_cell_angle_beta 90.000000
_cell_angle_gamma 90.000000
_cell_volume 4004.982625
_symmetry_space_group_name_H-M "P 42/M M C"
_symmetry_group_IT_number 131
_symmetry_cell_setting 'tetragonal'
loop_
_space_group_symop_operation_xyz
x,y,z
-x,-y,z
-y,x,1/2+z
y,-x,1/2+z
-x,y,-z
x,-y,-z
y,x,1/2-z
-y,-x,1/2-z
-x,-y,-z
x,y,-z
y,-x,1/2-z
-y,x,1/2-z
x,-y,z
-x,y,z
-y,-x,1/2+z
y,x,1/2+z
loop_
_atom_site_type_symbol
_atom_site_label
_atom_site_fract_x
_atom_site_fract_y
_atom_site_fract_z
Si Si1 0.669851 0.608807 0.671844
Si Si2 0.823539 0.710602 0.414207
Si Si3 0.500000 0.393205 0.579093
Si Si4 0.899973 0.898295 0.914205
Si Si5 0.000000 0.399664 0.584652
O O1 0.649068 0.649068 0.750000
O O2 0.685240 0.500000 0.674400
O O3 0.752326 0.661168 0.636348
O O4 0.587207 0.638551 0.621952
O O5 0.800277 0.700987 0.500000
O O6 0.833145 0.816763 0.390192
O O7 0.914361 0.658910 0.392373
O O8 0.500000 0.500000 0.570663
O O9 0.500000 0.346686 0.500000
O O10 0.000000 0.860396 0.889889
O O11 0.886704 0.000000 0.882294
O O12 0.896176 0.905757 0.000000
O O13 0.000000 0.500000 0.621969
O O14 0.000000 0.415075 0.500000
#
# Coordination Sequence:
#
# PCOD8315737 Si02
#       5
#    16  16   8  16   8
#     4  11  21  34  51  70  99 136 169 206 260 311
#     4  10  18  29  49  78 105 131 169 210 252 306
#     4   9  18  32  52  74  95 123 166 209 244 290
#     4   8  13  24  45  73 103 132 163 203 250 298
#     4   9  16  26  41  69 109 139 158 198 256 305
#
# _framework density 15.980095
#
# number of rings (size 3 to 8) (size 9 to 14) (size 15 to 20)
#    0.000    2.500    2.500    2.250    0.000    2.500 
#    0.000    0.000    2.750    0.000    0.000    2.625 
#    0.000    5.000    0.000    0.000    0.000    0.000 
#
# Total GULP energy -792849.565871 kJ/mol
# GULP energy per Si atom -12388.274467 kJ/mol
# Density = 1.594372 g / cm^3
# Si number density = 15.980095 Si / 1000 Ang^3
#
#
#
# Elastic Constant Matrix: (Units=GPa)
#
#
# Indices 1 2 3 4 5 6 
#
# 1 127.4052 66.6051 50.6204 0.0000 0.0000 0.0000
# 2 66.6051 127.4052 50.6204 0.0000 0.0000 0.0000
# 3 50.6204 50.6204 88.3338 0.0000 0.0000 0.0000
# 4 0.0000 0.0000 0.0000 15.1466 0.0000 0.0000
# 5 0.0000 0.0000 0.0000 0.0000 15.1466 0.0000
# 6 0.0000 0.0000 0.0000 0.0000 0.0000 20.1533
#
#
#
# Elastic Compliance Matrix: (Units=1/GPa)
#
#
# Indices 1 2 3 4 5 6 
#
# 1 0.011900 -0.004547 -0.004214 0.000000 0.000000 0.000000
# 2 -0.004547 0.011900 -0.004214 0.000000 0.000000 0.000000
# 3 -0.004214 -0.004214 0.016150 0.000000 0.000000 0.000000
# 4 0.000000 0.000000 0.000000 0.066021 0.000000 0.000000
# 5 0.000000 0.000000 0.000000 0.000000 0.066021 0.000000
# 6 0.000000 0.000000 0.000000 0.000000 0.000000 0.049620
#
#
# Mechanical properties :
#
#
# Convention : Reuss Voigt Hill
#
# Bulk Modulus (GPa) = 71.42138 75.42620 73.42379
# Shear Modulus (GPa) = 19.82319 21.77587 20.79953
#
# Velocity S-wave (km/s) = 3.52588 3.69546 3.61167
# Velocity P-wave (km/s) = 7.83370 8.09390 7.96486
#
# Compressibility (1/GPa) = 0.01400141
#
# Stress axis : x y z
#
# Youngs Moduli (GPa) = 84.03136 84.03136 61.91845
#
# Poissons Ratio (x) = 0.38209 0.26092
# Poissons Ratio (y) = 0.38209 0.26092
# Poissons Ratio (z) = 0.35410 0.35410
#
# Static dielectric constant tensor:
#      x y z
#    x 5.526660 0.000000 0.000000 
#    y 0.000000 5.526660 0.000000 
#    z 0.000000 0.000000 2.851460 
# 
# 
# High freq. dielectric constant tensor:
#      x y z
#    x 1.611980 0.000000 0.000000 
#    y 0.000000 1.611980 0.000000 
#    z 0.000000 0.000000 1.579330 
# 
# From -- ./inp_files/7365.got.cif
#   From: 2010.03.12/outbox.cif.g09.slc.cpg/sg131_4_cif.got.tgz:7365.got - 2010.04.06 17:36:35.
