data_PCOD8315298
_publ_section_title
;
Structure prediction by ZEFSAII (Michael W. Deem and Ramdas Pophale) SiO2 
 PCOD8315298
Probable space group: P 4/N M M
;
_chemical_formula_sum "Si O2"
_cell_formula_units_Z 112
_cell_length_a 14.026167
_cell_length_b 14.026167
_cell_length_c 35.396792
_cell_angle_alpha 90.000000
_cell_angle_beta 90.000000
_cell_angle_gamma 90.000000
_cell_volume 6963.729849
_symmetry_space_group_name_H-M "P 4/N M M"
_symmetry_group_IT_number 129
_symmetry_cell_setting 'tetragonal'
loop_
_space_group_symop_operation_xyz
x,y,z
1/2-y,x,z
1/2-x,1/2-y,z
y,1/2-x,z
1/2+x,-y,-z
-x,1/2+y,-z
1/2+y,1/2+x,-z
-y,-x,-z
-x,-y,-z
1/2+y,-x,-z
1/2+x,1/2+y,-z
-y,1/2+x,-z
1/2-x,y,z
x,1/2-y,z
1/2-y,1/2-x,z
y,x,z
loop_
_atom_site_type_symbol
_atom_site_label
_atom_site_fract_x
_atom_site_fract_y
_atom_site_fract_z
Si Si1 0.136191 0.979233 0.469890
Si Si2 0.860502 0.484258 0.242992
Si Si3 0.641517 0.488944 0.328613
Si Si4 0.016006 0.639989 0.808622
Si Si5 0.144653 0.863830 0.958743
Si Si6 0.990398 0.141324 0.105903
Si Si7 0.142407 0.639503 0.602811
O O1 0.096656 0.903345 0.500000
O O2 0.250000 0.995454 0.475788
O O3 0.112917 0.932701 0.429522
O O4 0.080507 0.080507 0.473216
O O5 0.750000 0.504084 0.233896
O O6 0.918367 0.581634 0.234660
O O7 0.875759 0.450609 0.286219
O O8 0.898312 0.398492 0.217116
O O9 0.750000 0.518293 0.334732
O O10 0.584280 0.584280 0.336854
O O11 0.609246 0.409169 0.358343
O O12 0.994875 0.750000 0.798744
O O13 0.919176 0.580825 0.800965
O O14 0.051160 0.628786 0.851899
O O15 0.250000 0.906347 0.952622
O O16 0.149039 0.750000 0.957546
O O17 0.081198 0.904878 0.924617
O O18 0.104477 0.895524 0.000000
O O19 0.009425 0.250000 0.095724
O O20 0.092024 0.092024 0.102471
O O21 0.250000 0.608094 0.590879
O O22 0.140255 0.750000 0.611545
#
# Coordination Sequence:
#
# PCOD8315298 Si02
#       7
#    16  16  16  16  16  16  16
#     4  10  20  33  50  71  94 122 155 190 229 271
#     4   9  18  31  46  66  91 118 149 184 221 262
#     4   9  17  29  45  65  90 118 146 178 216 258
#     4   9  18  31  45  63  87 113 143 180 220 263
#     4   8  14  25  40  58  81 107 135 169 206 242
#     4   9  17  28  42  61  84 109 137 168 204 249
#     4   9  17  29  46  68  92 118 150 186 221 260
#
# _framework density 16.083335000000002
#
# number of rings (size 3 to 8) (size 9 to 14) (size 15 to 20)
#    0.000    3.000    0.000    1.286    0.000    3.143 
#    0.000    5.714    0.000    0.000    0.000    2.000 
#    0.000    3.714    0.000    0.286    0.000    0.286 
#
# Total GULP energy -1388274.037085 kJ/mol
# GULP energy per Si atom -12395.303903 kJ/mol
# Density = 1.604673 g / cm^3
# Si number density = 16.083335 Si / 1000 Ang^3
#
#
#
# Elastic Constant Matrix: (Units=GPa)
#
#
# Indices 1 2 3 4 5 6 
#
# 1 81.1862 43.4724 56.4367 0.0000 0.0000 0.0000
# 2 43.4724 81.1869 56.4367 0.0000 0.0000 0.0000
# 3 56.4367 56.4367 107.6920 0.0000 0.0000 0.0000
# 4 0.0000 0.0000 0.0000 25.5186 0.0000 0.0000
# 5 0.0000 0.0000 0.0000 0.0000 25.5187 0.0000
# 6 0.0000 0.0000 0.0000 0.0000 0.0000 18.7752
#
#
#
# Elastic Compliance Matrix: (Units=1/GPa)
#
#
# Indices 1 2 3 4 5 6 
#
# 1 0.020891 -0.005625 -0.008000 0.000000 0.000000 0.000000
# 2 -0.005625 0.020890 -0.008000 0.000000 0.000000 0.000000
# 3 -0.008000 -0.008000 0.017671 0.000000 0.000000 0.000000
# 4 0.000000 0.000000 0.000000 0.039187 0.000000 0.000000
# 5 0.000000 0.000000 0.000000 0.000000 0.039187 0.000000
# 6 0.000000 0.000000 0.000000 0.000000 0.000000 0.053262
#
#
# Mechanical properties :
#
#
# Convention : Reuss Voigt Hill
#
# Bulk Modulus (GPa) = 61.72186 64.75076 63.23631
# Shear Modulus (GPa) = 20.85612 21.54378 21.19995
#
# Velocity S-wave (km/s) = 3.60495 3.66390 3.63455
# Velocity P-wave (km/s) = 7.46908 7.63190 7.55093
#
# Compressibility (1/GPa) = 0.01620172
#
# Stress axis : x y z
#
# Youngs Moduli (GPa) = 47.86847 47.86918 56.59100
#
# Poissons Ratio (x) = 0.26926 0.45273
# Poissons Ratio (y) = 0.26925 0.45272
# Poissons Ratio (z) = 0.38295 0.38295
#
# Static dielectric constant tensor:
#      x y z
#    x 2.972850 0.000000 0.000000 
#    y 0.000000 2.972850 0.000000 
#    z 0.000000 0.000000 3.283370 
# 
# 
# High freq. dielectric constant tensor:
#      x y z
#    x 1.604700 0.000000 0.000000 
#    y 0.000000 1.604700 0.000000 
#    z 0.000000 0.000000 1.629830 
# 
# From -- ./inp_files/7888.got.cif
#   From: 2010.03.12/outbox.cif.g09.slc.cpg/sg129_4_cif.got.tgz:7888.got - 2010.04.06 17:19:44.
