data_PCOD8315938
_publ_section_title
;
Structure prediction by ZEFSAII (Michael W. Deem and Ramdas Pophale) SiO2 
 PCOD8315938
Probable space group: P 42/M M C
;
_chemical_formula_sum "Si O2"
_cell_formula_units_Z 88
_cell_length_a 18.128380
_cell_length_b 18.128380
_cell_length_c 14.897918
_cell_angle_alpha 90.000000
_cell_angle_beta 90.000000
_cell_angle_gamma 90.000000
_cell_volume 4896.024381
_symmetry_space_group_name_H-M "P 42/M M C"
_symmetry_group_IT_number 131
_symmetry_cell_setting 'tetragonal'
loop_
_space_group_symop_operation_xyz
x,y,z
-x,-y,z
-y,x,1/2+z
y,-x,1/2+z
-x,y,-z
x,-y,-z
y,x,1/2-z
-y,-x,1/2-z
-x,-y,-z
x,y,-z
y,-x,1/2-z
-y,x,1/2-z
x,-y,z
-x,y,z
-y,-x,1/2+z
y,x,1/2+z
loop_
_atom_site_type_symbol
_atom_site_label
_atom_site_fract_x
_atom_site_fract_y
_atom_site_fract_z
Si Si1 0.918890 0.912335 0.000000
Si Si2 0.267726 0.414033 0.902016
Si Si3 0.582839 0.199090 0.777246
Si Si4 0.417817 0.361865 0.842643
Si Si5 0.915831 0.328230 0.604844
Si Si6 0.084621 0.836002 0.327200
O O1 0.878402 0.883443 0.087432
O O2 0.000000 0.878482 0.000000
O O3 0.918386 0.000000 0.000000
O O4 0.276009 0.500000 0.880353
O O5 0.216517 0.380476 0.821783
O O6 0.350921 0.382359 0.908349
O O7 0.231016 0.399639 0.000000
O O8 0.500000 0.170428 0.763192
O O9 0.585326 0.274123 0.832683
O O10 0.621815 0.136072 0.834371
O O11 0.404626 0.404626 0.750000
O O12 0.500000 0.383724 0.879044
O O13 0.890855 0.326683 0.500000
O O14 0.910115 0.249157 0.650330
O O15 0.000000 0.357142 0.610429
O O16 0.140922 0.859079 0.250000
O O17 0.000000 0.858499 0.303404
#
# Coordination Sequence:
#
# PCOD8315938 Si02
#       6
#     8  16  16  16  16  16
#     4   9  16  28  48  74 103 135 172 206 235 278
#     4   9  18  32  50  74 105 141 178 214 252 300
#     4   9  19  35  54  75  99 131 172 216 263 314
#     4   9  17  29  46  71 105 143 180 219 257 297
#     4  10  21  38  57  76 102 131 162 212 271 318
#     4  10  19  32  51  77 107 140 173 204 245 297
#
# _framework density 17.973765
#
# number of rings (size 3 to 8) (size 9 to 14) (size 15 to 20)
#    0.000    2.636    0.909    2.182    0.000    6.182 
#    0.000    3.636    2.000    0.545    0.000    2.545 
#    0.000    0.000    0.000    0.000    0.000    0.000 
#
# Total GULP energy -1090306.503773 kJ/mol
# GULP energy per Si atom -12389.846634 kJ/mol
# Density = 1.793286 g / cm^3
# Si number density = 17.973765 Si / 1000 Ang^3
#
#
#
# Elastic Constant Matrix: (Units=GPa)
#
#
# Indices 1 2 3 4 5 6 
#
# 1 72.7011 42.2638 49.8812 0.0000 0.0000 0.0000
# 2 42.2638 72.7023 49.8818 0.0000 0.0000 0.0000
# 3 49.8812 49.8818 132.0335 0.0000 0.0000 0.0000
# 4 0.0000 0.0000 0.0000 19.9753 0.0000 0.0000
# 5 0.0000 0.0000 0.0000 0.0000 19.9759 0.0000
# 6 0.0000 0.0000 0.0000 0.0000 0.0000 18.7328
#
#
#
# Elastic Compliance Matrix: (Units=1/GPa)
#
#
# Indices 1 2 3 4 5 6 
#
# 1 0.022897 -0.009957 -0.004889 0.000000 0.000000 0.000000
# 2 -0.009957 0.022897 -0.004889 0.000000 0.000000 0.000000
# 3 -0.004889 -0.004889 0.011268 0.000000 0.000000 0.000000
# 4 0.000000 0.000000 0.000000 0.050062 0.000000 0.000000
# 5 0.000000 0.000000 0.000000 0.000000 0.050060 0.000000
# 6 0.000000 0.000000 0.000000 0.000000 0.000000 0.053382
#
#
# Mechanical properties :
#
#
# Convention : Reuss Voigt Hill
#
# Bulk Modulus (GPa) = 56.83899 62.38783 59.61341
# Shear Modulus (GPa) = 19.53887 20.76413 20.15150
#
# Velocity S-wave (km/s) = 3.30066 3.40258 3.35201
# Velocity P-wave (km/s) = 6.79837 7.08679 6.94408
#
# Compressibility (1/GPa) = 0.01759356
#
# Stress axis : x y z
#
# Youngs Moduli (GPa) = 43.67316 43.67376 88.74813
#
# Poissons Ratio (x) = 0.43484 0.43388
# Poissons Ratio (y) = 0.43483 0.43388
# Poissons Ratio (z) = 0.21351 0.21352
#
# Static dielectric constant tensor:
#      x y z
#    x 3.225010 0.000000 0.000000 
#    y 0.000000 3.225010 0.000000 
#    z 0.000000 0.000000 3.429430 
# 
# 
# High freq. dielectric constant tensor:
#      x y z
#    x 1.677470 0.000000 0.000000 
#    y 0.000000 1.677470 0.000000 
#    z 0.000000 0.000000 1.701340 
# 
# From -- ./inp_files/5916.got.cif
#   From: 2010.03.12/outbox.cif.g09.slc.cpg/sg131_3_cif.got.tgz:5916.got - 2010.04.06 17:36:35.
