data_PCOD8315516
_publ_section_title
;
Structure prediction by ZEFSAII (Michael W. Deem and Ramdas Pophale) SiO2 
 PCOD8315516
Probable space group: P 4/N C C
;
_chemical_formula_sum "Si O2"
_cell_formula_units_Z 96
_cell_length_a 16.474909
_cell_length_b 16.474909
_cell_length_c 18.099832
_cell_angle_alpha 90.000000
_cell_angle_beta 90.000000
_cell_angle_gamma 90.000000
_cell_volume 4912.703942
_symmetry_space_group_name_H-M "P 4/N C C"
_symmetry_group_IT_number 130
_symmetry_cell_setting 'tetragonal'
loop_
_space_group_symop_operation_xyz
x,y,z
1/2-y,x,z
1/2-x,1/2-y,z
y,1/2-x,z
1/2+x,-y,1/2-z
-x,1/2+y,1/2-z
1/2+y,1/2+x,1/2-z
-y,-x,1/2-z
-x,-y,-z
1/2+y,-x,-z
1/2+x,1/2+y,-z
-y,1/2+x,-z
1/2-x,y,1/2+z
x,1/2-y,1/2+z
1/2-y,1/2-x,1/2+z
y,x,1/2+z
loop_
_atom_site_type_symbol
_atom_site_label
_atom_site_fract_x
_atom_site_fract_y
_atom_site_fract_z
Si Si1 0.304174 0.368635 0.511133
Si Si2 0.695438 0.487331 0.383832
Si Si3 0.873818 0.048394 0.124204
Si Si4 0.534897 0.762668 0.225662
Si Si5 0.871730 0.890988 0.646023
Si Si6 0.717681 0.124740 0.491970
O O1 0.209952 0.356586 0.532482
O O2 0.334499 0.446572 0.556457
O O3 0.311510 0.382064 0.423498
O O4 0.616239 0.439316 0.356555
O O5 0.735857 0.531008 0.313994
O O6 0.760711 0.425052 0.418264
O O7 0.826915 0.064727 0.048031
O O8 0.806812 0.044251 0.190107
O O9 0.919583 0.961022 0.117605
O O10 0.616014 0.808629 0.194565
O O11 0.541603 0.669055 0.199442
O O12 0.658817 0.199452 0.470780
#
# Coordination Sequence:
#
# PCOD8315516 Si02
#       6
#    16  16  16  16  16  16
#     4  11  22  37  58  86 118 160 210 255 297 381
#     4  11  22  38  62  92 126 155 205 269 310 349
#     4   9  21  40  63  85 125 165 197 252 324 370
#     4  10  22  37  60  85 118 165 199 248 307 375
#     4  10  20  39  61  80 117 162 205 237 306 382
#     4   9  18  37  65  92 120 162 214 257 304 368
#
# _framework density 19.541174000000002
#
# number of rings (size 3 to 8) (size 9 to 14) (size 15 to 20)
#    1.000    1.000    1.667    2.500    2.333    1.000 
#    0.000    2.500   11.000    4.000    0.000    0.000 
#    0.000    0.000    0.000    0.000    0.000    0.000 
#
# Total GULP energy -1189889.956875 kJ/mol
# GULP energy per Si atom -12394.687051 kJ/mol
# Density = 1.949670 g / cm^3
# Si number density = 19.541174 Si / 1000 Ang^3
#
#
#
# Elastic Constant Matrix: (Units=GPa)
#
#
# Indices 1 2 3 4 5 6 
#
# 1 92.2288 48.6929 54.2038 0.0000 0.0000 0.0000
# 2 48.6929 92.2288 54.2038 0.0000 0.0000 0.0000
# 3 54.2038 54.2038 118.6181 0.0000 0.0000 0.0000
# 4 0.0000 0.0000 0.0000 27.9673 0.0000 0.0000
# 5 0.0000 0.0000 0.0000 0.0000 27.9673 0.0000
# 6 0.0000 0.0000 0.0000 0.0000 0.0000 20.5605
#
#
#
# Elastic Compliance Matrix: (Units=1/GPa)
#
#
# Indices 1 2 3 4 5 6 
#
# 1 0.016956 -0.006013 -0.005000 0.000000 0.000000 0.000000
# 2 -0.006013 0.016956 -0.005000 0.000000 0.000000 0.000000
# 3 -0.005000 -0.005000 0.013000 0.000000 0.000000 0.000000
# 4 0.000000 0.000000 0.000000 0.035756 0.000000 0.000000
# 5 0.000000 0.000000 0.000000 0.000000 0.035756 0.000000
# 6 0.000000 0.000000 0.000000 0.000000 0.000000 0.048637
#
#
# Mechanical properties :
#
#
# Convention : Reuss Voigt Hill
#
# Bulk Modulus (GPa) = 67.18468 68.58629 67.88549
# Shear Modulus (GPa) = 24.50359 25.03071 24.76715
#
# Velocity S-wave (km/s) = 3.54495 3.58288 3.56397
# Velocity P-wave (km/s) = 7.15621 7.23122 7.19381
#
# Compressibility (1/GPa) = 0.01488435
#
# Stress axis : x y z
#
# Youngs Moduli (GPa) = 58.97547 58.97547 76.92045
#
# Poissons Ratio (x) = 0.35464 0.38464
# Poissons Ratio (y) = 0.35464 0.38464
# Poissons Ratio (z) = 0.29490 0.29490
#
# Static dielectric constant tensor:
#      x y z
#    x 3.462660 0.000000 0.000000 
#    y 0.000000 3.462660 0.000000 
#    z 0.000000 0.000000 3.331640 
# 
# 
# High freq. dielectric constant tensor:
#      x y z
#    x 1.751320 0.000000 0.000000 
#    y 0.000000 1.751320 0.000000 
#    z 0.000000 0.000000 1.752710 
# 
# From -- ./inp_files/3088.got.cif
#   From: 2010.03.12/outbox.cif.g09.slc.cpg/sg130_2_cif.got.tgz:3088.got - 2010.04.06 17:30:23.
