data_PCOD8315274
_publ_section_title
;
Structure prediction by ZEFSAII (Michael W. Deem and Ramdas Pophale) SiO2 
 PCOD8315274
Probable space group: P 4/N M M
;
_chemical_formula_sum "Si O2"
_cell_formula_units_Z 112
_cell_length_a 17.641279
_cell_length_b 17.641279
_cell_length_c 21.563071
_cell_angle_alpha 90.000000
_cell_angle_beta 90.000000
_cell_angle_gamma 90.000000
_cell_volume 6710.745206
_symmetry_space_group_name_H-M "P 4/N M M"
_symmetry_group_IT_number 129
_symmetry_cell_setting 'tetragonal'
loop_
_space_group_symop_operation_xyz
x,y,z
1/2-y,x,z
1/2-x,1/2-y,z
y,1/2-x,z
1/2+x,-y,-z
-x,1/2+y,-z
1/2+y,1/2+x,-z
-y,-x,-z
-x,-y,-z
1/2+y,-x,-z
1/2+x,1/2+y,-z
-y,1/2+x,-z
1/2-x,y,z
x,1/2-y,z
1/2-y,1/2-x,z
y,x,z
loop_
_atom_site_type_symbol
_atom_site_label
_atom_site_fract_x
_atom_site_fract_y
_atom_site_fract_z
Si Si1 0.338057 0.462512 0.107690
Si Si2 0.105397 0.833575 0.563519
Si Si3 0.665599 0.951919 0.498705
Si Si4 0.472340 0.838904 0.373858
Si Si5 0.041105 0.336541 0.962388
Si Si6 0.919259 0.454552 0.136528
Si Si7 0.962532 0.660256 0.241653
O O1 0.250000 0.451165 0.128362
O O2 0.387216 0.387216 0.126004
O O3 0.371630 0.540366 0.138049
O O4 0.343808 0.476450 0.034550
O O5 0.149882 0.850119 0.500000
O O6 0.128058 0.750000 0.586176
O O7 0.124031 0.889401 0.620164
O O8 0.016491 0.838707 0.550103
O O9 0.750000 0.921320 0.489268
O O10 0.616429 0.883572 0.524715
O O11 0.632706 0.978845 0.432348
O O12 0.460147 0.750000 0.377927
O O13 0.512222 0.862964 0.310550
O O14 0.056444 0.250000 0.942724
O O15 0.116318 0.383683 0.943969
O O16 0.968315 0.368684 0.925069
O O17 0.865890 0.469538 0.196169
O O18 0.988137 0.511864 0.135909
O O19 0.947573 0.750000 0.234939
O O20 0.884545 0.615456 0.226095
#
# Coordination Sequence:
#
# PCOD8315274 Si02
#       7
#    16  16  16  16  16  16  16
#     4   9  17  29  47  70  93 117 146 183 228 275
#     4   9  17  28  44  66  88 111 142 180 221 265
#     4   9  17  28  42  62  87 114 145 180 218 261
#     4   9  18  30  43  63  90 117 146 178 213 256
#     4   9  16  26  43  67  93 121 152 187 226 267
#     4   9  17  30  46  64  89 121 155 186 218 262
#     4  10  20  33  49  68  91 120 152 186 221 257
#
# _framework density 16.689651000000001
#
# number of rings (size 3 to 8) (size 9 to 14) (size 15 to 20)
#    0.000    2.857    0.000    2.571    0.000    6.429 
#    0.000    2.143    0.000    7.714    0.000    4.000 
#    0.000    0.000    0.000    4.286    0.000    0.429 
#
# Total GULP energy -1388138.625133 kJ/mol
# GULP energy per Si atom -12394.094867 kJ/mol
# Density = 1.665166 g / cm^3
# Si number density = 16.689651 Si / 1000 Ang^3
#
#
#
# Elastic Constant Matrix: (Units=GPa)
#
#
# Indices 1 2 3 4 5 6 
#
# 1 91.3124 59.0817 19.4276 0.0000 0.0000 0.0000
# 2 59.0817 91.3126 19.4273 0.0000 0.0000 0.0000
# 3 19.4276 19.4273 39.7074 0.0000 0.0000 0.0000
# 4 0.0000 0.0000 0.0000 19.4268 0.0000 0.0000
# 5 0.0000 0.0000 0.0000 0.0000 19.4268 0.0000
# 6 0.0000 0.0000 0.0000 0.0000 0.0000 36.3408
#
#
#
# Elastic Compliance Matrix: (Units=1/GPa)
#
#
# Indices 1 2 3 4 5 6 
#
# 1 0.019319 -0.011707 -0.003724 0.000000 0.000000 0.000000
# 2 -0.011707 0.019319 -0.003724 0.000000 0.000000 0.000000
# 3 -0.003724 -0.003724 0.028828 0.000000 0.000000 0.000000
# 4 0.000000 0.000000 0.000000 0.051475 0.000000 0.000000
# 5 0.000000 0.000000 0.000000 0.000000 0.051475 0.000000
# 6 0.000000 0.000000 0.000000 0.000000 0.000000 0.027517
#
#
# Mechanical properties :
#
#
# Convention : Reuss Voigt Hill
#
# Bulk Modulus (GPa) = 34.29941 46.46729 40.38335
# Shear Modulus (GPa) = 20.32828 23.33193 21.83011
#
# Velocity S-wave (km/s) = 3.49380 3.74302 3.62056
# Velocity P-wave (km/s) = 6.07218 6.82515 6.45965
#
# Compressibility (1/GPa) = 0.02915502
#
# Stress axis : x y z
#
# Youngs Moduli (GPa) = 51.76295 51.76326 34.68828
#
# Poissons Ratio (x) = 0.60602 0.12918
# Poissons Ratio (y) = 0.60601 0.12917
# Poissons Ratio (z) = 0.19277 0.19276
#
# Static dielectric constant tensor:
#      x y z
#    x 3.169060 0.000000 0.000000 
#    y 0.000000 3.169060 0.000000 
#    z 0.000000 0.000000 3.013220 
# 
# 
# High freq. dielectric constant tensor:
#      x y z
#    x 1.637030 0.000000 0.000000 
#    y 0.000000 1.637030 0.000000 
#    z 0.000000 0.000000 1.617160 
# 
# From -- ./inp_files/6675.got.cif
#   From: 2010.03.12/outbox.cif.g09.slc.cpg/sg129_4_cif.got.tgz:6675.got - 2010.04.06 17:19:44.
