data_PCOD8315790
_publ_section_title
;
Structure prediction by ZEFSAII (Michael W. Deem and Ramdas Pophale) SiO2 
 PCOD8315790
Probable space group: P 42/M M C
;
_chemical_formula_sum "Si O2"
_cell_formula_units_Z 96
_cell_length_a 23.654452
_cell_length_b 23.654452
_cell_length_c 9.834290
_cell_angle_alpha 90.000000
_cell_angle_beta 90.000000
_cell_angle_gamma 90.000000
_cell_volume 5502.610764
_symmetry_space_group_name_H-M "P 42/M M C"
_symmetry_group_IT_number 131
_symmetry_cell_setting 'tetragonal'
loop_
_space_group_symop_operation_xyz
x,y,z
-x,-y,z
-y,x,1/2+z
y,-x,1/2+z
-x,y,-z
x,-y,-z
y,x,1/2-z
-y,-x,1/2-z
-x,-y,-z
x,y,-z
y,-x,1/2-z
-y,x,1/2-z
x,-y,z
-x,y,z
-y,-x,1/2+z
y,x,1/2+z
loop_
_atom_site_type_symbol
_atom_site_label
_atom_site_fract_x
_atom_site_fract_y
_atom_site_fract_z
Si Si1 0.933110 0.353150 0.346781
Si Si2 0.768843 0.933619 0.235137
Si Si3 0.640942 0.565337 0.343513
Si Si4 0.433161 0.133263 0.341307
Si Si5 0.566989 0.233190 0.849988
Si Si6 0.932686 0.169796 0.000000
Si Si7 0.065884 0.854420 0.500000
O O1 0.911894 0.367944 0.500000
O O2 0.906971 0.292235 0.302452
O O3 0.916421 0.401060 0.238032
O O4 0.000000 0.349754 0.346572
O O5 0.793188 0.909543 0.375227
O O6 0.760016 0.000000 0.244978
O O7 0.816294 0.918389 0.127259
O O8 0.597837 0.597837 0.250000
O O9 0.624162 0.574620 0.500000
O O10 0.637185 0.500000 0.303446
O O11 0.704067 0.589162 0.316075
O O12 0.415849 0.134648 0.500000
O O13 0.500000 0.123219 0.325116
O O14 0.412868 0.191175 0.268924
O O15 0.500000 0.235238 0.856071
O O16 0.589323 0.213954 0.000000
O O17 0.909160 0.105862 0.000000
O O18 0.000000 0.162723 0.000000
O O19 0.000000 0.873851 0.500000
#
# Coordination Sequence:
#
# PCOD8315790 Si02
#       7
#    16  16  16  16  16   8   8
#     4  10  20  35  55  76 100 137 178 209 244 296
#     4   9  18  33  51  74 101 135 178 214 248 298
#     4   9  18  31  48  72 100 132 170 210 253 300
#     4  10  21  34  51  80 110 132 159 204 260 306
#     4   8  15  31  52  71  95 131 172 205 239 294
#     4  10  20  31  50  80 107 135 171 213 265 315
#     4  10  18  33  54  74 105 139 171 215 259 307
#
# _framework density 17.446263999999999
#
# number of rings (size 3 to 8) (size 9 to 14) (size 15 to 20)
#    0.000    2.667    0.833    2.000    1.167    3.000 
#    0.000    4.167    0.000    5.000    0.000    0.000 
#    0.000    0.000    0.000    0.000    0.000    0.000 
#
# Total GULP energy -1189828.475929 kJ/mol
# GULP energy per Si atom -12394.046624 kJ/mol
# Density = 1.740656 g / cm^3
# Si number density = 17.446264 Si / 1000 Ang^3
#
#
#
# Elastic Constant Matrix: (Units=GPa)
#
#
# Indices 1 2 3 4 5 6 
#
# 1 62.1470 33.6305 50.3289 0.0000 0.0000 0.0000
# 2 33.6305 62.1470 50.3289 0.0000 0.0000 0.0000
# 3 50.3289 50.3289 155.2321 0.0000 0.0000 0.0000
# 4 0.0000 0.0000 0.0000 57.4516 0.0000 0.0000
# 5 0.0000 0.0000 0.0000 0.0000 57.4516 0.0000
# 6 0.0000 0.0000 0.0000 0.0000 0.0000 5.5452
#
#
#
# Elastic Compliance Matrix: (Units=1/GPa)
#
#
# Indices 1 2 3 4 5 6 
#
# 1 0.025452 -0.009615 -0.005135 0.000000 0.000000 0.000000
# 2 -0.009615 0.025452 -0.005135 0.000000 0.000000 0.000000
# 3 -0.005135 -0.005135 0.009771 0.000000 0.000000 0.000000
# 4 0.000000 0.000000 0.000000 0.017406 0.000000 0.000000
# 5 0.000000 0.000000 0.000000 0.000000 0.017406 0.000000
# 6 0.000000 0.000000 0.000000 0.000000 0.000000 0.180338
#
#
# Mechanical properties :
#
#
# Convention : Reuss Voigt Hill
#
# Bulk Modulus (GPa) = 47.83062 60.90031 54.36547
# Shear Modulus (GPa) = 15.50082 33.77217 24.63650
#
# Velocity S-wave (km/s) = 2.98399 4.40453 3.76192
# Velocity P-wave (km/s) = 6.27278 7.80062 7.07804
#
# Compressibility (1/GPa) = 0.02090711
#
# Stress axis : x y z
#
# Youngs Moduli (GPa) = 39.28921 39.28921 102.33860
#
# Poissons Ratio (x) = 0.37777 0.52548
# Poissons Ratio (y) = 0.37777 0.52548
# Poissons Ratio (z) = 0.20174 0.20174
#
# Static dielectric constant tensor:
#      x y z
#    x 3.119570 0.000000 0.000000 
#    y 0.000000 3.119570 0.000000 
#    z 0.000000 0.000000 3.405110 
# 
# 
# High freq. dielectric constant tensor:
#      x y z
#    x 1.653820 0.000000 0.000000 
#    y 0.000000 1.653820 0.000000 
#    z 0.000000 0.000000 1.689940 
# 
# From -- ./inp_files/2307.got.cif
#   From: 2010.03.12/outbox.cif.g09.slc.cpg/sg131_2_cif.got.tgz:2307.got - 2010.04.06 17:36:35.
