data_PCOD8315066
_publ_section_title
;
Structure prediction by ZEFSAII (Michael W. Deem and Ramdas Pophale) SiO2 
 PCOD8315066
Probable space group: P 4/N M M
;
_chemical_formula_sum "Si O2"
_cell_formula_units_Z 88
_cell_length_a 13.253085
_cell_length_b 13.253085
_cell_length_c 28.409468
_cell_angle_alpha 90.000000
_cell_angle_beta 90.000000
_cell_angle_gamma 90.000000
_cell_volume 4989.960041
_symmetry_space_group_name_H-M "P 4/N M M"
_symmetry_group_IT_number 129
_symmetry_cell_setting 'tetragonal'
loop_
_space_group_symop_operation_xyz
x,y,z
1/2-y,x,z
1/2-x,1/2-y,z
y,1/2-x,z
1/2+x,-y,-z
-x,1/2+y,-z
1/2+y,1/2+x,-z
-y,-x,-z
-x,-y,-z
1/2+y,-x,-z
1/2+x,1/2+y,-z
-y,1/2+x,-z
1/2-x,y,z
x,1/2-y,z
1/2-y,1/2-x,z
y,x,z
loop_
_atom_site_type_symbol
_atom_site_label
_atom_site_fract_x
_atom_site_fract_y
_atom_site_fract_z
Si Si1 0.868903 0.030260 0.718326
Si Si2 0.368272 0.533798 0.455852
Si Si3 0.132154 0.966329 0.632779
Si Si4 0.630445 0.138303 0.813044
Si Si5 0.633178 0.133178 0.000000
Si Si6 0.473643 0.868808 0.905555
O O1 0.750000 0.011885 0.714554
O O2 0.904464 0.112744 0.680541
O O3 0.903054 0.069855 0.769348
O O4 0.923597 0.923597 0.708622
O O5 0.397191 0.602810 0.500000
O O6 0.250000 0.508726 0.456589
O O7 0.427650 0.427650 0.457354
O O8 0.395254 0.596529 0.409519
O O9 0.250000 0.991390 0.628109
O O10 0.072170 0.072170 0.632255
O O11 0.750000 0.145784 0.814468
O O12 0.583636 0.250000 0.807464
O O13 0.590550 0.091893 0.861827
O O14 0.577393 0.093248 0.046342
O O15 0.611418 0.250000 0.991884
O O16 0.485904 0.750000 0.903836
O O17 0.584869 0.915132 0.902240
#
# Coordination Sequence:
#
# PCOD8315066 Si02
#       6
#    16  16  16  16   8  16
#     4  10  20  33  50  74 103 134 168 204 244 294
#     4  10  21  36  54  78 106 136 172 211 252 301
#     4  10  21  36  54  77 103 132 169 211 255 303
#     4   9  17  30  48  68  90 119 156 197 239 280
#     4   9  17  30  48  68  89 115 150 194 240 277
#     4  10  19  30  45  66  93 123 154 189 231 283
#
# _framework density 17.635411000000001
#
# number of rings (size 3 to 8) (size 9 to 14) (size 15 to 20)
#    0.000    2.273    0.000    3.000    0.000    6.000 
#    0.000    0.000    0.000    9.818    0.000    0.000 
#    0.000   14.909    0.000    0.000    0.000    0.000 
#
# Total GULP energy -1091250.325272 kJ/mol
# GULP energy per Si atom -12400.571878 kJ/mol
# Density = 1.759527 g / cm^3
# Si number density = 17.635411 Si / 1000 Ang^3
#
#
#
# Elastic Constant Matrix: (Units=GPa)
#
#
# Indices 1 2 3 4 5 6 
#
# 1 102.7089 48.2413 43.2455 0.0000 0.0000 0.0000
# 2 48.2413 102.7093 43.2451 0.0000 0.0000 0.0000
# 3 43.2455 43.2451 134.2172 0.0000 0.0000 0.0000
# 4 0.0000 0.0000 0.0000 24.2578 0.0000 0.0000
# 5 0.0000 0.0000 0.0000 0.0000 24.2576 0.0000
# 6 0.0000 0.0000 0.0000 0.0000 0.0000 18.2166
#
#
#
# Elastic Compliance Matrix: (Units=1/GPa)
#
#
# Indices 1 2 3 4 5 6 
#
# 1 0.013242 -0.005117 -0.002618 0.000000 0.000000 0.000000
# 2 -0.005117 0.013242 -0.002618 0.000000 0.000000 0.000000
# 3 -0.002618 -0.002618 0.009138 0.000000 0.000000 0.000000
# 4 0.000000 0.000000 0.000000 0.041224 0.000000 0.000000
# 5 0.000000 0.000000 0.000000 0.000000 0.041224 0.000000
# 6 0.000000 0.000000 0.000000 0.000000 0.000000 0.054895
#
#
# Mechanical properties :
#
#
# Convention : Reuss Voigt Hill
#
# Bulk Modulus (GPa) = 67.04378 67.67770 67.36074
# Shear Modulus (GPa) = 25.17083 27.00662 26.08872
#
# Velocity S-wave (km/s) = 3.78205 3.91754 3.85039
# Velocity P-wave (km/s) = 7.56115 7.67608 7.61883
#
# Compressibility (1/GPa) = 0.01491563
#
# Stress axis : x y z
#
# Youngs Moduli (GPa) = 75.51682 75.51733 109.43877
#
# Poissons Ratio (x) = 0.38645 0.28649
# Poissons Ratio (y) = 0.38645 0.28648
# Poissons Ratio (z) = 0.19769 0.19769
#
# Static dielectric constant tensor:
#      x y z
#    x 3.105630 0.000000 0.000000 
#    y 0.000000 3.105630 0.000000 
#    z 0.000000 0.000000 3.626820 
# 
# 
# High freq. dielectric constant tensor:
#      x y z
#    x 1.668520 0.000000 0.000000 
#    y 0.000000 1.668520 0.000000 
#    z 0.000000 0.000000 1.706640 
# 
# From -- ./inp_files/7761.got.cif
#   From: 2010.03.12/outbox.cif.g09.slc.cpg/sg129_4_cif.got.tgz:7761.got - 2010.04.06 17:19:44.
