data_PCOD8315263
_publ_section_title
;
Structure prediction by ZEFSAII (Michael W. Deem and Ramdas Pophale) SiO2 
 PCOD8315263
Probable space group: P 4/N M M
;
_chemical_formula_sum "Si O2"
_cell_formula_units_Z 96
_cell_length_a 26.162210
_cell_length_b 26.162210
_cell_length_c 7.792034
_cell_angle_alpha 90.000000
_cell_angle_beta 90.000000
_cell_angle_gamma 90.000000
_cell_volume 5333.345192
_symmetry_space_group_name_H-M "P 4/N M M"
_symmetry_group_IT_number 129
_symmetry_cell_setting 'tetragonal'
loop_
_space_group_symop_operation_xyz
x,y,z
1/2-y,x,z
1/2-x,1/2-y,z
y,1/2-x,z
1/2+x,-y,-z
-x,1/2+y,-z
1/2+y,1/2+x,-z
-y,-x,-z
-x,-y,-z
1/2+y,-x,-z
1/2+x,1/2+y,-z
-y,1/2+x,-z
1/2-x,y,z
x,1/2-y,z
1/2-y,1/2-x,z
y,x,z
loop_
_atom_site_type_symbol
_atom_site_label
_atom_site_fract_x
_atom_site_fract_y
_atom_site_fract_z
Si Si1 0.457300 0.960047 0.296419
Si Si2 0.610268 0.308344 0.562673
Si Si3 0.994259 0.809082 0.472330
Si Si4 0.979192 0.809309 0.076954
Si Si5 0.076333 0.641492 0.116604
Si Si6 0.542702 0.874920 0.773430
O O1 0.452335 0.952335 0.500000
O O2 0.455038 0.904330 0.211403
O O3 0.511083 0.988918 0.254418
O O4 0.410709 0.992466 0.215522
O O5 0.653243 0.346758 0.500000
O O6 0.626794 0.250000 0.525812
O O7 0.553971 0.320443 0.485757
O O8 0.605101 0.318214 0.763465
O O9 0.982685 0.750000 0.495144
O O10 0.977230 0.825045 0.278471
O O11 0.960351 0.838187 0.609681
O O12 0.966463 0.750000 0.048506
O O13 0.036312 0.823689 0.010996
O O14 0.944932 0.843667 0.949411
O O15 0.120709 0.620709 0.000000
O O16 0.591714 0.908287 0.734728
#
# Coordination Sequence:
#
# PCOD8315263 Si02
#       6
#    16  16  16  16  16  16
#     4  10  20  32  48  73 107 141 174 215 261 314
#     4  10  21  37  56  75  96 127 176 228 282 329
#     4   9  19  36  56  77 105 143 184 226 264 317
#     4  10  21  36  53  76 107 143 183 224 267 316
#     4  11  19  32  53  74 102 134 178 221 257 316
#     4  11  21  33  52  80 111 145 180 218 267 325
#
# _framework density 17.999960000000002
#
# number of rings (size 3 to 8) (size 9 to 14) (size 15 to 20)
#    0.000    1.833    1.667    5.500    0.000    1.833 
#    0.000    0.833    0.000    0.000    0.000    0.000 
#    0.000    5.333    0.000   14.667    0.000    1.000 
#
# Total GULP energy -1189520.218583 kJ/mol
# GULP energy per Si atom -12390.835610 kJ/mol
# Density = 1.795899 g / cm^3
# Si number density = 17.999960 Si / 1000 Ang^3
#
#
#
# Elastic Constant Matrix: (Units=GPa)
#
#
# Indices 1 2 3 4 5 6 
#
# 1 86.5581 26.0059 37.5974 0.0000 0.0000 0.0000
# 2 26.0059 86.5593 37.5992 0.0000 0.0000 0.0000
# 3 37.5974 37.5992 68.0792 0.0000 0.0000 0.0000
# 4 0.0000 0.0000 0.0000 31.3441 0.0000 0.0000
# 5 0.0000 0.0000 0.0000 0.0000 31.3602 0.0000
# 6 0.0000 0.0000 0.0000 0.0000 0.0000 24.5712
#
#
#
# Elastic Compliance Matrix: (Units=1/GPa)
#
#
# Indices 1 2 3 4 5 6 
#
# 1 0.015296 -0.001219 -0.007774 0.000000 0.000000 0.000000
# 2 -0.001219 0.015296 -0.007775 0.000000 0.000000 0.000000
# 3 -0.007774 -0.007775 0.023276 0.000000 0.000000 0.000000
# 4 0.000000 0.000000 0.000000 0.031904 0.000000 0.000000
# 5 0.000000 0.000000 0.000000 0.000000 0.031888 0.000000
# 6 0.000000 0.000000 0.000000 0.000000 0.000000 0.040698
#
#
# Mechanical properties :
#
#
# Convention : Reuss Voigt Hill
#
# Bulk Modulus (GPa) = 49.18188 49.28908 49.23548
# Shear Modulus (GPa) = 25.16726 26.78802 25.97764
#
# Velocity S-wave (km/s) = 3.74329 3.86194 3.80308
# Velocity P-wave (km/s) = 6.78716 6.87957 6.83352
#
# Compressibility (1/GPa) = 0.02033269
#
# Stress axis : x y z
#
# Youngs Moduli (GPa) = 65.37702 65.37624 42.96235
#
# Poissons Ratio (x) = 0.07966 0.33400
# Poissons Ratio (y) = 0.07966 0.33403
# Poissons Ratio (z) = 0.50826 0.50829
#
# Static dielectric constant tensor:
#      x y z
#    x 3.107910 0.000000 0.000000 
#    y 0.000000 3.107840 0.000000 
#    z 0.000000 0.000000 3.282850 
# 
# 
# High freq. dielectric constant tensor:
#      x y z
#    x 1.677910 0.000000 0.000000 
#    y 0.000000 1.677910 0.000000 
#    z 0.000000 0.000000 1.703860 
# 
# From -- ./inp_files/2646.got.cif
#   From: 2010.03.12/outbox.cif.g09.slc.cpg/sg129_2_cif.got.tgz:2646.got - 2010.04.06 17:19:44.
