data_PCOD8315331
_publ_section_title
;
Structure prediction by ZEFSAII (Michael W. Deem and Ramdas Pophale) SiO2 
 PCOD8315331
Probable space group: P 4/N M M
;
_chemical_formula_sum "Si O2"
_cell_formula_units_Z 64
_cell_length_a 19.544003
_cell_length_b 19.544003
_cell_length_c 9.946839
_cell_angle_alpha 90.000000
_cell_angle_beta 90.000000
_cell_angle_gamma 90.000000
_cell_volume 3799.374729
_symmetry_space_group_name_H-M "P 4/N M M"
_symmetry_group_IT_number 129
_symmetry_cell_setting 'tetragonal'
loop_
_space_group_symop_operation_xyz
x,y,z
1/2-y,x,z
1/2-x,1/2-y,z
y,1/2-x,z
1/2+x,-y,-z
-x,1/2+y,-z
1/2+y,1/2+x,-z
-y,-x,-z
-x,-y,-z
1/2+y,-x,-z
1/2+x,1/2+y,-z
-y,1/2+x,-z
1/2-x,y,z
x,1/2-y,z
1/2-y,1/2-x,z
y,x,z
loop_
_atom_site_type_symbol
_atom_site_label
_atom_site_fract_x
_atom_site_fract_y
_atom_site_fract_z
Si Si1 0.402595 0.982439 0.693939
Si Si2 0.937915 0.674084 0.846768
Si Si3 0.117859 0.493723 0.406943
Si Si4 0.060713 0.669816 0.040737
O O1 0.436375 0.908582 0.661642
O O2 0.351661 0.971633 0.817316
O O3 0.457395 0.042606 0.728286
O O4 0.356207 0.999536 0.561030
O O5 0.913423 0.750000 0.885153
O O6 0.876678 0.623323 0.881671
O O7 0.957602 0.673589 0.688293
O O8 0.003946 0.651713 0.930121
O O9 0.048957 0.451044 0.415459
O O10 0.078992 0.750000 0.042986
O O11 0.128819 0.628819 0.000000
#
# Coordination Sequence:
#
# PCOD8315331 Si02
#       4
#    16  16  16  16
#     4   9  16  29  51  76 100 124 156 202 253 296
#     4  10  20  33  51  76 104 134 168 204 245 294
#     4   8  15  28  49  76 100 124 155 198 249 294
#     4  11  22  34  50  72  97 132 172 210 253 298
#
# _framework density 16.844877
#
# number of rings (size 3 to 8) (size 9 to 14) (size 15 to 20)
#    0.000    2.500    2.500    2.250    0.000    2.500 
#    0.000    0.000    0.000    0.000    0.000    0.000 
#    0.000    6.000    0.000    0.000    0.000    0.000 
#
# Total GULP energy -793001.150311 kJ/mol
# GULP energy per Si atom -12390.642974 kJ/mol
# Density = 1.680654 g / cm^3
# Si number density = 16.844877 Si / 1000 Ang^3
#
#
#
# Elastic Constant Matrix: (Units=GPa)
#
#
# Indices 1 2 3 4 5 6 
#
# 1 79.7379 56.5802 43.5877 0.0000 0.0000 0.0000
# 2 56.5802 79.7379 43.5877 0.0000 0.0000 0.0000
# 3 43.5877 43.5877 117.7263 0.0000 0.0000 0.0000
# 4 0.0000 0.0000 0.0000 18.6393 0.0000 0.0000
# 5 0.0000 0.0000 0.0000 0.0000 18.6393 0.0000
# 6 0.0000 0.0000 0.0000 0.0000 0.0000 19.0411
#
#
#
# Elastic Compliance Matrix: (Units=1/GPa)
#
#
# Indices 1 2 3 4 5 6 
#
# 1 0.026397 -0.016785 -0.003559 0.000000 0.000000 0.000000
# 2 -0.016785 0.026397 -0.003559 0.000000 0.000000 0.000000
# 3 -0.003559 -0.003559 0.011129 0.000000 0.000000 0.000000
# 4 0.000000 0.000000 0.000000 0.053650 0.000000 0.000000
# 5 0.000000 0.000000 0.000000 0.000000 0.053650 0.000000
# 6 0.000000 0.000000 0.000000 0.000000 0.000000 0.052518
#
#
# Mechanical properties :
#
#
# Convention : Reuss Voigt Hill
#
# Bulk Modulus (GPa) = 62.04264 62.74594 62.39429
# Shear Modulus (GPa) = 18.05582 20.16036 19.10809
#
# Velocity S-wave (km/s) = 3.27752 3.46327 3.37167
# Velocity P-wave (km/s) = 7.15783 7.30222 7.23039
#
# Compressibility (1/GPa) = 0.01611795
#
# Stress axis : x y z
#
# Youngs Moduli (GPa) = 37.88336 37.88336 89.85191
#
# Poissons Ratio (x) = 0.63588 0.31975
# Poissons Ratio (y) = 0.63588 0.31975
# Poissons Ratio (z) = 0.13481 0.13481
#
# Static dielectric constant tensor:
#      x y z
#    x 2.899230 0.000000 0.000000 
#    y 0.000000 2.899230 0.000000 
#    z 0.000000 0.000000 3.501260 
# 
# 
# High freq. dielectric constant tensor:
#      x y z
#    x 1.624480 0.000000 0.000000 
#    y 0.000000 1.624480 0.000000 
#    z 0.000000 0.000000 1.668870 
# 
# From -- ./inp_files/2042.got.cif
#   From: 2010.03.12/outbox.cif.g09.slc.cpg/sg129_2_cif.got.tgz:2042.got - 2010.04.06 17:19:44.
