data_PCOD8315103
_publ_section_title
;
Structure prediction by ZEFSAII (Michael W. Deem and Ramdas Pophale) SiO2 
 PCOD8315103
Probable space group: P 4/N M M
;
_chemical_formula_sum "Si O2"
_cell_formula_units_Z 128
_cell_length_a 23.501436
_cell_length_b 23.501436
_cell_length_c 12.929970
_cell_angle_alpha 90.000000
_cell_angle_beta 90.000000
_cell_angle_gamma 90.000000
_cell_volume 7141.448629
_symmetry_space_group_name_H-M "P 4/N M M"
_symmetry_group_IT_number 129
_symmetry_cell_setting 'tetragonal'
loop_
_space_group_symop_operation_xyz
x,y,z
1/2-y,x,z
1/2-x,1/2-y,z
y,1/2-x,z
1/2+x,-y,-z
-x,1/2+y,-z
1/2+y,1/2+x,-z
-y,-x,-z
-x,-y,-z
1/2+y,-x,-z
1/2+x,1/2+y,-z
-y,1/2+x,-z
1/2-x,y,z
x,1/2-y,z
1/2-y,1/2-x,z
y,x,z
loop_
_atom_site_type_symbol
_atom_site_label
_atom_site_fract_x
_atom_site_fract_y
_atom_site_fract_z
Si Si1 0.611414 0.106158 0.741093
Si Si2 0.094641 0.186262 0.380820
Si Si3 0.186739 0.686790 0.378794
Si Si4 0.874509 0.188009 0.922823
Si Si5 0.999462 0.815535 0.790603
Si Si6 0.814310 0.998454 0.023034
Si Si7 0.091557 0.316153 0.613599
Si Si8 0.520941 0.615197 0.225097
O O1 0.637604 0.140516 0.644750
O O2 0.632511 0.141661 0.836996
O O3 0.639439 0.044983 0.750629
O O4 0.543087 0.100672 0.739218
O O5 0.117892 0.250000 0.377623
O O6 0.147956 0.147956 0.355429
O O7 0.069270 0.174044 0.495877
O O8 0.049863 0.175385 0.291409
O O9 0.190267 0.690267 0.500000
O O10 0.250000 0.669112 0.336190
O O11 0.170750 0.750000 0.335767
O O12 0.869410 0.250000 0.872536
O O13 0.822273 0.177728 0.000000
O O14 0.933633 0.180924 0.983318
O O15 0.021796 0.750000 0.789206
O O16 0.977348 0.830638 0.907075
O O17 0.750000 0.979247 0.051963
O O18 0.857009 0.974868 0.110661
O O19 0.101555 0.250000 0.638464
O O20 0.151414 0.348587 0.630469
O O21 0.044341 0.340329 0.691255
O O22 0.557096 0.557096 0.224415
#
# Coordination Sequence:
#
# PCOD8315103 Si02
#       8
#    16  16  16  16  16  16  16  16
#     4  11  21  34  53  73 102 140 180 215 262 314
#     4   9  19  35  56  82 107 133 166 207 262 322
#     4   9  19  35  53  76 105 135 175 226 270 316
#     4  10  19  31  47  70  99 128 164 212 262 309
#     4  10  20  34  53  76 104 138 175 219 260 305
#     4   9  18  34  54  72  98 136 175 215 262 313
#     4   9  18  35  57  81 110 136 166 213 263 319
#     4  10  22  36  52  77 106 139 181 225 266 308
#
# _framework density 17.923532999999999
#
# number of rings (size 3 to 8) (size 9 to 14) (size 15 to 20)
#    0.000    2.375    1.250    1.500    0.000    4.375 
#    0.000    4.375    0.000    2.625    0.000    0.000 
#    0.000    3.000    0.000    0.000    0.000    0.000 
#
# Total GULP energy -1586276.458538 kJ/mol
# GULP energy per Si atom -12392.784832 kJ/mol
# Density = 1.788274 g / cm^3
# Si number density = 17.923533 Si / 1000 Ang^3
#
#
#
# Elastic Constant Matrix: (Units=GPa)
#
#
# Indices 1 2 3 4 5 6 
#
# 1 93.7092 63.2229 54.8473 0.0000 0.0000 0.0000
# 2 63.2229 93.7084 54.8470 0.0000 0.0000 0.0000
# 3 54.8473 54.8470 103.1217 0.0000 0.0000 0.0000
# 4 0.0000 0.0000 0.0000 28.2579 0.0000 0.0000
# 5 0.0000 0.0000 0.0000 0.0000 28.2579 0.0000
# 6 0.0000 0.0000 0.0000 0.0000 0.0000 28.8485
#
#
#
# Elastic Compliance Matrix: (Units=1/GPa)
#
#
# Indices 1 2 3 4 5 6 
#
# 1 0.021473 -0.011329 -0.005395 0.000000 0.000000 0.000000
# 2 -0.011329 0.021473 -0.005395 0.000000 0.000000 0.000000
# 3 -0.005395 -0.005395 0.015436 0.000000 0.000000 0.000000
# 4 0.000000 0.000000 0.000000 0.035388 0.000000 0.000000
# 5 0.000000 0.000000 0.000000 0.000000 0.035388 0.000000
# 6 0.000000 0.000000 0.000000 0.000000 0.000000 0.034664
#
#
# Mechanical properties :
#
#
# Convention : Reuss Voigt Hill
#
# Bulk Modulus (GPa) = 70.70652 70.70818 70.70735
# Shear Modulus (GPa) = 23.49908 24.91433 24.20671
#
# Velocity S-wave (km/s) = 3.62480 3.73236 3.67898
# Velocity P-wave (km/s) = 7.55338 7.62296 7.58825
#
# Compressibility (1/GPa) = 0.01414297
#
# Stress axis : x y z
#
# Youngs Moduli (GPa) = 46.57106 46.57078 64.78388
#
# Poissons Ratio (x) = 0.52762 0.34950
# Poissons Ratio (y) = 0.52763 0.34950
# Poissons Ratio (z) = 0.25124 0.25124
#
# Static dielectric constant tensor:
#      x y z
#    x 3.279440 0.000000 0.000000 
#    y 0.000000 3.279440 0.000000 
#    z 0.000000 0.000000 3.527380 
# 
# 
# High freq. dielectric constant tensor:
#      x y z
#    x 1.685230 0.000000 0.000000 
#    y 0.000000 1.685230 0.000000 
#    z 0.000000 0.000000 1.702760 
# 
# From -- ./inp_files/4223.got.cif
#   From: 2010.03.12/outbox.cif.g09.slc.cpg/sg129_3_cif.got.tgz:4223.got - 2010.04.06 17:19:44.
