data_PCOD8315450
_publ_section_title
;
Structure prediction by ZEFSAII (Michael W. Deem and Ramdas Pophale) SiO2 
 PCOD8315450
Probable space group: P 4/N M M
;
_chemical_formula_sum "Si O2"
_cell_formula_units_Z 128
_cell_length_a 17.792778
_cell_length_b 17.792778
_cell_length_c 27.487593
_cell_angle_alpha 90.000000
_cell_angle_beta 90.000000
_cell_angle_gamma 90.000000
_cell_volume 8702.103252
_symmetry_space_group_name_H-M "P 4/N M M"
_symmetry_group_IT_number 129
_symmetry_cell_setting 'tetragonal'
loop_
_space_group_symop_operation_xyz
x,y,z
1/2-y,x,z
1/2-x,1/2-y,z
y,1/2-x,z
1/2+x,-y,-z
-x,1/2+y,-z
1/2+y,1/2+x,-z
-y,-x,-z
-x,-y,-z
1/2+y,-x,-z
1/2+x,1/2+y,-z
-y,1/2+x,-z
1/2-x,y,z
x,1/2-y,z
1/2-y,1/2-x,z
y,x,z
loop_
_atom_site_type_symbol
_atom_site_label
_atom_site_fract_x
_atom_site_fract_y
_atom_site_fract_z
Si Si1 0.662341 0.537838 0.310611
Si Si2 0.454315 0.164859 0.984271
Si Si3 0.335999 0.951877 0.890905
Si Si4 0.836041 0.049732 0.482809
Si Si5 0.423884 0.952719 0.613175
Si Si6 0.542890 0.835863 0.199803
Si Si7 0.963264 0.661999 0.579798
Si Si8 0.095883 0.664756 0.956162
O O1 0.750000 0.554478 0.323093
O O2 0.613483 0.613483 0.321797
O O3 0.631828 0.465763 0.341028
O O4 0.653391 0.513197 0.254565
O O5 0.434944 0.250000 0.995525
O O6 0.379340 0.120661 0.994791
O O7 0.517640 0.135826 0.021402
O O8 0.480173 0.153580 0.928736
O O9 0.250000 0.924624 0.889977
O O10 0.385948 0.881756 0.907692
O O11 0.363072 0.978316 0.837543
O O12 0.871982 0.128019 0.500000
O O13 0.750000 0.066600 0.470782
O O14 0.877759 0.023153 0.434378
O O15 0.844815 0.984029 0.522810
O O16 0.463573 0.870041 0.609795
O O17 0.492891 0.007110 0.618923
O O18 0.563883 0.750000 0.188466
O O19 0.618604 0.881397 0.190817
O O20 0.950018 0.750000 0.594211
O O21 0.887277 0.612724 0.589270
O O22 0.092344 0.750000 0.939148
O O23 0.156438 0.656438 0.000000
#
# Coordination Sequence:
#
# PCOD8315450 Si02
#       8
#    16  16  16  16  16  16  16  16
#     4   9  17  28  43  62  83 109 139 170 202 234
#     4   9  17  27  38  55  78 103 132 161 190 228
#     4   9  17  27  39  56  78 104 132 162 194 228
#     4   9  16  25  38  57  81 108 137 168 199 233
#     4   9  16  27  43  60  79 107 140 169 199 238
#     4   9  17  28  41  59  82 107 137 168 196 228
#     4   9  17  28  42  61  83 106 134 168 206 249
#     4   9  17  27  40  59  79  99 126 160 197 237
#
# _framework density 14.709087
#
# number of rings (size 3 to 8) (size 9 to 14) (size 15 to 20)
#    0.000    3.000    0.000    2.250    0.000    5.750 
#    0.000    1.250    0.000    4.125    0.000    3.500 
#    0.000    0.000    0.000    0.000    0.000   14.500 
#
# Total GULP energy -1586248.291467 kJ/mol
# GULP energy per Si atom -12392.564777 kJ/mol
# Density = 1.467561 g / cm^3
# Si number density = 14.709087 Si / 1000 Ang^3
#
#
#
# Elastic Constant Matrix: (Units=GPa)
#
#
# Indices 1 2 3 4 5 6 
#
# 1 70.1149 38.6219 36.9114 0.0000 0.0000 0.0000
# 2 38.6219 70.1145 36.9110 0.0000 0.0000 0.0000
# 3 36.9114 36.9110 80.2602 0.0000 0.0000 0.0000
# 4 0.0000 0.0000 0.0000 20.4140 0.0000 0.0000
# 5 0.0000 0.0000 0.0000 0.0000 20.4140 0.0000
# 6 0.0000 0.0000 0.0000 0.0000 0.0000 27.9481
#
#
#
# Elastic Compliance Matrix: (Units=1/GPa)
#
#
# Indices 1 2 3 4 5 6 
#
# 1 0.022562 -0.009191 -0.006150 0.000000 0.000000 0.000000
# 2 -0.009191 0.022562 -0.006149 0.000000 0.000000 0.000000
# 3 -0.006150 -0.006149 0.018116 0.000000 0.000000 0.000000
# 4 0.000000 0.000000 0.000000 0.048986 0.000000 0.000000
# 5 0.000000 0.000000 0.000000 0.000000 0.048986 0.000000
# 6 0.000000 0.000000 0.000000 0.000000 0.000000 0.035781
#
#
# Mechanical properties :
#
#
# Convention : Reuss Voigt Hill
#
# Bulk Modulus (GPa) = 49.35644 49.48645 49.42145
# Shear Modulus (GPa) = 20.26535 20.95822 20.61179
#
# Velocity S-wave (km/s) = 3.71582 3.77881 3.74745
# Velocity P-wave (km/s) = 7.21372 7.26331 7.23856
#
# Compressibility (1/GPa) = 0.02026078
#
# Stress axis : x y z
#
# Youngs Moduli (GPa) = 44.32159 44.32154 55.20074
#
# Poissons Ratio (x) = 0.40735 0.33946
# Poissons Ratio (y) = 0.40736 0.33945
# Poissons Ratio (z) = 0.27256 0.27255
#
# Static dielectric constant tensor:
#      x y z
#    x 2.856760 0.000000 0.000000 
#    y 0.000000 2.856760 0.000000 
#    z 0.000000 0.000000 2.828070 
# 
# 
# High freq. dielectric constant tensor:
#      x y z
#    x 1.554270 0.000000 0.000000 
#    y 0.000000 1.554270 0.000000 
#    z 0.000000 0.000000 1.545070 
# 
# From -- ./inp_files/7245.got.cif
#   From: 2010.03.12/outbox.cif.g09.slc.cpg/sg129_4_cif.got.tgz:7245.got - 2010.04.06 17:19:44.
