data_PCOD8315396
_publ_section_title
;
Structure prediction by ZEFSAII (Michael W. Deem and Ramdas Pophale) SiO2 
 PCOD8315396
Probable space group: P 4/N M M
;
_chemical_formula_sum "Si O2"
_cell_formula_units_Z 80
_cell_length_a 13.227395
_cell_length_b 13.227395
_cell_length_c 26.210158
_cell_angle_alpha 90.000000
_cell_angle_beta 90.000000
_cell_angle_gamma 90.000000
_cell_volume 4585.833520
_symmetry_space_group_name_H-M "P 4/N M M"
_symmetry_group_IT_number 129
_symmetry_cell_setting 'tetragonal'
loop_
_space_group_symop_operation_xyz
x,y,z
1/2-y,x,z
1/2-x,1/2-y,z
y,1/2-x,z
1/2+x,-y,-z
-x,1/2+y,-z
1/2+y,1/2+x,-z
-y,-x,-z
-x,-y,-z
1/2+y,-x,-z
1/2+x,1/2+y,-z
-y,1/2+x,-z
1/2-x,y,z
x,1/2-y,z
1/2-y,1/2-x,z
y,x,z
loop_
_atom_site_type_symbol
_atom_site_label
_atom_site_fract_x
_atom_site_fract_y
_atom_site_fract_z
Si Si1 0.534889 0.368800 0.735208
Si Si2 0.864352 0.474383 0.154043
Si Si3 0.466550 0.632264 0.452591
Si Si4 0.134505 0.967954 0.956079
Si Si5 0.532574 0.367127 0.357587
O O1 0.514429 0.250000 0.725862
O O2 0.428984 0.428984 0.727561
O O3 0.582110 0.389977 0.792349
O O4 0.617624 0.410436 0.696037
O O5 0.750000 0.507719 0.155877
O O6 0.887478 0.416458 0.100244
O O7 0.920142 0.579859 0.152344
O O8 0.395693 0.604308 0.500000
O O9 0.493466 0.750000 0.453920
O O10 0.571949 0.571949 0.455237
O O11 0.405904 0.607188 0.401379
O O12 0.250000 0.003015 0.959911
O O13 0.113813 0.886188 0.000000
O O14 0.066593 0.066593 0.965252
O O15 0.507406 0.250000 0.365382
O O16 0.426674 0.426674 0.359502
#
# Coordination Sequence:
#
# PCOD8315396 Si02
#       5
#    16  16  16  16  16
#     4   9  17  29  46  70  98 125 153 185 224 275
#     4   8  14  25  41  62  89 118 148 184 225 271
#     4  10  21  36  54  78 106 135 168 203 240 285
#     4   9  17  29  45  65  89 118 151 187 229 275
#     4  10  21  36  53  73  96 124 161 203 244 285
#
# _framework density 17.445029000000002
#
# number of rings (size 3 to 8) (size 9 to 14) (size 15 to 20)
#    0.000    2.800    0.000    1.200    0.000    3.800 
#    0.000    5.000    0.000   10.800    0.000    0.000 
#    0.000    8.000    0.000    0.000    0.000    0.000 
#
# Total GULP energy -991058.689102 kJ/mol
# GULP energy per Si atom -12388.233614 kJ/mol
# Density = 1.740532 g / cm^3
# Si number density = 17.445029 Si / 1000 Ang^3
#
#
#
# Elastic Constant Matrix: (Units=GPa)
#
#
# Indices 1 2 3 4 5 6 
#
# 1 88.4838 34.0246 45.4160 0.0000 0.0000 0.0000
# 2 34.0246 88.4856 45.4168 0.0000 0.0000 0.0000
# 3 45.4160 45.4168 151.8414 0.0000 0.0000 0.0000
# 4 0.0000 0.0000 0.0000 21.2731 0.0000 0.0000
# 5 0.0000 0.0000 0.0000 0.0000 21.2727 0.0000
# 6 0.0000 0.0000 0.0000 0.0000 0.0000 9.2240
#
#
#
# Elastic Compliance Matrix: (Units=1/GPa)
#
#
# Indices 1 2 3 4 5 6 
#
# 1 0.014426 -0.003937 -0.003137 0.000000 0.000000 0.000000
# 2 -0.003937 0.014425 -0.003137 0.000000 0.000000 0.000000
# 3 -0.003137 -0.003137 0.008463 0.000000 0.000000 0.000000
# 4 0.000000 0.000000 0.000000 0.047008 0.000000 0.000000
# 5 0.000000 0.000000 0.000000 0.000000 0.047009 0.000000
# 6 0.000000 0.000000 0.000000 0.000000 0.000000 0.108412
#
#
# Mechanical properties :
#
#
# Convention : Reuss Voigt Hill
#
# Bulk Modulus (GPa) = 59.20295 64.28064 61.74179
# Shear Modulus (GPa) = 18.81153 23.95087 21.38120
#
# Velocity S-wave (km/s) = 3.28736 3.70933 3.50470
# Velocity P-wave (km/s) = 6.95841 7.43458 7.20044
#
# Compressibility (1/GPa) = 0.01689105
#
# Stress axis : x y z
#
# Youngs Moduli (GPa) = 69.32166 69.32292 118.16809
#
# Poissons Ratio (x) = 0.27290 0.37072
# Poissons Ratio (y) = 0.27290 0.37072
# Poissons Ratio (z) = 0.21748 0.21748
#
# Static dielectric constant tensor:
#      x y z
#    x 2.987300 0.000000 0.000000 
#    y 0.000000 2.987300 0.000000 
#    z 0.000000 0.000000 3.983140 
# 
# 
# High freq. dielectric constant tensor:
#      x y z
#    x 1.650290 0.000000 0.000000 
#    y 0.000000 1.650290 0.000000 
#    z 0.000000 0.000000 1.708310 
# 
# From -- ./inp_files/7681.got.cif
#   From: 2010.03.12/outbox.cif.g09.slc.cpg/sg129_4_cif.got.tgz:7681.got - 2010.04.06 17:19:44.
