data_PCOD8315719
_publ_section_title
;
Structure prediction by ZEFSAII (Michael W. Deem and Ramdas Pophale) SiO2 
 PCOD8315719
Probable space group: P 42/M M C
;
_chemical_formula_sum "Si O2"
_cell_formula_units_Z 112
_cell_length_a 17.316853
_cell_length_b 17.316853
_cell_length_c 24.600841
_cell_angle_alpha 90.000000
_cell_angle_beta 90.000000
_cell_angle_gamma 90.000000
_cell_volume 7377.137780
_symmetry_space_group_name_H-M "P 42/M M C"
_symmetry_group_IT_number 131
_symmetry_cell_setting 'tetragonal'
loop_
_space_group_symop_operation_xyz
x,y,z
-x,-y,z
-y,x,1/2+z
y,-x,1/2+z
-x,y,-z
x,-y,-z
y,x,1/2-z
-y,-x,1/2-z
-x,-y,-z
x,y,-z
y,-x,1/2-z
-y,x,1/2-z
x,-y,z
-x,y,z
-y,-x,1/2+z
y,x,1/2+z
loop_
_atom_site_type_symbol
_atom_site_label
_atom_site_fract_x
_atom_site_fract_y
_atom_site_fract_z
Si Si1 0.085855 0.146201 0.304497
Si Si2 0.085152 0.349015 0.062184
Si Si3 0.686120 0.085120 0.759916
Si Si4 0.325351 0.289305 0.664967
Si Si5 0.408986 0.234016 0.769873
Si Si6 0.865650 0.243047 0.848569
Si Si7 0.587822 0.752906 0.438490
O O1 0.096741 0.096741 0.250000
O O2 0.100107 0.236513 0.293975
O O3 0.151135 0.119182 0.346934
O O4 0.000000 0.130706 0.327788
O O5 0.102190 0.270013 0.093793
O O6 0.154885 0.408444 0.075332
O O7 0.000000 0.383892 0.077263
O O8 0.086277 0.324690 0.000000
O O9 0.620778 0.146440 0.776039
O O10 0.709040 0.088261 0.696721
O O11 0.652331 0.000000 0.772125
O O12 0.388883 0.265094 0.709799
O O13 0.286620 0.369553 0.683396
O O14 0.258747 0.225120 0.661047
O O15 0.364747 0.297268 0.605502
O O16 0.500000 0.236884 0.779194
O O17 0.619221 0.737503 0.500000
O O18 0.500000 0.726345 0.434370
#
# Coordination Sequence:
#
# PCOD8315719 Si02
#       7
#    16  16  16  16  16  16  16
#     4   9  16  26  40  58  81 108 141 180 215 247
#     4   9  17  27  40  61  87 114 143 175 211 250
#     4   9  16  26  41  63  87 110 137 171 213 256
#     4   9  17  30  44  62  89 114 146 176 199 251
#     4  10  18  28  45  65  87 118 144 168 210 255
#     4   9  15  27  43  57  79 116 148 174 207 248
#     4   9  17  29  47  68  87 112 144 178 215 248
#
# _framework density 15.182040000000001
#
# number of rings (size 3 to 8) (size 9 to 14) (size 15 to 20)
#    0.000    2.857    1.429    0.857    0.000    1.286 
#    0.000    1.429    0.000   13.286    0.000    2.000 
#    0.000    0.571    0.000    1.286    0.000    0.000 
#
# Total GULP energy -1387923.455067 kJ/mol
# GULP energy per Si atom -12392.173706 kJ/mol
# Density = 1.514749 g / cm^3
# Si number density = 15.182040 Si / 1000 Ang^3
#
#
#
# Elastic Constant Matrix: (Units=GPa)
#
#
# Indices 1 2 3 4 5 6 
#
# 1 88.8319 26.9972 29.7371 0.0000 0.0000 0.0000
# 2 26.9972 88.8319 29.7371 0.0000 0.0000 0.0000
# 3 29.7371 29.7371 67.4981 0.0000 0.0000 0.0000
# 4 0.0000 0.0000 0.0000 16.7361 0.0000 0.0000
# 5 0.0000 0.0000 0.0000 0.0000 16.7361 0.0000
# 6 0.0000 0.0000 0.0000 0.0000 0.0000 15.5433
#
#
#
# Elastic Compliance Matrix: (Units=1/GPa)
#
#
# Indices 1 2 3 4 5 6 
#
# 1 0.013665 -0.002507 -0.004916 0.000000 0.000000 0.000000
# 2 -0.002507 0.013665 -0.004916 0.000000 0.000000 0.000000
# 3 -0.004916 -0.004916 0.019146 0.000000 0.000000 0.000000
# 4 0.000000 0.000000 0.000000 0.059751 0.000000 0.000000
# 5 0.000000 0.000000 0.000000 0.000000 0.059751 0.000000
# 6 0.000000 0.000000 0.000000 0.000000 0.000000 0.064336
#
#
# Mechanical properties :
#
#
# Convention : Reuss Voigt Hill
#
# Bulk Modulus (GPa) = 45.87352 46.45611 46.16481
# Shear Modulus (GPa) = 19.06521 20.38246 19.72384
#
# Velocity S-wave (km/s) = 3.54753 3.66804 3.60829
# Velocity P-wave (km/s) = 6.86012 6.97174 6.91616
#
# Compressibility (1/GPa) = 0.02179907
#
# Stress axis : x y z
#
# Youngs Moduli (GPa) = 73.18103 73.18103 52.22913
#
# Poissons Ratio (x) = 0.18349 0.25673
# Poissons Ratio (y) = 0.18349 0.25673
# Poissons Ratio (z) = 0.35972 0.35972
#
# Static dielectric constant tensor:
#      x y z
#    x 2.825840 0.000000 0.000000 
#    y 0.000000 2.825840 0.000000 
#    z 0.000000 0.000000 2.810740 
# 
# 
# High freq. dielectric constant tensor:
#      x y z
#    x 1.569250 0.000000 0.000000 
#    y 0.000000 1.569250 0.000000 
#    z 0.000000 0.000000 1.556760 
# 
# From -- ./inp_files/11427.got.cif
#   From: 2010.03.12/outbox.cif.g09.slc.cpg/sg131_6_cif.got.tgz:11427.got - 2010.04.06 17:36:35.
