data_PCOD8315518
_publ_section_title
;
Structure prediction by ZEFSAII (Michael W. Deem and Ramdas Pophale) SiO2 
 PCOD8315518
Probable space group: P 4/N C C
;
_chemical_formula_sum "Si O2"
_cell_formula_units_Z 128
_cell_length_a 22.315369
_cell_length_b 22.315369
_cell_length_c 12.489888
_cell_angle_alpha 90.000000
_cell_angle_beta 90.000000
_cell_angle_gamma 90.000000
_cell_volume 6219.660640
_symmetry_space_group_name_H-M "P 4/N C C"
_symmetry_group_IT_number 130
_symmetry_cell_setting 'tetragonal'
loop_
_space_group_symop_operation_xyz
x,y,z
1/2-y,x,z
1/2-x,1/2-y,z
y,1/2-x,z
1/2+x,-y,1/2-z
-x,1/2+y,1/2-z
1/2+y,1/2+x,1/2-z
-y,-x,1/2-z
-x,-y,-z
1/2+y,-x,-z
1/2+x,1/2+y,-z
-y,1/2+x,-z
1/2-x,y,1/2+z
x,1/2-y,1/2+z
1/2-y,1/2-x,1/2+z
y,x,1/2+z
loop_
_atom_site_type_symbol
_atom_site_label
_atom_site_fract_x
_atom_site_fract_y
_atom_site_fract_z
Si Si1 0.908889 0.101489 0.983550
Si Si2 0.941120 0.504834 0.341556
Si Si3 0.554925 0.683157 0.301734
Si Si4 0.624356 0.002507 0.839437
Si Si5 0.592033 0.330680 0.325530
Si Si6 0.443359 0.219078 0.531791
Si Si7 0.794153 0.046583 0.641834
Si Si8 0.282566 0.155723 0.863574
O O1 0.911525 0.147814 0.883407
O O2 0.929396 0.034789 0.947321
O O3 0.846683 0.095949 0.047743
O O4 0.949104 0.135479 0.069735
O O5 0.887923 0.551327 0.315576
O O6 0.993782 0.552958 0.351779
O O7 0.957133 0.457133 0.250000
O O8 0.559135 0.715442 0.415822
O O9 0.491004 0.697952 0.249654
O O10 0.613325 0.701387 0.235327
O O11 0.668732 0.948339 0.873781
O O12 0.642259 0.029557 0.723503
O O13 0.646653 0.353347 0.250000
O O14 0.591983 0.259244 0.329888
O O15 0.498821 0.220128 0.450744
O O16 0.380836 0.205282 0.472422
O O17 0.325464 0.213135 0.858821
#
# Coordination Sequence:
#
# PCOD8315518 Si02
#       8
#    16  16  16  16  16  16  16  16
#     4  10  21  39  57  90 123 165 196 249 317 368
#     4  12  23  36  57  94 128 161 202 253 315 381
#     4  11  23  39  64  90 122 169 211 259 318 378
#     4  10  22  37  60  88 126 157 204 253 306 376
#     4  10  20  39  64  92 116 164 209 250 310 370
#     4  10  22  39  62  90 118 166 215 254 318 372
#     4  10  20  40  60  90 129 156 205 258 304 386
#     4  10  25  44  61  87 125 168 221 276 318 367
#
# _framework density 20.579901
#
# number of rings (size 3 to 8) (size 9 to 14) (size 15 to 20)
#    0.000    1.625    2.500    2.250    3.500    0.000 
#    0.000    1.250    0.000    0.375    0.000    0.000 
#    0.000    0.000    0.000    0.000    0.000    0.000 
#
# Total GULP energy -1585966.319934 kJ/mol
# GULP energy per Si atom -12390.361874 kJ/mol
# Density = 2.053306 g / cm^3
# Si number density = 20.579901 Si / 1000 Ang^3
#
#
#
# Elastic Constant Matrix: (Units=GPa)
#
#
# Indices 1 2 3 4 5 6 
#
# 1 81.3097 17.4395 11.6680 0.0000 0.0000 0.0000
# 2 17.4395 81.3094 11.6679 0.0000 0.0000 0.0000
# 3 11.6680 11.6679 55.4538 0.0000 0.0000 0.0000
# 4 0.0000 0.0000 0.0000 14.7321 0.0000 0.0000
# 5 0.0000 0.0000 0.0000 0.0000 14.7325 0.0000
# 6 0.0000 0.0000 0.0000 0.0000 0.0000 31.1856
#
#
#
# Elastic Compliance Matrix: (Units=1/GPa)
#
#
# Indices 1 2 3 4 5 6 
#
# 1 0.013157 -0.002500 -0.002242 0.000000 0.000000 0.000000
# 2 -0.002500 0.013157 -0.002242 0.000000 0.000000 0.000000
# 3 -0.002242 -0.002242 0.018977 0.000000 0.000000 0.000000
# 4 0.000000 0.000000 0.000000 0.067879 0.000000 0.000000
# 5 0.000000 0.000000 0.000000 0.000000 0.067877 0.000000
# 6 0.000000 0.000000 0.000000 0.000000 0.000000 0.032066
#
#
# Mechanical properties :
#
#
# Convention : Reuss Voigt Hill
#
# Bulk Modulus (GPa) = 31.92769 33.29153 32.60961
# Shear Modulus (GPa) = 21.05071 23.94986 22.50029
#
# Velocity S-wave (km/s) = 3.20171 3.41508 3.31012
# Velocity P-wave (km/s) = 5.40515 5.63580 5.52168
#
# Compressibility (1/GPa) = 0.03132077
#
# Stress axis : x y z
#
# Youngs Moduli (GPa) = 76.00715 76.00694 52.69648
#
# Poissons Ratio (x) = 0.19003 0.11816
# Poissons Ratio (y) = 0.19003 0.11816
# Poissons Ratio (z) = 0.17043 0.17042
#
# Static dielectric constant tensor:
#      x y z
#    x 3.757320 0.000000 0.000000 
#    y 0.000000 3.757320 0.000000 
#    z 0.000000 0.000000 3.859210 
# 
# 
# High freq. dielectric constant tensor:
#      x y z
#    x 1.796420 0.000000 0.000000 
#    y 0.000000 1.796420 0.000000 
#    z 0.000000 0.000000 1.806990 
# 
# From -- ./inp_files/1880.got.cif
#   From: 2010.03.12/outbox.cif.g09.slc.cpg/sg130_1_cif.got.tgz:1880.got - 2010.04.06 17:30:23.
