data_PCOD8315055
_publ_section_title
;
Structure prediction by ZEFSAII (Michael W. Deem and Ramdas Pophale) SiO2 
 PCOD8315055
Probable space group: P 4/N M M
;
_chemical_formula_sum "Si O2"
_cell_formula_units_Z 72
_cell_length_a 13.998814
_cell_length_b 13.998814
_cell_length_c 22.745584
_cell_angle_alpha 90.000000
_cell_angle_beta 90.000000
_cell_angle_gamma 90.000000
_cell_volume 4457.379161
_symmetry_space_group_name_H-M "P 4/N M M"
_symmetry_group_IT_number 129
_symmetry_cell_setting 'tetragonal'
loop_
_space_group_symop_operation_xyz
x,y,z
1/2-y,x,z
1/2-x,1/2-y,z
y,1/2-x,z
1/2+x,-y,-z
-x,1/2+y,-z
1/2+y,1/2+x,-z
-y,-x,-z
-x,-y,-z
1/2+y,-x,-z
1/2+x,1/2+y,-z
-y,1/2+x,-z
1/2-x,y,z
x,1/2-y,z
1/2-y,1/2-x,z
y,x,z
loop_
_atom_site_type_symbol
_atom_site_label
_atom_site_fract_x
_atom_site_fract_y
_atom_site_fract_z
Si Si1 0.144024 0.863068 0.778722
Si Si2 0.637961 0.483071 0.886928
Si Si3 0.359244 0.859244 0.000000
Si Si4 0.484596 0.639987 0.539787
Si Si5 0.486677 0.640825 0.674022
O O1 0.250000 0.908613 0.782565
O O2 0.152371 0.750000 0.782848
O O3 0.097794 0.894516 0.716714
O O4 0.079715 0.900265 0.832427
O O5 0.750000 0.505335 0.881450
O O6 0.583673 0.583673 0.887524
O O7 0.613166 0.425683 0.945745
O O8 0.375202 0.750000 0.019760
O O9 0.398322 0.601679 0.500000
O O10 0.505050 0.750000 0.524388
O O11 0.581741 0.581741 0.526901
O O12 0.451637 0.627257 0.607208
O O13 0.513944 0.750000 0.687415
O O14 0.581876 0.581876 0.687165
#
# Coordination Sequence:
#
# PCOD8315055 Si02
#       5
#    16  16   8  16  16
#     4   9  17  29  44  62  85 113 145 180 216 254
#     4  10  19  30  45  65  90 118 147 181 220 264
#     4   9  17  30  48  68  89 115 148 184 220 257
#     4   9  18  31  46  66  92 121 154 191 230 275
#     4   9  17  29  45  66  92 119 146 178 218 267
#
# _framework density 16.152989999999999
#
# number of rings (size 3 to 8) (size 9 to 14) (size 15 to 20)
#    0.000    2.778    0.000    1.667    0.000    4.444 
#    0.000    4.444    0.000    4.000    0.000    0.000 
#    0.000   19.556    0.000    0.000    0.000    0.222 
#
# Total GULP energy -892770.154827 kJ/mol
# GULP energy per Si atom -12399.585484 kJ/mol
# Density = 1.611622 g / cm^3
# Si number density = 16.152990 Si / 1000 Ang^3
#
#
#
# Elastic Constant Matrix: (Units=GPa)
#
#
# Indices 1 2 3 4 5 6 
#
# 1 89.4035 49.8449 56.6096 0.0000 0.0000 0.0000
# 2 49.8449 89.4024 56.6093 0.0000 0.0000 0.0000
# 3 56.6096 56.6093 105.3151 0.0000 0.0000 0.0000
# 4 0.0000 0.0000 0.0000 24.2805 0.0000 0.0000
# 5 0.0000 0.0000 0.0000 0.0000 24.2805 0.0000
# 6 0.0000 0.0000 0.0000 0.0000 0.0000 20.8310
#
#
#
# Elastic Compliance Matrix: (Units=1/GPa)
#
#
# Indices 1 2 3 4 5 6 
#
# 1 0.019018 -0.006261 -0.006857 0.000000 0.000000 0.000000
# 2 -0.006261 0.019018 -0.006857 0.000000 0.000000 0.000000
# 3 -0.006857 -0.006857 0.016867 0.000000 0.000000 0.000000
# 4 0.000000 0.000000 0.000000 0.041185 0.000000 0.000000
# 5 0.000000 0.000000 0.000000 0.000000 0.041185 0.000000
# 6 0.000000 0.000000 0.000000 0.000000 0.000000 0.048005
#
#
# Mechanical properties :
#
#
# Convention : Reuss Voigt Hill
#
# Bulk Modulus (GPa) = 66.87966 67.80540 67.34253
# Shear Modulus (GPa) = 21.71893 21.94888 21.83390
#
# Velocity S-wave (km/s) = 3.67082 3.69021 3.68053
# Velocity P-wave (km/s) = 7.71106 7.76047 7.73580
#
# Compressibility (1/GPa) = 0.01495223
#
# Stress axis : x y z
#
# Youngs Moduli (GPa) = 52.58206 52.58136 59.28739
#
# Poissons Ratio (x) = 0.32923 0.40654
# Poissons Ratio (y) = 0.32923 0.40654
# Poissons Ratio (z) = 0.36056 0.36056
#
# Static dielectric constant tensor:
#      x y z
#    x 2.955050 0.000000 0.000000 
#    y 0.000000 2.955050 0.000000 
#    z 0.000000 0.000000 3.236310 
# 
# 
# High freq. dielectric constant tensor:
#      x y z
#    x 1.604290 0.000000 0.000000 
#    y 0.000000 1.604290 0.000000 
#    z 0.000000 0.000000 1.635810 
# 
# From -- ./inp_files/6312.got.cif
#   From: 2010.03.12/outbox.cif.g09.slc.cpg/sg129_4_cif.got.tgz:6312.got - 2010.04.06 17:19:44.
