data_PCOD8315528
_publ_section_title
;
Structure prediction by ZEFSAII (Michael W. Deem and Ramdas Pophale) SiO2 
 PCOD8315528
Probable space group: P 4/N C C
;
_chemical_formula_sum "Si O2"
_cell_formula_units_Z 96
_cell_length_a 15.902151
_cell_length_b 15.902151
_cell_length_c 19.013787
_cell_angle_alpha 90.000000
_cell_angle_beta 90.000000
_cell_angle_gamma 90.000000
_cell_volume 4808.176157
_symmetry_space_group_name_H-M "P 4/N C C"
_symmetry_group_IT_number 130
_symmetry_cell_setting 'tetragonal'
loop_
_space_group_symop_operation_xyz
x,y,z
1/2-y,x,z
1/2-x,1/2-y,z
y,1/2-x,z
1/2+x,-y,1/2-z
-x,1/2+y,1/2-z
1/2+y,1/2+x,1/2-z
-y,-x,1/2-z
-x,-y,-z
1/2+y,-x,-z
1/2+x,1/2+y,-z
-y,1/2+x,-z
1/2-x,y,1/2+z
x,1/2-y,1/2+z
1/2-y,1/2-x,1/2+z
y,x,1/2+z
loop_
_atom_site_type_symbol
_atom_site_label
_atom_site_fract_x
_atom_site_fract_y
_atom_site_fract_z
Si Si1 0.658947 0.647913 0.919660
Si Si2 0.113807 0.745545 0.078415
Si Si3 0.355367 0.996012 0.830226
Si Si4 0.144633 0.503988 0.669774
Si Si5 0.886193 0.254455 0.578415
Si Si6 0.841053 0.852087 0.580340
O O1 0.757235 0.633760 0.902879
O O2 0.613019 0.580649 0.869505
O O3 0.632005 0.632005 1.000000
O O4 0.041822 0.770830 0.133810
O O5 0.152498 0.652498 0.094805
O O6 0.189422 0.810578 0.082393
O O7 0.073975 0.750000 0.000000
O O8 0.332912 0.016927 0.750000
O O9 0.430827 0.930827 0.836144
O O10 0.386981 0.080649 0.869505
O O11 0.229170 0.541822 0.633810
O O12 0.742765 0.866240 0.597121
#
# Coordination Sequence:
#
# PCOD8315528 Si02
#       6
#    16  16  16  16  16  16
#     4   9  20  39  61  82 104 138 189 235 271 325
#     4   8  15  29  50  77 111 153 194 225 261 322
#     4  10  21  35  54  85 120 148 180 229 285 335
#     4  10  21  35  54  85 120 148 180 229 285 335
#     4   8  15  29  50  77 111 153 194 225 261 322
#     4   9  20  39  61  82 104 138 189 235 271 325
#
# _framework density 19.965990000000001
#
# number of rings (size 3 to 8) (size 9 to 14) (size 15 to 20)
#    0.000    3.000    0.000    2.000    4.667    2.667 
#    0.000    6.667    0.000    0.000    0.000    0.000 
#    0.000    0.000    0.000    0.000    0.000    0.000 
#
# Total GULP energy -1189749.119559 kJ/mol
# GULP energy per Si atom -12393.219995 kJ/mol
# Density = 1.992055 g / cm^3
# Si number density = 19.965990 Si / 1000 Ang^3
#
#
#
# Elastic Constant Matrix: (Units=GPa)
#
#
# Indices 1 2 3 4 5 6 
#
# 1 77.4338 6.2702 55.8786 0.0000 0.0000 0.0000
# 2 6.2702 77.4338 55.8786 0.0000 0.0000 0.0000
# 3 55.8786 55.8786 152.6901 0.0000 0.0000 0.0000
# 4 0.0000 0.0000 0.0000 33.3091 0.0000 0.0000
# 5 0.0000 0.0000 0.0000 0.0000 33.3091 0.0000
# 6 0.0000 0.0000 0.0000 0.0000 0.0000 6.5056
#
#
#
# Elastic Compliance Matrix: (Units=1/GPa)
#
#
# Indices 1 2 3 4 5 6 
#
# 1 0.018707 0.004655 -0.008549 0.000000 0.000000 0.000000
# 2 0.004655 0.018707 -0.008549 0.000000 0.000000 0.000000
# 3 -0.008549 -0.008549 0.012807 0.000000 0.000000 0.000000
# 4 0.000000 0.000000 0.000000 0.030022 0.000000 0.000000
# 5 0.000000 0.000000 0.000000 0.000000 0.030022 0.000000
# 6 0.000000 0.000000 0.000000 0.000000 0.000000 0.153713
#
#
# Mechanical properties :
#
#
# Convention : Reuss Voigt Hill
#
# Bulk Modulus (GPa) = 39.47539 60.40141 49.93840
# Shear Modulus (GPa) = 16.81747 27.26013 22.03880
#
# Velocity S-wave (km/s) = 2.90540 3.69904 3.32598
# Velocity P-wave (km/s) = 5.57399 6.96862 6.30996
#
# Compressibility (1/GPa) = 0.02533224
#
# Stress axis : x y z
#
# Youngs Moduli (GPa) = 53.45625 53.45625 78.08382
#
# Poissons Ratio (x) = -0.24883 0.66757
# Poissons Ratio (y) = -0.24883 0.66757
# Poissons Ratio (z) = 0.45702 0.45702
#
# Static dielectric constant tensor:
#      x y z
#    x 3.594860 0.000000 0.000000 
#    y 0.000000 3.594860 0.000000 
#    z 0.000000 0.000000 3.696090 
# 
# 
# High freq. dielectric constant tensor:
#      x y z
#    x 1.764480 0.000000 0.000000 
#    y 0.000000 1.764480 0.000000 
#    z 0.000000 0.000000 1.770810 
# 
# From -- ./inp_files/3077.got.cif
#   From: 2010.03.12/outbox.cif.g09.slc.cpg/sg130_2_cif.got.tgz:3077.got - 2010.04.06 17:30:23.
