data_PCOD8315569
_publ_section_title
;
Structure prediction by ZEFSAII (Michael W. Deem and Ramdas Pophale) SiO2 
 PCOD8315569
Probable space group: P 4/N C C
;
_chemical_formula_sum "Si O2"
_cell_formula_units_Z 56
_cell_length_a 12.685877
_cell_length_b 12.685877
_cell_length_c 17.007264
_cell_angle_alpha 90.000000
_cell_angle_beta 90.000000
_cell_angle_gamma 90.000000
_cell_volume 2737.004086
_symmetry_space_group_name_H-M "P 4/N C C"
_symmetry_group_IT_number 130
_symmetry_cell_setting 'tetragonal'
loop_
_space_group_symop_operation_xyz
x,y,z
1/2-y,x,z
1/2-x,1/2-y,z
y,1/2-x,z
1/2+x,-y,1/2-z
-x,1/2+y,1/2-z
1/2+y,1/2+x,1/2-z
-y,-x,1/2-z
-x,-y,-z
1/2+y,-x,-z
1/2+x,1/2+y,-z
-y,1/2+x,-z
1/2-x,y,1/2+z
x,1/2-y,1/2+z
1/2-y,1/2-x,1/2+z
y,x,1/2+z
loop_
_atom_site_type_symbol
_atom_site_label
_atom_site_fract_x
_atom_site_fract_y
_atom_site_fract_z
Si Si1 0.598553 0.668523 0.852893
Si Si2 0.381210 0.967231 0.004651
Si Si3 0.372255 0.731207 0.610654
Si Si4 0.909882 0.409882 0.750000
O O1 0.707726 0.609434 0.834443
O O2 0.559229 0.672761 0.943624
O O3 0.514995 0.601609 0.801910
O O4 0.377490 0.853446 0.042583
O O5 0.328076 0.947242 0.918631
O O6 0.500000 0.000000 0.000000
O O7 0.250000 0.750000 0.625425
O O8 0.416434 0.691635 0.693717
#
# Coordination Sequence:
#
# PCOD8315569 Si02
#       4
#    16  16  16   8
#     4  10  23  44  63  93 136 173 215 272 333 392
#     4  11  21  36  66  91 124 165 213 265 326 389
#     4  11  21  41  59  93 126 160 215 271 320 380
#     4  10  25  38  68  93 122 180 216 270 325 398
#
# _framework density 20.460326999999999
#
# number of rings (size 3 to 8) (size 9 to 14) (size 15 to 20)
#    0.000    1.429    2.857    2.143    4.000    4.571 
#    0.000    0.000    0.000    3.429    0.000    0.000 
#    0.000    0.000    0.000    0.000    0.000    0.000 
#
# Total GULP energy -693823.228168 kJ/mol
# GULP energy per Si atom -12389.700503 kJ/mol
# Density = 2.041376 g / cm^3
# Si number density = 20.460327 Si / 1000 Ang^3
#
#
#
# Elastic Constant Matrix: (Units=GPa)
#
#
# Indices 1 2 3 4 5 6 
#
# 1 102.4353 56.3813 32.7496 0.0000 0.0000 0.0000
# 2 56.3813 102.4353 32.7496 0.0000 0.0000 0.0000
# 3 32.7496 32.7496 95.5393 0.0000 0.0000 0.0000
# 4 0.0000 0.0000 0.0000 19.5933 0.0000 0.0000
# 5 0.0000 0.0000 0.0000 0.0000 19.5933 0.0000
# 6 0.0000 0.0000 0.0000 0.0000 0.0000 39.3091
#
#
#
# Elastic Compliance Matrix: (Units=1/GPa)
#
#
# Indices 1 2 3 4 5 6 
#
# 1 0.014523 -0.007190 -0.002514 0.000000 0.000000 0.000000
# 2 -0.007190 0.014523 -0.002514 0.000000 0.000000 0.000000
# 3 -0.002514 -0.002514 0.012190 0.000000 0.000000 0.000000
# 4 0.000000 0.000000 0.000000 0.051038 0.000000 0.000000
# 5 0.000000 0.000000 0.000000 0.000000 0.051038 0.000000
# 6 0.000000 0.000000 0.000000 0.000000 0.000000 0.025439
#
#
# Mechanical properties :
#
#
# Convention : Reuss Voigt Hill
#
# Bulk Modulus (GPa) = 59.51735 60.46344 59.99040
# Shear Modulus (GPa) = 25.15235 27.60107 26.37671
#
# Velocity S-wave (km/s) = 3.50997 3.67686 3.59439
# Velocity P-wave (km/s) = 6.75121 6.90228 6.82716
#
# Compressibility (1/GPa) = 0.01680182
#
# Stress axis : x y z
#
# Youngs Moduli (GPa) = 68.85404 68.85404 82.03263
#
# Poissons Ratio (x) = 0.49507 0.20621
# Poissons Ratio (y) = 0.49507 0.20621
# Poissons Ratio (z) = 0.17308 0.17308
#
# Static dielectric constant tensor:
#      x y z
#    x 4.026030 0.000000 0.000000 
#    y 0.000000 4.026030 0.000000 
#    z 0.000000 0.000000 3.864280 
# 
# 
# High freq. dielectric constant tensor:
#      x y z
#    x 1.803950 0.000000 0.000000 
#    y 0.000000 1.803950 0.000000 
#    z 0.000000 0.000000 1.796900 
# 
# From -- ./inp_files/3429.got.cif
#   From: 2010.03.12/outbox.cif.g09.slc.cpg/sg130_2_cif.got.tgz:3429.got - 2010.04.06 17:30:23.
