data_PCOD8315989
_publ_section_title
;
Structure prediction by ZEFSAII (Michael W. Deem and Ramdas Pophale) SiO2 
 PCOD8315989
Probable space group: P 42/M M C
;
_chemical_formula_sum "Si O2"
_cell_formula_units_Z 120
_cell_length_a 26.720918
_cell_length_b 26.720918
_cell_length_c 8.916425
_cell_angle_alpha 90.000000
_cell_angle_beta 90.000000
_cell_angle_gamma 90.000000
_cell_volume 6366.393955
_symmetry_space_group_name_H-M "P 42/M M C"
_symmetry_group_IT_number 131
_symmetry_cell_setting 'tetragonal'
loop_
_space_group_symop_operation_xyz
x,y,z
-x,-y,z
-y,x,1/2+z
y,-x,1/2+z
-x,y,-z
x,-y,-z
y,x,1/2-z
-y,-x,1/2-z
-x,-y,-z
x,y,-z
y,-x,1/2-z
-y,x,1/2-z
x,-y,z
-x,y,z
-y,-x,1/2+z
y,x,1/2+z
loop_
_atom_site_type_symbol
_atom_site_label
_atom_site_fract_x
_atom_site_fract_y
_atom_site_fract_z
Si Si1 0.054738 0.327878 0.672631
Si Si2 0.867436 0.057632 0.677466
Si Si3 0.275946 0.350724 0.676465
Si Si4 0.442353 0.769630 0.322961
Si Si5 0.500000 0.055328 0.321715
Si Si6 0.591920 0.880039 0.677091
Si Si7 0.094455 0.240709 0.822806
Si Si8 0.804272 0.269152 0.323904
O O1 0.067058 0.316867 0.500000
O O2 0.100913 0.359249 0.738419
O O3 0.049612 0.275675 0.764096
O O4 0.000000 0.354227 0.690188
O O5 0.914405 0.085596 0.750000
O O6 0.872605 0.060457 0.500000
O O7 0.816145 0.084594 0.730187
O O8 0.867410 0.000000 0.731463
O O9 0.323821 0.323821 0.750000
O O10 0.285133 0.353244 0.500000
O O11 0.270931 0.406891 0.741632
O O12 0.225219 0.320247 0.716809
O O13 0.438023 0.762250 0.500000
O O14 0.500000 0.762436 0.271104
O O15 0.422903 0.824225 0.274980
O O16 0.500000 0.054137 0.500000
O O17 0.548324 0.084102 0.263785
O O18 0.500000 0.000000 0.252351
O O19 0.600593 0.884095 0.500000
O O20 0.141128 0.268098 0.745086
O O21 0.099975 0.243136 0.000000
O O22 0.777432 0.222569 0.250000
O O23 0.806537 0.260627 0.500000
#
# Coordination Sequence:
#
# PCOD8315989 Si02
#       8
#    16  16  16  16   8  16  16  16
#     4  11  24  38  51  72 104 139 178 227 282 335
#     4  10  23  42  62  85 110 134 164 204 252 313
#     4  10  21  36  55  80 112 151 191 231 278 329
#     4  10  20  35  55  81 113 145 183 231 281 331
#     4   9  16  28  49  75 101 135 189 249 292 331
#     4  10  19  34  55  78 104 141 189 237 285 334
#     4  11  22  37  58  81 106 139 177 218 267 323
#     4  10  20  34  53  80 114 146 180 220 265 320
#
# _framework density 18.848977000000001
#
# number of rings (size 3 to 8) (size 9 to 14) (size 15 to 20)
#    0.000    1.800    0.667    3.600    0.000    9.200 
#    0.000    1.000    0.000    1.200    0.000    0.000 
#    0.000    0.267    0.000    2.800    0.000    1.200 
#
# Total GULP energy -1487829.680171 kJ/mol
# GULP energy per Si atom -12398.580668 kJ/mol
# Density = 1.880608 g / cm^3
# Si number density = 18.848977 Si / 1000 Ang^3
#
#
#
# Elastic Constant Matrix: (Units=GPa)
#
#
# Indices 1 2 3 4 5 6 
#
# 1 118.6494 56.3258 42.9754 0.0000 0.0000 0.0000
# 2 56.3258 118.6560 42.9779 0.0000 0.0000 0.0000
# 3 42.9754 42.9779 61.7370 0.0000 0.0000 0.0000
# 4 0.0000 0.0000 0.0000 25.1496 0.0000 0.0000
# 5 0.0000 0.0000 0.0000 0.0000 25.1487 0.0000
# 6 0.0000 0.0000 0.0000 0.0000 0.0000 21.9762
#
#
#
# Elastic Compliance Matrix: (Units=1/GPa)
#
#
# Indices 1 2 3 4 5 6 
#
# 1 0.012365 -0.003680 -0.006046 0.000000 0.000000 0.000000
# 2 -0.003680 0.012364 -0.006046 0.000000 0.000000 0.000000
# 3 -0.006046 -0.006046 0.024615 0.000000 0.000000 0.000000
# 4 0.000000 0.000000 0.000000 0.039762 0.000000 0.000000
# 5 0.000000 0.000000 0.000000 0.000000 0.039763 0.000000
# 6 0.000000 0.000000 0.000000 0.000000 0.000000 0.045504
#
#
# Mechanical properties :
#
#
# Convention : Reuss Voigt Hill
#
# Bulk Modulus (GPa) = 56.17460 64.84453 60.50957
# Shear Modulus (GPa) = 23.60164 24.90578 24.25371
#
# Velocity S-wave (km/s) = 3.54240 3.63896 3.59101
# Velocity P-wave (km/s) = 6.82632 7.22031 7.02608
#
# Compressibility (1/GPa) = 0.01780164
#
# Stress axis : x y z
#
# Youngs Moduli (GPa) = 80.87457 80.87743 40.62590
#
# Poissons Ratio (x) = 0.29762 0.24560
# Poissons Ratio (y) = 0.29761 0.24562
# Poissons Ratio (z) = 0.48893 0.48897
#
# Static dielectric constant tensor:
#      x y z
#    x 3.453570 0.000000 0.000000 
#    y 0.000000 3.453570 0.000000 
#    z 0.000000 0.000000 3.295910 
# 
# 
# High freq. dielectric constant tensor:
#      x y z
#    x 1.725950 0.000000 0.000000 
#    y 0.000000 1.725950 0.000000 
#    z 0.000000 0.000000 1.726260 
# 
# From -- ./inp_files/2650.got.cif
#   From: 2010.03.12/outbox.cif.g09.slc.cpg/sg131_2_cif.got.tgz:2650.got - 2010.04.06 17:36:35.
