data_PCOD8315957
_publ_section_title
;
Structure prediction by ZEFSAII (Michael W. Deem and Ramdas Pophale) SiO2 
 PCOD8315957
Probable space group: P 42/M M C
;
_chemical_formula_sum "Si O2"
_cell_formula_units_Z 80
_cell_length_a 14.196969
_cell_length_b 14.196969
_cell_length_c 20.619985
_cell_angle_alpha 90.000000
_cell_angle_beta 90.000000
_cell_angle_gamma 90.000000
_cell_volume 4156.038988
_symmetry_space_group_name_H-M "P 42/M M C"
_symmetry_group_IT_number 131
_symmetry_cell_setting 'tetragonal'
loop_
_space_group_symop_operation_xyz
x,y,z
-x,-y,z
-y,x,1/2+z
y,-x,1/2+z
-x,y,-z
x,-y,-z
y,x,1/2-z
-y,-x,1/2-z
-x,-y,-z
x,y,-z
y,-x,1/2-z
-y,x,1/2-z
x,-y,z
-x,y,z
-y,-x,1/2+z
y,x,1/2+z
loop_
_atom_site_type_symbol
_atom_site_label
_atom_site_fract_x
_atom_site_fract_y
_atom_site_fract_z
Si Si1 0.607095 0.791161 0.119747
Si Si2 0.220364 0.108502 0.927241
Si Si3 0.110117 0.202857 0.812368
Si Si4 0.396162 0.891912 0.744806
Si Si5 0.603391 0.388747 0.678390
O O1 0.500000 0.801046 0.094333
O O2 0.674698 0.847675 0.071653
O O3 0.618625 0.831202 0.191550
O O4 0.639327 0.681131 0.124438
O O5 0.155363 0.165899 0.878327
O O6 0.225020 0.000000 0.905079
O O7 0.179232 0.116922 0.000000
O O8 0.149541 0.149541 0.750000
O O9 0.132926 0.314811 0.807128
O O10 0.000000 0.182592 0.816362
O O11 0.500000 0.872145 0.714243
O O12 0.386436 0.000000 0.766482
O O13 0.640930 0.359071 0.750000
O O14 0.593289 0.500000 0.680047
O O15 0.500000 0.344043 0.662237
#
# Coordination Sequence:
#
# PCOD8315957 Si02
#       5
#    16  16  16  16  16
#     4  10  19  32  55  83 113 152 191 230 282 342
#     4  11  25  42  58  81 115 152 191 239 293 349
#     4  11  22  38  62  88 115 148 190 240 290 342
#     4   9  18  33  56  87 117 144 181 233 288 337
#     4   8  15  27  44  74 114 149 183 225 274 328
#
# _framework density 19.249098
#
# number of rings (size 3 to 8) (size 9 to 14) (size 15 to 20)
#    0.000    2.200    2.000    1.800    2.800    3.400 
#    0.000    2.000    0.000    2.400    0.000    5.600 
#    0.000    0.000    0.000    0.000    0.000    0.000 
#
# Total GULP energy -991522.970012 kJ/mol
# GULP energy per Si atom -12394.037125 kJ/mol
# Density = 1.920529 g / cm^3
# Si number density = 19.249098 Si / 1000 Ang^3
#
#
#
# Elastic Constant Matrix: (Units=GPa)
#
#
# Indices 1 2 3 4 5 6 
#
# 1 95.6341 45.3913 42.1271 0.0000 0.0000 0.0000
# 2 45.3913 95.6344 42.1269 0.0000 0.0000 0.0000
# 3 42.1271 42.1269 77.0571 0.0000 0.0000 0.0000
# 4 0.0000 0.0000 0.0000 20.7914 0.0000 0.0000
# 5 0.0000 0.0000 0.0000 0.0000 20.7914 0.0000
# 6 0.0000 0.0000 0.0000 0.0000 0.0000 23.6416
#
#
#
# Elastic Compliance Matrix: (Units=1/GPa)
#
#
# Indices 1 2 3 4 5 6 
#
# 1 0.015217 -0.004687 -0.005757 0.000000 0.000000 0.000000
# 2 -0.004687 0.015217 -0.005757 0.000000 0.000000 0.000000
# 3 -0.005757 -0.005757 0.019272 0.000000 0.000000 0.000000
# 4 0.000000 0.000000 0.000000 0.048097 0.000000 0.000000
# 5 0.000000 0.000000 0.000000 0.000000 0.048097 0.000000
# 6 0.000000 0.000000 0.000000 0.000000 0.000000 0.042298
#
#
# Mechanical properties :
#
#
# Convention : Reuss Voigt Hill
#
# Bulk Modulus (GPa) = 57.78687 58.62404 58.20545
# Shear Modulus (GPa) = 22.08805 22.29020 22.18913
#
# Velocity S-wave (km/s) = 3.39113 3.40661 3.39888
# Velocity P-wave (km/s) = 6.73934 6.78196 6.76068
#
# Compressibility (1/GPa) = 0.01730497
#
# Stress axis : x y z
#
# Youngs Moduli (GPa) = 65.71656 65.71708 51.88879
#
# Poissons Ratio (x) = 0.30798 0.29872
# Poissons Ratio (y) = 0.30798 0.29872
# Poissons Ratio (z) = 0.37833 0.37832
#
# Static dielectric constant tensor:
#      x y z
#    x 3.945960 0.000000 0.000000 
#    y 0.000000 3.945950 0.000000 
#    z 0.000000 0.000000 3.124620 
# 
# 
# High freq. dielectric constant tensor:
#      x y z
#    x 1.761140 0.000000 0.000000 
#    y 0.000000 1.761140 0.000000 
#    z 0.000000 0.000000 1.694220 
# 
# From -- ./inp_files/9406.got.cif
#   From: 2010.03.12/outbox.cif.g09.slc.cpg/sg131_5_cif.got.tgz:9406.got - 2010.04.06 17:36:35.
