data_PCOD8315031
_publ_section_title
;
Structure prediction by ZEFSAII (Michael W. Deem and Ramdas Pophale) SiO2 
 PCOD8315031
Probable space group: P 4/N M M
;
_chemical_formula_sum "Si O2"
_cell_formula_units_Z 88
_cell_length_a 18.156028
_cell_length_b 18.156028
_cell_length_c 15.988957
_cell_angle_alpha 90.000000
_cell_angle_beta 90.000000
_cell_angle_gamma 90.000000
_cell_volume 5270.621414
_symmetry_space_group_name_H-M "P 4/N M M"
_symmetry_group_IT_number 129
_symmetry_cell_setting 'tetragonal'
loop_
_space_group_symop_operation_xyz
x,y,z
1/2-y,x,z
1/2-x,1/2-y,z
y,1/2-x,z
1/2+x,-y,-z
-x,1/2+y,-z
1/2+y,1/2+x,-z
-y,-x,-z
-x,-y,-z
1/2+y,-x,-z
1/2+x,1/2+y,-z
-y,1/2+x,-z
1/2-x,y,z
x,1/2-y,z
1/2-y,1/2-x,z
y,x,z
loop_
_atom_site_type_symbol
_atom_site_label
_atom_site_fract_x
_atom_site_fract_y
_atom_site_fract_z
Si Si1 0.487350 0.604063 0.091572
Si Si2 0.049724 0.332410 0.075392
Si Si3 0.334853 0.834853 0.500000
Si Si4 0.832740 0.949435 0.252119
Si Si5 0.335871 0.893905 0.675977
Si Si6 0.332193 0.589583 0.167446
O O1 0.519219 0.519219 0.101423
O O2 0.533523 0.655237 0.154344
O O3 0.400744 0.616988 0.110665
O O4 0.501091 0.630260 0.997575
O O5 0.071766 0.250000 0.049073
O O6 0.124510 0.375490 0.093298
O O7 0.999388 0.332746 0.158983
O O8 0.349858 0.750000 0.519817
O O9 0.361159 0.879807 0.581117
O O10 0.750000 0.922326 0.265518
O O11 0.885014 0.885014 0.285107
O O12 0.850924 0.020910 0.306833
O O13 0.250000 0.872892 0.689779
O O14 0.385363 0.843993 0.737267
O O15 0.250000 0.617775 0.138003
#
# Coordination Sequence:
#
# PCOD8315031 Si02
#       6
#    16  16   8  16  16  16
#     4   9  17  31  48  64  88 122 156 191 230 268
#     4  10  20  33  49  68  89 116 153 194 233 270
#     4   9  16  28  49  72  92 118 149 180 218 263
#     4   9  17  29  46  67  91 120 152 188 231 274
#     4   9  18  32  48  68  95 122 149 183 223 267
#     4  10  19  29  44  67  94 123 153 183 217 265
#
# _framework density 16.696323
#
# number of rings (size 3 to 8) (size 9 to 14) (size 15 to 20)
#    0.000    2.636    0.000    2.182    0.000    4.364 
#    0.000    1.364    0.000    4.364    0.000    0.000 
#    0.000    0.000    0.000    9.455    0.000    0.000 
#
# Total GULP energy -1090503.480344 kJ/mol
# GULP energy per Si atom -12392.085004 kJ/mol
# Density = 1.665832 g / cm^3
# Si number density = 16.696323 Si / 1000 Ang^3
#
#
#
# Elastic Constant Matrix: (Units=GPa)
#
#
# Indices 1 2 3 4 5 6 
#
# 1 100.3078 54.5598 42.5620 0.0000 0.0000 0.0000
# 2 54.5598 100.3078 42.5620 0.0000 0.0000 0.0000
# 3 42.5620 42.5620 99.5458 0.0000 0.0000 0.0000
# 4 0.0000 0.0000 0.0000 17.8782 0.0000 0.0000
# 5 0.0000 0.0000 0.0000 0.0000 17.8782 0.0000
# 6 0.0000 0.0000 0.0000 0.0000 0.0000 23.7608
#
#
#
# Elastic Compliance Matrix: (Units=1/GPa)
#
#
# Indices 1 2 3 4 5 6 
#
# 1 0.015150 -0.006709 -0.003609 0.000000 0.000000 0.000000
# 2 -0.006709 0.015150 -0.003609 0.000000 0.000000 0.000000
# 3 -0.003609 -0.003609 0.013132 0.000000 0.000000 0.000000
# 4 0.000000 0.000000 0.000000 0.055934 0.000000 0.000000
# 5 0.000000 0.000000 0.000000 0.000000 0.055934 0.000000
# 6 0.000000 0.000000 0.000000 0.000000 0.000000 0.042086
#
#
# Mechanical properties :
#
#
# Convention : Reuss Voigt Hill
#
# Bulk Modulus (GPa) = 64.19517 64.39211 64.29364
# Shear Modulus (GPa) = 21.69834 22.60193 22.15013
#
# Velocity S-wave (km/s) = 3.60889 3.68327 3.64627
# Velocity P-wave (km/s) = 7.47647 7.53253 7.50455
#
# Compressibility (1/GPa) = 0.01557750
#
# Stress axis : x y z
#
# Youngs Moduli (GPa) = 66.00723 66.00723 76.15136
#
# Poissons Ratio (x) = 0.44284 0.27483
# Poissons Ratio (y) = 0.44284 0.27483
# Poissons Ratio (z) = 0.23822 0.23822
#
# Static dielectric constant tensor:
#      x y z
#    x 3.198450 0.000000 0.000000 
#    y 0.000000 3.198450 0.000000 
#    z 0.000000 0.000000 3.046200 
# 
# 
# High freq. dielectric constant tensor:
#      x y z
#    x 1.639920 0.000000 0.000000 
#    y 0.000000 1.639920 0.000000 
#    z 0.000000 0.000000 1.618740 
# 
# From -- ./inp_files/4785.got.cif
#   From: 2010.03.12/outbox.cif.g09.slc.cpg/sg129_3_cif.got.tgz:4785.got - 2010.04.06 17:19:44.
