data_PCOD8315473
_publ_section_title
;
Structure prediction by ZEFSAII (Michael W. Deem and Ramdas Pophale) SiO2 
 PCOD8315473
Probable space group: P 4/N C C
;
_chemical_formula_sum "Si O2"
_cell_formula_units_Z 116
_cell_length_a 28.718437
_cell_length_b 28.718437
_cell_length_c 9.565244
_cell_angle_alpha 90.000000
_cell_angle_beta 90.000000
_cell_angle_gamma 90.000000
_cell_volume 7888.921825
_symmetry_space_group_name_H-M "P 4/N C C"
_symmetry_group_IT_number 130
_symmetry_cell_setting 'tetragonal'
loop_
_space_group_symop_operation_xyz
x,y,z
1/2-y,x,z
1/2-x,1/2-y,z
y,1/2-x,z
1/2+x,-y,1/2-z
-x,1/2+y,1/2-z
1/2+y,1/2+x,1/2-z
-y,-x,1/2-z
-x,-y,-z
1/2+y,-x,-z
1/2+x,1/2+y,-z
-y,1/2+x,-z
1/2-x,y,1/2+z
x,1/2-y,1/2+z
1/2-y,1/2-x,1/2+z
y,x,1/2+z
loop_
_atom_site_type_symbol
_atom_site_label
_atom_site_fract_x
_atom_site_fract_y
_atom_site_fract_z
Si Si1 0.822151 0.177850 0.088448
Si Si2 0.588550 0.208234 0.411366
Si Si3 0.088372 0.510435 0.250000
Si Si4 0.961511 0.116236 0.536398
Si Si5 0.961511 0.383763 0.463601
Si Si6 0.937617 0.515274 0.250000
Si Si7 0.208233 0.911450 0.088632
Si Si8 0.750000 0.250000 0.000000
O O1 0.835246 0.164755 0.250000
O O2 0.866241 0.195746 0.002137
O O3 0.804256 0.133759 0.002138
O O4 0.782562 0.217437 0.096108
O O5 0.551930 0.166232 0.403410
O O6 0.601541 0.221973 0.249999
O O7 0.564752 0.250001 0.499998
O O8 0.044745 0.544745 0.250000
O O9 0.121714 0.520836 0.379331
O O10 0.067939 0.457618 0.250000
O O11 0.121714 0.520836 0.120668
O O12 0.916427 0.083573 0.552652
O O13 0.948070 0.166231 0.596591
O O14 0.005649 0.094287 0.615609
O O15 0.005650 0.405712 0.384388
O O16 0.980948 0.480948 0.250000
#
# Coordination Sequence:
#
# PCOD8315473 Si02
#       8
#    16  16  16  16  16  16  16   4
#     4  12  26  39  58  69  84 107 146 194 254 298
#     4  12  25  38  52  69  91 119 154 191 236 287
#     4   9  18  28  47  74  94 114 141 174 213 282
#     4  10  19  31  50  67  94 118 145 179 231 279
#     4  10  19  31  50  67  94 118 145 179 231 279
#     4   9  16  30  47  70  94 118 139 170 221 278
#     4  12  25  38  52  69  91 119 154 191 236 287
#     4  12  26  44  56  70  86  96 146 208 258 292
#
# _framework density 14.704164
#
# number of rings (size 3 to 8) (size 9 to 14) (size 15 to 20)
#    0.000    1.379    4.138    2.276    3.862    4.414 
#    0.000    0.000    0.000    0.000    0.000    0.000 
#    0.000    0.000    0.000    0.000    0.000    0.000 
#
# Total GULP energy -1437663.016460 kJ/mol
# GULP energy per Si atom -12393.646694 kJ/mol
# Density = 1.467070 g / cm^3
# Si number density = 14.704164 Si / 1000 Ang^3
#
#
#
# Elastic Constant Matrix: (Units=GPa)
#
#
# Indices 1 2 3 4 5 6 
#
# 1 38.5474 25.4019 19.6926 0.0000 0.0000 0.0000
# 2 25.4019 38.5475 19.6926 0.0000 0.0000 0.0000
# 3 19.6926 19.6926 132.0437 0.0000 0.0000 0.0000
# 4 0.0000 0.0000 0.0000 26.5602 0.0000 0.0000
# 5 0.0000 0.0000 0.0000 0.0000 26.5601 0.0000
# 6 0.0000 0.0000 0.0000 0.0000 0.0000 20.0237
#
#
#
# Elastic Compliance Matrix: (Units=1/GPa)
#
#
# Indices 1 2 3 4 5 6 
#
# 1 0.046645 -0.029426 -0.002568 0.000000 0.000000 0.000000
# 2 -0.029426 0.046645 -0.002568 0.000000 0.000000 0.000000
# 3 -0.002568 -0.002568 0.008339 0.000000 0.000000 0.000000
# 4 0.000000 0.000000 0.000000 0.037650 0.000000 0.000000
# 5 0.000000 0.000000 0.000000 0.000000 0.037650 0.000000
# 6 0.000000 0.000000 0.000000 0.000000 0.000000 0.049941
#
#
# Mechanical properties :
#
#
# Convention : Reuss Voigt Hill
#
# Bulk Modulus (GPa) = 30.76433 37.63476 34.19954
# Shear Modulus (GPa) = 16.29560 24.25221 20.27391
#
# Velocity S-wave (km/s) = 3.33262 4.06562 3.71723
# Velocity P-wave (km/s) = 5.98131 6.90573 6.46008
#
# Compressibility (1/GPa) = 0.03250518
#
# Stress axis : x y z
#
# Youngs Moduli (GPa) = 21.43837 21.43841 119.91536
#
# Poissons Ratio (x) = 0.63085 0.30794
# Poissons Ratio (y) = 0.63085 0.30794
# Poissons Ratio (z) = 0.05505 0.05505
#
# Static dielectric constant tensor:
#      x y z
#    x 2.751600 0.000000 0.000000 
#    y 0.000000 2.751600 0.000000 
#    z 0.000000 0.000000 3.311840 
# 
# 
# High freq. dielectric constant tensor:
#      x y z
#    x 1.524320 0.000000 0.000000 
#    y 0.000000 1.524320 0.000000 
#    z 0.000000 0.000000 1.590860 
# 
# From -- ./inp_files/1105.got.cif
#   From: 2010.03.12/outbox.cif.g09.slc.cpg/sg130_1_cif.got.tgz:1105.got - 2010.04.06 17:30:23.
