data_PCOD8315213
_publ_section_title
;
Structure prediction by ZEFSAII (Michael W. Deem and Ramdas Pophale) SiO2 
 PCOD8315213
Probable space group: P 4/N M M
;
_chemical_formula_sum "Si O2"
_cell_formula_units_Z 72
_cell_length_a 24.412959
_cell_length_b 24.412959
_cell_length_c 7.636009
_cell_angle_alpha 90.000000
_cell_angle_beta 90.000000
_cell_angle_gamma 90.000000
_cell_volume 4551.004607
_symmetry_space_group_name_H-M "P 4/N M M"
_symmetry_group_IT_number 129
_symmetry_cell_setting 'tetragonal'
loop_
_space_group_symop_operation_xyz
x,y,z
1/2-y,x,z
1/2-x,1/2-y,z
y,1/2-x,z
1/2+x,-y,-z
-x,1/2+y,-z
1/2+y,1/2+x,-z
-y,-x,-z
-x,-y,-z
1/2+y,-x,-z
1/2+x,1/2+y,-z
-y,1/2+x,-z
1/2-x,y,z
x,1/2-y,z
1/2-y,1/2-x,z
y,x,z
loop_
_atom_site_type_symbol
_atom_site_label
_atom_site_fract_x
_atom_site_fract_y
_atom_site_fract_z
Si Si1 0.074985 0.513242 0.149634
Si Si2 0.458212 0.811417 0.944280
Si Si3 0.690499 0.162015 0.813747
Si Si4 0.810130 0.080012 0.336239
Si Si5 0.076711 0.576711 0.500000
O O1 0.140170 0.501717 0.122919
O O2 0.059874 0.540047 0.335431
O O3 0.045034 0.454966 0.133785
O O4 0.054966 0.554966 0.000000
O O5 0.480712 0.750000 0.901592
O O6 0.401794 0.822937 0.843172
O O7 0.450100 0.817359 0.151624
O O8 0.750000 0.169129 0.724921
O O9 0.645526 0.187906 0.687847
O O10 0.692020 0.192020 0.000000
O O11 0.750000 0.065401 0.416565
O O12 0.858927 0.063499 0.466150
#
# Coordination Sequence:
#
# PCOD8315213 Si02
#       5
#    16  16  16  16   8
#     4  11  21  35  54  75  95 122 160 205 245 288
#     4   9  16  32  52  68  90 126 158 196 248 293
#     4   9  15  25  42  60  84 119 163 208 246 276
#     4  10  20  30  44  65  93 126 168 206 238 282
#     4  12  21  34  48  67 100 122 166 202 251 290
#
# _framework density 15.820682
#
# number of rings (size 3 to 8) (size 9 to 14) (size 15 to 20)
#    0.000    2.000    4.444    3.000    0.000    3.333 
#    0.000    0.000    0.000    0.000    0.000    0.000 
#    0.000    0.444    0.000    0.000    0.000    3.333 
#
# Total GULP energy -892397.240167 kJ/mol
# GULP energy per Si atom -12394.406113 kJ/mol
# Density = 1.578467 g / cm^3
# Si number density = 15.820682 Si / 1000 Ang^3
#
#
#
# Elastic Constant Matrix: (Units=GPa)
#
#
# Indices 1 2 3 4 5 6 
#
# 1 75.1192 45.0406 19.0979 0.0000 0.0000 0.0000
# 2 45.0406 75.1192 19.0979 0.0000 0.0000 0.0000
# 3 19.0979 19.0979 57.7888 0.0000 0.0000 0.0000
# 4 0.0000 0.0000 0.0000 14.5821 0.0000 0.0000
# 5 0.0000 0.0000 0.0000 0.0000 14.5821 0.0000
# 6 0.0000 0.0000 0.0000 0.0000 0.0000 23.1001
#
#
#
# Elastic Compliance Matrix: (Units=1/GPa)
#
#
# Indices 1 2 3 4 5 6 
#
# 1 0.021273 -0.011974 -0.003073 0.000000 0.000000 0.000000
# 2 -0.011974 0.021273 -0.003073 0.000000 0.000000 0.000000
# 3 -0.003073 -0.003073 0.019336 0.000000 0.000000 0.000000
# 4 0.000000 0.000000 0.000000 0.068577 0.000000 0.000000
# 5 0.000000 0.000000 0.000000 0.000000 0.068577 0.000000
# 6 0.000000 0.000000 0.000000 0.000000 0.000000 0.043290
#
#
# Mechanical properties :
#
#
# Convention : Reuss Voigt Hill
#
# Bulk Modulus (GPa) = 38.99967 41.61113 40.30540
# Shear Modulus (GPa) = 17.41483 18.77227 18.09355
#
# Velocity S-wave (km/s) = 3.32137 3.44839 3.38548
# Velocity P-wave (km/s) = 6.27800 6.49723 6.38856
#
# Compressibility (1/GPa) = 0.02564124
#
# Stress axis : x y z
#
# Youngs Moduli (GPa) = 47.00865 47.00865 51.71809
#
# Poissons Ratio (x) = 0.56286 0.15894
# Poissons Ratio (y) = 0.56286 0.15894
# Poissons Ratio (z) = 0.14446 0.14446
#
# Static dielectric constant tensor:
#      x y z
#    x 2.826100 0.000000 0.000000 
#    y 0.000000 2.826100 0.000000 
#    z 0.000000 0.000000 3.012570 
# 
# 
# High freq. dielectric constant tensor:
#      x y z
#    x 1.571830 0.000000 0.000000 
#    y 0.000000 1.571830 0.000000 
#    z 0.000000 0.000000 1.617690 
# 
# From -- ./inp_files/2437.got.cif
#   From: 2010.03.12/outbox.cif.g09.slc.cpg/sg129_2_cif.got.tgz:2437.got - 2010.04.06 17:19:44.
