data_PCOD8315423
_publ_section_title
;
Structure prediction by ZEFSAII (Michael W. Deem and Ramdas Pophale) SiO2 
 PCOD8315423
Probable space group: P 4/N M M
;
_chemical_formula_sum "Si O2"
_cell_formula_units_Z 52
_cell_length_a 14.550629
_cell_length_b 14.550629
_cell_length_c 12.734287
_cell_angle_alpha 90.000000
_cell_angle_beta 90.000000
_cell_angle_gamma 90.000000
_cell_volume 2696.113486
_symmetry_space_group_name_H-M "P 4/N M M"
_symmetry_group_IT_number 129
_symmetry_cell_setting 'tetragonal'
loop_
_space_group_symop_operation_xyz
x,y,z
1/2-y,x,z
1/2-x,1/2-y,z
y,1/2-x,z
1/2+x,-y,-z
-x,1/2+y,-z
1/2+y,1/2+x,-z
-y,-x,-z
-x,-y,-z
1/2+y,-x,-z
1/2+x,1/2+y,-z
-y,1/2+x,-z
1/2-x,y,z
x,1/2-y,z
1/2-y,1/2-x,z
y,x,z
loop_
_atom_site_type_symbol
_atom_site_label
_atom_site_fract_x
_atom_site_fract_y
_atom_site_fract_z
Si Si1 0.934353 0.416382 0.216928
Si Si2 0.250000 0.394771 0.522621
Si Si3 0.250000 0.250000 0.187299
Si Si4 0.577344 0.250000 0.650954
Si Si5 0.250000 0.057040 0.283866
Si Si6 0.856471 0.356471 0.000000
Si Si7 0.250000 0.750000 0.500000
O O1 0.838376 0.425787 0.275721
O O2 0.985873 0.514128 0.219269
O O3 0.994695 0.339928 0.273582
O O4 0.918015 0.386600 0.097491
O O5 0.159593 0.340408 0.560657
O O6 0.250000 0.493443 0.572446
O O7 0.250000 0.398468 0.397759
O O8 0.250000 0.139132 0.201027
O O9 0.664539 0.250000 0.576888
O O10 0.874504 0.250000 0.974287
#
# Coordination Sequence:
#
# PCOD8315423 Si02
#       7
#    16   8   2   8   8   8   2
#     4  12  24  41  66  95 126 167 210 264 323 380
#     4  11  21  40  64  90 125 172 210 253 309 369
#     4  12  20  44  60 100 128 158 224 260 312 376
#     4  12  25  42  59  94 131 168 215 256 313 379
#     4  12  22  38  68  93 124 167 211 261 311 367
#     4  11  23  42  68  94 125 161 208 264 328 384
#     4  12  28  40  60  90 136 172 204 280 308 362
#
# _framework density 19.287022
#
# number of rings (size 3 to 8) (size 9 to 14) (size 15 to 20)
#    0.000    0.308    6.154    4.154    0.000    0.000 
#    0.000    4.615    0.000    0.000    0.000    0.000 
#    0.000    0.000    0.000    0.000    0.000    0.000 
#
# Total GULP energy -644181.286908 kJ/mol
# GULP energy per Si atom -12388.101671 kJ/mol
# Density = 1.924312 g / cm^3
# Si number density = 19.287022 Si / 1000 Ang^3
#
#
#
# Elastic Constant Matrix: (Units=GPa)
#
#
# Indices 1 2 3 4 5 6 
#
# 1 151.4157 42.2992 22.8037 0.0000 0.0000 0.0000
# 2 42.2992 151.4157 22.8037 0.0000 0.0000 0.0000
# 3 22.8037 22.8037 53.4069 0.0000 0.0000 0.0000
# 4 0.0000 0.0000 0.0000 -45.5423 0.0000 0.0000
# 5 0.0000 0.0000 0.0000 0.0000 -45.5423 0.0000
# 6 0.0000 0.0000 0.0000 0.0000 0.0000 22.5218
#
#
#
# Elastic Compliance Matrix: (Units=1/GPa)
#
#
# Indices 1 2 3 4 5 6 
#
# 1 0.007452 -0.001713 -0.002451 0.000000 0.000000 0.000000
# 2 -0.001713 0.007452 -0.002451 0.000000 0.000000 0.000000
# 3 -0.002451 -0.002451 0.020817 0.000000 0.000000 0.000000
# 4 0.000000 0.000000 0.000000 -0.021958 0.000000 0.000000
# 5 0.000000 0.000000 0.000000 0.000000 -0.021958 0.000000
# 6 0.000000 0.000000 0.000000 0.000000 0.000000 0.044401
#
#
# Mechanical properties :
#
#
# Convention : Reuss Voigt Hill
#
# Bulk Modulus (GPa) = 44.45806 59.11681 51.78744
# Shear Modulus (GPa) = 87.82457 4.17624 46.00041
#
# Velocity S-wave (km/s) = 6.75533 1.47310 4.88899
# Velocity P-wave (km/s) = 9.16224 5.79750 7.66674
#
# Compressibility (1/GPa) = 0.02249311
#
# Stress axis : x y z
#
# Youngs Moduli (GPa) = 134.19509 134.19509 48.03811
#
# Poissons Ratio (x) = 0.22983 0.11772
# Poissons Ratio (y) = 0.22983 0.11772
# Poissons Ratio (z) = 0.32885 0.32885
#
# Static dielectric constant tensor:
#      x y z
#    x 3.975420 0.000000 0.000000 
#    y 0.000000 3.975420 0.000000 
#    z 0.000000 0.000000 3.417730 
# 
# 
# High freq. dielectric constant tensor:
#      x y z
#    x 1.775440 0.000000 0.000000 
#    y 0.000000 1.775440 0.000000 
#    z 0.000000 0.000000 1.733660 
# 
# From -- ./inp_files/3314.got.cif
#   From: 2010.03.12/outbox.cif.g09.slc.cpg/sg129_2_cif.got.tgz:3314.got - 2010.04.06 17:19:44.
