data_PCOD8315090
_publ_section_title
;
Structure prediction by ZEFSAII (Michael W. Deem and Ramdas Pophale) SiO2 
 PCOD8315090
Probable space group: P 4/N M M
;
_chemical_formula_sum "Si O2"
_cell_formula_units_Z 128
_cell_length_a 18.946558
_cell_length_b 18.946558
_cell_length_c 23.517342
_cell_angle_alpha 90.000000
_cell_angle_beta 90.000000
_cell_angle_gamma 90.000000
_cell_volume 8442.068705
_symmetry_space_group_name_H-M "P 4/N M M"
_symmetry_group_IT_number 129
_symmetry_cell_setting 'tetragonal'
loop_
_space_group_symop_operation_xyz
x,y,z
1/2-y,x,z
1/2-x,1/2-y,z
y,1/2-x,z
1/2+x,-y,-z
-x,1/2+y,-z
1/2+y,1/2+x,-z
-y,-x,-z
-x,-y,-z
1/2+y,-x,-z
1/2+x,1/2+y,-z
-y,1/2+x,-z
1/2-x,y,z
x,1/2-y,z
1/2-y,1/2-x,z
y,x,z
loop_
_atom_site_type_symbol
_atom_site_label
_atom_site_fract_x
_atom_site_fract_y
_atom_site_fract_z
Si Si1 0.556620 0.669627 0.713316
Si Si2 0.665753 0.328972 0.562078
Si Si3 0.333350 0.590973 0.329465
Si Si4 0.056638 0.329622 0.156285
Si Si5 0.330684 0.911132 0.895497
Si Si6 0.331185 0.448916 0.951747
Si Si7 0.168640 0.546501 0.057025
Si Si8 0.169765 0.832359 0.217971
O O1 0.578817 0.750000 0.702261
O O2 0.623240 0.623240 0.695818
O O3 0.491277 0.646785 0.673914
O O4 0.533449 0.658238 0.778648
O O5 0.641741 0.358260 0.500000
O O6 0.750000 0.328043 0.562956
O O7 0.636775 0.250000 0.572244
O O8 0.634177 0.377972 0.612192
O O9 0.250000 0.602359 0.329571
O O10 0.362594 0.631000 0.273936
O O11 0.082973 0.250000 0.146027
O O12 0.121637 0.378364 0.138539
O O13 0.989456 0.346772 0.117799
O O14 0.250000 0.890317 0.910879
O O15 0.381212 0.876389 0.943339
O O16 0.351381 0.882291 0.833608
O O17 0.339209 0.996371 0.898812
O O18 0.250000 0.422199 0.956699
O O19 0.381656 0.381656 0.942736
O O20 0.354252 0.491896 0.008065
O O21 0.250000 0.567091 0.048938
O O22 0.250000 0.858751 0.203821
O O23 0.170930 0.750000 0.230531
#
# Coordination Sequence:
#
# PCOD8315090 Si02
#       8
#    16  16  16  16  16  16  16  16
#     4   9  17  27  38  53  74 101 134 173 212 247
#     4   8  13  21  35  58  86 111 135 163 191 222
#     4   9  15  24  39  58  81 109 140 171 200 231
#     4   9  17  28  42  61  83 107 137 172 211 253
#     4  10  20  32  45  63  87 113 141 170 199 236
#     4  10  22  38  53  68  83 101 130 168 210 256
#     4  10  19  31  47  66  88 112 137 165 198 241
#     4   9  16  26  42  63  87 116 145 169 193 224
#
# _framework density 15.16216
#
# number of rings (size 3 to 8) (size 9 to 14) (size 15 to 20)
#    0.000    2.750    0.000    2.625    0.000    6.125 
#    0.000    2.500    0.000    7.125    0.000    0.000 
#    0.000    0.000    0.000    0.000    0.000    0.250 
#
# Total GULP energy -1586643.569095 kJ/mol
# GULP energy per Si atom -12395.652884 kJ/mol
# Density = 1.512765 g / cm^3
# Si number density = 15.162160 Si / 1000 Ang^3
#
#
#
# Elastic Constant Matrix: (Units=GPa)
#
#
# Indices 1 2 3 4 5 6 
#
# 1 66.6006 42.9779 41.7187 0.0000 0.0000 0.0000
# 2 42.9779 66.6005 41.7187 0.0000 0.0000 0.0000
# 3 41.7187 41.7187 93.1602 0.0000 0.0000 0.0000
# 4 0.0000 0.0000 0.0000 13.7502 0.0000 0.0000
# 5 0.0000 0.0000 0.0000 0.0000 13.7502 0.0000
# 6 0.0000 0.0000 0.0000 0.0000 0.0000 20.0521
#
#
#
# Elastic Compliance Matrix: (Units=1/GPa)
#
#
# Indices 1 2 3 4 5 6 
#
# 1 0.028090 -0.014242 -0.006201 0.000000 0.000000 0.000000
# 2 -0.014242 0.028090 -0.006201 0.000000 0.000000 0.000000
# 3 -0.006201 -0.006201 0.016288 0.000000 0.000000 0.000000
# 4 0.000000 0.000000 0.000000 0.072726 0.000000 0.000000
# 5 0.000000 0.000000 0.000000 0.000000 0.072726 0.000000
# 6 0.000000 0.000000 0.000000 0.000000 0.000000 0.049870
#
#
# Mechanical properties :
#
#
# Convention : Reuss Voigt Hill
#
# Bulk Modulus (GPa) = 52.14108 53.24357 52.69232
# Shear Modulus (GPa) = 15.26844 16.17358 15.72101
#
# Velocity S-wave (km/s) = 3.17678 3.26959 3.22352
# Velocity P-wave (km/s) = 6.92239 7.03178 6.97730
#
# Compressibility (1/GPa) = 0.01917873
#
# Stress axis : x y z
#
# Youngs Moduli (GPa) = 35.59990 35.59981 61.39394
#
# Poissons Ratio (x) = 0.50702 0.38072
# Poissons Ratio (y) = 0.50702 0.38072
# Poissons Ratio (z) = 0.22076 0.22076
#
# Static dielectric constant tensor:
#      x y z
#    x 2.783230 0.000000 0.000000 
#    y 0.000000 2.783230 0.000000 
#    z 0.000000 0.000000 3.046300 
# 
# 
# High freq. dielectric constant tensor:
#      x y z
#    x 1.561220 0.000000 0.000000 
#    y 0.000000 1.561220 0.000000 
#    z 0.000000 0.000000 1.568680 
# 
# From -- ./inp_files/7340.got.cif
#   From: 2010.03.12/outbox.cif.g09.slc.cpg/sg129_4_cif.got.tgz:7340.got - 2010.04.06 17:19:44.
