data_PCOD8315670
_publ_section_title
;
Structure prediction by ZEFSAII (Michael W. Deem and Ramdas Pophale) SiO2 
 PCOD8315670
Probable space group: P 42/M M C
;
_chemical_formula_sum "Si O2"
_cell_formula_units_Z 96
_cell_length_a 14.132148
_cell_length_b 14.132148
_cell_length_c 32.800941
_cell_angle_alpha 90.000000
_cell_angle_beta 90.000000
_cell_angle_gamma 90.000000
_cell_volume 6550.925447
_symmetry_space_group_name_H-M "P 42/M M C"
_symmetry_group_IT_number 131
_symmetry_cell_setting 'tetragonal'
loop_
_space_group_symop_operation_xyz
x,y,z
-x,-y,z
-y,x,1/2+z
y,-x,1/2+z
-x,y,-z
x,-y,-z
y,x,1/2-z
-y,-x,1/2-z
-x,-y,-z
x,y,-z
y,-x,1/2-z
-y,x,1/2-z
x,-y,z
-x,y,z
-y,-x,1/2+z
y,x,1/2+z
loop_
_atom_site_type_symbol
_atom_site_label
_atom_site_fract_x
_atom_site_fract_y
_atom_site_fract_z
Si Si1 0.605931 0.607599 0.592769
Si Si2 0.389657 0.104615 0.280898
Si Si3 0.387193 0.894248 0.122355
Si Si4 0.610937 0.214709 0.044600
Si Si5 0.612182 0.784715 0.797779
Si Si6 0.608202 0.711936 0.324524
O O1 0.624663 0.500000 0.609060
O O2 0.500000 0.617321 0.575588
O O3 0.676123 0.631612 0.555919
O O4 0.624277 0.681404 0.628975
O O5 0.500000 0.089812 0.274273
O O6 0.348562 0.152842 0.239771
O O7 0.370691 0.175408 0.319047
O O8 0.343537 0.000000 0.288274
O O9 0.500000 0.893100 0.121573
O O10 0.346144 0.852102 0.079937
O O11 0.351260 0.832593 0.160364
O O12 0.347812 0.000000 0.127210
O O13 0.500000 0.195984 0.041744
O O14 0.656647 0.193600 0.000000
O O15 0.500000 0.777008 0.796118
O O16 0.654194 0.678890 0.795296
O O17 0.500000 0.689752 0.310754
#
# Coordination Sequence:
#
# PCOD8315670 Si02
#       6
#    16  16  16  16  16  16
#     4   9  16  26  39  56  81 111 139 167 201 242
#     4   9  18  30  41  55  77 105 136 167 196 231
#     4   9  16  25  37  53  75 108 146 177 205 238
#     4   9  16  25  36  52  76 108 144 177 205 236
#     4  10  17  27  42  59  82 111 139 166 197 236
#     4  10  18  27  41  60  82 108 135 166 201 234
#
# _framework density 14.654419000000001
#
# number of rings (size 3 to 8) (size 9 to 14) (size 15 to 20)
#    0.000    2.667    1.667    1.500    0.000    3.667 
#    0.000    4.167    0.000    6.000    0.000    0.000 
#    0.000   12.000    0.000    6.500    0.000    2.167 
#
# Total GULP energy -1189543.922077 kJ/mol
# GULP energy per Si atom -12391.082522 kJ/mol
# Density = 1.462106 g / cm^3
# Si number density = 14.654419 Si / 1000 Ang^3
#
#
#
# Elastic Constant Matrix: (Units=GPa)
#
#
# Indices 1 2 3 4 5 6 
#
# 1 63.8249 12.9026 20.8950 0.0000 0.0000 0.0000
# 2 12.9026 63.8249 20.8950 0.0000 0.0000 0.0000
# 3 20.8950 20.8950 76.3160 0.0000 0.0000 0.0000
# 4 0.0000 0.0000 0.0000 12.2760 0.0000 0.0000
# 5 0.0000 0.0000 0.0000 0.0000 12.2760 0.0000
# 6 0.0000 0.0000 0.0000 0.0000 0.0000 5.0730
#
#
#
# Elastic Compliance Matrix: (Units=1/GPa)
#
#
# Indices 1 2 3 4 5 6 
#
# 1 0.017478 -0.002160 -0.004194 0.000000 0.000000 0.000000
# 2 -0.002160 0.017478 -0.004194 0.000000 0.000000 0.000000
# 3 -0.004194 -0.004194 0.015400 0.000000 0.000000 0.000000
# 4 0.000000 0.000000 0.000000 0.081460 0.000000 0.000000
# 5 0.000000 0.000000 0.000000 0.000000 0.081460 0.000000
# 6 0.000000 0.000000 0.000000 0.000000 0.000000 0.197124
#
#
# Mechanical properties :
#
#
# Convention : Reuss Voigt Hill
#
# Bulk Modulus (GPa) = 34.17720 34.81678 34.49699
# Shear Modulus (GPa) = 11.33152 15.87654 13.60403
#
# Velocity S-wave (km/s) = 2.78375 3.29507 3.05014
# Velocity P-wave (km/s) = 5.80561 6.18763 5.99966
#
# Compressibility (1/GPa) = 0.02925927
#
# Stress axis : x y z
#
# Youngs Moduli (GPa) = 57.21626 57.21626 64.93542
#
# Poissons Ratio (x) = 0.12360 0.27233
# Poissons Ratio (y) = 0.12360 0.27233
# Poissons Ratio (z) = 0.23995 0.23995
#
# Static dielectric constant tensor:
#      x y z
#    x 2.764210 0.000000 0.000000 
#    y 0.000000 2.764210 0.000000 
#    z 0.000000 0.000000 2.955450 
# 
# 
# High freq. dielectric constant tensor:
#      x y z
#    x 1.526090 0.000000 0.000000 
#    y 0.000000 1.526090 0.000000 
#    z 0.000000 0.000000 1.558890 
# 
# From -- ./inp_files/13722.got.cif
#   From: 2010.03.12/outbox.cif.g09.slc.cpg/sg131_7_cif.got.tgz:13722.got - 2010.04.06 17:36:35.
