data_PCOD8315238
_publ_section_title
;
Structure prediction by ZEFSAII (Michael W. Deem and Ramdas Pophale) SiO2 
 PCOD8315238
Probable space group: P 4/N M M
;
_chemical_formula_sum "Si O2"
_cell_formula_units_Z 80
_cell_length_a 13.911095
_cell_length_b 13.911095
_cell_length_c 25.636706
_cell_angle_alpha 90.000000
_cell_angle_beta 90.000000
_cell_angle_gamma 90.000000
_cell_volume 4961.178533
_symmetry_space_group_name_H-M "P 4/N M M"
_symmetry_group_IT_number 129
_symmetry_cell_setting 'tetragonal'
loop_
_space_group_symop_operation_xyz
x,y,z
1/2-y,x,z
1/2-x,1/2-y,z
y,1/2-x,z
1/2+x,-y,-z
-x,1/2+y,-z
1/2+y,1/2+x,-z
-y,-x,-z
-x,-y,-z
1/2+y,-x,-z
1/2+x,1/2+y,-z
-y,1/2+x,-z
1/2-x,y,z
x,1/2-y,z
1/2-y,1/2-x,z
y,x,z
loop_
_atom_site_type_symbol
_atom_site_label
_atom_site_fract_x
_atom_site_fract_y
_atom_site_fract_z
Si Si1 0.365020 0.521730 0.457881
Si Si2 0.642743 0.136414 0.359631
Si Si3 0.364256 0.643337 0.244497
Si Si4 0.518002 0.139372 0.036944
Si Si5 0.488908 0.640361 0.845696
O O1 0.400296 0.599705 0.500000
O O2 0.250000 0.505668 0.462736
O O3 0.419606 0.419606 0.465315
O O4 0.397141 0.565381 0.402173
O O5 0.750000 0.093597 0.370649
O O6 0.651867 0.250000 0.361692
O O7 0.605934 0.104340 0.302030
O O8 0.250000 0.644885 0.239926
O O9 0.405538 0.750000 0.236639
O O10 0.408059 0.579437 0.197890
O O11 0.494061 0.250000 0.024548
O O12 0.555223 0.126984 0.096462
O O13 0.421300 0.078701 0.026388
O O14 0.603781 0.103781 0.000000
O O15 0.507200 0.750000 0.831779
O O16 0.592573 0.592573 0.842818
#
# Coordination Sequence:
#
# PCOD8315238 Si02
#       5
#    16  16  16  16  16
#     4  10  20  32  47  68  92 119 152 189 230 275
#     4   8  14  26  44  63  83 110 144 181 218 255
#     4   8  14  25  41  61  84 110 142 179 215 249
#     4   9  18  31  45  63  87 114 146 184 225 270
#     4   9  17  28  42  61  86 115 144 174 211 259
#
# _framework density 16.125202000000002
#
# number of rings (size 3 to 8) (size 9 to 14) (size 15 to 20)
#    0.000    3.200    0.000    1.800    0.000    3.400 
#    0.000    4.000    0.000    0.000    0.000    5.600 
#    0.000    0.400    0.000    4.400    0.000    7.600 
#
# Total GULP energy -991294.722342 kJ/mol
# GULP energy per Si atom -12391.184029 kJ/mol
# Density = 1.608850 g / cm^3
# Si number density = 16.125202 Si / 1000 Ang^3
#
#
#
# Elastic Constant Matrix: (Units=GPa)
#
#
# Indices 1 2 3 4 5 6 
#
# 1 68.9086 32.0378 49.1758 0.0000 0.0000 0.0000
# 2 32.0378 68.9081 49.1756 0.0000 0.0000 0.0000
# 3 49.1758 49.1756 120.3408 0.0000 0.0000 0.0000
# 4 0.0000 0.0000 0.0000 23.5410 0.0000 0.0000
# 5 0.0000 0.0000 0.0000 0.0000 23.5410 0.0000
# 6 0.0000 0.0000 0.0000 0.0000 0.0000 11.9775
#
#
#
# Elastic Compliance Matrix: (Units=1/GPa)
#
#
# Indices 1 2 3 4 5 6 
#
# 1 0.021791 -0.005331 -0.006726 0.000000 0.000000 0.000000
# 2 -0.005331 0.021791 -0.006726 0.000000 0.000000 0.000000
# 3 -0.006726 -0.006726 0.013807 0.000000 0.000000 0.000000
# 4 0.000000 0.000000 0.000000 0.042479 0.000000 0.000000
# 5 0.000000 0.000000 0.000000 0.000000 0.042479 0.000000
# 6 0.000000 0.000000 0.000000 0.000000 0.000000 0.083490
#
#
# Mechanical properties :
#
#
# Convention : Reuss Voigt Hill
#
# Bulk Modulus (GPa) = 50.44984 57.65954 54.05469
# Shear Modulus (GPa) = 18.51792 20.32980 19.42386
#
# Velocity S-wave (km/s) = 3.39246 3.55455 3.47445
# Velocity P-wave (km/s) = 6.83369 7.25820 7.04914
#
# Compressibility (1/GPa) = 0.01982167
#
# Stress axis : x y z
#
# Youngs Moduli (GPa) = 45.89151 45.89126 72.42911
#
# Poissons Ratio (x) = 0.24466 0.48715
# Poissons Ratio (y) = 0.24466 0.48715
# Poissons Ratio (z) = 0.30866 0.30866
#
# Static dielectric constant tensor:
#      x y z
#    x 2.878600 0.000000 0.000000 
#    y 0.000000 2.878600 0.000000 
#    z 0.000000 0.000000 3.478440 
# 
# 
# High freq. dielectric constant tensor:
#      x y z
#    x 1.593120 0.000000 0.000000 
#    y 0.000000 1.593120 0.000000 
#    z 0.000000 0.000000 1.638200 
# 
# From -- ./inp_files/6314.got.cif
#   From: 2010.03.12/outbox.cif.g09.slc.cpg/sg129_4_cif.got.tgz:6314.got - 2010.04.06 17:19:44.
