data_PCOD8315301
_publ_section_title
;
Structure prediction by ZEFSAII (Michael W. Deem and Ramdas Pophale) SiO2 
 PCOD8315301
Probable space group: P 4/N M M
;
_chemical_formula_sum "Si O2"
_cell_formula_units_Z 80
_cell_length_a 13.495385
_cell_length_b 13.495385
_cell_length_c 25.621493
_cell_angle_alpha 90.000000
_cell_angle_beta 90.000000
_cell_angle_gamma 90.000000
_cell_volume 4666.325079
_symmetry_space_group_name_H-M "P 4/N M M"
_symmetry_group_IT_number 129
_symmetry_cell_setting 'tetragonal'
loop_
_space_group_symop_operation_xyz
x,y,z
1/2-y,x,z
1/2-x,1/2-y,z
y,1/2-x,z
1/2+x,-y,-z
-x,1/2+y,-z
1/2+y,1/2+x,-z
-y,-x,-z
-x,-y,-z
1/2+y,-x,-z
1/2+x,1/2+y,-z
-y,1/2+x,-z
1/2-x,y,z
x,1/2-y,z
1/2-y,1/2-x,z
y,x,z
loop_
_atom_site_type_symbol
_atom_site_label
_atom_site_fract_x
_atom_site_fract_y
_atom_site_fract_z
Si Si1 0.366425 0.529074 0.452984
Si Si2 0.479121 0.636703 0.246371
Si Si3 0.473164 0.865560 0.363456
Si Si4 0.861248 0.133519 0.146238
Si Si5 0.633587 0.474173 0.956035
O O1 0.400938 0.599063 0.500000
O O2 0.250000 0.506624 0.457296
O O3 0.424455 0.424455 0.454540
O O4 0.388269 0.588259 0.399716
O O5 0.504312 0.750000 0.237286
O O6 0.582917 0.582917 0.240105
O O7 0.434238 0.619230 0.304167
O O8 0.404248 0.597637 0.201974
O O9 0.490933 0.750000 0.376430
O O10 0.577316 0.922685 0.372953
O O11 0.750000 0.093859 0.135656
O O12 0.860882 0.250000 0.149205
O O13 0.931514 0.097615 0.099571
O O14 0.750000 0.495399 0.957551
O O15 0.577282 0.577282 0.966527
O O16 0.606245 0.393756 0.000000
#
# Coordination Sequence:
#
# PCOD8315301 Si02
#       5
#    16  16  16  16  16
#     4  10  21  36  53  74  99 126 158 195 235 281
#     4   9  17  29  45  66  94 125 156 192 232 275
#     4   9  18  31  47  70  98 128 163 200 238 281
#     4   9  17  29  46  68  92 119 154 194 233 275
#     4  10  20  33  50  71  94 122 155 191 233 279
#
# _framework density 17.144113000000001
#
# number of rings (size 3 to 8) (size 9 to 14) (size 15 to 20)
#    0.000    2.600    0.000    1.800    0.000    4.000 
#    0.000    4.000    0.000    3.600    0.000    2.800 
#    0.000    4.800    0.000    0.000    0.000    0.000 
#
# Total GULP energy -991798.459867 kJ/mol
# GULP energy per Si atom -12397.480748 kJ/mol
# Density = 1.710509 g / cm^3
# Si number density = 17.144113 Si / 1000 Ang^3
#
#
#
# Elastic Constant Matrix: (Units=GPa)
#
#
# Indices 1 2 3 4 5 6 
#
# 1 82.6699 40.1672 46.8562 0.0000 0.0000 0.0000
# 2 40.1672 82.6712 46.8559 0.0000 0.0000 0.0000
# 3 46.8562 46.8559 124.4764 0.0000 0.0000 0.0000
# 4 0.0000 0.0000 0.0000 26.2176 0.0000 0.0000
# 5 0.0000 0.0000 0.0000 0.0000 26.2175 0.0000
# 6 0.0000 0.0000 0.0000 0.0000 0.0000 17.7203
#
#
#
# Elastic Compliance Matrix: (Units=1/GPa)
#
#
# Indices 1 2 3 4 5 6 
#
# 1 0.017474 -0.006054 -0.004299 0.000000 0.000000 0.000000
# 2 -0.006054 0.017474 -0.004299 0.000000 0.000000 0.000000
# 3 -0.004299 -0.004299 0.011270 0.000000 0.000000 0.000000
# 4 0.000000 0.000000 0.000000 0.038142 0.000000 0.000000
# 5 0.000000 0.000000 0.000000 0.000000 0.038142 0.000000
# 6 0.000000 0.000000 0.000000 0.000000 0.000000 0.056433
#
#
# Mechanical properties :
#
#
# Convention : Reuss Voigt Hill
#
# Bulk Modulus (GPa) = 59.11828 61.95290 60.53559
# Shear Modulus (GPa) = 23.37796 24.42696 23.90246
#
# Velocity S-wave (km/s) = 3.69672 3.77875 3.73796
# Velocity P-wave (km/s) = 7.26492 7.43328 7.34958
#
# Compressibility (1/GPa) = 0.01691524
#
# Stress axis : x y z
#
# Youngs Moduli (GPa) = 57.22724 57.22858 88.73021
#
# Poissons Ratio (x) = 0.34643 0.38146
# Poissons Ratio (y) = 0.34643 0.38144
# Poissons Ratio (z) = 0.24602 0.24602
#
# Static dielectric constant tensor:
#      x y z
#    x 3.064020 0.000000 0.000000 
#    y 0.000000 3.064020 0.000000 
#    z 0.000000 0.000000 3.578310 
# 
# 
# High freq. dielectric constant tensor:
#      x y z
#    x 1.648960 0.000000 0.000000 
#    y 0.000000 1.648960 0.000000 
#    z 0.000000 0.000000 1.682290 
# 
# From -- ./inp_files/6347.got.cif
#   From: 2010.03.12/outbox.cif.g09.slc.cpg/sg129_4_cif.got.tgz:6347.got - 2010.04.06 17:19:44.
