data_PCOD8315934
_publ_section_title
;
Structure prediction by ZEFSAII (Michael W. Deem and Ramdas Pophale) SiO2 
 PCOD8315934
Probable space group: P 42/M M C
;
_chemical_formula_sum "Si O2"
_cell_formula_units_Z 104
_cell_length_a 26.544338
_cell_length_b 26.544338
_cell_length_c 8.827205
_cell_angle_alpha 90.000000
_cell_angle_beta 90.000000
_cell_angle_gamma 90.000000
_cell_volume 6219.665237
_symmetry_space_group_name_H-M "P 42/M M C"
_symmetry_group_IT_number 131
_symmetry_cell_setting 'tetragonal'
loop_
_space_group_symop_operation_xyz
x,y,z
-x,-y,z
-y,x,1/2+z
y,-x,1/2+z
-x,y,-z
x,-y,-z
y,x,1/2-z
-y,-x,1/2-z
-x,-y,-z
x,y,-z
y,-x,1/2-z
-y,x,1/2-z
x,-y,z
-x,y,z
-y,-x,1/2+z
y,x,1/2+z
loop_
_atom_site_type_symbol
_atom_site_label
_atom_site_fract_x
_atom_site_fract_y
_atom_site_fract_z
Si Si1 0.873680 0.582722 0.820556
Si Si2 0.056555 0.129806 0.178090
Si Si3 0.862636 0.788513 0.821113
Si Si4 0.340336 0.265647 0.175480
Si Si5 0.153179 0.684652 0.679588
Si Si6 0.940499 0.500000 0.675695
Si Si7 0.555196 0.228285 0.174216
O O1 0.877545 0.637884 0.747080
O O2 0.919154 0.549781 0.755684
O O3 0.820786 0.556886 0.778584
O O4 0.878597 0.586639 0.000000
O O5 0.079417 0.079417 0.250000
O O6 0.089032 0.178402 0.225894
O O7 0.000000 0.137609 0.239200
O O8 0.057357 0.122387 0.000000
O O9 0.812351 0.812351 0.750000
O O10 0.871640 0.734007 0.750602
O O11 0.855425 0.784723 0.000000
O O12 0.312364 0.312364 0.250000
O O13 0.318552 0.211820 0.229761
O O14 0.400173 0.267342 0.217496
O O15 0.331121 0.272387 0.000000
O O16 0.147467 0.685054 0.500000
O O17 0.924552 0.500000 0.500000
O O18 0.000000 0.500000 0.696670
O O19 0.500000 0.253931 0.194273
O O20 0.563879 0.210792 0.000000
#
# Coordination Sequence:
#
# PCOD8315934 Si02
#       7
#    16  16  16  16  16   8  16
#     4  11  21  33  52  77 100 123 161 209 255 297
#     4   9  19  35  53  74 100 128 158 195 241 291
#     4  10  19  32  51  74 100 131 166 203 246 298
#     4   9  18  29  43  67  96 129 161 197 244 291
#     4  10  20  34  51  71  98 133 170 203 243 296
#     4  11  23  39  57  73  95 129 165 205 254 303
#     4   9  17  31  50  68  94 132 170 203 243 298
#
# _framework density 16.721157000000002
#
# number of rings (size 3 to 8) (size 9 to 14) (size 15 to 20)
#    0.000    2.231    0.769    3.923    0.000    6.000 
#    0.000    1.538    0.000    2.769    0.000    0.000 
#    0.000    0.308    0.000    3.846    0.000    0.000 
#
# Total GULP energy -1289562.471565 kJ/mol
# GULP energy per Si atom -12399.639150 kJ/mol
# Density = 1.668310 g / cm^3
# Si number density = 16.721157 Si / 1000 Ang^3
#
#
#
# Elastic Constant Matrix: (Units=GPa)
#
#
# Indices 1 2 3 4 5 6 
#
# 1 119.5041 57.3112 41.6334 0.0000 0.0000 0.0000
# 2 57.3112 119.5041 41.6334 0.0000 0.0000 0.0000
# 3 41.6334 41.6334 77.8139 0.0000 0.0000 0.0000
# 4 0.0000 0.0000 0.0000 25.3676 0.0000 0.0000
# 5 0.0000 0.0000 0.0000 0.0000 25.3676 0.0000
# 6 0.0000 0.0000 0.0000 0.0000 0.0000 23.1231
#
#
#
# Elastic Compliance Matrix: (Units=1/GPa)
#
#
# Indices 1 2 3 4 5 6 
#
# 1 0.011820 -0.004259 -0.004045 0.000000 0.000000 0.000000
# 2 -0.004259 0.011820 -0.004045 0.000000 0.000000 0.000000
# 3 -0.004045 -0.004045 0.017180 0.000000 0.000000 0.000000
# 4 0.000000 0.000000 0.000000 0.039420 0.000000 0.000000
# 5 0.000000 0.000000 0.000000 0.000000 0.039420 0.000000
# 6 0.000000 0.000000 0.000000 0.000000 0.000000 0.043247
#
#
# Mechanical properties :
#
#
# Convention : Reuss Voigt Hill
#
# Bulk Modulus (GPa) = 62.03386 66.44201 64.23794
# Shear Modulus (GPa) = 25.90948 26.52128 26.21538
#
# Velocity S-wave (km/s) = 3.94064 3.98690 3.96384
# Velocity P-wave (km/s) = 7.60818 7.81123 7.71038
#
# Compressibility (1/GPa) = 0.01612023
#
# Stress axis : x y z
#
# Youngs Moduli (GPa) = 84.60374 84.60374 58.20772
#
# Poissons Ratio (x) = 0.36034 0.23546
# Poissons Ratio (y) = 0.36034 0.23546
# Poissons Ratio (z) = 0.34224 0.34224
#
# Static dielectric constant tensor:
#      x y z
#    x 3.397280 0.000000 0.000000 
#    y 0.000000 3.397280 0.000000 
#    z 0.000000 0.000000 3.154480 
# 
# 
# High freq. dielectric constant tensor:
#      x y z
#    x 1.632620 0.000000 0.000000 
#    y 0.000000 1.632620 0.000000 
#    z 0.000000 0.000000 1.651990 
# 
# From -- ./inp_files/2541.got.cif
#   From: 2010.03.12/outbox.cif.g09.slc.cpg/sg131_2_cif.got.tgz:2541.got - 2010.04.06 17:36:35.
