data_PCOD8315553
_publ_section_title
;
Structure prediction by ZEFSAII (Michael W. Deem and Ramdas Pophale) SiO2 
 PCOD8315553
Probable space group: P 4/N C C
;
_chemical_formula_sum "Si O2"
_cell_formula_units_Z 92
_cell_length_a 21.779493
_cell_length_b 21.779493
_cell_length_c 9.074884
_cell_angle_alpha 90.000000
_cell_angle_beta 90.000000
_cell_angle_gamma 90.000000
_cell_volume 4304.637788
_symmetry_space_group_name_H-M "P 4/N C C"
_symmetry_group_IT_number 130
_symmetry_cell_setting 'tetragonal'
loop_
_space_group_symop_operation_xyz
x,y,z
1/2-y,x,z
1/2-x,1/2-y,z
y,1/2-x,z
1/2+x,-y,1/2-z
-x,1/2+y,1/2-z
1/2+y,1/2+x,1/2-z
-y,-x,1/2-z
-x,-y,-z
1/2+y,-x,-z
1/2+x,1/2+y,-z
-y,1/2+x,-z
1/2-x,y,1/2+z
x,1/2-y,1/2+z
1/2-y,1/2-x,1/2+z
y,x,1/2+z
loop_
_atom_site_type_symbol
_atom_site_label
_atom_site_fract_x
_atom_site_fract_y
_atom_site_fract_z
Si Si1 0.901007 0.484113 0.316776
Si Si2 0.578910 0.935315 0.575035
Si Si3 0.265186 0.542905 0.168546
Si Si4 0.719525 0.374625 0.092415
Si Si5 0.852092 0.529433 0.832410
Si Si6 0.250000 0.750000 0.750000
Si Si7 0.600339 0.399662 0.250000
O O1 0.916681 0.416681 0.250000
O O2 0.925962 0.501316 0.480026
O O3 0.934103 0.526402 0.196656
O O4 0.828662 0.493090 0.327753
O O5 0.642148 0.935174 0.673450
O O6 0.573158 0.877851 0.463135
O O7 0.249370 0.566659 0.329130
O O8 0.216435 0.490378 0.122748
O O9 0.265349 0.607425 0.075926
O O10 0.749032 0.309401 0.141138
O O11 0.646276 0.379647 0.116906
O O12 0.892435 0.467507 0.813861
#
# Coordination Sequence:
#
# PCOD8315553 Si02
#       7
#    16  16  16  16  16   4   8
#     4  11  23  36  60  88 122 158 203 244 306 368
#     4  10  23  37  59  89 118 156 200 254 304 378
#     4  11  23  41  59  86 120 159 199 255 308 372
#     4  10  23  38  57  79 110 162 208 265 301 343
#     4  10  22  38  60  84 120 154 199 249 315 358
#     4  10  24  42  56  80 112 158 228 276 304 342
#     4   9  20  35  54  77 118 150 200 251 303 350
#
# _framework density 21.372297
#
# number of rings (size 3 to 8) (size 9 to 14) (size 15 to 20)
#    0.000    1.739    0.000    3.652   10.957    4.870 
#    0.000    0.000    0.000    0.000    0.000    0.000 
#    0.000   48.696    0.000    0.000    0.000    0.000 
#
# Total GULP energy -1139781.738830 kJ/mol
# GULP energy per Si atom -12388.931944 kJ/mol
# Density = 2.132365 g / cm^3
# Si number density = 21.372297 Si / 1000 Ang^3
#
#
#
# Elastic Constant Matrix: (Units=GPa)
#
#
# Indices 1 2 3 4 5 6 
#
# 1 89.9907 57.0299 31.3812 0.0000 0.0000 0.0000
# 2 57.0299 89.9909 31.3812 0.0000 0.0000 0.0000
# 3 31.3812 31.3812 110.0313 0.0000 0.0000 0.0000
# 4 0.0000 0.0000 0.0000 22.2771 0.0000 0.0000
# 5 0.0000 0.0000 0.0000 0.0000 22.2773 0.0000
# 6 0.0000 0.0000 0.0000 0.0000 0.0000 29.8538
#
#
#
# Elastic Compliance Matrix: (Units=1/GPa)
#
#
# Indices 1 2 3 4 5 6 
#
# 1 0.019042 -0.011297 -0.002209 0.000000 0.000000 0.000000
# 2 -0.011297 0.019042 -0.002209 0.000000 0.000000 0.000000
# 3 -0.002209 -0.002209 0.010348 0.000000 0.000000 0.000000
# 4 0.000000 0.000000 0.000000 0.044889 0.000000 0.000000
# 5 0.000000 0.000000 0.000000 0.000000 0.044889 0.000000
# 6 0.000000 0.000000 0.000000 0.000000 0.000000 0.033497
#
#
# Mechanical properties :
#
#
# Convention : Reuss Voigt Hill
#
# Bulk Modulus (GPa) = 58.81525 58.84418 58.82972
# Shear Modulus (GPa) = 23.94597 26.22966 25.08782
#
# Velocity S-wave (km/s) = 3.35090 3.50705 3.42986
# Velocity P-wave (km/s) = 6.52307 6.63264 6.57808
#
# Compressibility (1/GPa) = 0.01700239
#
# Stress axis : x y z
#
# Youngs Moduli (GPa) = 52.51590 52.51607 96.63483
#
# Poissons Ratio (x) = 0.59328 0.21345
# Poissons Ratio (y) = 0.59328 0.21345
# Poissons Ratio (z) = 0.11600 0.11600
#
# Static dielectric constant tensor:
#      x y z
#    x 3.773140 0.000000 0.000000 
#    y 0.000000 3.773130 0.000000 
#    z 0.000000 0.000000 4.228250 
# 
# 
# High freq. dielectric constant tensor:
#      x y z
#    x 1.811860 0.000000 0.000000 
#    y 0.000000 1.811860 0.000000 
#    z 0.000000 0.000000 1.862050 
# 
# From -- ./inp_files/958.got.cif
#   From: 2010.03.12/outbox.cif.g09.slc.cpg/sg130_1_cif.got.tgz:958.got - 2010.04.06 17:30:23.
