data_PCOD8315554
_publ_section_title
;
Structure prediction by ZEFSAII (Michael W. Deem and Ramdas Pophale) SiO2 
 PCOD8315554
Probable space group: P 4/N C C
;
_chemical_formula_sum "Si O2"
_cell_formula_units_Z 96
_cell_length_a 18.878346
_cell_length_b 18.878346
_cell_length_c 14.212025
_cell_angle_alpha 90.000000
_cell_angle_beta 90.000000
_cell_angle_gamma 90.000000
_cell_volume 5065.051270
_symmetry_space_group_name_H-M "P 4/N C C"
_symmetry_group_IT_number 130
_symmetry_cell_setting 'tetragonal'
loop_
_space_group_symop_operation_xyz
x,y,z
1/2-y,x,z
1/2-x,1/2-y,z
y,1/2-x,z
1/2+x,-y,1/2-z
-x,1/2+y,1/2-z
1/2+y,1/2+x,1/2-z
-y,-x,1/2-z
-x,-y,-z
1/2+y,-x,-z
1/2+x,1/2+y,-z
-y,1/2+x,-z
1/2-x,y,1/2+z
x,1/2-y,1/2+z
1/2-y,1/2-x,1/2+z
y,x,1/2+z
loop_
_atom_site_type_symbol
_atom_site_label
_atom_site_fract_x
_atom_site_fract_y
_atom_site_fract_z
Si Si1 0.837295 0.337295 0.250000
Si Si2 0.323376 0.823376 0.250000
Si Si3 0.817471 0.414043 0.574994
Si Si4 0.797473 0.858012 0.323218
Si Si5 0.423005 0.188443 0.879473
Si Si6 0.584571 0.159318 0.436868
Si Si7 0.421245 0.330435 0.979559
O O1 0.756096 0.342115 0.284224
O O2 0.896375 0.353792 0.328107
O O3 0.345788 0.868900 0.338648
O O4 0.813917 0.493328 0.611655
O O5 0.872779 0.401034 0.492096
O O6 0.739467 0.390409 0.538566
O O7 0.714062 0.842254 0.327636
O O8 0.817241 0.899651 0.228575
O O9 0.819035 0.908798 0.409429
O O10 0.394221 0.261419 0.923418
O O11 0.395319 0.123974 0.941495
O O12 0.502125 0.150005 0.458387
#
# Coordination Sequence:
#
# PCOD8315554 Si02
#       7
#     8   8  16  16  16  16  16
#     4   9  18  38  61  86 116 154 205 254 300 361
#     4   9  18  34  61  88 112 148 209 252 294 361
#     4  10  22  38  61  89 119 161 200 253 306 360
#     4  11  22  38  68  92 119 164 203 257 311 357
#     4  11  23  41  59  91 127 156 206 254 301 371
#     4  10  22  40  61  88 122 161 201 254 309 363
#     4  11  23  41  61  93 125 157 206 255 304 369
#
# _framework density 18.953410000000002
#
# number of rings (size 3 to 8) (size 9 to 14) (size 15 to 20)
#    0.000    1.667    3.333    1.000    2.333    2.667 
#   12.000    0.833    0.000    0.000    0.000    0.000 
#    0.000    0.000    0.000    0.000    0.000    0.000 
#
# Total GULP energy -1190370.260145 kJ/mol
# GULP energy per Si atom -12399.690210 kJ/mol
# Density = 1.891027 g / cm^3
# Si number density = 18.953410 Si / 1000 Ang^3
#
#
#
# Elastic Constant Matrix: (Units=GPa)
#
#
# Indices 1 2 3 4 5 6 
#
# 1 70.6798 30.2494 43.8423 0.0000 0.0000 0.0000
# 2 30.2494 70.6798 43.8423 0.0000 0.0000 0.0000
# 3 43.8423 43.8423 124.5475 0.0000 0.0000 0.0000
# 4 0.0000 0.0000 0.0000 16.5696 0.0000 0.0000
# 5 0.0000 0.0000 0.0000 0.0000 16.5696 0.0000
# 6 0.0000 0.0000 0.0000 0.0000 0.0000 24.9006
#
#
#
# Elastic Compliance Matrix: (Units=1/GPa)
#
#
# Indices 1 2 3 4 5 6 
#
# 1 0.019503 -0.005231 -0.005024 0.000000 0.000000 0.000000
# 2 -0.005231 0.019503 -0.005024 0.000000 0.000000 0.000000
# 3 -0.005024 -0.005024 0.011566 0.000000 0.000000 0.000000
# 4 0.000000 0.000000 0.000000 0.060351 0.000000 0.000000
# 5 0.000000 0.000000 0.000000 0.000000 0.060351 0.000000
# 6 0.000000 0.000000 0.000000 0.000000 0.000000 0.040160
#
#
# Mechanical properties :
#
#
# Convention : Reuss Voigt Hill
#
# Bulk Modulus (GPa) = 49.96241 55.75279 52.85760
# Shear Modulus (GPa) = 20.10737 21.47285 20.79011
#
# Velocity S-wave (km/s) = 3.26065 3.36955 3.31555
# Velocity P-wave (km/s) = 6.37132 6.67968 6.52732
#
# Compressibility (1/GPa) = 0.02001505
#
# Stress axis : x y z
#
# Youngs Moduli (GPa) = 51.27323 51.27323 86.45853
#
# Poissons Ratio (x) = 0.26819 0.43439
# Poissons Ratio (y) = 0.26819 0.43439
# Poissons Ratio (z) = 0.25761 0.25761
#
# Static dielectric constant tensor:
#      x y z
#    x 3.452780 0.000000 0.000000 
#    y 0.000000 3.452780 0.000000 
#    z 0.000000 0.000000 3.500380 
# 
# 
# High freq. dielectric constant tensor:
#      x y z
#    x 1.733150 0.000000 0.000000 
#    y 0.000000 1.733150 0.000000 
#    z 0.000000 0.000000 1.744730 
# 
# From -- ./inp_files/1808.got.cif
#   From: 2010.03.12/outbox.cif.g09.slc.cpg/sg130_1_cif.got.tgz:1808.got - 2010.04.06 17:30:23.
