data_PCOD8315200
_publ_section_title
;
Structure prediction by ZEFSAII (Michael W. Deem and Ramdas Pophale) SiO2 
 PCOD8315200
Probable space group: P 4/N M M
;
_chemical_formula_sum "Si O2"
_cell_formula_units_Z 96
_cell_length_a 24.166353
_cell_length_b 24.166353
_cell_length_c 9.646293
_cell_angle_alpha 90.000000
_cell_angle_beta 90.000000
_cell_angle_gamma 90.000000
_cell_volume 5633.556822
_symmetry_space_group_name_H-M "P 4/N M M"
_symmetry_group_IT_number 129
_symmetry_cell_setting 'tetragonal'
loop_
_space_group_symop_operation_xyz
x,y,z
1/2-y,x,z
1/2-x,1/2-y,z
y,1/2-x,z
1/2+x,-y,-z
-x,1/2+y,-z
1/2+y,1/2+x,-z
-y,-x,-z
-x,-y,-z
1/2+y,-x,-z
1/2+x,1/2+y,-z
-y,1/2+x,-z
1/2-x,y,z
x,1/2-y,z
1/2-y,1/2-x,z
y,x,z
loop_
_atom_site_type_symbol
_atom_site_label
_atom_site_fract_x
_atom_site_fract_y
_atom_site_fract_z
Si Si1 0.948281 0.360176 0.952746
Si Si2 0.250000 0.581511 0.797777
Si Si3 0.750000 0.062297 0.649256
Si Si4 0.931125 0.021329 0.289686
Si Si5 0.548118 0.863309 0.496860
Si Si6 0.750000 0.980881 0.414332
Si Si7 0.475531 0.640876 0.750253
Si Si8 0.250000 0.662514 0.548407
O O1 0.922449 0.303132 0.896917
O O2 0.986742 0.389261 0.838059
O O3 0.896090 0.396090 0.000000
O O4 0.989439 0.357005 0.085974
O O5 0.250000 0.527830 0.701077
O O6 0.250000 0.640096 0.709396
O O7 0.693431 0.065812 0.735844
O O8 0.750000 0.107824 0.535485
O O9 0.750000 0.004693 0.568726
O O10 0.943597 0.086223 0.301056
O O11 0.901502 0.999814 0.428705
O O12 0.987706 0.987706 0.262024
O O13 0.607230 0.892771 0.490799
O O14 0.555048 0.806492 0.408598
O O15 0.530764 0.853685 0.657170
O O16 0.196269 0.696269 0.500000
#
# Coordination Sequence:
#
# PCOD8315200 Si02
#       8
#    16   8   8  16  16   8  16   8
#     4  10  22  34  51  77 102 147 179 220 274 331
#     4  11  20  40  56  71 110 146 186 234 279 338
#     4   9  20  32  53  72  97 128 176 222 260 324
#     4  10  20  33  51  78 108 138 174 215 274 335
#     4  10  19  33  54  80 107 138 175 221 273 326
#     4   9  18  33  54  79  98 139 172 217 267 317
#     4  10  20  32  49  76 105 136 176 215 265 323
#     4  10  24  37  53  76  95 129 186 252 292 307
#
# _framework density 17.040742999999999
#
# number of rings (size 3 to 8) (size 9 to 14) (size 15 to 20)
#    0.000    2.083    1.667    1.500    4.667    5.000 
#    0.000    0.000    0.000    0.250    0.000    0.000 
#    0.000    0.000    0.000    0.083    0.000    0.000 
#
# Total GULP energy -1189348.297538 kJ/mol
# GULP energy per Si atom -12389.044766 kJ/mol
# Density = 1.700196 g / cm^3
# Si number density = 17.040743 Si / 1000 Ang^3
#
#
#
# Elastic Constant Matrix: (Units=GPa)
#
#
# Indices 1 2 3 4 5 6 
#
# 1 88.8708 42.9523 29.4990 0.0000 0.0000 0.0000
# 2 42.9523 88.8708 29.4990 0.0000 0.0000 0.0000
# 3 29.4990 29.4990 93.8472 0.0000 0.0000 0.0000
# 4 0.0000 0.0000 0.0000 13.9230 0.0000 0.0000
# 5 0.0000 0.0000 0.0000 0.0000 13.9230 0.0000
# 6 0.0000 0.0000 0.0000 0.0000 0.0000 14.8378
#
#
#
# Elastic Compliance Matrix: (Units=1/GPa)
#
#
# Indices 1 2 3 4 5 6 
#
# 1 0.015303 -0.006475 -0.002775 0.000000 0.000000 0.000000
# 2 -0.006475 0.015303 -0.002775 0.000000 0.000000 0.000000
# 3 -0.002775 -0.002775 0.012400 0.000000 0.000000 0.000000
# 4 0.000000 0.000000 0.000000 0.071824 0.000000 0.000000
# 5 0.000000 0.000000 0.000000 0.000000 0.071824 0.000000
# 6 0.000000 0.000000 0.000000 0.000000 0.000000 0.067395
#
#
# Mechanical properties :
#
#
# Convention : Reuss Voigt Hill
#
# Bulk Modulus (GPa) = 52.75288 52.83212 52.79250
# Shear Modulus (GPa) = 17.57987 19.84600 18.71293
#
# Velocity S-wave (km/s) = 3.21540 3.41636 3.31740
# Velocity P-wave (km/s) = 6.69396 6.82881 6.76172
#
# Compressibility (1/GPa) = 0.01895631
#
# Stress axis : x y z
#
# Youngs Moduli (GPa) = 65.34766 65.34766 80.64479
#
# Poissons Ratio (x) = 0.42312 0.22378
# Poissons Ratio (y) = 0.42312 0.22378
# Poissons Ratio (z) = 0.18133 0.18133
#
# Static dielectric constant tensor:
#      x y z
#    x 3.873360 0.000000 0.000000 
#    y 0.000000 3.873360 0.000000 
#    z 0.000000 0.000000 3.544490 
# 
# 
# High freq. dielectric constant tensor:
#      x y z
#    x 1.638420 0.000000 0.000000 
#    y 0.000000 1.638420 0.000000 
#    z 0.000000 0.000000 1.668080 
# 
# From -- ./inp_files/2738.got.cif
#   From: 2010.03.12/outbox.cif.g09.slc.cpg/sg129_2_cif.got.tgz:2738.got - 2010.04.06 17:19:44.
