data_PCOD8315379
_publ_section_title
;
Structure prediction by ZEFSAII (Michael W. Deem and Ramdas Pophale) SiO2 
 PCOD8315379
Probable space group: P 4/N M M
;
_chemical_formula_sum "Si O2"
_cell_formula_units_Z 96
_cell_length_a 20.159518
_cell_length_b 20.159518
_cell_length_c 12.100294
_cell_angle_alpha 90.000000
_cell_angle_beta 90.000000
_cell_angle_gamma 90.000000
_cell_volume 4917.634092
_symmetry_space_group_name_H-M "P 4/N M M"
_symmetry_group_IT_number 129
_symmetry_cell_setting 'tetragonal'
loop_
_space_group_symop_operation_xyz
x,y,z
1/2-y,x,z
1/2-x,1/2-y,z
y,1/2-x,z
1/2+x,-y,-z
-x,1/2+y,-z
1/2+y,1/2+x,-z
-y,-x,-z
-x,-y,-z
1/2+y,-x,-z
1/2+x,1/2+y,-z
-y,1/2+x,-z
1/2-x,y,z
x,1/2-y,z
1/2-y,1/2-x,z
y,x,z
loop_
_atom_site_type_symbol
_atom_site_label
_atom_site_fract_x
_atom_site_fract_y
_atom_site_fract_z
Si Si1 0.673975 0.062839 0.488175
Si Si2 0.174142 0.475223 0.126833
Si Si3 0.377674 0.826598 0.887853
Si Si4 0.326583 0.070929 0.890055
Si Si5 0.565162 0.671242 0.635152
Si Si6 0.325160 0.945093 0.763339
O O1 0.625619 0.125619 0.500000
O O2 0.750000 0.085624 0.511631
O O3 0.666781 0.035905 0.364039
O O4 0.654346 0.001721 0.567284
O O5 0.250000 0.483718 0.156703
O O6 0.148732 0.547582 0.091271
O O7 0.143903 0.446721 0.240012
O O8 0.162585 0.427960 0.022345
O O9 0.371094 0.750000 0.850812
O O10 0.353631 0.872154 0.786970
O O11 0.336605 0.836605 0.000000
O O12 0.250000 0.080246 0.857256
O O13 0.366801 0.133200 0.841369
O O14 0.357164 0.003845 0.836863
O O15 0.582506 0.750000 0.626805
O O16 0.627827 0.627827 0.589883
O O17 0.250000 0.941348 0.802630
#
# Coordination Sequence:
#
# PCOD8315379 Si02
#       6
#    16  16  16  16  16  16
#     4  10  22  40  61  83 113 153 196 240 291 347
#     4   9  18  34  55  80 116 152 182 227 284 336
#     4  11  20  33  55  83 116 153 193 230 272 332
#     4  10  20  36  57  80 109 145 183 227 283 341
#     4  10  21  38  61  88 117 153 197 245 298 352
#     4  10  21  37  54  79 115 149 181 228 286 335
#
# _framework density 19.521581999999999
#
# number of rings (size 3 to 8) (size 9 to 14) (size 15 to 20)
#    0.000    2.000    1.667    2.000    0.000    4.667 
#    0.000    5.833    0.000    3.000    0.000    4.667 
#    0.000    0.000    0.000    0.000    0.000    0.000 
#
# Total GULP energy -1189739.078339 kJ/mol
# GULP energy per Si atom -12393.115399 kJ/mol
# Density = 1.947715 g / cm^3
# Si number density = 19.521582 Si / 1000 Ang^3
#
#
#
# Elastic Constant Matrix: (Units=GPa)
#
#
# Indices 1 2 3 4 5 6 
#
# 1 99.2498 81.7524 32.8228 0.0000 0.0000 0.0000
# 2 81.7524 99.2498 32.8228 0.0000 0.0000 0.0000
# 3 32.8228 32.8228 70.0262 0.0000 0.0000 0.0000
# 4 0.0000 0.0000 0.0000 16.3660 0.0000 0.0000
# 5 0.0000 0.0000 0.0000 0.0000 16.3660 0.0000
# 6 0.0000 0.0000 0.0000 0.0000 0.0000 35.1190
#
#
#
# Elastic Compliance Matrix: (Units=1/GPa)
#
#
# Indices 1 2 3 4 5 6 
#
# 1 0.031904 -0.025248 -0.003120 0.000000 0.000000 0.000000
# 2 -0.025248 0.031904 -0.003120 0.000000 0.000000 0.000000
# 3 -0.003120 -0.003120 0.017205 0.000000 0.000000 0.000000
# 4 0.000000 0.000000 0.000000 0.061102 0.000000 0.000000
# 5 0.000000 0.000000 0.000000 0.000000 0.061102 0.000000
# 6 0.000000 0.000000 0.000000 0.000000 0.000000 0.028475
#
#
# Mechanical properties :
#
#
# Convention : Reuss Voigt Hill
#
# Bulk Modulus (GPa) = 55.43866 62.59134 59.01500
# Shear Modulus (GPa) = 16.62897 21.64537 19.13717
#
# Velocity S-wave (km/s) = 2.92177 3.33346 3.13438
# Velocity P-wave (km/s) = 6.31210 6.85188 6.58752
#
# Compressibility (1/GPa) = 0.01803795
#
# Stress axis : x y z
#
# Youngs Moduli (GPa) = 31.34414 31.34414 58.12207
#
# Poissons Ratio (x) = 0.79136 0.18134
# Poissons Ratio (y) = 0.79136 0.18134
# Poissons Ratio (z) = 0.09779 0.09779
#
# Static dielectric constant tensor:
#      x y z
#    x 3.561620 0.000000 0.000000 
#    y 0.000000 3.561620 0.000000 
#    z 0.000000 0.000000 3.548930 
# 
# 
# High freq. dielectric constant tensor:
#      x y z
#    x 1.751090 0.000000 0.000000 
#    y 0.000000 1.751090 0.000000 
#    z 0.000000 0.000000 1.762440 
# 
# From -- ./inp_files/3858.got.cif
#   From: 2010.03.12/outbox.cif.g09.slc.cpg/sg129_2_cif.got.tgz:3858.got - 2010.04.06 17:19:44.
