data_PCOD8315952
_publ_section_title
;
Structure prediction by ZEFSAII (Michael W. Deem and Ramdas Pophale) SiO2 
 PCOD8315952
Probable space group: P 42/M M C
;
_chemical_formula_sum "Si O2"
_cell_formula_units_Z 96
_cell_length_a 18.611072
_cell_length_b 18.611072
_cell_length_c 15.569996
_cell_angle_alpha 90.000000
_cell_angle_beta 90.000000
_cell_angle_gamma 90.000000
_cell_volume 5393.010670
_symmetry_space_group_name_H-M "P 42/M M C"
_symmetry_group_IT_number 131
_symmetry_cell_setting 'tetragonal'
loop_
_space_group_symop_operation_xyz
x,y,z
-x,-y,z
-y,x,1/2+z
y,-x,1/2+z
-x,y,-z
x,-y,-z
y,x,1/2-z
-y,-x,1/2-z
-x,-y,-z
x,y,-z
y,-x,1/2-z
-y,x,1/2-z
x,-y,z
-x,y,z
-y,-x,1/2+z
y,x,1/2+z
loop_
_atom_site_type_symbol
_atom_site_label
_atom_site_fract_x
_atom_site_fract_y
_atom_site_fract_z
Si Si1 0.345193 0.420654 0.674373
Si Si2 0.836800 0.229257 0.401221
Si Si3 0.320553 0.275403 0.403461
Si Si4 0.081414 0.684780 0.263790
Si Si5 0.420008 0.199622 0.726581
Si Si6 0.920377 0.223363 0.903292
O O1 0.400614 0.400614 0.750000
O O2 0.366223 0.500000 0.637924
O O3 0.347129 0.358239 0.602997
O O4 0.264033 0.422578 0.706360
O O5 0.854119 0.251254 0.500000
O O6 0.760913 0.264029 0.370338
O O7 0.897313 0.257328 0.336580
O O8 0.835457 0.142482 0.391659
O O9 0.324665 0.249254 0.500000
O O10 0.372922 0.222600 0.354020
O O11 0.130424 0.614245 0.272772
O O12 0.090432 0.715227 0.167563
O O13 0.000000 0.661589 0.281487
O O14 0.500000 0.179756 0.695334
O O15 0.000000 0.188027 0.891805
O O16 0.913538 0.256649 0.000000
#
# Coordination Sequence:
#
# PCOD8315952 Si02
#       6
#    16  16  16  16  16  16
#     4   9  18  32  51  74 102 137 174 215 265 323
#     4  10  19  33  55  79 107 141 180 228 272 319
#     4  10  19  32  54  79 102 136 177 222 272 320
#     4  11  21  33  54  79 107 145 183 225 272 322
#     4  10  20  34  51  73 104 139 177 221 267 320
#     4   9  18  31  51  81 110 139 176 215 265 325
#
# _framework density 17.800818
#
# number of rings (size 3 to 8) (size 9 to 14) (size 15 to 20)
#    0.000    2.167    3.333    0.500    0.000    1.500 
#    0.000    0.000    0.000    1.000    0.000   14.000 
#    0.000    0.000    0.000    0.000    0.000    0.000 
#
# Total GULP energy -1189808.411753 kJ/mol
# GULP energy per Si atom -12393.837622 kJ/mol
# Density = 1.776030 g / cm^3
# Si number density = 17.800818 Si / 1000 Ang^3
#
#
#
# Elastic Constant Matrix: (Units=GPa)
#
#
# Indices 1 2 3 4 5 6 
#
# 1 109.3517 36.8047 26.0771 0.0000 0.0000 0.0000
# 2 36.8047 109.3517 26.0771 0.0000 0.0000 0.0000
# 3 26.0771 26.0771 62.5788 0.0000 0.0000 0.0000
# 4 0.0000 0.0000 0.0000 16.6713 0.0000 0.0000
# 5 0.0000 0.0000 0.0000 0.0000 16.6713 0.0000
# 6 0.0000 0.0000 0.0000 0.0000 0.0000 13.1634
#
#
#
# Elastic Compliance Matrix: (Units=1/GPa)
#
#
# Indices 1 2 3 4 5 6 
#
# 1 0.010911 -0.002874 -0.003349 0.000000 0.000000 0.000000
# 2 -0.002874 0.010911 -0.003349 0.000000 0.000000 0.000000
# 3 -0.003349 -0.003349 0.018771 0.000000 0.000000 0.000000
# 4 0.000000 0.000000 0.000000 0.059983 0.000000 0.000000
# 5 0.000000 0.000000 0.000000 0.000000 0.059983 0.000000
# 6 0.000000 0.000000 0.000000 0.000000 0.000000 0.075968
#
#
# Mechanical properties :
#
#
# Convention : Reuss Voigt Hill
#
# Bulk Modulus (GPa) = 46.62274 51.02220 48.82247
# Shear Modulus (GPa) = 19.02443 22.12278 20.57361
#
# Velocity S-wave (km/s) = 3.27270 3.52915 3.40335
# Velocity P-wave (km/s) = 6.36624 6.73288 6.55212
#
# Compressibility (1/GPa) = 0.02144876
#
# Stress axis : x y z
#
# Youngs Moduli (GPa) = 91.65379 91.65379 53.27351
#
# Poissons Ratio (x) = 0.26337 0.17842
# Poissons Ratio (y) = 0.26337 0.17842
# Poissons Ratio (z) = 0.30696 0.30696
#
# Static dielectric constant tensor:
#      x y z
#    x 3.391170 0.000000 0.000000 
#    y 0.000000 3.391170 0.000000 
#    z 0.000000 0.000000 3.185520 
# 
# 
# High freq. dielectric constant tensor:
#      x y z
#    x 1.677620 0.000000 0.000000 
#    y 0.000000 1.677620 0.000000 
#    z 0.000000 0.000000 1.681400 
# 
# From -- ./inp_files/7946.got.cif
#   From: 2010.03.12/outbox.cif.g09.slc.cpg/sg131_4_cif.got.tgz:7946.got - 2010.04.06 17:36:35.
