data_PCOD8315993
_publ_section_title
;
Structure prediction by ZEFSAII (Michael W. Deem and Ramdas Pophale) SiO2 
 PCOD8315993
Probable space group: P 42/M M C
;
_chemical_formula_sum "Si O2"
_cell_formula_units_Z 88
_cell_length_a 11.907717
_cell_length_b 11.907717
_cell_length_c 34.269288
_cell_angle_alpha 90.000000
_cell_angle_beta 90.000000
_cell_angle_gamma 90.000000
_cell_volume 4859.169970
_symmetry_space_group_name_H-M "P 42/M M C"
_symmetry_group_IT_number 131
_symmetry_cell_setting 'tetragonal'
loop_
_space_group_symop_operation_xyz
x,y,z
-x,-y,z
-y,x,1/2+z
y,-x,1/2+z
-x,y,-z
x,-y,-z
y,x,1/2-z
-y,-x,1/2-z
-x,-y,-z
x,y,-z
y,-x,1/2-z
-y,x,1/2-z
x,-y,z
-x,y,z
-y,-x,1/2+z
y,x,1/2+z
loop_
_atom_site_type_symbol
_atom_site_label
_atom_site_fract_x
_atom_site_fract_y
_atom_site_fract_z
Si Si1 0.635407 0.000000 0.616222
Si Si2 0.000000 0.632611 0.206340
Si Si3 0.369479 0.803780 0.240476
Si Si4 0.628217 0.869448 0.847313
Si Si5 0.210124 0.222431 0.911191
Si Si6 0.000000 0.132433 0.455386
Si Si7 0.375789 0.623500 0.045978
O O1 0.667788 0.000000 0.661565
O O2 0.692935 0.108552 0.597481
O O3 0.500000 0.000000 0.609305
O O4 0.891049 0.681390 0.228135
O O5 0.000000 0.500000 0.211930
O O6 0.315100 0.684901 0.250000
O O7 0.500000 0.785680 0.246568
O O8 0.341772 0.848523 0.197554
O O9 0.500000 0.830537 0.856267
O O10 0.717786 0.800064 0.872395
O O11 0.641292 0.000000 0.857218
O O12 0.288558 0.283275 0.941890
O O13 0.170866 0.108444 0.931430
O O14 0.000000 0.180587 0.500000
O O15 0.000000 0.000000 0.457397
O O16 0.342888 0.500000 0.062602
O O17 0.500000 0.656172 0.061338
O O18 0.376399 0.618237 0.000000
#
# Coordination Sequence:
#
# PCOD8315993 Si02
#       7
#     8   8  16  16  16   8  16
#     4  11  24  37  56  85 112 146 188 234 281 332
#     4   9  18  35  54  74 105 143 181 219 269 325
#     4  10  19  34  56  80 110 149 186 227 275 327
#     4  10  20  35  57  85 115 148 189 232 283 339
#     4  12  21  38  59  84 114 148 187 237 281 338
#     4  11  24  41  57  79 113 154 190 227 288 343
#     4   9  19  37  60  85 114 148 184 225 278 338
#
# _framework density 18.11009
#
# number of rings (size 3 to 8) (size 9 to 14) (size 15 to 20)
#    0.000    1.727    2.727    3.273    0.000    0.182 
#    0.000    0.909    0.000    6.818    0.000    0.000 
#    0.000    0.000    0.000    0.000    0.000    0.000 
#
# Total GULP energy -1090982.980206 kJ/mol
# GULP energy per Si atom -12397.533866 kJ/mol
# Density = 1.806887 g / cm^3
# Si number density = 18.110090 Si / 1000 Ang^3
#
#
#
# Elastic Constant Matrix: (Units=GPa)
#
#
# Indices 1 2 3 4 5 6 
#
# 1 101.2739 60.4579 43.3632 0.0000 0.0000 0.0000
# 2 60.4579 101.2761 43.3625 0.0000 0.0000 0.0000
# 3 43.3632 43.3625 81.5517 0.0000 0.0000 0.0000
# 4 0.0000 0.0000 0.0000 32.8645 0.0000 0.0000
# 5 0.0000 0.0000 0.0000 0.0000 32.8643 0.0000
# 6 0.0000 0.0000 0.0000 0.0000 0.0000 30.1934
#
#
#
# Elastic Compliance Matrix: (Units=1/GPa)
#
#
# Indices 1 2 3 4 5 6 
#
# 1 0.016575 -0.007925 -0.004599 0.000000 0.000000 0.000000
# 2 -0.007925 0.016574 -0.004599 0.000000 0.000000 0.000000
# 3 -0.004599 -0.004599 0.017153 0.000000 0.000000 0.000000
# 4 0.000000 0.000000 0.000000 0.030428 0.000000 0.000000
# 5 0.000000 0.000000 0.000000 0.000000 0.030428 0.000000
# 6 0.000000 0.000000 0.000000 0.000000 0.000000 0.033120
#
#
# Mechanical properties :
#
#
# Convention : Reuss Voigt Hill
#
# Bulk Modulus (GPa) = 62.28441 64.27433 63.27937
# Shear Modulus (GPa) = 27.19232 28.31230 27.75231
#
# Velocity S-wave (km/s) = 3.87912 3.95820 3.91886
# Velocity P-wave (km/s) = 7.38446 7.51384 7.44943
#
# Compressibility (1/GPa) = 0.01605538
#
# Stress axis : x y z
#
# Youngs Moduli (GPa) = 60.33309 60.33541 58.29929
#
# Poissons Ratio (x) = 0.47817 0.26813
# Poissons Ratio (y) = 0.47815 0.26810
# Poissons Ratio (z) = 0.27748 0.27746
#
# Static dielectric constant tensor:
#      x y z
#    x 3.461980 0.000000 0.000000 
#    y 0.000000 3.461980 0.000000 
#    z 0.000000 0.000000 3.360060 
# 
# 
# High freq. dielectric constant tensor:
#      x y z
#    x 1.704100 0.000000 0.000000 
#    y 0.000000 1.704100 0.000000 
#    z 0.000000 0.000000 1.705970 
# 
# From -- ./inp_files/13600.got.cif
#   From: 2010.03.12/outbox.cif.g09.slc.cpg/sg131_7_cif.got.tgz:13600.got - 2010.04.06 17:36:35.
