data_PCOD8315513
_publ_section_title
;
Structure prediction by ZEFSAII (Michael W. Deem and Ramdas Pophale) SiO2 
 PCOD8315513
Probable space group: P 4/N C C
;
_chemical_formula_sum "Si O2"
_cell_formula_units_Z 84
_cell_length_a 20.311982
_cell_length_b 20.311982
_cell_length_c 11.597968
_cell_angle_alpha 90.000000
_cell_angle_beta 90.000000
_cell_angle_gamma 90.000000
_cell_volume 4785.050352
_symmetry_space_group_name_H-M "P 4/N C C"
_symmetry_group_IT_number 130
_symmetry_cell_setting 'tetragonal'
loop_
_space_group_symop_operation_xyz
x,y,z
1/2-y,x,z
1/2-x,1/2-y,z
y,1/2-x,z
1/2+x,-y,1/2-z
-x,1/2+y,1/2-z
1/2+y,1/2+x,1/2-z
-y,-x,1/2-z
-x,-y,-z
1/2+y,-x,-z
1/2+x,1/2+y,-z
-y,1/2+x,-z
1/2-x,y,1/2+z
x,1/2-y,1/2+z
1/2-y,1/2-x,1/2+z
y,x,1/2+z
loop_
_atom_site_type_symbol
_atom_site_label
_atom_site_fract_x
_atom_site_fract_y
_atom_site_fract_z
Si Si1 0.970167 0.129823 0.739314
Si Si2 0.150817 0.652019 0.112541
Si Si3 0.480490 0.688963 0.488460
Si Si4 0.250000 0.750000 0.500000
Si Si5 0.666859 0.490574 0.504619
Si Si6 0.941040 0.958449 0.944816
O O1 0.896129 0.103872 0.750000
O O2 0.963832 0.189695 0.648926
O O3 0.016805 0.071989 0.685585
O O4 0.996685 0.148405 0.862423
O O5 0.144286 0.644286 0.250000
O O6 0.212558 0.698163 0.082045
O O7 0.159688 0.581871 0.049370
O O8 0.084496 0.686209 0.066652
O O9 0.516824 0.758514 0.503839
O O10 0.527828 0.626560 0.517882
O O11 0.618648 0.541147 0.439084
O O12 0.000000 0.000000 0.000000
#
# Coordination Sequence:
#
# PCOD8315513 Si02
#       6
#    16  16  16   4  16  16
#     4  10  20  39  62  87 124 158 195 263 316 345
#     4  12  25  36  58  85 115 162 212 243 288 368
#     4  10  24  39  57  91 118 163 203 246 317 356
#     4  12  26  44  48  82 132 170 196 244 306 356
#     4  12  22  41  62  84 127 159 202 259 303 373
#     4  10  20  38  61  92 116 157 205 258 304 363
#
# _framework density 17.554673999999999
#
# number of rings (size 3 to 8) (size 9 to 14) (size 15 to 20)
#    1.143    0.000    7.619    0.286    2.667    2.286 
#    3.429    0.000    0.000    0.571    0.000    0.000 
#    5.714    0.000    0.000    0.000    0.000    0.000 
#
# Total GULP energy -1040641.897459 kJ/mol
# GULP energy per Si atom -12388.594017 kJ/mol
# Density = 1.751472 g / cm^3
# Si number density = 17.554674 Si / 1000 Ang^3
#
#
#
# Elastic Constant Matrix: (Units=GPa)
#
#
# Indices 1 2 3 4 5 6 
#
# 1 141.1241 30.2166 34.0802 0.0000 0.0000 0.0000
# 2 30.2166 141.1319 34.0880 0.0000 0.0000 0.0000
# 3 34.0802 34.0880 129.7128 0.0000 0.0000 0.0000
# 4 0.0000 0.0000 0.0000 24.4253 0.0000 0.0000
# 5 0.0000 0.0000 0.0000 0.0000 24.4256 0.0000
# 6 0.0000 0.0000 0.0000 0.0000 0.0000 33.3996
#
#
#
# Elastic Compliance Matrix: (Units=1/GPa)
#
#
# Indices 1 2 3 4 5 6 
#
# 1 0.007767 -0.001249 -0.001712 0.000000 0.000000 0.000000
# 2 -0.001249 0.007767 -0.001713 0.000000 0.000000 0.000000
# 3 -0.001712 -0.001713 0.008609 0.000000 0.000000 0.000000
# 4 0.000000 0.000000 0.000000 0.040941 0.000000 0.000000
# 5 0.000000 0.000000 0.000000 0.000000 0.040941 0.000000
# 6 0.000000 0.000000 0.000000 0.000000 0.000000 0.029940
#
#
# Mechanical properties :
#
#
# Convention : Reuss Voigt Hill
#
# Bulk Modulus (GPa) = 67.59463 67.63763 67.61613
# Shear Modulus (GPa) = 33.27879 37.35569 35.31724
#
# Velocity S-wave (km/s) = 4.35871 4.61799 4.49022
# Velocity P-wave (km/s) = 7.99500 8.18827 8.09221
#
# Compressibility (1/GPa) = 0.01479407
#
# Stress axis : x y z
#
# Youngs Moduli (GPa) = 128.75022 128.75377 116.15271
#
# Poissons Ratio (x) = 0.16086 0.19889
# Poissons Ratio (y) = 0.16085 0.19895
# Poissons Ratio (z) = 0.22046 0.22053
#
# Static dielectric constant tensor:
#      x y z
#    x 3.339490 0.000000 0.000000 
#    y 0.000000 3.339510 0.000000 
#    z 0.000000 0.000000 3.460830 
# 
# 
# High freq. dielectric constant tensor:
#      x y z
#    x 1.662590 0.000000 0.000000 
#    y 0.000000 1.662590 0.000000 
#    z 0.000000 0.000000 1.686060 
# 
# From -- ./inp_files/1748.got.cif
#   From: 2010.03.12/outbox.cif.g09.slc.cpg/sg130_1_cif.got.tgz:1748.got - 2010.04.06 17:30:23.
