data_PCOD8315130
_publ_section_title
;
Structure prediction by ZEFSAII (Michael W. Deem and Ramdas Pophale) SiO2 
 PCOD8315130
Probable space group: P 4/N M M
;
_chemical_formula_sum "Si O2"
_cell_formula_units_Z 112
_cell_length_a 17.975263
_cell_length_b 17.975263
_cell_length_c 20.736339
_cell_angle_alpha 90.000000
_cell_angle_beta 90.000000
_cell_angle_gamma 90.000000
_cell_volume 6700.120152
_symmetry_space_group_name_H-M "P 4/N M M"
_symmetry_group_IT_number 129
_symmetry_cell_setting 'tetragonal'
loop_
_space_group_symop_operation_xyz
x,y,z
1/2-y,x,z
1/2-x,1/2-y,z
y,1/2-x,z
1/2+x,-y,-z
-x,1/2+y,-z
1/2+y,1/2+x,-z
-y,-x,-z
-x,-y,-z
1/2+y,-x,-z
1/2+x,1/2+y,-z
-y,1/2+x,-z
1/2-x,y,z
x,1/2-y,z
1/2-y,1/2-x,z
y,x,z
loop_
_atom_site_type_symbol
_atom_site_label
_atom_site_fract_x
_atom_site_fract_y
_atom_site_fract_z
Si Si1 0.054489 0.663318 0.219262
Si Si2 0.665158 0.335289 0.576166
Si Si3 0.836932 0.448616 0.985401
Si Si4 0.834307 0.054174 0.842621
Si Si5 0.942080 0.063660 0.658467
Si Si6 0.451698 0.335000 0.273921
Si Si7 0.451067 0.165401 0.900855
O O1 0.070637 0.750000 0.235027
O O2 0.126263 0.626464 0.186726
O O3 0.032677 0.618621 0.283946
O O4 0.988776 0.654270 0.168318
O O5 0.658514 0.341486 0.500000
O O6 0.750000 0.358914 0.597486
O O7 0.651624 0.250000 0.598451
O O8 0.598846 0.386820 0.604152
O O9 0.750000 0.445808 0.994133
O O10 0.862594 0.471295 0.913228
O O11 0.866234 0.366234 0.000000
O O12 0.871178 0.503222 0.039719
O O13 0.750000 0.080874 0.847410
O O14 0.843691 0.981740 0.798559
O O15 0.879203 0.005882 0.679145
O O16 0.015715 0.015715 0.635543
O O17 0.447746 0.250000 0.296856
O O18 0.369101 0.369101 0.276380
O O19 0.436486 0.250000 0.917284
O O20 0.371309 0.128691 0.896824
#
# Coordination Sequence:
#
# PCOD8315130 Si02
#       7
#    16  16  16  16  16  16  16
#     4  10  19  32  48  69  95 123 160 197 233 282
#     4   9  18  33  53  77 105 136 168 200 235 280
#     4  10  19  32  47  67  91 117 149 185 234 290
#     4   9  18  31  45  65  94 120 149 191 238 291
#     4  10  19  31  49  73 102 133 162 196 240 282
#     4   9  18  31  46  65  90 121 157 197 238 281
#     4  10  21  35  49  66  87 114 153 198 241 287
#
# _framework density 16.716118999999999
#
# number of rings (size 3 to 8) (size 9 to 14) (size 15 to 20)
#    0.000    2.429    1.429    1.714    0.000    3.000 
#    0.000    1.429    0.000    0.000    0.000    4.000 
#    0.000    2.571    0.000   10.571    0.000    0.286 
#
# Total GULP energy -1387818.259704 kJ/mol
# GULP energy per Si atom -12391.234462 kJ/mol
# Density = 1.667807 g / cm^3
# Si number density = 16.716119 Si / 1000 Ang^3
#
#
#
# Elastic Constant Matrix: (Units=GPa)
#
#
# Indices 1 2 3 4 5 6 
#
# 1 74.6687 59.0610 31.9037 0.0000 0.0000 0.0000
# 2 59.0610 74.6687 31.9037 0.0000 0.0000 0.0000
# 3 31.9037 31.9037 66.5091 0.0000 0.0000 0.0000
# 4 0.0000 0.0000 0.0000 18.7203 0.0000 0.0000
# 5 0.0000 0.0000 0.0000 0.0000 18.7203 0.0000
# 6 0.0000 0.0000 0.0000 0.0000 0.0000 28.2557
#
#
#
# Elastic Compliance Matrix: (Units=1/GPa)
#
#
# Indices 1 2 3 4 5 6 
#
# 1 0.036884 -0.027187 -0.004652 0.000000 0.000000 0.000000
# 2 -0.027187 0.036884 -0.004652 0.000000 0.000000 0.000000
# 3 -0.004652 -0.004652 0.019498 0.000000 0.000000 0.000000
# 4 0.000000 0.000000 0.000000 0.053418 0.000000 0.000000
# 5 0.000000 0.000000 0.000000 0.000000 0.053418 0.000000
# 6 0.000000 0.000000 0.000000 0.000000 0.000000 0.035391
#
#
# Mechanical properties :
#
#
# Convention : Reuss Voigt Hill
#
# Bulk Modulus (GPa) = 49.29488 51.28704 50.29096
# Shear Modulus (GPa) = 15.86113 19.33779 17.59946
#
# Velocity S-wave (km/s) = 3.08369 3.40492 3.24828
# Velocity P-wave (km/s) = 6.49864 6.79748 6.64974
#
# Compressibility (1/GPa) = 0.02028608
#
# Stress axis : x y z
#
# Youngs Moduli (GPa) = 27.11195 27.11195 51.28660
#
# Poissons Ratio (x) = 0.73709 0.23857
# Poissons Ratio (y) = 0.73709 0.23857
# Poissons Ratio (z) = 0.12612 0.12612
#
# Static dielectric constant tensor:
#      x y z
#    x 3.118050 0.000000 0.000000 
#    y 0.000000 3.118050 0.000000 
#    z 0.000000 0.000000 3.168930 
# 
# 
# High freq. dielectric constant tensor:
#      x y z
#    x 1.636800 0.000000 0.000000 
#    y 0.000000 1.636800 0.000000 
#    z 0.000000 0.000000 1.637720 
# 
# From -- ./inp_files/6700.got.cif
#   From: 2010.03.12/outbox.cif.g09.slc.cpg/sg129_4_cif.got.tgz:6700.got - 2010.04.06 17:19:44.
