data_PCOD8315852
_publ_section_title
;
Structure prediction by ZEFSAII (Michael W. Deem and Ramdas Pophale) SiO2 
 PCOD8315852
Probable space group: P 42/M M C
;
_chemical_formula_sum "Si O2"
_cell_formula_units_Z 96
_cell_length_a 23.989624
_cell_length_b 23.989624
_cell_length_c 9.563464
_cell_angle_alpha 90.000000
_cell_angle_beta 90.000000
_cell_angle_gamma 90.000000
_cell_volume 5503.793229
_symmetry_space_group_name_H-M "P 42/M M C"
_symmetry_group_IT_number 131
_symmetry_cell_setting 'tetragonal'
loop_
_space_group_symop_operation_xyz
x,y,z
-x,-y,z
-y,x,1/2+z
y,-x,1/2+z
-x,y,-z
x,-y,-z
y,x,1/2-z
-y,-x,1/2-z
-x,-y,-z
x,y,-z
y,-x,1/2-z
-y,x,1/2-z
x,-y,z
-x,y,z
-y,-x,1/2+z
y,x,1/2+z
loop_
_atom_site_type_symbol
_atom_site_label
_atom_site_fract_x
_atom_site_fract_y
_atom_site_fract_z
Si Si1 0.268556 0.654948 0.837552
Si Si2 0.641645 0.435637 0.837391
Si Si3 0.438638 0.938348 0.334038
Si Si4 0.136380 0.938313 0.842132
Si Si5 0.937103 0.732574 0.658662
Si Si6 0.859882 0.342390 0.165428
O O1 0.295089 0.704912 0.750000
O O2 0.300531 0.596852 0.805467
O O3 0.204382 0.650110 0.791412
O O4 0.273702 0.670481 0.000000
O O5 0.591059 0.408942 0.750000
O O6 0.649715 0.500000 0.793095
O O7 0.625808 0.430608 0.000000
O O8 0.440325 0.936735 0.500000
O O9 0.500000 0.924974 0.274065
O O10 0.396943 0.891702 0.277347
O O11 0.419466 0.000000 0.284063
O O12 0.108140 0.891861 0.750000
O O13 0.201855 0.930007 0.833290
O O14 0.120014 0.000000 0.788307
O O15 0.115579 0.930576 0.000000
O O16 0.927319 0.711725 0.500000
O O17 0.889234 0.709291 0.759596
O O18 0.000000 0.715622 0.707095
O O19 0.866403 0.334167 0.000000
#
# Coordination Sequence:
#
# PCOD8315852 Si02
#       6
#    16  16  16  16  16  16
#     4   9  19  34  49  68  96 128 160 196 239 283
#     4   9  18  33  52  73  99 131 164 199 241 288
#     4   8  14  25  42  67  98 124 145 180 232 279
#     4   9  19  35  52  71  96 125 157 193 236 287
#     4   9  19  35  51  68  95 129 160 194 240 288
#     4  10  19  30  49  75  96 120 161 204 236 276
#
# _framework density 17.442516000000001
#
# number of rings (size 3 to 8) (size 9 to 14) (size 15 to 20)
#    0.000    3.000    0.000    2.000    0.000    4.667 
#    0.000   10.000    0.000    0.500    0.000    4.667 
#    0.000    0.000    0.000    0.000    0.000    0.000 
#
# Total GULP energy -1190019.491583 kJ/mol
# GULP energy per Si atom -12396.036371 kJ/mol
# Density = 1.740282 g / cm^3
# Si number density = 17.442516 Si / 1000 Ang^3
#
#
#
# Elastic Constant Matrix: (Units=GPa)
#
#
# Indices 1 2 3 4 5 6 
#
# 1 121.5167 65.5746 45.6044 0.0000 0.0000 0.0000
# 2 65.5746 121.5199 45.6042 0.0000 0.0000 0.0000
# 3 45.6044 45.6042 46.6357 0.0000 0.0000 0.0000
# 4 0.0000 0.0000 0.0000 22.7897 0.0000 0.0000
# 5 0.0000 0.0000 0.0000 0.0000 22.7898 0.0000
# 6 0.0000 0.0000 0.0000 0.0000 0.0000 10.4866
#
#
#
# Elastic Compliance Matrix: (Units=1/GPa)
#
#
# Indices 1 2 3 4 5 6 
#
# 1 0.014045 -0.003830 -0.009989 0.000000 0.000000 0.000000
# 2 -0.003830 0.014044 -0.009988 0.000000 0.000000 0.000000
# 3 -0.009989 -0.009988 0.040978 0.000000 0.000000 0.000000
# 4 0.000000 0.000000 0.000000 0.043879 0.000000 0.000000
# 5 0.000000 0.000000 0.000000 0.000000 0.043879 0.000000
# 6 0.000000 0.000000 0.000000 0.000000 0.000000 0.095360
#
#
# Mechanical properties :
#
#
# Convention : Reuss Voigt Hill
#
# Bulk Modulus (GPa) = 46.61394 67.02653 56.82023
# Shear Modulus (GPa) = 16.28919 20.07249 18.18084
#
# Velocity S-wave (km/s) = 3.05926 3.39599 3.23201
# Velocity P-wave (km/s) = 6.26587 7.34081 6.82454
#
# Compressibility (1/GPa) = 0.02145281
#
# Stress axis : x y z
#
# Youngs Moduli (GPa) = 71.19936 71.20268 24.40331
#
# Poissons Ratio (x) = 0.27273 0.24376
# Poissons Ratio (y) = 0.27272 0.24374
# Poissons Ratio (z) = 0.71120 0.71118
#
# Static dielectric constant tensor:
#      x y z
#    x 3.317490 0.000000 0.000000 
#    y 0.000000 3.317500 0.000000 
#    z 0.000000 0.000000 3.070570 
# 
# 
# High freq. dielectric constant tensor:
#      x y z
#    x 1.676150 0.000000 0.000000 
#    y 0.000000 1.676150 0.000000 
#    z 0.000000 0.000000 1.652550 
# 
# From -- ./inp_files/2221.got.cif
#   From: 2010.03.12/outbox.cif.g09.slc.cpg/sg131_2_cif.got.tgz:2221.got - 2010.04.06 17:36:35.
