data_PCOD8315349
_publ_section_title
;
Structure prediction by ZEFSAII (Michael W. Deem and Ramdas Pophale) SiO2 
 PCOD8315349
Probable space group: P 4/N M M
;
_chemical_formula_sum "Si O2"
_cell_formula_units_Z 80
_cell_length_a 19.003873
_cell_length_b 19.003873
_cell_length_c 12.142974
_cell_angle_alpha 90.000000
_cell_angle_beta 90.000000
_cell_angle_gamma 90.000000
_cell_volume 4385.400926
_symmetry_space_group_name_H-M "P 4/N M M"
_symmetry_group_IT_number 129
_symmetry_cell_setting 'tetragonal'
loop_
_space_group_symop_operation_xyz
x,y,z
1/2-y,x,z
1/2-x,1/2-y,z
y,1/2-x,z
1/2+x,-y,-z
-x,1/2+y,-z
1/2+y,1/2+x,-z
-y,-x,-z
-x,-y,-z
1/2+y,-x,-z
1/2+x,1/2+y,-z
-y,1/2+x,-z
1/2-x,y,z
x,1/2-y,z
1/2-y,1/2-x,z
y,x,z
loop_
_atom_site_type_symbol
_atom_site_label
_atom_site_fract_x
_atom_site_fract_y
_atom_site_fract_z
Si Si1 0.994639 0.170899 0.828019
Si Si2 0.916930 0.465335 0.767706
Si Si3 0.827273 0.938167 0.398412
Si Si4 0.830895 0.068201 0.551976
Si Si5 0.056726 0.331106 0.066508
O O1 0.961152 0.250000 0.826033
O O2 0.052460 0.163869 0.732193
O O3 0.934587 0.112665 0.811316
O O4 0.034253 0.157051 0.941390
O O5 0.987545 0.512456 0.753721
O O6 0.876719 0.459862 0.652881
O O7 0.864365 0.497582 0.856349
O O8 0.750000 0.909022 0.427371
O O9 0.882323 0.882323 0.445215
O O10 0.840048 0.012700 0.454417
O O11 0.859055 0.140946 0.500000
O O12 0.750000 0.078469 0.588192
O O13 0.066320 0.250000 0.097547
O O14 0.131151 0.368850 0.087281
#
# Coordination Sequence:
#
# PCOD8315349 Si02
#       5
#    16  16  16  16  16
#     4  10  20  34  54  82 114 143 180 225 271 325
#     4  11  21  35  59  83 109 144 186 231 277 322
#     4  10  20  34  53  79 109 141 179 222 269 326
#     4  11  23  37  55  79 106 140 183 227 276 331
#     4  10  21  36  55  82 113 146 185 228 272 324
#
# _framework density 18.242345
#
# number of rings (size 3 to 8) (size 9 to 14) (size 15 to 20)
#    0.000    1.600    2.000    3.600    0.000    3.000 
#    0.000    0.000    0.000    5.400    0.000    8.400 
#    0.000    0.000    0.000    0.000    0.000    0.000 
#
# Total GULP energy -992076.080210 kJ/mol
# GULP energy per Si atom -12400.951003 kJ/mol
# Density = 1.820083 g / cm^3
# Si number density = 18.242345 Si / 1000 Ang^3
#
#
#
# Elastic Constant Matrix: (Units=GPa)
#
#
# Indices 1 2 3 4 5 6 
#
# 1 119.3162 72.4520 38.9278 0.0000 0.0000 0.0000
# 2 72.4520 119.3150 38.9271 0.0000 0.0000 0.0000
# 3 38.9278 38.9271 54.1631 0.0000 0.0000 0.0000
# 4 0.0000 0.0000 0.0000 26.1055 0.0000 0.0000
# 5 0.0000 0.0000 0.0000 0.0000 26.1057 0.0000
# 6 0.0000 0.0000 0.0000 0.0000 0.0000 22.8985
#
#
#
# Elastic Compliance Matrix: (Units=1/GPa)
#
#
# Indices 1 2 3 4 5 6 
#
# 1 0.014351 -0.006988 -0.005292 0.000000 0.000000 0.000000
# 2 -0.006988 0.014351 -0.005292 0.000000 0.000000 0.000000
# 3 -0.005292 -0.005292 0.026069 0.000000 0.000000 0.000000
# 4 0.000000 0.000000 0.000000 0.038306 0.000000 0.000000
# 5 0.000000 0.000000 0.000000 0.000000 0.038306 0.000000
# 6 0.000000 0.000000 0.000000 0.000000 0.000000 0.043671
#
#
# Mechanical properties :
#
#
# Convention : Reuss Voigt Hill
#
# Bulk Modulus (GPa) = 50.94770 65.93421 58.44095
# Shear Modulus (GPa) = 23.06918 24.52113 23.79515
#
# Velocity S-wave (km/s) = 3.55997 3.67029 3.61555
# Velocity P-wave (km/s) = 6.69976 7.36093 7.03811
#
# Compressibility (1/GPa) = 0.01962797
#
# Stress axis : x y z
#
# Youngs Moduli (GPa) = 69.68264 69.68244 38.35913
#
# Poissons Ratio (x) = 0.48692 0.20300
# Poissons Ratio (y) = 0.48692 0.20299
# Poissons Ratio (z) = 0.36876 0.36874
#
# Static dielectric constant tensor:
#      x y z
#    x 3.423950 0.000000 0.000000 
#    y 0.000000 3.423960 0.000000 
#    z 0.000000 0.000000 3.444160 
# 
# 
# High freq. dielectric constant tensor:
#      x y z
#    x 1.705230 0.000000 0.000000 
#    y 0.000000 1.705230 0.000000 
#    z 0.000000 0.000000 1.718910 
# 
# From -- ./inp_files/4601.got.cif
#   From: 2010.03.12/outbox.cif.g09.slc.cpg/sg129_3_cif.got.tgz:4601.got - 2010.04.06 17:19:44.
