data_PCOD8315560
_publ_section_title
;
Structure prediction by ZEFSAII (Michael W. Deem and Ramdas Pophale) SiO2 
 PCOD8315560
Probable space group: P 4/N C C
;
_chemical_formula_sum "Si O2"
_cell_formula_units_Z 80
_cell_length_a 11.385396
_cell_length_b 11.385396
_cell_length_c 27.168871
_cell_angle_alpha 90.000000
_cell_angle_beta 90.000000
_cell_angle_gamma 90.000000
_cell_volume 3521.825818
_symmetry_space_group_name_H-M "P 4/N C C"
_symmetry_group_IT_number 130
_symmetry_cell_setting 'tetragonal'
loop_
_space_group_symop_operation_xyz
x,y,z
1/2-y,x,z
1/2-x,1/2-y,z
y,1/2-x,z
1/2+x,-y,1/2-z
-x,1/2+y,1/2-z
1/2+y,1/2+x,1/2-z
-y,-x,1/2-z
-x,-y,-z
1/2+y,-x,-z
1/2+x,1/2+y,-z
-y,1/2+x,-z
1/2-x,y,1/2+z
x,1/2-y,1/2+z
1/2-y,1/2-x,1/2+z
y,x,1/2+z
loop_
_atom_site_type_symbol
_atom_site_label
_atom_site_fract_x
_atom_site_fract_y
_atom_site_fract_z
Si Si1 0.464021 0.472711 0.831113
Si Si2 0.911529 0.150964 0.592220
Si Si3 0.653095 0.085885 0.580668
Si Si4 0.895053 0.865082 0.765192
Si Si5 0.153107 0.079920 0.007068
O O1 0.584206 0.421139 0.855340
O O2 0.367390 0.505079 0.871846
O O3 0.501307 0.579536 0.796534
O O4 0.395147 0.389717 0.793284
O O5 0.789273 0.108977 0.568783
O O6 0.913119 0.292581 0.593296
O O7 0.024370 0.115583 0.559491
O O8 0.605163 0.012550 0.533758
O O9 0.768650 0.911628 0.780896
O O10 0.294121 0.092104 0.001656
#
# Coordination Sequence:
#
# PCOD8315560 Si02
#       5
#    16  16  16  16  16
#     4  11  22  39  62  88 120 155 198 249 300 364
#     4  11  23  39  61  89 122 161 203 250 305 362
#     4  11  23  39  61  89 122 161 203 250 305 362
#     4  10  22  40  62  88 118 154 196 246 304 362
#     4  11  24  41  62  89 122 162 208 255 304 361
#
# _framework density 22.715491
#
# number of rings (size 3 to 8) (size 9 to 14) (size 15 to 20)
#    0.000    1.200    0.000    6.000    0.000    4.000 
#    0.000    4.000    0.000    9.600    0.000    0.000 
#    0.000    0.000    0.000    0.000    0.000    0.000 
#
# Total GULP energy -991370.514489 kJ/mol
# GULP energy per Si atom -12392.131431 kJ/mol
# Density = 2.266379 g / cm^3
# Si number density = 22.715491 Si / 1000 Ang^3
#
#
#
# Elastic Constant Matrix: (Units=GPa)
#
#
# Indices 1 2 3 4 5 6 
#
# 1 -815.7729 877.3762 -5.3450 0.0000 0.0000 0.0000
# 2 877.3762 -815.7729 -5.3450 0.0000 0.0000 0.0000
# 3 -5.3450 -5.3450 66.6454 0.0000 0.0000 0.0000
# 4 0.0000 0.0000 0.0000 39.1844 0.0000 0.0000
# 5 0.0000 0.0000 0.0000 0.0000 39.1844 0.0000
# 6 0.0000 0.0000 0.0000 0.0000 0.0000 35.5575
#
#
#
# Elastic Compliance Matrix: (Units=1/GPa)
#
#
# Indices 1 2 3 4 5 6 
#
# 1 0.007936 0.008526 0.001320 0.000000 0.000000 0.000000
# 2 0.008526 0.007936 0.001320 0.000000 0.000000 0.000000
# 3 0.001320 0.001320 0.015217 0.000000 0.000000 0.000000
# 4 0.000000 0.000000 0.000000 0.025520 0.000000 0.000000
# 5 0.000000 0.000000 0.000000 0.000000 0.025520 0.000000
# 6 0.000000 0.000000 0.000000 0.000000 0.000000 0.028123
#
#
# Mechanical properties :
#
#
# Convention : Reuss Voigt Hill
#
# Bulk Modulus (GPa) = 18.71901 18.71910 18.71905
# Shear Modulus (GPa) = 47.29220 -139.32052 -46.01416
#
# Velocity S-wave (km/s) = 4.56777 -7.84002 -4.50563
# Velocity P-wave (km/s) = 6.00649 8.58464 4.33694
#
# Compressibility (1/GPa) = 0.05342164
#
# Stress axis : x y z
#
# Youngs Moduli (GPa) = 126.01301 126.01301 65.71783
#
# Poissons Ratio (x) = -1.07443 -0.08677
# Poissons Ratio (y) = -1.07443 -0.08677
# Poissons Ratio (z) = -0.16637 -0.16637
#
# Static dielectric constant tensor:
#      x y z
#    x 4.078840 0.000000 0.000000 
#    y 0.000000 4.078840 0.000000 
#    z 0.000000 0.000000 4.026750 
# 
# 
# High freq. dielectric constant tensor:
#      x y z
#    x 1.904470 0.000000 0.000000 
#    y 0.000000 1.904470 0.000000 
#    z 0.000000 0.000000 1.891900 
# 
# From -- ./inp_files/4773.got.cif
#   From: 2010.03.12/outbox.cif.g09.slc.cpg/sg130_3_cif.got.tgz:4773.got - 2010.04.06 17:30:23.
