data_PCOD8315936
_publ_section_title
;
Structure prediction by ZEFSAII (Michael W. Deem and Ramdas Pophale) SiO2 
 PCOD8315936
Probable space group: P 42/M M C
;
_chemical_formula_sum "Si O2"
_cell_formula_units_Z 96
_cell_length_a 14.815767
_cell_length_b 14.815767
_cell_length_c 25.661797
_cell_angle_alpha 90.000000
_cell_angle_beta 90.000000
_cell_angle_gamma 90.000000
_cell_volume 5632.942837
_symmetry_space_group_name_H-M "P 42/M M C"
_symmetry_group_IT_number 131
_symmetry_cell_setting 'tetragonal'
loop_
_space_group_symop_operation_xyz
x,y,z
-x,-y,z
-y,x,1/2+z
y,-x,1/2+z
-x,y,-z
x,-y,-z
y,x,1/2-z
-y,-x,1/2-z
-x,-y,-z
x,y,-z
y,-x,1/2-z
-y,x,1/2-z
x,-y,z
-x,y,z
-y,-x,1/2+z
y,x,1/2+z
loop_
_atom_site_type_symbol
_atom_site_label
_atom_site_fract_x
_atom_site_fract_y
_atom_site_fract_z
Si Si1 0.212469 0.835993 0.399182
Si Si2 0.601652 0.104581 0.561341
Si Si3 0.220784 0.897958 0.712221
Si Si4 0.597718 0.895058 0.755920
Si Si5 0.105335 0.898863 0.000000
Si Si6 0.500000 0.106355 0.943160
Si Si7 0.894855 0.662394 0.372139
O O1 0.320053 0.836130 0.411424
O O2 0.192992 0.897161 0.348360
O O3 0.155892 0.868307 0.448678
O O4 0.177584 0.739191 0.382396
O O5 0.608248 0.119677 0.500000
O O6 0.500000 0.131788 0.580462
O O7 0.620085 0.000000 0.575143
O O8 0.153229 0.846772 0.750000
O O9 0.322168 0.856514 0.719312
O O10 0.219439 0.000000 0.732967
O O11 0.500000 0.848847 0.743772
O O12 0.622882 0.877989 0.815515
O O13 0.586932 0.000000 0.744740
O O14 0.000000 0.910507 0.000000
O O15 0.149681 0.000000 0.000000
O O16 0.588690 0.136635 0.913375
O O17 0.500000 0.000000 0.947817
O O18 0.500000 0.152235 0.000000
O O19 0.000000 0.692653 0.379314
#
# Coordination Sequence:
#
# PCOD8315936 Si02
#       7
#    16  16  16  16   8   8  16
#     4  12  22  35  55  78 107 140 181 226 269 316
#     4   9  18  34  55  76 100 134 176 224 277 320
#     4  11  23  36  51  75 106 142 183 223 263 314
#     4   9  17  34  56  75  99 135 178 224 274 320
#     4  11  24  38  51  72 106 150 192 222 257 311
#     4   9  18  30  48  76 107 139 177 218 265 315
#     4  10  19  32  51  76 108 144 176 214 263 319
#
# _framework density 17.042601999999999
#
# number of rings (size 3 to 8) (size 9 to 14) (size 15 to 20)
#    0.000    1.833    3.333    2.500    1.167    1.500 
#    0.000    1.667    0.000    0.000    0.000    0.583 
#    0.000    3.667    0.000    0.000    0.000    0.000 
#
# Total GULP energy -1189580.250920 kJ/mol
# GULP energy per Si atom -12391.460947 kJ/mol
# Density = 1.700381 g / cm^3
# Si number density = 17.042602 Si / 1000 Ang^3
#
#
#
# Elastic Constant Matrix: (Units=GPa)
#
#
# Indices 1 2 3 4 5 6 
#
# 1 86.6089 40.3645 20.6121 0.0000 0.0000 0.0000
# 2 40.3645 86.6067 20.6105 0.0000 0.0000 0.0000
# 3 20.6121 20.6105 90.2435 0.0000 0.0000 0.0000
# 4 0.0000 0.0000 0.0000 27.7050 0.0000 0.0000
# 5 0.0000 0.0000 0.0000 0.0000 27.7049 0.0000
# 6 0.0000 0.0000 0.0000 0.0000 0.0000 24.9156
#
#
#
# Elastic Compliance Matrix: (Units=1/GPa)
#
#
# Indices 1 2 3 4 5 6 
#
# 1 0.015065 -0.006559 -0.001943 0.000000 0.000000 0.000000
# 2 -0.006559 0.015066 -0.001943 0.000000 0.000000 0.000000
# 3 -0.001943 -0.001943 0.011969 0.000000 0.000000 0.000000
# 4 0.000000 0.000000 0.000000 0.036095 0.000000 0.000000
# 5 0.000000 0.000000 0.000000 0.000000 0.036095 0.000000
# 6 0.000000 0.000000 0.000000 0.000000 0.000000 0.040136
#
#
# Mechanical properties :
#
#
# Convention : Reuss Voigt Hill
#
# Bulk Modulus (GPa) = 47.14714 47.40369 47.27542
# Shear Modulus (GPa) = 27.41461 28.18987 27.80224
#
# Velocity S-wave (km/s) = 4.01508 4.07145 4.04336
# Velocity P-wave (km/s) = 7.01561 7.06948 7.04260
#
# Compressibility (1/GPa) = 0.02121019
#
# Stress axis : x y z
#
# Youngs Moduli (GPa) = 66.37682 66.37565 83.55182
#
# Poissons Ratio (x) = 0.43537 0.16234
# Poissons Ratio (y) = 0.43537 0.16232
# Poissons Ratio (z) = 0.12897 0.12895
#
# Static dielectric constant tensor:
#      x y z
#    x 3.203810 0.000000 0.000000 
#    y 0.000000 3.203810 0.000000 
#    z 0.000000 0.000000 3.389620 
# 
# 
# High freq. dielectric constant tensor:
#      x y z
#    x 1.635580 0.000000 0.000000 
#    y 0.000000 1.635580 0.000000 
#    z 0.000000 0.000000 1.674520 
# 
# From -- ./inp_files/11150.got.cif
#   From: 2010.03.12/outbox.cif.g09.slc.cpg/sg131_6_cif.got.tgz:11150.got - 2010.04.06 17:36:35.
