data_PCOD8315524
_publ_section_title
;
Structure prediction by ZEFSAII (Michael W. Deem and Ramdas Pophale) SiO2 
 PCOD8315524
Probable space group: P 4/N C C
;
_chemical_formula_sum "Si O2"
_cell_formula_units_Z 96
_cell_length_a 20.054936
_cell_length_b 20.054936
_cell_length_c 14.331277
_cell_angle_alpha 90.000000
_cell_angle_beta 90.000000
_cell_angle_gamma 90.000000
_cell_volume 5764.046173
_symmetry_space_group_name_H-M "P 4/N C C"
_symmetry_group_IT_number 130
_symmetry_cell_setting 'tetragonal'
loop_
_space_group_symop_operation_xyz
x,y,z
1/2-y,x,z
1/2-x,1/2-y,z
y,1/2-x,z
1/2+x,-y,1/2-z
-x,1/2+y,1/2-z
1/2+y,1/2+x,1/2-z
-y,-x,1/2-z
-x,-y,-z
1/2+y,-x,-z
1/2+x,1/2+y,-z
-y,1/2+x,-z
1/2-x,y,1/2+z
x,1/2-y,1/2+z
1/2-y,1/2-x,1/2+z
y,x,1/2+z
loop_
_atom_site_type_symbol
_atom_site_label
_atom_site_fract_x
_atom_site_fract_y
_atom_site_fract_z
Si Si1 0.142199 0.748477 0.729593
Si Si2 0.232209 0.854506 0.979038
Si Si3 0.034785 0.766306 0.379123
Si Si4 0.595686 0.823118 0.828892
Si Si5 0.203797 0.350350 0.871346
Si Si6 0.193825 0.410921 0.070374
O O1 0.178027 0.678027 0.750000
O O2 0.191779 0.808222 0.750000
O O3 0.119131 0.749850 0.622810
O O4 0.076160 0.757633 0.789970
O O5 0.297898 0.824332 0.028634
O O6 0.206592 0.916321 0.040372
O O7 0.984212 0.825545 0.348035
O O8 0.990907 0.703700 0.417733
O O9 0.607514 0.817350 0.718710
O O10 0.628674 0.889245 0.871563
O O11 0.626368 0.758301 0.883319
O O12 0.162438 0.282370 0.870966
O O13 0.184942 0.392899 0.962260
#
# Coordination Sequence:
#
# PCOD8315524 Si02
#       6
#    16  16  16  16  16  16
#     4  11  19  35  59  86 111 129 169 229 288 328
#     4  11  19  35  59  86 111 129 169 229 289 327
#     4  10  22  33  53  84 106 152 168 224 274 317
#     4  10  21  35  49  75 114 143 188 220 260 314
#     4  11  18  28  52  74  96 141 184 232 283 297
#     4  10  21  35  49  75 114 142 187 224 260 312
#
# _framework density 16.654966999999999
#
# number of rings (size 3 to 8) (size 9 to 14) (size 15 to 20)
#    1.000    0.500    6.667    1.000    2.333    0.333 
#    3.000    0.000    0.000    2.000    0.000    0.000 
#    0.000    0.000    0.000    0.000    0.000    0.000 
#
# Total GULP energy -1190053.623198 kJ/mol
# GULP energy per Si atom -12396.391908 kJ/mol
# Density = 1.661706 g / cm^3
# Si number density = 16.654967 Si / 1000 Ang^3
#
#
#
# Elastic Constant Matrix: (Units=GPa)
#
#
# Indices 1 2 3 4 5 6 
#
# 1 79.0221 18.5608 26.5331 0.0000 0.0000 0.0000
# 2 18.5608 79.0220 26.5320 0.0000 0.0000 0.0000
# 3 26.5331 26.5320 138.4760 0.0000 0.0000 0.0000
# 4 0.0000 0.0000 0.0000 13.7324 0.0000 0.0000
# 5 0.0000 0.0000 0.0000 0.0000 13.7311 0.0000
# 6 0.0000 0.0000 0.0000 0.0000 0.0000 12.1180
#
#
#
# Elastic Compliance Matrix: (Units=1/GPa)
#
#
# Indices 1 2 3 4 5 6 
#
# 1 0.013990 -0.002550 -0.002192 0.000000 0.000000 0.000000
# 2 -0.002550 0.013990 -0.002192 0.000000 0.000000 0.000000
# 3 -0.002192 -0.002192 0.008061 0.000000 0.000000 0.000000
# 4 0.000000 0.000000 0.000000 0.072820 0.000000 0.000000
# 5 0.000000 0.000000 0.000000 0.000000 0.072827 0.000000
# 6 0.000000 0.000000 0.000000 0.000000 0.000000 0.082522
#
#
# Mechanical properties :
#
#
# Convention : Reuss Voigt Hill
#
# Bulk Modulus (GPa) = 45.09954 48.86353 46.98154
# Shear Modulus (GPa) = 17.51507 22.90925 20.21216
#
# Velocity S-wave (km/s) = 3.24642 3.71283 3.48743
# Velocity P-wave (km/s) = 6.41793 6.91249 6.66980
#
# Compressibility (1/GPa) = 0.02217318
#
# Stress axis : x y z
#
# Youngs Moduli (GPa) = 71.48167 71.48191 124.04767
#
# Poissons Ratio (x) = 0.18227 0.27191
# Poissons Ratio (y) = 0.18227 0.27189
# Poissons Ratio (z) = 0.15668 0.15667
#
# Static dielectric constant tensor:
#      x y z
#    x 2.892940 0.000000 0.000000 
#    y 0.000000 2.892940 0.000000 
#    z 0.000000 0.000000 3.272140 
# 
# 
# High freq. dielectric constant tensor:
#      x y z
#    x 1.613200 0.000000 0.000000 
#    y 0.000000 1.613200 0.000000 
#    z 0.000000 0.000000 1.666240 
# 
# From -- ./inp_files/2500.got.cif
#   From: 2010.03.12/outbox.cif.g09.slc.cpg/sg130_2_cif.got.tgz:2500.got - 2010.04.06 17:30:23.
