data_PCOD8315262
_publ_section_title
;
Structure prediction by ZEFSAII (Michael W. Deem and Ramdas Pophale) SiO2 
 PCOD8315262
Probable space group: P 4/N M M
;
_chemical_formula_sum "Si O2"
_cell_formula_units_Z 128
_cell_length_a 18.275228
_cell_length_b 18.275228
_cell_length_c 22.759652
_cell_angle_alpha 90.000000
_cell_angle_beta 90.000000
_cell_angle_gamma 90.000000
_cell_volume 7601.358668
_symmetry_space_group_name_H-M "P 4/N M M"
_symmetry_group_IT_number 129
_symmetry_cell_setting 'tetragonal'
loop_
_space_group_symop_operation_xyz
x,y,z
1/2-y,x,z
1/2-x,1/2-y,z
y,1/2-x,z
1/2+x,-y,-z
-x,1/2+y,-z
1/2+y,1/2+x,-z
-y,-x,-z
-x,-y,-z
1/2+y,-x,-z
1/2+x,1/2+y,-z
-y,1/2+x,-z
1/2-x,y,z
x,1/2-y,z
1/2-y,1/2-x,z
y,x,z
loop_
_atom_site_type_symbol
_atom_site_label
_atom_site_fract_x
_atom_site_fract_y
_atom_site_fract_z
Si Si1 0.958831 0.336079 0.943733
Si Si2 0.833950 0.955370 0.456578
Si Si3 0.406483 0.834230 0.873667
Si Si4 0.455856 0.333896 0.059294
Si Si5 0.331869 0.589253 0.768028
Si Si6 0.946425 0.668877 0.162724
Si Si7 0.916683 0.166488 0.456678
Si Si8 0.578143 0.165483 0.633138
O O1 0.948272 0.250000 0.938876
O O2 0.017899 0.363737 0.896315
O O3 0.880012 0.369423 0.926692
O O4 0.990279 0.359958 0.006709
O O5 0.750000 0.931066 0.466551
O O6 0.883633 0.883633 0.457020
O O7 0.859727 0.009588 0.509461
O O8 0.841239 0.996371 0.393561
O O9 0.381471 0.750000 0.880812
O O10 0.494772 0.840232 0.881790
O O11 0.385945 0.862877 0.808654
O O12 0.429511 0.250000 0.049184
O O13 0.384752 0.384752 0.064193
O O14 0.250000 0.622011 0.775406
O O15 0.332249 0.505109 0.785818
O O16 0.356491 0.586573 0.700802
O O17 0.916392 0.750000 0.151016
O O18 0.878911 0.621090 0.183539
O O19 0.848261 0.151740 0.500000
O O20 0.923328 0.250000 0.440435
O O21 0.898511 0.125733 0.396474
O O22 0.604988 0.250000 0.622532
#
# Coordination Sequence:
#
# PCOD8315262 Si02
#       8
#    16  16  16  16  16  16  16  16
#     4   9  18  32  49  70  96 125 155 188 231 282
#     4   9  18  32  49  70  97 127 160 199 239 279
#     4  10  20  32  48  72  99 127 161 197 230 273
#     4  10  21  36  53  73  95 119 152 195 242 292
#     4   9  19  34  48  65  94 130 163 193 230 276
#     4   9  17  29  45  65  90 120 155 195 236 280
#     4   9  17  28  44  69  98 124 151 185 225 270
#     4   9  18  31  47  69  96 127 161 195 232 275
#
# _framework density 16.839095
#
# number of rings (size 3 to 8) (size 9 to 14) (size 15 to 20)
#    0.000    2.750    0.000    3.000    0.000    8.500 
#    0.000    1.875    0.000    6.750    0.000    3.500 
#    0.000    0.000    0.000    5.500    0.000    0.000 
#
# Total GULP energy -1586044.549916 kJ/mol
# GULP energy per Si atom -12390.973046 kJ/mol
# Density = 1.680077 g / cm^3
# Si number density = 16.839095 Si / 1000 Ang^3
#
#
#
# Elastic Constant Matrix: (Units=GPa)
#
#
# Indices 1 2 3 4 5 6 
#
# 1 86.2617 62.3055 47.6099 0.0000 0.0000 0.0000
# 2 62.3055 86.2603 47.6099 0.0000 0.0000 0.0000
# 3 47.6099 47.6099 115.3042 0.0000 0.0000 0.0000
# 4 0.0000 0.0000 0.0000 15.7163 0.0000 0.0000
# 5 0.0000 0.0000 0.0000 0.0000 15.7164 0.0000
# 6 0.0000 0.0000 0.0000 0.0000 0.0000 31.6924
#
#
#
# Elastic Compliance Matrix: (Units=1/GPa)
#
#
# Indices 1 2 3 4 5 6 
#
# 1 0.025448 -0.016295 -0.003779 0.000000 0.000000 0.000000
# 2 -0.016295 0.025449 -0.003780 0.000000 0.000000 0.000000
# 3 -0.003779 -0.003780 0.011794 0.000000 0.000000 0.000000
# 4 0.000000 0.000000 0.000000 0.063628 0.000000 0.000000
# 5 0.000000 0.000000 0.000000 0.000000 0.063628 0.000000
# 6 0.000000 0.000000 0.000000 0.000000 0.000000 0.031553
#
#
# Mechanical properties :
#
#
# Convention : Reuss Voigt Hill
#
# Bulk Modulus (GPa) = 66.74392 66.98630 66.86511
# Shear Modulus (GPa) = 18.23466 21.31176 19.77321
#
# Velocity S-wave (km/s) = 3.29428 3.56140 3.43044
# Velocity P-wave (km/s) = 7.36152 7.53512 7.44883
#
# Compressibility (1/GPa) = 0.01498264
#
# Stress axis : x y z
#
# Youngs Moduli (GPa) = 39.29518 39.29429 84.78985
#
# Poissons Ratio (x) = 0.64031 0.32045
# Poissons Ratio (y) = 0.64033 0.32047
# Poissons Ratio (z) = 0.14851 0.14852
#
# Static dielectric constant tensor:
#      x y z
#    x 3.039780 0.000000 0.000000 
#    y 0.000000 3.039780 0.000000 
#    z 0.000000 0.000000 3.188120 
# 
# 
# High freq. dielectric constant tensor:
#      x y z
#    x 1.637300 0.000000 0.000000 
#    y 0.000000 1.637300 0.000000 
#    z 0.000000 0.000000 1.640600 
# 
# From -- ./inp_files/7295.got.cif
#   From: 2010.03.12/outbox.cif.g09.slc.cpg/sg129_4_cif.got.tgz:7295.got - 2010.04.06 17:19:44.
