data_PCOD8315643
_publ_section_title
;
Structure prediction by ZEFSAII (Michael W. Deem and Ramdas Pophale) SiO2 
 PCOD8315643
Probable space group: P 42/M M C
;
_chemical_formula_sum "Si O2"
_cell_formula_units_Z 96
_cell_length_a 18.139421
_cell_length_b 18.139421
_cell_length_c 22.768280
_cell_angle_alpha 90.000000
_cell_angle_beta 90.000000
_cell_angle_gamma 90.000000
_cell_volume 7491.642844
_symmetry_space_group_name_H-M "P 42/M M C"
_symmetry_group_IT_number 131
_symmetry_cell_setting 'tetragonal'
loop_
_space_group_symop_operation_xyz
x,y,z
-x,-y,z
-y,x,1/2+z
y,-x,1/2+z
-x,y,-z
x,-y,-z
y,x,1/2-z
-y,-x,1/2-z
-x,-y,-z
x,y,-z
y,-x,1/2-z
-y,x,1/2-z
x,-y,z
-x,y,z
-y,-x,1/2+z
y,x,1/2+z
loop_
_atom_site_type_symbol
_atom_site_label
_atom_site_fract_x
_atom_site_fract_y
_atom_site_fract_z
Si Si1 0.212130 0.585703 0.932009
Si Si2 0.671735 0.359746 0.569324
Si Si3 0.500000 0.581299 0.930283
Si Si4 0.822721 0.587864 0.389673
Si Si5 0.412934 0.081568 0.000000
Si Si6 0.082178 0.412474 0.150381
Si Si7 0.412600 0.081725 0.218476
O O1 0.228104 0.500000 0.918061
O O2 0.283809 0.631968 0.913933
O O3 0.142881 0.617398 0.895268
O O4 0.192643 0.596712 0.000000
O O5 0.686670 0.366312 0.500000
O O6 0.621547 0.426729 0.591958
O O7 0.748024 0.366012 0.604044
O O8 0.500000 0.500000 0.902620
O O9 0.500000 0.576991 0.000000
O O10 0.807170 0.500000 0.391908
O O11 0.876185 0.613049 0.441980
O O12 0.858982 0.615148 0.328818
O O13 0.500000 0.074770 0.000000
O O14 0.377395 0.000000 0.000000
O O15 0.080596 0.500000 0.147422
O O16 0.104342 0.386354 0.216096
O O17 0.000000 0.382723 0.134226
O O18 0.500000 0.078898 0.215803
O O19 0.382152 0.000000 0.202946
#
# Coordination Sequence:
#
# PCOD8315643 Si02
#       7
#    16  16   8  16   8  16  16
#     4   9  17  27  39  55  74  93 120 160 202 237
#     4  10  17  25  35  50  74  99 128 164 202 226
#     4   9  16  24  36  48  64  96 136 174 205 230
#     4  10  16  23  35  51  73  97 127 158 187 223
#     4   9  16  22  32  50  72  96 121 154 189 219
#     4   8  14  26  42  57  72  89 111 144 189 239
#     4   8  14  24  38  54  72  92 116 147 183 227
#
# _framework density 12.814278
#
# number of rings (size 3 to 8) (size 9 to 14) (size 15 to 20)
#    0.000    3.000    1.667    2.000    0.000    4.333 
#    0.000    2.500    0.000    0.000    0.000    0.000 
#    0.000    0.000    0.000    0.000    0.000    4.167 
#
# Total GULP energy -1189860.971032 kJ/mol
# GULP energy per Si atom -12394.385115 kJ/mol
# Density = 1.278511 g / cm^3
# Si number density = 12.814278 Si / 1000 Ang^3
#
#
#
# Elastic Constant Matrix: (Units=GPa)
#
#
# Indices 1 2 3 4 5 6 
#
# 1 82.6029 37.0165 45.4453 0.0000 0.0000 0.0000
# 2 37.0165 82.6029 45.4453 0.0000 0.0000 0.0000
# 3 45.4453 45.4453 72.9390 0.0000 0.0000 0.0000
# 4 0.0000 0.0000 0.0000 13.4294 0.0000 0.0000
# 5 0.0000 0.0000 0.0000 0.0000 13.4294 0.0000
# 6 0.0000 0.0000 0.0000 0.0000 0.0000 5.4777
#
#
#
# Elastic Compliance Matrix: (Units=1/GPa)
#
#
# Indices 1 2 3 4 5 6 
#
# 1 0.018906 -0.003030 -0.009891 0.000000 0.000000 0.000000
# 2 -0.003030 0.018906 -0.009891 0.000000 0.000000 0.000000
# 3 -0.009891 -0.009891 0.026036 0.000000 0.000000 0.000000
# 4 0.000000 0.000000 0.000000 0.074464 0.000000 0.000000
# 5 0.000000 0.000000 0.000000 0.000000 0.074464 0.000000
# 6 0.000000 0.000000 0.000000 0.000000 0.000000 0.182558
#
#
# Mechanical properties :
#
#
# Convention : Reuss Voigt Hill
#
# Bulk Modulus (GPa) = 54.88027 54.88432 54.88229
# Shear Modulus (GPa) = 11.18483 13.81648 12.50066
#
# Velocity S-wave (km/s) = 2.95759 3.28717 3.12673
# Velocity P-wave (km/s) = 7.38807 7.57172 7.48046
#
# Compressibility (1/GPa) = 0.01822149
#
# Stress axis : x y z
#
# Youngs Moduli (GPa) = 52.89318 52.89318 38.40827
#
# Poissons Ratio (x) = 0.16028 0.37992
# Poissons Ratio (y) = 0.16028 0.37992
# Poissons Ratio (z) = 0.52319 0.52319
#
# Static dielectric constant tensor:
#      x y z
#    x 2.489100 0.000000 0.000000 
#    y 0.000000 2.489100 0.000000 
#    z 0.000000 0.000000 2.653850 
# 
# 
# High freq. dielectric constant tensor:
#      x y z
#    x 1.459570 0.000000 0.000000 
#    y 0.000000 1.459570 0.000000 
#    z 0.000000 0.000000 1.480640 
# 
# From -- ./inp_files/11402.got.cif
#   From: 2010.03.12/outbox.cif.g09.slc.cpg/sg131_6_cif.got.tgz:11402.got - 2010.04.06 17:36:35.
