data_PCOD8315305
_publ_section_title
;
Structure prediction by ZEFSAII (Michael W. Deem and Ramdas Pophale) SiO2 
 PCOD8315305
Probable space group: P 4/N M M
;
_chemical_formula_sum "Si O2"
_cell_formula_units_Z 80
_cell_length_a 13.875082
_cell_length_b 13.875082
_cell_length_c 25.825609
_cell_angle_alpha 90.000000
_cell_angle_beta 90.000000
_cell_angle_gamma 90.000000
_cell_volume 4971.892024
_symmetry_space_group_name_H-M "P 4/N M M"
_symmetry_group_IT_number 129
_symmetry_cell_setting 'tetragonal'
loop_
_space_group_symop_operation_xyz
x,y,z
1/2-y,x,z
1/2-x,1/2-y,z
y,1/2-x,z
1/2+x,-y,-z
-x,1/2+y,-z
1/2+y,1/2+x,-z
-y,-x,-z
-x,-y,-z
1/2+y,-x,-z
1/2+x,1/2+y,-z
-y,1/2+x,-z
1/2-x,y,z
x,1/2-y,z
1/2-y,1/2-x,z
y,x,z
loop_
_atom_site_type_symbol
_atom_site_label
_atom_site_fract_x
_atom_site_fract_y
_atom_site_fract_z
Si Si1 0.517990 0.139014 0.763156
Si Si2 0.023280 0.865206 0.042764
Si Si3 0.136378 0.856742 0.857633
Si Si4 0.987145 0.360244 0.647551
Si Si5 0.365148 0.643441 0.556411
O O1 0.490663 0.250000 0.774137
O O2 0.600104 0.102467 0.802533
O O3 0.559099 0.126000 0.704740
O O4 0.420827 0.079174 0.771963
O O5 0.005829 0.750000 0.037788
O O6 0.070674 0.895495 0.097240
O O7 0.099600 0.900401 0.000000
O O8 0.921000 0.921000 0.037065
O O9 0.250000 0.845404 0.858785
O O10 0.089705 0.750000 0.864555
O O11 0.006188 0.250000 0.634515
O O12 0.919147 0.406938 0.603706
O O13 0.090636 0.409365 0.645398
O O14 0.397681 0.602320 0.500000
O O15 0.250000 0.647304 0.557889
O O16 0.407813 0.750000 0.564297
#
# Coordination Sequence:
#
# PCOD8315305 Si02
#       5
#    16  16  16  16  16
#     4   9  17  28  41  59  84 112 142 175 210 252
#     4  10  20  33  50  72  97 126 160 195 231 274
#     4   9  17  29  45  64  86 113 144 178 218 262
#     4   9  17  27  39  57  81 109 139 169 204 250
#     4   8  14  25  40  57  77 101 131 169 211 252
#
# _framework density 16.090454000000001
#
# number of rings (size 3 to 8) (size 9 to 14) (size 15 to 20)
#    0.000    3.000    0.000    1.800    0.000    2.800 
#    0.000    6.000    0.000    3.600    0.000    0.000 
#    0.000    4.000    0.000    8.800    0.000    2.400 
#
# Total GULP energy -991411.003370 kJ/mol
# GULP energy per Si atom -12392.637542 kJ/mol
# Density = 1.605383 g / cm^3
# Si number density = 16.090454 Si / 1000 Ang^3
#
#
#
# Elastic Constant Matrix: (Units=GPa)
#
#
# Indices 1 2 3 4 5 6 
#
# 1 66.8268 33.6567 43.8437 0.0000 0.0000 0.0000
# 2 33.6567 66.8273 43.8439 0.0000 0.0000 0.0000
# 3 43.8437 43.8439 128.1075 0.0000 0.0000 0.0000
# 4 0.0000 0.0000 0.0000 22.5073 0.0000 0.0000
# 5 0.0000 0.0000 0.0000 0.0000 22.5072 0.0000
# 6 0.0000 0.0000 0.0000 0.0000 0.0000 13.6049
#
#
#
# Elastic Compliance Matrix: (Units=1/GPa)
#
#
# Indices 1 2 3 4 5 6 
#
# 1 0.022169 -0.007979 -0.004856 0.000000 0.000000 0.000000
# 2 -0.007979 0.022169 -0.004856 0.000000 0.000000 0.000000
# 3 -0.004856 -0.004856 0.011130 0.000000 0.000000 0.000000
# 4 0.000000 0.000000 0.000000 0.044430 0.000000 0.000000
# 5 0.000000 0.000000 0.000000 0.000000 0.044430 0.000000
# 6 0.000000 0.000000 0.000000 0.000000 0.000000 0.073503
#
#
# Mechanical properties :
#
#
# Convention : Reuss Voigt Hill
#
# Bulk Modulus (GPa) = 49.79038 56.05004 52.92021
# Shear Modulus (GPa) = 19.23758 21.08505 20.16131
#
# Velocity S-wave (km/s) = 3.46148 3.62388 3.54361
# Velocity P-wave (km/s) = 6.85471 7.24017 7.05007
#
# Compressibility (1/GPa) = 0.02008420
#
# Stress axis : x y z
#
# Youngs Moduli (GPa) = 45.10867 45.10903 89.84707
#
# Poissons Ratio (x) = 0.35992 0.43633
# Poissons Ratio (y) = 0.35992 0.43633
# Poissons Ratio (z) = 0.21906 0.21906
#
# Static dielectric constant tensor:
#      x y z
#    x 2.895190 0.000000 0.000000 
#    y 0.000000 2.895190 0.000000 
#    z 0.000000 0.000000 3.450000 
# 
# 
# High freq. dielectric constant tensor:
#      x y z
#    x 1.590750 0.000000 0.000000 
#    y 0.000000 1.590750 0.000000 
#    z 0.000000 0.000000 1.640720 
# 
# From -- ./inp_files/6357.got.cif
#   From: 2010.03.12/outbox.cif.g09.slc.cpg/sg129_4_cif.got.tgz:6357.got - 2010.04.06 17:19:44.
