data_PCOD8315182
_publ_section_title
;
Structure prediction by ZEFSAII (Michael W. Deem and Ramdas Pophale) SiO2 
 PCOD8315182
Probable space group: P 4/N M M
;
_chemical_formula_sum "Si O2"
_cell_formula_units_Z 80
_cell_length_a 12.490594
_cell_length_b 12.490594
_cell_length_c 29.114371
_cell_angle_alpha 90.000000
_cell_angle_beta 90.000000
_cell_angle_gamma 90.000000
_cell_volume 4542.276800
_symmetry_space_group_name_H-M "P 4/N M M"
_symmetry_group_IT_number 129
_symmetry_cell_setting 'tetragonal'
loop_
_space_group_symop_operation_xyz
x,y,z
1/2-y,x,z
1/2-x,1/2-y,z
y,1/2-x,z
1/2+x,-y,-z
-x,1/2+y,-z
1/2+y,1/2+x,-z
-y,-x,-z
-x,-y,-z
1/2+y,-x,-z
1/2+x,1/2+y,-z
-y,1/2+x,-z
1/2-x,y,z
x,1/2-y,z
1/2-y,1/2-x,z
y,x,z
loop_
_atom_site_type_symbol
_atom_site_label
_atom_site_fract_x
_atom_site_fract_y
_atom_site_fract_z
Si Si1 0.122652 0.750000 0.785965
Si Si2 0.129330 0.546744 0.546471
Si Si3 0.628253 0.456265 0.638190
Si Si4 0.250000 0.623153 0.110668
Si Si5 0.875982 0.052137 0.049511
Si Si6 0.627298 0.045355 0.269765
O O1 0.250000 0.750000 0.785102
O O2 0.077094 0.750000 0.837684
O O3 0.081429 0.855821 0.759972
O O4 0.112884 0.612884 0.500000
O O5 0.250000 0.506922 0.549532
O O6 0.102596 0.622614 0.589354
O O7 0.059657 0.440344 0.547487
O O8 0.750000 0.477241 0.651663
O O9 0.571108 0.571108 0.635804
O O10 0.573127 0.381825 0.676428
O O11 0.250000 0.750000 0.110504
O O12 0.141798 0.584082 0.085631
O O13 0.750000 0.025017 0.055012
O O14 0.897962 0.102039 0.000000
O O15 0.943526 0.943526 0.057693
O O16 0.750000 0.019626 0.257799
O O17 0.558922 0.941079 0.256840
#
# Coordination Sequence:
#
# PCOD8315182 Si02
#       6
#     8  16  16   8  16  16
#     4   9  18  34  54  77 103 137 179 220 259 309
#     4  10  21  35  51  74 102 132 169 211 257 312
#     4  10  20  34  53  77 103 135 174 216 264 316
#     4   9  18  32  54  77 103 139 179 220 259 309
#     4  10  19  32  52  78 108 142 180 221 265 315
#     4  10  20  34  54  79 107 139 177 221 269 320
#
# _framework density 17.612311999999999
#
# number of rings (size 3 to 8) (size 9 to 14) (size 15 to 20)
#    0.000    2.200    2.000    1.200    0.000    3.800 
#    0.000    0.000    0.000    7.800    0.000    7.000 
#    0.000    0.000    0.000    0.000    0.000    0.000 
#
# Total GULP energy -992080.727715 kJ/mol
# GULP energy per Si atom -12401.009096 kJ/mol
# Density = 1.757223 g / cm^3
# Si number density = 17.612312 Si / 1000 Ang^3
#
#
#
# Elastic Constant Matrix: (Units=GPa)
#
#
# Indices 1 2 3 4 5 6 
#
# 1 103.7934 59.0413 32.8303 0.0000 0.0000 0.0000
# 2 59.0413 103.7930 32.8303 0.0000 0.0000 0.0000
# 3 32.8303 32.8303 113.3667 0.0000 0.0000 0.0000
# 4 0.0000 0.0000 0.0000 18.9917 0.0000 0.0000
# 5 0.0000 0.0000 0.0000 0.0000 18.9915 0.0000
# 6 0.0000 0.0000 0.0000 0.0000 0.0000 15.2622
#
#
#
# Elastic Compliance Matrix: (Units=1/GPa)
#
#
# Indices 1 2 3 4 5 6 
#
# 1 0.014649 -0.007696 -0.002014 0.000000 0.000000 0.000000
# 2 -0.007696 0.014649 -0.002014 0.000000 0.000000 0.000000
# 3 -0.002014 -0.002014 0.009987 0.000000 0.000000 0.000000
# 4 0.000000 0.000000 0.000000 0.052655 0.000000 0.000000
# 5 0.000000 0.000000 0.000000 0.000000 0.052655 0.000000
# 6 0.000000 0.000000 0.000000 0.000000 0.000000 0.065521
#
#
# Mechanical properties :
#
#
# Convention : Reuss Voigt Hill
#
# Bulk Modulus (GPa) = 63.13478 63.37297 63.25387
# Shear Modulus (GPa) = 20.93424 23.73249 22.33337
#
# Velocity S-wave (km/s) = 3.45137 3.67481 3.56484
# Velocity P-wave (km/s) = 7.19773 7.35295 7.27576
#
# Compressibility (1/GPa) = 0.01583913
#
# Stress axis : x y z
#
# Youngs Moduli (GPa) = 68.26283 68.26254 100.12835
#
# Poissons Ratio (x) = 0.52536 0.20162
# Poissons Ratio (y) = 0.52536 0.20162
# Poissons Ratio (z) = 0.13745 0.13745
#
# Static dielectric constant tensor:
#      x y z
#    x 3.128360 0.000000 0.000000 
#    y 0.000000 3.128360 0.000000 
#    z 0.000000 0.000000 3.515850 
# 
# 
# High freq. dielectric constant tensor:
#      x y z
#    x 1.670520 0.000000 0.000000 
#    y 0.000000 1.670520 0.000000 
#    z 0.000000 0.000000 1.690340 
# 
# From -- ./inp_files/7723.got.cif
#   From: 2010.03.12/outbox.cif.g09.slc.cpg/sg129_4_cif.got.tgz:7723.got - 2010.04.06 17:19:44.
