data_PCOD8315282
_publ_section_title
;
Structure prediction by ZEFSAII (Michael W. Deem and Ramdas Pophale) SiO2 
 PCOD8315282
Probable space group: P 4/N M M
;
_chemical_formula_sum "Si O2"
_cell_formula_units_Z 104
_cell_length_a 13.894591
_cell_length_b 13.894591
_cell_length_c 32.785036
_cell_angle_alpha 90.000000
_cell_angle_beta 90.000000
_cell_angle_gamma 90.000000
_cell_volume 6329.467872
_symmetry_space_group_name_H-M "P 4/N M M"
_symmetry_group_IT_number 129
_symmetry_cell_setting 'tetragonal'
loop_
_space_group_symop_operation_xyz
x,y,z
1/2-y,x,z
1/2-x,1/2-y,z
y,1/2-x,z
1/2+x,-y,-z
-x,1/2+y,-z
1/2+y,1/2+x,-z
-y,-x,-z
-x,-y,-z
1/2+y,-x,-z
1/2+x,1/2+y,-z
-y,1/2+x,-z
1/2-x,y,z
x,1/2-y,z
1/2-y,1/2-x,z
y,x,z
loop_
_atom_site_type_symbol
_atom_site_label
_atom_site_fract_x
_atom_site_fract_y
_atom_site_fract_z
Si Si1 0.861265 0.361265 0.500000
Si Si2 0.985099 0.359354 0.026861
Si Si3 0.360506 0.985692 0.574480
Si Si4 0.638955 0.016775 0.878689
Si Si5 0.136261 0.643211 0.740098
Si Si6 0.482623 0.638951 0.334296
Si Si7 0.021122 0.635853 0.182230
O O1 0.882774 0.250000 0.493547
O O2 0.901152 0.412128 0.459241
O O3 0.007884 0.250000 0.015135
O O4 0.080698 0.419303 0.016321
O O5 0.956163 0.369713 0.073970
O O6 0.895994 0.395994 0.000000
O O7 0.250000 0.008392 0.566290
O O8 0.413282 0.086719 0.569999
O O9 0.376268 0.941860 0.619814
O O10 0.750000 0.003321 0.865510
O O11 0.582708 0.917293 0.868941
O O12 0.590779 0.105440 0.854776
O O13 0.250000 0.652536 0.741413
O O14 0.090377 0.750000 0.744652
O O15 0.102553 0.598892 0.696926
O O16 0.102202 0.574062 0.776450
O O17 0.509132 0.750000 0.326102
O O18 0.580290 0.580290 0.327134
O O19 0.001994 0.750000 0.180407
O O20 0.918720 0.581281 0.179506
#
# Coordination Sequence:
#
# PCOD8315282 Si02
#       7
#     8  16  16  16  16  16  16
#     4   9  17  28  42  60  81 107 140 176 216 261
#     4   9  18  32  49  70  96 124 156 195 236 279
#     4   9  17  28  42  60  83 111 141 175 214 256
#     4   9  18  32  50  72  96 123 156 194 236 280
#     4   9  17  29  45  64  86 113 144 178 216 257
#     4   9  17  28  42  62  87 114 144 176 212 257
#     4  10  20  33  49  69  94 124 157 192 230 274
#
# _framework density 16.431082
#
# number of rings (size 3 to 8) (size 9 to 14) (size 15 to 20)
#    0.000    2.846    0.000    1.154    0.000    3.077 
#    0.000    7.692    0.000    2.769    0.000    4.308 
#    0.000    2.769    0.000   11.385    0.000    1.231 
#
# Total GULP energy -1289363.841934 kJ/mol
# GULP energy per Si atom -12397.729249 kJ/mol
# Density = 1.639368 g / cm^3
# Si number density = 16.431082 Si / 1000 Ang^3
#
#
#
# Elastic Constant Matrix: (Units=GPa)
#
#
# Indices 1 2 3 4 5 6 
#
# 1 89.8730 44.9865 51.8838 0.0000 0.0000 0.0000
# 2 44.9865 89.8730 51.8838 0.0000 0.0000 0.0000
# 3 51.8838 51.8838 94.3882 0.0000 0.0000 0.0000
# 4 0.0000 0.0000 0.0000 25.9244 0.0000 0.0000
# 5 0.0000 0.0000 0.0000 0.0000 25.9244 0.0000
# 6 0.0000 0.0000 0.0000 0.0000 0.0000 15.2670
#
#
#
# Elastic Compliance Matrix: (Units=1/GPa)
#
#
# Indices 1 2 3 4 5 6 
#
# 1 0.017564 -0.004714 -0.007064 0.000000 0.000000 0.000000
# 2 -0.004714 0.017564 -0.007064 0.000000 0.000000 0.000000
# 3 -0.007064 -0.007064 0.018360 0.000000 0.000000 0.000000
# 4 0.000000 0.000000 0.000000 0.038574 0.000000 0.000000
# 5 0.000000 0.000000 0.000000 0.000000 0.038574 0.000000
# 6 0.000000 0.000000 0.000000 0.000000 0.000000 0.065501
#
#
# Mechanical properties :
#
#
# Convention : Reuss Voigt Hill
#
# Bulk Modulus (GPa) = 63.26652 63.51582 63.39117
# Shear Modulus (GPa) = 20.91280 21.78184 21.34732
#
# Velocity S-wave (km/s) = 3.57144 3.64490 3.60836
# Velocity P-wave (km/s) = 7.45619 7.51355 7.48493
#
# Compressibility (1/GPa) = 0.01580615
#
# Stress axis : x y z
#
# Youngs Moduli (GPa) = 56.93365 56.93365 54.46613
#
# Poissons Ratio (x) = 0.26839 0.38473
# Poissons Ratio (y) = 0.26839 0.38473
# Poissons Ratio (z) = 0.40215 0.40215
#
# Static dielectric constant tensor:
#      x y z
#    x 3.028290 0.000000 0.000000 
#    y 0.000000 3.028290 0.000000 
#    z 0.000000 0.000000 3.358390 
# 
# 
# High freq. dielectric constant tensor:
#      x y z
#    x 1.618810 0.000000 0.000000 
#    y 0.000000 1.618810 0.000000 
#    z 0.000000 0.000000 1.645740 
# 
# From -- ./inp_files/7936.got.cif
#   From: 2010.03.12/outbox.cif.g09.slc.cpg/sg129_4_cif.got.tgz:7936.got - 2010.04.06 17:19:44.
