data_PCOD8315844
_publ_section_title
;
Structure prediction by ZEFSAII (Michael W. Deem and Ramdas Pophale) SiO2 
 PCOD8315844
Probable space group: P 42/M M C
;
_chemical_formula_sum "Si O2"
_cell_formula_units_Z 80
_cell_length_a 17.765835
_cell_length_b 17.765835
_cell_length_c 14.472037
_cell_angle_alpha 90.000000
_cell_angle_beta 90.000000
_cell_angle_gamma 90.000000
_cell_volume 4567.735133
_symmetry_space_group_name_H-M "P 42/M M C"
_symmetry_group_IT_number 131
_symmetry_cell_setting 'tetragonal'
loop_
_space_group_symop_operation_xyz
x,y,z
-x,-y,z
-y,x,1/2+z
y,-x,1/2+z
-x,y,-z
x,-y,-z
y,x,1/2-z
-y,-x,1/2-z
-x,-y,-z
x,y,-z
y,-x,1/2-z
-y,x,1/2-z
x,-y,z
-x,y,z
-y,-x,1/2+z
y,x,1/2+z
loop_
_atom_site_type_symbol
_atom_site_label
_atom_site_fract_x
_atom_site_fract_y
_atom_site_fract_z
Si Si1 0.416554 0.163844 0.756484
Si Si2 0.814383 0.201391 0.893822
Si Si3 0.358320 0.266094 0.603810
Si Si4 0.295507 0.416997 0.392690
Si Si5 0.912871 0.262372 0.738569
O O1 0.500000 0.126359 0.757300
O O2 0.412984 0.218350 0.667639
O O3 0.403971 0.215115 0.845647
O O4 0.352372 0.100380 0.753267
O O5 0.759129 0.271955 0.887283
O O6 0.888282 0.221251 0.833614
O O7 0.771592 0.130519 0.849477
O O8 0.837256 0.183606 0.000000
O O9 0.388729 0.256582 0.500000
O O10 0.357079 0.353844 0.636071
O O11 0.277681 0.407480 0.500000
O O12 0.328126 0.500000 0.369045
O O13 0.000000 0.246830 0.722694
#
# Coordination Sequence:
#
# PCOD8315844 Si02
#       5
#    16  16  16  16  16
#     4  10  19  30  46  70 103 138 167 200 245 296
#     4   9  18  34  54  74  98 130 170 211 247 287
#     4   9  16  29  49  68  91 127 174 218 247 282
#     4   9  16  26  44  69  95 126 165 209 254 294
#     4  10  20  33  52  79 106 131 165 205 245 298
#
# _framework density 17.514150000000001
#
# number of rings (size 3 to 8) (size 9 to 14) (size 15 to 20)
#    0.000    2.600    2.000    0.600    0.000    1.600 
#    0.000    0.000    0.000    5.400    0.000   21.000 
#    0.000    0.000    0.000    0.000    0.000    0.000 
#
# Total GULP energy -991608.431342 kJ/mol
# GULP energy per Si atom -12395.105392 kJ/mol
# Density = 1.747429 g / cm^3
# Si number density = 17.514150 Si / 1000 Ang^3
#
#
#
# Elastic Constant Matrix: (Units=GPa)
#
#
# Indices 1 2 3 4 5 6 
#
# 1 75.4261 10.2919 17.5784 0.0000 0.0000 0.0000
# 2 10.2919 75.4261 17.5784 0.0000 0.0000 0.0000
# 3 17.5784 17.5784 81.2333 0.0000 0.0000 0.0000
# 4 0.0000 0.0000 0.0000 18.3527 0.0000 0.0000
# 5 0.0000 0.0000 0.0000 0.0000 18.3527 0.0000
# 6 0.0000 0.0000 0.0000 0.0000 0.0000 13.9227
#
#
#
# Elastic Compliance Matrix: (Units=1/GPa)
#
#
# Indices 1 2 3 4 5 6 
#
# 1 0.014078 -0.001275 -0.002770 0.000000 0.000000 0.000000
# 2 -0.001275 0.014078 -0.002770 0.000000 0.000000 0.000000
# 3 -0.002770 -0.002770 0.013509 0.000000 0.000000 0.000000
# 4 0.000000 0.000000 0.000000 0.054488 0.000000 0.000000
# 5 0.000000 0.000000 0.000000 0.000000 0.054488 0.000000
# 6 0.000000 0.000000 0.000000 0.000000 0.000000 0.071825
#
#
# Mechanical properties :
#
#
# Convention : Reuss Voigt Hill
#
# Bulk Modulus (GPa) = 35.67281 35.88700 35.77990
# Shear Modulus (GPa) = 20.37143 22.56806 21.46975
#
# Velocity S-wave (km/s) = 3.41419 3.59355 3.50501
# Velocity P-wave (km/s) = 5.99620 6.14434 6.07072
#
# Compressibility (1/GPa) = 0.02803256
#
# Stress axis : x y z
#
# Youngs Moduli (GPa) = 71.03452 71.03452 74.02359
#
# Poissons Ratio (x) = 0.09059 0.20507
# Poissons Ratio (y) = 0.09059 0.20507
# Poissons Ratio (z) = 0.19679 0.19679
#
# Static dielectric constant tensor:
#      x y z
#    x 3.054330 0.000000 0.000000 
#    y 0.000000 3.054330 0.000000 
#    z 0.000000 0.000000 3.493220 
# 
# 
# High freq. dielectric constant tensor:
#      x y z
#    x 1.652450 0.000000 0.000000 
#    y 0.000000 1.652450 0.000000 
#    z 0.000000 0.000000 1.689680 
# 
# From -- ./inp_files/5687.got.cif
#   From: 2010.03.12/outbox.cif.g09.slc.cpg/sg131_3_cif.got.tgz:5687.got - 2010.04.06 17:36:35.
