data_PCOD8315658
_publ_section_title
;
Structure prediction by ZEFSAII (Michael W. Deem and Ramdas Pophale) SiO2 
 PCOD8315658
Probable space group: P 42/M M C
;
_chemical_formula_sum "Si O2"
_cell_formula_units_Z 88
_cell_length_a 13.763857
_cell_length_b 13.763857
_cell_length_c 32.244651
_cell_angle_alpha 90.000000
_cell_angle_beta 90.000000
_cell_angle_gamma 90.000000
_cell_volume 6108.547910
_symmetry_space_group_name_H-M "P 42/M M C"
_symmetry_group_IT_number 131
_symmetry_cell_setting 'tetragonal'
loop_
_space_group_symop_operation_xyz
x,y,z
-x,-y,z
-y,x,1/2+z
y,-x,1/2+z
-x,y,-z
x,-y,-z
y,x,1/2-z
-y,-x,1/2-z
-x,-y,-z
x,y,-z
y,-x,1/2-z
-y,x,1/2-z
x,-y,z
-x,y,z
-y,-x,1/2+z
y,x,1/2+z
loop_
_atom_site_type_symbol
_atom_site_label
_atom_site_fract_x
_atom_site_fract_y
_atom_site_fract_z
Si Si1 0.615058 0.893231 0.000000
Si Si2 0.202226 0.614641 0.585053
Si Si3 0.114597 0.392616 0.744977
Si Si4 0.201821 0.886563 0.710020
Si Si5 0.282116 0.884600 0.163706
Si Si6 0.606145 0.384963 0.546116
O O1 0.650386 0.841121 0.041512
O O2 0.500000 0.895992 0.000000
O O3 0.660666 0.000000 0.000000
O O4 0.185471 0.500000 0.593119
O O5 0.151882 0.675535 0.620700
O O6 0.315906 0.644049 0.581336
O O7 0.159998 0.500000 0.754025
O O8 0.143860 0.313855 0.779942
O O9 0.150094 0.354775 0.700115
O O10 0.000000 0.401454 0.743596
O O11 0.134664 0.865337 0.750000
O O12 0.164147 0.823350 0.671259
O O13 0.193706 0.000000 0.698594
O O14 0.269690 0.000000 0.162813
O O15 0.631627 0.343807 0.500000
O O16 0.606443 0.500000 0.542238
O O17 0.500000 0.346767 0.560227
#
# Coordination Sequence:
#
# PCOD8315658 Si02
#       6
#     8  16  16  16  16  16
#     4   9  16  24  35  53  78 108 135 156 189 239
#     4  10  17  26  39  58  84 111 136 165 202 247
#     4   8  14  26  43  61  81 106 133 162 202 249
#     4   9  17  29  45  63  81 104 138 176 210 245
#     4  10  19  27  38  60  87 112 138 169 207 250
#     4   8  13  23  39  56  75 103 138 171 202 237
#
# _framework density 14.406043
#
# number of rings (size 3 to 8) (size 9 to 14) (size 15 to 20)
#    0.000    3.000    0.909    3.273    0.000    3.091 
#    0.000    0.909    0.000    0.000    0.000    0.636 
#    0.000   20.000    0.000    2.000    0.000    0.182 
#
# Total GULP energy -1090324.792126 kJ/mol
# GULP energy per Si atom -12390.054456 kJ/mol
# Density = 1.437325 g / cm^3
# Si number density = 14.406043 Si / 1000 Ang^3
#
#
#
# Elastic Constant Matrix: (Units=GPa)
#
#
# Indices 1 2 3 4 5 6 
#
# 1 87.5881 34.7649 42.7807 0.0000 0.0000 0.0000
# 2 34.7649 87.5878 42.7811 0.0000 0.0000 0.0000
# 3 42.7807 42.7811 80.7076 0.0000 0.0000 0.0000
# 4 0.0000 0.0000 0.0000 18.4674 0.0000 0.0000
# 5 0.0000 0.0000 0.0000 0.0000 18.4674 0.0000
# 6 0.0000 0.0000 0.0000 0.0000 0.0000 14.9050
#
#
#
# Elastic Compliance Matrix: (Units=1/GPa)
#
#
# Indices 1 2 3 4 5 6 
#
# 1 0.015959 -0.002972 -0.006884 0.000000 0.000000 0.000000
# 2 -0.002972 0.015959 -0.006884 0.000000 0.000000 0.000000
# 3 -0.006884 -0.006884 0.019689 0.000000 0.000000 0.000000
# 4 0.000000 0.000000 0.000000 0.054149 0.000000 0.000000
# 5 0.000000 0.000000 0.000000 0.000000 0.054149 0.000000
# 6 0.000000 0.000000 0.000000 0.000000 0.000000 0.067092
#
#
# Mechanical properties :
#
#
# Convention : Reuss Voigt Hill
#
# Bulk Modulus (GPa) = 55.16823 55.17078 55.16950
# Shear Modulus (GPa) = 18.76032 19.40509 19.08271
#
# Velocity S-wave (km/s) = 3.61259 3.67415 3.64350
# Velocity P-wave (km/s) = 7.46856 7.50861 7.48861
#
# Compressibility (1/GPa) = 0.01812637
#
# Stress axis : x y z
#
# Youngs Moduli (GPa) = 62.66027 62.65951 50.79074
#
# Poissons Ratio (x) = 0.18622 0.34965
# Poissons Ratio (y) = 0.18622 0.34966
# Poissons Ratio (z) = 0.43136 0.43137
#
# Static dielectric constant tensor:
#      x y z
#    x 2.939990 0.000000 0.000000 
#    y 0.000000 2.939990 0.000000 
#    z 0.000000 0.000000 2.680560 
# 
# 
# High freq. dielectric constant tensor:
#      x y z
#    x 1.532420 0.000000 0.000000 
#    y 0.000000 1.532420 0.000000 
#    z 0.000000 0.000000 1.530420 
# 
# From -- ./inp_files/12267.got.cif
#   From: 2010.03.12/outbox.cif.g09.slc.cpg/sg131_7_cif.got.tgz:12267.got - 2010.04.06 17:36:35.
