data_PCOD8315877
_publ_section_title
;
Structure prediction by ZEFSAII (Michael W. Deem and Ramdas Pophale) SiO2 
 PCOD8315877
Probable space group: P 42/M M C
;
_chemical_formula_sum "Si O2"
_cell_formula_units_Z 96
_cell_length_a 14.206027
_cell_length_b 14.206027
_cell_length_c 25.358022
_cell_angle_alpha 90.000000
_cell_angle_beta 90.000000
_cell_angle_gamma 90.000000
_cell_volume 5117.532929
_symmetry_space_group_name_H-M "P 42/M M C"
_symmetry_group_IT_number 131
_symmetry_cell_setting 'tetragonal'
loop_
_space_group_symop_operation_xyz
x,y,z
-x,-y,z
-y,x,1/2+z
y,-x,1/2+z
-x,y,-z
x,-y,-z
y,x,1/2-z
-y,-x,1/2-z
-x,-y,-z
x,y,-z
y,-x,1/2-z
-y,x,1/2-z
x,-y,z
-x,y,z
-y,-x,1/2+z
y,x,1/2+z
loop_
_atom_site_type_symbol
_atom_site_label
_atom_site_fract_x
_atom_site_fract_y
_atom_site_fract_z
Si Si1 0.110364 0.605217 0.153215
Si Si2 0.112124 0.735359 0.249190
Si Si3 0.298395 0.791052 0.439335
Si Si4 0.278989 0.895702 0.059338
Si Si5 0.108841 0.602650 0.658692
Si Si6 0.602821 0.605446 0.937563
O O1 0.154481 0.500000 0.158898
O O2 0.146568 0.674178 0.199113
O O3 0.133230 0.649012 0.096196
O O4 0.000000 0.596255 0.157878
O O5 0.163886 0.836115 0.250000
O O6 0.149225 0.679146 0.300600
O O7 0.000000 0.754306 0.249109
O O8 0.329403 0.807753 0.500000
O O9 0.184871 0.800534 0.432919
O O10 0.325811 0.686132 0.418698
O O11 0.365118 0.877258 0.098542
O O12 0.234285 0.000000 0.069196
O O13 0.320169 0.888098 0.000000
O O14 0.157267 0.500000 0.665688
O O15 0.000000 0.592059 0.672823
O O16 0.624062 0.500000 0.916744
O O17 0.500000 0.639118 0.916050
O O18 0.599689 0.604590 0.000000
#
# Coordination Sequence:
#
# PCOD8315877 Si02
#       6
#    16  16  16  16  16  16
#     4  10  21  36  54  78 107 136 169 213 261 303
#     4  10  20  35  55  77 102 132 168 210 254 301
#     4  10  19  31  49  72 101 139 180 218 258 307
#     4   9  18  31  47  71 104 138 170 209 258 309
#     4   9  17  30  49  71  96 129 165 200 246 305
#     4   8  14  25  41  62  89 122 163 211 259 306
#
# _framework density 18.759039999999999
#
# number of rings (size 3 to 8) (size 9 to 14) (size 15 to 20)
#    0.000    2.667    0.000    2.500    0.000    4.500 
#    0.000    4.167    0.000    1.500    0.000    2.333 
#    0.000    4.333    0.000    0.000    0.000    0.333 
#
# Total GULP energy -1189639.253794 kJ/mol
# GULP energy per Si atom -12392.075560 kJ/mol
# Density = 1.871634 g / cm^3
# Si number density = 18.759040 Si / 1000 Ang^3
#
#
#
# Elastic Constant Matrix: (Units=GPa)
#
#
# Indices 1 2 3 4 5 6 
#
# 1 70.7695 30.8428 35.7805 0.0000 0.0000 0.0000
# 2 30.8428 70.7669 35.7798 0.0000 0.0000 0.0000
# 3 35.7805 35.7798 99.1345 0.0000 0.0000 0.0000
# 4 0.0000 0.0000 0.0000 22.6439 0.0000 0.0000
# 5 0.0000 0.0000 0.0000 0.0000 22.6440 0.0000
# 6 0.0000 0.0000 0.0000 0.0000 0.0000 22.4460
#
#
#
# Elastic Compliance Matrix: (Units=1/GPa)
#
#
# Indices 1 2 3 4 5 6 
#
# 1 0.019121 -0.005926 -0.004763 0.000000 0.000000 0.000000
# 2 -0.005926 0.019121 -0.004763 0.000000 0.000000 0.000000
# 3 -0.004763 -0.004763 0.013525 0.000000 0.000000 0.000000
# 4 0.000000 0.000000 0.000000 0.044162 0.000000 0.000000
# 5 0.000000 0.000000 0.000000 0.000000 0.044162 0.000000
# 6 0.000000 0.000000 0.000000 0.000000 0.000000 0.044551
#
#
# Mechanical properties :
#
#
# Convention : Reuss Voigt Hill
#
# Bulk Modulus (GPa) = 47.92515 49.49746 48.71130
# Shear Modulus (GPa) = 22.47194 22.76461 22.61828
#
# Velocity S-wave (km/s) = 3.46486 3.48735 3.47612
# Velocity P-wave (km/s) = 6.45060 6.53136 6.49111
#
# Compressibility (1/GPa) = 0.02086587
#
# Stress axis : x y z
#
# Youngs Moduli (GPa) = 52.29908 52.29724 73.93601
#
# Poissons Ratio (x) = 0.30989 0.35213
# Poissons Ratio (y) = 0.30990 0.35213
# Poissons Ratio (z) = 0.24908 0.24907
#
# Static dielectric constant tensor:
#      x y z
#    x 3.468090 0.000000 0.000000 
#    y 0.000000 3.468090 0.000000 
#    z 0.000000 0.000000 3.384340 
# 
# 
# High freq. dielectric constant tensor:
#      x y z
#    x 1.712610 0.000000 0.000000 
#    y 0.000000 1.712610 0.000000 
#    z 0.000000 0.000000 1.720150 
# 
# From -- ./inp_files/9722.got.cif
#   From: 2010.03.12/outbox.cif.g09.slc.cpg/sg131_5_cif.got.tgz:9722.got - 2010.04.06 17:36:35.
