data_PCOD8315332
_publ_section_title
;
Structure prediction by ZEFSAII (Michael W. Deem and Ramdas Pophale) SiO2 
 PCOD8315332
Probable space group: P 4/N M M
;
_chemical_formula_sum "Si O2"
_cell_formula_units_Z 112
_cell_length_a 19.020273
_cell_length_b 19.020273
_cell_length_c 17.598343
_cell_angle_alpha 90.000000
_cell_angle_beta 90.000000
_cell_angle_gamma 90.000000
_cell_volume 6366.566362
_symmetry_space_group_name_H-M "P 4/N M M"
_symmetry_group_IT_number 129
_symmetry_cell_setting 'tetragonal'
loop_
_space_group_symop_operation_xyz
x,y,z
1/2-y,x,z
1/2-x,1/2-y,z
y,1/2-x,z
1/2+x,-y,-z
-x,1/2+y,-z
1/2+y,1/2+x,-z
-y,-x,-z
-x,-y,-z
1/2+y,-x,-z
1/2+x,1/2+y,-z
-y,1/2+x,-z
1/2-x,y,z
x,1/2-y,z
1/2-y,1/2-x,z
y,x,z
loop_
_atom_site_type_symbol
_atom_site_label
_atom_site_fract_x
_atom_site_fract_y
_atom_site_fract_z
Si Si1 0.555292 0.669009 0.079311
Si Si2 0.092109 0.523609 0.354216
Si Si3 0.543135 0.327797 0.792031
Si Si4 0.033283 0.828145 0.374872
Si Si5 0.670309 0.061856 0.962219
Si Si6 0.670765 0.559984 0.517843
Si Si7 0.667715 0.071932 0.788195
O O1 0.574187 0.750000 0.096312
O O2 0.627986 0.627986 0.073481
O O3 0.506961 0.634809 0.146325
O O4 0.513293 0.659610 0.001218
O O5 0.084638 0.604793 0.381315
O O6 0.135934 0.491027 0.421738
O O7 0.135467 0.518273 0.274747
O O8 0.017349 0.482652 0.344384
O O9 0.555552 0.250000 0.823506
O O10 0.503076 0.329681 0.711059
O O11 0.621573 0.357719 0.782574
O O12 0.069254 0.750000 0.388470
O O13 0.970199 0.837732 0.433419
O O14 0.750000 0.089782 0.973652
O O15 0.656075 0.044604 0.873785
O O16 0.619523 0.119523 0.000000
O O17 0.750000 0.570685 0.542787
O O18 0.635990 0.635990 0.519443
O O19 0.750000 0.086733 0.770763
#
# Coordination Sequence:
#
# PCOD8315332 Si02
#       7
#    16  16  16  16  16  16  16
#     4  10  21  36  53  73 100 133 171 217 262 310
#     4  10  20  34  53  77 104 138 182 220 260 313
#     4   9  18  33  50  73 104 136 171 207 251 309
#     4   9  18  32  51  76 106 136 169 214 262 311
#     4  10  20  35  51  76 108 136 171 211 259 313
#     4  10  20  34  53  76 103 136 174 220 270 318
#     4  10  20  33  51  76 106 136 170 215 258 306
#
# _framework density 17.591899999999999
#
# number of rings (size 3 to 8) (size 9 to 14) (size 15 to 20)
#    0.000    2.286    1.429    1.286    0.000    5.571 
#    0.000    1.429    0.000    1.286    0.000   14.000 
#    0.000    3.429    0.000    0.000    0.000    0.000 
#
# Total GULP energy -1387705.951709 kJ/mol
# GULP energy per Si atom -12390.231712 kJ/mol
# Density = 1.755186 g / cm^3
# Si number density = 17.591900 Si / 1000 Ang^3
#
#
#
# Elastic Constant Matrix: (Units=GPa)
#
#
# Indices 1 2 3 4 5 6 
#
# 1 102.1601 61.6741 43.2109 0.0000 0.0000 0.0000
# 2 61.6741 102.1601 43.2109 0.0000 0.0000 0.0000
# 3 43.2109 43.2109 98.9519 0.0000 0.0000 0.0000
# 4 0.0000 0.0000 0.0000 23.0397 0.0000 0.0000
# 5 0.0000 0.0000 0.0000 0.0000 23.0397 0.0000
# 6 0.0000 0.0000 0.0000 0.0000 0.0000 19.3730
#
#
#
# Elastic Compliance Matrix: (Units=1/GPa)
#
#
# Indices 1 2 3 4 5 6 
#
# 1 0.016315 -0.008385 -0.003463 0.000000 0.000000 0.000000
# 2 -0.008385 0.016315 -0.003463 0.000000 0.000000 0.000000
# 3 -0.003463 -0.003463 0.013131 0.000000 0.000000 0.000000
# 4 0.000000 0.000000 0.000000 0.043403 0.000000 0.000000
# 5 0.000000 0.000000 0.000000 0.000000 0.043403 0.000000
# 6 0.000000 0.000000 0.000000 0.000000 0.000000 0.051618
#
#
# Mechanical properties :
#
#
# Convention : Reuss Voigt Hill
#
# Bulk Modulus (GPa) = 66.05459 66.60711 66.33085
# Shear Modulus (GPa) = 22.74234 23.43555 23.08894
#
# Velocity S-wave (km/s) = 3.59942 3.65386 3.62674
# Velocity P-wave (km/s) = 7.40974 7.46629 7.43807
#
# Compressibility (1/GPa) = 0.01513899
#
# Stress axis : x y z
#
# Youngs Moduli (GPa) = 61.29248 61.29248 76.15838
#
# Poissons Ratio (x) = 0.51392 0.26375
# Poissons Ratio (y) = 0.51392 0.26375
# Poissons Ratio (z) = 0.21226 0.21226
#
# Static dielectric constant tensor:
#      x y z
#    x 3.211350 0.000000 0.000000 
#    y 0.000000 3.211350 0.000000 
#    z 0.000000 0.000000 3.636920 
# 
# 
# High freq. dielectric constant tensor:
#      x y z
#    x 1.664570 0.000000 0.000000 
#    y 0.000000 1.664570 0.000000 
#    z 0.000000 0.000000 1.702610 
# 
# From -- ./inp_files/6644.got.cif
#   From: 2010.03.12/outbox.cif.g09.slc.cpg/sg129_4_cif.got.tgz:6644.got - 2010.04.06 17:19:44.
