data_PCOD8315607
_publ_section_title
;
Structure prediction by ZEFSAII (Michael W. Deem and Ramdas Pophale) SiO2 
 PCOD8315607
Probable space group: P 4/N C C
;
_chemical_formula_sum "Si O2"
_cell_formula_units_Z 88
_cell_length_a 13.656682
_cell_length_b 13.656682
_cell_length_c 20.764544
_cell_angle_alpha 90.000000
_cell_angle_beta 90.000000
_cell_angle_gamma 90.000000
_cell_volume 3872.690516
_symmetry_space_group_name_H-M "P 4/N C C"
_symmetry_group_IT_number 130
_symmetry_cell_setting 'tetragonal'
loop_
_space_group_symop_operation_xyz
x,y,z
1/2-y,x,z
1/2-x,1/2-y,z
y,1/2-x,z
1/2+x,-y,1/2-z
-x,1/2+y,1/2-z
1/2+y,1/2+x,1/2-z
-y,-x,1/2-z
-x,-y,-z
1/2+y,-x,-z
1/2+x,1/2+y,-z
-y,1/2+x,-z
1/2-x,y,1/2+z
x,1/2-y,1/2+z
1/2-y,1/2-x,1/2+z
y,x,1/2+z
loop_
_atom_site_type_symbol
_atom_site_label
_atom_site_fract_x
_atom_site_fract_y
_atom_site_fract_z
Si Si1 0.996244 0.172275 0.602912
Si Si2 0.361237 0.638764 0.750000
Si Si3 0.636935 0.945923 0.831511
Si Si4 0.414395 0.806808 0.653602
Si Si5 0.100049 0.720750 0.018311
Si Si6 0.668492 0.883797 0.205748
O O1 0.887684 0.167171 0.635565
O O2 0.989611 0.183635 0.525680
O O3 0.053520 0.070416 0.614641
O O4 0.059813 0.259311 0.633370
O O5 0.449098 0.625161 0.799537
O O6 0.371026 0.741595 0.711934
O O7 0.616693 0.855394 0.781756
O O8 0.435742 0.740978 0.590674
O O9 0.513655 0.865609 0.674521
O O10 0.138633 0.816342 0.980354
O O11 0.616403 0.783354 0.184189
#
# Coordination Sequence:
#
# PCOD8315607 Si02
#       6
#    16   8  16  16  16  16
#     4  11  25  43  67 100 135 187 232 284 341 424
#     4  12  24  39  66 106 130 177 226 296 350 411
#     4  12  23  41  65  98 137 177 230 277 353 420
#     4  11  24  44  69 101 140 176 239 295 354 421
#     4   9  20  44  69  95 134 184 230 291 357 408
#     4  11  22  42  63  91 135 186 214 278 356 423
#
# _framework density 22.723219
#
# number of rings (size 3 to 8) (size 9 to 14) (size 15 to 20)
#    0.000    1.091    3.636    2.182    0.000    5.455 
#    3.273    2.727    0.000    0.000    0.000    0.000 
#    0.000    0.000    0.000    0.000    0.000    0.000 
#
# Total GULP energy -1090447.061211 kJ/mol
# GULP energy per Si atom -12391.443877 kJ/mol
# Density = 2.267150 g / cm^3
# Si number density = 22.723219 Si / 1000 Ang^3
#
#
#
# Elastic Constant Matrix: (Units=GPa)
#
#
# Indices 1 2 3 4 5 6 
#
# 1 74.6559 28.1183 46.9273 0.0000 0.0000 0.0000
# 2 28.1183 74.6560 46.9272 0.0000 0.0000 0.0000
# 3 46.9273 46.9272 119.2975 0.0000 0.0000 0.0000
# 4 0.0000 0.0000 0.0000 32.1270 0.0000 0.0000
# 5 0.0000 0.0000 0.0000 0.0000 32.1272 0.0000
# 6 0.0000 0.0000 0.0000 0.0000 0.0000 23.9414
#
#
#
# Elastic Compliance Matrix: (Units=1/GPa)
#
#
# Indices 1 2 3 4 5 6 
#
# 1 0.018336 -0.003152 -0.005973 0.000000 0.000000 0.000000
# 2 -0.003152 0.018336 -0.005973 0.000000 0.000000 0.000000
# 3 -0.005973 -0.005973 0.013082 0.000000 0.000000 0.000000
# 4 0.000000 0.000000 0.000000 0.031126 0.000000 0.000000
# 5 0.000000 0.000000 0.000000 0.000000 0.031126 0.000000
# 6 0.000000 0.000000 0.000000 0.000000 0.000000 0.041769
#
#
# Mechanical properties :
#
#
# Convention : Reuss Voigt Hill
#
# Bulk Modulus (GPa) = 51.12824 56.95055 54.03940
# Shear Modulus (GPa) = 26.24796 27.41490 26.83143
#
# Velocity S-wave (km/s) = 3.40239 3.47720 3.44000
# Velocity P-wave (km/s) = 6.16314 6.42171 6.29375
#
# Compressibility (1/GPa) = 0.01955866
#
# Stress axis : x y z
#
# Youngs Moduli (GPa) = 54.53633 54.53650 76.44314
#
# Poissons Ratio (x) = 0.17188 0.45661
# Poissons Ratio (y) = 0.17188 0.45660
# Poissons Ratio (z) = 0.32575 0.32575
#
# Static dielectric constant tensor:
#      x y z
#    x 4.087510 0.000000 0.000000 
#    y 0.000000 4.087520 0.000000 
#    z 0.000000 0.000000 4.027140 
# 
# 
# High freq. dielectric constant tensor:
#      x y z
#    x 1.894020 0.000000 0.000000 
#    y 0.000000 1.894020 0.000000 
#    z 0.000000 0.000000 1.883750 
# 
# From -- ./inp_files/3704.got.cif
#   From: 2010.03.12/outbox.cif.g09.slc.cpg/sg130_2_cif.got.tgz:3704.got - 2010.04.06 17:30:23.
