data_PCOD8315559
_publ_section_title
;
Structure prediction by ZEFSAII (Michael W. Deem and Ramdas Pophale) SiO2 
 PCOD8315559
Probable space group: P 4/N C C
;
_chemical_formula_sum "Si O2"
_cell_formula_units_Z 112
_cell_length_a 14.841151
_cell_length_b 14.841151
_cell_length_c 27.967784
_cell_angle_alpha 90.000000
_cell_angle_beta 90.000000
_cell_angle_gamma 90.000000
_cell_volume 6160.177476
_symmetry_space_group_name_H-M "P 4/N C C"
_symmetry_group_IT_number 130
_symmetry_cell_setting 'tetragonal'
loop_
_space_group_symop_operation_xyz
x,y,z
1/2-y,x,z
1/2-x,1/2-y,z
y,1/2-x,z
1/2+x,-y,1/2-z
-x,1/2+y,1/2-z
1/2+y,1/2+x,1/2-z
-y,-x,1/2-z
-x,-y,-z
1/2+y,-x,-z
1/2+x,1/2+y,-z
-y,1/2+x,-z
1/2-x,y,1/2+z
x,1/2-y,1/2+z
1/2-y,1/2-x,1/2+z
y,x,1/2+z
loop_
_atom_site_type_symbol
_atom_site_label
_atom_site_fract_x
_atom_site_fract_y
_atom_site_fract_z
Si Si1 0.185298 0.383448 0.569162
Si Si2 0.309537 0.116135 0.727741
Si Si3 0.807190 0.337342 0.195151
Si Si4 0.971494 0.754533 0.176980
Si Si5 0.077327 0.422325 0.371309
Si Si6 0.511288 0.114598 0.148905
Si Si7 0.624182 0.672375 0.538737
O O1 0.132167 0.290934 0.579288
O O2 0.156539 0.465908 0.602205
O O3 0.160526 0.412165 0.515107
O O4 0.366954 0.205045 0.716271
O O5 0.309243 0.082275 0.782037
O O6 0.357990 0.042442 0.695812
O O7 0.750000 0.250000 0.181459
O O8 0.838378 0.338378 0.250000
O O9 0.743190 0.423613 0.189325
O O10 0.889435 0.344956 0.157643
O O11 0.956155 0.818620 0.131013
O O12 0.935756 0.654887 0.168203
O O13 0.120132 0.441407 0.423957
O O14 0.993515 0.487458 0.359002
O O15 0.721617 0.628976 0.547608
#
# Coordination Sequence:
#
# PCOD8315559 Si02
#       7
#    16  16  16  16  16  16  16
#     4   9  19  37  60  86 114 148 188 235 299 360
#     4  11  22  36  56  81 113 149 182 237 299 339
#     4  10  22  40  56  75 112 161 198 230 279 340
#     4  11  21  36  55  85 112 143 192 237 292 343
#     4  11  22  34  58  85 115 147 189 242 289 344
#     4  11  23  37  54  83 119 150 195 240 273 353
#     4   9  17  33  60  87 114 147 183 236 304 353
#
# _framework density 18.181294000000001
#
# number of rings (size 3 to 8) (size 9 to 14) (size 15 to 20)
#    0.000    1.714    4.286    1.714    0.000    4.286 
#    0.000    0.000    0.000    0.000    0.000    0.000 
#    0.000    0.000    0.000    0.000    0.000    0.000 
#
# Total GULP energy -1387969.797673 kJ/mol
# GULP energy per Si atom -12392.587479 kJ/mol
# Density = 1.813991 g / cm^3
# Si number density = 18.181294 Si / 1000 Ang^3
#
#
#
# Elastic Constant Matrix: (Units=GPa)
#
#
# Indices 1 2 3 4 5 6 
#
# 1 93.8500 46.7038 45.3321 0.0000 0.0000 0.0000
# 2 46.7038 93.8500 45.3321 0.0000 0.0000 0.0000
# 3 45.3321 45.3321 115.9989 0.0000 0.0000 0.0000
# 4 0.0000 0.0000 0.0000 22.2129 0.0000 0.0000
# 5 0.0000 0.0000 0.0000 0.0000 22.2129 0.0000
# 6 0.0000 0.0000 0.0000 0.0000 0.0000 28.3321
#
#
#
# Elastic Compliance Matrix: (Units=1/GPa)
#
#
# Indices 1 2 3 4 5 6 
#
# 1 0.015362 -0.005849 -0.003718 0.000000 0.000000 0.000000
# 2 -0.005849 0.015362 -0.003718 0.000000 0.000000 0.000000
# 3 -0.003718 -0.003718 0.011526 0.000000 0.000000 0.000000
# 4 0.000000 0.000000 0.000000 0.045019 0.000000 0.000000
# 5 0.000000 0.000000 0.000000 0.000000 0.045019 0.000000
# 6 0.000000 0.000000 0.000000 0.000000 0.000000 0.035296
#
#
# Mechanical properties :
#
#
# Convention : Reuss Voigt Hill
#
# Bulk Modulus (GPa) = 63.76888 64.27055 64.01972
# Shear Modulus (GPa) = 25.07792 25.64030 25.35911
#
# Velocity S-wave (km/s) = 3.71796 3.75941 3.73874
# Velocity P-wave (km/s) = 7.31990 7.36687 7.34343
#
# Compressibility (1/GPa) = 0.01568163
#
# Stress axis : x y z
#
# Youngs Moduli (GPa) = 65.09707 65.09707 86.75747
#
# Poissons Ratio (x) = 0.38075 0.32252
# Poissons Ratio (y) = 0.38075 0.32252
# Poissons Ratio (z) = 0.24200 0.24200
#
# Static dielectric constant tensor:
#      x y z
#    x 3.328670 0.000000 0.000000 
#    y 0.000000 3.328670 0.000000 
#    z 0.000000 0.000000 3.352730 
# 
# 
# High freq. dielectric constant tensor:
#      x y z
#    x 1.695380 0.000000 0.000000 
#    y 0.000000 1.695380 0.000000 
#    z 0.000000 0.000000 1.705640 
# 
# From -- ./inp_files/4594.got.cif
#   From: 2010.03.12/outbox.cif.g09.slc.cpg/sg130_3_cif.got.tgz:4594.got - 2010.04.06 17:30:23.
