data_PCOD8315935
_publ_section_title
;
Structure prediction by ZEFSAII (Michael W. Deem and Ramdas Pophale) SiO2 
 PCOD8315935
Probable space group: P 42/M M C
;
_chemical_formula_sum "Si O2"
_cell_formula_units_Z 120
_cell_length_a 27.360691
_cell_length_b 27.360691
_cell_length_c 9.047186
_cell_angle_alpha 90.000000
_cell_angle_beta 90.000000
_cell_angle_gamma 90.000000
_cell_volume 6772.790497
_symmetry_space_group_name_H-M "P 42/M M C"
_symmetry_group_IT_number 131
_symmetry_cell_setting 'tetragonal'
loop_
_space_group_symop_operation_xyz
x,y,z
-x,-y,z
-y,x,1/2+z
y,-x,1/2+z
-x,y,-z
x,-y,-z
y,x,1/2-z
-y,-x,1/2-z
-x,-y,-z
x,y,-z
y,-x,1/2-z
-y,x,1/2-z
x,-y,z
-x,y,z
-y,-x,1/2+z
y,x,1/2+z
loop_
_atom_site_type_symbol
_atom_site_label
_atom_site_fract_x
_atom_site_fract_y
_atom_site_fract_z
Si Si1 0.443307 0.724862 0.169520
Si Si2 0.799824 0.868308 0.832332
Si Si3 0.371764 0.557055 0.828202
Si Si4 0.215410 0.719961 0.335745
Si Si5 0.057127 0.269154 0.827902
Si Si6 0.818887 0.617098 0.675003
Si Si7 0.082370 0.620534 0.824488
Si Si8 0.000000 0.557481 0.674957
O O1 0.500000 0.733375 0.197887
O O2 0.423342 0.679784 0.265660
O O3 0.417760 0.774579 0.219472
O O4 0.431469 0.712617 0.000000
O O5 0.849206 0.849206 0.750000
O O6 0.761207 0.825108 0.830384
O O7 0.774656 0.914849 0.755078
O O8 0.813928 0.882573 0.000000
O O9 0.416494 0.583507 0.750000
O O10 0.377563 0.500000 0.793042
O O11 0.373595 0.568746 0.000000
O O12 0.263652 0.736348 0.250000
O O13 0.233132 0.708317 0.500000
O O14 0.193979 0.671015 0.266122
O O15 0.072914 0.323303 0.772691
O O16 0.000000 0.262156 0.795551
O O17 0.069510 0.263944 0.000000
O O18 0.830899 0.615425 0.500000
O O19 0.865276 0.601386 0.770499
O O20 0.046439 0.583248 0.745889
O O21 0.076298 0.616289 0.000000
O O22 0.000000 0.500000 0.713988
O O23 0.000000 0.565873 0.500000
#
# Coordination Sequence:
#
# PCOD8315935 Si02
#       8
#    16  16  16  16  16  16  16   8
#     4   9  19  36  56  75 100 136 174 215 263 316
#     4  10  19  32  51  76 107 146 184 224 272 321
#     4  10  21  37  58  83 111 141 173 213 263 322
#     4   9  18  30  45  68  99 134 171 213 259 309
#     4  10  20  35  54  79 112 148 186 228 278 333
#     4  10  20  35  53  77 107 140 182 226 269 323
#     4  11  22  37  57  82 109 140 180 231 287 340
#     4  11  25  43  61  79 103 139 181 231 292 351
#
# _framework density 17.717956000000001
#
# number of rings (size 3 to 8) (size 9 to 14) (size 15 to 20)
#    0.000    2.067    2.000    1.400    0.000    4.933 
#    0.000    3.333    0.000    0.000    0.000    0.000 
#    0.000    0.267    0.000    2.800    0.000    1.200 
#
# Total GULP energy -1487964.342099 kJ/mol
# GULP energy per Si atom -12399.702851 kJ/mol
# Density = 1.767763 g / cm^3
# Si number density = 17.717956 Si / 1000 Ang^3
#
#
#
# Elastic Constant Matrix: (Units=GPa)
#
#
# Indices 1 2 3 4 5 6 
#
# 1 92.2263 60.5362 56.6371 0.0000 0.0000 0.0000
# 2 60.5362 92.2389 56.6352 0.0000 0.0000 0.0000
# 3 56.6371 56.6352 89.8864 0.0000 0.0000 0.0000
# 4 0.0000 0.0000 0.0000 30.0465 0.0000 0.0000
# 5 0.0000 0.0000 0.0000 0.0000 30.0463 0.0000
# 6 0.0000 0.0000 0.0000 0.0000 0.0000 18.1592
#
#
#
# Elastic Compliance Matrix: (Units=1/GPa)
#
#
# Indices 1 2 3 4 5 6 
#
# 1 0.021920 -0.009632 -0.007743 0.000000 0.000000 0.000000
# 2 -0.009632 0.021914 -0.007739 0.000000 0.000000 0.000000
# 3 -0.007743 -0.007739 0.020880 0.000000 0.000000 0.000000
# 4 0.000000 0.000000 0.000000 0.033282 0.000000 0.000000
# 5 0.000000 0.000000 0.000000 0.000000 0.033282 0.000000
# 6 0.000000 0.000000 0.000000 0.000000 0.000000 0.055068
#
#
# Mechanical properties :
#
#
# Convention : Reuss Voigt Hill
#
# Bulk Modulus (GPa) = 69.02583 69.10762 69.06673
# Shear Modulus (GPa) = 20.71222 22.35327 21.53274
#
# Velocity S-wave (km/s) = 3.42277 3.55578 3.48991
# Velocity P-wave (km/s) = 7.39345 7.47977 7.43674
#
# Compressibility (1/GPa) = 0.01448733
#
# Stress axis : x y z
#
# Youngs Moduli (GPa) = 45.61990 45.63194 47.89279
#
# Poissons Ratio (x) = 0.43953 0.37083
# Poissons Ratio (y) = 0.43941 0.37063
# Poissons Ratio (z) = 0.35324 0.35313
#
# Static dielectric constant tensor:
#      x y z
#    x 3.327840 0.000000 0.000000 
#    y 0.000000 3.327840 0.000000 
#    z 0.000000 0.000000 3.379020 
# 
# 
# High freq. dielectric constant tensor:
#      x y z
#    x 1.677570 0.000000 0.000000 
#    y 0.000000 1.677570 0.000000 
#    z 0.000000 0.000000 1.688770 
# 
# From -- ./inp_files/2642.got.cif
#   From: 2010.03.12/outbox.cif.g09.slc.cpg/sg131_2_cif.got.tgz:2642.got - 2010.04.06 17:36:35.
