data_PCOD8315393
_publ_section_title
;
Structure prediction by ZEFSAII (Michael W. Deem and Ramdas Pophale) SiO2 
 PCOD8315393
Probable space group: P 4/N M M
;
_chemical_formula_sum "Si O2"
_cell_formula_units_Z 96
_cell_length_a 24.831924
_cell_length_b 24.831924
_cell_length_c 9.212987
_cell_angle_alpha 90.000000
_cell_angle_beta 90.000000
_cell_angle_gamma 90.000000
_cell_volume 5680.953038
_symmetry_space_group_name_H-M "P 4/N M M"
_symmetry_group_IT_number 129
_symmetry_cell_setting 'tetragonal'
loop_
_space_group_symop_operation_xyz
x,y,z
1/2-y,x,z
1/2-x,1/2-y,z
y,1/2-x,z
1/2+x,-y,-z
-x,1/2+y,-z
1/2+y,1/2+x,-z
-y,-x,-z
-x,-y,-z
1/2+y,-x,-z
1/2+x,1/2+y,-z
-y,1/2+x,-z
1/2-x,y,z
x,1/2-y,z
1/2-y,1/2-x,z
y,x,z
loop_
_atom_site_type_symbol
_atom_site_label
_atom_site_fract_x
_atom_site_fract_y
_atom_site_fract_z
Si Si1 0.999546 0.588575 0.153873
Si Si2 0.086655 0.502387 0.181349
Si Si3 0.975356 0.310695 0.698257
Si Si4 0.310268 0.972054 0.354923
Si Si5 0.631152 0.190337 0.881302
Si Si6 0.309237 0.647363 0.363557
O O1 0.051848 0.556253 0.216006
O O2 0.985216 0.642589 0.244934
O O3 0.947984 0.552017 0.174586
O O4 0.006262 0.604234 0.985809
O O5 0.050325 0.449676 0.210731
O O6 0.140755 0.495764 0.279227
O O7 0.995950 0.250000 0.732724
O O8 0.967633 0.317954 0.527640
O O9 0.922264 0.324016 0.792361
O O10 0.250000 0.996378 0.320280
O O11 0.313612 0.911806 0.292544
O O12 0.628500 0.250000 0.952140
O O13 0.678369 0.190145 0.762010
O O14 0.644426 0.144426 0.000000
O O15 0.349080 0.650921 0.500000
O O16 0.250000 0.658523 0.425821
#
# Coordination Sequence:
#
# PCOD8315393 Si02
#       6
#    16  16  16  16  16  16
#     4   9  19  34  52  76 102 128 162 207 251 292
#     4   9  19  34  53  77 101 127 163 207 250 293
#     4  10  21  35  50  71  98 127 161 200 244 297
#     4  10  21  35  50  71  98 127 161 200 244 298
#     4  11  23  35  45  62  86 117 161 209 251 290
#     4  11  21  33  47  62  84 119 160 204 250 288
#
# _framework density 16.898572999999999
#
# number of rings (size 3 to 8) (size 9 to 14) (size 15 to 20)
#    0.000    2.000    1.667    3.000    4.667    3.333 
#    0.000    1.667    0.000    0.000    0.000    0.000 
#    0.000    0.667    0.000    7.333    0.000    5.333 
#
# Total GULP energy -1189477.174085 kJ/mol
# GULP energy per Si atom -12390.387230 kJ/mol
# Density = 1.686011 g / cm^3
# Si number density = 16.898573 Si / 1000 Ang^3
#
#
#
# Elastic Constant Matrix: (Units=GPa)
#
#
# Indices 1 2 3 4 5 6 
#
# 1 80.2012 28.8060 36.2494 0.0000 0.0000 0.0000
# 2 28.8060 80.2018 36.2495 0.0000 0.0000 0.0000
# 3 36.2494 36.2495 71.9059 0.0000 0.0000 0.0000
# 4 0.0000 0.0000 0.0000 29.1143 0.0000 0.0000
# 5 0.0000 0.0000 0.0000 0.0000 29.1140 0.0000
# 6 0.0000 0.0000 0.0000 0.0000 0.0000 18.2177
#
#
#
# Elastic Compliance Matrix: (Units=1/GPa)
#
#
# Indices 1 2 3 4 5 6 
#
# 1 0.016629 -0.002828 -0.006957 0.000000 0.000000 0.000000
# 2 -0.002828 0.016629 -0.006957 0.000000 0.000000 0.000000
# 3 -0.006957 -0.006957 0.020922 0.000000 0.000000 0.000000
# 4 0.000000 0.000000 0.000000 0.034347 0.000000 0.000000
# 5 0.000000 0.000000 0.000000 0.000000 0.034348 0.000000
# 6 0.000000 0.000000 0.000000 0.000000 0.000000 0.054892
#
#
# Mechanical properties :
#
#
# Convention : Reuss Voigt Hill
#
# Bulk Modulus (GPa) = 48.32280 48.32430 48.32355
# Shear Modulus (GPa) = 22.91999 24.02277 23.47138
#
# Velocity S-wave (km/s) = 3.68683 3.77448 3.73091
# Velocity P-wave (km/s) = 6.83970 6.90322 6.87153
#
# Compressibility (1/GPa) = 0.02069416
#
# Stress axis : x y z
#
# Youngs Moduli (GPa) = 60.13595 60.13633 47.79704
#
# Poissons Ratio (x) = 0.17007 0.33254
# Poissons Ratio (y) = 0.17007 0.33254
# Poissons Ratio (z) = 0.41839 0.41839
#
# Static dielectric constant tensor:
#      x y z
#    x 3.027760 0.000000 0.000000 
#    y 0.000000 3.027760 0.000000 
#    z 0.000000 0.000000 3.142140 
# 
# 
# High freq. dielectric constant tensor:
#      x y z
#    x 1.625550 0.000000 0.000000 
#    y 0.000000 1.625550 0.000000 
#    z 0.000000 0.000000 1.658890 
# 
# From -- ./inp_files/2598.got.cif
#   From: 2010.03.12/outbox.cif.g09.slc.cpg/sg129_2_cif.got.tgz:2598.got - 2010.04.06 17:19:44.
