data_PCOD8315629
_publ_section_title
;
Structure prediction by ZEFSAII (Michael W. Deem and Ramdas Pophale) SiO2 
 PCOD8315629
Probable space group: P 4/N C C
;
_chemical_formula_sum "Si O2"
_cell_formula_units_Z 72
_cell_length_a 10.170379
_cell_length_b 10.170379
_cell_length_c 31.020947
_cell_angle_alpha 90.000000
_cell_angle_beta 90.000000
_cell_angle_gamma 90.000000
_cell_volume 3208.701566
_symmetry_space_group_name_H-M "P 4/N C C"
_symmetry_group_IT_number 130
_symmetry_cell_setting 'tetragonal'
loop_
_space_group_symop_operation_xyz
x,y,z
1/2-y,x,z
1/2-x,1/2-y,z
y,1/2-x,z
1/2+x,-y,1/2-z
-x,1/2+y,1/2-z
1/2+y,1/2+x,1/2-z
-y,-x,1/2-z
-x,-y,-z
1/2+y,-x,-z
1/2+x,1/2+y,-z
-y,1/2+x,-z
1/2-x,y,1/2+z
x,1/2-y,1/2+z
1/2-y,1/2-x,1/2+z
y,x,1/2+z
loop_
_atom_site_type_symbol
_atom_site_label
_atom_site_fract_x
_atom_site_fract_y
_atom_site_fract_z
Si Si1 0.388015 0.816636 0.389403
Si Si2 0.557227 0.654585 0.673579
Si Si3 0.023418 0.523418 0.750000
Si Si4 0.200279 0.458122 0.680165
Si Si5 0.904846 0.383538 0.515259
O O1 0.250000 0.750000 0.397702
O O2 0.473366 0.700172 0.366775
O O3 0.445844 0.856665 0.435455
O O4 0.391066 0.943715 0.358734
O O5 0.691842 0.575661 0.665030
O O6 0.522599 0.614384 0.722934
O O7 0.149407 0.550359 0.718595
O O8 0.092757 0.345722 0.685817
O O9 0.927823 0.248592 0.488256
O O10 0.000000 0.500000 0.500000
#
# Coordination Sequence:
#
# PCOD8315629 Si02
#       5
#    16  16   8  16  16
#     4  12  26  47  77 107 149 189 253 307 388 449
#     4  11  26  45  70 101 142 193 248 310 365 445
#     4  12  22  46  70  98 144 200 256 300 367 431
#     4  11  25  44  69 103 147 199 251 315 367 445
#     4  11  27  51  81 117 154 200 253 329 396 486
#
# _framework density 22.438981999999999
#
# number of rings (size 3 to 8) (size 9 to 14) (size 15 to 20)
#    0.000    0.667    4.444    2.667    6.222    2.222 
#    0.000    0.000    0.000    0.000    0.000    0.000 
#    0.000    0.000    0.000    0.000    0.000    0.000 
#
# Total GULP energy -892009.720047 kJ/mol
# GULP energy per Si atom -12389.023890 kJ/mol
# Density = 2.238791 g / cm^3
# Si number density = 22.438982 Si / 1000 Ang^3
#
#
#
# Elastic Constant Matrix: (Units=GPa)
#
#
# Indices 1 2 3 4 5 6 
#
# 1 118.8823 45.8200 52.3299 0.0000 0.0000 0.0000
# 2 45.8200 118.8823 52.3299 0.0000 0.0000 0.0000
# 3 52.3299 52.3299 184.4157 0.0000 0.0000 0.0000
# 4 0.0000 0.0000 0.0000 41.1825 0.0000 0.0000
# 5 0.0000 0.0000 0.0000 0.0000 41.1825 0.0000
# 6 0.0000 0.0000 0.0000 0.0000 0.0000 78.7945
#
#
#
# Elastic Compliance Matrix: (Units=1/GPa)
#
#
# Indices 1 2 3 4 5 6 
#
# 1 0.010547 -0.003140 -0.002102 0.000000 0.000000 0.000000
# 2 -0.003140 0.010547 -0.002102 0.000000 0.000000 0.000000
# 3 -0.002102 -0.002102 0.006615 0.000000 0.000000 0.000000
# 4 0.000000 0.000000 0.000000 0.024282 0.000000 0.000000
# 5 0.000000 0.000000 0.000000 0.000000 0.024282 0.000000
# 6 0.000000 0.000000 0.000000 0.000000 0.000000 0.012691
#
#
# Mechanical properties :
#
#
# Convention : Reuss Voigt Hill
#
# Bulk Modulus (GPa) = 76.79141 80.34889 78.57015
# Shear Modulus (GPa) = 46.29927 50.34527 48.32227
#
# Velocity S-wave (km/s) = 4.54733 4.74186 4.64561
# Velocity P-wave (km/s) = 7.86559 8.11577 7.99166
#
# Compressibility (1/GPa) = 0.01302229
#
# Stress axis : x y z
#
# Youngs Moduli (GPa) = 94.81312 94.81312 151.16272
#
# Poissons Ratio (x) = 0.29770 0.31772
# Poissons Ratio (y) = 0.29770 0.31772
# Poissons Ratio (z) = 0.19928 0.19928
#
# Static dielectric constant tensor:
#      x y z
#    x 4.199560 0.000000 0.000000 
#    y 0.000000 4.199560 0.000000 
#    z 0.000000 0.000000 4.371210 
# 
# 
# High freq. dielectric constant tensor:
#      x y z
#    x 1.890470 0.000000 0.000000 
#    y 0.000000 1.890470 0.000000 
#    z 0.000000 0.000000 1.885580 
# 
# From -- ./inp_files/4489.got.cif
#   From: 2010.03.12/outbox.cif.g09.slc.cpg/sg130_3_cif.got.tgz:4489.got - 2010.04.06 17:30:23.
