data_PCOD8315743
_publ_section_title
;
Structure prediction by ZEFSAII (Michael W. Deem and Ramdas Pophale) SiO2 
 PCOD8315743
Probable space group: P 42/M M C
;
_chemical_formula_sum "Si O2"
_cell_formula_units_Z 104
_cell_length_a 26.587408
_cell_length_b 26.587408
_cell_length_c 8.959013
_cell_angle_alpha 90.000000
_cell_angle_beta 90.000000
_cell_angle_gamma 90.000000
_cell_volume 6333.039066
_symmetry_space_group_name_H-M "P 42/M M C"
_symmetry_group_IT_number 131
_symmetry_cell_setting 'tetragonal'
loop_
_space_group_symop_operation_xyz
x,y,z
-x,-y,z
-y,x,1/2+z
y,-x,1/2+z
-x,y,-z
x,-y,-z
y,x,1/2-z
-y,-x,1/2-z
-x,-y,-z
x,y,-z
y,-x,1/2-z
-y,x,1/2-z
x,-y,z
-x,y,z
-y,-x,1/2+z
y,x,1/2+z
loop_
_atom_site_type_symbol
_atom_site_label
_atom_site_fract_x
_atom_site_fract_y
_atom_site_fract_z
Si Si1 0.629458 0.556738 0.325072
Si Si2 0.186214 0.345631 0.176662
Si Si3 0.556014 0.000000 0.823072
Si Si4 0.233192 0.159823 0.672124
Si Si5 0.085849 0.369632 0.323539
Si Si6 0.944661 0.729530 0.828847
Si Si7 0.362394 0.711203 0.176041
O O1 0.580139 0.580139 0.250000
O O2 0.620119 0.558080 0.500000
O O3 0.637113 0.500000 0.266723
O O4 0.678976 0.588338 0.281811
O O5 0.181369 0.287144 0.224885
O O6 0.138202 0.376094 0.236616
O O7 0.234072 0.370396 0.255319
O O8 0.190314 0.351827 0.000000
O O9 0.584885 0.050144 0.770441
O O10 0.500000 0.000000 0.753688
O O11 0.553786 0.000000 0.000000
O O12 0.187060 0.187060 0.750000
O O13 0.225905 0.170733 0.500000
O O14 0.230903 0.099865 0.709153
O O15 0.095537 0.369975 0.500000
O O16 0.058580 0.317906 0.279688
O O17 0.000000 0.754664 0.809070
O O18 0.936551 0.710957 0.000000
O O19 0.313250 0.686751 0.250000
O O20 0.353669 0.714639 0.000000
#
# Coordination Sequence:
#
# PCOD8315743 Si02
#       7
#    16  16   8  16  16  16  16
#     4   9  19  35  53  74  99 125 155 191 233 283
#     4  10  20  33  48  68  95 127 161 195 236 286
#     4   9  18  32  49  69  93 119 151 197 248 295
#     4   9  18  29  42  64  92 123 152 184 228 274
#     4  10  18  30  49  71  91 116 157 201 240 284
#     4   9  17  30  47  65  91 125 157 190 233 284
#     4  10  19  32  51  73  97 127 160 194 233 282
#
# _framework density 16.421814999999999
#
# number of rings (size 3 to 8) (size 9 to 14) (size 15 to 20)
#    0.000    2.538    0.769    2.769    0.000    5.385 
#    0.000    1.538    0.000    8.308    0.000    0.000 
#    0.000    0.308    0.000    3.846    0.000    0.000 
#
# Total GULP energy -1289422.394068 kJ/mol
# GULP energy per Si atom -12398.292251 kJ/mol
# Density = 1.638444 g / cm^3
# Si number density = 16.421815 Si / 1000 Ang^3
#
#
#
# Elastic Constant Matrix: (Units=GPa)
#
#
# Indices 1 2 3 4 5 6 
#
# 1 124.8962 62.6064 36.8485 0.0000 0.0000 0.0000
# 2 62.6064 124.8926 36.8482 0.0000 0.0000 0.0000
# 3 36.8485 36.8482 53.5751 0.0000 0.0000 0.0000
# 4 0.0000 0.0000 0.0000 22.9597 0.0000 0.0000
# 5 0.0000 0.0000 0.0000 0.0000 22.9599 0.0000
# 6 0.0000 0.0000 0.0000 0.0000 0.0000 22.8085
#
#
#
# Elastic Compliance Matrix: (Units=1/GPa)
#
#
# Indices 1 2 3 4 5 6 
#
# 1 0.011682 -0.004373 -0.005027 0.000000 0.000000 0.000000
# 2 -0.004373 0.011682 -0.005027 0.000000 0.000000 0.000000
# 3 -0.005027 -0.005027 0.025581 0.000000 0.000000 0.000000
# 4 0.000000 0.000000 0.000000 0.043554 0.000000 0.000000
# 5 0.000000 0.000000 0.000000 0.000000 0.043554 0.000000
# 6 0.000000 0.000000 0.000000 0.000000 0.000000 0.043843
#
#
# Mechanical properties :
#
#
# Convention : Reuss Voigt Hill
#
# Bulk Modulus (GPa) = 49.77517 63.99667 56.88592
# Shear Modulus (GPa) = 23.20753 24.88301 24.04527
#
# Velocity S-wave (km/s) = 3.76335 3.89683 3.83067
# Velocity P-wave (km/s) = 7.01854 7.70079 7.36757
#
# Compressibility (1/GPa) = 0.02009034
#
# Stress axis : x y z
#
# Youngs Moduli (GPa) = 85.60424 85.60149 39.09196
#
# Poissons Ratio (x) = 0.37430 0.19652
# Poissons Ratio (y) = 0.37431 0.19653
# Poissons Ratio (z) = 0.43034 0.43034
#
# Static dielectric constant tensor:
#      x y z
#    x 3.144500 0.000000 0.000000 
#    y 0.000000 3.144500 0.000000 
#    z 0.000000 0.000000 3.059860 
# 
# 
# High freq. dielectric constant tensor:
#      x y z
#    x 1.620270 0.000000 0.000000 
#    y 0.000000 1.620270 0.000000 
#    z 0.000000 0.000000 1.634040 
# 
# From -- ./inp_files/2562.got.cif
#   From: 2010.03.12/outbox.cif.g09.slc.cpg/sg131_2_cif.got.tgz:2562.got - 2010.04.06 17:36:35.
