data_PCOD8315617
_publ_section_title
;
Structure prediction by ZEFSAII (Michael W. Deem and Ramdas Pophale) SiO2 
 PCOD8315617
Probable space group: P 4/N C C
;
_chemical_formula_sum "Si O2"
_cell_formula_units_Z 56
_cell_length_a 13.536288
_cell_length_b 13.536288
_cell_length_c 11.860179
_cell_angle_alpha 90.000000
_cell_angle_beta 90.000000
_cell_angle_gamma 90.000000
_cell_volume 2173.153559
_symmetry_space_group_name_H-M "P 4/N C C"
_symmetry_group_IT_number 130
_symmetry_cell_setting 'tetragonal'
loop_
_space_group_symop_operation_xyz
x,y,z
1/2-y,x,z
1/2-x,1/2-y,z
y,1/2-x,z
1/2+x,-y,1/2-z
-x,1/2+y,1/2-z
1/2+y,1/2+x,1/2-z
-y,-x,1/2-z
-x,-y,-z
1/2+y,-x,-z
1/2+x,1/2+y,-z
-y,1/2+x,-z
1/2-x,y,1/2+z
x,1/2-y,1/2+z
1/2-y,1/2-x,1/2+z
y,x,1/2+z
loop_
_atom_site_type_symbol
_atom_site_label
_atom_site_fract_x
_atom_site_fract_y
_atom_site_fract_z
Si Si1 0.354554 0.802659 0.870282
Si Si2 0.890939 0.831611 0.144802
Si Si3 0.006566 0.506566 0.750000
Si Si4 0.134174 0.527522 0.050411
O O1 0.250000 0.750000 0.894660
O O2 0.355424 0.855424 0.750000
O O3 0.444612 0.726251 0.870775
O O4 0.379797 0.885698 0.960031
O O5 0.785534 0.883938 0.166645
O O6 0.971960 0.879240 0.231528
O O7 0.924497 0.848512 0.014516
O O8 0.960109 0.471130 0.868422
#
# Coordination Sequence:
#
# PCOD8315617 Si02
#       4
#    16  16   8  16
#     4  11  23  41  74 124 168 207 262 348 424 492
#     4  11  29  53  76 112 163 220 277 342 425 514
#     4  12  28  48  83 119 154 214 288 342 418 510
#     4  12  24  45  78 116 161 211 273 346 424 503
#
# _framework density 25.769002
#
# number of rings (size 3 to 8) (size 9 to 14) (size 15 to 20)
#    0.000    0.571    2.857    4.286    6.000    2.286 
#    0.000    2.857    0.000    0.000    0.000    0.000 
#    0.000    0.000    0.000    0.000    0.000    0.000 
#
# Total GULP energy -694145.215143 kJ/mol
# GULP energy per Si atom -12395.450270 kJ/mol
# Density = 2.571035 g / cm^3
# Si number density = 25.769002 Si / 1000 Ang^3
#
#
#
# Elastic Constant Matrix: (Units=GPa)
#
#
# Indices 1 2 3 4 5 6 
#
# 1 144.9844 79.8402 36.4100 0.0000 0.0000 0.0000
# 2 79.8402 144.9844 36.4100 0.0000 0.0000 0.0000
# 3 36.4100 36.4100 108.2107 0.0000 0.0000 0.0000
# 4 0.0000 0.0000 0.0000 33.8360 0.0000 0.0000
# 5 0.0000 0.0000 0.0000 0.0000 33.8360 0.0000
# 6 0.0000 0.0000 0.0000 0.0000 0.0000 43.7031
#
#
#
# Elastic Compliance Matrix: (Units=1/GPa)
#
#
# Indices 1 2 3 4 5 6 
#
# 1 0.010171 -0.005179 -0.001680 0.000000 0.000000 0.000000
# 2 -0.005179 0.010171 -0.001680 0.000000 0.000000 0.000000
# 3 -0.001680 -0.001680 0.010372 0.000000 0.000000 0.000000
# 4 0.000000 0.000000 0.000000 0.029554 0.000000 0.000000
# 5 0.000000 0.000000 0.000000 0.000000 0.029554 0.000000
# 6 0.000000 0.000000 0.000000 0.000000 0.000000 0.022882
#
#
# Mechanical properties :
#
#
# Convention : Reuss Voigt Hill
#
# Bulk Modulus (GPa) = 73.33089 78.16666 75.74877
# Shear Modulus (GPa) = 37.22255 38.64298 37.93276
#
# Velocity S-wave (km/s) = 3.80474 3.87666 3.84087
# Velocity P-wave (km/s) = 6.91522 7.10193 7.00919
#
# Compressibility (1/GPa) = 0.01363682
#
# Stress axis : x y z
#
# Youngs Moduli (GPa) = 98.31624 98.31624 96.41767
#
# Poissons Ratio (x) = 0.50921 0.16195
# Poissons Ratio (y) = 0.50921 0.16195
# Poissons Ratio (z) = 0.16514 0.16514
#
# Static dielectric constant tensor:
#      x y z
#    x 4.921440 0.000000 0.000000 
#    y 0.000000 4.921440 0.000000 
#    z 0.000000 0.000000 5.010400 
# 
# 
# High freq. dielectric constant tensor:
#      x y z
#    x 2.042490 0.000000 0.000000 
#    y 0.000000 2.042490 0.000000 
#    z 0.000000 0.000000 2.041560 
# 
# From -- ./inp_files/1434.got.cif
#   From: 2010.03.12/outbox.cif.g09.slc.cpg/sg130_1_cif.got.tgz:1434.got - 2010.04.06 17:30:23.
