data_PCOD8315869
_publ_section_title
;
Structure prediction by ZEFSAII (Michael W. Deem and Ramdas Pophale) SiO2 
 PCOD8315869
Probable space group: P 42/M M C
;
_chemical_formula_sum "Si O2"
_cell_formula_units_Z 112
_cell_length_a 14.195618
_cell_length_b 14.195618
_cell_length_c 32.472550
_cell_angle_alpha 90.000000
_cell_angle_beta 90.000000
_cell_angle_gamma 90.000000
_cell_volume 6543.724436
_symmetry_space_group_name_H-M "P 42/M M C"
_symmetry_group_IT_number 131
_symmetry_cell_setting 'tetragonal'
loop_
_space_group_symop_operation_xyz
x,y,z
-x,-y,z
-y,x,1/2+z
y,-x,1/2+z
-x,y,-z
x,-y,-z
y,x,1/2-z
-y,-x,1/2-z
-x,-y,-z
x,y,-z
y,-x,1/2-z
-y,x,1/2-z
x,-y,z
-x,y,z
-y,-x,1/2+z
y,x,1/2+z
loop_
_atom_site_type_symbol
_atom_site_label
_atom_site_fract_x
_atom_site_fract_y
_atom_site_fract_z
Si Si1 0.892920 0.397549 0.922857
Si Si2 0.264546 0.393138 0.858127
Si Si3 0.801108 0.897696 0.453482
Si Si4 0.389269 0.778172 0.882146
Si Si5 0.105117 0.388118 0.696904
Si Si6 0.751705 0.390367 0.764711
Si Si7 0.890071 0.708635 0.451452
O O1 0.870699 0.500000 0.944027
O O2 0.832104 0.384011 0.882339
O O3 0.872571 0.310538 0.953310
O O4 0.000000 0.395444 0.907730
O O5 0.305245 0.500000 0.859749
O O6 0.341545 0.324040 0.877987
O O7 0.234003 0.364515 0.812216
O O8 0.834058 0.907465 0.500000
O O9 0.862427 0.812983 0.434276
O O10 0.820022 0.000000 0.431573
O O11 0.500000 0.760999 0.880396
O O12 0.353467 0.843502 0.844671
O O13 0.365390 0.828738 0.925465
O O14 0.099501 0.500000 0.696869
O O15 0.161117 0.351728 0.737291
O O16 0.000000 0.344772 0.698001
O O17 0.654789 0.345212 0.750000
O O18 0.739690 0.500000 0.756799
O O19 0.865192 0.697553 0.500000
O O20 0.000000 0.690131 0.443599
#
# Coordination Sequence:
#
# PCOD8315869 Si02
#       7
#    16  16  16  16  16  16  16
#     4   9  17  30  49  73 100 129 161 198 244 302
#     4  10  20  33  51  76 105 135 168 206 252 303
#     4   9  17  30  50  76 103 129 159 200 252 307
#     4  11  21  35  54  74 101 136 175 218 258 302
#     4   9  18  32  50  73  99 130 169 211 255 298
#     4  10  19  31  48  72 101 130 162 203 246 294
#     4  10  21  36  54  77 102 130 169 215 263 312
#
# _framework density 17.115635000000001
#
# number of rings (size 3 to 8) (size 9 to 14) (size 15 to 20)
#    0.000    2.286    2.857    0.429    0.000    2.714 
#    0.000    7.857    0.000    0.429    0.000    1.000 
#    0.000    1.429    0.000    0.000    0.000    0.000 
#
# Total GULP energy -1388041.403621 kJ/mol
# GULP energy per Si atom -12393.226818 kJ/mol
# Density = 1.707668 g / cm^3
# Si number density = 17.115635 Si / 1000 Ang^3
#
#
#
# Elastic Constant Matrix: (Units=GPa)
#
#
# Indices 1 2 3 4 5 6 
#
# 1 74.1904 39.5614 32.8529 0.0000 0.0000 0.0000
# 2 39.5614 74.1875 32.8530 0.0000 0.0000 0.0000
# 3 32.8529 32.8530 71.5337 0.0000 0.0000 0.0000
# 4 0.0000 0.0000 0.0000 23.9893 0.0000 0.0000
# 5 0.0000 0.0000 0.0000 0.0000 23.9897 0.0000
# 6 0.0000 0.0000 0.0000 0.0000 0.0000 19.5501
#
#
#
# Elastic Compliance Matrix: (Units=1/GPa)
#
#
# Indices 1 2 3 4 5 6 
#
# 1 0.020422 -0.008457 -0.005495 0.000000 0.000000 0.000000
# 2 -0.008457 0.020423 -0.005496 0.000000 0.000000 0.000000
# 3 -0.005495 -0.005496 0.019027 0.000000 0.000000 0.000000
# 4 0.000000 0.000000 0.000000 0.041685 0.000000 0.000000
# 5 0.000000 0.000000 0.000000 0.000000 0.041685 0.000000
# 6 0.000000 0.000000 0.000000 0.000000 0.000000 0.051151
#
#
# Mechanical properties :
#
#
# Convention : Reuss Voigt Hill
#
# Bulk Modulus (GPa) = 47.67197 47.82733 47.74965
# Shear Modulus (GPa) = 20.80918 21.14876 20.97897
#
# Velocity S-wave (km/s) = 3.49061 3.51898 3.50483
# Velocity P-wave (km/s) = 6.64524 6.67198 6.65862
#
# Compressibility (1/GPa) = 0.02097669
#
# Stress axis : x y z
#
# Youngs Moduli (GPa) = 48.96779 48.96532 52.55671
#
# Poissons Ratio (x) = 0.41408 0.28880
# Poissons Ratio (y) = 0.41410 0.28883
# Poissons Ratio (z) = 0.26908 0.26909
#
# Static dielectric constant tensor:
#      x y z
#    x 3.299170 0.000000 0.000000 
#    y 0.000000 3.299170 0.000000 
#    z 0.000000 0.000000 3.174900 
# 
# 
# High freq. dielectric constant tensor:
#      x y z
#    x 1.655470 0.000000 0.000000 
#    y 0.000000 1.655470 0.000000 
#    z 0.000000 0.000000 1.649760 
# 
# From -- ./inp_files/12492.got.cif
#   From: 2010.03.12/outbox.cif.g09.slc.cpg/sg131_7_cif.got.tgz:12492.got - 2010.04.06 17:36:35.
