data_PCOD8315390
_publ_section_title
;
Structure prediction by ZEFSAII (Michael W. Deem and Ramdas Pophale) SiO2 
 PCOD8315390
Probable space group: P 4/N M M
;
_chemical_formula_sum "Si O2"
_cell_formula_units_Z 72
_cell_length_a 13.576983
_cell_length_b 13.576983
_cell_length_c 23.410586
_cell_angle_alpha 90.000000
_cell_angle_beta 90.000000
_cell_angle_gamma 90.000000
_cell_volume 4315.377901
_symmetry_space_group_name_H-M "P 4/N M M"
_symmetry_group_IT_number 129
_symmetry_cell_setting 'tetragonal'
loop_
_space_group_symop_operation_xyz
x,y,z
1/2-y,x,z
1/2-x,1/2-y,z
y,1/2-x,z
1/2+x,-y,-z
-x,1/2+y,-z
1/2+y,1/2+x,-z
-y,-x,-z
-x,-y,-z
1/2+y,-x,-z
1/2+x,1/2+y,-z
-y,1/2+x,-z
1/2-x,y,z
x,1/2-y,z
1/2-y,1/2-x,z
y,x,z
loop_
_atom_site_type_symbol
_atom_site_label
_atom_site_fract_x
_atom_site_fract_y
_atom_site_fract_z
Si Si1 0.636225 0.137314 0.782140
Si Si2 0.136865 0.363135 0.933659
Si Si3 0.637458 0.022005 0.543479
Si Si4 0.863127 0.636874 0.933830
Si Si5 0.861373 0.478937 0.672233
Si Si6 0.500096 0.500096 0.858452
O O1 0.750000 0.121994 0.799863
O O2 0.603852 0.250000 0.790970
O O3 0.620140 0.110958 0.715515
O O4 0.568982 0.068144 0.820335
O O5 0.112977 0.250000 0.918798
O O6 0.067625 0.432376 0.897212
O O7 0.116179 0.383822 0.999910
O O8 0.608545 0.108545 0.500000
O O9 0.750000 0.993536 0.533780
O O10 0.617353 0.059432 0.608091
O O11 0.575984 0.924017 0.529832
O O12 0.886983 0.750000 0.918954
O O13 0.932369 0.567632 0.897412
O O14 0.750000 0.518486 0.677297
O O15 0.929905 0.570096 0.689174
#
# Coordination Sequence:
#
# PCOD8315390 Si02
#       6
#    16   8  16   8  16   8
#     4  10  21  34  48  71 102 133 164 201 245 291
#     4   9  19  35  53  75 101 128 164 206 245 286
#     4   9  18  31  49  73  99 126 165 208 248 293
#     4   9  19  35  53  75 103 130 158 200 251 296
#     4   9  17  32  50  71  98 129 161 200 250 301
#     4  12  19  32  54  76  97 132 170 202 236 290
#
# _framework density 16.684518000000001
#
# number of rings (size 3 to 8) (size 9 to 14) (size 15 to 20)
#    0.000    2.444    1.111    2.333    0.000    1.556 
#    0.000    4.444    0.000    0.000    0.000    9.333 
#    0.000    0.000    0.000    0.000    0.000    0.000 
#
# Total GULP energy -892732.433608 kJ/mol
# GULP energy per Si atom -12399.061578 kJ/mol
# Density = 1.664654 g / cm^3
# Si number density = 16.684518 Si / 1000 Ang^3
#
#
#
# Elastic Constant Matrix: (Units=GPa)
#
#
# Indices 1 2 3 4 5 6 
#
# 1 103.9803 70.1480 69.0193 0.0000 0.0000 0.0000
# 2 70.1480 103.9803 69.0193 0.0000 0.0000 0.0000
# 3 69.0193 69.0193 101.0580 0.0000 0.0000 0.0000
# 4 0.0000 0.0000 0.0000 39.5310 0.0000 0.0000
# 5 0.0000 0.0000 0.0000 0.0000 39.5310 0.0000
# 6 0.0000 0.0000 0.0000 0.0000 0.0000 29.0283
#
#
#
# Elastic Compliance Matrix: (Units=1/GPa)
#
#
# Indices 1 2 3 4 5 6 
#
# 1 0.021040 -0.008517 -0.008553 0.000000 0.000000 0.000000
# 2 -0.008517 0.021040 -0.008553 0.000000 0.000000 0.000000
# 3 -0.008553 -0.008553 0.021578 0.000000 0.000000 0.000000
# 4 0.000000 0.000000 0.000000 0.025297 0.000000 0.000000
# 5 0.000000 0.000000 0.000000 0.000000 0.025297 0.000000
# 6 0.000000 0.000000 0.000000 0.000000 0.000000 0.034449
#
#
# Mechanical properties :
#
#
# Convention : Reuss Voigt Hill
#
# Bulk Modulus (GPa) = 80.56271 80.59911 80.58091
# Shear Modulus (GPa) = 24.49965 28.34018 26.41992
#
# Velocity S-wave (km/s) = 3.83614 4.12587 3.98364
# Velocity P-wave (km/s) = 8.24694 8.43265 8.34031
#
# Compressibility (1/GPa) = 0.01241269
#
# Stress axis : x y z
#
# Youngs Moduli (GPa) = 47.52780 47.52780 46.34349
#
# Poissons Ratio (x) = 0.40480 0.39637
# Poissons Ratio (y) = 0.40480 0.39637
# Poissons Ratio (z) = 0.40650 0.40650
#
# Static dielectric constant tensor:
#      x y z
#    x 3.106100 0.000000 0.000000 
#    y 0.000000 3.106100 0.000000 
#    z 0.000000 0.000000 3.232360 
# 
# 
# High freq. dielectric constant tensor:
#      x y z
#    x 1.640930 0.000000 0.000000 
#    y 0.000000 1.640930 0.000000 
#    z 0.000000 0.000000 1.650210 
# 
# From -- ./inp_files/5541.got.cif
#   From: 2010.03.12/outbox.cif.g09.slc.cpg/sg129_3_cif.got.tgz:5541.got - 2010.04.06 17:19:44.
