data_PCOD8315876
_publ_section_title
;
Structure prediction by ZEFSAII (Michael W. Deem and Ramdas Pophale) SiO2 
 PCOD8315876
Probable space group: P 42/M M C
;
_chemical_formula_sum "Si O2"
_cell_formula_units_Z 96
_cell_length_a 14.288391
_cell_length_b 14.288391
_cell_length_c 25.335950
_cell_angle_alpha 90.000000
_cell_angle_beta 90.000000
_cell_angle_gamma 90.000000
_cell_volume 5172.539854
_symmetry_space_group_name_H-M "P 42/M M C"
_symmetry_group_IT_number 131
_symmetry_cell_setting 'tetragonal'
loop_
_space_group_symop_operation_xyz
x,y,z
-x,-y,z
-y,x,1/2+z
y,-x,1/2+z
-x,y,-z
x,-y,-z
y,x,1/2-z
-y,-x,1/2-z
-x,-y,-z
x,y,-z
y,-x,1/2-z
-y,x,1/2-z
x,-y,z
-x,y,z
-y,-x,1/2+z
y,x,1/2+z
loop_
_atom_site_type_symbol
_atom_site_label
_atom_site_fract_x
_atom_site_fract_y
_atom_site_fract_z
Si Si1 0.890257 0.397417 0.161548
Si Si2 0.395956 0.215198 0.441471
Si Si3 0.606427 0.108631 0.849107
Si Si4 0.110771 0.262414 0.251763
Si Si5 0.204402 0.709708 0.439599
Si Si6 0.105193 0.102811 0.562485
O O1 0.850430 0.500000 0.177366
O O2 0.864926 0.375118 0.101106
O O3 0.850619 0.320110 0.201420
O O4 0.000000 0.398380 0.167363
O O5 0.386522 0.169519 0.500000
O O6 0.500000 0.259165 0.434059
O O7 0.317402 0.295558 0.435424
O O8 0.500000 0.131982 0.831938
O O9 0.677138 0.138723 0.802971
O O10 0.629124 0.163274 0.902948
O O11 0.617699 0.000000 0.861797
O O12 0.163031 0.163031 0.250000
O O13 0.000000 0.242919 0.249622
O O14 0.170927 0.693005 0.500000
O O15 0.171192 0.812449 0.418454
O O16 0.104735 0.099033 0.500000
O O17 0.000000 0.122323 0.583499
O O18 0.139230 0.000000 0.583921
#
# Coordination Sequence:
#
# PCOD8315876 Si02
#       6
#    16  16  16  16  16  16
#     4   9  17  30  49  71  95 127 167 207 248 295
#     4   9  18  31  47  71 102 132 164 206 254 302
#     4  10  21  36  54  78 106 133 167 215 264 304
#     4  10  20  35  55  77 103 135 169 204 244 294
#     4  10  19  31  49  72 101 139 179 215 255 306
#     4   8  14  25  41  62  90 126 168 210 249 292
#
# _framework density 18.559547999999999
#
# number of rings (size 3 to 8) (size 9 to 14) (size 15 to 20)
#    0.000    2.667    0.000    2.500    0.000    4.500 
#    0.000    5.000    0.000    1.500    0.000    2.333 
#    0.000    4.333    0.000    0.000    0.000    0.000 
#
# Total GULP energy -1189721.838272 kJ/mol
# GULP energy per Si atom -12392.935815 kJ/mol
# Density = 1.851731 g / cm^3
# Si number density = 18.559548 Si / 1000 Ang^3
#
#
#
# Elastic Constant Matrix: (Units=GPa)
#
#
# Indices 1 2 3 4 5 6 
#
# 1 81.0119 43.9122 41.7954 0.0000 0.0000 0.0000
# 2 43.9122 81.0119 41.7954 0.0000 0.0000 0.0000
# 3 41.7954 41.7954 102.7392 0.0000 0.0000 0.0000
# 4 0.0000 0.0000 0.0000 26.1831 0.0000 0.0000
# 5 0.0000 0.0000 0.0000 0.0000 26.1831 0.0000
# 6 0.0000 0.0000 0.0000 0.0000 0.0000 18.5563
#
#
#
# Elastic Compliance Matrix: (Units=1/GPa)
#
#
# Indices 1 2 3 4 5 6 
#
# 1 0.018977 -0.007978 -0.004474 0.000000 0.000000 0.000000
# 2 -0.007978 0.018977 -0.004474 0.000000 0.000000 0.000000
# 3 -0.004474 -0.004474 0.013374 0.000000 0.000000 0.000000
# 4 0.000000 0.000000 0.000000 0.038193 0.000000 0.000000
# 5 0.000000 0.000000 0.000000 0.000000 0.038193 0.000000
# 6 0.000000 0.000000 0.000000 0.000000 0.000000 0.053890
#
#
# Mechanical properties :
#
#
# Convention : Reuss Voigt Hill
#
# Bulk Modulus (GPa) = 57.22855 57.75213 57.49034
# Shear Modulus (GPa) = 22.59577 23.33515 22.96546
#
# Velocity S-wave (km/s) = 3.49302 3.54971 3.52148
# Velocity P-wave (km/s) = 6.86806 6.92714 6.89767
#
# Compressibility (1/GPa) = 0.01747380
#
# Stress axis : x y z
#
# Youngs Moduli (GPa) = 52.69642 52.69642 74.77251
#
# Poissons Ratio (x) = 0.42040 0.33457
# Poissons Ratio (y) = 0.42040 0.33457
# Poissons Ratio (z) = 0.23579 0.23579
#
# Static dielectric constant tensor:
#      x y z
#    x 3.388380 0.000000 0.000000 
#    y 0.000000 3.388380 0.000000 
#    z 0.000000 0.000000 3.460910 
# 
# 
# High freq. dielectric constant tensor:
#      x y z
#    x 1.700830 0.000000 0.000000 
#    y 0.000000 1.700830 0.000000 
#    z 0.000000 0.000000 1.718980 
# 
# From -- ./inp_files/9700.got.cif
#   From: 2010.03.12/outbox.cif.g09.slc.cpg/sg131_5_cif.got.tgz:9700.got - 2010.04.06 17:36:35.
