data_PCOD8315275
_publ_section_title
;
Structure prediction by ZEFSAII (Michael W. Deem and Ramdas Pophale) SiO2 
 PCOD8315275
Probable space group: P 4/N M M
;
_chemical_formula_sum "Si O2"
_cell_formula_units_Z 112
_cell_length_a 14.049390
_cell_length_b 14.049390
_cell_length_c 35.160047
_cell_angle_alpha 90.000000
_cell_angle_beta 90.000000
_cell_angle_gamma 90.000000
_cell_volume 6940.078513
_symmetry_space_group_name_H-M "P 4/N M M"
_symmetry_group_IT_number 129
_symmetry_cell_setting 'tetragonal'
loop_
_space_group_symop_operation_xyz
x,y,z
1/2-y,x,z
1/2-x,1/2-y,z
y,1/2-x,z
1/2+x,-y,-z
-x,1/2+y,-z
1/2+y,1/2+x,-z
-y,-x,-z
-x,-y,-z
1/2+y,-x,-z
1/2+x,1/2+y,-z
-y,1/2+x,-z
1/2-x,y,z
x,1/2-y,z
1/2-y,1/2-x,z
y,x,z
loop_
_atom_site_type_symbol
_atom_site_label
_atom_site_fract_x
_atom_site_fract_y
_atom_site_fract_z
Si Si1 0.487428 0.858871 0.192013
Si Si2 0.640461 0.489077 0.107252
Si Si3 0.013561 0.859773 0.388104
Si Si4 0.357847 0.860540 0.738377
Si Si5 0.512007 0.141685 0.523240
Si Si6 0.480990 0.862988 0.665736
Si Si7 0.363596 0.644733 0.958449
O O1 0.516672 0.750000 0.197786
O O2 0.582863 0.917138 0.198932
O O3 0.445219 0.875243 0.149505
O O4 0.409530 0.891102 0.222629
O O5 0.750000 0.507897 0.098449
O O6 0.590724 0.590724 0.104131
O O7 0.595590 0.419076 0.075754
O O8 0.002516 0.750000 0.374971
O O9 0.036904 0.866138 0.432503
O O10 0.102270 0.910141 0.367424
O O11 0.915204 0.915204 0.378364
O O12 0.250000 0.890146 0.726845
O O13 0.363407 0.750000 0.746713
O O14 0.429925 0.889832 0.705181
O O15 0.601518 0.101518 0.500000
O O16 0.493331 0.250000 0.510927
O O17 0.416920 0.083081 0.513004
O O18 0.498929 0.750000 0.661422
O O19 0.582064 0.917937 0.663614
O O20 0.250000 0.648948 0.957240
O O21 0.405842 0.750000 0.952218
O O22 0.395237 0.604764 0.000000
#
# Coordination Sequence:
#
# PCOD8315275 Si02
#       7
#    16  16  16  16  16  16  16
#     4   9  17  28  41  58  82 110 138 168 200 238
#     4   9  17  27  39  57  80 107 137 165 196 237
#     4   9  18  32  50  72  96 122 152 187 228 272
#     4   9  17  29  46  67  87 108 137 173 215 260
#     4   9  18  32  49  70  96 124 155 191 229 270
#     4  10  20  33  49  68  91 120 152 186 223 262
#     4   8  14  25  40  57  77 100 127 163 206 246
#
# _framework density 16.138145999999999
#
# number of rings (size 3 to 8) (size 9 to 14) (size 15 to 20)
#    0.000    3.000    0.000    1.286    0.000    3.143 
#    0.000    7.143    0.000    0.000    0.000    6.000 
#    0.000    0.286    0.000    3.143    0.000    5.429 
#
# Total GULP energy -1388354.882478 kJ/mol
# GULP energy per Si atom -12396.025736 kJ/mol
# Density = 1.610142 g / cm^3
# Si number density = 16.138146 Si / 1000 Ang^3
#
#
#
# Elastic Constant Matrix: (Units=GPa)
#
#
# Indices 1 2 3 4 5 6 
#
# 1 85.6845 47.2927 51.3173 0.0000 0.0000 0.0000
# 2 47.2927 85.6846 51.3173 0.0000 0.0000 0.0000
# 3 51.3173 51.3173 85.1088 0.0000 0.0000 0.0000
# 4 0.0000 0.0000 0.0000 24.3978 0.0000 0.0000
# 5 0.0000 0.0000 0.0000 0.0000 24.3977 0.0000
# 6 0.0000 0.0000 0.0000 0.0000 0.0000 17.5693
#
#
#
# Elastic Compliance Matrix: (Units=1/GPa)
#
#
# Indices 1 2 3 4 5 6 
#
# 1 0.020057 -0.005990 -0.008481 0.000000 0.000000 0.000000
# 2 -0.005990 0.020057 -0.008481 0.000000 0.000000 0.000000
# 3 -0.008481 -0.008481 0.021978 0.000000 0.000000 0.000000
# 4 0.000000 0.000000 0.000000 0.040987 0.000000 0.000000
# 5 0.000000 0.000000 0.000000 0.000000 0.040987 0.000000
# 6 0.000000 0.000000 0.000000 0.000000 0.000000 0.056917
#
#
# Mechanical properties :
#
#
# Convention : Reuss Voigt Hill
#
# Bulk Modulus (GPa) = 61.78772 61.81471 61.80121
# Shear Modulus (GPa) = 19.81888 20.37631 20.09760
#
# Velocity S-wave (km/s) = 3.50819 3.55719 3.53278
# Velocity P-wave (km/s) = 7.40134 7.43358 7.41747
#
# Compressibility (1/GPa) = 0.01618445
#
# Stress axis : x y z
#
# Youngs Moduli (GPa) = 49.85860 49.85870 45.50094
#
# Poissons Ratio (x) = 0.29868 0.38591
# Poissons Ratio (y) = 0.29868 0.38591
# Poissons Ratio (z) = 0.42287 0.42287
#
# Static dielectric constant tensor:
#      x y z
#    x 2.976890 0.000000 0.000000 
#    y 0.000000 2.976890 0.000000 
#    z 0.000000 0.000000 3.289940 
# 
# 
# High freq. dielectric constant tensor:
#      x y z
#    x 1.605780 0.000000 0.000000 
#    y 0.000000 1.605780 0.000000 
#    z 0.000000 0.000000 1.632070 
# 
# From -- ./inp_files/7932.got.cif
#   From: 2010.03.12/outbox.cif.g09.slc.cpg/sg129_4_cif.got.tgz:7932.got - 2010.04.06 17:19:44.
