data_PCOD8315329
_publ_section_title
;
Structure prediction by ZEFSAII (Michael W. Deem and Ramdas Pophale) SiO2 
 PCOD8315329
Probable space group: P 4/N M M
;
_chemical_formula_sum "Si O2"
_cell_formula_units_Z 112
_cell_length_a 17.041062
_cell_length_b 17.041062
_cell_length_c 22.535028
_cell_angle_alpha 90.000000
_cell_angle_beta 90.000000
_cell_angle_gamma 90.000000
_cell_volume 6544.122421
_symmetry_space_group_name_H-M "P 4/N M M"
_symmetry_group_IT_number 129
_symmetry_cell_setting 'tetragonal'
loop_
_space_group_symop_operation_xyz
x,y,z
1/2-y,x,z
1/2-x,1/2-y,z
y,1/2-x,z
1/2+x,-y,-z
-x,1/2+y,-z
1/2+y,1/2+x,-z
-y,-x,-z
-x,-y,-z
1/2+y,-x,-z
1/2+x,1/2+y,-z
-y,1/2+x,-z
1/2-x,y,z
x,1/2-y,z
1/2-y,1/2-x,z
y,x,z
loop_
_atom_site_type_symbol
_atom_site_label
_atom_site_fract_x
_atom_site_fract_y
_atom_site_fract_z
Si Si1 0.526763 0.840601 0.250188
Si Si2 0.035166 0.338522 0.532650
Si Si3 0.543157 0.087853 0.636069
Si Si4 0.958945 0.084777 0.858873
Si Si5 0.840389 0.532005 0.604004
Si Si6 0.338701 0.541251 0.980006
Si Si7 0.339755 0.033177 0.102783
O O1 0.554367 0.750000 0.251671
O O2 0.604599 0.895402 0.247620
O O3 0.472823 0.858396 0.307050
O O4 0.468305 0.852754 0.194063
O O5 0.061309 0.250000 0.543788
O O6 0.110869 0.389132 0.549812
O O7 0.009681 0.351873 0.464950
O O8 0.963048 0.360316 0.576157
O O9 0.480727 0.019274 0.631812
O O10 0.627618 0.044175 0.639836
O O11 0.990619 0.121639 0.920124
O O12 0.871767 0.047174 0.866224
O O13 0.012425 0.012425 0.840982
O O14 0.750000 0.546906 0.621163
O O15 0.888692 0.611309 0.619465
O O16 0.250000 0.562625 0.965534
O O17 0.378156 0.621845 0.000000
O O18 0.346196 0.476084 0.031468
O O19 0.250000 0.045762 0.123110
O O20 0.390567 0.109434 0.121068
#
# Coordination Sequence:
#
# PCOD8315329 Si02
#       7
#    16  16  16  16  16  16  16
#     4  10  20  33  51  73  96 124 154 185 220 257
#     4   9  16  26  43  67  94 123 153 188 229 271
#     4   9  17  30  46  65  91 124 160 189 217 264
#     4   9  17  30  47  66  89 121 159 190 219 265
#     4   9  17  29  47  70  93 118 149 188 234 279
#     4   9  16  26  42  64  90 119 150 186 226 269
#     4   9  17  29  46  68  92 118 150 190 235 279
#
# _framework density 17.114594
#
# number of rings (size 3 to 8) (size 9 to 14) (size 15 to 20)
#    0.000    2.857    0.000    1.714    0.000    4.143 
#    0.000    2.143    0.000    6.429    0.000    6.000 
#    0.000    5.714    0.000    0.000    0.000    0.000 
#
# Total GULP energy -1388014.629101 kJ/mol
# GULP energy per Si atom -12392.987760 kJ/mol
# Density = 1.707564 g / cm^3
# Si number density = 17.114594 Si / 1000 Ang^3
#
#
#
# Elastic Constant Matrix: (Units=GPa)
#
#
# Indices 1 2 3 4 5 6 
#
# 1 90.5027 49.9081 32.8446 0.0000 0.0000 0.0000
# 2 49.9081 90.5031 32.8441 0.0000 0.0000 0.0000
# 3 32.8446 32.8441 59.2031 0.0000 0.0000 0.0000
# 4 0.0000 0.0000 0.0000 19.8929 0.0000 0.0000
# 5 0.0000 0.0000 0.0000 0.0000 19.8930 0.0000
# 6 0.0000 0.0000 0.0000 0.0000 0.0000 18.8074
#
#
#
# Elastic Compliance Matrix: (Units=1/GPa)
#
#
# Indices 1 2 3 4 5 6 
#
# 1 0.017126 -0.007508 -0.005336 0.000000 0.000000 0.000000
# 2 -0.007508 0.017126 -0.005336 0.000000 0.000000 0.000000
# 3 -0.005336 -0.005336 0.022812 0.000000 0.000000 0.000000
# 4 0.000000 0.000000 0.000000 0.050269 0.000000 0.000000
# 5 0.000000 0.000000 0.000000 0.000000 0.050269 0.000000
# 6 0.000000 0.000000 0.000000 0.000000 0.000000 0.053171
#
#
# Mechanical properties :
#
#
# Convention : Reuss Voigt Hill
#
# Bulk Modulus (GPa) = 48.29939 52.37805 50.33872
# Shear Modulus (GPa) = 19.68247 20.02612 19.85429
#
# Velocity S-wave (km/s) = 3.39490 3.42441 3.40969
# Velocity P-wave (km/s) = 6.60678 6.80487 6.70656
#
# Compressibility (1/GPa) = 0.02070420
#
# Stress axis : x y z
#
# Youngs Moduli (GPa) = 58.39041 58.39110 43.83751
#
# Poissons Ratio (x) = 0.43838 0.23392
# Poissons Ratio (y) = 0.43838 0.23391
# Poissons Ratio (z) = 0.31158 0.31156
#
# Static dielectric constant tensor:
#      x y z
#    x 3.137340 0.000000 0.000000 
#    y 0.000000 3.137340 0.000000 
#    z 0.000000 0.000000 3.300290 
# 
# 
# High freq. dielectric constant tensor:
#      x y z
#    x 1.645670 0.000000 0.000000 
#    y 0.000000 1.645670 0.000000 
#    z 0.000000 0.000000 1.652550 
# 
# From -- ./inp_files/6714.got.cif
#   From: 2010.03.12/outbox.cif.g09.slc.cpg/sg129_4_cif.got.tgz:6714.got - 2010.04.06 17:19:44.
