data_PCOD8315494
_publ_section_title
;
Structure prediction by ZEFSAII (Michael W. Deem and Ramdas Pophale) SiO2 
 PCOD8315494
Probable space group: P 4/N C C
;
_chemical_formula_sum "Si O2"
_cell_formula_units_Z 96
_cell_length_a 23.753088
_cell_length_b 23.753088
_cell_length_c 8.922059
_cell_angle_alpha 90.000000
_cell_angle_beta 90.000000
_cell_angle_gamma 90.000000
_cell_volume 5033.907677
_symmetry_space_group_name_H-M "P 4/N C C"
_symmetry_group_IT_number 130
_symmetry_cell_setting 'tetragonal'
loop_
_space_group_symop_operation_xyz
x,y,z
1/2-y,x,z
1/2-x,1/2-y,z
y,1/2-x,z
1/2+x,-y,1/2-z
-x,1/2+y,1/2-z
1/2+y,1/2+x,1/2-z
-y,-x,1/2-z
-x,-y,-z
1/2+y,-x,-z
1/2+x,1/2+y,-z
-y,1/2+x,-z
1/2-x,y,1/2+z
x,1/2-y,1/2+z
1/2-y,1/2-x,1/2+z
y,x,1/2+z
loop_
_atom_site_type_symbol
_atom_site_label
_atom_site_fract_x
_atom_site_fract_y
_atom_site_fract_z
Si Si1 0.398945 0.192376 0.525434
Si Si2 0.699884 0.369419 0.361979
Si Si3 0.315847 0.504007 0.025517
Si Si4 0.876668 0.332253 0.109581
Si Si5 0.698498 0.007160 0.816463
Si Si6 0.894758 0.816257 0.333842
O O1 0.459766 0.167805 0.580559
O O2 0.393468 0.188845 0.346052
O O3 0.349879 0.158742 0.607987
O O4 0.393838 0.255828 0.585240
O O5 0.677159 0.322842 0.250000
O O6 0.766784 0.371621 0.349830
O O7 0.679431 0.349338 0.522243
O O8 0.671572 0.430741 0.328893
O O9 0.347737 0.564275 0.027100
O O10 0.261644 0.513889 0.127314
O O11 0.348105 0.451772 0.106586
O O12 0.301353 0.486603 0.855728
O O13 0.873561 0.373561 0.250000
#
# Coordination Sequence:
#
# PCOD8315494 Si02
#       6
#    16  16  16  16  16  16
#     4  11  22  38  62  91 121 155 187 234 276 338
#     4  11  22  38  53  83 112 154 190 244 292 351
#     4  10  20  36  56  82 109 153 195 238 276 341
#     4  11  24  34  57  79 116 150 196 237 299 347
#     4  10  20  35  58  79 113 149 199 233 282 333
#     4  11  22  38  62  90 123 151 193 227 284 329
#
# _framework density 19.070671000000001
#
# number of rings (size 3 to 8) (size 9 to 14) (size 15 to 20)
#    0.000    1.333    1.667    7.000    9.333    2.333 
#    0.000    1.667    0.000    2.000    0.000    0.000 
#    0.000    0.000    0.000    0.000    0.000    0.000 
#
# Total GULP energy -1189384.026848 kJ/mol
# GULP energy per Si atom -12389.416946 kJ/mol
# Density = 1.902727 g / cm^3
# Si number density = 19.070671 Si / 1000 Ang^3
#
#
#
# Elastic Constant Matrix: (Units=GPa)
#
#
# Indices 1 2 3 4 5 6 
#
# 1 78.5323 34.4272 34.5754 0.0000 0.0000 0.0000
# 2 34.4272 78.5322 34.5748 0.0000 0.0000 0.0000
# 3 34.5754 34.5748 162.1406 0.0000 0.0000 0.0000
# 4 0.0000 0.0000 0.0000 29.0295 0.0000 0.0000
# 5 0.0000 0.0000 0.0000 0.0000 29.0279 0.0000
# 6 0.0000 0.0000 0.0000 0.0000 0.0000 4.3642
#
#
#
# Elastic Compliance Matrix: (Units=1/GPa)
#
#
# Indices 1 2 3 4 5 6 
#
# 1 0.016428 -0.006246 -0.002171 0.000000 0.000000 0.000000
# 2 -0.006246 0.016427 -0.002171 0.000000 0.000000 0.000000
# 3 -0.002171 -0.002171 0.007093 0.000000 0.000000 0.000000
# 4 0.000000 0.000000 0.000000 0.034448 0.000000 0.000000
# 5 0.000000 0.000000 0.000000 0.000000 0.034450 0.000000
# 6 0.000000 0.000000 0.000000 0.000000 0.000000 0.229134
#
#
# Mechanical properties :
#
#
# Convention : Reuss Voigt Hill
#
# Bulk Modulus (GPa) = 53.26966 58.48446 55.87706
# Shear Modulus (GPa) = 13.68312 26.85952 20.27132
#
# Velocity S-wave (km/s) = 2.68152 3.75696 3.26384
# Velocity P-wave (km/s) = 6.13032 7.03942 6.60054
#
# Compressibility (1/GPa) = 0.01877241
#
# Stress axis : x y z
#
# Youngs Moduli (GPa) = 60.87343 60.87360 140.97482
#
# Poissons Ratio (x) = 0.38019 0.30609
# Poissons Ratio (y) = 0.38019 0.30608
# Poissons Ratio (z) = 0.13217 0.13217
#
# Static dielectric constant tensor:
#      x y z
#    x 3.805360 0.000000 0.000000 
#    y 0.000000 3.805360 0.000000 
#    z 0.000000 0.000000 3.485030 
# 
# 
# High freq. dielectric constant tensor:
#      x y z
#    x 1.725090 0.000000 0.000000 
#    y 0.000000 1.725090 0.000000 
#    z 0.000000 0.000000 1.765470 
# 
# From -- ./inp_files/919.got.cif
#   From: 2010.03.12/outbox.cif.g09.slc.cpg/sg130_1_cif.got.tgz:919.got - 2010.04.06 17:30:23.
