data_PCOD8315234
_publ_section_title
;
Structure prediction by ZEFSAII (Michael W. Deem and Ramdas Pophale) SiO2 
 PCOD8315234
Probable space group: P 4/N M M
;
_chemical_formula_sum "Si O2"
_cell_formula_units_Z 112
_cell_length_a 13.866809
_cell_length_b 13.866809
_cell_length_c 36.071830
_cell_angle_alpha 90.000000
_cell_angle_beta 90.000000
_cell_angle_gamma 90.000000
_cell_volume 6936.194182
_symmetry_space_group_name_H-M "P 4/N M M"
_symmetry_group_IT_number 129
_symmetry_cell_setting 'tetragonal'
loop_
_space_group_symop_operation_xyz
x,y,z
1/2-y,x,z
1/2-x,1/2-y,z
y,1/2-x,z
1/2+x,-y,-z
-x,1/2+y,-z
1/2+y,1/2+x,-z
-y,-x,-z
-x,-y,-z
1/2+y,-x,-z
1/2+x,1/2+y,-z
-y,1/2+x,-z
1/2-x,y,z
x,1/2-y,z
1/2-y,1/2-x,z
y,x,z
loop_
_atom_site_type_symbol
_atom_site_label
_atom_site_fract_x
_atom_site_fract_y
_atom_site_fract_z
Si Si1 0.515867 0.360474 0.671240
Si Si2 0.022191 0.635396 0.530148
Si Si3 0.135139 0.978204 0.029935
Si Si4 0.143754 0.864466 0.181194
Si Si5 0.358654 0.862418 0.601974
Si Si6 0.364390 0.856899 0.100199
Si Si7 0.013895 0.860981 0.246554
O O1 0.487545 0.250000 0.665648
O O2 0.417812 0.417812 0.665504
O O3 0.592021 0.394565 0.640516
O O4 0.560310 0.377094 0.712504
O O5 0.099135 0.599135 0.500000
O O6 0.005003 0.750000 0.525537
O O7 0.067709 0.608359 0.569747
O O8 0.920105 0.579896 0.525822
O O9 0.250000 0.994685 0.026133
O O10 0.104830 0.934977 0.069746
O O11 0.100005 0.899996 0.000000
O O12 0.080320 0.080320 0.024587
O O13 0.250000 0.910409 0.184778
O O14 0.150771 0.750000 0.184839
O O15 0.097770 0.890434 0.140871
O O16 0.081783 0.907565 0.215021
O O17 0.250000 0.896638 0.591503
O O18 0.359856 0.750000 0.608731
O O19 0.250000 0.849044 0.102422
O O20 0.405549 0.750000 0.090128
O O21 0.995341 0.750000 0.237976
O O22 0.910159 0.910159 0.244638
#
# Coordination Sequence:
#
# PCOD8315234 Si02
#       7
#    16  16  16  16  16  16  16
#     4   9  17  28  41  58  82 111 143 178 213 252
#     4  10  20  33  50  71  94 121 151 183 220 261
#     4  10  20  32  47  68  91 116 147 180 216 259
#     4   8  14  25  41  61  84 108 136 174 217 255
#     4   9  17  29  46  67  88 111 141 177 218 263
#     4   8  14  26  44  64  85 109 138 174 214 254
#     4   9  17  27  39  57  81 111 144 175 210 252
#
# _framework density 16.147183999999999
#
# number of rings (size 3 to 8) (size 9 to 14) (size 15 to 20)
#    0.000    3.000    0.000    2.143    0.000    3.143 
#    0.000    4.286    0.000    0.000    0.000    2.000 
#    0.000    3.714    0.000    3.143    0.000    5.429 
#
# Total GULP energy -1387990.080092 kJ/mol
# GULP energy per Si atom -12392.768572 kJ/mol
# Density = 1.611043 g / cm^3
# Si number density = 16.147184 Si / 1000 Ang^3
#
#
#
# Elastic Constant Matrix: (Units=GPa)
#
#
# Indices 1 2 3 4 5 6 
#
# 1 63.3050 35.7422 46.9298 0.0000 0.0000 0.0000
# 2 35.7422 63.3056 46.9299 0.0000 0.0000 0.0000
# 3 46.9298 46.9299 129.1433 0.0000 0.0000 0.0000
# 4 0.0000 0.0000 0.0000 21.8025 0.0000 0.0000
# 5 0.0000 0.0000 0.0000 0.0000 21.8025 0.0000
# 6 0.0000 0.0000 0.0000 0.0000 0.0000 16.8013
#
#
#
# Elastic Compliance Matrix: (Units=1/GPa)
#
#
# Indices 1 2 3 4 5 6 
#
# 1 0.025840 -0.010441 -0.005596 0.000000 0.000000 0.000000
# 2 -0.010441 0.025840 -0.005596 0.000000 0.000000 0.000000
# 3 -0.005596 -0.005596 0.011810 0.000000 0.000000 0.000000
# 4 0.000000 0.000000 0.000000 0.045866 0.000000 0.000000
# 5 0.000000 0.000000 0.000000 0.000000 0.045866 0.000000
# 6 0.000000 0.000000 0.000000 0.000000 0.000000 0.059519
#
#
# Mechanical properties :
#
#
# Convention : Reuss Voigt Hill
#
# Bulk Modulus (GPa) = 49.44442 57.21753 53.33098
# Shear Modulus (GPa) = 18.88588 20.49139 19.68864
#
# Velocity S-wave (km/s) = 3.42366 3.56622 3.49567
# Velocity P-wave (km/s) = 6.80560 7.24356 7.02799
#
# Compressibility (1/GPa) = 0.02022473
#
# Stress axis : x y z
#
# Youngs Moduli (GPa) = 38.69993 38.70038 84.67154
#
# Poissons Ratio (x) = 0.40406 0.47382
# Poissons Ratio (y) = 0.40406 0.47381
# Poissons Ratio (z) = 0.21656 0.21656
#
# Static dielectric constant tensor:
#      x y z
#    x 2.881240 0.000000 0.000000 
#    y 0.000000 2.881240 0.000000 
#    z 0.000000 0.000000 3.467250 
# 
# 
# High freq. dielectric constant tensor:
#      x y z
#    x 1.597250 0.000000 0.000000 
#    y 0.000000 1.597250 0.000000 
#    z 0.000000 0.000000 1.641150 
# 
# From -- ./inp_files/7909.got.cif
#   From: 2010.03.12/outbox.cif.g09.slc.cpg/sg129_4_cif.got.tgz:7909.got - 2010.04.06 17:19:44.
