data_PCOD8315034
_publ_section_title
;
Structure prediction by ZEFSAII (Michael W. Deem and Ramdas Pophale) SiO2 
 PCOD8315034
Probable space group: P 4/N M M
;
_chemical_formula_sum "Si O2"
_cell_formula_units_Z 88
_cell_length_a 18.312255
_cell_length_b 18.312255
_cell_length_c 16.071617
_cell_angle_alpha 90.000000
_cell_angle_beta 90.000000
_cell_angle_gamma 90.000000
_cell_volume 5389.434881
_symmetry_space_group_name_H-M "P 4/N M M"
_symmetry_group_IT_number 129
_symmetry_cell_setting 'tetragonal'
loop_
_space_group_symop_operation_xyz
x,y,z
1/2-y,x,z
1/2-x,1/2-y,z
y,1/2-x,z
1/2+x,-y,-z
-x,1/2+y,-z
1/2+y,1/2+x,-z
-y,-x,-z
-x,-y,-z
1/2+y,-x,-z
1/2+x,1/2+y,-z
-y,1/2+x,-z
1/2-x,y,z
x,1/2-y,z
1/2-y,1/2-x,z
y,x,z
loop_
_atom_site_type_symbol
_atom_site_label
_atom_site_fract_x
_atom_site_fract_y
_atom_site_fract_z
Si Si1 0.664510 0.465388 0.084719
Si Si2 0.047323 0.333194 0.080300
Si Si3 0.165640 0.834361 0.500000
Si Si4 0.833052 0.950609 0.249354
Si Si5 0.334259 0.898752 0.672530
Si Si6 0.333086 0.594717 0.168640
O O1 0.750000 0.451515 0.083065
O O2 0.642624 0.519061 0.159766
O O3 0.629528 0.385868 0.099117
O O4 0.637473 0.502845 0.000020
O O5 0.073850 0.250000 0.065673
O O6 0.118024 0.381977 0.097072
O O7 0.993279 0.338505 0.159517
O O8 0.250000 0.849267 0.480725
O O9 0.120475 0.861135 0.419940
O O10 0.750000 0.922335 0.247005
O O11 0.883301 0.883301 0.275863
O O12 0.842796 0.014578 0.316985
O O13 0.250000 0.874781 0.686606
O O14 0.383465 0.855168 0.738256
O O15 0.250000 0.620085 0.149960
#
# Coordination Sequence:
#
# PCOD8315034 Si02
#       6
#    16  16   8  16  16  16
#     4   9  18  31  46  66  92 122 155 189 224 264
#     4  10  21  35  49  66  87 114 154 198 235 270
#     4   9  16  28  49  72  92 118 149 178 212 259
#     4   9  17  29  45  65  90 120 154 192 233 274
#     4   9  18  31  47  69  96 123 150 181 219 265
#     4  10  19  29  44  68  96 124 152 180 214 265
#
# _framework density 16.328241999999999
#
# number of rings (size 3 to 8) (size 9 to 14) (size 15 to 20)
#    0.000    2.636    0.000    3.273    0.000    6.909 
#    0.000    1.364    0.000    9.818    0.000    0.000 
#    0.000    0.000    0.000    9.455    0.000    0.000 
#
# Total GULP energy -1091071.948715 kJ/mol
# GULP energy per Si atom -12398.544872 kJ/mol
# Density = 1.629108 g / cm^3
# Si number density = 16.328242 Si / 1000 Ang^3
#
#
#
# Elastic Constant Matrix: (Units=GPa)
#
#
# Indices 1 2 3 4 5 6 
#
# 1 86.3488 59.5941 42.9417 0.0000 0.0000 0.0000
# 2 59.5941 86.3482 42.9418 0.0000 0.0000 0.0000
# 3 42.9417 42.9418 103.9531 0.0000 0.0000 0.0000
# 4 0.0000 0.0000 0.0000 17.2174 0.0000 0.0000
# 5 0.0000 0.0000 0.0000 0.0000 17.2175 0.0000
# 6 0.0000 0.0000 0.0000 0.0000 0.0000 32.2806
#
#
#
# Elastic Compliance Matrix: (Units=1/GPa)
#
#
# Indices 1 2 3 4 5 6 
#
# 1 0.023215 -0.014162 -0.003739 0.000000 0.000000 0.000000
# 2 -0.014162 0.023215 -0.003740 0.000000 0.000000 0.000000
# 3 -0.003739 -0.003740 0.012709 0.000000 0.000000 0.000000
# 4 0.000000 0.000000 0.000000 0.058081 0.000000 0.000000
# 5 0.000000 0.000000 0.000000 0.000000 0.058080 0.000000
# 6 0.000000 0.000000 0.000000 0.000000 0.000000 0.030978
#
#
# Mechanical properties :
#
#
# Convention : Reuss Voigt Hill
#
# Bulk Modulus (GPa) = 63.06615 63.06726 63.06670
# Shear Modulus (GPa) = 19.61967 22.08793 20.85380
#
# Velocity S-wave (km/s) = 3.47014 3.68196 3.57762
# Velocity P-wave (km/s) = 7.40025 7.53553 7.46820
#
# Compressibility (1/GPa) = 0.01585637
#
# Stress axis : x y z
#
# Youngs Moduli (GPa) = 43.07617 43.07573 78.68295
#
# Poissons Ratio (x) = 0.61005 0.29423
# Poissons Ratio (y) = 0.61005 0.29424
# Poissons Ratio (z) = 0.16108 0.16109
#
# Static dielectric constant tensor:
#      x y z
#    x 2.976170 0.000000 0.000000 
#    y 0.000000 2.976170 0.000000 
#    z 0.000000 0.000000 3.068750 
# 
# 
# High freq. dielectric constant tensor:
#      x y z
#    x 1.619570 0.000000 0.000000 
#    y 0.000000 1.619570 0.000000 
#    z 0.000000 0.000000 1.610500 
# 
# From -- ./inp_files/4786.got.cif
#   From: 2010.03.12/outbox.cif.g09.slc.cpg/sg129_3_cif.got.tgz:4786.got - 2010.04.06 17:19:44.
