data_PCOD8315654
_publ_section_title
;
Structure prediction by ZEFSAII (Michael W. Deem and Ramdas Pophale) SiO2 
 PCOD8315654
Probable space group: P 42/M M C
;
_chemical_formula_sum "Si O2"
_cell_formula_units_Z 80
_cell_length_a 22.704235
_cell_length_b 22.704235
_cell_length_c 14.560284
_cell_angle_alpha 90.000000
_cell_angle_beta 90.000000
_cell_angle_gamma 90.000000
_cell_volume 7505.568495
_symmetry_space_group_name_H-M "P 42/M M C"
_symmetry_group_IT_number 131
_symmetry_cell_setting 'tetragonal'
loop_
_space_group_symop_operation_xyz
x,y,z
-x,-y,z
-y,x,1/2+z
y,-x,1/2+z
-x,y,-z
x,-y,-z
y,x,1/2-z
-y,-x,1/2-z
-x,-y,-z
x,y,-z
y,-x,1/2-z
-y,x,1/2-z
x,-y,z
-x,y,z
-y,-x,1/2+z
y,x,1/2+z
loop_
_atom_site_type_symbol
_atom_site_label
_atom_site_fract_x
_atom_site_fract_y
_atom_site_fract_z
Si Si1 0.852698 0.895608 0.894647
Si Si2 0.934177 0.000000 0.890764
Si Si3 0.066318 0.215448 0.101213
Si Si4 0.931992 0.739317 0.292658
Si Si5 0.626035 0.929620 0.896764
Si Si6 0.500000 0.935398 0.109141
O O1 0.884721 0.833724 0.884176
O O2 0.793525 0.895373 0.834540
O O3 0.898436 0.943415 0.855675
O O4 0.835588 0.909143 0.000000
O O5 0.000000 0.000000 0.848059
O O6 0.939042 0.000000 0.000000
O O7 0.074829 0.263168 0.182021
O O8 0.000000 0.188213 0.107873
O O9 0.074580 0.244764 0.000000
O O10 0.906224 0.677817 0.330739
O O11 0.000000 0.747123 0.322751
O O12 0.562004 0.903568 0.863061
O O13 0.621786 0.000000 0.894202
O O14 0.640403 0.908168 0.000000
O O15 0.500000 0.000000 0.154939
O O16 0.500000 0.942085 0.000000
#
# Coordination Sequence:
#
# PCOD8315654 Si02
#       6
#    16   8  16  16  16   8
#     4  10  17  25  35  45  57  69  86 117 154 187
#     4   9  16  24  34  44  53  68  88 112 150 192
#     4   9  18  29  36  39  49  72  99 123 147 173
#     4  10  17  24  34  46  59  69  88 114 142 170
#     4   8  13  20  32  49  66  78  84  95 120 159
#     4   7  10  18  30  46  67  83  87  87 106 154
#
# _framework density 10.658753000000001
#
# number of rings (size 3 to 8) (size 9 to 14) (size 15 to 20)
#    0.000    3.000    1.000    3.000    0.000    3.200 
#    0.000    0.000    0.000    0.000    0.000    0.700 
#    0.000    5.600    0.000    0.000    0.000    0.000 
#
# Total GULP energy -991084.151849 kJ/mol
# GULP energy per Si atom -12388.551898 kJ/mol
# Density = 1.063449 g / cm^3
# Si number density = 10.658753 Si / 1000 Ang^3
#
#
#
# Elastic Constant Matrix: (Units=GPa)
#
#
# Indices 1 2 3 4 5 6 
#
# 1 59.1152 13.2708 29.4066 0.0000 0.0000 0.0000
# 2 13.2708 59.1152 29.4066 0.0000 0.0000 0.0000
# 3 29.4066 29.4066 64.0640 0.0000 0.0000 0.0000
# 4 0.0000 0.0000 0.0000 7.6816 0.0000 0.0000
# 5 0.0000 0.0000 0.0000 0.0000 7.6816 0.0000
# 6 0.0000 0.0000 0.0000 0.0000 0.0000 2.2629
#
#
#
# Elastic Compliance Matrix: (Units=1/GPa)
#
#
# Indices 1 2 3 4 5 6 
#
# 1 0.021922 0.000109 -0.010113 0.000000 0.000000 0.000000
# 2 0.000109 0.021922 -0.010113 0.000000 0.000000 0.000000
# 3 -0.010113 -0.010113 0.024893 0.000000 0.000000 0.000000
# 4 0.000000 0.000000 0.000000 0.130182 0.000000 0.000000
# 5 0.000000 0.000000 0.000000 0.000000 0.130182 0.000000
# 6 0.000000 0.000000 0.000000 0.000000 0.000000 0.441917
#
#
# Mechanical properties :
#
#
# Convention : Reuss Voigt Hill
#
# Bulk Modulus (GPa) = 35.08174 36.27360 35.67767
# Shear Modulus (GPa) = 6.09197 10.87256 8.48227
#
# Velocity S-wave (km/s) = 2.39330 3.19730 2.82406
# Velocity P-wave (km/s) = 6.37355 6.90912 6.64673
#
# Compressibility (1/GPa) = 0.02850486
#
# Stress axis : x y z
#
# Youngs Moduli (GPa) = 45.61589 45.61589 40.17135
#
# Poissons Ratio (x) = -0.00498 0.40625
# Poissons Ratio (y) = -0.00498 0.40625
# Poissons Ratio (z) = 0.46131 0.46131
#
# Static dielectric constant tensor:
#      x y z
#    x 2.189640 0.000000 0.000000 
#    y 0.000000 2.189640 0.000000 
#    z 0.000000 0.000000 2.386150 
# 
# 
# High freq. dielectric constant tensor:
#      x y z
#    x 1.364240 0.000000 0.000000 
#    y 0.000000 1.364240 0.000000 
#    z 0.000000 0.000000 1.403230 
# 
# From -- ./inp_files/6079.got.cif
#   From: 2010.03.12/outbox.cif.g09.slc.cpg/sg131_4_cif.got.tgz:6079.got - 2010.04.06 17:36:35.
