data_PCOD8315825
_publ_section_title
;
Structure prediction by ZEFSAII (Michael W. Deem and Ramdas Pophale) SiO2 
 PCOD8315825
Probable space group: P 42/M M C
;
_chemical_formula_sum "Si O2"
_cell_formula_units_Z 80
_cell_length_a 20.273682
_cell_length_b 20.273682
_cell_length_c 14.456049
_cell_angle_alpha 90.000000
_cell_angle_beta 90.000000
_cell_angle_gamma 90.000000
_cell_volume 5941.756801
_symmetry_space_group_name_H-M "P 42/M M C"
_symmetry_group_IT_number 131
_symmetry_cell_setting 'tetragonal'
loop_
_space_group_symop_operation_xyz
x,y,z
-x,-y,z
-y,x,1/2+z
y,-x,1/2+z
-x,y,-z
x,-y,-z
y,x,1/2-z
-y,-x,1/2-z
-x,-y,-z
x,y,-z
y,-x,1/2-z
-y,x,1/2-z
x,-y,z
-x,y,z
-y,-x,1/2+z
y,x,1/2+z
loop_
_atom_site_type_symbol
_atom_site_label
_atom_site_fract_x
_atom_site_fract_y
_atom_site_fract_z
Si Si1 0.192782 0.577117 0.603696
Si Si2 0.578956 0.000000 0.606847
Si Si3 0.429258 0.429258 0.250000
Si Si4 0.425023 0.254640 0.393515
Si Si5 0.873532 0.577392 0.214078
Si Si6 0.379837 0.337300 0.894750
O O1 0.165841 0.590879 0.500000
O O2 0.211533 0.500000 0.615564
O O3 0.135795 0.597505 0.677395
O O4 0.258702 0.620121 0.622576
O O5 0.608541 0.062663 0.663580
O O6 0.500000 0.000000 0.606413
O O7 0.604240 0.000000 0.500000
O O8 0.423542 0.500000 0.198406
O O9 0.430365 0.371327 0.174539
O O10 0.424481 0.234878 0.500000
O O11 0.500000 0.275689 0.364228
O O12 0.399363 0.191767 0.338056
O O13 0.371259 0.310127 0.370907
O O14 0.882133 0.500000 0.205319
O O15 0.400863 0.352265 0.000000
#
# Coordination Sequence:
#
# PCOD8315825 Si02
#       6
#    16   8   8  16  16  16
#     4   9  17  28  40  52  67  90 119 147 176 211
#     4   9  16  26  41  59  75  89 104 124 161 214
#     4  11  22  30  36  48  64  84 114 152 192 230
#     4   9  16  25  38  55  72  90 115 149 188 226
#     4   9  16  26  39  54  72  90 108 135 171 212
#     4  10  19  30  42  53  67  90 119 150 185 223
#
# _framework density 13.464032
#
# number of rings (size 3 to 8) (size 9 to 14) (size 15 to 20)
#    0.000    2.600    0.000    3.000    0.000    6.400 
#    0.000    1.500    0.000    3.000    0.000    0.000 
#    0.000    0.000    0.000    0.000    0.000    0.000 
#
# Total GULP energy -991218.385686 kJ/mol
# GULP energy per Si atom -12390.229821 kJ/mol
# Density = 1.343339 g / cm^3
# Si number density = 13.464032 Si / 1000 Ang^3
#
#
#
# Elastic Constant Matrix: (Units=GPa)
#
#
# Indices 1 2 3 4 5 6 
#
# 1 52.7896 15.7697 38.2394 0.0000 0.0000 0.0000
# 2 15.7697 52.7896 38.2394 0.0000 0.0000 0.0000
# 3 38.2394 38.2394 92.7893 0.0000 0.0000 0.0000
# 4 0.0000 0.0000 0.0000 18.5276 0.0000 0.0000
# 5 0.0000 0.0000 0.0000 0.0000 18.5276 0.0000
# 6 0.0000 0.0000 0.0000 0.0000 0.0000 3.9515
#
#
#
# Elastic Compliance Matrix: (Units=1/GPa)
#
#
# Indices 1 2 3 4 5 6 
#
# 1 0.027005 -0.000008 -0.011126 0.000000 0.000000 0.000000
# 2 -0.000008 0.027005 -0.011126 0.000000 0.000000 0.000000
# 3 -0.011126 -0.011126 0.019947 0.000000 0.000000 0.000000
# 4 0.000000 0.000000 0.000000 0.053973 0.000000 0.000000
# 5 0.000000 0.000000 0.000000 0.000000 0.053973 0.000000
# 6 0.000000 0.000000 0.000000 0.000000 0.000000 0.253068
#
#
# Mechanical properties :
#
#
# Convention : Reuss Voigt Hill
#
# Bulk Modulus (GPa) = 33.96974 42.54064 38.25519
# Shear Modulus (GPa) = 10.21864 15.27602 12.74733
#
# Velocity S-wave (km/s) = 2.75791 3.37201 3.08030
# Velocity P-wave (km/s) = 5.95199 6.84287 6.41292
#
# Compressibility (1/GPa) = 0.02943797
#
# Stress axis : x y z
#
# Youngs Moduli (GPa) = 37.03074 37.03074 50.13271
#
# Poissons Ratio (x) = 0.00029 0.55776
# Poissons Ratio (y) = 0.00029 0.55776
# Poissons Ratio (z) = 0.41199 0.41199
#
# Static dielectric constant tensor:
#      x y z
#    x 2.489600 0.000000 0.000000 
#    y 0.000000 2.489600 0.000000 
#    z 0.000000 0.000000 2.973890 
# 
# 
# High freq. dielectric constant tensor:
#      x y z
#    x 1.469500 0.000000 0.000000 
#    y 0.000000 1.469500 0.000000 
#    z 0.000000 0.000000 1.536290 
# 
# From -- ./inp_files/7853.got.cif
#   From: 2010.03.12/outbox.cif.g09.slc.cpg/sg131_4_cif.got.tgz:7853.got - 2010.04.06 17:36:35.
