data_PCOD8315951
_publ_section_title
;
Structure prediction by ZEFSAII (Michael W. Deem and Ramdas Pophale) SiO2 
 PCOD8315951
Probable space group: P 42/M M C
;
_chemical_formula_sum "Si O2"
_cell_formula_units_Z 96
_cell_length_a 24.228283
_cell_length_b 24.228283
_cell_length_c 8.635006
_cell_angle_alpha 90.000000
_cell_angle_beta 90.000000
_cell_angle_gamma 90.000000
_cell_volume 5068.832257
_symmetry_space_group_name_H-M "P 42/M M C"
_symmetry_group_IT_number 131
_symmetry_cell_setting 'tetragonal'
loop_
_space_group_symop_operation_xyz
x,y,z
-x,-y,z
-y,x,1/2+z
y,-x,1/2+z
-x,y,-z
x,-y,-z
y,x,1/2-z
-y,-x,1/2-z
-x,-y,-z
x,y,-z
y,-x,1/2-z
-y,x,1/2-z
x,-y,z
-x,y,z
-y,-x,1/2+z
y,x,1/2+z
loop_
_atom_site_type_symbol
_atom_site_label
_atom_site_fract_x
_atom_site_fract_y
_atom_site_fract_z
Si Si1 0.061572 0.258438 0.182189
Si Si2 0.060574 0.561364 0.183972
Si Si3 0.935772 0.855558 0.325515
Si Si4 0.647689 0.731941 0.183481
Si Si5 0.146183 0.650132 0.184347
Si Si6 0.648204 0.435999 0.183593
O O1 0.081242 0.197874 0.228270
O O2 0.109053 0.298915 0.243594
O O3 0.000000 0.271136 0.252008
O O4 0.057541 0.264251 0.000000
O O5 0.069476 0.500000 0.249437
O O6 0.111449 0.597516 0.243798
O O7 0.000000 0.583739 0.238389
O O8 0.061120 0.561499 0.000000
O O9 0.908303 0.908303 0.250000
O O10 0.915086 0.846896 0.500000
O O11 0.000000 0.867253 0.317869
O O12 0.701644 0.701644 0.250000
O O13 0.649975 0.795507 0.231234
O O14 0.592340 0.703423 0.249538
O O15 0.647648 0.726307 0.000000
O O16 0.155617 0.650698 0.000000
O O17 0.593654 0.406347 0.250000
O O18 0.647391 0.500000 0.233891
O O19 0.648577 0.429381 0.000000
#
# Coordination Sequence:
#
# PCOD8315951 Si02
#       6
#    16  16  16  16  16  16
#     4   9  18  33  53  76 103 136 174 219 268 316
#     4   8  14  26  47  77 110 140 172 213 257 301
#     4  10  21  36  54  76 102 132 166 207 257 314
#     4  11  23  39  57  77 106 143 182 225 271 317
#     4  10  19  32  53  80 107 138 179 222 265 317
#     4  10  21  38  61  87 115 147 181 219 264 312
#
# _framework density 18.939273
#
# number of rings (size 3 to 8) (size 9 to 14) (size 15 to 20)
#    0.000    2.333    0.000    4.500    0.000    6.667 
#    0.000    3.333    0.000    1.500    0.000    1.167 
#    0.000    0.000    0.000    0.000    0.000    0.000 
#
# Total GULP energy -1190081.698439 kJ/mol
# GULP energy per Si atom -12396.684359 kJ/mol
# Density = 1.889617 g / cm^3
# Si number density = 18.939273 Si / 1000 Ang^3
#
#
#
# Elastic Constant Matrix: (Units=GPa)
#
#
# Indices 1 2 3 4 5 6 
#
# 1 181.8821 41.4170 40.2658 0.0000 0.0000 0.0000
# 2 41.4170 181.8817 40.2660 0.0000 0.0000 0.0000
# 3 40.2658 40.2660 57.3335 0.0000 0.0000 0.0000
# 4 0.0000 0.0000 0.0000 22.4025 0.0000 0.0000
# 5 0.0000 0.0000 0.0000 0.0000 22.4026 0.0000
# 6 0.0000 0.0000 0.0000 0.0000 0.0000 11.7667
#
#
#
# Elastic Compliance Matrix: (Units=1/GPa)
#
#
# Indices 1 2 3 4 5 6 
#
# 1 0.006558 -0.000561 -0.004212 0.000000 0.000000 0.000000
# 2 -0.000561 0.006558 -0.004212 0.000000 0.000000 0.000000
# 3 -0.004212 -0.004212 0.023358 0.000000 0.000000 0.000000
# 4 0.000000 0.000000 0.000000 0.044638 0.000000 0.000000
# 5 0.000000 0.000000 0.000000 0.000000 0.044638 0.000000
# 6 0.000000 0.000000 0.000000 0.000000 0.000000 0.084986
#
#
# Mechanical properties :
#
#
# Convention : Reuss Voigt Hill
#
# Bulk Modulus (GPa) = 54.04009 73.88831 63.96420
# Shear Modulus (GPa) = 21.28800 31.25760 26.27280
#
# Velocity S-wave (km/s) = 3.35627 4.06693 3.72857
# Velocity P-wave (km/s) = 6.60414 7.81993 7.23761
#
# Compressibility (1/GPa) = 0.01850478
#
# Stress axis : x y z
#
# Youngs Moduli (GPa) = 152.47943 152.47873 42.81175
#
# Poissons Ratio (x) = 0.08553 0.18032
# Poissons Ratio (y) = 0.08553 0.18032
# Poissons Ratio (z) = 0.64224 0.64224
#
# Static dielectric constant tensor:
#      x y z
#    x 3.626020 0.000000 0.000000 
#    y 0.000000 3.626030 0.000000 
#    z 0.000000 0.000000 3.308370 
# 
# 
# High freq. dielectric constant tensor:
#      x y z
#    x 1.741450 0.000000 0.000000 
#    y 0.000000 1.741450 0.000000 
#    z 0.000000 0.000000 1.718110 
# 
# From -- ./inp_files/2284.got.cif
#   From: 2010.03.12/outbox.cif.g09.slc.cpg/sg131_2_cif.got.tgz:2284.got - 2010.04.06 17:36:35.
