data_PCOD8315310
_publ_section_title
;
Structure prediction by ZEFSAII (Michael W. Deem and Ramdas Pophale) SiO2 
 PCOD8315310
Probable space group: P 4/N M M
;
_chemical_formula_sum "Si O2"
_cell_formula_units_Z 112
_cell_length_a 13.479161
_cell_length_b 13.479161
_cell_length_c 36.003706
_cell_angle_alpha 90.000000
_cell_angle_beta 90.000000
_cell_angle_gamma 90.000000
_cell_volume 6541.433460
_symmetry_space_group_name_H-M "P 4/N M M"
_symmetry_group_IT_number 129
_symmetry_cell_setting 'tetragonal'
loop_
_space_group_symop_operation_xyz
x,y,z
1/2-y,x,z
1/2-x,1/2-y,z
y,1/2-x,z
1/2+x,-y,-z
-x,1/2+y,-z
1/2+y,1/2+x,-z
-y,-x,-z
-x,-y,-z
1/2+y,-x,-z
1/2+x,1/2+y,-z
-y,1/2+x,-z
1/2-x,y,z
x,1/2-y,z
1/2-y,1/2-x,z
y,x,z
loop_
_atom_site_type_symbol
_atom_site_label
_atom_site_fract_x
_atom_site_fract_y
_atom_site_fract_z
Si Si1 0.024629 0.862867 0.529210
Si Si2 0.632941 0.471580 0.032514
Si Si3 0.471819 0.633243 0.180736
Si Si4 0.132690 0.860937 0.893272
Si Si5 0.359192 0.867545 0.682327
Si Si6 0.026763 0.633200 0.755210
Si Si7 0.522711 0.136065 0.387642
O O1 0.992279 0.750000 0.523533
O O2 0.927301 0.927301 0.521179
O O3 0.066598 0.880389 0.570942
O O4 0.110470 0.889531 0.500000
O O5 0.750000 0.493644 0.031805
O O6 0.575834 0.575834 0.027521
O O7 0.597580 0.421134 0.070711
O O8 0.604881 0.395119 0.000000
O O9 0.494928 0.750000 0.180554
O O10 0.575810 0.575810 0.185524
O O11 0.419600 0.596697 0.142998
O O12 0.396755 0.607734 0.214042
O O13 0.250000 0.851720 0.893067
O O14 0.086077 0.750000 0.893609
O O15 0.250000 0.914439 0.687987
O O16 0.350671 0.750000 0.682249
O O17 0.430803 0.901379 0.715470
O O18 0.400148 0.905785 0.642670
O O19 0.006083 0.750000 0.757127
O O20 0.923171 0.576830 0.762310
O O21 0.498958 0.250000 0.379512
O O22 0.418378 0.081623 0.383374
#
# Coordination Sequence:
#
# PCOD8315310 Si02
#       7
#    16  16  16  16  16  16  16
#     4   9  18  31  46  66  92 121 155 195 237 283
#     4  10  20  33  50  73 100 131 168 208 251 299
#     4  10  20  33  50  73 100 131 168 207 247 291
#     4   9  17  30  49  71  95 125 161 201 244 289
#     4   9  17  29  45  65  90 120 153 188 226 271
#     4  10  20  33  50  72  97 126 161 201 245 293
#     4   9  17  29  45  66  92 120 150 186 230 280
#
# _framework density 17.121628999999999
#
# number of rings (size 3 to 8) (size 9 to 14) (size 15 to 20)
#    0.000    2.571    0.000    2.143    0.000    3.571 
#    0.000    2.857    0.000    5.143    0.000    0.000 
#    0.000   12.857    0.000    0.571    0.000    0.143 
#
# Total GULP energy -1388688.524385 kJ/mol
# GULP energy per Si atom -12399.004682 kJ/mol
# Density = 1.708266 g / cm^3
# Si number density = 17.121629 Si / 1000 Ang^3
#
#
#
# Elastic Constant Matrix: (Units=GPa)
#
#
# Indices 1 2 3 4 5 6 
#
# 1 81.6324 34.7342 40.8672 0.0000 0.0000 0.0000
# 2 34.7342 81.6342 40.8674 0.0000 0.0000 0.0000
# 3 40.8672 40.8674 130.3819 0.0000 0.0000 0.0000
# 4 0.0000 0.0000 0.0000 26.7388 0.0000 0.0000
# 5 0.0000 0.0000 0.0000 0.0000 26.7387 0.0000
# 6 0.0000 0.0000 0.0000 0.0000 0.0000 14.8651
#
#
#
# Elastic Compliance Matrix: (Units=1/GPa)
#
#
# Indices 1 2 3 4 5 6 
#
# 1 0.016171 -0.005151 -0.003454 0.000000 0.000000 0.000000
# 2 -0.005151 0.016171 -0.003454 0.000000 0.000000 0.000000
# 3 -0.003454 -0.003454 0.009835 0.000000 0.000000 0.000000
# 4 0.000000 0.000000 0.000000 0.037399 0.000000 0.000000
# 5 0.000000 0.000000 0.000000 0.000000 0.037399 0.000000
# 6 0.000000 0.000000 0.000000 0.000000 0.000000 0.067272
#
#
# Mechanical properties :
#
#
# Convention : Reuss Voigt Hill
#
# Bulk Modulus (GPa) = 55.37691 58.50959 56.94325
# Shear Modulus (GPa) = 23.32256 25.48048 24.40152
#
# Velocity S-wave (km/s) = 3.69476 3.86191 3.77926
# Velocity P-wave (km/s) = 7.11443 7.35751 7.23699
#
# Compressibility (1/GPa) = 0.01805807
#
# Stress axis : x y z
#
# Youngs Moduli (GPa) = 61.83858 61.84010 101.67737
#
# Poissons Ratio (x) = 0.31857 0.35120
# Poissons Ratio (y) = 0.31856 0.35119
# Poissons Ratio (z) = 0.21359 0.21359
#
# Static dielectric constant tensor:
#      x y z
#    x 3.047020 0.000000 0.000000 
#    y 0.000000 3.047020 0.000000 
#    z 0.000000 0.000000 3.509630 
# 
# 
# High freq. dielectric constant tensor:
#      x y z
#    x 1.644330 0.000000 0.000000 
#    y 0.000000 1.644330 0.000000 
#    z 0.000000 0.000000 1.680860 
# 
# From -- ./inp_files/7568.got.cif
#   From: 2010.03.12/outbox.cif.g09.slc.cpg/sg129_4_cif.got.tgz:7568.got - 2010.04.06 17:19:44.
