data_PCOD8315702
_publ_section_title
;
Structure prediction by ZEFSAII (Michael W. Deem and Ramdas Pophale) SiO2 
 PCOD8315702
Probable space group: P 42/M M C
;
_chemical_formula_sum "Si O2"
_cell_formula_units_Z 104
_cell_length_a 14.509344
_cell_length_b 14.509344
_cell_length_c 29.615535
_cell_angle_alpha 90.000000
_cell_angle_beta 90.000000
_cell_angle_gamma 90.000000
_cell_volume 6234.693919
_symmetry_space_group_name_H-M "P 42/M M C"
_symmetry_group_IT_number 131
_symmetry_cell_setting 'tetragonal'
loop_
_space_group_symop_operation_xyz
x,y,z
-x,-y,z
-y,x,1/2+z
y,-x,1/2+z
-x,y,-z
x,-y,-z
y,x,1/2-z
-y,-x,1/2-z
-x,-y,-z
x,y,-z
y,-x,1/2-z
-y,x,1/2-z
x,-y,z
-x,y,z
-y,-x,1/2+z
y,x,1/2+z
loop_
_atom_site_type_symbol
_atom_site_label
_atom_site_fract_x
_atom_site_fract_y
_atom_site_fract_z
Si Si1 0.603053 0.105992 0.835766
Si Si2 0.843745 0.900295 0.293774
Si Si3 0.335765 0.806036 0.744496
Si Si4 0.401117 0.103999 0.336740
Si Si5 0.894721 0.212804 0.619910
Si Si6 0.268741 0.107646 0.417769
Si Si7 0.109391 0.395098 0.000000
O O1 0.500000 0.126849 0.854495
O O2 0.619810 0.166576 0.791630
O O3 0.678025 0.128216 0.874946
O O4 0.613037 0.000000 0.821138
O O5 0.909555 0.909555 0.250000
O O6 0.746787 0.871397 0.272273
O O7 0.882316 0.829303 0.330266
O O8 0.835725 0.000000 0.317852
O O9 0.298987 0.701013 0.750000
O O10 0.407670 0.820972 0.703778
O O11 0.500000 0.110556 0.362460
O O12 0.317688 0.127003 0.370155
O O13 0.388782 0.000000 0.317750
O O14 0.826450 0.165867 0.583283
O O15 0.000000 0.197394 0.603453
O O16 0.337333 0.143863 0.456626
O O17 0.245875 0.000000 0.425165
O O18 0.150073 0.500000 0.000000
O O19 0.000000 0.402371 0.000000
#
# Coordination Sequence:
#
# PCOD8315702 Si02
#       7
#    16  16  16  16  16  16   8
#     4  10  19  31  45  61  88 128 169 208 246 280
#     4  11  19  27  39  56  87 129 166 199 231 263
#     4  11  18  27  40  58  88 122 160 202 239 275
#     4  10  18  27  42  63  87 117 154 197 240 275
#     4  11  21  32  45  65  94 128 166 202 236 279
#     4  10  19  32  49  71 100 128 155 190 230 278
#     4   9  18  34  55  77 102 131 157 185 233 294
#
# _framework density 16.68085
#
# number of rings (size 3 to 8) (size 9 to 14) (size 15 to 20)
#    0.000    1.615    4.615    3.231    0.000    5.077 
#    0.000    0.385    0.000    1.385    0.000    0.538 
#    0.000   35.077    0.000    0.000    0.000    0.000 
#
# Total GULP energy -1288630.099568 kJ/mol
# GULP energy per Si atom -12390.674034 kJ/mol
# Density = 1.664288 g / cm^3
# Si number density = 16.680850 Si / 1000 Ang^3
#
#
#
# Elastic Constant Matrix: (Units=GPa)
#
#
# Indices 1 2 3 4 5 6 
#
# 1 92.6635 35.3125 26.0530 0.0000 0.0000 0.0000
# 2 35.3125 92.6640 26.0532 0.0000 0.0000 0.0000
# 3 26.0530 26.0532 55.7569 0.0000 0.0000 0.0000
# 4 0.0000 0.0000 0.0000 17.0038 0.0000 0.0000
# 5 0.0000 0.0000 0.0000 0.0000 17.0041 0.0000
# 6 0.0000 0.0000 0.0000 0.0000 0.0000 15.4032
#
#
#
# Elastic Compliance Matrix: (Units=1/GPa)
#
#
# Indices 1 2 3 4 5 6 
#
# 1 0.013543 -0.003893 -0.004509 0.000000 0.000000 0.000000
# 2 -0.003893 0.013543 -0.004509 0.000000 0.000000 0.000000
# 3 -0.004509 -0.004509 0.022149 0.000000 0.000000 0.000000
# 4 0.000000 0.000000 0.000000 0.058810 0.000000 0.000000
# 5 0.000000 0.000000 0.000000 0.000000 0.058809 0.000000
# 6 0.000000 0.000000 0.000000 0.000000 0.000000 0.064921
#
#
# Mechanical properties :
#
#
# Convention : Reuss Voigt Hill
#
# Bulk Modulus (GPa) = 42.71238 46.21353 44.46295
# Shear Modulus (GPa) = 18.83928 20.12661 19.48295
#
# Velocity S-wave (km/s) = 3.36429 3.47734 3.42128
# Velocity P-wave (km/s) = 6.38377 6.62474 6.50537
#
# Compressibility (1/GPa) = 0.02341242
#
# Stress axis : x y z
#
# Youngs Moduli (GPa) = 73.83811 73.83847 45.14926
#
# Poissons Ratio (x) = 0.28748 0.20358
# Poissons Ratio (y) = 0.28747 0.20358
# Poissons Ratio (z) = 0.33293 0.33294
#
# Static dielectric constant tensor:
#      x y z
#    x 3.358410 0.000000 0.000000 
#    y 0.000000 3.358400 0.000000 
#    z 0.000000 0.000000 2.975010 
# 
# 
# High freq. dielectric constant tensor:
#      x y z
#    x 1.628570 0.000000 0.000000 
#    y 0.000000 1.628570 0.000000 
#    z 0.000000 0.000000 1.607520 
# 
# From -- ./inp_files/13821.got.cif
#   From: 2010.03.12/outbox.cif.g09.slc.cpg/sg131_7_cif.got.tgz:13821.got - 2010.04.06 17:36:35.
