data_PCOD8315189
_publ_section_title
;
Structure prediction by ZEFSAII (Michael W. Deem and Ramdas Pophale) SiO2 
 PCOD8315189
Probable space group: P 4/N M M
;
_chemical_formula_sum "Si O2"
_cell_formula_units_Z 80
_cell_length_a 23.024681
_cell_length_b 23.024681
_cell_length_c 9.306836
_cell_angle_alpha 90.000000
_cell_angle_beta 90.000000
_cell_angle_gamma 90.000000
_cell_volume 4933.888206
_symmetry_space_group_name_H-M "P 4/N M M"
_symmetry_group_IT_number 129
_symmetry_cell_setting 'tetragonal'
loop_
_space_group_symop_operation_xyz
x,y,z
1/2-y,x,z
1/2-x,1/2-y,z
y,1/2-x,z
1/2+x,-y,-z
-x,1/2+y,-z
1/2+y,1/2+x,-z
-y,-x,-z
-x,-y,-z
1/2+y,-x,-z
1/2+x,1/2+y,-z
-y,1/2+x,-z
1/2-x,y,z
x,1/2-y,z
1/2-y,1/2-x,z
y,x,z
loop_
_atom_site_type_symbol
_atom_site_label
_atom_site_fract_x
_atom_site_fract_y
_atom_site_fract_z
Si Si1 0.250000 0.074835 0.285975
Si Si2 0.157533 0.250000 0.528871
Si Si3 0.968743 0.872622 0.668249
Si Si4 0.870697 0.966724 0.330821
Si Si5 0.952342 0.450446 0.838018
Si Si6 0.655197 0.750000 0.969320
Si Si7 0.750000 0.578556 0.227561
O O1 0.250000 0.095849 0.451042
O O2 0.191358 0.038359 0.262541
O O3 0.250000 0.133924 0.194420
O O4 0.192655 0.192655 0.487618
O O5 0.141975 0.250000 0.696528
O O6 0.911184 0.911184 0.698188
O O7 0.981765 0.869761 0.499123
O O8 0.024812 0.898171 0.748453
O O9 0.909289 0.909289 0.302393
O O10 0.806581 0.957745 0.269424
O O11 0.895127 0.022280 0.245734
O O12 0.001065 0.498936 0.844911
O O13 0.933107 0.433107 0.000000
O O14 0.692562 0.692562 0.999499
O O15 0.595422 0.750000 0.060097
#
# Coordination Sequence:
#
# PCOD8315189 Si02
#       7
#     8   8  16  16  16   8   8
#     4  12  22  33  50  72  98 131 172 216 254 296
#     4  11  20  32  48  66  94 134 176 209 238 280
#     4  10  19  33  51  72  97 127 166 209 254 300
#     4  10  19  33  51  72  97 127 166 209 254 300
#     4   9  19  33  51  71  93 124 161 206 257 307
#     4  11  24  36  44  62  98 142 180 213 250 288
#     4  12  22  33  50  72  98 131 172 216 254 296
#
# _framework density 16.214393000000001
#
# number of rings (size 3 to 8) (size 9 to 14) (size 15 to 20)
#    0.000    1.600    2.000    4.200    2.800    4.000 
#    0.000    0.000    0.000    0.000    0.000    0.000 
#    0.000    0.800    0.000    5.800    0.000    1.600 
#
# Total GULP energy -992015.642697 kJ/mol
# GULP energy per Si atom -12400.195534 kJ/mol
# Density = 1.617749 g / cm^3
# Si number density = 16.214393 Si / 1000 Ang^3
#
#
#
# Elastic Constant Matrix: (Units=GPa)
#
#
# Indices 1 2 3 4 5 6 
#
# 1 92.7621 61.4226 41.8605 0.0000 0.0000 0.0000
# 2 61.4226 92.7621 41.8605 0.0000 0.0000 0.0000
# 3 41.8605 41.8605 84.6079 0.0000 0.0000 0.0000
# 4 0.0000 0.0000 0.0000 24.8780 0.0000 0.0000
# 5 0.0000 0.0000 0.0000 0.0000 24.8780 0.0000
# 6 0.0000 0.0000 0.0000 0.0000 0.0000 -273.3175
#
#
#
# Elastic Compliance Matrix: (Units=1/GPa)
#
#
# Indices 1 2 3 4 5 6 
#
# 1 0.020388 -0.011520 -0.004388 0.000000 0.000000 0.000000
# 2 -0.011520 0.020388 -0.004388 0.000000 0.000000 0.000000
# 3 -0.004388 -0.004388 0.016161 0.000000 0.000000 0.000000
# 4 0.000000 0.000000 0.000000 0.040196 0.000000 0.000000
# 5 0.000000 0.000000 0.000000 0.000000 0.040196 0.000000
# 6 0.000000 0.000000 0.000000 0.000000 0.000000 -0.003659
#
#
# Mechanical properties :
#
#
# Convention : Reuss Voigt Hill
#
# Bulk Modulus (GPa) = 61.17424 62.26882 61.72153
# Shear Modulus (GPa) = 27.82249 -36.37972 -4.27862
#
# Velocity S-wave (km/s) = 4.14685 -4.74188 -1.62619
# Velocity P-wave (km/s) = 7.79351 2.91655 5.88409
#
# Compressibility (1/GPa) = 0.01634675
#
# Stress axis : x y z
#
# Youngs Moduli (GPa) = 49.04758 49.04758 61.87798
#
# Poissons Ratio (x) = 0.56504 0.27150
# Poissons Ratio (y) = 0.56504 0.27150
# Poissons Ratio (z) = 0.21520 0.21520
#
# Static dielectric constant tensor:
#      x y z
#    x 2.912270 0.000000 0.000000 
#    y 0.000000 2.912270 0.000000 
#    z 0.000000 0.000000 3.225430 
# 
# 
# High freq. dielectric constant tensor:
#      x y z
#    x 1.594980 0.000000 0.000000 
#    y 0.000000 1.594980 0.000000 
#    z 0.000000 0.000000 1.642390 
# 
# From -- ./inp_files/2569.got.cif
#   From: 2010.03.12/outbox.cif.g09.slc.cpg/sg129_2_cif.got.tgz:2569.got - 2010.04.06 17:19:44.
