data_PCOD8315536
_publ_section_title
;
Structure prediction by ZEFSAII (Michael W. Deem and Ramdas Pophale) SiO2 
 PCOD8315536
Probable space group: P 4/N C C
;
_chemical_formula_sum "Si O2"
_cell_formula_units_Z 72
_cell_length_a 16.117087
_cell_length_b 16.117087
_cell_length_c 12.410084
_cell_angle_alpha 90.000000
_cell_angle_beta 90.000000
_cell_angle_gamma 90.000000
_cell_volume 3223.649543
_symmetry_space_group_name_H-M "P 4/N C C"
_symmetry_group_IT_number 130
_symmetry_cell_setting 'tetragonal'
loop_
_space_group_symop_operation_xyz
x,y,z
1/2-y,x,z
1/2-x,1/2-y,z
y,1/2-x,z
1/2+x,-y,1/2-z
-x,1/2+y,1/2-z
1/2+y,1/2+x,1/2-z
-y,-x,1/2-z
-x,-y,-z
1/2+y,-x,-z
1/2+x,1/2+y,-z
-y,1/2+x,-z
1/2-x,y,1/2+z
x,1/2-y,1/2+z
1/2-y,1/2-x,1/2+z
y,x,1/2+z
loop_
_atom_site_type_symbol
_atom_site_label
_atom_site_fract_x
_atom_site_fract_y
_atom_site_fract_z
Si Si1 0.630589 0.544687 0.486640
Si Si2 0.752228 0.475194 0.641130
Si Si3 0.878102 0.121899 0.750000
Si Si4 0.382285 0.212578 0.711583
Si Si5 0.114716 0.540740 0.520596
O O1 0.674301 0.529992 0.600923
O O2 0.701130 0.577689 0.405939
O O3 0.586476 0.457878 0.452959
O O4 0.558339 0.612366 0.494965
O O5 0.715990 0.397232 0.710539
O O6 0.807448 0.540644 0.708695
O O7 0.800224 0.433779 0.539929
O O8 0.939473 0.109133 0.647831
O O9 0.351213 0.306763 0.727748
#
# Coordination Sequence:
#
# PCOD8315536 Si02
#       5
#    16  16   8  16  16
#     4  10  21  38  61  88 124 167 213 257 304 368
#     4  11  21  38  62  90 124 162 206 256 311 367
#     4  10  22  40  64  89 122 158 208 261 306 372
#     4  11  23  37  59  93 130 165 201 250 312 375
#     4  10  22  39  62  90 121 167 214 260 310 364
#
# _framework density 22.334935999999999
#
# number of rings (size 3 to 8) (size 9 to 14) (size 15 to 20)
#    0.000    1.556    0.000    5.333    0.000    4.444 
#    0.000    2.222    0.000   40.000    0.000    0.000 
#    0.000    0.000    0.000    0.000    0.000    0.000 
#
# Total GULP energy -892038.794408 kJ/mol
# GULP energy per Si atom -12389.427700 kJ/mol
# Density = 2.228410 g / cm^3
# Si number density = 22.334936 Si / 1000 Ang^3
#
#
#
# Elastic Constant Matrix: (Units=GPa)
#
#
# Indices 1 2 3 4 5 6 
#
# 1 88.4544 43.2488 49.3967 0.0000 0.0000 0.0000
# 2 43.2488 88.4559 49.3971 0.0000 0.0000 0.0000
# 3 49.3967 49.3971 104.0026 0.0000 0.0000 0.0000
# 4 0.0000 0.0000 0.0000 37.2474 0.0000 0.0000
# 5 0.0000 0.0000 0.0000 0.0000 37.2475 0.0000
# 6 0.0000 0.0000 0.0000 0.0000 0.0000 36.2907
#
#
#
# Elastic Compliance Matrix: (Units=1/GPa)
#
#
# Indices 1 2 3 4 5 6 
#
# 1 0.016958 -0.005163 -0.005602 0.000000 0.000000 0.000000
# 2 -0.005163 0.016958 -0.005602 0.000000 0.000000 0.000000
# 3 -0.005602 -0.005602 0.014937 0.000000 0.000000 0.000000
# 4 0.000000 0.000000 0.000000 0.026848 0.000000 0.000000
# 5 0.000000 0.000000 0.000000 0.000000 0.026847 0.000000
# 6 0.000000 0.000000 0.000000 0.000000 0.000000 0.027555
#
#
# Mechanical properties :
#
#
# Convention : Reuss Voigt Hill
#
# Bulk Modulus (GPa) = 62.04158 62.77756 62.40957
# Shear Modulus (GPa) = 29.72476 31.41515 30.56996
#
# Velocity S-wave (km/s) = 3.65206 3.75447 3.70362
# Velocity P-wave (km/s) = 6.75437 6.85296 6.80384
#
# Compressibility (1/GPa) = 0.01611822
#
# Stress axis : x y z
#
# Youngs Moduli (GPa) = 58.96896 58.96999 66.94893
#
# Poissons Ratio (x) = 0.30445 0.37506
# Poissons Ratio (y) = 0.30445 0.37506
# Poissons Ratio (z) = 0.33036 0.33036
#
# Static dielectric constant tensor:
#      x y z
#    x 4.000530 0.000000 0.000000 
#    y 0.000000 4.000520 0.000000 
#    z 0.000000 0.000000 3.887700 
# 
# 
# High freq. dielectric constant tensor:
#      x y z
#    x 1.871500 0.000000 0.000000 
#    y 0.000000 1.871500 0.000000 
#    z 0.000000 0.000000 1.878160 
# 
# From -- ./inp_files/1631.got.cif
#   From: 2010.03.12/outbox.cif.g09.slc.cpg/sg130_1_cif.got.tgz:1631.got - 2010.04.06 17:30:23.
