data_PCOD8315887
_publ_section_title
;
Structure prediction by ZEFSAII (Michael W. Deem and Ramdas Pophale) SiO2 
 PCOD8315887
Probable space group: P 42/M M C
;
_chemical_formula_sum "Si O2"
_cell_formula_units_Z 128
_cell_length_a 18.039667
_cell_length_b 18.039667
_cell_length_c 21.041123
_cell_angle_alpha 90.000000
_cell_angle_beta 90.000000
_cell_angle_gamma 90.000000
_cell_volume 6847.403936
_symmetry_space_group_name_H-M "P 42/M M C"
_symmetry_group_IT_number 131
_symmetry_cell_setting 'tetragonal'
loop_
_space_group_symop_operation_xyz
x,y,z
-x,-y,z
-y,x,1/2+z
y,-x,1/2+z
-x,y,-z
x,-y,-z
y,x,1/2-z
-y,-x,1/2-z
-x,-y,-z
x,y,-z
y,-x,1/2-z
-y,x,1/2-z
x,-y,z
-x,y,z
-y,-x,1/2+z
y,x,1/2+z
loop_
_atom_site_type_symbol
_atom_site_label
_atom_site_fract_x
_atom_site_fract_y
_atom_site_fract_z
Si Si1 0.417277 0.163201 0.364889
Si Si2 0.083307 0.727484 0.874121
Si Si3 0.305616 0.082541 0.137015
Si Si4 0.652998 0.586863 0.685751
Si Si5 0.695972 0.360291 0.924784
Si Si6 0.226030 0.790731 0.072027
Si Si7 0.414788 0.820109 0.217377
Si Si8 0.922242 0.198867 0.748057
O O1 0.500000 0.128864 0.370167
O O2 0.356624 0.105936 0.392990
O O3 0.416837 0.238458 0.406292
O O4 0.395832 0.179652 0.291983
O O5 0.144253 0.788208 0.896092
O O6 0.084156 0.734046 0.798004
O O7 0.000000 0.743415 0.901348
O O8 0.276135 0.135920 0.081278
O O9 0.371979 0.118087 0.177123
O O10 0.233436 0.074889 0.179356
O O11 0.329043 0.000000 0.111964
O O12 0.612103 0.612103 0.750000
O O13 0.638928 0.500000 0.676811
O O14 0.622177 0.626432 0.621585
O O15 0.739468 0.606268 0.691537
O O16 0.724374 0.278523 0.906198
O O17 0.674828 0.368107 0.000000
O O18 0.205214 0.782856 0.000000
O O19 0.500000 0.838652 0.205837
O O20 0.853783 0.146218 0.750000
O O21 0.000000 0.155486 0.760608
#
# Coordination Sequence:
#
# PCOD8315887 Si02
#       8
#    16  16  16  16  16  16  16  16
#     4  10  20  34  55  84 118 152 189 233 284 344
#     4  10  20  34  54  81 112 145 183 230 281 332
#     4  11  21  34  56  85 113 143 184 234 288 343
#     4  11  22  37  60  88 118 153 198 247 294 347
#     4  10  21  37  59  85 113 152 200 243 289 349
#     4  10  21  37  57  79 105 146 196 236 275 335
#     4  10  20  34  55  83 114 154 191 228 284 342
#     4  10  19  31  50  78 106 139 177 221 276 332
#
# _framework density 18.693216
#
# number of rings (size 3 to 8) (size 9 to 14) (size 15 to 20)
#    0.000    1.750    5.000    0.000    0.000    2.250 
#    0.000    1.250    0.000    0.750    0.000    7.000 
#    0.000    0.000    0.000    0.000    0.000    0.000 
#
# Total GULP energy -1586027.831634 kJ/mol
# GULP energy per Si atom -12390.842435 kJ/mol
# Density = 1.865067 g / cm^3
# Si number density = 18.693216 Si / 1000 Ang^3
#
#
#
# Elastic Constant Matrix: (Units=GPa)
#
#
# Indices 1 2 3 4 5 6 
#
# 1 80.3509 37.9598 25.9926 0.0000 0.0000 0.0000
# 2 37.9598 80.3496 25.9925 0.0000 0.0000 0.0000
# 3 25.9926 25.9925 55.8936 0.0000 0.0000 0.0000
# 4 0.0000 0.0000 0.0000 12.6482 0.0000 0.0000
# 5 0.0000 0.0000 0.0000 0.0000 12.6478 0.0000
# 6 0.0000 0.0000 0.0000 0.0000 0.0000 -174.0529
#
#
#
# Elastic Compliance Matrix: (Units=1/GPa)
#
#
# Indices 1 2 3 4 5 6 
#
# 1 0.017106 -0.006484 -0.004940 0.000000 0.000000 0.000000
# 2 -0.006484 0.017107 -0.004940 0.000000 0.000000 0.000000
# 3 -0.004940 -0.004940 0.022486 0.000000 0.000000 0.000000
# 4 0.000000 0.000000 0.000000 0.079063 0.000000 0.000000
# 5 0.000000 0.000000 0.000000 0.000000 0.079065 0.000000
# 6 0.000000 0.000000 0.000000 0.000000 0.000000 -0.005745
#
#
# Mechanical properties :
#
#
# Convention : Reuss Voigt Hill
#
# Bulk Modulus (GPa) = 41.71629 44.05378 42.88504
# Shear Modulus (GPa) = 20.01602 -21.30813 -0.64605
#
# Velocity S-wave (km/s) = 3.27580 -3.37988 -0.58852
# Velocity P-wave (km/s) = 6.05579 2.89593 4.74652
#
# Compressibility (1/GPa) = 0.02397145
#
# Stress axis : x y z
#
# Youngs Moduli (GPa) = 58.45739 58.45634 44.47254
#
# Poissons Ratio (x) = 0.37901 0.21970
# Poissons Ratio (y) = 0.37901 0.21970
# Poissons Ratio (z) = 0.28878 0.28878
#
# Static dielectric constant tensor:
#      x y z
#    x 3.721770 0.000000 0.000000 
#    y 0.000000 3.721680 0.000000 
#    z 0.000000 0.000000 3.303690 
# 
# 
# High freq. dielectric constant tensor:
#      x y z
#    x 1.720250 0.000000 0.000000 
#    y 0.000000 1.720250 0.000000 
#    z 0.000000 0.000000 1.712390 
# 
# From -- ./inp_files/11519.got.cif
#   From: 2010.03.12/outbox.cif.g09.slc.cpg/sg131_6_cif.got.tgz:11519.got - 2010.04.06 17:36:35.
