data_PCOD8315414
_publ_section_title
;
Structure prediction by ZEFSAII (Michael W. Deem and Ramdas Pophale) SiO2 
 PCOD8315414
Probable space group: P 4/N M M
;
_chemical_formula_sum "Si O2"
_cell_formula_units_Z 80
_cell_length_a 27.890196
_cell_length_b 27.890196
_cell_length_c 5.062912
_cell_angle_alpha 90.000000
_cell_angle_beta 90.000000
_cell_angle_gamma 90.000000
_cell_volume 3938.252084
_symmetry_space_group_name_H-M "P 4/N M M"
_symmetry_group_IT_number 129
_symmetry_cell_setting 'tetragonal'
loop_
_space_group_symop_operation_xyz
x,y,z
1/2-y,x,z
1/2-x,1/2-y,z
y,1/2-x,z
1/2+x,-y,-z
-x,1/2+y,-z
1/2+y,1/2+x,-z
-y,-x,-z
-x,-y,-z
1/2+y,-x,-z
1/2+x,1/2+y,-z
-y,1/2+x,-z
1/2-x,y,z
x,1/2-y,z
1/2-y,1/2-x,z
y,x,z
loop_
_atom_site_type_symbol
_atom_site_label
_atom_site_fract_x
_atom_site_fract_y
_atom_site_fract_z
Si Si1 0.598301 0.449804 0.249833
Si Si2 0.061091 0.802305 0.459298
Si Si3 0.695100 0.955772 0.679104
Si Si4 0.555357 0.633392 0.196291
Si Si5 0.845860 0.302875 0.242864
O O1 0.567204 0.432797 0.500000
O O2 0.653323 0.430388 0.260493
O O3 0.601203 0.507587 0.237181
O O4 0.571514 0.428487 0.000000
O O5 0.066111 0.750000 0.313449
O O6 0.098279 0.806217 0.696244
O O7 0.010986 0.806561 0.603245
O O8 0.750000 0.936381 0.681497
O O9 0.662558 0.929183 0.459991
O O10 0.672665 0.950514 0.967692
O O11 0.597955 0.597955 0.118741
O O12 0.815624 0.315624 0.500000
O O13 0.830535 0.250000 0.151444
O O14 0.838058 0.338058 0.000000
#
# Coordination Sequence:
#
# PCOD8315414 Si02
#       5
#    16  16  16  16  16
#     4  11  23  39  59  83 115 157 200 242 291 356
#     4   9  21  39  59  82 105 137 186 245 301 346
#     4  10  21  39  63  90 121 154 193 242 294 341
#     4  11  23  39  60  90 127 163 199 241 287 342
#     4  11  24  39  55  73  96 128 170 225 288 356
#
# _framework density 20.313580000000002
#
# number of rings (size 3 to 8) (size 9 to 14) (size 15 to 20)
#    0.000    1.600    0.000    4.800    0.000   10.800 
#    0.000   13.000    0.000    1.200    0.000    0.000 
#    0.000   28.000    0.000    0.000    0.000    0.000 
#
# Total GULP energy -991788.183606 kJ/mol
# GULP energy per Si atom -12397.352295 kJ/mol
# Density = 2.026735 g / cm^3
# Si number density = 20.313580 Si / 1000 Ang^3
#
#
#
# Elastic Constant Matrix: (Units=GPa)
#
#
# Indices 1 2 3 4 5 6 
#
# 1 75.4360 46.4621 21.5103 0.0000 0.0000 0.0000
# 2 46.4621 75.4337 21.5085 0.0000 0.0000 0.0000
# 3 21.5103 21.5085 102.4225 0.0000 0.0000 0.0000
# 4 0.0000 0.0000 0.0000 25.6846 0.0000 0.0000
# 5 0.0000 0.0000 0.0000 0.0000 25.6850 0.0000
# 6 0.0000 0.0000 0.0000 0.0000 0.0000 23.9164
#
#
#
# Elastic Compliance Matrix: (Units=1/GPa)
#
#
# Indices 1 2 3 4 5 6 
#
# 1 0.021688 -0.012827 -0.001861 0.000000 0.000000 0.000000
# 2 -0.012827 0.021688 -0.001860 0.000000 0.000000 0.000000
# 3 -0.001861 -0.001860 0.010545 0.000000 0.000000 0.000000
# 4 0.000000 0.000000 0.000000 0.038934 0.000000 0.000000
# 5 0.000000 0.000000 0.000000 0.000000 0.038933 0.000000
# 6 0.000000 0.000000 0.000000 0.000000 0.000000 0.041812
#
#
# Mechanical properties :
#
#
# Convention : Reuss Voigt Hill
#
# Bulk Modulus (GPa) = 48.02439 48.02821 48.02630
# Shear Modulus (GPa) = 23.40399 25.97794 24.69097
#
# Velocity S-wave (km/s) = 3.39799 3.57997 3.49017
# Velocity P-wave (km/s) = 6.25204 6.38616 6.31945
#
# Compressibility (1/GPa) = 0.02082275
#
# Stress axis : x y z
#
# Youngs Moduli (GPa) = 46.10945 46.10841 94.83157
#
# Poissons Ratio (x) = 0.59145 0.17648
# Poissons Ratio (y) = 0.59147 0.17643
# Poissons Ratio (z) = 0.08581 0.08578
#
# Static dielectric constant tensor:
#      x y z
#    x 3.812280 0.000000 0.000000 
#    y 0.000000 3.812280 0.000000 
#    z 0.000000 0.000000 3.915690 
# 
# 
# High freq. dielectric constant tensor:
#      x y z
#    x 1.782410 0.000000 0.000000 
#    y 0.000000 1.782410 0.000000 
#    z 0.000000 0.000000 1.801020 
# 
# From -- ./inp_files/981.got.cif
#   From: 2010.03.12/outbox.cif.g09.slc.cpg/sg129_1_cif.got.tgz:981.got - 2010.04.06 17:19:44.
