data_PCOD8315206
_publ_section_title
;
Structure prediction by ZEFSAII (Michael W. Deem and Ramdas Pophale) SiO2 
 PCOD8315206
Probable space group: P 4/N M M
;
_chemical_formula_sum "Si O2"
_cell_formula_units_Z 96
_cell_length_a 20.898093
_cell_length_b 20.898093
_cell_length_c 12.270538
_cell_angle_alpha 90.000000
_cell_angle_beta 90.000000
_cell_angle_gamma 90.000000
_cell_volume 5358.915632
_symmetry_space_group_name_H-M "P 4/N M M"
_symmetry_group_IT_number 129
_symmetry_cell_setting 'tetragonal'
loop_
_space_group_symop_operation_xyz
x,y,z
1/2-y,x,z
1/2-x,1/2-y,z
y,1/2-x,z
1/2+x,-y,-z
-x,1/2+y,-z
1/2+y,1/2+x,-z
-y,-x,-z
-x,-y,-z
1/2+y,-x,-z
1/2+x,1/2+y,-z
-y,1/2+x,-z
1/2-x,y,z
x,1/2-y,z
1/2-y,1/2-x,z
y,x,z
loop_
_atom_site_type_symbol
_atom_site_label
_atom_site_fract_x
_atom_site_fract_y
_atom_site_fract_z
Si Si1 0.175642 0.928357 0.478856
Si Si2 0.010280 0.387131 0.661305
Si Si3 0.602847 0.496608 0.960917
Si Si4 0.119596 0.932783 0.253388
Si Si5 0.070370 0.324244 0.865333
Si Si6 0.177940 0.825571 0.878058
O O1 0.137129 0.862872 0.500000
O O2 0.250000 0.913741 0.495327
O O3 0.161722 0.953500 0.357036
O O4 0.153346 0.983731 0.560664
O O5 0.063995 0.436006 0.617622
O O6 0.040934 0.338342 0.747253
O O7 0.955371 0.430056 0.717646
O O8 0.553560 0.553560 0.950977
O O9 0.633193 0.483966 0.841981
O O10 0.567908 0.432093 0.000000
O O11 0.658422 0.516392 0.044845
O O12 0.139926 0.862403 0.214509
O O13 0.088396 0.250000 0.875156
O O14 0.134641 0.365360 0.884431
O O15 0.250000 0.848839 0.859104
O O16 0.172115 0.750000 0.864386
O O17 0.155079 0.844922 0.000000
#
# Coordination Sequence:
#
# PCOD8315206 Si02
#       6
#    16  16  16  16  16  16
#     4  10  23  38  54  77 107 143 185 225 269 326
#     4  10  21  38  57  77 103 137 182 228 275 322
#     4  10  19  34  53  79 112 140 173 213 262 325
#     4  11  20  32  52  79 106 137 174 223 272 319
#     4  10  21  36  57  82 109 143 180 225 277 326
#     4   9  19  33  46  67 104 147 188 222 257 310
#
# _framework density 17.914072000000001
#
# number of rings (size 3 to 8) (size 9 to 14) (size 15 to 20)
#    0.000    2.000    1.667    2.500    0.000    8.667 
#    0.000    0.000    0.000    0.000    0.000    0.000 
#    0.000    0.000    0.000    8.667    0.000    0.000 
#
# Total GULP energy -1190565.250846 kJ/mol
# GULP energy per Si atom -12401.721363 kJ/mol
# Density = 1.787330 g / cm^3
# Si number density = 17.914072 Si / 1000 Ang^3
#
#
#
# Elastic Constant Matrix: (Units=GPa)
#
#
# Indices 1 2 3 4 5 6 
#
# 1 90.3274 45.2043 48.7824 0.0000 0.0000 0.0000
# 2 45.2043 90.3285 48.7829 0.0000 0.0000 0.0000
# 3 48.7824 48.7829 127.1934 0.0000 0.0000 0.0000
# 4 0.0000 0.0000 0.0000 19.5971 0.0000 0.0000
# 5 0.0000 0.0000 0.0000 0.0000 19.5982 0.0000
# 6 0.0000 0.0000 0.0000 0.0000 0.0000 20.1629
#
#
#
# Elastic Compliance Matrix: (Units=1/GPa)
#
#
# Indices 1 2 3 4 5 6 
#
# 1 0.016177 -0.005985 -0.003909 0.000000 0.000000 0.000000
# 2 -0.005985 0.016177 -0.003909 0.000000 0.000000 0.000000
# 3 -0.003909 -0.003909 0.010861 0.000000 0.000000 0.000000
# 4 0.000000 0.000000 0.000000 0.051028 0.000000 0.000000
# 5 0.000000 0.000000 0.000000 0.000000 0.051025 0.000000
# 6 0.000000 0.000000 0.000000 0.000000 0.000000 0.049596
#
#
# Mechanical properties :
#
#
# Convention : Reuss Voigt Hill
#
# Bulk Modulus (GPa) = 64.06598 65.93205 64.99902
# Shear Modulus (GPa) = 21.96144 22.87694 22.41919
#
# Velocity S-wave (km/s) = 3.50513 3.57744 3.54147
# Velocity P-wave (km/s) = 7.22647 7.34497 7.28596
#
# Compressibility (1/GPa) = 0.01560891
#
# Stress axis : x y z
#
# Youngs Moduli (GPa) = 61.81648 61.81702 92.07633
#
# Poissons Ratio (x) = 0.36994 0.35993
# Poissons Ratio (y) = 0.36994 0.35994
# Poissons Ratio (z) = 0.24164 0.24165
#
# Static dielectric constant tensor:
#      x y z
#    x 3.171610 0.000000 0.000000 
#    y 0.000000 3.171610 0.000000 
#    z 0.000000 0.000000 3.514760 
# 
# 
# High freq. dielectric constant tensor:
#      x y z
#    x 1.680910 0.000000 0.000000 
#    y 0.000000 1.680910 0.000000 
#    z 0.000000 0.000000 1.703630 
# 
# From -- ./inp_files/3823.got.cif
#   From: 2010.03.12/outbox.cif.g09.slc.cpg/sg129_2_cif.got.tgz:3823.got - 2010.04.06 17:19:44.
