data_PCOD8315134
_publ_section_title
;
Structure prediction by ZEFSAII (Michael W. Deem and Ramdas Pophale) SiO2 
 PCOD8315134
Probable space group: P 4/N M M
;
_chemical_formula_sum "Si O2"
_cell_formula_units_Z 96
_cell_length_a 22.666053
_cell_length_b 22.666053
_cell_length_c 12.203717
_cell_angle_alpha 90.000000
_cell_angle_beta 90.000000
_cell_angle_gamma 90.000000
_cell_volume 6269.659104
_symmetry_space_group_name_H-M "P 4/N M M"
_symmetry_group_IT_number 129
_symmetry_cell_setting 'tetragonal'
loop_
_space_group_symop_operation_xyz
x,y,z
1/2-y,x,z
1/2-x,1/2-y,z
y,1/2-x,z
1/2+x,-y,-z
-x,1/2+y,-z
1/2+y,1/2+x,-z
-y,-x,-z
-x,-y,-z
1/2+y,-x,-z
1/2+x,1/2+y,-z
-y,1/2+x,-z
1/2-x,y,z
x,1/2-y,z
1/2-y,1/2-x,z
y,x,z
loop_
_atom_site_type_symbol
_atom_site_label
_atom_site_fract_x
_atom_site_fract_y
_atom_site_fract_z
Si Si1 0.814343 0.519752 0.605191
Si Si2 0.817962 0.412024 0.033764
Si Si3 0.448482 0.815886 0.801242
Si Si4 0.068136 0.068136 0.467811
Si Si5 0.932059 0.115344 0.753886
Si Si6 0.407891 0.683404 0.459155
Si Si7 0.514017 0.985984 0.321865
O O1 0.750000 0.547615 0.580187
O O2 0.823630 0.510785 0.736570
O O3 0.862643 0.560830 0.551066
O O4 0.819014 0.453946 0.557718
O O5 0.750000 0.395612 0.058940
O O6 0.846124 0.445543 0.137980
O O7 0.851967 0.351967 0.000000
O O8 0.823345 0.457911 0.931996
O O9 0.422862 0.750000 0.777224
O O10 0.402470 0.863717 0.757380
O O11 0.051460 0.051460 0.590936
O O12 0.030208 0.030208 0.382808
O O13 0.940295 0.153315 0.644341
O O14 0.975868 0.058797 0.752493
O O15 0.349864 0.650137 0.500000
O O16 0.390068 0.750000 0.427951
#
# Coordination Sequence:
#
# PCOD8315134 Si02
#       7
#    16  16  16   8  16  16   8
#     4  10  19  31  50  71  93 124 158 194 238 292
#     4   9  19  33  49  66  92 130 170 207 243 282
#     4   9  17  31  47  63  89 124 158 193 238 283
#     4  11  18  32  49  71 101 124 161 193 241 302
#     4  11  19  32  46  69  93 124 162 207 246 288
#     4  11  20  30  44  64  93 126 161 200 243 283
#     4  11  20  28  48  73  98 131 159 199 248 301
#
# _framework density 15.311837000000001
#
# number of rings (size 3 to 8) (size 9 to 14) (size 15 to 20)
#    0.000    1.833    5.000    0.500    0.000    0.333 
#    0.000    4.583    0.000    3.250    0.000    0.000 
#    0.000    0.000    0.000    0.000    0.000    0.000 
#
# Total GULP energy -1189859.335065 kJ/mol
# GULP energy per Si atom -12394.368074 kJ/mol
# Density = 1.527699 g / cm^3
# Si number density = 15.311837 Si / 1000 Ang^3
#
#
#
# Elastic Constant Matrix: (Units=GPa)
#
#
# Indices 1 2 3 4 5 6 
#
# 1 74.4569 46.8502 30.9305 0.0000 0.0000 0.0000
# 2 46.8502 74.4566 30.9305 0.0000 0.0000 0.0000
# 3 30.9305 30.9305 83.5883 0.0000 0.0000 0.0000
# 4 0.0000 0.0000 0.0000 20.4227 0.0000 0.0000
# 5 0.0000 0.0000 0.0000 0.0000 20.4228 0.0000
# 6 0.0000 0.0000 0.0000 0.0000 0.0000 19.0982
#
#
#
# Elastic Compliance Matrix: (Units=1/GPa)
#
#
# Indices 1 2 3 4 5 6 
#
# 1 0.023192 -0.013031 -0.003760 0.000000 0.000000 0.000000
# 2 -0.013031 0.023192 -0.003760 0.000000 0.000000 0.000000
# 3 -0.003760 -0.003760 0.014746 0.000000 0.000000 0.000000
# 4 0.000000 0.000000 0.000000 0.048965 0.000000 0.000000
# 5 0.000000 0.000000 0.000000 0.000000 0.048965 0.000000
# 6 0.000000 0.000000 0.000000 0.000000 0.000000 0.052361
#
#
# Mechanical properties :
#
#
# Convention : Reuss Voigt Hill
#
# Bulk Modulus (GPa) = 49.92943 49.99158 49.96050
# Shear Modulus (GPa) = 19.29018 20.24144 19.76581
#
# Velocity S-wave (km/s) = 3.55325 3.63980 3.59679
# Velocity P-wave (km/s) = 7.03657 7.09817 7.06744
#
# Compressibility (1/GPa) = 0.02002827
#
# Stress axis : x y z
#
# Youngs Moduli (GPa) = 43.11813 43.11792 67.81514
#
# Poissons Ratio (x) = 0.56188 0.25497
# Poissons Ratio (y) = 0.56188 0.25498
# Poissons Ratio (z) = 0.16212 0.16212
#
# Static dielectric constant tensor:
#      x y z
#    x 2.818770 0.000000 0.000000 
#    y 0.000000 2.818770 0.000000 
#    z 0.000000 0.000000 3.186090 
# 
# 
# High freq. dielectric constant tensor:
#      x y z
#    x 1.562850 0.000000 0.000000 
#    y 0.000000 1.562850 0.000000 
#    z 0.000000 0.000000 1.599440 
# 
# From -- ./inp_files/4006.got.cif
#   From: 2010.03.12/outbox.cif.g09.slc.cpg/sg129_3_cif.got.tgz:4006.got - 2010.04.06 17:19:44.
