data_PCOD8315375
_publ_section_title
;
Structure prediction by ZEFSAII (Michael W. Deem and Ramdas Pophale) SiO2 
 PCOD8315375
Probable space group: P 4/N M M
;
_chemical_formula_sum "Si O2"
_cell_formula_units_Z 88
_cell_length_a 13.451948
_cell_length_b 13.451948
_cell_length_c 28.569395
_cell_angle_alpha 90.000000
_cell_angle_beta 90.000000
_cell_angle_gamma 90.000000
_cell_volume 5169.772158
_symmetry_space_group_name_H-M "P 4/N M M"
_symmetry_group_IT_number 129
_symmetry_cell_setting 'tetragonal'
loop_
_space_group_symop_operation_xyz
x,y,z
1/2-y,x,z
1/2-x,1/2-y,z
y,1/2-x,z
1/2+x,-y,-z
-x,1/2+y,-z
1/2+y,1/2+x,-z
-y,-x,-z
-x,-y,-z
1/2+y,-x,-z
1/2+x,1/2+y,-z
-y,1/2+x,-z
1/2-x,y,z
x,1/2-y,z
1/2-y,1/2-x,z
y,x,z
loop_
_atom_site_type_symbol
_atom_site_label
_atom_site_fract_x
_atom_site_fract_y
_atom_site_fract_z
Si Si1 0.027626 0.864006 0.279017
Si Si2 0.501497 0.998504 0.882198
Si Si3 0.635311 0.024731 0.642145
Si Si4 0.635442 0.864559 0.947631
Si Si5 0.635534 0.635534 0.055371
Si Si6 0.476841 0.862271 0.535775
Si Si7 0.635342 0.365335 0.182931
O O1 0.993864 0.750000 0.281491
O O2 0.088240 0.890120 0.325744
O O3 0.100273 0.884532 0.235739
O O4 0.928034 0.928034 0.273827
O O5 0.567393 0.932607 0.916084
O O6 0.434123 0.927163 0.851208
O O7 0.431324 0.068677 0.912020
O O8 0.750000 0.008110 0.654948
O O9 0.620824 0.060854 0.588760
O O10 0.580128 0.919872 0.650855
O O11 0.611797 0.750000 0.936534
O O12 0.611564 0.888436 0.001520
O O13 0.750000 0.611870 0.066438
O O14 0.388530 0.888530 0.500000
O O15 0.510253 0.750000 0.527848
O O16 0.573051 0.926950 0.523837
O O17 0.750000 0.382979 0.168785
O O18 0.606545 0.250000 0.178980
#
# Coordination Sequence:
#
# PCOD8315375 Si02
#       7
#    16   8  16   8   8  16  16
#     4  10  20  36  54  74  99 132 169 206 247 296
#     4  12  19  32  54  80 102 134 171 210 252 302
#     4   9  18  32  52  75  99 132 170 208 252 305
#     4   9  19  35  53  75 103 137 175 210 248 296
#     4   9  19  35  53  75 105 137 171 212 252 294
#     4   9  18  32  49  72 101 130 165 211 259 304
#     4  10  21  35  51  74 104 134 165 207 255 301
#
# _framework density 17.022026
#
# number of rings (size 3 to 8) (size 9 to 14) (size 15 to 20)
#    0.000    2.364    0.909    2.455    0.000    2.545 
#    0.000    3.636    0.000    0.000    0.000   12.727 
#    0.000    0.000    0.000    0.000    0.000    0.000 
#
# Total GULP energy -1091300.505202 kJ/mol
# GULP energy per Si atom -12401.142105 kJ/mol
# Density = 1.698328 g / cm^3
# Si number density = 17.022026 Si / 1000 Ang^3
#
#
#
# Elastic Constant Matrix: (Units=GPa)
#
#
# Indices 1 2 3 4 5 6 
#
# 1 110.6420 80.4501 74.9248 0.0000 0.0000 0.0000
# 2 80.4501 110.6420 74.9248 0.0000 0.0000 0.0000
# 3 74.9248 74.9248 107.2414 0.0000 0.0000 0.0000
# 4 0.0000 0.0000 0.0000 32.0966 0.0000 0.0000
# 5 0.0000 0.0000 0.0000 0.0000 32.0966 0.0000
# 6 0.0000 0.0000 0.0000 0.0000 0.0000 23.8826
#
#
#
# Elastic Compliance Matrix: (Units=1/GPa)
#
#
# Indices 1 2 3 4 5 6 
#
# 1 0.022348 -0.010774 -0.008086 0.000000 0.000000 0.000000
# 2 -0.010774 0.022348 -0.008086 0.000000 0.000000 0.000000
# 3 -0.008086 -0.008086 0.020624 0.000000 0.000000 0.000000
# 4 0.000000 0.000000 0.000000 0.031156 0.000000 0.000000
# 5 0.000000 0.000000 0.000000 0.000000 0.031156 0.000000
# 6 0.000000 0.000000 0.000000 0.000000 0.000000 0.041872
#
#
# Mechanical properties :
#
#
# Convention : Reuss Voigt Hill
#
# Bulk Modulus (GPa) = 87.51330 87.68053 87.59692
# Shear Modulus (GPa) = 22.00659 24.16356 23.08508
#
# Velocity S-wave (km/s) = 3.59950 3.77177 3.68664
# Velocity P-wave (km/s) = 8.29449 8.40180 8.34832
#
# Compressibility (1/GPa) = 0.01142683
#
# Stress axis : x y z
#
# Youngs Moduli (GPa) = 44.74711 44.74711 48.48728
#
# Poissons Ratio (x) = 0.48209 0.39209
# Poissons Ratio (y) = 0.48209 0.39209
# Poissons Ratio (z) = 0.36184 0.36184
#
# Static dielectric constant tensor:
#      x y z
#    x 3.184030 0.000000 0.000000 
#    y 0.000000 3.184030 0.000000 
#    z 0.000000 0.000000 3.281070 
# 
# 
# High freq. dielectric constant tensor:
#      x y z
#    x 1.658100 0.000000 0.000000 
#    y 0.000000 1.658100 0.000000 
#    z 0.000000 0.000000 1.665480 
# 
# From -- ./inp_files/7802.got.cif
#   From: 2010.03.12/outbox.cif.g09.slc.cpg/sg129_4_cif.got.tgz:7802.got - 2010.04.06 17:19:44.
