data_PCOD8315600
_publ_section_title
;
Structure prediction by ZEFSAII (Michael W. Deem and Ramdas Pophale) SiO2 
 PCOD8315600
Probable space group: P 4/N C C
;
_chemical_formula_sum "Si O2"
_cell_formula_units_Z 96
_cell_length_a 23.247824
_cell_length_b 23.247824
_cell_length_c 8.871362
_cell_angle_alpha 90.000000
_cell_angle_beta 90.000000
_cell_angle_gamma 90.000000
_cell_volume 4794.628023
_symmetry_space_group_name_H-M "P 4/N C C"
_symmetry_group_IT_number 130
_symmetry_cell_setting 'tetragonal'
loop_
_space_group_symop_operation_xyz
x,y,z
1/2-y,x,z
1/2-x,1/2-y,z
y,1/2-x,z
1/2+x,-y,1/2-z
-x,1/2+y,1/2-z
1/2+y,1/2+x,1/2-z
-y,-x,1/2-z
-x,-y,-z
1/2+y,-x,-z
1/2+x,1/2+y,-z
-y,1/2+x,-z
1/2-x,y,1/2+z
x,1/2-y,1/2+z
1/2-y,1/2-x,1/2+z
y,x,1/2+z
loop_
_atom_site_type_symbol
_atom_site_label
_atom_site_fract_x
_atom_site_fract_y
_atom_site_fract_z
Si Si1 0.099374 0.311960 0.819250
Si Si2 0.099374 0.311959 0.180754
Si Si3 0.480631 0.690793 0.826078
Si Si4 0.371740 0.628261 0.750000
Si Si5 0.128261 0.871740 0.250000
Si Si6 0.167526 0.703353 1.000000
Si Si7 0.190794 0.980630 0.326083
O O1 0.114015 0.250000 0.750001
O O2 0.144044 0.355956 0.750003
O O3 0.036002 0.331348 0.765561
O O4 0.103118 0.311044 0.000002
O O5 0.036002 0.331347 0.234442
O O6 0.434006 0.638417 0.824712
O O7 0.458136 0.749999 0.749996
O O8 0.496739 0.703684 0.999998
O O9 0.368209 0.682815 0.641325
O O10 0.182815 0.868209 0.141326
O O11 0.138417 0.934006 0.324714
O O12 0.171814 0.771195 0.000001
#
# Coordination Sequence:
#
# PCOD8315600 Si02
#       7
#    16  16  16   8   8  16  16
#     4  11  23  42  69  99 132 163 201 246 303 366
#     4  11  23  42  69  99 132 163 201 246 303 366
#     4  11  23  39  61  87 121 164 213 260 312 369
#     4  12  24  35  57  82 118 162 214 260 314 373
#     4  12  24  35  57  82 118 162 214 260 314 373
#     4  11  22  36  52  78 113 154 204 268 327 374
#     4  11  23  39  61  87 121 164 213 260 312 369
#
# _framework density 20.022407999999999
#
# number of rings (size 3 to 8) (size 9 to 14) (size 15 to 20)
#    0.000    0.833    1.667    9.000    4.667    1.667 
#    0.000    2.500    0.000    4.000    0.000    0.000 
#    0.000    0.000    0.000    0.000    0.000    0.000 
#
# Total GULP energy -1190034.847821 kJ/mol
# GULP energy per Si atom -12396.196331 kJ/mol
# Density = 1.997684 g / cm^3
# Si number density = 20.022408 Si / 1000 Ang^3
#
#
#
# Elastic Constant Matrix: (Units=GPa)
#
#
# Indices 1 2 3 4 5 6 
#
# 1 70.1167 96.8902 38.3162 0.0000 0.0000 0.0000
# 2 96.8902 70.1167 38.3162 0.0000 0.0000 0.0000
# 3 38.3162 38.3162 176.8554 0.0000 0.0000 0.0000
# 4 0.0000 0.0000 0.0000 32.2427 0.0000 0.0000
# 5 0.0000 0.0000 0.0000 0.0000 32.2427 0.0000
# 6 0.0000 0.0000 0.0000 0.0000 0.0000 36.3052
#
#
#
# Elastic Compliance Matrix: (Units=1/GPa)
#
#
# Indices 1 2 3 4 5 6 
#
# 1 -0.015351 0.022000 -0.001440 0.000000 0.000000 0.000000
# 2 0.022000 -0.015351 -0.001440 0.000000 0.000000 0.000000
# 3 -0.001440 -0.001440 0.006278 0.000000 0.000000 0.000000
# 4 0.000000 0.000000 0.000000 0.031015 0.000000 0.000000
# 5 0.000000 0.000000 0.000000 0.000000 0.031015 0.000000
# 6 0.000000 0.000000 0.000000 0.000000 0.000000 0.027544
#
#
# Mechanical properties :
#
#
# Convention : Reuss Voigt Hill
#
# Bulk Modulus (GPa) = 72.38969 73.79265 73.09117
# Shear Modulus (GPa) = 158.63798 29.72920 94.18359
#
# Velocity S-wave (km/s) = 8.91079 3.85749 6.86595
# Velocity P-wave (km/s) = 11.92067 7.53494 9.97190
#
# Compressibility (1/GPa) = 0.01381412
#
# Stress axis : x y z
#
# Youngs Moduli (GPa) = -65.14330 -65.14330 159.27380
#
# Poissons Ratio (x) = 1.43312 0.22943
# Poissons Ratio (y) = 1.43312 0.22943
# Poissons Ratio (z) = -0.09384 -0.09384
#
# Static dielectric constant tensor:
#      x y z
#    x 3.510950 0.000000 0.000000 
#    y 0.000000 3.510950 0.000000 
#    z 0.000000 0.000000 3.925960 
# 
# 
# High freq. dielectric constant tensor:
#      x y z
#    x 1.770010 0.000000 0.000000 
#    y 0.000000 1.770010 0.000000 
#    z 0.000000 0.000000 1.807790 
# 
# From -- ./inp_files/965.got.cif
#   From: 2010.03.12/outbox.cif.g09.slc.cpg/sg130_1_cif.got.tgz:965.got - 2010.04.06 17:30:23.
