data_PCOD8315284
_publ_section_title
;
Structure prediction by ZEFSAII (Michael W. Deem and Ramdas Pophale) SiO2 
 PCOD8315284
Probable space group: P 4/N M M
;
_chemical_formula_sum "Si O2"
_cell_formula_units_Z 56
_cell_length_a 13.757828
_cell_length_b 13.757828
_cell_length_c 17.380793
_cell_angle_alpha 90.000000
_cell_angle_beta 90.000000
_cell_angle_gamma 90.000000
_cell_volume 3289.798805
_symmetry_space_group_name_H-M "P 4/N M M"
_symmetry_group_IT_number 129
_symmetry_cell_setting 'tetragonal'
loop_
_space_group_symop_operation_xyz
x,y,z
1/2-y,x,z
1/2-x,1/2-y,z
y,1/2-x,z
1/2+x,-y,-z
-x,1/2+y,-z
1/2+y,1/2+x,-z
-y,-x,-z
-x,-y,-z
1/2+y,-x,-z
1/2+x,1/2+y,-z
-y,1/2+x,-z
1/2-x,y,z
x,1/2-y,z
1/2-y,1/2-x,z
y,x,z
loop_
_atom_site_type_symbol
_atom_site_label
_atom_site_fract_x
_atom_site_fract_y
_atom_site_fract_z
Si Si1 0.981011 0.361821 0.269382
Si Si2 0.361387 0.638614 0.000000
Si Si3 0.517694 0.139531 0.446175
Si Si4 0.521617 0.136536 0.848313
O O1 0.999243 0.250000 0.247431
O O2 0.080885 0.419116 0.251659
O O3 0.949955 0.373816 0.357977
O O4 0.893203 0.404978 0.219534
O O5 0.390470 0.571117 0.928976
O O6 0.250000 0.621679 0.024688
O O7 0.606310 0.106310 0.500000
O O8 0.491465 0.250000 0.464992
O O9 0.421653 0.078348 0.465662
O O10 0.498851 0.250000 0.841141
O O11 0.420185 0.079816 0.841086
#
# Coordination Sequence:
#
# PCOD8315284 Si02
#       4
#    16   8  16  16
#     4   9  18  32  50  72  96 122 153 191 236 283
#     4   9  17  30  50  74  95 117 150 192 237 283
#     4   9  18  32  49  70  96 124 155 192 233 278
#     4  10  20  33  49  69  95 127 161 196 232 272
#
# _framework density 17.022317000000001
#
# number of rings (size 3 to 8) (size 9 to 14) (size 15 to 20)
#    0.000    2.714    0.000    1.286    0.000    4.000 
#    0.000    5.714    0.000    0.000    0.000   12.000 
#    0.000    0.000    0.000    0.000    0.000    0.000 
#
# Total GULP energy -694513.074889 kJ/mol
# GULP energy per Si atom -12402.019194 kJ/mol
# Density = 1.698357 g / cm^3
# Si number density = 17.022317 Si / 1000 Ang^3
#
#
#
# Elastic Constant Matrix: (Units=GPa)
#
#
# Indices 1 2 3 4 5 6 
#
# 1 106.8754 53.0909 58.6626 0.0000 0.0000 0.0000
# 2 53.0909 106.8761 58.6624 0.0000 0.0000 0.0000
# 3 58.6626 58.6624 85.4392 0.0000 0.0000 0.0000
# 4 0.0000 0.0000 0.0000 27.6529 0.0000 0.0000
# 5 0.0000 0.0000 0.0000 0.0000 27.6529 0.0000
# 6 0.0000 0.0000 0.0000 0.0000 0.0000 15.6177
#
#
#
# Elastic Compliance Matrix: (Units=1/GPa)
#
#
# Indices 1 2 3 4 5 6 
#
# 1 0.015593 -0.003000 -0.008646 0.000000 0.000000 0.000000
# 2 -0.003000 0.015593 -0.008646 0.000000 0.000000 0.000000
# 3 -0.008646 -0.008646 0.023577 0.000000 0.000000 0.000000
# 4 0.000000 0.000000 0.000000 0.036163 0.000000 0.000000
# 5 0.000000 0.000000 0.000000 0.000000 0.036163 0.000000
# 6 0.000000 0.000000 0.000000 0.000000 0.000000 0.064030
#
#
# Mechanical properties :
#
#
# Convention : Reuss Voigt Hill
#
# Bulk Modulus (GPa) = 70.53216 71.11362 70.82289
# Shear Modulus (GPa) = 21.14812 22.76969 21.95891
#
# Velocity S-wave (km/s) = 3.52856 3.66134 3.59556
# Velocity P-wave (km/s) = 7.62404 7.72925 7.67683
#
# Compressibility (1/GPa) = 0.01417793
#
# Stress axis : x y z
#
# Youngs Moduli (GPa) = 64.13249 64.13332 42.41412
#
# Poissons Ratio (x) = 0.19240 0.36672
# Poissons Ratio (y) = 0.19240 0.36671
# Poissons Ratio (z) = 0.55450 0.55450
#
# Static dielectric constant tensor:
#      x y z
#    x 3.126750 0.000000 0.000000 
#    y 0.000000 3.126740 0.000000 
#    z 0.000000 0.000000 3.282250 
# 
# 
# High freq. dielectric constant tensor:
#      x y z
#    x 1.653230 0.000000 0.000000 
#    y 0.000000 1.653230 0.000000 
#    z 0.000000 0.000000 1.663850 
# 
# From -- ./inp_files/4401.got.cif
#   From: 2010.03.12/outbox.cif.g09.slc.cpg/sg129_3_cif.got.tgz:4401.got - 2010.04.06 17:19:44.
