data_PCOD8315601
_publ_section_title
;
Structure prediction by ZEFSAII (Michael W. Deem and Ramdas Pophale) SiO2 
 PCOD8315601
Probable space group: P 4/N C C
;
_chemical_formula_sum "Si O2"
_cell_formula_units_Z 64
_cell_length_a 19.126611
_cell_length_b 19.126611
_cell_length_c 9.008285
_cell_angle_alpha 90.000000
_cell_angle_beta 90.000000
_cell_angle_gamma 90.000000
_cell_volume 3295.476114
_symmetry_space_group_name_H-M "P 4/N C C"
_symmetry_group_IT_number 130
_symmetry_cell_setting 'tetragonal'
loop_
_space_group_symop_operation_xyz
x,y,z
1/2-y,x,z
1/2-x,1/2-y,z
y,1/2-x,z
1/2+x,-y,1/2-z
-x,1/2+y,1/2-z
1/2+y,1/2+x,1/2-z
-y,-x,1/2-z
-x,-y,-z
1/2+y,-x,-z
1/2+x,1/2+y,-z
-y,1/2+x,-z
1/2-x,y,1/2+z
x,1/2-y,1/2+z
1/2-y,1/2-x,1/2+z
y,x,1/2+z
loop_
_atom_site_type_symbol
_atom_site_label
_atom_site_fract_x
_atom_site_fract_y
_atom_site_fract_z
Si Si1 0.603801 0.000876 0.176475
Si Si2 0.542581 0.243151 0.786919
Si Si3 0.266382 0.639683 0.036692
Si Si4 0.100633 0.001716 0.673907
O O1 0.571015 0.932962 0.255096
O O2 0.570560 0.070560 0.250000
O O3 0.686474 0.997127 0.205323
O O4 0.586819 0.000210 0.001717
O O5 0.617024 0.256480 0.705956
O O6 0.497043 0.183313 0.707544
O O7 0.567245 0.218126 0.949683
O O8 0.193586 0.670748 0.976663
O O9 0.066533 0.933468 0.750000
#
# Coordination Sequence:
#
# PCOD8315601 Si02
#       4
#    16  16  16  16
#     4  11  24  40  63  89 121 161 207 260 305 362
#     4  12  24  37  60  87 120 164 204 250 304 358
#     4  11  22  36  54  84 124 163 200 238 290 363
#     4  11  24  40  63  89 121 161 207 260 305 362
#
# _framework density 19.420562
#
# number of rings (size 3 to 8) (size 9 to 14) (size 15 to 20)
#    0.000    0.750    2.500    7.500    7.000    2.000 
#    0.000    0.000    0.000    0.750    0.000    3.500 
#    0.000    0.000    0.000    0.000    0.000    0.000 
#
# Total GULP energy -793759.687918 kJ/mol
# GULP energy per Si atom -12402.495124 kJ/mol
# Density = 1.937636 g / cm^3
# Si number density = 19.420562 Si / 1000 Ang^3
#
#
#
# Elastic Constant Matrix: (Units=GPa)
#
#
# Indices 1 2 3 4 5 6 
#
# 1 93.4259 33.4741 43.8578 0.0000 0.0000 0.0000
# 2 33.4741 93.4266 43.8576 0.0000 0.0000 0.0000
# 3 43.8578 43.8576 123.6257 0.0000 0.0000 0.0000
# 4 0.0000 0.0000 0.0000 30.7807 0.0000 0.0000
# 5 0.0000 0.0000 0.0000 0.0000 30.7805 0.0000
# 6 0.0000 0.0000 0.0000 0.0000 0.0000 21.4949
#
#
#
# Elastic Compliance Matrix: (Units=1/GPa)
#
#
# Indices 1 2 3 4 5 6 
#
# 1 0.013560 -0.003120 -0.003704 0.000000 0.000000 0.000000
# 2 -0.003120 0.013560 -0.003704 0.000000 0.000000 0.000000
# 3 -0.003704 -0.003704 0.010717 0.000000 0.000000 0.000000
# 4 0.000000 0.000000 0.000000 0.032488 0.000000 0.000000
# 5 0.000000 0.000000 0.000000 0.000000 0.032488 0.000000
# 6 0.000000 0.000000 0.000000 0.000000 0.000000 0.046523
#
#
# Mechanical properties :
#
#
# Convention : Reuss Voigt Hill
#
# Bulk Modulus (GPa) = 59.58682 61.42859 60.50770
# Shear Modulus (GPa) = 28.41153 29.23046 28.82099
#
# Velocity S-wave (km/s) = 3.82902 3.88381 3.85651
# Velocity P-wave (km/s) = 7.09207 7.19801 7.14523
#
# Compressibility (1/GPa) = 0.01678224
#
# Stress axis : x y z
#
# Youngs Moduli (GPa) = 73.74507 73.74587 93.31052
#
# Poissons Ratio (x) = 0.23007 0.34561
# Poissons Ratio (y) = 0.23007 0.34560
# Poissons Ratio (z) = 0.27314 0.27314
#
# Static dielectric constant tensor:
#      x y z
#    x 3.356980 0.000000 0.000000 
#    y 0.000000 3.356970 0.000000 
#    z 0.000000 0.000000 3.768840 
# 
# 
# High freq. dielectric constant tensor:
#      x y z
#    x 1.733560 0.000000 0.000000 
#    y 0.000000 1.733560 0.000000 
#    z 0.000000 0.000000 1.787940 
# 
# From -- ./inp_files/711.got.cif
#   From: 2010.03.12/outbox.cif.g09.slc.cpg/sg130_1_cif.got.tgz:711.got - 2010.04.06 17:30:23.
