data_PCOD8315138
_publ_section_title
;
Structure prediction by ZEFSAII (Michael W. Deem and Ramdas Pophale) SiO2 
 PCOD8315138
Probable space group: P 4/N M M
;
_chemical_formula_sum "Si O2"
_cell_formula_units_Z 88
_cell_length_a 12.618338
_cell_length_b 12.618338
_cell_length_c 31.244618
_cell_angle_alpha 90.000000
_cell_angle_beta 90.000000
_cell_angle_gamma 90.000000
_cell_volume 4974.844749
_symmetry_space_group_name_H-M "P 4/N M M"
_symmetry_group_IT_number 129
_symmetry_cell_setting 'tetragonal'
loop_
_space_group_symop_operation_xyz
x,y,z
1/2-y,x,z
1/2-x,1/2-y,z
y,1/2-x,z
1/2+x,-y,-z
-x,1/2+y,-z
1/2+y,1/2+x,-z
-y,-x,-z
-x,-y,-z
1/2+y,-x,-z
1/2+x,1/2+y,-z
-y,1/2+x,-z
1/2-x,y,z
x,1/2-y,z
1/2-y,1/2-x,z
y,x,z
loop_
_atom_site_type_symbol
_atom_site_label
_atom_site_fract_x
_atom_site_fract_y
_atom_site_fract_z
Si Si1 0.624136 0.250000 0.861344
Si Si2 0.630502 0.369498 0.000000
Si Si3 0.958787 0.373259 0.090352
Si Si4 0.250000 0.624213 0.764664
Si Si5 0.628437 0.457946 0.371819
Si Si6 0.129207 0.544832 0.456884
Si Si7 0.455166 0.627518 0.713451
O O1 0.750000 0.250000 0.862749
O O2 0.583053 0.144648 0.885087
O O3 0.580435 0.250000 0.812990
O O4 0.553862 0.392790 0.039634
O O5 0.750000 0.384807 0.016984
O O6 0.979272 0.250000 0.100704
O O7 0.060221 0.439780 0.106220
O O8 0.250000 0.750000 0.763502
O O9 0.356050 0.583868 0.741084
O O10 0.750000 0.477101 0.360134
O O11 0.572247 0.572247 0.373184
O O12 0.619960 0.400090 0.417283
O O13 0.573711 0.383510 0.336449
O O14 0.110154 0.610154 0.500000
O O15 0.250000 0.509370 0.454040
O O16 0.062656 0.437345 0.455870
O O17 0.481325 0.750000 0.723581
O O18 0.558003 0.558003 0.725472
#
# Coordination Sequence:
#
# PCOD8315138 Si02
#       7
#     8   8  16   8  16  16  16
#     4   9  18  34  52  75  99 135 179 214 253 303
#     4   9  15  28  50  74 100 132 176 222 256 298
#     4  10  19  31  50  76 105 137 174 215 262 311
#     4   9  18  34  56  75 101 133 175 220 255 303
#     4  10  20  34  53  77 105 136 174 218 263 313
#     4  10  21  35  51  74 102 134 172 212 257 310
#     4  10  20  34  54  81 108 138 174 215 266 318
#
# _framework density 17.688994000000001
#
# number of rings (size 3 to 8) (size 9 to 14) (size 15 to 20)
#    0.000    2.273    1.818    1.364    0.000    3.455 
#    0.000    0.000    0.000    7.091    0.000    6.364 
#    0.000    0.000    0.000    0.000    0.000    0.000 
#
# Total GULP energy -1091268.809360 kJ/mol
# GULP energy per Si atom -12400.781925 kJ/mol
# Density = 1.764873 g / cm^3
# Si number density = 17.688994 Si / 1000 Ang^3
#
#
#
# Elastic Constant Matrix: (Units=GPa)
#
#
# Indices 1 2 3 4 5 6 
#
# 1 102.4205 59.5930 29.5308 0.0000 0.0000 0.0000
# 2 59.5930 102.4205 29.5308 0.0000 0.0000 0.0000
# 3 29.5308 29.5308 91.0569 0.0000 0.0000 0.0000
# 4 0.0000 0.0000 0.0000 17.1320 0.0000 0.0000
# 5 0.0000 0.0000 0.0000 0.0000 17.1320 0.0000
# 6 0.0000 0.0000 0.0000 0.0000 0.0000 21.7295
#
#
#
# Elastic Compliance Matrix: (Units=1/GPa)
#
#
# Indices 1 2 3 4 5 6 
#
# 1 0.015175 -0.008175 -0.002270 0.000000 0.000000 0.000000
# 2 -0.008175 0.015175 -0.002270 0.000000 0.000000 0.000000
# 3 -0.002270 -0.002270 0.012455 0.000000 0.000000 0.000000
# 4 0.000000 0.000000 0.000000 0.058370 0.000000 0.000000
# 5 0.000000 0.000000 0.000000 0.000000 0.058370 0.000000
# 6 0.000000 0.000000 0.000000 0.000000 0.000000 0.046020
#
#
# Mechanical properties :
#
#
# Convention : Reuss Voigt Hill
#
# Bulk Modulus (GPa) = 57.55784 59.24523 58.40153
# Shear Modulus (GPa) = 21.11611 23.01494 22.06553
#
# Velocity S-wave (km/s) = 3.45881 3.61097 3.53571
# Velocity P-wave (km/s) = 6.96854 7.13799 7.05377
#
# Compressibility (1/GPa) = 0.01737383
#
# Stress axis : x y z
#
# Youngs Moduli (GPa) = 65.89930 65.89930 80.29150
#
# Poissons Ratio (x) = 0.53871 0.18227
# Poissons Ratio (y) = 0.53871 0.18227
# Poissons Ratio (z) = 0.14960 0.14960
#
# Static dielectric constant tensor:
#      x y z
#    x 3.106770 0.000000 0.000000 
#    y 0.000000 3.106770 0.000000 
#    z 0.000000 0.000000 3.423250 
# 
# 
# High freq. dielectric constant tensor:
#      x y z
#    x 1.669860 0.000000 0.000000 
#    y 0.000000 1.669860 0.000000 
#    z 0.000000 0.000000 1.691770 
# 
# From -- ./inp_files/7797.got.cif
#   From: 2010.03.12/outbox.cif.g09.slc.cpg/sg129_4_cif.got.tgz:7797.got - 2010.04.06 17:19:44.
