data_PCOD8315290
_publ_section_title
;
Structure prediction by ZEFSAII (Michael W. Deem and Ramdas Pophale) SiO2 
 PCOD8315290
Probable space group: P 4/N M M
;
_chemical_formula_sum "Si O2"
_cell_formula_units_Z 112
_cell_length_a 13.868132
_cell_length_b 13.868132
_cell_length_c 35.861046
_cell_angle_alpha 90.000000
_cell_angle_beta 90.000000
_cell_angle_gamma 90.000000
_cell_volume 6896.978726
_symmetry_space_group_name_H-M "P 4/N M M"
_symmetry_group_IT_number 129
_symmetry_cell_setting 'tetragonal'
loop_
_space_group_symop_operation_xyz
x,y,z
1/2-y,x,z
1/2-x,1/2-y,z
y,1/2-x,z
1/2+x,-y,-z
-x,1/2+y,-z
1/2+y,1/2+x,-z
-y,-x,-z
-x,-y,-z
1/2+y,-x,-z
1/2+x,1/2+y,-z
-y,1/2+x,-z
1/2-x,y,z
x,1/2-y,z
1/2-y,1/2-x,z
y,x,z
loop_
_atom_site_type_symbol
_atom_site_label
_atom_site_fract_x
_atom_site_fract_y
_atom_site_fract_z
Si Si1 0.637587 0.141244 0.102811
Si Si2 0.021891 0.637474 0.665245
Si Si3 0.013069 0.859108 0.746301
Si Si4 0.362075 0.981168 0.173314
Si Si5 0.864548 0.022261 0.030355
Si Si6 0.860342 0.483618 0.388861
Si Si7 0.516100 0.360114 0.525385
O O1 0.750000 0.140497 0.109854
O O2 0.603124 0.250000 0.092574
O O3 0.591205 0.103595 0.141183
O O4 0.608956 0.068210 0.070137
O O5 0.998165 0.750000 0.658846
O O6 0.067384 0.618514 0.707049
O O7 0.102686 0.605144 0.635945
O O8 0.923706 0.576295 0.659302
O O9 0.980918 0.750000 0.746570
O O10 0.068269 0.882714 0.785550
O O11 0.912660 0.912660 0.746204
O O12 0.250000 0.005980 0.168583
O O13 0.419450 0.080551 0.169016
O O14 0.750000 0.004849 0.025586
O O15 0.900983 0.099018 0.000000
O O16 0.920219 0.920219 0.026181
O O17 0.750000 0.506100 0.379125
O O18 0.919731 0.580270 0.379540
O O19 0.873281 0.452866 0.431753
O O20 0.604284 0.395717 0.500000
O O21 0.492839 0.250000 0.515744
O O22 0.419775 0.419775 0.516031
#
# Coordination Sequence:
#
# PCOD8315290 Si02
#       7
#    16  16  16  16  16  16  16
#     4   9  17  29  45  64  86 114 148 183 217 255
#     4   9  17  29  44  63  89 119 151 186 222 263
#     4   8  14  24  38  57  82 113 146 179 215 254
#     4   9  16  26  41  61  86 114 143 177 216 258
#     4  10  20  33  50  71  93 118 149 184 222 264
#     4   9  18  32  49  68  89 114 145 182 223 264
#     4   9  18  32  49  69  92 117 146 180 217 258
#
# _framework density 16.238994000000002
#
# number of rings (size 3 to 8) (size 9 to 14) (size 15 to 20)
#    0.000    3.000    0.000    0.857    0.000    2.571 
#    0.000    6.429    0.000    2.571    0.000    6.000 
#    0.000    0.000    0.000    9.000    0.000    0.143 
#
# Total GULP energy -1387681.533118 kJ/mol
# GULP energy per Si atom -12390.013689 kJ/mol
# Density = 1.620203 g / cm^3
# Si number density = 16.238994 Si / 1000 Ang^3
#
#
#
# Elastic Constant Matrix: (Units=GPa)
#
#
# Indices 1 2 3 4 5 6 
#
# 1 73.8183 36.5466 53.1471 0.0000 0.0000 0.0000
# 2 36.5466 73.8200 53.1472 0.0000 0.0000 0.0000
# 3 53.1471 53.1472 112.9046 0.0000 0.0000 0.0000
# 4 0.0000 0.0000 0.0000 24.6304 0.0000 0.0000
# 5 0.0000 0.0000 0.0000 0.0000 24.6303 0.0000
# 6 0.0000 0.0000 0.0000 0.0000 0.0000 15.2525
#
#
#
# Elastic Compliance Matrix: (Units=1/GPa)
#
#
# Indices 1 2 3 4 5 6 
#
# 1 0.021703 -0.005127 -0.007803 0.000000 0.000000 0.000000
# 2 -0.005127 0.021702 -0.007802 0.000000 0.000000 0.000000
# 3 -0.007803 -0.007802 0.016203 0.000000 0.000000 0.000000
# 4 0.000000 0.000000 0.000000 0.040600 0.000000 0.000000
# 5 0.000000 0.000000 0.000000 0.000000 0.040600 0.000000
# 6 0.000000 0.000000 0.000000 0.000000 0.000000 0.065563
#
#
# Mechanical properties :
#
#
# Convention : Reuss Voigt Hill
#
# Bulk Modulus (GPa) = 55.11581 60.69163 57.90372
# Shear Modulus (GPa) = 19.69411 20.74944 20.22177
#
# Velocity S-wave (km/s) = 3.48626 3.57845 3.53265
# Velocity P-wave (km/s) = 7.08657 7.38436 7.23700
#
# Compressibility (1/GPa) = 0.01814361
#
# Stress axis : x y z
#
# Youngs Moduli (GPa) = 46.07706 46.07856 61.71815
#
# Poissons Ratio (x) = 0.23624 0.48156
# Poissons Ratio (y) = 0.23624 0.48155
# Poissons Ratio (z) = 0.35952 0.35952
#
# Static dielectric constant tensor:
#      x y z
#    x 2.924380 0.000000 0.000000 
#    y 0.000000 2.924380 0.000000 
#    z 0.000000 0.000000 3.517220 
# 
# 
# High freq. dielectric constant tensor:
#      x y z
#    x 1.606900 0.000000 0.000000 
#    y 0.000000 1.606900 0.000000 
#    z 0.000000 0.000000 1.644910 
# 
# From -- ./inp_files/7884.got.cif
#   From: 2010.03.12/outbox.cif.g09.slc.cpg/sg129_4_cif.got.tgz:7884.got - 2010.04.06 17:19:44.
