data_PCOD8315498
_publ_section_title
;
Structure prediction by ZEFSAII (Michael W. Deem and Ramdas Pophale) SiO2 
 PCOD8315498
Probable space group: P 4/N C C
;
_chemical_formula_sum "Si O2"
_cell_formula_units_Z 80
_cell_length_a 12.122600
_cell_length_b 12.122600
_cell_length_c 30.031298
_cell_angle_alpha 90.000000
_cell_angle_beta 90.000000
_cell_angle_gamma 90.000000
_cell_volume 4413.322396
_symmetry_space_group_name_H-M "P 4/N C C"
_symmetry_group_IT_number 130
_symmetry_cell_setting 'tetragonal'
loop_
_space_group_symop_operation_xyz
x,y,z
1/2-y,x,z
1/2-x,1/2-y,z
y,1/2-x,z
1/2+x,-y,1/2-z
-x,1/2+y,1/2-z
1/2+y,1/2+x,1/2-z
-y,-x,1/2-z
-x,-y,-z
1/2+y,-x,-z
1/2+x,1/2+y,-z
-y,1/2+x,-z
1/2-x,y,1/2+z
x,1/2-y,1/2+z
1/2-y,1/2-x,1/2+z
y,x,1/2+z
loop_
_atom_site_type_symbol
_atom_site_label
_atom_site_fract_x
_atom_site_fract_y
_atom_site_fract_z
Si Si1 0.444784 0.035784 0.433359
Si Si2 0.875467 0.618805 0.971362
Si Si3 0.250000 0.750000 0.828194
Si Si4 0.638354 0.138354 0.750000
Si Si5 0.581282 0.800984 0.207222
Si Si6 0.529615 0.243070 0.380615
O O1 0.415753 0.098607 0.478473
O O2 0.479818 0.128759 0.398024
O O3 0.544830 0.949121 0.438328
O O4 0.336553 0.965991 0.418886
O O5 0.904285 0.746521 0.962490
O O6 0.345331 0.714159 0.793780
O O7 0.285119 0.850783 0.859940
O O8 0.513013 0.159931 0.760445
O O9 0.614125 0.676937 0.218466
O O10 0.548810 0.800750 0.155562
#
# Coordination Sequence:
#
# PCOD8315498 Si02
#       6
#    16  16   8   8  16  16
#     4  11  22  36  59  88 112 151 190 251 288 344
#     4  10  22  40  58  79 115 159 194 233 298 356
#     4   9  22  38  56  85 114 156 182 233 286 344
#     4   9  20  40  56  81 122 154 184 227 292 348
#     4  10  20  35  60  90 111 146 192 234 282 339
#     4  11  21  37  59  87 117 142 195 242 294 334
#
# _framework density 18.126932
#
# number of rings (size 3 to 8) (size 9 to 14) (size 15 to 20)
#    0.000    1.800    4.000    0.000    2.800    3.600 
#    0.000    0.000    0.000    0.000    0.000    0.000 
#    0.000    0.000    0.000    0.000    0.000    0.000 
#
# Total GULP energy -991616.216033 kJ/mol
# GULP energy per Si atom -12395.202700 kJ/mol
# Density = 1.808567 g / cm^3
# Si number density = 18.126932 Si / 1000 Ang^3
#
#
#
# Elastic Constant Matrix: (Units=GPa)
#
#
# Indices 1 2 3 4 5 6 
#
# 1 123.5154 59.8820 35.5476 0.0000 0.0000 0.0000
# 2 59.8820 123.5154 35.5476 0.0000 0.0000 0.0000
# 3 35.5476 35.5476 58.8132 0.0000 0.0000 0.0000
# 4 0.0000 0.0000 0.0000 23.5720 0.0000 0.0000
# 5 0.0000 0.0000 0.0000 0.0000 23.5720 0.0000
# 6 0.0000 0.0000 0.0000 0.0000 0.0000 84.1210
#
#
#
# Elastic Compliance Matrix: (Units=1/GPa)
#
#
# Indices 1 2 3 4 5 6 
#
# 1 0.011418 -0.004297 -0.004304 0.000000 0.000000 0.000000
# 2 -0.004297 0.011418 -0.004304 0.000000 0.000000 0.000000
# 3 -0.004304 -0.004304 0.022206 0.000000 0.000000 0.000000
# 4 0.000000 0.000000 0.000000 0.042423 0.000000 0.000000
# 5 0.000000 0.000000 0.000000 0.000000 0.042423 0.000000
# 6 0.000000 0.000000 0.000000 0.000000 0.000000 0.011888
#
#
# Mechanical properties :
#
#
# Convention : Reuss Voigt Hill
#
# Bulk Modulus (GPa) = 51.99742 63.08874 57.54308
# Shear Modulus (GPa) = 28.73609 37.91079 33.32344
#
# Velocity S-wave (km/s) = 3.98586 4.57815 4.29224
# Velocity P-wave (km/s) = 7.06614 7.92625 7.50852
#
# Compressibility (1/GPa) = 0.01923172
#
# Stress axis : x y z
#
# Youngs Moduli (GPa) = 87.58028 87.58028 45.03293
#
# Poissons Ratio (x) = 0.37633 0.19383
# Poissons Ratio (y) = 0.37633 0.19383
# Poissons Ratio (z) = 0.37696 0.37696
#
# Static dielectric constant tensor:
#      x y z
#    x 3.386180 0.000000 0.000000 
#    y 0.000000 3.386180 0.000000 
#    z 0.000000 0.000000 3.327570 
# 
# 
# High freq. dielectric constant tensor:
#      x y z
#    x 1.707260 0.000000 0.000000 
#    y 0.000000 1.707260 0.000000 
#    z 0.000000 0.000000 1.696880 
# 
# From -- ./inp_files/4797.got.cif
#   From: 2010.03.12/outbox.cif.g09.slc.cpg/sg130_3_cif.got.tgz:4797.got - 2010.04.06 17:30:23.
