data_PCOD8315201
_publ_section_title
;
Structure prediction by ZEFSAII (Michael W. Deem and Ramdas Pophale) SiO2 
 PCOD8315201
Probable space group: P 4/N M M
;
_chemical_formula_sum "Si O2"
_cell_formula_units_Z 80
_cell_length_a 17.944648
_cell_length_b 17.944648
_cell_length_c 13.930827
_cell_angle_alpha 90.000000
_cell_angle_beta 90.000000
_cell_angle_gamma 90.000000
_cell_volume 4485.871061
_symmetry_space_group_name_H-M "P 4/N M M"
_symmetry_group_IT_number 129
_symmetry_cell_setting 'tetragonal'
loop_
_space_group_symop_operation_xyz
x,y,z
1/2-y,x,z
1/2-x,1/2-y,z
y,1/2-x,z
1/2+x,-y,-z
-x,1/2+y,-z
1/2+y,1/2+x,-z
-y,-x,-z
-x,-y,-z
1/2+y,-x,-z
1/2+x,1/2+y,-z
-y,1/2+x,-z
1/2-x,y,z
x,1/2-y,z
1/2-y,1/2-x,z
y,x,z
loop_
_atom_site_type_symbol
_atom_site_label
_atom_site_fract_x
_atom_site_fract_y
_atom_site_fract_z
Si Si1 0.944418 0.164936 0.551954
Si Si2 0.436845 0.063156 0.097618
Si Si3 0.061571 0.061571 0.880999
Si Si4 0.165472 0.543424 0.203554
Si Si5 0.832289 0.952184 0.614780
Si Si6 0.161926 0.954024 0.772886
O O1 0.880344 0.119657 0.500000
O O2 0.917893 0.250000 0.547922
O O3 0.960415 0.141040 0.660862
O O4 0.021161 0.152637 0.493794
O O5 0.470127 0.137376 0.146315
O O6 0.499131 0.000870 0.111319
O O7 0.415776 0.084225 0.988653
O O8 0.029192 0.133340 0.824799
O O9 0.250000 0.560505 0.171432
O O10 0.160586 0.524015 0.316320
O O11 0.117167 0.617870 0.183274
O O12 0.750000 0.917027 0.623713
O O13 0.890392 0.890392 0.646835
O O14 0.250000 0.944182 0.791126
#
# Coordination Sequence:
#
# PCOD8315201 Si02
#       6
#    16   8   8  16  16  16
#     4  10  20  32  48  74 106 142 179 213 254 310
#     4   9  18  36  55  77 102 134 173 220 270 324
#     4   9  20  36  56  76 101 133 177 224 271 313
#     4  10  19  33  54  81 110 140 174 216 269 324
#     4  10  20  33  50  75 106 138 178 221 266 317
#     4  10  21  35  53  79 109 143 183 220 261 316
#
# _framework density 17.833770000000001
#
# number of rings (size 3 to 8) (size 9 to 14) (size 15 to 20)
#    0.000    2.200    3.000    0.000    1.400    2.000 
#    0.000    2.000    0.000    0.600    0.000    7.000 
#    0.000    0.000    0.000    0.000    0.000    0.000 
#
# Total GULP energy -991776.678734 kJ/mol
# GULP energy per Si atom -12397.208484 kJ/mol
# Density = 1.779318 g / cm^3
# Si number density = 17.833770 Si / 1000 Ang^3
#
#
#
# Elastic Constant Matrix: (Units=GPa)
#
#
# Indices 1 2 3 4 5 6 
#
# 1 88.8442 55.7393 30.9039 0.0000 0.0000 0.0000
# 2 55.7393 88.8429 30.9042 0.0000 0.0000 0.0000
# 3 30.9039 30.9042 102.7301 0.0000 0.0000 0.0000
# 4 0.0000 0.0000 0.0000 18.8724 0.0000 0.0000
# 5 0.0000 0.0000 0.0000 0.0000 18.8726 0.0000
# 6 0.0000 0.0000 0.0000 0.0000 0.0000 18.5941
#
#
#
# Elastic Compliance Matrix: (Units=1/GPa)
#
#
# Indices 1 2 3 4 5 6 
#
# 1 0.019072 -0.011135 -0.002388 0.000000 0.000000 0.000000
# 2 -0.011135 0.019073 -0.002388 0.000000 0.000000 0.000000
# 3 -0.002388 -0.002388 0.011171 0.000000 0.000000 0.000000
# 4 0.000000 0.000000 0.000000 0.052987 0.000000 0.000000
# 5 0.000000 0.000000 0.000000 0.000000 0.052987 0.000000
# 6 0.000000 0.000000 0.000000 0.000000 0.000000 0.053780
#
#
# Mechanical properties :
#
#
# Convention : Reuss Voigt Hill
#
# Bulk Modulus (GPa) = 57.16145 57.27910 57.22027
# Shear Modulus (GPa) = 20.26566 22.12583 21.19575
#
# Velocity S-wave (km/s) = 3.37466 3.52614 3.45123
# Velocity P-wave (km/s) = 6.87796 6.98328 6.93082
#
# Compressibility (1/GPa) = 0.01749431
#
# Stress axis : x y z
#
# Youngs Moduli (GPa) = 52.43240 52.43142 89.51884
#
# Poissons Ratio (x) = 0.58383 0.21374
# Poissons Ratio (y) = 0.58384 0.21375
# Poissons Ratio (z) = 0.12519 0.12520
#
# Static dielectric constant tensor:
#      x y z
#    x 3.155420 0.000000 0.000000 
#    y 0.000000 3.155430 0.000000 
#    z 0.000000 0.000000 3.423670 
# 
# 
# High freq. dielectric constant tensor:
#      x y z
#    x 1.675780 0.000000 0.000000 
#    y 0.000000 1.675780 0.000000 
#    z 0.000000 0.000000 1.692800 
# 
# From -- ./inp_files/4650.got.cif
#   From: 2010.03.12/outbox.cif.g09.slc.cpg/sg129_3_cif.got.tgz:4650.got - 2010.04.06 17:19:44.
