data_PCOD8315360
_publ_section_title
;
Structure prediction by ZEFSAII (Michael W. Deem and Ramdas Pophale) SiO2 
 PCOD8315360
Probable space group: P 4/N M M
;
_chemical_formula_sum "Si O2"
_cell_formula_units_Z 96
_cell_length_a 21.637411
_cell_length_b 21.637411
_cell_length_c 11.530132
_cell_angle_alpha 90.000000
_cell_angle_beta 90.000000
_cell_angle_gamma 90.000000
_cell_volume 5398.149006
_symmetry_space_group_name_H-M "P 4/N M M"
_symmetry_group_IT_number 129
_symmetry_cell_setting 'tetragonal'
loop_
_space_group_symop_operation_xyz
x,y,z
1/2-y,x,z
1/2-x,1/2-y,z
y,1/2-x,z
1/2+x,-y,-z
-x,1/2+y,-z
1/2+y,1/2+x,-z
-y,-x,-z
-x,-y,-z
1/2+y,-x,-z
1/2+x,1/2+y,-z
-y,1/2+x,-z
1/2-x,y,z
x,1/2-y,z
1/2-y,1/2-x,z
y,x,z
loop_
_atom_site_type_symbol
_atom_site_label
_atom_site_fract_x
_atom_site_fract_y
_atom_site_fract_z
Si Si1 0.820829 0.437743 0.748061
Si Si2 0.581247 0.821604 0.378218
Si Si3 0.319431 0.482888 0.857202
Si Si4 0.607098 0.180828 0.722440
Si Si5 0.460472 0.863324 0.494781
Si Si6 0.995408 0.405379 0.058545
O O1 0.750000 0.445907 0.785546
O O2 0.837656 0.365309 0.753995
O O3 0.831266 0.462691 0.619243
O O4 0.863301 0.477255 0.833476
O O5 0.580984 0.750000 0.418505
O O6 0.647740 0.852261 0.404882
O O7 0.568973 0.827030 0.241157
O O8 0.529779 0.861206 0.446245
O O9 0.250000 0.482525 0.906017
O O10 0.335321 0.549560 0.804102
O O11 0.364953 0.468594 0.962828
O O12 0.631554 0.250000 0.743249
O O13 0.585622 0.174744 0.588920
O O14 0.434079 0.934079 0.500000
O O15 0.041142 0.458859 0.104254
O O16 0.934866 0.434866 0.000000
#
# Coordination Sequence:
#
# PCOD8315360 Si02
#       6
#    16  16  16  16  16  16
#     4  11  21  34  52  75 105 137 172 212 256 303
#     4  10  20  34  55  81 109 141 175 216 267 323
#     4   9  17  34  55  74  99 133 175 216 259 306
#     4   9  17  32  53  75 104 137 169 208 253 302
#     4   9  19  35  54  78 104 136 176 218 263 309
#     4  11  22  35  50  71 101 134 174 218 261 306
#
# _framework density 17.783873
#
# number of rings (size 3 to 8) (size 9 to 14) (size 15 to 20)
#    0.000    2.167    1.667    3.500    0.000    1.500 
#    0.000    0.000    0.000    3.000    0.000    0.000 
#    0.000    3.000    0.000    0.333    0.000    0.000 
#
# Total GULP energy -1190299.301418 kJ/mol
# GULP energy per Si atom -12398.951056 kJ/mol
# Density = 1.774340 g / cm^3
# Si number density = 17.783873 Si / 1000 Ang^3
#
#
#
# Elastic Constant Matrix: (Units=GPa)
#
#
# Indices 1 2 3 4 5 6 
#
# 1 87.8539 53.4793 36.7784 0.0000 0.0000 0.0000
# 2 53.4793 87.8539 36.7784 0.0000 0.0000 0.0000
# 3 36.7784 36.7784 73.6348 0.0000 0.0000 0.0000
# 4 0.0000 0.0000 0.0000 21.2046 0.0000 0.0000
# 5 0.0000 0.0000 0.0000 0.0000 21.2046 0.0000
# 6 0.0000 0.0000 0.0000 0.0000 0.0000 24.6685
#
#
#
# Elastic Compliance Matrix: (Units=1/GPa)
#
#
# Indices 1 2 3 4 5 6 
#
# 1 0.019326 -0.009765 -0.004775 0.000000 0.000000 0.000000
# 2 -0.009765 0.019326 -0.004775 0.000000 0.000000 0.000000
# 3 -0.004775 -0.004775 0.018351 0.000000 0.000000 0.000000
# 4 0.000000 0.000000 0.000000 0.047160 0.000000 0.000000
# 5 0.000000 0.000000 0.000000 0.000000 0.047160 0.000000
# 6 0.000000 0.000000 0.000000 0.000000 0.000000 0.040538
#
#
# Mechanical properties :
#
#
# Convention : Reuss Voigt Hill
#
# Bulk Modulus (GPa) = 54.43341 55.93497 55.18419
# Shear Modulus (GPa) = 21.13137 21.56930 21.35034
#
# Velocity S-wave (km/s) = 3.45081 3.48639 3.46865
# Velocity P-wave (km/s) = 6.82292 6.90851 6.86585
#
# Compressibility (1/GPa) = 0.01837107
#
# Stress axis : x y z
#
# Youngs Moduli (GPa) = 51.74374 51.74374 54.49353
#
# Poissons Ratio (x) = 0.50529 0.26022
# Poissons Ratio (y) = 0.50529 0.26022
# Poissons Ratio (z) = 0.24709 0.24709
#
# Static dielectric constant tensor:
#      x y z
#    x 3.154980 0.000000 0.000000 
#    y 0.000000 3.154980 0.000000 
#    z 0.000000 0.000000 3.233660 
# 
# 
# High freq. dielectric constant tensor:
#      x y z
#    x 1.675580 0.000000 0.000000 
#    y 0.000000 1.675580 0.000000 
#    z 0.000000 0.000000 1.684590 
# 
# From -- ./inp_files/3810.got.cif
#   From: 2010.03.12/outbox.cif.g09.slc.cpg/sg129_2_cif.got.tgz:3810.got - 2010.04.06 17:19:44.
