data_PCOD8315318
_publ_section_title
;
Structure prediction by ZEFSAII (Michael W. Deem and Ramdas Pophale) SiO2 
 PCOD8315318
Probable space group: P 4/N M M
;
_chemical_formula_sum "Si O2"
_cell_formula_units_Z 88
_cell_length_a 13.270120
_cell_length_b 13.270120
_cell_length_c 28.219858
_cell_angle_alpha 90.000000
_cell_angle_beta 90.000000
_cell_angle_gamma 90.000000
_cell_volume 4969.406508
_symmetry_space_group_name_H-M "P 4/N M M"
_symmetry_group_IT_number 129
_symmetry_cell_setting 'tetragonal'
loop_
_space_group_symop_operation_xyz
x,y,z
1/2-y,x,z
1/2-x,1/2-y,z
y,1/2-x,z
1/2+x,-y,-z
-x,1/2+y,-z
1/2+y,1/2+x,-z
-y,-x,-z
-x,-y,-z
1/2+y,-x,-z
1/2+x,1/2+y,-z
-y,1/2+x,-z
1/2-x,y,z
x,1/2-y,z
1/2-y,1/2-x,z
y,x,z
loop_
_atom_site_type_symbol
_atom_site_label
_atom_site_fract_x
_atom_site_fract_y
_atom_site_fract_z
Si Si1 0.971120 0.132048 0.403239
Si Si2 0.134761 0.865239 0.500000
Si Si3 0.866572 0.467372 0.318083
Si Si4 0.868086 0.469729 0.767388
Si Si5 0.130560 0.862318 0.137221
Si Si6 0.530358 0.367749 0.041896
O O1 0.987994 0.250000 0.396022
O O2 0.933874 0.104830 0.455725
O O3 0.888440 0.092445 0.366402
O O4 0.077671 0.077671 0.394047
O O5 0.250000 0.883115 0.514949
O O6 0.750000 0.496934 0.316295
O O7 0.892715 0.393846 0.274596
O O8 0.929508 0.570492 0.315038
O O9 0.750000 0.492986 0.767941
O O10 0.906401 0.420940 0.816311
O O11 0.924479 0.575522 0.759378
O O12 0.250000 0.854465 0.137161
O O13 0.083583 0.750000 0.137178
O O14 0.093458 0.921140 0.090818
O O15 0.505528 0.250000 0.043243
O O16 0.425792 0.425792 0.033099
O O17 0.609133 0.390868 0.000000
#
# Coordination Sequence:
#
# PCOD8315318 Si02
#       6
#    16   8  16  16  16  16
#     4  10  20  33  50  73 101 133 168 205 245 291
#     4   9  17  30  50  74  97 125 164 208 251 293
#     4  10  21  36  54  76 100 127 162 204 250 300
#     4  10  20  33  50  74 103 135 171 208 247 292
#     4   9  17  30  49  71  95 126 164 205 247 289
#     4  10  20  33  50  73 100 131 168 208 251 301
#
# _framework density 17.708351
#
# number of rings (size 3 to 8) (size 9 to 14) (size 15 to 20)
#    0.000    2.273    0.000    3.000    0.000    4.545 
#    0.000    0.000    0.000    6.545    0.000    2.545 
#    0.000   13.091    0.000    0.000    0.000    0.000 
#
# Total GULP energy -1091422.223056 kJ/mol
# GULP energy per Si atom -12402.525262 kJ/mol
# Density = 1.766805 g / cm^3
# Si number density = 17.708351 Si / 1000 Ang^3
#
#
#
# Elastic Constant Matrix: (Units=GPa)
#
#
# Indices 1 2 3 4 5 6 
#
# 1 97.3591 42.3174 39.1575 0.0000 0.0000 0.0000
# 2 42.3174 97.3596 39.1576 0.0000 0.0000 0.0000
# 3 39.1575 39.1576 110.0625 0.0000 0.0000 0.0000
# 4 0.0000 0.0000 0.0000 26.5849 0.0000 0.0000
# 5 0.0000 0.0000 0.0000 0.0000 26.5849 0.0000
# 6 0.0000 0.0000 0.0000 0.0000 0.0000 15.6550
#
#
#
# Elastic Compliance Matrix: (Units=1/GPa)
#
#
# Indices 1 2 3 4 5 6 
#
# 1 0.013556 -0.004612 -0.003182 0.000000 0.000000 0.000000
# 2 -0.004612 0.013556 -0.003182 0.000000 0.000000 0.000000
# 3 -0.003182 -0.003182 0.011350 0.000000 0.000000 0.000000
# 4 0.000000 0.000000 0.000000 0.037615 0.000000 0.000000
# 5 0.000000 0.000000 0.000000 0.000000 0.037615 0.000000
# 6 0.000000 0.000000 0.000000 0.000000 0.000000 0.063877
#
#
# Mechanical properties :
#
#
# Convention : Reuss Voigt Hill
#
# Bulk Modulus (GPa) = 60.57218 60.67180 60.62199
# Shear Modulus (GPa) = 24.38736 26.04153 25.21444
#
# Velocity S-wave (km/s) = 3.71505 3.83897 3.77752
# Velocity P-wave (km/s) = 7.25822 7.34754 7.30302
#
# Compressibility (1/GPa) = 0.01650923
#
# Stress axis : x y z
#
# Youngs Moduli (GPa) = 73.76963 73.76993 88.10737
#
# Poissons Ratio (x) = 0.34025 0.28034
# Poissons Ratio (y) = 0.34025 0.28034
# Poissons Ratio (z) = 0.23472 0.23472
#
# Static dielectric constant tensor:
#      x y z
#    x 3.102540 0.000000 0.000000 
#    y 0.000000 3.102540 0.000000 
#    z 0.000000 0.000000 3.518700 
# 
# 
# High freq. dielectric constant tensor:
#      x y z
#    x 1.674510 0.000000 0.000000 
#    y 0.000000 1.674510 0.000000 
#    z 0.000000 0.000000 1.705770 
# 
# From -- ./inp_files/7776.got.cif
#   From: 2010.03.12/outbox.cif.g09.slc.cpg/sg129_4_cif.got.tgz:7776.got - 2010.04.06 17:19:44.
