data_PCOD8315798
_publ_section_title
;
Structure prediction by ZEFSAII (Michael W. Deem and Ramdas Pophale) SiO2 
 PCOD8315798
Probable space group: P 42/M M C
;
_chemical_formula_sum "Si O2"
_cell_formula_units_Z 112
_cell_length_a 18.259726
_cell_length_b 18.259726
_cell_length_c 25.428624
_cell_angle_alpha 90.000000
_cell_angle_beta 90.000000
_cell_angle_gamma 90.000000
_cell_volume 8478.350623
_symmetry_space_group_name_H-M "P 42/M M C"
_symmetry_group_IT_number 131
_symmetry_cell_setting 'tetragonal'
loop_
_space_group_symop_operation_xyz
x,y,z
-x,-y,z
-y,x,1/2+z
y,-x,1/2+z
-x,y,-z
x,-y,-z
y,x,1/2-z
-y,-x,1/2-z
-x,-y,-z
x,y,-z
y,-x,1/2-z
-y,x,1/2-z
x,-y,z
-x,y,z
-y,-x,1/2+z
y,x,1/2+z
loop_
_atom_site_type_symbol
_atom_site_label
_atom_site_fract_x
_atom_site_fract_y
_atom_site_fract_z
Si Si1 0.916504 0.129639 0.194186
Si Si2 0.913944 0.711003 0.835741
Si Si3 0.582327 0.087297 0.263869
Si Si4 0.147097 0.082951 0.091134
Si Si5 0.417793 0.086941 0.853718
Si Si6 0.085335 0.229961 0.056598
Si Si7 0.086406 0.690048 0.558627
O O1 0.907325 0.092676 0.250000
O O2 0.896721 0.215803 0.197565
O O3 0.863780 0.086971 0.153938
O O4 0.000000 0.120139 0.174678
O O5 0.879214 0.640713 0.805768
O O6 0.880430 0.723087 0.894832
O O7 0.000000 0.698204 0.840501
O O8 0.500000 0.113267 0.279018
O O9 0.602881 0.115116 0.205013
O O10 0.585709 0.000000 0.264460
O O11 0.094827 0.142502 0.064059
O O12 0.228969 0.106591 0.076960
O O13 0.130305 0.000000 0.071298
O O14 0.500000 0.111478 0.867663
O O15 0.365263 0.121475 0.898455
O O16 0.410963 0.000000 0.854076
O O17 0.000000 0.245641 0.055545
O O18 0.119703 0.253714 0.000000
O O19 0.118637 0.675206 0.500000
O O20 0.000000 0.679020 0.557013
#
# Coordination Sequence:
#
# PCOD8315798 Si02
#       7
#    16  16  16  16  16  16  16
#     4  10  20  29  37  50  67  90 116 147 188 228
#     4   8  15  26  38  51  67  84 104 132 170 212
#     4   8  13  22  38  56  70  83 100 124 158 206
#     4  10  19  28  37  48  64  86 116 153 186 217
#     4   8  14  23  35  51  67  83 102 124 157 204
#     4   9  17  28  39  49  62  85 116 147 180 215
#     4   9  17  26  35  48  65  85 108 136 171 207
#
# _framework density 13.210117
#
# number of rings (size 3 to 8) (size 9 to 14) (size 15 to 20)
#    0.000    3.143    0.000    3.000    2.000    3.000 
#    0.000    2.143    0.000    0.429    0.000    3.000 
#    0.000    0.000    0.000    0.000    0.000    0.000 
#
# Total GULP energy -1387508.727335 kJ/mol
# GULP energy per Si atom -12388.470780 kJ/mol
# Density = 1.318005 g / cm^3
# Si number density = 13.210117 Si / 1000 Ang^3
#
#
#
# Elastic Constant Matrix: (Units=GPa)
#
#
# Indices 1 2 3 4 5 6 
#
# 1 40.7569 7.7658 30.4359 0.0000 0.0000 0.0000
# 2 7.7658 40.7576 30.4369 0.0000 0.0000 0.0000
# 3 30.4359 30.4369 111.6192 0.0000 0.0000 0.0000
# 4 0.0000 0.0000 0.0000 12.5150 0.0000 0.0000
# 5 0.0000 0.0000 0.0000 0.0000 12.5151 0.0000
# 6 0.0000 0.0000 0.0000 0.0000 0.0000 0.7706
#
#
#
# Elastic Compliance Matrix: (Units=1/GPa)
#
#
# Indices 1 2 3 4 5 6 
#
# 1 0.030818 0.000507 -0.008541 0.000000 0.000000 0.000000
# 2 0.000507 0.030817 -0.008542 0.000000 0.000000 0.000000
# 3 -0.008541 -0.008542 0.013617 0.000000 0.000000 0.000000
# 4 0.000000 0.000000 0.000000 0.079904 0.000000 0.000000
# 5 0.000000 0.000000 0.000000 0.000000 0.079904 0.000000
# 6 0.000000 0.000000 0.000000 0.000000 0.000000 1.297733
#
#
# Mechanical properties :
#
#
# Convention : Reuss Voigt Hill
#
# Bulk Modulus (GPa) = 23.75318 36.71233 30.23275
# Shear Modulus (GPa) = 3.16460 13.45981 8.31220
#
# Velocity S-wave (km/s) = 1.54945 3.19549 2.51117
# Velocity P-wave (km/s) = 4.60664 6.43943 5.59854
#
# Compressibility (1/GPa) = 0.04209963
#
# Stress axis : x y z
#
# Youngs Moduli (GPa) = 32.44902 32.44914 73.43631
#
# Poissons Ratio (x) = -0.01644 0.62725
# Poissons Ratio (y) = -0.01644 0.62727
# Poissons Ratio (z) = 0.27716 0.27717
#
# Static dielectric constant tensor:
#      x y z
#    x 2.436720 0.000000 0.000000 
#    y 0.000000 2.436720 0.000000 
#    z 0.000000 0.000000 3.141660 
# 
# 
# High freq. dielectric constant tensor:
#      x y z
#    x 1.455550 0.000000 0.000000 
#    y 0.000000 1.455550 0.000000 
#    z 0.000000 0.000000 1.522320 
# 
# From -- ./inp_files/11444.got.cif
#   From: 2010.03.12/outbox.cif.g09.slc.cpg/sg131_6_cif.got.tgz:11444.got - 2010.04.06 17:36:35.
