data_PCOD8315759
_publ_section_title
;
Structure prediction by ZEFSAII (Michael W. Deem and Ramdas Pophale) SiO2 
 PCOD8315759
Probable space group: P 42/M M C
;
_chemical_formula_sum "Si O2"
_cell_formula_units_Z 112
_cell_length_a 18.389687
_cell_length_b 18.389687
_cell_length_c 18.283898
_cell_angle_alpha 90.000000
_cell_angle_beta 90.000000
_cell_angle_gamma 90.000000
_cell_volume 6183.259376
_symmetry_space_group_name_H-M "P 42/M M C"
_symmetry_group_IT_number 131
_symmetry_cell_setting 'tetragonal'
loop_
_space_group_symop_operation_xyz
x,y,z
-x,-y,z
-y,x,1/2+z
y,-x,1/2+z
-x,y,-z
x,-y,-z
y,x,1/2-z
-y,-x,1/2-z
-x,-y,-z
x,y,-z
y,-x,1/2-z
-y,x,1/2-z
x,-y,z
-x,y,z
-y,-x,1/2+z
y,x,1/2+z
loop_
_atom_site_type_symbol
_atom_site_label
_atom_site_fract_x
_atom_site_fract_y
_atom_site_fract_z
Si Si1 0.153476 0.204602 0.584346
Si Si2 0.286781 0.689297 0.582844
Si Si3 0.580592 0.771705 0.351983
Si Si4 0.415784 0.207950 0.813879
Si Si5 0.695839 0.083244 0.807702
Si Si6 0.081381 0.227534 0.840512
Si Si7 0.918961 0.374959 0.915854
O O1 0.132908 0.189995 0.500000
O O2 0.229482 0.246191 0.593395
O O3 0.090100 0.251980 0.621680
O O4 0.160926 0.130018 0.630279
O O5 0.288263 0.661329 0.500000
O O6 0.364724 0.722326 0.602488
O O7 0.266639 0.620178 0.632058
O O8 0.500000 0.745899 0.373848
O O9 0.594196 0.759216 0.266509
O O10 0.585957 0.858187 0.367416
O O11 0.500000 0.197040 0.834826
O O12 0.376593 0.130007 0.820475
O O13 0.738591 0.111363 0.735545
O O14 0.671698 0.000000 0.797303
O O15 0.083207 0.288726 0.903111
O O16 0.000000 0.197278 0.828485
O O17 0.000000 0.404417 0.895147
O O18 0.901214 0.390631 0.000000
#
# Coordination Sequence:
#
# PCOD8315759 Si02
#       7
#    16  16  16  16  16  16  16
#     4  10  19  32  52  75 102 138 178 223 269 309
#     4  10  20  35  54  76 104 137 177 223 266 310
#     4  11  21  33  53  79 109 144 178 213 257 311
#     4  10  21  36  56  80 105 138 178 218 262 316
#     4  10  20  34  53  78 107 138 175 218 266 318
#     4  10  18  30  51  77 104 139 179 215 252 303
#     4  10  19  30  45  71 110 148 178 209 247 297
#
# _framework density 18.113423000000001
#
# number of rings (size 3 to 8) (size 9 to 14) (size 15 to 20)
#    0.000    1.857    2.857    1.714    0.000    5.429 
#    0.000    2.143    0.000    0.857    0.000   10.000 
#    0.000    0.000    0.000    0.000    0.000    0.000 
#
# Total GULP energy -1388909.215689 kJ/mol
# GULP energy per Si atom -12400.975140 kJ/mol
# Density = 1.807220 g / cm^3
# Si number density = 18.113423 Si / 1000 Ang^3
#
#
#
# Elastic Constant Matrix: (Units=GPa)
#
#
# Indices 1 2 3 4 5 6 
#
# 1 70.7434 30.7717 39.3814 0.0000 0.0000 0.0000
# 2 30.7717 70.7434 39.3814 0.0000 0.0000 0.0000
# 3 39.3814 39.3814 107.8548 0.0000 0.0000 0.0000
# 4 0.0000 0.0000 0.0000 22.0162 0.0000 0.0000
# 5 0.0000 0.0000 0.0000 0.0000 22.0162 0.0000
# 6 0.0000 0.0000 0.0000 0.0000 0.0000 16.8197
#
#
#
# Elastic Compliance Matrix: (Units=1/GPa)
#
#
# Indices 1 2 3 4 5 6 
#
# 1 0.019381 -0.005637 -0.005019 0.000000 0.000000 0.000000
# 2 -0.005637 0.019381 -0.005019 0.000000 0.000000 0.000000
# 3 -0.005019 -0.005019 0.012937 0.000000 0.000000 0.000000
# 4 0.000000 0.000000 0.000000 0.045421 0.000000 0.000000
# 5 0.000000 0.000000 0.000000 0.000000 0.045421 0.000000
# 6 0.000000 0.000000 0.000000 0.000000 0.000000 0.059454
#
#
# Mechanical properties :
#
#
# Convention : Reuss Voigt Hill
#
# Bulk Modulus (GPa) = 49.13679 52.04563 50.59121
# Shear Modulus (GPa) = 20.82237 21.49090 21.15663
#
# Velocity S-wave (km/s) = 3.39419 3.44824 3.42132
# Velocity P-wave (km/s) = 6.52279 6.68202 6.60289
#
# Compressibility (1/GPa) = 0.02035135
#
# Stress axis : x y z
#
# Youngs Moduli (GPa) = 51.59658 51.59658 77.29983
#
# Poissons Ratio (x) = 0.29083 0.38794
# Poissons Ratio (y) = 0.29083 0.38794
# Poissons Ratio (z) = 0.25894 0.25894
#
# Static dielectric constant tensor:
#      x y z
#    x 3.185710 0.000000 0.000000 
#    y 0.000000 3.185710 0.000000 
#    z 0.000000 0.000000 3.465880 
# 
# 
# High freq. dielectric constant tensor:
#      x y z
#    x 1.680190 0.000000 0.000000 
#    y 0.000000 1.680190 0.000000 
#    z 0.000000 0.000000 1.713200 
# 
# From -- ./inp_files/10028.got.cif
#   From: 2010.03.12/outbox.cif.g09.slc.cpg/sg131_6_cif.got.tgz:10028.got - 2010.04.06 17:36:35.
