data_PCOD8315361
_publ_section_title
;
Structure prediction by ZEFSAII (Michael W. Deem and Ramdas Pophale) SiO2 
 PCOD8315361
Probable space group: P 4/N M M
;
_chemical_formula_sum "Si O2"
_cell_formula_units_Z 72
_cell_length_a 17.901152
_cell_length_b 17.901152
_cell_length_c 10.713584
_cell_angle_alpha 90.000000
_cell_angle_beta 90.000000
_cell_angle_gamma 90.000000
_cell_volume 3433.181309
_symmetry_space_group_name_H-M "P 4/N M M"
_symmetry_group_IT_number 129
_symmetry_cell_setting 'tetragonal'
loop_
_space_group_symop_operation_xyz
x,y,z
1/2-y,x,z
1/2-x,1/2-y,z
y,1/2-x,z
1/2+x,-y,-z
-x,1/2+y,-z
1/2+y,1/2+x,-z
-y,-x,-z
-x,-y,-z
1/2+y,-x,-z
1/2+x,1/2+y,-z
-y,1/2+x,-z
1/2-x,y,z
x,1/2-y,z
1/2-y,1/2-x,z
y,x,z
loop_
_atom_site_type_symbol
_atom_site_label
_atom_site_fract_x
_atom_site_fract_y
_atom_site_fract_z
Si Si1 0.508123 0.110480 0.858806
Si Si2 0.046569 0.335808 0.607207
Si Si3 0.902344 0.332128 0.241544
Si Si4 0.831767 0.550191 0.881085
Si Si5 0.397459 0.602542 0.500000
O O1 0.467286 0.161643 0.756224
O O2 0.597477 0.121173 0.843556
O O3 0.475469 0.024532 0.844116
O O4 0.490735 0.137897 0.996317
O O5 0.046978 0.250000 0.561893
O O6 0.126208 0.373793 0.575422
O O7 0.982945 0.384413 0.538946
O O8 0.870654 0.250000 0.197547
O O9 0.876626 0.344220 0.384044
O O10 0.992254 0.329702 0.233576
O O11 0.750000 0.581823 0.910391
O O12 0.881184 0.618817 0.837733
#
# Coordination Sequence:
#
# PCOD8315361 Si02
#       5
#    16  16  16  16   8
#     4   9  18  34  56  81 111 148 189 230 274 333
#     4  10  20  34  55  81 109 144 185 233 287 340
#     4  10  20  34  56  82 106 137 181 237 290 329
#     4  10  20  34  55  84 116 149 184 223 272 330
#     4  10  21  38  56  77 108 149 196 236 275 338
#
# _framework density 20.971802
#
# number of rings (size 3 to 8) (size 9 to 14) (size 15 to 20)
#    0.000    2.222    0.000    3.000    0.000    4.889 
#    0.000    0.000    0.000   40.000    0.000   21.778 
#    0.000    0.000    0.000    0.000    0.000    0.000 
#
# Total GULP energy -892092.618072 kJ/mol
# GULP energy per Si atom -12390.175251 kJ/mol
# Density = 2.092407 g / cm^3
# Si number density = 20.971802 Si / 1000 Ang^3
#
#
#
# Elastic Constant Matrix: (Units=GPa)
#
#
# Indices 1 2 3 4 5 6 
#
# 1 121.8434 57.4885 11.0037 0.0000 0.0000 0.0000
# 2 57.4885 121.8418 11.0034 0.0000 0.0000 0.0000
# 3 11.0037 11.0034 35.9044 0.0000 0.0000 0.0000
# 4 0.0000 0.0000 0.0000 19.9119 0.0000 0.0000
# 5 0.0000 0.0000 0.0000 0.0000 19.9122 0.0000
# 6 0.0000 0.0000 0.0000 0.0000 0.0000 18.6551
#
#
#
# Elastic Compliance Matrix: (Units=1/GPa)
#
#
# Indices 1 2 3 4 5 6 
#
# 1 0.010667 -0.004872 -0.001776 0.000000 0.000000 0.000000
# 2 -0.004872 0.010667 -0.001776 0.000000 0.000000 0.000000
# 3 -0.001776 -0.001776 0.028940 0.000000 0.000000 0.000000
# 4 0.000000 0.000000 0.000000 0.050221 0.000000 0.000000
# 5 0.000000 0.000000 0.000000 0.000000 0.050220 0.000000
# 6 0.000000 0.000000 0.000000 0.000000 0.000000 0.053605
#
#
# Mechanical properties :
#
#
# Convention : Reuss Voigt Hill
#
# Bulk Modulus (GPa) = 29.91720 48.73120 39.32420
# Shear Modulus (GPa) = 21.52303 25.03544 23.27924
#
# Velocity S-wave (km/s) = 3.20704 3.45884 3.33532
# Velocity P-wave (km/s) = 5.29244 6.26406 5.79863
#
# Compressibility (1/GPa) = 0.03342559
#
# Stress axis : x y z
#
# Youngs Moduli (GPa) = 93.75104 93.74995 34.55407
#
# Poissons Ratio (x) = 0.45679 0.06136
# Poissons Ratio (y) = 0.45679 0.06136
# Poissons Ratio (z) = 0.16648 0.16647
#
# Static dielectric constant tensor:
#      x y z
#    x 3.791680 0.000000 0.000000 
#    y 0.000000 3.791690 0.000000 
#    z 0.000000 0.000000 3.812890 
# 
# 
# High freq. dielectric constant tensor:
#      x y z
#    x 1.808040 0.000000 0.000000 
#    y 0.000000 1.808040 0.000000 
#    z 0.000000 0.000000 1.819580 
# 
# From -- ./inp_files/3547.got.cif
#   From: 2010.03.12/outbox.cif.g09.slc.cpg/sg129_2_cif.got.tgz:3547.got - 2010.04.06 17:19:44.
