data_PCOD8315870
_publ_section_title
;
Structure prediction by ZEFSAII (Michael W. Deem and Ramdas Pophale) SiO2 
 PCOD8315870
Probable space group: P 42/M M C
;
_chemical_formula_sum "Si O2"
_cell_formula_units_Z 120
_cell_length_a 26.937177
_cell_length_b 26.937177
_cell_length_c 9.055310
_cell_angle_alpha 90.000000
_cell_angle_beta 90.000000
_cell_angle_gamma 90.000000
_cell_volume 6570.637115
_symmetry_space_group_name_H-M "P 42/M M C"
_symmetry_group_IT_number 131
_symmetry_cell_setting 'tetragonal'
loop_
_space_group_symop_operation_xyz
x,y,z
-x,-y,z
-y,x,1/2+z
y,-x,1/2+z
-x,y,-z
x,-y,-z
y,x,1/2-z
-y,-x,1/2-z
-x,-y,-z
x,y,-z
y,-x,1/2-z
-y,x,1/2-z
x,-y,z
-x,y,z
-y,-x,1/2+z
y,x,1/2+z
loop_
_atom_site_type_symbol
_atom_site_label
_atom_site_fract_x
_atom_site_fract_y
_atom_site_fract_z
Si Si1 0.442546 0.368641 0.824798
Si Si2 0.552589 0.166077 0.168388
Si Si3 0.379561 0.917832 0.824932
Si Si4 0.398658 0.735995 0.832384
Si Si5 0.846569 0.775532 0.828011
Si Si6 0.722739 0.943663 0.327837
Si Si7 0.000000 0.558712 0.829804
Si Si8 0.233091 0.695979 0.173377
O O1 0.414856 0.414856 0.750000
O O2 0.500000 0.369069 0.774312
O O3 0.416579 0.317371 0.771612
O O4 0.438646 0.373726 0.000000
O O5 0.500000 0.151821 0.247530
O O6 0.601165 0.136714 0.228289
O O7 0.555913 0.225723 0.175573
O O8 0.548778 0.148556 0.000000
O O9 0.325772 0.929119 0.761248
O O10 0.420675 0.952921 0.755507
O O11 0.375759 0.925031 0.000000
O O12 0.359819 0.764828 0.729534
O O13 0.378446 0.730610 0.000000
O O14 0.824660 0.824660 0.750000
O O15 0.904575 0.766675 0.786442
O O16 0.816565 0.725884 0.778639
O O17 0.839659 0.785194 0.000000
O O18 0.709801 0.938599 0.500000
O O19 0.739873 0.000000 0.289258
O O20 0.000000 0.500000 0.819491
O O21 0.000000 0.576916 0.000000
O O22 0.280352 0.719649 0.250000
O O23 0.239911 0.697177 0.000000
#
# Coordination Sequence:
#
# PCOD8315870 Si02
#       8
#    16  16  16  16  16  16   8  16
#     4  10  22  39  58  79 101 126 156 192 238 297
#     4   9  18  32  50  72  98 129 166 210 258 306
#     4  11  21  33  52  77 102 132 178 231 276 314
#     4  10  19  33  54  77 101 130 162 197 244 302
#     4   9  19  34  52  76 106 144 182 218 261 309
#     4  10  20  35  54  75 105 142 177 214 264 325
#     4  11  23  37  51  67  95 139 187 235 288 337
#     4  10  19  31  48  72 103 133 165 202 242 292
#
# _framework density 18.263069000000002
#
# number of rings (size 3 to 8) (size 9 to 14) (size 15 to 20)
#    0.000    2.067    0.667    3.000    0.000    5.733 
#    0.000    1.333    0.000    2.800    0.000    0.000 
#    0.000    0.267    0.000    3.333    0.000    0.000 
#
# Total GULP energy -1487029.573292 kJ/mol
# GULP energy per Si atom -12391.913111 kJ/mol
# Density = 1.822150 g / cm^3
# Si number density = 18.263069 Si / 1000 Ang^3
#
#
#
# Elastic Constant Matrix: (Units=GPa)
#
#
# Indices 1 2 3 4 5 6 
#
# 1 122.8782 52.8958 36.1771 0.0000 0.0000 0.0000
# 2 52.8958 122.8794 36.1838 0.0000 0.0000 0.0000
# 3 36.1771 36.1838 50.7092 0.0000 0.0000 0.0000
# 4 0.0000 0.0000 0.0000 21.8402 0.0000 0.0000
# 5 0.0000 0.0000 0.0000 0.0000 21.8401 0.0000
# 6 0.0000 0.0000 0.0000 0.0000 0.0000 -28.7287
#
#
#
# Elastic Compliance Matrix: (Units=1/GPa)
#
#
# Indices 1 2 3 4 5 6 
#
# 1 0.011172 -0.003117 -0.005746 0.000000 0.000000 0.000000
# 2 -0.003117 0.011173 -0.005748 0.000000 0.000000 0.000000
# 3 -0.005746 -0.005748 0.027921 0.000000 0.000000 0.000000
# 4 0.000000 0.000000 0.000000 0.045787 0.000000 0.000000
# 5 0.000000 0.000000 0.000000 0.000000 0.045787 0.000000
# 6 0.000000 0.000000 0.000000 0.000000 0.000000 -0.034808
#
#
# Mechanical properties :
#
#
# Convention : Reuss Voigt Hill
#
# Bulk Modulus (GPa) = 47.52232 60.77557 54.14895
# Shear Modulus (GPa) = 34.89945 14.40434 24.65190
#
# Velocity S-wave (km/s) = 4.37616 2.81145 3.67798
# Velocity P-wave (km/s) = 7.18414 6.62489 6.91017
#
# Compressibility (1/GPa) = 0.02104274
#
# Stress axis : x y z
#
# Youngs Moduli (GPa) = 89.51241 89.50472 35.81478
#
# Poissons Ratio (x) = 0.27899 0.20579
# Poissons Ratio (y) = 0.27902 0.20588
# Poissons Ratio (z) = 0.51433 0.51452
#
# Static dielectric constant tensor:
#      x y z
#    x 3.572810 0.000000 0.000000 
#    y 0.000000 3.572790 0.000000 
#    z 0.000000 0.000000 3.273970 
# 
# 
# High freq. dielectric constant tensor:
#      x y z
#    x 1.701130 0.000000 0.000000 
#    y 0.000000 1.701130 0.000000 
#    z 0.000000 0.000000 1.693680 
# 
# From -- ./inp_files/2660.got.cif
#   From: 2010.03.12/outbox.cif.g09.slc.cpg/sg131_2_cif.got.tgz:2660.got - 2010.04.06 17:36:35.
