data_PCOD8315991
_publ_section_title
;
Structure prediction by ZEFSAII (Michael W. Deem and Ramdas Pophale) SiO2 
 PCOD8315991
Probable space group: P 42/M M C
;
_chemical_formula_sum "Si O2"
_cell_formula_units_Z 120
_cell_length_a 14.183791
_cell_length_b 14.183791
_cell_length_c 32.601022
_cell_angle_alpha 90.000000
_cell_angle_beta 90.000000
_cell_angle_gamma 90.000000
_cell_volume 6558.671230
_symmetry_space_group_name_H-M "P 42/M M C"
_symmetry_group_IT_number 131
_symmetry_cell_setting 'tetragonal'
loop_
_space_group_symop_operation_xyz
x,y,z
-x,-y,z
-y,x,1/2+z
y,-x,1/2+z
-x,y,-z
x,-y,-z
y,x,1/2-z
-y,-x,1/2-z
-x,-y,-z
x,y,-z
y,-x,1/2-z
-y,x,1/2-z
x,-y,z
-x,y,z
-y,-x,1/2+z
y,x,1/2+z
loop_
_atom_site_type_symbol
_atom_site_label
_atom_site_fract_x
_atom_site_fract_y
_atom_site_fract_z
Si Si1 0.889045 0.605459 0.238797
Si Si2 0.735299 0.887593 0.186226
Si Si3 0.606775 0.396000 0.951323
Si Si4 0.109974 0.397234 0.385633
Si Si5 0.890681 0.398650 0.000000
Si Si6 0.891975 0.740942 0.831717
Si Si7 0.107353 0.737319 0.073405
Si Si8 0.208117 0.706038 0.547965
O O1 0.844023 0.500000 0.242732
O O2 0.853881 0.677107 0.273929
O O3 0.861085 0.650118 0.194894
O O4 0.000000 0.594595 0.243320
O O5 0.674732 0.850581 0.147864
O O6 0.834046 0.832946 0.182352
O O7 0.755207 0.000000 0.186111
O O8 0.638059 0.500000 0.934780
O O9 0.500000 0.374469 0.936639
O O10 0.675547 0.312572 0.935692
O O11 0.610477 0.396875 0.000000
O O12 0.156340 0.500000 0.378953
O O13 0.131539 0.360836 0.431184
O O14 0.000000 0.406155 0.379510
O O15 0.863049 0.346201 0.042014
O O16 0.837797 0.500000 0.000000
O O17 0.000000 0.416429 0.000000
O O18 0.880562 0.709571 0.879126
O O19 0.000000 0.768308 0.822437
O O20 0.185907 0.815427 0.061985
O O21 0.000000 0.772326 0.064548
O O22 0.196142 0.692909 0.500000
#
# Coordination Sequence:
#
# PCOD8315991 Si02
#       8
#    16  16  16  16   8  16  16  16
#     4   9  18  33  54  80 109 142 175 209 256 312
#     4  10  19  34  56  80 110 145 179 214 260 324
#     4   8  15  28  45  67  94 123 159 206 261 320
#     4  10  21  36  54  77 104 135 176 228 280 326
#     4   9  18  32  50  72 100 141 188 228 272 323
#     4  10  20  34  54  81 113 143 177 224 269 312
#     4  10  20  34  49  71 106 144 179 221 269 317
#     4  11  20  32  52  74  99 136 179 225 275 325
#
# _framework density 18.296389999999999
#
# number of rings (size 3 to 8) (size 9 to 14) (size 15 to 20)
#    0.000    2.333    2.000    1.600    0.000    4.000 
#    0.000    3.333    0.000    2.800    0.000    0.933 
#    0.000    8.533    0.000    0.000    0.000    0.000 
#
# Total GULP energy -1486881.807386 kJ/mol
# GULP energy per Si atom -12390.681728 kJ/mol
# Density = 1.825475 g / cm^3
# Si number density = 18.296390 Si / 1000 Ang^3
#
#
#
# Elastic Constant Matrix: (Units=GPa)
#
#
# Indices 1 2 3 4 5 6 
#
# 1 70.7906 31.4664 35.2101 0.0000 0.0000 0.0000
# 2 31.4664 70.7906 35.2101 0.0000 0.0000 0.0000
# 3 35.2101 35.2101 117.4286 0.0000 0.0000 0.0000
# 4 0.0000 0.0000 0.0000 21.3308 0.0000 0.0000
# 5 0.0000 0.0000 0.0000 0.0000 21.3308 0.0000
# 6 0.0000 0.0000 0.0000 0.0000 0.0000 19.8089
#
#
#
# Elastic Compliance Matrix: (Units=1/GPa)
#
#
# Indices 1 2 3 4 5 6 
#
# 1 0.018877 -0.006553 -0.003695 0.000000 0.000000 0.000000
# 2 -0.006553 0.018877 -0.003695 0.000000 0.000000 0.000000
# 3 -0.003695 -0.003695 0.010732 0.000000 0.000000 0.000000
# 4 0.000000 0.000000 0.000000 0.046881 0.000000 0.000000
# 5 0.000000 0.000000 0.000000 0.000000 0.046881 0.000000
# 6 0.000000 0.000000 0.000000 0.000000 0.000000 0.050482
#
#
# Mechanical properties :
#
#
# Convention : Reuss Voigt Hill
#
# Bulk Modulus (GPa) = 48.54644 51.42032 49.98338
# Shear Modulus (GPa) = 21.97978 22.96900 22.47439
#
# Velocity S-wave (km/s) = 3.46976 3.54698 3.50859
# Velocity P-wave (km/s) = 6.53018 6.70372 6.61752
#
# Compressibility (1/GPa) = 0.02059883
#
# Stress axis : x y z
#
# Youngs Moduli (GPa) = 52.97492 52.97492 93.18094
#
# Poissons Ratio (x) = 0.34713 0.34433
# Poissons Ratio (y) = 0.34713 0.34433
# Poissons Ratio (z) = 0.19576 0.19576
#
# Static dielectric constant tensor:
#      x y z
#    x 3.509260 0.000000 0.000000 
#    y 0.000000 3.509260 0.000000 
#    z 0.000000 0.000000 3.389250 
# 
# 
# High freq. dielectric constant tensor:
#      x y z
#    x 1.696820 0.000000 0.000000 
#    y 0.000000 1.696820 0.000000 
#    z 0.000000 0.000000 1.704730 
# 
# From -- ./inp_files/13938.got.cif
#   From: 2010.03.12/outbox.cif.g09.slc.cpg/sg131_7_cif.got.tgz:13938.got - 2010.04.06 17:36:35.
