data_PCOD8315996
_publ_section_title
;
Structure prediction by ZEFSAII (Michael W. Deem and Ramdas Pophale) SiO2 
 PCOD8315996
Probable space group: P 42/M M C
;
_chemical_formula_sum "Si O2"
_cell_formula_units_Z 120
_cell_length_a 27.140790
_cell_length_b 27.140790
_cell_length_c 9.036629
_cell_angle_alpha 90.000000
_cell_angle_beta 90.000000
_cell_angle_gamma 90.000000
_cell_volume 6656.584081
_symmetry_space_group_name_H-M "P 42/M M C"
_symmetry_group_IT_number 131
_symmetry_cell_setting 'tetragonal'
loop_
_space_group_symop_operation_xyz
x,y,z
-x,-y,z
-y,x,1/2+z
y,-x,1/2+z
-x,y,-z
x,-y,-z
y,x,1/2-z
-y,-x,1/2-z
-x,-y,-z
x,y,-z
y,-x,1/2-z
-y,x,1/2-z
x,-y,z
-x,y,z
-y,-x,1/2+z
y,x,1/2+z
loop_
_atom_site_type_symbol
_atom_site_label
_atom_site_fract_x
_atom_site_fract_y
_atom_site_fract_z
Si Si1 0.381362 0.808753 0.669071
Si Si2 0.783224 0.283894 0.666649
Si Si3 0.000000 0.556508 0.675049
Si Si4 0.942398 0.731665 0.829065
Si Si5 0.728177 0.441889 0.668691
Si Si6 0.133596 0.798105 0.333622
Si Si7 0.370464 0.557879 0.828140
Si Si8 0.378432 0.921218 0.668874
O O1 0.378853 0.790729 0.500000
O O2 0.328370 0.805042 0.741701
O O3 0.420850 0.776874 0.756708
O O4 0.397276 0.865430 0.678991
O O5 0.734108 0.265893 0.750000
O O6 0.769418 0.300210 0.500000
O O7 0.823283 0.241487 0.664986
O O8 0.951667 0.583559 0.733855
O O9 0.000000 0.500000 0.730148
O O10 0.000000 0.559383 0.500000
O O11 0.914157 0.774817 0.743444
O O12 0.927585 0.677315 0.769244
O O13 0.000000 0.740477 0.804050
O O14 0.927031 0.735573 0.000000
O O15 0.724510 0.423634 0.500000
O O16 0.732247 0.500000 0.679174
O O17 0.680021 0.422783 0.754894
O O18 0.152778 0.847223 0.250000
O O19 0.119101 0.813291 0.500000
O O20 0.416402 0.583599 0.750000
O O21 0.377097 0.500000 0.802348
O O22 0.369433 0.571735 0.000000
O O23 0.379529 0.940650 0.500000
#
# Coordination Sequence:
#
# PCOD8315996 Si02
#       8
#    16  16   8  16  16  16  16  16
#     4  11  22  36  57  81 107 138 180 229 274 327
#     4  10  20  33  50  75 107 141 178 217 265 318
#     4  11  25  41  57  79 107 139 179 235 296 347
#     4  10  19  34  56  81 112 148 189 233 282 336
#     4  10  22  40  59  78 104 138 175 218 269 324
#     4  10  20  33  52  78 111 149 186 226 273 325
#     4  10  21  38  61  88 117 147 180 219 265 322
#     4  10  21  38  58  80 106 141 183 230 284 344
#
# _framework density 18.027263999999999
#
# number of rings (size 3 to 8) (size 9 to 14) (size 15 to 20)
#    0.000    1.800    2.000    2.200    0.000    6.267 
#    0.000    6.000    0.000    0.000    0.000    0.000 
#    0.000    0.267    0.000    2.800    0.000    1.200 
#
# Total GULP energy -1488356.710593 kJ/mol
# GULP energy per Si atom -12402.972588 kJ/mol
# Density = 1.798623 g / cm^3
# Si number density = 18.027264 Si / 1000 Ang^3
#
#
#
# Elastic Constant Matrix: (Units=GPa)
#
#
# Indices 1 2 3 4 5 6 
#
# 1 76.9679 46.4329 55.3227 0.0000 0.0000 0.0000
# 2 46.4329 76.9755 55.3207 0.0000 0.0000 0.0000
# 3 55.3227 55.3207 131.2851 0.0000 0.0000 0.0000
# 4 0.0000 0.0000 0.0000 30.4102 0.0000 0.0000
# 5 0.0000 0.0000 0.0000 0.0000 30.4104 0.0000
# 6 0.0000 0.0000 0.0000 0.0000 0.0000 28.6679
#
#
#
# Elastic Compliance Matrix: (Units=1/GPa)
#
#
# Indices 1 2 3 4 5 6 
#
# 1 0.022887 -0.009861 -0.005489 0.000000 0.000000 0.000000
# 2 -0.009861 0.022883 -0.005487 0.000000 0.000000 0.000000
# 3 -0.005489 -0.005487 0.012242 0.000000 0.000000 0.000000
# 4 0.000000 0.000000 0.000000 0.032884 0.000000 0.000000
# 5 0.000000 0.000000 0.000000 0.000000 0.032883 0.000000
# 6 0.000000 0.000000 0.000000 0.000000 0.000000 0.034882
#
#
# Mechanical properties :
#
#
# Convention : Reuss Voigt Hill
#
# Bulk Modulus (GPa) = 61.20790 66.59791 63.90291
# Shear Modulus (GPa) = 24.29772 26.44119 25.36946
#
# Velocity S-wave (km/s) = 3.67527 3.83395 3.75545
# Velocity P-wave (km/s) = 7.21365 7.52476 7.37085
#
# Compressibility (1/GPa) = 0.01633776
#
# Stress axis : x y z
#
# Youngs Moduli (GPa) = 43.69361 43.70120 81.68422
#
# Poissons Ratio (x) = 0.43092 0.44838
# Poissons Ratio (y) = 0.43085 0.44821
# Poissons Ratio (z) = 0.23984 0.23979
#
# Static dielectric constant tensor:
#      x y z
#    x 3.236200 0.000000 0.000000 
#    y 0.000000 3.236200 0.000000 
#    z 0.000000 0.000000 3.558320 
# 
# 
# High freq. dielectric constant tensor:
#      x y z
#    x 1.687920 0.000000 0.000000 
#    y 0.000000 1.687920 0.000000 
#    z 0.000000 0.000000 1.711870 
# 
# From -- ./inp_files/2621.got.cif
#   From: 2010.03.12/outbox.cif.g09.slc.cpg/sg131_2_cif.got.tgz:2621.got - 2010.04.06 17:36:35.
