data_PCOD8315578
_publ_section_title
;
Structure prediction by ZEFSAII (Michael W. Deem and Ramdas Pophale) SiO2 
 PCOD8315578
Probable space group: P 4/N C C
;
_chemical_formula_sum "Si O2"
_cell_formula_units_Z 64
_cell_length_a 10.907134
_cell_length_b 10.907134
_cell_length_c 19.988334
_cell_angle_alpha 90.000000
_cell_angle_beta 90.000000
_cell_angle_gamma 90.000000
_cell_volume 2377.923590
_symmetry_space_group_name_H-M "P 4/N C C"
_symmetry_group_IT_number 130
_symmetry_cell_setting 'tetragonal'
loop_
_space_group_symop_operation_xyz
x,y,z
1/2-y,x,z
1/2-x,1/2-y,z
y,1/2-x,z
1/2+x,-y,1/2-z
-x,1/2+y,1/2-z
1/2+y,1/2+x,1/2-z
-y,-x,1/2-z
-x,-y,-z
1/2+y,-x,-z
1/2+x,1/2+y,-z
-y,1/2+x,-z
1/2-x,y,1/2+z
x,1/2-y,1/2+z
1/2-y,1/2-x,1/2+z
y,x,1/2+z
loop_
_atom_site_type_symbol
_atom_site_label
_atom_site_fract_x
_atom_site_fract_y
_atom_site_fract_z
Si Si1 0.476018 0.477128 0.111888
Si Si2 0.323995 0.437242 0.236059
Si Si3 0.424158 0.157102 0.484186
Si Si4 0.120252 0.786140 0.679835
O O1 0.362343 0.490224 0.163725
O O2 0.455288 0.362026 0.062115
O O3 0.611106 0.457638 0.142159
O O4 0.474275 0.601364 0.066493
O O5 0.180764 0.407968 0.242607
O O6 0.335142 0.534170 0.298886
O O7 0.414854 0.298897 0.468222
O O8 0.250000 0.750000 0.643813
O O9 0.154637 0.845364 0.750000
#
# Coordination Sequence:
#
# PCOD8315578 Si02
#       4
#    16  16  16  16
#     4  11  24  49  77 111 153 206 266 327 394 484
#     4  11  24  47  74 107 153 211 256 309 392 481
#     4  10  24  48  78 112 149 203 266 333 401 467
#     4  11  26  45  70 115 160 203 253 326 397 474
#
# _framework density 26.914238999999998
#
# number of rings (size 3 to 8) (size 9 to 14) (size 15 to 20)
#    0.000    1.250    2.500    1.500    0.000   12.000 
#    4.500    2.500    0.000    0.000    0.000    0.000 
#    0.000    0.000    0.000    0.000    0.000    0.000 
#
# Total GULP energy -792954.220353 kJ/mol
# GULP energy per Si atom -12389.909693 kJ/mol
# Density = 2.685298 g / cm^3
# Si number density = 26.914239 Si / 1000 Ang^3
#
#
#
# Elastic Constant Matrix: (Units=GPa)
#
#
# Indices 1 2 3 4 5 6 
#
# 1 103.8819 48.0036 48.8732 0.0000 0.0000 0.0000
# 2 48.0036 103.8818 48.8732 0.0000 0.0000 0.0000
# 3 48.8732 48.8732 88.9403 0.0000 0.0000 0.0000
# 4 0.0000 0.0000 0.0000 36.7122 0.0000 0.0000
# 5 0.0000 0.0000 0.0000 0.0000 36.7122 0.0000
# 6 0.0000 0.0000 0.0000 0.0000 0.0000 49.3532
#
#
#
# Elastic Compliance Matrix: (Units=1/GPa)
#
#
# Indices 1 2 3 4 5 6 
#
# 1 0.014041 -0.003855 -0.005597 0.000000 0.000000 0.000000
# 2 -0.003855 0.014041 -0.005597 0.000000 0.000000 0.000000
# 3 -0.005597 -0.005597 0.017395 0.000000 0.000000 0.000000
# 4 0.000000 0.000000 0.000000 0.027239 0.000000 0.000000
# 5 0.000000 0.000000 0.000000 0.000000 0.027239 0.000000
# 6 0.000000 0.000000 0.000000 0.000000 0.000000 0.020262
#
#
# Mechanical properties :
#
#
# Convention : Reuss Voigt Hill
#
# Bulk Modulus (GPa) = 65.02827 65.35600 65.19213
# Shear Modulus (GPa) = 32.16629 34.61911 33.39270
#
# Velocity S-wave (km/s) = 3.46083 3.59036 3.52619
# Velocity P-wave (km/s) = 6.33905 6.44386 6.39167
#
# Compressibility (1/GPa) = 0.01537793
#
# Stress axis : x y z
#
# Youngs Moduli (GPa) = 71.21968 71.21966 57.48784
#
# Poissons Ratio (x) = 0.27455 0.32178
# Poissons Ratio (y) = 0.27455 0.32178
# Poissons Ratio (z) = 0.39864 0.39864
#
# Static dielectric constant tensor:
#      x y z
#    x 5.523460 0.000000 0.000000 
#    y 0.000000 5.523460 0.000000 
#    z 0.000000 0.000000 4.835750 
# 
# 
# High freq. dielectric constant tensor:
#      x y z
#    x 2.094560 0.000000 0.000000 
#    y 0.000000 2.094560 0.000000 
#    z 0.000000 0.000000 2.072720 
# 
# From -- ./inp_files/3502.got.cif
#   From: 2010.03.12/outbox.cif.g09.slc.cpg/sg130_2_cif.got.tgz:3502.got - 2010.04.06 17:30:23.
