data_PCOD8315598
_publ_section_title
;
Structure prediction by ZEFSAII (Michael W. Deem and Ramdas Pophale) SiO2 
 PCOD8315598
Probable space group: P 4/N C C
;
_chemical_formula_sum "Si O2"
_cell_formula_units_Z 112
_cell_length_a 14.669274
_cell_length_b 14.669274
_cell_length_c 27.546685
_cell_angle_alpha 90.000000
_cell_angle_beta 90.000000
_cell_angle_gamma 90.000000
_cell_volume 5927.705024
_symmetry_space_group_name_H-M "P 4/N C C"
_symmetry_group_IT_number 130
_symmetry_cell_setting 'tetragonal'
loop_
_space_group_symop_operation_xyz
x,y,z
1/2-y,x,z
1/2-x,1/2-y,z
y,1/2-x,z
1/2+x,-y,1/2-z
-x,1/2+y,1/2-z
1/2+y,1/2+x,1/2-z
-y,-x,1/2-z
-x,-y,-z
1/2+y,-x,-z
1/2+x,1/2+y,-z
-y,1/2+x,-z
1/2-x,y,1/2+z
x,1/2-y,1/2+z
1/2-y,1/2-x,1/2+z
y,x,1/2+z
loop_
_atom_site_type_symbol
_atom_site_label
_atom_site_fract_x
_atom_site_fract_y
_atom_site_fract_z
Si Si1 0.995066 0.736370 0.844880
Si Si2 0.257023 0.484860 0.348264
Si Si3 0.065459 0.418459 0.901687
Si Si4 0.431601 0.088530 0.603306
Si Si5 0.731283 0.896059 0.751777
Si Si6 0.643313 0.642578 0.499461
Si Si7 0.670726 0.177755 0.305163
O O1 0.985336 0.819995 0.882069
O O2 0.928041 0.654762 0.861401
O O3 0.975104 0.775581 0.791359
O O4 0.097626 0.700543 0.841545
O O5 0.345584 0.434961 0.369099
O O6 0.175960 0.483362 0.387298
O O7 0.220011 0.431196 0.302149
O O8 0.276059 0.586883 0.332039
O O9 0.997030 0.501549 0.893746
O O10 0.094009 0.411503 0.957535
O O11 0.395581 0.099707 0.549237
O O12 0.649321 0.828150 0.760943
O O13 0.750417 0.623089 0.502540
O O14 0.750000 0.250000 0.301164
O O15 0.644766 0.144766 0.250000
#
# Coordination Sequence:
#
# PCOD8315598 Si02
#       7
#    16  16  16  16  16  16  16
#     4  12  23  40  64  94 125 172 215 257 320 379
#     4  12  23  40  64  94 125 172 215 257 320 379
#     4  12  25  42  66  92 129 168 211 265 324 385
#     4  12  25  42  66  92 129 168 211 265 324 385
#     4  11  22  35  58  93 131 162 206 263 317 378
#     4  11  23  42  70  96 121 157 210 270 328 388
#     4  11  24  42  62  89 134 177 217 262 305 371
#
# _framework density 18.894326
#
# number of rings (size 3 to 8) (size 9 to 14) (size 15 to 20)
#    0.000    0.429    8.571    1.286    0.000    0.571 
#    0.000    1.429    0.000    0.000    0.000    2.000 
#    0.000    0.000    0.000    0.000    0.000    0.000 
#
# Total GULP energy -1389152.952396 kJ/mol
# GULP energy per Si atom -12403.151361 kJ/mol
# Density = 1.885132 g / cm^3
# Si number density = 18.894326 Si / 1000 Ang^3
#
#
#
# Elastic Constant Matrix: (Units=GPa)
#
#
# Indices 1 2 3 4 5 6 
#
# 1 78.4452 21.9300 33.1884 0.0000 0.0000 0.0000
# 2 21.9300 78.4452 33.1884 0.0000 0.0000 0.0000
# 3 33.1884 33.1884 112.4959 0.0000 0.0000 0.0000
# 4 0.0000 0.0000 0.0000 31.5172 0.0000 0.0000
# 5 0.0000 0.0000 0.0000 0.0000 31.5172 0.0000
# 6 0.0000 0.0000 0.0000 0.0000 0.0000 42.9207
#
#
#
# Elastic Compliance Matrix: (Units=1/GPa)
#
#
# Indices 1 2 3 4 5 6 
#
# 1 0.015036 -0.002659 -0.003652 0.000000 0.000000 0.000000
# 2 -0.002659 0.015036 -0.003652 0.000000 0.000000 0.000000
# 3 -0.003652 -0.003652 0.011044 0.000000 0.000000 0.000000
# 4 0.000000 0.000000 0.000000 0.031729 0.000000 0.000000
# 5 0.000000 0.000000 0.000000 0.000000 0.031729 0.000000
# 6 0.000000 0.000000 0.000000 0.000000 0.000000 0.023299
#
#
# Mechanical properties :
#
#
# Convention : Reuss Voigt Hill
#
# Bulk Modulus (GPa) = 47.18706 49.55556 48.37131
# Shear Modulus (GPa) = 32.28746 33.26300 32.77523
#
# Velocity S-wave (km/s) = 4.13830 4.20035 4.16944
# Velocity P-wave (km/s) = 6.91827 7.05752 6.98824
#
# Compressibility (1/GPa) = 0.02119225
#
# Stress axis : x y z
#
# Youngs Moduli (GPa) = 66.50769 66.50769 90.54885
#
# Poissons Ratio (x) = 0.17681 0.33064
# Poissons Ratio (y) = 0.17681 0.33064
# Poissons Ratio (z) = 0.24286 0.24286
#
# Static dielectric constant tensor:
#      x y z
#    x 3.502400 0.000000 0.000000 
#    y 0.000000 3.502400 0.000000 
#    z 0.000000 0.000000 3.551450 
# 
# 
# High freq. dielectric constant tensor:
#      x y z
#    x 1.737700 0.000000 0.000000 
#    y 0.000000 1.737700 0.000000 
#    z 0.000000 0.000000 1.743780 
# 
# From -- ./inp_files/4617.got.cif
#   From: 2010.03.12/outbox.cif.g09.slc.cpg/sg130_3_cif.got.tgz:4617.got - 2010.04.06 17:30:23.
