data_PCOD8315175
_publ_section_title
;
Structure prediction by ZEFSAII (Michael W. Deem and Ramdas Pophale) SiO2 
 PCOD8315175
Probable space group: P 4/N M M
;
_chemical_formula_sum "Si O2"
_cell_formula_units_Z 80
_cell_length_a 12.607050
_cell_length_b 12.607050
_cell_length_c 29.135873
_cell_angle_alpha 90.000000
_cell_angle_beta 90.000000
_cell_angle_gamma 90.000000
_cell_volume 4630.788925
_symmetry_space_group_name_H-M "P 4/N M M"
_symmetry_group_IT_number 129
_symmetry_cell_setting 'tetragonal'
loop_
_space_group_symop_operation_xyz
x,y,z
1/2-y,x,z
1/2-x,1/2-y,z
y,1/2-x,z
1/2+x,-y,-z
-x,1/2+y,-z
1/2+y,1/2+x,-z
-y,-x,-z
-x,-y,-z
1/2+y,-x,-z
1/2+x,1/2+y,-z
-y,1/2+x,-z
1/2-x,y,z
x,1/2-y,z
1/2-y,1/2-x,z
y,x,z
loop_
_atom_site_type_symbol
_atom_site_label
_atom_site_fract_x
_atom_site_fract_y
_atom_site_fract_z
Si Si1 0.631798 0.126208 0.363314
Si Si2 0.457859 0.625731 0.733512
Si Si3 0.375701 0.551108 0.049338
Si Si4 0.536443 0.129757 0.541909
Si Si5 0.250000 0.875878 0.787265
Si Si6 0.124451 0.750000 0.109576
O O1 0.750000 0.080809 0.354009
O O2 0.640155 0.250000 0.370605
O O3 0.558287 0.099490 0.320097
O O4 0.582211 0.079868 0.410146
O O5 0.479281 0.750000 0.742222
O O6 0.560230 0.560230 0.750742
O O7 0.355207 0.584723 0.761242
O O8 0.250000 0.524518 0.053907
O O9 0.443763 0.443763 0.058286
O O10 0.413554 0.641895 0.084936
O O11 0.400111 0.599890 0.000000
O O12 0.619663 0.119663 0.500000
O O13 0.506213 0.250000 0.549704
O O14 0.430032 0.069969 0.527269
O O15 0.250000 0.750000 0.786985
O O16 0.250000 0.921672 0.838863
O O17 0.250000 0.750000 0.109595
#
# Coordination Sequence:
#
# PCOD8315175 Si02
#       6
#    16  16  16  16   8   8
#     4   9  16  29  50  73  95 125 166 206 245 291
#     4  10  19  32  52  76 104 135 171 215 261 310
#     4  10  19  32  52  78 108 141 177 217 261 308
#     4  10  20  32  47  69  96 125 160 201 247 299
#     4   9  18  34  52  75  99 133 179 214 251 301
#     4   9  18  32  54  75 101 135 175 220 253 301
#
# _framework density 17.275675
#
# number of rings (size 3 to 8) (size 9 to 14) (size 15 to 20)
#    0.000    2.400    2.000    1.200    0.000    2.400 
#    0.000    0.000    0.000    0.600    0.000    9.800 
#    0.000    0.000    0.000    0.000    0.000    0.000 
#
# Total GULP energy -991570.376218 kJ/mol
# GULP energy per Si atom -12394.629703 kJ/mol
# Density = 1.723636 g / cm^3
# Si number density = 17.275675 Si / 1000 Ang^3
#
#
#
# Elastic Constant Matrix: (Units=GPa)
#
#
# Indices 1 2 3 4 5 6 
#
# 1 83.7086 55.1640 41.5233 0.0000 0.0000 0.0000
# 2 55.1640 83.7085 41.5232 0.0000 0.0000 0.0000
# 3 41.5233 41.5232 118.2765 0.0000 0.0000 0.0000
# 4 0.0000 0.0000 0.0000 13.1016 0.0000 0.0000
# 5 0.0000 0.0000 0.0000 0.0000 13.1014 0.0000
# 6 0.0000 0.0000 0.0000 0.0000 0.0000 24.4561
#
#
#
# Elastic Compliance Matrix: (Units=1/GPa)
#
#
# Indices 1 2 3 4 5 6 
#
# 1 0.022074 -0.012959 -0.003200 0.000000 0.000000 0.000000
# 2 -0.012959 0.022074 -0.003200 0.000000 0.000000 0.000000
# 3 -0.003200 -0.003200 0.010701 0.000000 0.000000 0.000000
# 4 0.000000 0.000000 0.000000 0.076327 0.000000 0.000000
# 5 0.000000 0.000000 0.000000 0.000000 0.076328 0.000000
# 6 0.000000 0.000000 0.000000 0.000000 0.000000 0.040890
#
#
# Mechanical properties :
#
#
# Convention : Reuss Voigt Hill
#
# Bulk Modulus (GPa) = 61.99225 62.45716 62.22471
# Shear Modulus (GPa) = 17.09473 19.96400 18.52937
#
# Velocity S-wave (km/s) = 3.14909 3.40312 3.27856
# Velocity P-wave (km/s) = 7.01316 7.18842 7.10133
#
# Compressibility (1/GPa) = 0.01613105
#
# Stress axis : x y z
#
# Youngs Moduli (GPa) = 45.30286 45.30289 93.44539
#
# Poissons Ratio (x) = 0.58710 0.29900
# Poissons Ratio (y) = 0.58710 0.29900
# Poissons Ratio (z) = 0.14496 0.14496
#
# Static dielectric constant tensor:
#      x y z
#    x 3.052690 0.000000 0.000000 
#    y 0.000000 3.052690 0.000000 
#    z 0.000000 0.000000 3.503560 
# 
# 
# High freq. dielectric constant tensor:
#      x y z
#    x 1.649110 0.000000 0.000000 
#    y 0.000000 1.649110 0.000000 
#    z 0.000000 0.000000 1.677420 
# 
# From -- ./inp_files/7721.got.cif
#   From: 2010.03.12/outbox.cif.g09.slc.cpg/sg129_4_cif.got.tgz:7721.got - 2010.04.06 17:19:44.
