data_PCOD8315345
_publ_section_title
;
Structure prediction by ZEFSAII (Michael W. Deem and Ramdas Pophale) SiO2 
 PCOD8315345
Probable space group: P 4/N M M
;
_chemical_formula_sum "Si O2"
_cell_formula_units_Z 112
_cell_length_a 18.341870
_cell_length_b 18.341870
_cell_length_c 18.377460
_cell_angle_alpha 90.000000
_cell_angle_beta 90.000000
_cell_angle_gamma 90.000000
_cell_volume 6182.622188
_symmetry_space_group_name_H-M "P 4/N M M"
_symmetry_group_IT_number 129
_symmetry_cell_setting 'tetragonal'
loop_
_space_group_symop_operation_xyz
x,y,z
1/2-y,x,z
1/2-x,1/2-y,z
y,1/2-x,z
1/2+x,-y,-z
-x,1/2+y,-z
1/2+y,1/2+x,-z
-y,-x,-z
-x,-y,-z
1/2+y,-x,-z
1/2+x,1/2+y,-z
-y,1/2+x,-z
1/2-x,y,z
x,1/2-y,z
1/2-y,1/2-x,z
y,x,z
loop_
_atom_site_type_symbol
_atom_site_label
_atom_site_fract_x
_atom_site_fract_y
_atom_site_fract_z
Si Si1 0.086151 0.666856 0.801143
Si Si2 0.553619 0.668456 0.061651
Si Si3 0.439786 0.560035 0.670732
Si Si4 0.334251 0.046553 0.592391
Si Si5 0.668831 0.944605 0.891215
Si Si6 0.667382 0.106939 0.072236
Si Si7 0.560895 0.334095 0.461654
O O1 0.086359 0.750000 0.771044
O O2 0.089375 0.608465 0.737075
O O3 0.152339 0.657740 0.858043
O O4 0.016453 0.647606 0.848837
O O5 0.581687 0.750000 0.078408
O O6 0.613004 0.613004 0.094115
O O7 0.476029 0.653060 0.098929
O O8 0.541913 0.657031 0.976088
O O9 0.511868 0.511868 0.688666
O O10 0.373233 0.506815 0.650025
O O11 0.459963 0.616932 0.607403
O O12 0.250000 0.059201 0.615655
O O13 0.375860 0.124140 0.589386
O O14 0.338590 0.009095 0.513701
O O15 0.750000 0.919534 0.873600
O O16 0.619054 0.880947 0.860225
O O17 0.750000 0.118447 0.047428
O O18 0.620999 0.120999 0.000000
O O19 0.633293 0.366708 0.500000
O O20 0.577113 0.250000 0.439947
#
# Coordination Sequence:
#
# PCOD8315345 Si02
#       7
#    16  16  16  16  16  16  16
#     4  11  22  35  51  74 102 132 169 214 261 310
#     4   9  18  32  51  75 100 127 161 203 251 305
#     4  10  20  34  53  76 105 141 178 213 255 306
#     4   9  18  33  54  79 106 136 171 212 255 302
#     4   9  17  30  47  69  97 126 160 201 245 296
#     4  11  22  37  54  73  97 129 170 215 265 322
#     4   9  17  31  52  79 110 144 180 216 254 300
#
# _framework density 18.115290000000002
#
# number of rings (size 3 to 8) (size 9 to 14) (size 15 to 20)
#    0.000    2.286    1.429    1.714    0.000    5.286 
#    0.000    1.429    0.000    2.571    0.000    0.000 
#    0.000   12.571    0.000    0.000    0.000    0.000 
#
# Total GULP energy -1388437.995235 kJ/mol
# GULP energy per Si atom -12396.767815 kJ/mol
# Density = 1.807406 g / cm^3
# Si number density = 18.115290 Si / 1000 Ang^3
#
#
#
# Elastic Constant Matrix: (Units=GPa)
#
#
# Indices 1 2 3 4 5 6 
#
# 1 94.6736 63.7483 24.5352 0.0000 0.0000 0.0000
# 2 63.7483 94.6741 24.5352 0.0000 0.0000 0.0000
# 3 24.5352 24.5352 57.9594 0.0000 0.0000 0.0000
# 4 0.0000 0.0000 0.0000 20.7450 0.0000 0.0000
# 5 0.0000 0.0000 0.0000 0.0000 20.7449 0.0000
# 6 0.0000 0.0000 0.0000 0.0000 0.0000 30.5966
#
#
#
# Elastic Compliance Matrix: (Units=1/GPa)
#
#
# Indices 1 2 3 4 5 6 
#
# 1 0.019800 -0.012535 -0.003075 0.000000 0.000000 0.000000
# 2 -0.012535 0.019800 -0.003075 0.000000 0.000000 0.000000
# 3 -0.003075 -0.003075 0.019857 0.000000 0.000000 0.000000
# 4 0.000000 0.000000 0.000000 0.048204 0.000000 0.000000
# 5 0.000000 0.000000 0.000000 0.000000 0.048205 0.000000
# 6 0.000000 0.000000 0.000000 0.000000 0.000000 0.032683
#
#
# Mechanical properties :
#
#
# Convention : Reuss Voigt Hill
#
# Bulk Modulus (GPa) = 45.27864 52.54939 48.91401
# Shear Modulus (GPa) = 21.43311 23.38320 22.40815
#
# Velocity S-wave (km/s) = 3.44343 3.59667 3.52088
# Velocity P-wave (km/s) = 6.39207 6.80583 6.60219
#
# Compressibility (1/GPa) = 0.02208547
#
# Stress axis : x y z
#
# Youngs Moduli (GPa) = 50.50423 50.50451 50.35979
#
# Poissons Ratio (x) = 0.63310 0.15487
# Poissons Ratio (y) = 0.63309 0.15487
# Poissons Ratio (z) = 0.15532 0.15532
#
# Static dielectric constant tensor:
#      x y z
#    x 3.517080 0.000000 0.000000 
#    y 0.000000 3.517080 0.000000 
#    z 0.000000 0.000000 3.158090 
# 
# 
# High freq. dielectric constant tensor:
#      x y z
#    x 1.705530 0.000000 0.000000 
#    y 0.000000 1.705530 0.000000 
#    z 0.000000 0.000000 1.676920 
# 
# From -- ./inp_files/6698.got.cif
#   From: 2010.03.12/outbox.cif.g09.slc.cpg/sg129_4_cif.got.tgz:6698.got - 2010.04.06 17:19:44.
