data_PCOD8315363
_publ_section_title
;
Structure prediction by ZEFSAII (Michael W. Deem and Ramdas Pophale) SiO2 
 PCOD8315363
Probable space group: P 4/N M M
;
_chemical_formula_sum "Si O2"
_cell_formula_units_Z 128
_cell_length_a 23.712460
_cell_length_b 23.712460
_cell_length_c 12.567407
_cell_angle_alpha 90.000000
_cell_angle_beta 90.000000
_cell_angle_gamma 90.000000
_cell_volume 7066.411150
_symmetry_space_group_name_H-M "P 4/N M M"
_symmetry_group_IT_number 129
_symmetry_cell_setting 'tetragonal'
loop_
_space_group_symop_operation_xyz
x,y,z
1/2-y,x,z
1/2-x,1/2-y,z
y,1/2-x,z
1/2+x,-y,-z
-x,1/2+y,-z
1/2+y,1/2+x,-z
-y,-x,-z
-x,-y,-z
1/2+y,-x,-z
1/2+x,1/2+y,-z
-y,1/2+x,-z
1/2-x,y,z
x,1/2-y,z
1/2-y,1/2-x,z
y,x,z
loop_
_atom_site_type_symbol
_atom_site_label
_atom_site_fract_x
_atom_site_fract_y
_atom_site_fract_z
Si Si1 0.513602 0.892516 0.761112
Si Si2 0.885340 0.073387 0.252011
Si Si3 0.487053 0.186255 0.429897
Si Si4 0.184848 0.600291 0.542153
Si Si5 0.094606 0.313785 0.618300
Si Si6 0.951773 0.640146 0.169624
Si Si7 0.002367 0.313957 0.038989
Si Si8 0.185890 0.615603 0.931256
O O1 0.552189 0.947812 0.770066
O O2 0.449913 0.909550 0.735593
O O3 0.534554 0.854262 0.663374
O O4 0.519244 0.857413 0.869434
O O5 0.852313 0.076298 0.362211
O O6 0.853624 0.115329 0.171788
O O7 0.884883 0.010787 0.206753
O O8 0.471859 0.250000 0.396483
O O9 0.554245 0.181009 0.448035
O O10 0.455906 0.169549 0.539167
O O11 0.159256 0.659256 0.500000
O O12 0.250000 0.609690 0.576727
O O13 0.114263 0.250000 0.601068
O O14 0.147720 0.352281 0.592026
O O15 0.073780 0.320532 0.738933
O O16 0.912303 0.587698 0.143493
O O17 0.957746 0.677177 0.063303
O O18 0.010110 0.250000 0.080266
O O19 0.938194 0.325390 0.005637
O O20 0.250000 0.618530 0.892022
O O21 0.170771 0.670771 0.000000
#
# Coordination Sequence:
#
# PCOD8315363 Si02
#       8
#    16  16  16  16  16  16  16  16
#     4  12  23  36  57  85 118 148 183 232 286 340
#     4  11  21  37  54  84 115 147 183 232 294 346
#     4  10  21  38  58  80 112 152 190 232 279 334
#     4  11  22  39  61  83 113 152 195 240 282 331
#     4  10  20  35  56  83 113 145 186 232 280 340
#     4  10  20  34  56  85 114 147 190 234 282 342
#     4  10  21  37  57  78 112 155 190 229 277 334
#     4  10  20  36  56  78 107 144 189 237 279 330
#
# _framework density 18.113862000000001
#
# number of rings (size 3 to 8) (size 9 to 14) (size 15 to 20)
#    0.000    1.500    3.750    2.250    0.000    1.375 
#    0.000    3.125    0.000    1.500    0.000    0.000 
#    0.000   10.250    0.000    0.000    0.000    0.000 
#
# Total GULP energy -1587438.525593 kJ/mol
# GULP energy per Si atom -12401.863481 kJ/mol
# Density = 1.807263 g / cm^3
# Si number density = 18.113862 Si / 1000 Ang^3
#
#
#
# Elastic Constant Matrix: (Units=GPa)
#
#
# Indices 1 2 3 4 5 6 
#
# 1 94.1685 43.3492 39.4082 0.0000 0.0000 0.0000
# 2 43.3492 94.1685 39.4082 0.0000 0.0000 0.0000
# 3 39.4082 39.4082 83.1468 0.0000 0.0000 0.0000
# 4 0.0000 0.0000 0.0000 25.5121 0.0000 0.0000
# 5 0.0000 0.0000 0.0000 0.0000 25.5121 0.0000
# 6 0.0000 0.0000 0.0000 0.0000 0.0000 26.3828
#
#
#
# Elastic Compliance Matrix: (Units=1/GPa)
#
#
# Indices 1 2 3 4 5 6 
#
# 1 0.014831 -0.004847 -0.004732 0.000000 0.000000 0.000000
# 2 -0.004847 0.014831 -0.004732 0.000000 0.000000 0.000000
# 3 -0.004732 -0.004732 0.016512 0.000000 0.000000 0.000000
# 4 0.000000 0.000000 0.000000 0.039197 0.000000 0.000000
# 5 0.000000 0.000000 0.000000 0.000000 0.039197 0.000000
# 6 0.000000 0.000000 0.000000 0.000000 0.000000 0.037903
#
#
# Mechanical properties :
#
#
# Convention : Reuss Voigt Hill
#
# Bulk Modulus (GPa) = 56.97243 57.31278 57.14260
# Shear Modulus (GPa) = 25.38797 25.43595 25.41196
#
# Velocity S-wave (km/s) = 3.74783 3.75136 3.74960
# Velocity P-wave (km/s) = 7.08865 7.10441 7.09653
#
# Compressibility (1/GPa) = 0.01755235
#
# Stress axis : x y z
#
# Youngs Moduli (GPa) = 67.42773 67.42773 60.56063
#
# Poissons Ratio (x) = 0.32681 0.28657
# Poissons Ratio (y) = 0.32681 0.28657
# Poissons Ratio (z) = 0.31906 0.31906
#
# Static dielectric constant tensor:
#      x y z
#    x 3.283610 0.000000 0.000000 
#    y 0.000000 3.283610 0.000000 
#    z 0.000000 0.000000 3.357360 
# 
# 
# High freq. dielectric constant tensor:
#      x y z
#    x 1.697740 0.000000 0.000000 
#    y 0.000000 1.697740 0.000000 
#    z 0.000000 0.000000 1.707040 
# 
# From -- ./inp_files/4181.got.cif
#   From: 2010.03.12/outbox.cif.g09.slc.cpg/sg129_3_cif.got.tgz:4181.got - 2010.04.06 17:19:44.
