data_PCOD8315446
_publ_section_title
;
Structure prediction by ZEFSAII (Michael W. Deem and Ramdas Pophale) SiO2 
 PCOD8315446
Probable space group: P 4/N M M
;
_chemical_formula_sum "Si O2"
_cell_formula_units_Z 112
_cell_length_a 18.367203
_cell_length_b 18.367203
_cell_length_c 20.793394
_cell_angle_alpha 90.000000
_cell_angle_beta 90.000000
_cell_angle_gamma 90.000000
_cell_volume 7014.737676
_symmetry_space_group_name_H-M "P 4/N M M"
_symmetry_group_IT_number 129
_symmetry_cell_setting 'tetragonal'
loop_
_space_group_symop_operation_xyz
x,y,z
1/2-y,x,z
1/2-x,1/2-y,z
y,1/2-x,z
1/2+x,-y,-z
-x,1/2+y,-z
1/2+y,1/2+x,-z
-y,-x,-z
-x,-y,-z
1/2+y,-x,-z
1/2+x,1/2+y,-z
-y,1/2+x,-z
1/2-x,y,z
x,1/2-y,z
1/2-y,1/2-x,z
y,x,z
loop_
_atom_site_type_symbol
_atom_site_label
_atom_site_fract_x
_atom_site_fract_y
_atom_site_fract_z
Si Si1 0.950205 0.667097 0.553294
Si Si2 0.456961 0.574769 0.646149
Si Si3 0.335348 0.923603 0.092441
Si Si4 0.563785 0.056224 0.791271
Si Si5 0.666838 0.074881 0.453448
Si Si6 0.667718 0.036699 0.043493
Si Si7 0.548533 0.836389 0.161149
O O1 0.930073 0.750000 0.567709
O O2 0.875697 0.624304 0.541769
O O3 0.993648 0.636823 0.614477
O O4 0.998166 0.658438 0.489404
O O5 0.496373 0.496373 0.640107
O O6 0.446203 0.597225 0.720062
O O7 0.378884 0.570391 0.611959
O O8 0.250000 0.902894 0.101775
O O9 0.368682 0.952123 0.159273
O O10 0.383564 0.857301 0.066927
O O11 0.344267 0.980912 0.032468
O O12 0.517998 0.131530 0.796174
O O13 0.511398 0.988602 0.805757
O O14 0.638945 0.138945 0.500000
O O15 0.750000 0.091623 0.435121
O O16 0.750000 0.040901 0.062471
O O17 0.637853 0.971037 0.087852
O O18 0.556801 0.750000 0.172739
O O19 0.625107 0.874893 0.179268
#
# Coordination Sequence:
#
# PCOD8315446 Si02
#       7
#    16  16  16  16  16  16  16
#     4   9  17  29  46  68  91 114 142 176 213 253
#     4   9  17  30  46  63  86 116 148 178 209 250
#     4   9  16  26  42  62  82 107 141 177 212 256
#     4   9  18  30  43  62  88 115 142 177 218 252
#     4   9  17  29  46  66  86 111 143 177 212 251
#     4   8  15  27  41  59  83 109 137 172 216 261
#     4   9  17  29  44  62  85 112 143 179 217 257
#
# _framework density 15.966385000000001
#
# number of rings (size 3 to 8) (size 9 to 14) (size 15 to 20)
#    0.000    3.143    0.000    0.429    0.000    4.143 
#    0.000    4.286    0.000    0.000    0.000    4.000 
#    0.000    3.714    0.000    0.286    0.000    0.000 
#
# Total GULP energy -1387498.984068 kJ/mol
# GULP energy per Si atom -12388.383786 kJ/mol
# Density = 1.593004 g / cm^3
# Si number density = 15.966385 Si / 1000 Ang^3
#
#
#
# Elastic Constant Matrix: (Units=GPa)
#
#
# Indices 1 2 3 4 5 6 
#
# 1 88.9913 29.1559 30.7329 0.0000 0.0000 0.0000
# 2 29.1559 88.9913 30.7329 0.0000 0.0000 0.0000
# 3 30.7329 30.7329 95.0561 0.0000 0.0000 0.0000
# 4 0.0000 0.0000 0.0000 16.5993 0.0000 0.0000
# 5 0.0000 0.0000 0.0000 0.0000 16.5993 0.0000
# 6 0.0000 0.0000 0.0000 0.0000 0.0000 14.9009
#
#
#
# Elastic Compliance Matrix: (Units=1/GPa)
#
#
# Indices 1 2 3 4 5 6 
#
# 1 0.013444 -0.003268 -0.003290 0.000000 0.000000 0.000000
# 2 -0.003268 0.013444 -0.003290 0.000000 0.000000 0.000000
# 3 -0.003290 -0.003290 0.012647 0.000000 0.000000 0.000000
# 4 0.000000 0.000000 0.000000 0.060244 0.000000 0.000000
# 5 0.000000 0.000000 0.000000 0.000000 0.060244 0.000000
# 6 0.000000 0.000000 0.000000 0.000000 0.000000 0.067110
#
#
# Mechanical properties :
#
#
# Convention : Reuss Voigt Hill
#
# Bulk Modulus (GPa) = 50.40577 50.47580 50.44078
# Shear Modulus (GPa) = 19.72838 21.78104 20.75471
#
# Velocity S-wave (km/s) = 3.51895 3.69749 3.60932
# Velocity P-wave (km/s) = 6.93896 7.06477 7.00215
#
# Compressibility (1/GPa) = 0.01983900
#
# Stress axis : x y z
#
# Youngs Moduli (GPa) = 74.38238 74.38238 79.06743
#
# Poissons Ratio (x) = 0.24312 0.26012
# Poissons Ratio (y) = 0.24312 0.26012
# Poissons Ratio (z) = 0.24471 0.24471
#
# Static dielectric constant tensor:
#      x y z
#    x 2.978870 0.000000 0.000000 
#    y 0.000000 2.978870 0.000000 
#    z 0.000000 0.000000 3.201190 
# 
# 
# High freq. dielectric constant tensor:
#      x y z
#    x 1.601300 0.000000 0.000000 
#    y 0.000000 1.601300 0.000000 
#    z 0.000000 0.000000 1.613990 
# 
# From -- ./inp_files/6724.got.cif
#   From: 2010.03.12/outbox.cif.g09.slc.cpg/sg129_4_cif.got.tgz:6724.got - 2010.04.06 17:19:44.
