data_PCOD8315632
_publ_section_title
;
Structure prediction by ZEFSAII (Michael W. Deem and Ramdas Pophale) SiO2 
 PCOD8315632
Probable space group: P 4/N C C
;
_chemical_formula_sum "Si O2"
_cell_formula_units_Z 48
_cell_length_a 10.349277
_cell_length_b 10.349277
_cell_length_c 18.082133
_cell_angle_alpha 90.000000
_cell_angle_beta 90.000000
_cell_angle_gamma 90.000000
_cell_volume 1936.732683
_symmetry_space_group_name_H-M "P 4/N C C"
_symmetry_group_IT_number 130
_symmetry_cell_setting 'tetragonal'
loop_
_space_group_symop_operation_xyz
x,y,z
1/2-y,x,z
1/2-x,1/2-y,z
y,1/2-x,z
1/2+x,-y,1/2-z
-x,1/2+y,1/2-z
1/2+y,1/2+x,1/2-z
-y,-x,1/2-z
-x,-y,-z
1/2+y,-x,-z
1/2+x,1/2+y,-z
-y,1/2+x,-z
1/2-x,y,1/2+z
x,1/2-y,1/2+z
1/2-y,1/2-x,1/2+z
y,x,1/2+z
loop_
_atom_site_type_symbol
_atom_site_label
_atom_site_fract_x
_atom_site_fract_y
_atom_site_fract_z
Si Si1 0.968187 0.036885 0.164197
Si Si2 0.899664 0.292120 0.102858
Si Si3 0.688728 0.949208 0.536991
O O1 0.996483 0.178349 0.129330
O O2 0.084038 0.935328 0.153008
O O3 0.941522 0.058479 0.250000
O O4 0.836531 0.990831 0.121993
O O5 0.750000 0.250000 0.111560
O O6 0.930956 0.337766 0.018524
O O7 0.590428 0.834370 0.521369
#
# Coordination Sequence:
#
# PCOD8315632 Si02
#       3
#    16  16  16
#     4  12  30  48  77 120 161 212 269 334 418 491
#     4  12  28  49  85 114 162 214 273 337 411 495
#     4  11  25  50  78 115 157 207 270 332 401 490
#
# _framework density 24.784009999999999
#
# number of rings (size 3 to 8) (size 9 to 14) (size 15 to 20)
#    0.000    0.333    3.333    3.000   14.000    0.667 
#    0.000    0.000    0.000    0.000    0.000    0.000 
#    0.000    0.000    0.000    0.000    0.000    0.000 
#
# Total GULP energy -594815.518809 kJ/mol
# GULP energy per Si atom -12391.989975 kJ/mol
# Density = 2.472760 g / cm^3
# Si number density = 24.784010 Si / 1000 Ang^3
#
#
#
# Elastic Constant Matrix: (Units=GPa)
#
#
# Indices 1 2 3 4 5 6 
#
# 1 128.3726 50.4023 48.6071 0.0000 0.0000 0.0000
# 2 50.4023 128.3726 48.6071 0.0000 0.0000 0.0000
# 3 48.6071 48.6071 199.7769 0.0000 0.0000 0.0000
# 4 0.0000 0.0000 0.0000 34.2545 0.0000 0.0000
# 5 0.0000 0.0000 0.0000 0.0000 34.2545 0.0000
# 6 0.0000 0.0000 0.0000 0.0000 0.0000 51.7508
#
#
#
# Elastic Compliance Matrix: (Units=1/GPa)
#
#
# Indices 1 2 3 4 5 6 
#
# 1 0.009636 -0.003189 -0.001568 0.000000 0.000000 0.000000
# 2 -0.003189 0.009636 -0.001568 0.000000 0.000000 0.000000
# 3 -0.001568 -0.001568 0.005769 0.000000 0.000000 0.000000
# 4 0.000000 0.000000 0.000000 0.029193 0.000000 0.000000
# 5 0.000000 0.000000 0.000000 0.000000 0.029193 0.000000
# 6 0.000000 0.000000 0.000000 0.000000 0.000000 0.019323
#
#
# Mechanical properties :
#
#
# Convention : Reuss Voigt Hill
#
# Bulk Modulus (GPa) = 80.72355 83.52835 82.12595
# Shear Modulus (GPa) = 41.82953 44.64566 43.23759
#
# Velocity S-wave (km/s) = 4.11270 4.24888 4.18134
# Velocity P-wave (km/s) = 7.42926 7.60568 7.51799
#
# Compressibility (1/GPa) = 0.01238796
#
# Stress axis : x y z
#
# Youngs Moduli (GPa) = 103.77778 103.77778 173.34530
#
# Poissons Ratio (x) = 0.33099 0.27189
# Poissons Ratio (y) = 0.33099 0.27189
# Poissons Ratio (z) = 0.16277 0.16277
#
# Static dielectric constant tensor:
#      x y z
#    x 4.776910 0.000000 0.000000 
#    y 0.000000 4.776910 0.000000 
#    z 0.000000 0.000000 4.256650 
# 
# 
# High freq. dielectric constant tensor:
#      x y z
#    x 2.002310 0.000000 0.000000 
#    y 0.000000 2.002310 0.000000 
#    z 0.000000 0.000000 1.973170 
# 
# From -- ./inp_files/2722.got.cif
#   From: 2010.03.12/outbox.cif.g09.slc.cpg/sg130_2_cif.got.tgz:2722.got - 2010.04.06 17:30:23.
