data_PCOD8315920
_publ_section_title
;
Structure prediction by ZEFSAII (Michael W. Deem and Ramdas Pophale) SiO2 
 PCOD8315920
Probable space group: P 42/M M C
;
_chemical_formula_sum "Si O2"
_cell_formula_units_Z 104
_cell_length_a 18.642023
_cell_length_b 18.642023
_cell_length_c 17.155705
_cell_angle_alpha 90.000000
_cell_angle_beta 90.000000
_cell_angle_gamma 90.000000
_cell_volume 5962.036750
_symmetry_space_group_name_H-M "P 42/M M C"
_symmetry_group_IT_number 131
_symmetry_cell_setting 'tetragonal'
loop_
_space_group_symop_operation_xyz
x,y,z
-x,-y,z
-y,x,1/2+z
y,-x,1/2+z
-x,y,-z
x,-y,-z
y,x,1/2-z
-y,-x,1/2-z
-x,-y,-z
x,y,-z
y,-x,1/2-z
-y,x,1/2-z
x,-y,z
-x,y,z
-y,-x,1/2+z
y,x,1/2+z
loop_
_atom_site_type_symbol
_atom_site_label
_atom_site_fract_x
_atom_site_fract_y
_atom_site_fract_z
Si Si1 0.417751 0.830111 0.808327
Si Si2 0.687237 0.582842 0.216662
Si Si3 0.253264 0.681976 0.911939
Si Si4 0.330239 0.889094 0.325497
Si Si5 0.917555 0.197856 0.720579
Si Si6 0.000000 0.579583 0.910177
Si Si7 0.709435 0.155832 0.087868
O O1 0.500000 0.844106 0.829671
O O2 0.403734 0.747655 0.782729
O O3 0.393913 0.877702 0.735757
O O4 0.370877 0.858202 0.881076
O O5 0.612701 0.612701 0.250000
O O6 0.678589 0.500000 0.196553
O O7 0.703146 0.622299 0.135333
O O8 0.180223 0.698386 0.868153
O O9 0.290502 0.758548 0.911487
O O10 0.242878 0.653370 0.000000
O O11 0.260007 0.923098 0.285636
O O12 0.369734 0.933973 0.390684
O O13 0.870093 0.129907 0.750000
O O14 0.880943 0.230339 0.642455
O O15 0.000000 0.172843 0.703427
O O16 0.000000 0.500000 0.869463
O O17 0.000000 0.564186 0.000000
O O18 0.719129 0.125644 0.000000
#
# Coordination Sequence:
#
# PCOD8315920 Si02
#       7
#    16  16  16  16  16   8  16
#     4   9  18  31  52  78 107 143 186 235 277 324
#     4  10  19  32  50  74 106 144 190 237 280 330
#     4  10  19  33  55  80 106 137 180 234 281 329
#     4  10  19  34  55  81 108 148 185 220 270 333
#     4  11  22  39  63  88 113 145 187 230 275 333
#     4  11  22  34  50  80 122 154 180 217 270 340
#     4  10  20  34  58  85 111 145 184 233 283 328
#
# _framework density 17.443701999999998
#
# number of rings (size 3 to 8) (size 9 to 14) (size 15 to 20)
#    0.000    1.923    3.846    0.923    0.000    1.846 
#    0.000    0.000    0.000    0.462    0.000    4.308 
#    0.000    0.000    0.000    0.000    0.000    0.000 
#
# Total GULP energy -1288654.189054 kJ/mol
# GULP energy per Si atom -12390.905664 kJ/mol
# Density = 1.740400 g / cm^3
# Si number density = 17.443702 Si / 1000 Ang^3
#
#
#
# Elastic Constant Matrix: (Units=GPa)
#
#
# Indices 1 2 3 4 5 6 
#
# 1 90.5088 29.0060 39.8638 0.0000 0.0000 0.0000
# 2 29.0060 90.5089 39.8641 0.0000 0.0000 0.0000
# 3 39.8638 39.8641 111.3407 0.0000 0.0000 0.0000
# 4 0.0000 0.0000 0.0000 19.5600 0.0000 0.0000
# 5 0.0000 0.0000 0.0000 0.0000 19.5602 0.0000
# 6 0.0000 0.0000 0.0000 0.0000 0.0000 61.8754
#
#
#
# Elastic Compliance Matrix: (Units=1/GPa)
#
#
# Indices 1 2 3 4 5 6 
#
# 1 0.013626 -0.002633 -0.003936 0.000000 0.000000 0.000000
# 2 -0.002633 0.013626 -0.003936 0.000000 0.000000 0.000000
# 3 -0.003936 -0.003936 0.011800 0.000000 0.000000 0.000000
# 4 0.000000 0.000000 0.000000 0.051125 0.000000 0.000000
# 5 0.000000 0.000000 0.000000 0.000000 0.051124 0.000000
# 6 0.000000 0.000000 0.000000 0.000000 0.000000 0.016161
#
#
# Mechanical properties :
#
#
# Convention : Reuss Voigt Hill
#
# Bulk Modulus (GPa) = 55.42615 56.64736 56.03675
# Shear Modulus (GPa) = 27.10231 32.44077 29.77154
#
# Velocity S-wave (km/s) = 3.94598 4.31715 4.13573
# Velocity P-wave (km/s) = 7.25288 7.57597 7.41618
#
# Compressibility (1/GPa) = 0.01804203
#
# Stress axis : x y z
#
# Youngs Moduli (GPa) = 73.38887 73.38878 84.74765
#
# Poissons Ratio (x) = 0.19326 0.33355
# Poissons Ratio (y) = 0.19326 0.33355
# Poissons Ratio (z) = 0.28884 0.28884
#
# Static dielectric constant tensor:
#      x y z
#    x 3.151170 0.000000 0.000000 
#    y 0.000000 3.151170 0.000000 
#    z 0.000000 0.000000 3.329270 
# 
# 
# High freq. dielectric constant tensor:
#      x y z
#    x 1.667600 0.000000 0.000000 
#    y 0.000000 1.667600 0.000000 
#    z 0.000000 0.000000 1.670440 
# 
# From -- ./inp_files/8092.got.cif
#   From: 2010.03.12/outbox.cif.g09.slc.cpg/sg131_5_cif.got.tgz:8092.got - 2010.04.06 17:36:35.
