data_PCOD8315678
_publ_section_title
;
Structure prediction by ZEFSAII (Michael W. Deem and Ramdas Pophale) SiO2 
 PCOD8315678
Probable space group: P 42/M M C
;
_chemical_formula_sum "Si O2"
_cell_formula_units_Z 84
_cell_length_a 14.441594
_cell_length_b 14.441594
_cell_length_c 22.125691
_cell_angle_alpha 90.000000
_cell_angle_beta 90.000000
_cell_angle_gamma 90.000000
_cell_volume 4614.526089
_symmetry_space_group_name_H-M "P 42/M M C"
_symmetry_group_IT_number 131
_symmetry_cell_setting 'tetragonal'
loop_
_space_group_symop_operation_xyz
x,y,z
-x,-y,z
-y,x,1/2+z
y,-x,1/2+z
-x,y,-z
x,-y,-z
y,x,1/2-z
-y,-x,1/2-z
-x,-y,-z
x,y,-z
y,-x,1/2-z
-y,x,1/2-z
x,-y,z
-x,y,z
-y,-x,1/2+z
y,x,1/2+z
loop_
_atom_site_type_symbol
_atom_site_label
_atom_site_fract_x
_atom_site_fract_y
_atom_site_fract_z
Si Si1 0.844746 0.322936 0.206727
Si Si2 0.820971 0.000000 0.720112
Si Si3 0.804035 0.000000 0.142540
Si Si4 0.000000 0.000000 0.359277
Si Si5 0.810489 0.302258 0.658920
Si Si6 0.291243 0.500000 0.070101
Si Si7 0.500000 0.103024 0.632981
Si Si8 0.318116 0.607289 0.569454
O O1 0.910491 0.235936 0.204169
O O2 0.828818 0.352047 0.276754
O O3 0.759236 0.281185 0.170021
O O4 0.887263 0.411026 0.174794
O O5 0.909369 0.000000 0.680095
O O6 0.847039 0.000000 0.790295
O O7 0.744852 0.905476 0.133251
O O8 0.901007 0.000000 0.102886
O O9 0.775502 0.373018 0.607585
O O10 0.180992 0.500000 0.081636
O O11 0.337722 0.406973 0.096875
O O12 0.311591 0.500000 0.000000
O O13 0.500000 0.000000 0.603599
O O14 0.298699 0.636617 0.500000
O O15 0.342721 0.500000 0.574238
#
# Coordination Sequence:
#
# PCOD8315678 Si02
#       8
#    16   8   8   4  16   8   8  16
#     4  10  20  32  49  77 117 149 177 215 270 325
#     4  10  17  29  44  76 111 145 183 217 254 312
#     4  10  19  28  49  79 108 145 178 224 273 312
#     4  12  17  24  50  78 109 142 189 226 256 305
#     4  10  20  35  52  78 112 142 183 228 272 328
#     4  10  21  39  60  83 111 141 184 234 276 321
#     4  12  22  34  55  86 119 153 178 209 274 349
#     4  10  21  39  62  82 101 137 189 240 282 324
#
# _framework density 18.203385999999998
#
# number of rings (size 3 to 8) (size 9 to 14) (size 15 to 20)
#    0.000    1.714    4.762    1.143    1.333    1.333 
#    0.000    0.952    0.000    1.143    0.000    0.667 
#    0.000    0.000    0.000    0.000    0.000    0.000 
#
# Total GULP energy -1040605.022218 kJ/mol
# GULP energy per Si atom -12388.155026 kJ/mol
# Density = 1.816195 g / cm^3
# Si number density = 18.203386 Si / 1000 Ang^3
#
#
#
# Elastic Constant Matrix: (Units=GPa)
#
#
# Indices 1 2 3 4 5 6 
#
# 1 94.0990 30.8048 22.0982 0.0000 0.0000 0.0000
# 2 30.8048 94.0990 22.0982 0.0000 0.0000 0.0000
# 3 22.0982 22.0982 38.8407 0.0000 0.0000 0.0000
# 4 0.0000 0.0000 0.0000 39.7255 0.0000 0.0000
# 5 0.0000 0.0000 0.0000 0.0000 39.7255 0.0000
# 6 0.0000 0.0000 0.0000 0.0000 0.0000 39.3819
#
#
#
# Elastic Compliance Matrix: (Units=1/GPa)
#
#
# Indices 1 2 3 4 5 6 
#
# 1 0.012912 -0.002888 -0.005703 0.000000 0.000000 0.000000
# 2 -0.002888 0.012912 -0.005703 0.000000 0.000000 0.000000
# 3 -0.005703 -0.005703 0.032236 0.000000 0.000000 0.000000
# 4 0.000000 0.000000 0.000000 0.025173 0.000000 0.000000
# 5 0.000000 0.000000 0.000000 0.000000 0.025173 0.000000
# 6 0.000000 0.000000 0.000000 0.000000 0.000000 0.025392
#
#
# Mechanical properties :
#
#
# Convention : Reuss Voigt Hill
#
# Bulk Modulus (GPa) = 33.93126 41.89346 37.91236
# Shear Modulus (GPa) = 29.03451 33.90241 31.46846
#
# Velocity S-wave (km/s) = 3.99809 4.32026 4.16229
# Velocity P-wave (km/s) = 6.32404 6.92461 6.63113
#
# Compressibility (1/GPa) = 0.02947135
#
# Stress axis : x y z
#
# Youngs Moduli (GPa) = 77.44899 77.44899 31.02138
#
# Poissons Ratio (x) = 0.22363 0.17692
# Poissons Ratio (y) = 0.22363 0.17692
# Poissons Ratio (z) = 0.44171 0.44171
#
# Static dielectric constant tensor:
#      x y z
#    x 3.427890 0.000000 0.000000 
#    y 0.000000 3.427890 0.000000 
#    z 0.000000 0.000000 3.018470 
# 
# 
# High freq. dielectric constant tensor:
#      x y z
#    x 1.717720 0.000000 0.000000 
#    y 0.000000 1.717720 0.000000 
#    z 0.000000 0.000000 1.661680 
# 
# From -- ./inp_files/11139.got.cif
#   From: 2010.03.12/outbox.cif.g09.slc.cpg/sg131_6_cif.got.tgz:11139.got - 2010.04.06 17:36:35.
