data_PCOD8315063
_publ_section_title
;
Structure prediction by ZEFSAII (Michael W. Deem and Ramdas Pophale) SiO2 
 PCOD8315063
Probable space group: P 4/N M M
;
_chemical_formula_sum "Si O2"
_cell_formula_units_Z 88
_cell_length_a 13.589176
_cell_length_b 13.589176
_cell_length_c 28.454969
_cell_angle_alpha 90.000000
_cell_angle_beta 90.000000
_cell_angle_gamma 90.000000
_cell_volume 5254.656893
_symmetry_space_group_name_H-M "P 4/N M M"
_symmetry_group_IT_number 129
_symmetry_cell_setting 'tetragonal'
loop_
_space_group_symop_operation_xyz
x,y,z
1/2-y,x,z
1/2-x,1/2-y,z
y,1/2-x,z
1/2+x,-y,-z
-x,1/2+y,-z
1/2+y,1/2+x,-z
-y,-x,-z
-x,-y,-z
1/2+y,-x,-z
1/2+x,1/2+y,-z
-y,1/2+x,-z
1/2-x,y,z
x,1/2-y,z
1/2-y,1/2-x,z
y,x,z
loop_
_atom_site_type_symbol
_atom_site_label
_atom_site_fract_x
_atom_site_fract_y
_atom_site_fract_z
Si Si1 0.523911 0.366219 0.275270
Si Si2 0.522257 0.134360 0.092912
Si Si3 0.863371 0.363371 0.000000
Si Si4 0.866707 0.140364 0.816591
Si Si5 0.133568 0.526528 0.459731
Si Si6 0.859748 0.366337 0.366970
O O1 0.504320 0.250000 0.275954
O O2 0.417977 0.417977 0.277500
O O3 0.579786 0.401916 0.228609
O O4 0.589433 0.401795 0.319063
O O5 0.504087 0.250000 0.095927
O O6 0.575279 0.102620 0.044988
O O7 0.588255 0.096003 0.136066
O O8 0.416180 0.083821 0.095307
O O9 0.882387 0.250000 0.987878
O O10 0.750000 0.147226 0.816890
O O11 0.912029 0.250000 0.814450
O O12 0.103670 0.603670 0.500000
O O13 0.250000 0.505864 0.461754
O O14 0.099464 0.574578 0.410750
O O15 0.077056 0.422944 0.466252
O O16 0.750000 0.412566 0.370271
O O17 0.850601 0.250000 0.367032
#
# Coordination Sequence:
#
# PCOD8315063 Si02
#       6
#    16  16   8  16  16  16
#     4  10  19  30  45  67  96 127 157 189 228 278
#     4  10  19  30  45  66  93 122 150 181 219 269
#     4   9  17  30  48  68  89 115 150 194 236 263
#     4   9  17  30  47  65  86 114 149 190 232 267
#     4  10  20  33  50  73 100 130 164 201 243 292
#     4   9  17  30  48  68  91 121 157 198 240 277
#
# _framework density 16.747050000000002
#
# number of rings (size 3 to 8) (size 9 to 14) (size 15 to 20)
#    0.000    2.455    0.000    3.000    0.000    5.818 
#    0.000    0.000    0.000    6.545    0.000    0.000 
#    0.000   40.364    0.000    0.000    0.000    0.000 
#
# Total GULP energy -1091200.066885 kJ/mol
# GULP energy per Si atom -12400.000760 kJ/mol
# Density = 1.670893 g / cm^3
# Si number density = 16.747050 Si / 1000 Ang^3
#
#
#
# Elastic Constant Matrix: (Units=GPa)
#
#
# Indices 1 2 3 4 5 6 
#
# 1 77.8637 45.9870 44.0466 0.0000 0.0000 0.0000
# 2 45.9870 77.8637 44.0466 0.0000 0.0000 0.0000
# 3 44.0466 44.0466 142.4642 0.0000 0.0000 0.0000
# 4 0.0000 0.0000 0.0000 19.0150 0.0000 0.0000
# 5 0.0000 0.0000 0.0000 0.0000 19.0150 0.0000
# 6 0.0000 0.0000 0.0000 0.0000 0.0000 19.0194
#
#
#
# Elastic Compliance Matrix: (Units=1/GPa)
#
#
# Indices 1 2 3 4 5 6 
#
# 1 0.020861 -0.010510 -0.003200 0.000000 0.000000 0.000000
# 2 -0.010510 0.020861 -0.003200 0.000000 0.000000 0.000000
# 3 -0.003200 -0.003200 0.008998 0.000000 0.000000 0.000000
# 4 0.000000 0.000000 0.000000 0.052590 0.000000 0.000000
# 5 0.000000 0.000000 0.000000 0.000000 0.052590 0.000000
# 6 0.000000 0.000000 0.000000 0.000000 0.000000 0.052578
#
#
# Mechanical properties :
#
#
# Convention : Reuss Voigt Hill
#
# Bulk Modulus (GPa) = 59.17678 62.92802 61.05240
# Shear Modulus (GPa) = 20.16690 22.35065 21.25877
#
# Velocity S-wave (km/s) = 3.47393 3.65718 3.56674
# Velocity P-wave (km/s) = 7.17658 7.44919 7.31416
#
# Compressibility (1/GPa) = 0.01689852
#
# Stress axis : x y z
#
# Youngs Moduli (GPa) = 47.93706 47.93706 111.13449
#
# Poissons Ratio (x) = 0.50383 0.35564
# Poissons Ratio (y) = 0.50383 0.35564
# Poissons Ratio (z) = 0.15340 0.15340
#
# Static dielectric constant tensor:
#      x y z
#    x 2.961280 0.000000 0.000000 
#    y 0.000000 2.961280 0.000000 
#    z 0.000000 0.000000 3.431260 
# 
# 
# High freq. dielectric constant tensor:
#      x y z
#    x 1.624760 0.000000 0.000000 
#    y 0.000000 1.624760 0.000000 
#    z 0.000000 0.000000 1.668390 
# 
# From -- ./inp_files/6944.got.cif
#   From: 2010.03.12/outbox.cif.g09.slc.cpg/sg129_4_cif.got.tgz:6944.got - 2010.04.06 17:19:44.
