data_PCOD8315835
_publ_section_title
;
Structure prediction by ZEFSAII (Michael W. Deem and Ramdas Pophale) SiO2 
 PCOD8315835
Probable space group: P 42/M M C
;
_chemical_formula_sum "Si O2"
_cell_formula_units_Z 96
_cell_length_a 14.277485
_cell_length_b 14.277485
_cell_length_c 30.419616
_cell_angle_alpha 90.000000
_cell_angle_beta 90.000000
_cell_angle_gamma 90.000000
_cell_volume 6200.934623
_symmetry_space_group_name_H-M "P 42/M M C"
_symmetry_group_IT_number 131
_symmetry_cell_setting 'tetragonal'
loop_
_space_group_symop_operation_xyz
x,y,z
-x,-y,z
-y,x,1/2+z
y,-x,1/2+z
-x,y,-z
x,-y,-z
y,x,1/2-z
-y,-x,1/2-z
-x,-y,-z
x,y,-z
y,-x,1/2-z
-y,x,1/2-z
x,-y,z
-x,y,z
-y,-x,1/2+z
y,x,1/2+z
loop_
_atom_site_type_symbol
_atom_site_label
_atom_site_fract_x
_atom_site_fract_y
_atom_site_fract_z
Si Si1 0.149019 0.603803 0.270267
Si Si2 0.798627 0.396349 0.829941
Si Si3 0.780850 0.111898 0.368252
Si Si4 0.896876 0.802568 0.290260
Si Si5 0.355641 0.601152 0.700955
Si Si6 0.110907 0.895735 0.951379
O O1 0.102260 0.500000 0.276366
O O2 0.164057 0.623957 0.218794
O O3 0.089537 0.689410 0.290153
O O4 0.244525 0.607371 0.296973
O O5 0.828228 0.500000 0.845775
O O6 0.845545 0.322880 0.863155
O O7 0.685263 0.391913 0.829666
O O8 0.851272 0.159085 0.334240
O O9 0.818512 0.143104 0.416058
O O10 0.778653 0.000000 0.361492
O O11 0.831445 0.831445 0.250000
O O12 0.000000 0.847283 0.285733
O O13 0.395918 0.604083 0.750000
O O14 0.385384 0.500000 0.680606
O O15 0.000000 0.900219 0.951608
O O16 0.149119 0.000000 0.939306
O O17 0.147527 0.866435 0.000000
#
# Coordination Sequence:
#
# PCOD8315835 Si02
#       6
#    16  16  16  16  16  16
#     4   9  17  31  47  60  84 123 161 196 231 267
#     4  10  19  30  44  63  89 122 161 194 227 274
#     4  11  21  33  47  65  93 126 158 191 230 274
#     4  12  22  32  44  62  92 126 159 193 227 268
#     4   9  15  26  44  63  85 114 153 201 246 275
#     4   8  15  30  52  74  91 110 145 194 242 284
#
# _framework density 15.481538
#
# number of rings (size 3 to 8) (size 9 to 14) (size 15 to 20)
#    0.000    2.167    3.333    3.500    0.000    3.667 
#    0.000    1.667    0.000    0.500    0.000    2.333 
#    0.000    2.667    0.000   10.667    0.000    0.667 
#
# Total GULP energy -1189571.346863 kJ/mol
# GULP energy per Si atom -12391.368196 kJ/mol
# Density = 1.544630 g / cm^3
# Si number density = 15.481538 Si / 1000 Ang^3
#
#
#
# Elastic Constant Matrix: (Units=GPa)
#
#
# Indices 1 2 3 4 5 6 
#
# 1 98.8367 32.4843 40.0261 0.0000 0.0000 0.0000
# 2 32.4843 98.8371 40.0260 0.0000 0.0000 0.0000
# 3 40.0261 40.0260 80.1093 0.0000 0.0000 0.0000
# 4 0.0000 0.0000 0.0000 6.3127 0.0000 0.0000
# 5 0.0000 0.0000 0.0000 0.0000 6.3126 0.0000
# 6 0.0000 0.0000 0.0000 0.0000 0.0000 9.6391
#
#
#
# Elastic Compliance Matrix: (Units=1/GPa)
#
#
# Indices 1 2 3 4 5 6 
#
# 1 0.013011 -0.002060 -0.005471 0.000000 0.000000 0.000000
# 2 -0.002060 0.013010 -0.005471 0.000000 0.000000 0.000000
# 3 -0.005471 -0.005471 0.017950 0.000000 0.000000 0.000000
# 4 0.000000 0.000000 0.000000 0.158410 0.000000 0.000000
# 5 0.000000 0.000000 0.000000 0.000000 0.158413 0.000000
# 6 0.000000 0.000000 0.000000 0.000000 0.000000 0.103745
#
#
# Mechanical properties :
#
#
# Convention : Reuss Voigt Hill
#
# Bulk Modulus (GPa) = 55.66133 55.87289 55.76711
# Shear Modulus (GPa) = 10.06982 15.46932 12.76957
#
# Velocity S-wave (km/s) = 2.55314 3.16446 2.87509
# Velocity P-wave (km/s) = 6.68751 7.03705 6.86451
#
# Compressibility (1/GPa) = 0.01796579
#
# Stress axis : x y z
#
# Youngs Moduli (GPa) = 76.86058 76.86104 55.70981
#
# Poissons Ratio (x) = 0.15837 0.30480
# Poissons Ratio (y) = 0.15837 0.30479
# Poissons Ratio (z) = 0.42052 0.42051
#
# Static dielectric constant tensor:
#      x y z
#    x 3.068250 0.000000 0.000000 
#    y 0.000000 3.068260 0.000000 
#    z 0.000000 0.000000 2.796610 
# 
# 
# High freq. dielectric constant tensor:
#      x y z
#    x 1.597150 0.000000 0.000000 
#    y 0.000000 1.597150 0.000000 
#    z 0.000000 0.000000 1.534690 
# 
# From -- ./inp_files/13689.got.cif
#   From: 2010.03.12/outbox.cif.g09.slc.cpg/sg131_7_cif.got.tgz:13689.got - 2010.04.06 17:36:35.
