data_PCOD8315180
_publ_section_title
;
Structure prediction by ZEFSAII (Michael W. Deem and Ramdas Pophale) SiO2 
 PCOD8315180
Probable space group: P 4/N M M
;
_chemical_formula_sum "Si O2"
_cell_formula_units_Z 64
_cell_length_a 17.507001
_cell_length_b 17.507001
_cell_length_c 12.038236
_cell_angle_alpha 90.000000
_cell_angle_beta 90.000000
_cell_angle_gamma 90.000000
_cell_volume 3689.660154
_symmetry_space_group_name_H-M "P 4/N M M"
_symmetry_group_IT_number 129
_symmetry_cell_setting 'tetragonal'
loop_
_space_group_symop_operation_xyz
x,y,z
1/2-y,x,z
1/2-x,1/2-y,z
y,1/2-x,z
1/2+x,-y,-z
-x,1/2+y,-z
1/2+y,1/2+x,-z
-y,-x,-z
-x,-y,-z
1/2+y,-x,-z
1/2+x,1/2+y,-z
-y,1/2+x,-z
1/2-x,y,z
x,1/2-y,z
1/2-y,1/2-x,z
y,x,z
loop_
_atom_site_type_symbol
_atom_site_label
_atom_site_fract_x
_atom_site_fract_y
_atom_site_fract_z
Si Si1 0.064805 0.435196 0.376920
Si Si2 0.436328 0.436328 0.627404
Si Si3 0.661430 0.463668 0.768600
Si Si4 0.162445 0.959809 0.767551
Si Si5 0.037149 0.337127 0.998889
O O1 0.086892 0.413109 0.502531
O O2 0.139568 0.467602 0.314971
O O3 0.000574 0.499427 0.372133
O O4 0.362291 0.468816 0.690719
O O5 0.750000 0.444450 0.754304
O O6 0.615168 0.386884 0.739907
O O7 0.640139 0.489424 0.892636
O O8 0.250000 0.940196 0.741322
O O9 0.149839 0.981500 0.895420
O O10 0.065643 0.250000 0.005724
O O11 0.111837 0.388164 0.987183
#
# Coordination Sequence:
#
# PCOD8315180 Si02
#       5
#     8   8  16  16  16
#     4   9  18  33  53  74  97 131 176 219 252 291
#     4   9  18  33  53  74  97 131 176 219 252 291
#     4  10  20  33  52  78 106 137 171 209 255 306
#     4  10  20  33  52  78 106 137 171 209 255 306
#     4  10  19  32  52  78 106 137 172 211 256 306
#
# _framework density 17.345770999999999
#
# number of rings (size 3 to 8) (size 9 to 14) (size 15 to 20)
#    0.000    2.250    2.500    0.750    0.000    2.750 
#    0.000    0.000    0.000    5.250    0.000    8.750 
#    0.000    0.000    0.000    0.000    0.000    0.000 
#
# Total GULP energy -793719.295144 kJ/mol
# GULP energy per Si atom -12401.863987 kJ/mol
# Density = 1.730629 g / cm^3
# Si number density = 17.345771 Si / 1000 Ang^3
#
#
#
# Elastic Constant Matrix: (Units=GPa)
#
#
# Indices 1 2 3 4 5 6 
#
# 1 74.0976 53.2973 19.9339 0.0000 0.0000 0.0000
# 2 53.2973 74.0976 19.9339 0.0000 0.0000 0.0000
# 3 19.9339 19.9339 110.5040 0.0000 0.0000 0.0000
# 4 0.0000 0.0000 0.0000 14.1107 0.0000 0.0000
# 5 0.0000 0.0000 0.0000 0.0000 14.1107 0.0000
# 6 0.0000 0.0000 0.0000 0.0000 0.0000 23.1081
#
#
#
# Elastic Compliance Matrix: (Units=1/GPa)
#
#
# Indices 1 2 3 4 5 6 
#
# 1 0.028198 -0.019878 -0.001501 0.000000 0.000000 0.000000
# 2 -0.019878 0.028198 -0.001501 0.000000 0.000000 0.000000
# 3 -0.001501 -0.001501 0.009591 0.000000 0.000000 0.000000
# 4 0.000000 0.000000 0.000000 0.070868 0.000000 0.000000
# 5 0.000000 0.000000 0.000000 0.000000 0.070868 0.000000
# 6 0.000000 0.000000 0.000000 0.000000 0.000000 0.043275
#
#
# Mechanical properties :
#
#
# Convention : Reuss Voigt Hill
#
# Bulk Modulus (GPa) = 49.44003 49.44769 49.44386
# Shear Modulus (GPa) = 16.47452 21.30153 18.88802
#
# Velocity S-wave (km/s) = 3.08518 3.50816 3.30345
# Velocity P-wave (km/s) = 6.42305 6.70660 6.56636
#
# Compressibility (1/GPa) = 0.02022652
#
# Stress axis : x y z
#
# Youngs Moduli (GPa) = 35.46388 35.46388 104.26574
#
# Poissons Ratio (x) = 0.70497 0.15647
# Poissons Ratio (y) = 0.70497 0.15647
# Poissons Ratio (z) = 0.05322 0.05322
#
# Static dielectric constant tensor:
#      x y z
#    x 3.076410 0.000000 0.000000 
#    y 0.000000 3.076410 0.000000 
#    z 0.000000 0.000000 3.433930 
# 
# 
# High freq. dielectric constant tensor:
#      x y z
#    x 1.658490 0.000000 0.000000 
#    y 0.000000 1.658490 0.000000 
#    z 0.000000 0.000000 1.677920 
# 
# From -- ./inp_files/3428.got.cif
#   From: 2010.03.12/outbox.cif.g09.slc.cpg/sg129_2_cif.got.tgz:3428.got - 2010.04.06 17:19:44.
