data_PCOD8315411
_publ_section_title
;
Structure prediction by ZEFSAII (Michael W. Deem and Ramdas Pophale) SiO2 
 PCOD8315411
Probable space group: P 4/N M M
;
_chemical_formula_sum "Si O2"
_cell_formula_units_Z 112
_cell_length_a 31.062178
_cell_length_b 31.062178
_cell_length_c 5.465865
_cell_angle_alpha 90.000000
_cell_angle_beta 90.000000
_cell_angle_gamma 90.000000
_cell_volume 5273.788503
_symmetry_space_group_name_H-M "P 4/N M M"
_symmetry_group_IT_number 129
_symmetry_cell_setting 'tetragonal'
loop_
_space_group_symop_operation_xyz
x,y,z
1/2-y,x,z
1/2-x,1/2-y,z
y,1/2-x,z
1/2+x,-y,-z
-x,1/2+y,-z
1/2+y,1/2+x,-z
-y,-x,-z
-x,-y,-z
1/2+y,-x,-z
1/2+x,1/2+y,-z
-y,1/2+x,-z
1/2-x,y,z
x,1/2-y,z
1/2-y,1/2-x,z
y,x,z
loop_
_atom_site_type_symbol
_atom_site_label
_atom_site_fract_x
_atom_site_fract_y
_atom_site_fract_z
Si Si1 0.405227 0.665876 0.511603
Si Si2 0.297234 0.448265 0.839501
Si Si3 0.982512 0.053083 0.754087
Si Si4 0.132301 0.298828 0.526698
Si Si5 0.501043 0.140748 0.564329
Si Si6 0.927470 0.639496 0.776916
Si Si7 0.700717 0.129527 0.008855
O O1 0.376501 0.623500 0.500000
O O2 0.453834 0.651067 0.561173
O O3 0.394809 0.694643 0.749872
O O4 0.399632 0.689936 0.248942
O O5 0.250000 0.461749 0.934526
O O6 0.296650 0.398100 0.763931
O O7 0.312199 0.481728 0.632965
O O8 0.334789 0.455645 0.030952
O O9 0.957232 0.042769 0.500000
O O10 0.992127 0.104173 0.770152
O O11 0.955365 0.044636 0.000000
O O12 0.026730 0.026730 0.763644
O O13 0.141843 0.250000 0.433337
O O14 0.177310 0.322691 0.591111
O O15 0.106275 0.326005 0.328988
O O16 0.463549 0.119370 0.398499
O O17 0.900441 0.599560 0.887395
O O18 0.750000 0.143873 0.030477
O O19 0.672662 0.172662 0.000000
#
# Coordination Sequence:
#
# PCOD8315411 Si02
#       7
#    16  16  16  16  16  16  16
#     4  10  23  41  63  91 130 172 213 257 317 379
#     4  10  22  38  57  84 117 154 201 255 313 375
#     4  10  23  41  63  92 127 163 208 268 326 380
#     4   9  18  34  54  79 111 147 189 242 305 373
#     4  11  24  39  61  87 119 165 212 258 307 381
#     4  10  21  37  59  85 116 155 202 258 317 374
#     4  10  22  42  67  97 130 168 212 263 318 380
#
# _framework density 21.237107000000002
#
# number of rings (size 3 to 8) (size 9 to 14) (size 15 to 20)
#    0.000    2.000    0.000    2.143    4.000    5.429 
#    0.000    0.000    0.000    2.571    0.000    2.000 
#    0.000    0.000    0.000    0.000    0.000    0.000 
#
# Total GULP energy -1387632.380993 kJ/mol
# GULP energy per Si atom -12389.574830 kJ/mol
# Density = 2.118877 g / cm^3
# Si number density = 21.237107 Si / 1000 Ang^3
#
#
#
# Elastic Constant Matrix: (Units=GPa)
#
#
# Indices 1 2 3 4 5 6 
#
# 1 120.4132 42.8349 25.7988 0.0000 0.0000 0.0000
# 2 42.8349 120.4123 25.7986 0.0000 0.0000 0.0000
# 3 25.7988 25.7986 103.2087 0.0000 0.0000 0.0000
# 4 0.0000 0.0000 0.0000 20.1365 0.0000 0.0000
# 5 0.0000 0.0000 0.0000 0.0000 20.1360 0.0000
# 6 0.0000 0.0000 0.0000 0.0000 0.0000 19.1456
#
#
#
# Elastic Compliance Matrix: (Units=1/GPa)
#
#
# Indices 1 2 3 4 5 6 
#
# 1 0.009771 -0.003120 -0.001663 0.000000 0.000000 0.000000
# 2 -0.003120 0.009771 -0.001663 0.000000 0.000000 0.000000
# 3 -0.001663 -0.001663 0.010520 0.000000 0.000000 0.000000
# 4 0.000000 0.000000 0.000000 0.049661 0.000000 0.000000
# 5 0.000000 0.000000 0.000000 0.000000 0.049662 0.000000
# 6 0.000000 0.000000 0.000000 0.000000 0.000000 0.052231
#
#
# Mechanical properties :
#
#
# Convention : Reuss Voigt Hill
#
# Bulk Modulus (GPa) = 58.23325 59.21097 58.72211
# Shear Modulus (GPa) = 24.97129 28.52373 26.74751
#
# Velocity S-wave (km/s) = 3.43276 3.66882 3.55275
# Velocity P-wave (km/s) = 6.57205 6.77410 6.67384
#
# Compressibility (1/GPa) = 0.01717232
#
# Stress axis : x y z
#
# Youngs Moduli (GPa) = 102.34701 102.34630 95.05454
#
# Poissons Ratio (x) = 0.31928 0.15803
# Poissons Ratio (y) = 0.31928 0.15803
# Poissons Ratio (z) = 0.17016 0.17016
#
# Static dielectric constant tensor:
#      x y z
#    x 3.816260 0.000000 0.000000 
#    y 0.000000 3.816270 0.000000 
#    z 0.000000 0.000000 4.176130 
# 
# 
# High freq. dielectric constant tensor:
#      x y z
#    x 1.834150 0.000000 0.000000 
#    y 0.000000 1.834150 0.000000 
#    z 0.000000 0.000000 1.822990 
# 
# From -- ./inp_files/1190.got.cif
#   From: 2010.03.12/outbox.cif.g09.slc.cpg/sg129_1_cif.got.tgz:1190.got - 2010.04.06 17:19:44.
