data_PCOD8315999
_publ_section_title
;
Structure prediction by ZEFSAII (Michael W. Deem and Ramdas Pophale) SiO2 
 PCOD8315999
Probable space group: P 42/M M C
;
_chemical_formula_sum "Si O2"
_cell_formula_units_Z 72
_cell_length_a 13.146086
_cell_length_b 13.146086
_cell_length_c 23.836271
_cell_angle_alpha 90.000000
_cell_angle_beta 90.000000
_cell_angle_gamma 90.000000
_cell_volume 4119.374274
_symmetry_space_group_name_H-M "P 42/M M C"
_symmetry_group_IT_number 131
_symmetry_cell_setting 'tetragonal'
loop_
_space_group_symop_operation_xyz
x,y,z
-x,-y,z
-y,x,1/2+z
y,-x,1/2+z
-x,y,-z
x,-y,-z
y,x,1/2-z
-y,-x,1/2-z
-x,-y,-z
x,y,-z
y,-x,1/2-z
-y,x,1/2-z
x,-y,z
-x,y,z
-y,-x,1/2+z
y,x,1/2+z
loop_
_atom_site_type_symbol
_atom_site_label
_atom_site_fract_x
_atom_site_fract_y
_atom_site_fract_z
Si Si1 0.120126 0.615843 0.372281
Si Si2 0.884298 0.617425 0.139364
Si Si3 0.000000 0.887265 0.066612
Si Si4 0.795476 0.223324 0.066042
Si Si5 0.282681 0.117021 0.756415
O O1 0.159795 0.500000 0.380965
O O2 0.167638 0.690478 0.418791
O O3 0.152519 0.654125 0.310757
O O4 0.000000 0.619029 0.380039
O O5 0.864051 0.500000 0.131833
O O6 0.803094 0.669726 0.098007
O O7 0.863178 0.645331 0.203619
O O8 0.000000 0.646342 0.122222
O O9 0.104605 0.836991 0.088254
O O10 0.000000 0.000000 0.091600
O O11 0.000000 0.887480 0.000000
O O12 0.798525 0.241167 0.000000
O O13 0.179468 0.179468 0.750000
O O14 0.250080 0.000000 0.761671
#
# Coordination Sequence:
#
# PCOD8315999 Si02
#       5
#    16  16   8  16  16
#     4  10  21  37  57  81 111 148 187 227 270 323
#     4  10  20  35  56  81 110 144 183 229 277 327
#     4   9  18  32  49  73 109 147 178 214 264 325
#     4  11  21  34  53  80 111 147 189 227 270 326
#     4  10  19  34  56  84 114 143 178 221 274 334
#
# _framework density 17.478383000000001
#
# number of rings (size 3 to 8) (size 9 to 14) (size 15 to 20)
#    0.000    1.889    3.333    1.333    0.000    5.111 
#    0.000    2.222    0.000    0.667    0.000    3.111 
#    0.000    0.000    0.000    0.000    0.000    0.000 
#
# Total GULP energy -892812.356064 kJ/mol
# GULP energy per Si atom -12400.171612 kJ/mol
# Density = 1.743860 g / cm^3
# Si number density = 17.478383 Si / 1000 Ang^3
#
#
#
# Elastic Constant Matrix: (Units=GPa)
#
#
# Indices 1 2 3 4 5 6 
#
# 1 79.0465 33.5483 23.0240 0.0000 0.0000 0.0000
# 2 33.5483 79.0465 23.0240 0.0000 0.0000 0.0000
# 3 23.0240 23.0240 76.9706 0.0000 0.0000 0.0000
# 4 0.0000 0.0000 0.0000 18.3875 0.0000 0.0000
# 5 0.0000 0.0000 0.0000 0.0000 18.3875 0.0000
# 6 0.0000 0.0000 0.0000 0.0000 0.0000 20.3328
#
#
#
# Elastic Compliance Matrix: (Units=1/GPa)
#
#
# Indices 1 2 3 4 5 6 
#
# 1 0.016049 -0.005930 -0.003027 0.000000 0.000000 0.000000
# 2 -0.005930 0.016049 -0.003027 0.000000 0.000000 0.000000
# 3 -0.003027 -0.003027 0.014803 0.000000 0.000000 0.000000
# 4 0.000000 0.000000 0.000000 0.054385 0.000000 0.000000
# 5 0.000000 0.000000 0.000000 0.000000 0.054385 0.000000
# 6 0.000000 0.000000 0.000000 0.000000 0.000000 0.049182
#
#
# Mechanical properties :
#
#
# Convention : Reuss Voigt Hill
#
# Bulk Modulus (GPa) = 43.60400 43.80625 43.70513
# Shear Modulus (GPa) = 21.14486 21.78606 21.46546
#
# Velocity S-wave (km/s) = 3.48195 3.53435 3.50825
# Velocity P-wave (km/s) = 6.41614 6.46321 6.43972
#
# Compressibility (1/GPa) = 0.02293368
#
# Stress axis : x y z
#
# Youngs Moduli (GPa) = 62.30878 62.30878 67.55450
#
# Poissons Ratio (x) = 0.36948 0.20449
# Poissons Ratio (y) = 0.36948 0.20449
# Poissons Ratio (z) = 0.18861 0.18861
#
# Static dielectric constant tensor:
#      x y z
#    x 3.215900 0.000000 0.000000 
#    y 0.000000 3.215900 0.000000 
#    z 0.000000 0.000000 3.278800 
# 
# 
# High freq. dielectric constant tensor:
#      x y z
#    x 1.663530 0.000000 0.000000 
#    y 0.000000 1.663530 0.000000 
#    z 0.000000 0.000000 1.679620 
# 
# From -- ./inp_files/12054.got.cif
#   From: 2010.03.12/outbox.cif.g09.slc.cpg/sg131_7_cif.got.tgz:12054.got - 2010.04.06 17:36:35.
