data_PCOD8315842
_publ_section_title
;
Structure prediction by ZEFSAII (Michael W. Deem and Ramdas Pophale) SiO2 
 PCOD8315842
Probable space group: P 42/M M C
;
_chemical_formula_sum "Si O2"
_cell_formula_units_Z 80
_cell_length_a 15.538423
_cell_length_b 15.538423
_cell_length_c 18.323143
_cell_angle_alpha 90.000000
_cell_angle_beta 90.000000
_cell_angle_gamma 90.000000
_cell_volume 4423.987091
_symmetry_space_group_name_H-M "P 42/M M C"
_symmetry_group_IT_number 131
_symmetry_cell_setting 'tetragonal'
loop_
_space_group_symop_operation_xyz
x,y,z
-x,-y,z
-y,x,1/2+z
y,-x,1/2+z
-x,y,-z
x,-y,-z
y,x,1/2-z
-y,-x,1/2-z
-x,-y,-z
x,y,-z
y,-x,1/2-z
-y,x,1/2-z
x,-y,z
-x,y,z
-y,-x,1/2+z
y,x,1/2+z
loop_
_atom_site_type_symbol
_atom_site_label
_atom_site_fract_x
_atom_site_fract_y
_atom_site_fract_z
Si Si1 0.905357 0.232251 0.224551
Si Si2 0.403024 0.166041 0.220363
Si Si3 0.404741 0.260827 0.362295
Si Si4 0.903831 0.678489 0.918584
Si Si5 0.724867 0.403071 0.416983
O O1 0.832064 0.167937 0.250000
O O2 0.900837 0.327029 0.261772
O O3 0.893112 0.242051 0.137442
O O4 0.000000 0.194783 0.242906
O O5 0.500000 0.127119 0.231923
O O6 0.390774 0.247728 0.275209
O O7 0.391803 0.194251 0.136588
O O8 0.500000 0.292864 0.379485
O O9 0.392293 0.168425 0.401512
O O10 0.345452 0.333949 0.395047
O O11 0.000000 0.637849 0.909878
O O12 0.890803 0.715291 0.000000
O O13 0.755719 0.386371 0.500000
O O14 0.687074 0.500000 0.408880
#
# Coordination Sequence:
#
# PCOD8315842 Si02
#       5
#    16  16  16  16  16
#     4  10  20  34  54  78 103 133 167 202 242 291
#     4   9  18  34  54  73  95 125 164 208 250 292
#     4  10  19  30  46  68  96 129 162 201 249 298
#     4   9  18  32  50  72  97 126 159 196 244 299
#     4  10  20  32  47  67  92 128 171 209 248 293
#
# _framework density 18.083235999999999
#
# number of rings (size 3 to 8) (size 9 to 14) (size 15 to 20)
#    0.000    2.400    0.000    3.600    0.000    3.000 
#    0.000    6.000    0.000    6.000    0.000    5.600 
#    0.000    0.000    0.000    0.000    0.000    0.000 
#
# Total GULP energy -991300.320120 kJ/mol
# GULP energy per Si atom -12391.254002 kJ/mol
# Density = 1.804208 g / cm^3
# Si number density = 18.083236 Si / 1000 Ang^3
#
#
#
# Elastic Constant Matrix: (Units=GPa)
#
#
# Indices 1 2 3 4 5 6 
#
# 1 75.8983 32.7441 33.2324 0.0000 0.0000 0.0000
# 2 32.7441 75.8947 33.2312 0.0000 0.0000 0.0000
# 3 33.2324 33.2312 133.2380 0.0000 0.0000 0.0000
# 4 0.0000 0.0000 0.0000 16.3692 0.0000 0.0000
# 5 0.0000 0.0000 0.0000 0.0000 16.3692 0.0000
# 6 0.0000 0.0000 0.0000 0.0000 0.0000 7.8832
#
#
#
# Elastic Compliance Matrix: (Units=1/GPa)
#
#
# Indices 1 2 3 4 5 6 
#
# 1 0.017018 -0.006156 -0.002709 0.000000 0.000000 0.000000
# 2 -0.006156 0.017018 -0.002709 0.000000 0.000000 0.000000
# 3 -0.002709 -0.002709 0.008857 0.000000 0.000000 0.000000
# 4 0.000000 0.000000 0.000000 0.061091 0.000000 0.000000
# 5 0.000000 0.000000 0.000000 0.000000 0.061090 0.000000
# 6 0.000000 0.000000 0.000000 0.000000 0.000000 0.126852
#
#
# Mechanical properties :
#
#
# Convention : Reuss Voigt Hill
#
# Bulk Modulus (GPa) = 50.64778 53.71628 52.18203
# Shear Modulus (GPa) = 15.54458 20.51252 18.02855
#
# Velocity S-wave (km/s) = 2.93510 3.37165 3.16092
# Velocity P-wave (km/s) = 6.28930 6.70275 6.49931
#
# Compressibility (1/GPa) = 0.01974420
#
# Stress axis : x y z
#
# Youngs Moduli (GPa) = 58.76304 58.76045 112.90759
#
# Poissons Ratio (x) = 0.36172 0.30589
# Poissons Ratio (y) = 0.36173 0.30589
# Poissons Ratio (z) = 0.15920 0.15919
#
# Static dielectric constant tensor:
#      x y z
#    x 3.185820 0.000000 0.000000 
#    y 0.000000 3.185820 0.000000 
#    z 0.000000 0.000000 3.707310 
# 
# 
# High freq. dielectric constant tensor:
#      x y z
#    x 1.680650 0.000000 0.000000 
#    y 0.000000 1.680650 0.000000 
#    z 0.000000 0.000000 1.714080 
# 
# From -- ./inp_files/9401.got.cif
#   From: 2010.03.12/outbox.cif.g09.slc.cpg/sg131_5_cif.got.tgz:9401.got - 2010.04.06 17:36:35.
