data_PCOD8315949
_publ_section_title
;
Structure prediction by ZEFSAII (Michael W. Deem and Ramdas Pophale) SiO2 
 PCOD8315949
Probable space group: P 42/M M C
;
_chemical_formula_sum "Si O2"
_cell_formula_units_Z 64
_cell_length_a 13.643762
_cell_length_b 13.643762
_cell_length_c 20.781532
_cell_angle_alpha 90.000000
_cell_angle_beta 90.000000
_cell_angle_gamma 90.000000
_cell_volume 3868.528764
_symmetry_space_group_name_H-M "P 42/M M C"
_symmetry_group_IT_number 131
_symmetry_cell_setting 'tetragonal'
loop_
_space_group_symop_operation_xyz
x,y,z
-x,-y,z
-y,x,1/2+z
y,-x,1/2+z
-x,y,-z
x,-y,-z
y,x,1/2-z
-y,-x,1/2-z
-x,-y,-z
x,y,-z
y,-x,1/2-z
-y,x,1/2-z
x,-y,z
-x,y,z
-y,-x,1/2+z
y,x,1/2+z
loop_
_atom_site_type_symbol
_atom_site_label
_atom_site_fract_x
_atom_site_fract_y
_atom_site_fract_z
Si Si1 0.113645 0.777539 0.692622
Si Si2 0.611533 0.234639 0.757640
Si Si3 0.392531 0.888803 0.629745
Si Si4 0.190550 0.886171 0.428279
O O1 0.155128 0.844873 0.750000
O O2 0.170752 0.673817 0.691410
O O3 0.127458 0.827377 0.623480
O O4 0.000000 0.759016 0.705536
O O5 0.656524 0.343477 0.750000
O O6 0.500000 0.242840 0.781893
O O7 0.621046 0.182449 0.689357
O O8 0.500000 0.872298 0.597660
O O9 0.307199 0.866536 0.578820
O O10 0.383362 0.000000 0.655570
O O11 0.160529 0.851954 0.500000
O O12 0.166321 0.000000 0.418565
#
# Coordination Sequence:
#
# PCOD8315949 Si02
#       4
#    16  16  16  16
#     4  11  21  34  52  74 101 137 178 213 250 300
#     4  10  19  32  53  79 103 128 163 211 259 302
#     4   9  16  29  50  75 102 130 163 204 251 303
#     4  10  20  33  49  74 107 138 171 212 257 304
#
# _framework density 16.543756999999999
#
# number of rings (size 3 to 8) (size 9 to 14) (size 15 to 20)
#    0.000    2.000    5.000    1.500    0.000    4.500 
#    0.000    3.750    0.000    0.750    0.000    1.750 
#    0.000    4.000    0.000    0.000    0.000    0.000 
#
# Total GULP energy -793379.426205 kJ/mol
# GULP energy per Si atom -12396.553534 kJ/mol
# Density = 1.650610 g / cm^3
# Si number density = 16.543757 Si / 1000 Ang^3
#
#
#
# Elastic Constant Matrix: (Units=GPa)
#
#
# Indices 1 2 3 4 5 6 
#
# 1 101.0063 42.7458 30.9894 0.0000 0.0000 0.0000
# 2 42.7458 101.0038 30.9899 0.0000 0.0000 0.0000
# 3 30.9894 30.9899 85.9553 0.0000 0.0000 0.0000
# 4 0.0000 0.0000 0.0000 19.5631 0.0000 0.0000
# 5 0.0000 0.0000 0.0000 0.0000 19.5634 0.0000
# 6 0.0000 0.0000 0.0000 0.0000 0.0000 20.3556
#
#
#
# Elastic Compliance Matrix: (Units=1/GPa)
#
#
# Indices 1 2 3 4 5 6 
#
# 1 0.012701 -0.004464 -0.002970 0.000000 0.000000 0.000000
# 2 -0.004464 0.012701 -0.002970 0.000000 0.000000 0.000000
# 3 -0.002970 -0.002970 0.013775 0.000000 0.000000 0.000000
# 4 0.000000 0.000000 0.000000 0.051117 0.000000 0.000000
# 5 0.000000 0.000000 0.000000 0.000000 0.051116 0.000000
# 6 0.000000 0.000000 0.000000 0.000000 0.000000 0.049127
#
#
# Mechanical properties :
#
#
# Convention : Reuss Voigt Hill
#
# Bulk Modulus (GPa) = 54.43544 55.26839 54.85191
# Shear Modulus (GPa) = 22.99213 24.11244 23.55229
#
# Velocity S-wave (km/s) = 3.73202 3.82186 3.77720
# Velocity P-wave (km/s) = 7.17955 7.27704 7.22846
#
# Compressibility (1/GPa) = 0.01837039
#
# Stress axis : x y z
#
# Youngs Moduli (GPa) = 78.73666 78.73420 72.59393
#
# Poissons Ratio (x) = 0.35146 0.21557
# Poissons Ratio (y) = 0.35147 0.21559
# Poissons Ratio (z) = 0.23381 0.23382
#
# Static dielectric constant tensor:
#      x y z
#    x 3.269190 0.000000 0.000000 
#    y 0.000000 3.269190 0.000000 
#    z 0.000000 0.000000 2.918410 
# 
# 
# High freq. dielectric constant tensor:
#      x y z
#    x 1.634620 0.000000 0.000000 
#    y 0.000000 1.634620 0.000000 
#    z 0.000000 0.000000 1.612580 
# 
# From -- ./inp_files/7327.got.cif
#   From: 2010.03.12/outbox.cif.g09.slc.cpg/sg131_4_cif.got.tgz:7327.got - 2010.04.06 17:36:35.
