data_PCOD8315499
_publ_section_title
;
Structure prediction by ZEFSAII (Michael W. Deem and Ramdas Pophale) SiO2 
 PCOD8315499
Probable space group: P 4/N C C
;
_chemical_formula_sum "Si O2"
_cell_formula_units_Z 72
_cell_length_a 14.689688
_cell_length_b 14.689688
_cell_length_c 17.856861
_cell_angle_alpha 90.000000
_cell_angle_beta 90.000000
_cell_angle_gamma 90.000000
_cell_volume 3853.277278
_symmetry_space_group_name_H-M "P 4/N C C"
_symmetry_group_IT_number 130
_symmetry_cell_setting 'tetragonal'
loop_
_space_group_symop_operation_xyz
x,y,z
1/2-y,x,z
1/2-x,1/2-y,z
y,1/2-x,z
1/2+x,-y,1/2-z
-x,1/2+y,1/2-z
1/2+y,1/2+x,1/2-z
-y,-x,1/2-z
-x,-y,-z
1/2+y,-x,-z
1/2+x,1/2+y,-z
-y,1/2+x,-z
1/2-x,y,1/2+z
x,1/2-y,1/2+z
1/2-y,1/2-x,1/2+z
y,x,1/2+z
loop_
_atom_site_type_symbol
_atom_site_label
_atom_site_fract_x
_atom_site_fract_y
_atom_site_fract_z
Si Si1 0.704471 0.106825 0.493298
Si Si2 0.480320 0.350211 0.811593
Si Si3 0.001880 0.338977 0.863567
Si Si4 0.840475 0.159526 0.250000
Si Si5 0.674142 0.078537 0.331053
O O1 0.638633 0.194261 0.484873
O O2 0.708690 0.053239 0.413879
O O3 0.663392 0.033489 0.551143
O O4 0.445176 0.254189 0.843406
O O5 0.419752 0.428797 0.846601
O O6 0.487597 0.344813 0.719872
O O7 0.582653 0.363779 0.840401
O O8 0.916212 0.355305 0.811875
O O9 0.744362 0.148049 0.291550
#
# Coordination Sequence:
#
# PCOD8315499 Si02
#       5
#    16  16  16   8  16
#     4  11  21  35  61  96 127 154 188 252 331 376
#     4  10  23  37  58  81 120 164 212 240 291 358
#     4  11  22  40  57  87 118 166 201 252 298 360
#     4  10  20  35  64  84 126 157 192 248 318 363
#     4  10  20  37  57  95 120 157 195 256 303 379
#
# _framework density 18.685393000000001
#
# number of rings (size 3 to 8) (size 9 to 14) (size 15 to 20)
#    0.000    1.556    4.444    1.333    0.000    8.444 
#    0.000    0.000    0.000    0.000    0.000    6.222 
#    0.000    0.000    0.000    0.000    0.000    0.000 
#
# Total GULP energy -892324.152005 kJ/mol
# GULP energy per Si atom -12393.391000 kJ/mol
# Density = 1.864286 g / cm^3
# Si number density = 18.685393 Si / 1000 Ang^3
#
#
#
# Elastic Constant Matrix: (Units=GPa)
#
#
# Indices 1 2 3 4 5 6 
#
# 1 92.1892 65.7363 50.2215 0.0000 0.0000 0.0000
# 2 65.7363 92.1901 50.2205 0.0000 0.0000 0.0000
# 3 50.2215 50.2205 175.1724 0.0000 0.0000 0.0000
# 4 0.0000 0.0000 0.0000 21.9840 0.0000 0.0000
# 5 0.0000 0.0000 0.0000 0.0000 21.9846 0.0000
# 6 0.0000 0.0000 0.0000 0.0000 0.0000 31.1698
#
#
#
# Elastic Compliance Matrix: (Units=1/GPa)
#
#
# Indices 1 2 3 4 5 6 
#
# 1 0.022773 -0.015029 -0.002220 0.000000 0.000000 0.000000
# 2 -0.015029 0.022773 -0.002220 0.000000 0.000000 0.000000
# 3 -0.002220 -0.002220 0.006982 0.000000 0.000000 0.000000
# 4 0.000000 0.000000 0.000000 0.045488 0.000000 0.000000
# 5 0.000000 0.000000 0.000000 0.000000 0.045486 0.000000
# 6 0.000000 0.000000 0.000000 0.000000 0.000000 0.032082
#
#
# Mechanical properties :
#
#
# Convention : Reuss Voigt Hill
#
# Bulk Modulus (GPa) = 73.58796 76.87869 75.23332
# Shear Modulus (GPa) = 22.82549 27.91925 25.37237
#
# Velocity S-wave (km/s) = 3.49889 3.86965 3.68893
# Velocity P-wave (km/s) = 7.46934 7.82296 7.64819
#
# Compressibility (1/GPa) = 0.01358918
#
# Stress axis : x y z
#
# Youngs Moduli (GPa) = 43.91073 43.91154 143.23150
#
# Poissons Ratio (x) = 0.65995 0.31803
# Poissons Ratio (y) = 0.65994 0.31798
# Poissons Ratio (z) = 0.09750 0.09749
#
# Static dielectric constant tensor:
#      x y z
#    x 3.253990 0.000000 0.000000 
#    y 0.000000 3.253980 0.000000 
#    z 0.000000 0.000000 3.821630 
# 
# 
# High freq. dielectric constant tensor:
#      x y z
#    x 1.703710 0.000000 0.000000 
#    y 0.000000 1.703710 0.000000 
#    z 0.000000 0.000000 1.740810 
# 
# From -- ./inp_files/2911.got.cif
#   From: 2010.03.12/outbox.cif.g09.slc.cpg/sg130_2_cif.got.tgz:2911.got - 2010.04.06 17:30:23.
