data_PCOD8315894
_publ_section_title
;
Structure prediction by ZEFSAII (Michael W. Deem and Ramdas Pophale) SiO2 
 PCOD8315894
Probable space group: P 42/M M C
;
_chemical_formula_sum "Si O2"
_cell_formula_units_Z 120
_cell_length_a 17.879241
_cell_length_b 17.879241
_cell_length_c 19.391614
_cell_angle_alpha 90.000000
_cell_angle_beta 90.000000
_cell_angle_gamma 90.000000
_cell_volume 6198.864090
_symmetry_space_group_name_H-M "P 42/M M C"
_symmetry_group_IT_number 131
_symmetry_cell_setting 'tetragonal'
loop_
_space_group_symop_operation_xyz
x,y,z
-x,-y,z
-y,x,1/2+z
y,-x,1/2+z
-x,y,-z
x,-y,-z
y,x,1/2-z
-y,-x,1/2-z
-x,-y,-z
x,y,-z
y,-x,1/2-z
-y,x,1/2-z
x,-y,z
-x,y,z
-y,-x,1/2+z
y,x,1/2+z
loop_
_atom_site_type_symbol
_atom_site_label
_atom_site_fract_x
_atom_site_fract_y
_atom_site_fract_z
Si Si1 0.259663 0.914421 0.284320
Si Si2 0.301103 0.792365 0.075538
Si Si3 0.415213 0.156632 0.680699
Si Si4 0.000000 0.088695 0.580742
Si Si5 0.717860 0.618257 0.919987
Si Si6 0.868456 0.179512 0.352925
Si Si7 0.418332 0.389963 0.830190
Si Si8 0.218421 0.579766 0.323127
O O1 0.347096 0.901529 0.306220
O O2 0.205382 0.863645 0.329327
O O3 0.237656 0.898600 0.204739
O O4 0.242480 0.000000 0.301205
O O5 0.281172 0.706788 0.090993
O O6 0.227569 0.843037 0.081232
O O7 0.359287 0.824467 0.131440
O O8 0.336136 0.801388 0.000000
O O9 0.500000 0.120250 0.683899
O O10 0.410203 0.202779 0.609618
O O11 0.402893 0.216310 0.742036
O O12 0.071123 0.120414 0.621262
O O13 0.000000 0.111516 0.500000
O O14 0.000000 0.000000 0.589126
O O15 0.648654 0.578743 0.878605
O O16 0.712208 0.595044 0.000000
O O17 0.403776 0.403776 0.750000
O O18 0.500000 0.425207 0.849278
O O19 0.422310 0.303162 0.846976
O O20 0.179544 0.500000 0.338148
#
# Coordination Sequence:
#
# PCOD8315894 Si02
#       8
#    16  16  16   8  16  16  16  16
#     4  11  23  39  62  91 121 154 196 253 304 353
#     4  10  19  32  56  86 117 158 200 241 295 360
#     4  11  21  37  62  85 114 155 201 250 305 358
#     4  11  24  42  62  90 133 173 203 240 296 370
#     4  10  21  36  57  85 116 150 199 254 303 359
#     4  11  21  38  62  91 124 161 201 246 295 360
#     4  10  19  31  51  78 115 156 197 240 292 355
#     4   9  18  31  51  81 112 150 196 245 293 343
#
# _framework density 19.358384999999998
#
# number of rings (size 3 to 8) (size 9 to 14) (size 15 to 20)
#    0.000    1.667    4.667    0.800    0.000    1.200 
#    0.000    2.667    0.000    1.200    0.000    2.800 
#    0.000    4.267    0.000    0.000    0.000    0.000 
#
# Total GULP energy -1486663.173660 kJ/mol
# GULP energy per Si atom -12388.859781 kJ/mol
# Density = 1.931432 g / cm^3
# Si number density = 19.358385 Si / 1000 Ang^3
#
#
#
# Elastic Constant Matrix: (Units=GPa)
#
#
# Indices 1 2 3 4 5 6 
#
# 1 85.9816 32.4355 35.2573 0.0000 0.0000 0.0000
# 2 32.4355 85.9816 35.2573 0.0000 0.0000 0.0000
# 3 35.2573 35.2573 111.6367 0.0000 0.0000 0.0000
# 4 0.0000 0.0000 0.0000 16.6602 0.0000 0.0000
# 5 0.0000 0.0000 0.0000 0.0000 16.6602 0.0000
# 6 0.0000 0.0000 0.0000 0.0000 0.0000 -15.5644
#
#
#
# Elastic Compliance Matrix: (Units=1/GPa)
#
#
# Indices 1 2 3 4 5 6 
#
# 1 0.014538 -0.004137 -0.003285 0.000000 0.000000 0.000000
# 2 -0.004137 0.014538 -0.003285 0.000000 0.000000 0.000000
# 3 -0.003285 -0.003285 0.011032 0.000000 0.000000 0.000000
# 4 0.000000 0.000000 0.000000 0.060023 0.000000 0.000000
# 5 0.000000 0.000000 0.000000 0.000000 0.060023 0.000000
# 6 0.000000 0.000000 0.000000 0.000000 0.000000 -0.064249
#
#
# Mechanical properties :
#
#
# Convention : Reuss Voigt Hill
#
# Bulk Modulus (GPa) = 53.49081 54.38887 53.93984
# Shear Modulus (GPa) = 40.46903 15.59454 28.03179
#
# Velocity S-wave (km/s) = 4.57718 2.84134 3.80945
# Velocity P-wave (km/s) = 7.45828 6.23867 6.87557
#
# Compressibility (1/GPa) = 0.01869480
#
# Stress axis : x y z
#
# Youngs Moduli (GPa) = 68.78473 68.78473 90.64186
#
# Poissons Ratio (x) = 0.28459 0.29774
# Poissons Ratio (y) = 0.28459 0.29774
# Poissons Ratio (z) = 0.22594 0.22594
#
# Static dielectric constant tensor:
#      x y z
#    x 3.534670 0.000000 0.000000 
#    y 0.000000 3.534670 0.000000 
#    z 0.000000 0.000000 3.474600 
# 
# 
# High freq. dielectric constant tensor:
#      x y z
#    x 1.744380 0.000000 0.000000 
#    y 0.000000 1.744380 0.000000 
#    z 0.000000 0.000000 1.748340 
# 
# From -- ./inp_files/10120.got.cif
#   From: 2010.03.12/outbox.cif.g09.slc.cpg/sg131_6_cif.got.tgz:10120.got - 2010.04.06 17:36:35.
