data_PCOD8315534
_publ_section_title
;
Structure prediction by ZEFSAII (Michael W. Deem and Ramdas Pophale) SiO2 
 PCOD8315534
Probable space group: P 4/N C C
;
_chemical_formula_sum "Si O2"
_cell_formula_units_Z 96
_cell_length_a 21.024975
_cell_length_b 21.024975
_cell_length_c 11.796272
_cell_angle_alpha 90.000000
_cell_angle_beta 90.000000
_cell_angle_gamma 90.000000
_cell_volume 5214.537009
_symmetry_space_group_name_H-M "P 4/N C C"
_symmetry_group_IT_number 130
_symmetry_cell_setting 'tetragonal'
loop_
_space_group_symop_operation_xyz
x,y,z
1/2-y,x,z
1/2-x,1/2-y,z
y,1/2-x,z
1/2+x,-y,1/2-z
-x,1/2+y,1/2-z
1/2+y,1/2+x,1/2-z
-y,-x,1/2-z
-x,-y,-z
1/2+y,-x,-z
1/2+x,1/2+y,-z
-y,1/2+x,-z
1/2-x,y,1/2+z
x,1/2-y,1/2+z
1/2-y,1/2-x,1/2+z
y,x,1/2+z
loop_
_atom_site_type_symbol
_atom_site_label
_atom_site_fract_x
_atom_site_fract_y
_atom_site_fract_z
Si Si1 0.653758 0.973860 0.498207
Si Si2 0.721909 0.967509 0.884492
Si Si3 0.262579 0.146420 0.761606
Si Si4 0.974133 0.574176 0.771734
Si Si5 0.851170 0.908580 0.574529
Si Si6 0.872313 0.469841 0.729399
O O1 0.725166 0.996478 0.467685
O O2 0.608542 0.980285 0.391172
O O3 0.647711 0.902460 0.551881
O O4 0.632399 0.023013 0.594577
O O5 0.762157 0.910262 0.827656
O O6 0.695807 0.017544 0.791126
O O7 0.661301 0.944774 0.957225
O O8 0.320503 0.195203 0.742922
O O9 0.282062 0.119257 0.885516
O O10 0.956678 0.622831 0.670669
O O11 0.920825 0.520384 0.782840
O O12 0.042672 0.542672 0.750000
O O13 0.898348 0.398348 0.750000
#
# Coordination Sequence:
#
# PCOD8315534 Si02
#       6
#    16  16  16  16  16  16
#     4  11  22  36  57  81 115 152 196 244 299 346
#     4  12  21  36  55  80 112 153 190 242 293 346
#     4  11  22  35  50  75 110 155 207 243 276 328
#     4  10  21  37  59  83 111 149 202 249 304 352
#     4  11  21  36  55  78 108 152 198 251 286 343
#     4  10  23  38  58  84 115 152 195 241 297 353
#
# _framework density 18.410070999999999
#
# number of rings (size 3 to 8) (size 9 to 14) (size 15 to 20)
#    0.000    1.167    3.333    5.000    2.333    2.000 
#    0.000    1.667    0.000    0.000    0.000    0.000 
#    0.000    5.333    0.000    0.000    0.000    0.000 
#
# Total GULP energy -1189780.621162 kJ/mol
# GULP energy per Si atom -12393.548137 kJ/mol
# Density = 1.836817 g / cm^3
# Si number density = 18.410071 Si / 1000 Ang^3
#
#
#
# Elastic Constant Matrix: (Units=GPa)
#
#
# Indices 1 2 3 4 5 6 
#
# 1 69.6203 49.6586 43.0138 0.0000 0.0000 0.0000
# 2 49.6586 69.6203 43.0138 0.0000 0.0000 0.0000
# 3 43.0138 43.0138 115.7421 0.0000 0.0000 0.0000
# 4 0.0000 0.0000 0.0000 24.8103 0.0000 0.0000
# 5 0.0000 0.0000 0.0000 0.0000 24.8103 0.0000
# 6 0.0000 0.0000 0.0000 0.0000 0.0000 21.3172
#
#
#
# Elastic Compliance Matrix: (Units=1/GPa)
#
#
# Indices 1 2 3 4 5 6 
#
# 1 0.030775 -0.019321 -0.004257 0.000000 0.000000 0.000000
# 2 -0.019321 0.030775 -0.004257 0.000000 0.000000 0.000000
# 3 -0.004257 -0.004257 0.011804 0.000000 0.000000 0.000000
# 4 0.000000 0.000000 0.000000 0.040306 0.000000 0.000000
# 5 0.000000 0.000000 0.000000 0.000000 0.040306 0.000000
# 6 0.000000 0.000000 0.000000 0.000000 0.000000 0.046910
#
#
# Mechanical properties :
#
#
# Convention : Reuss Voigt Hill
#
# Bulk Modulus (GPa) = 56.54601 58.48392 57.51496
# Shear Modulus (GPa) = 19.05206 22.14066 20.59636
#
# Velocity S-wave (km/s) = 3.22043 3.47167 3.34841
# Velocity P-wave (km/s) = 6.67904 6.92144 6.80132
#
# Compressibility (1/GPa) = 0.01768472
#
# Stress axis : x y z
#
# Youngs Moduli (GPa) = 32.49417 32.49417 84.71917
#
# Poissons Ratio (x) = 0.62782 0.36062
# Poissons Ratio (y) = 0.62782 0.36062
# Poissons Ratio (z) = 0.13831 0.13831
#
# Static dielectric constant tensor:
#      x y z
#    x 3.298660 0.000000 0.000000 
#    y 0.000000 3.298660 0.000000 
#    z 0.000000 0.000000 3.537560 
# 
# 
# High freq. dielectric constant tensor:
#      x y z
#    x 1.682510 0.000000 0.000000 
#    y 0.000000 1.682510 0.000000 
#    z 0.000000 0.000000 1.736160 
# 
# From -- ./inp_files/1764.got.cif
#   From: 2010.03.12/outbox.cif.g09.slc.cpg/sg130_1_cif.got.tgz:1764.got - 2010.04.06 17:30:23.
