data_PCOD8315346
_publ_section_title
;
Structure prediction by ZEFSAII (Michael W. Deem and Ramdas Pophale) SiO2 
 PCOD8315346
Probable space group: P 4/N M M
;
_chemical_formula_sum "Si O2"
_cell_formula_units_Z 96
_cell_length_a 21.786277
_cell_length_b 21.786277
_cell_length_c 11.597269
_cell_angle_alpha 90.000000
_cell_angle_beta 90.000000
_cell_angle_gamma 90.000000
_cell_volume 5504.549393
_symmetry_space_group_name_H-M "P 4/N M M"
_symmetry_group_IT_number 129
_symmetry_cell_setting 'tetragonal'
loop_
_space_group_symop_operation_xyz
x,y,z
1/2-y,x,z
1/2-x,1/2-y,z
y,1/2-x,z
1/2+x,-y,-z
-x,1/2+y,-z
1/2+y,1/2+x,-z
-y,-x,-z
-x,-y,-z
1/2+y,-x,-z
1/2+x,1/2+y,-z
-y,1/2+x,-z
1/2-x,y,z
x,1/2-y,z
1/2-y,1/2-x,z
y,x,z
loop_
_atom_site_type_symbol
_atom_site_label
_atom_site_fract_x
_atom_site_fract_y
_atom_site_fract_z
Si Si1 0.177472 0.524752 0.478935
Si Si2 0.320667 0.080278 0.068373
Si Si3 0.584261 0.680890 0.667205
Si Si4 0.849734 0.181576 0.378060
Si Si5 0.439937 0.819962 0.268386
Si Si6 0.406649 0.993002 0.926763
O O1 0.250000 0.524845 0.466061
O O2 0.149005 0.465180 0.417245
O O3 0.154271 0.583145 0.407163
O O4 0.159848 0.526687 0.613144
O O5 0.250000 0.086596 0.026796
O O6 0.354469 0.145532 0.046859
O O7 0.324014 0.061063 0.201832
O O8 0.354938 0.026104 0.002346
O O9 0.596020 0.750000 0.629252
O O10 0.648679 0.648679 0.649269
O O11 0.813940 0.186061 0.500000
O O12 0.849789 0.250000 0.322483
O O13 0.819868 0.133941 0.287861
O O14 0.458209 0.750000 0.232060
O O15 0.460747 0.870615 0.177011
O O16 0.457216 0.042785 0.882863
O O17 0.440277 0.940277 0.000000
#
# Coordination Sequence:
#
# PCOD8315346 Si02
#       6
#    16  16  16  16  16  16
#     4   8  16  30  47  72 101 128 162 198 239 296
#     4   9  18  33  54  77 100 130 168 212 262 310
#     4   9  17  29  48  74 103 134 167 207 255 307
#     4   9  17  30  50  75 104 135 164 199 244 295
#     4  10  20  34  53  77 102 129 166 209 252 298
#     4  10  22  38  53  70  97 134 176 213 249 301
#
# _framework density 17.440121000000001
#
# number of rings (size 3 to 8) (size 9 to 14) (size 15 to 20)
#    0.000    2.833    0.000    2.000    2.333    2.167 
#    0.000    2.500    0.000    3.000    0.000    0.000 
#    0.000    4.000    0.000    0.000    0.000    0.000 
#
# Total GULP energy -1189676.179536 kJ/mol
# GULP energy per Si atom -12392.460203 kJ/mol
# Density = 1.740043 g / cm^3
# Si number density = 17.440121 Si / 1000 Ang^3
#
#
#
# Elastic Constant Matrix: (Units=GPa)
#
#
# Indices 1 2 3 4 5 6 
#
# 1 98.5688 52.7433 50.8417 0.0000 0.0000 0.0000
# 2 52.7433 98.5685 50.8417 0.0000 0.0000 0.0000
# 3 50.8417 50.8417 71.4609 0.0000 0.0000 0.0000
# 4 0.0000 0.0000 0.0000 23.1904 0.0000 0.0000
# 5 0.0000 0.0000 0.0000 0.0000 23.1903 0.0000
# 6 0.0000 0.0000 0.0000 0.0000 0.0000 22.5720
#
#
#
# Elastic Compliance Matrix: (Units=1/GPa)
#
#
# Indices 1 2 3 4 5 6 
#
# 1 0.017243 -0.004579 -0.009009 0.000000 0.000000 0.000000
# 2 -0.004579 0.017243 -0.009010 0.000000 0.000000 0.000000
# 3 -0.009009 -0.009010 0.026814 0.000000 0.000000 0.000000
# 4 0.000000 0.000000 0.000000 0.043121 0.000000 0.000000
# 5 0.000000 0.000000 0.000000 0.000000 0.043121 0.000000
# 6 0.000000 0.000000 0.000000 0.000000 0.000000 0.044303
#
#
# Mechanical properties :
#
#
# Convention : Reuss Voigt Hill
#
# Bulk Modulus (GPa) = 62.10324 64.16131 63.13227
# Shear Modulus (GPa) = 20.62636 21.40198 21.01417
#
# Velocity S-wave (km/s) = 3.44277 3.50690 3.47498
# Velocity P-wave (km/s) = 7.17567 7.29843 7.23731
#
# Compressibility (1/GPa) = 0.01610222
#
# Stress axis : x y z
#
# Youngs Moduli (GPa) = 57.99585 57.99548 37.29462
#
# Poissons Ratio (x) = 0.26558 0.33600
# Poissons Ratio (y) = 0.26558 0.33601
# Poissons Ratio (z) = 0.52251 0.52251
#
# Static dielectric constant tensor:
#      x y z
#    x 3.358080 0.000000 0.000000 
#    y 0.000000 3.358090 0.000000 
#    z 0.000000 0.000000 3.111210 
# 
# 
# High freq. dielectric constant tensor:
#      x y z
#    x 1.674280 0.000000 0.000000 
#    y 0.000000 1.674280 0.000000 
#    z 0.000000 0.000000 1.648950 
# 
# From -- ./inp_files/3828.got.cif
#   From: 2010.03.12/outbox.cif.g09.slc.cpg/sg129_2_cif.got.tgz:3828.got - 2010.04.06 17:19:44.
