data_PCOD8315900
_publ_section_title
;
Structure prediction by ZEFSAII (Michael W. Deem and Ramdas Pophale) SiO2 
 PCOD8315900
Probable space group: P 42/M M C
;
_chemical_formula_sum "Si O2"
_cell_formula_units_Z 80
_cell_length_a 18.289230
_cell_length_b 18.289230
_cell_length_c 16.467322
_cell_angle_alpha 90.000000
_cell_angle_beta 90.000000
_cell_angle_gamma 90.000000
_cell_volume 5508.252253
_symmetry_space_group_name_H-M "P 42/M M C"
_symmetry_group_IT_number 131
_symmetry_cell_setting 'tetragonal'
loop_
_space_group_symop_operation_xyz
x,y,z
-x,-y,z
-y,x,1/2+z
y,-x,1/2+z
-x,y,-z
x,-y,-z
y,x,1/2-z
-y,-x,1/2-z
-x,-y,-z
x,y,-z
y,-x,1/2-z
-y,x,1/2-z
x,-y,z
-x,y,z
-y,-x,1/2+z
y,x,1/2+z
loop_
_atom_site_type_symbol
_atom_site_label
_atom_site_fract_x
_atom_site_fract_y
_atom_site_fract_z
Si Si1 0.000000 0.918358 0.403514
Si Si2 0.915135 0.702776 0.376661
Si Si3 0.282720 0.085118 0.312883
Si Si4 0.913107 0.579627 0.091136
Si Si5 0.914382 0.581028 0.500000
Si Si6 0.150070 0.850486 0.091422
O O1 0.073781 0.880827 0.370788
O O2 0.000000 0.914592 0.500000
O O3 0.000000 0.000000 0.369814
O O4 0.901676 0.702168 0.281095
O O5 0.892433 0.625945 0.418433
O O6 0.861369 0.763104 0.414547
O O7 0.000000 0.720912 0.397467
O O8 0.354904 0.118352 0.355029
O O9 0.213289 0.129076 0.346381
O O10 0.270188 0.000000 0.333239
O O11 0.886487 0.500000 0.123717
O O12 0.000000 0.581812 0.093234
O O13 0.884368 0.591186 0.000000
O O14 0.876863 0.500000 0.500000
O O15 0.000000 0.568885 0.500000
O O16 0.119751 0.833973 0.000000
#
# Coordination Sequence:
#
# PCOD8315900 Si02
#       6
#     8  16  16  16   8  16
#     4   9  18  28  42  60  74 107 155 198 229 262
#     4  10  19  32  46  59  83 110 139 183 241 275
#     4  10  20  29  42  64  86 109 144 189 224 273
#     4   8  14  26  42  59  81 106 130 164 217 271
#     4   9  18  32  52  70  80 102 145 186 229 285
#     4  11  19  30  46  58  82 117 149 188 232 276
#
# _framework density 14.523663000000001
#
# number of rings (size 3 to 8) (size 9 to 14) (size 15 to 20)
#    0.000    2.400    2.000    2.400    0.000    2.800 
#    0.000    4.000    0.000    0.000    0.000    0.000 
#    0.000    0.000    0.000    0.000    0.000    2.000 
#
# Total GULP energy -991489.966312 kJ/mol
# GULP energy per Si atom -12393.624579 kJ/mol
# Density = 1.449061 g / cm^3
# Si number density = 14.523663 Si / 1000 Ang^3
#
#
#
# Elastic Constant Matrix: (Units=GPa)
#
#
# Indices 1 2 3 4 5 6 
#
# 1 89.7086 32.0659 39.8764 0.0000 0.0000 0.0000
# 2 32.0659 89.7086 39.8764 0.0000 0.0000 0.0000
# 3 39.8764 39.8764 85.2375 0.0000 0.0000 0.0000
# 4 0.0000 0.0000 0.0000 16.3351 0.0000 0.0000
# 5 0.0000 0.0000 0.0000 0.0000 16.3351 0.0000
# 6 0.0000 0.0000 0.0000 0.0000 0.0000 5.5377
#
#
#
# Elastic Compliance Matrix: (Units=1/GPa)
#
#
# Indices 1 2 3 4 5 6 
#
# 1 0.014594 -0.002754 -0.005539 0.000000 0.000000 0.000000
# 2 -0.002754 0.014594 -0.005539 0.000000 0.000000 0.000000
# 3 -0.005539 -0.005539 0.016914 0.000000 0.000000 0.000000
# 4 0.000000 0.000000 0.000000 0.061218 0.000000 0.000000
# 5 0.000000 0.000000 0.000000 0.000000 0.061218 0.000000
# 6 0.000000 0.000000 0.000000 0.000000 0.000000 0.180580
#
#
# Mechanical properties :
#
#
# Convention : Reuss Voigt Hill
#
# Bulk Modulus (GPa) = 54.23600 54.25467 54.24534
# Shear Modulus (GPa) = 13.05729 17.83063 15.44396
#
# Velocity S-wave (km/s) = 3.00165 3.50765 3.26447
# Velocity P-wave (km/s) = 7.03118 7.33771 7.18608
#
# Compressibility (1/GPa) = 0.01843794
#
# Stress axis : x y z
#
# Youngs Moduli (GPa) = 68.52221 68.52221 59.12161
#
# Poissons Ratio (x) = 0.18874 0.32746
# Poissons Ratio (y) = 0.18874 0.32746
# Poissons Ratio (z) = 0.37953 0.37953
#
# Static dielectric constant tensor:
#      x y z
#    x 2.784110 0.000000 0.000000 
#    y 0.000000 2.784110 0.000000 
#    z 0.000000 0.000000 2.863350 
# 
# 
# High freq. dielectric constant tensor:
#      x y z
#    x 1.522570 0.000000 0.000000 
#    y 0.000000 1.522570 0.000000 
#    z 0.000000 0.000000 1.563770 
# 
# From -- ./inp_files/7831.got.cif
#   From: 2010.03.12/outbox.cif.g09.slc.cpg/sg131_4_cif.got.tgz:7831.got - 2010.04.06 17:36:35.
