data_PCOD8315122
_publ_section_title
;
Structure prediction by ZEFSAII (Michael W. Deem and Ramdas Pophale) SiO2 
 PCOD8315122
Probable space group: P 4/N M M
;
_chemical_formula_sum "Si O2"
_cell_formula_units_Z 128
_cell_length_a 18.835665
_cell_length_b 18.835665
_cell_length_c 21.807493
_cell_angle_alpha 90.000000
_cell_angle_beta 90.000000
_cell_angle_gamma 90.000000
_cell_volume 7736.912000
_symmetry_space_group_name_H-M "P 4/N M M"
_symmetry_group_IT_number 129
_symmetry_cell_setting 'tetragonal'
loop_
_space_group_symop_operation_xyz
x,y,z
1/2-y,x,z
1/2-x,1/2-y,z
y,1/2-x,z
1/2+x,-y,-z
-x,1/2+y,-z
1/2+y,1/2+x,-z
-y,-x,-z
-x,-y,-z
1/2+y,-x,-z
1/2+x,1/2+y,-z
-y,1/2+x,-z
1/2-x,y,z
x,1/2-y,z
1/2-y,1/2-x,z
y,x,z
loop_
_atom_site_type_symbol
_atom_site_label
_atom_site_fract_x
_atom_site_fract_y
_atom_site_fract_z
Si Si1 0.550240 0.832418 0.993408
Si Si2 0.946397 0.669951 0.215853
Si Si3 0.050748 0.667783 0.106546
Si Si4 0.999587 0.616042 0.757285
Si Si5 0.048506 0.929539 0.566474
Si Si6 0.330666 0.445055 0.367065
Si Si7 0.830746 0.448729 0.883204
Si Si8 0.594928 0.477443 0.314241
O O1 0.573187 0.750000 0.995928
O O2 0.621298 0.878703 0.999004
O O3 0.510197 0.851768 0.930777
O O4 0.497474 0.851316 0.048632
O O5 0.920169 0.750000 0.208216
O O6 0.878519 0.621482 0.204693
O O7 0.006288 0.649503 0.167187
O O8 0.978939 0.659748 0.284341
O O9 0.074440 0.750000 0.105490
O O10 0.120642 0.619892 0.106255
O O11 0.948285 0.551716 0.777831
O O12 0.962257 0.663545 0.705153
O O13 0.017691 0.663281 0.815888
O O14 0.074306 0.587828 0.729966
O O15 0.084314 0.915687 0.500000
O O16 0.110165 0.951404 0.616004
O O17 0.009946 0.859218 0.591446
O O18 0.992426 0.992426 0.560536
O O19 0.250000 0.430975 0.385391
O O20 0.374228 0.374228 0.382831
O O21 0.750000 0.423816 0.894349
O O22 0.523964 0.523964 0.317208
#
# Coordination Sequence:
#
# PCOD8315122 Si02
#       8
#    16  16  16  16  16  16  16  16
#     4  10  22  37  53  75  98 124 161 201 244 294
#     4  10  19  31  49  71  96 127 162 202 248 295
#     4  10  21  36  51  69  96 129 166 206 246 291
#     4   9  16  28  47  69  94 125 160 198 237 279
#     4   8  14  26  45  67  90 117 154 198 236 270
#     4   9  17  28  43  66  97 129 160 194 233 282
#     4  11  21  32  50  75 100 127 161 202 247 293
#     4   8  14  26  45  67  90 119 154 193 237 278
#
# _framework density 16.544069
#
# number of rings (size 3 to 8) (size 9 to 14) (size 15 to 20)
#    0.000    2.625    1.250    3.000    0.000    2.625 
#    0.000    0.625    0.000    4.500    0.000    1.750 
#    0.000    6.500    0.000    0.000    0.000    0.000 
#
# Total GULP energy -1586615.971316 kJ/mol
# GULP energy per Si atom -12395.437276 kJ/mol
# Density = 1.650641 g / cm^3
# Si number density = 16.544069 Si / 1000 Ang^3
#
#
#
# Elastic Constant Matrix: (Units=GPa)
#
#
# Indices 1 2 3 4 5 6 
#
# 1 77.9211 53.4754 37.4774 0.0000 0.0000 0.0000
# 2 53.4754 77.9212 37.4774 0.0000 0.0000 0.0000
# 3 37.4774 37.4774 121.2853 0.0000 0.0000 0.0000
# 4 0.0000 0.0000 0.0000 17.1155 0.0000 0.0000
# 5 0.0000 0.0000 0.0000 0.0000 17.1155 0.0000
# 6 0.0000 0.0000 0.0000 0.0000 0.0000 21.3121
#
#
#
# Elastic Compliance Matrix: (Units=1/GPa)
#
#
# Indices 1 2 3 4 5 6 
#
# 1 0.025073 -0.015834 -0.002855 0.000000 0.000000 0.000000
# 2 -0.015834 0.025073 -0.002855 0.000000 0.000000 0.000000
# 3 -0.002855 -0.002855 0.010009 0.000000 0.000000 0.000000
# 4 0.000000 0.000000 0.000000 0.058427 0.000000 0.000000
# 5 0.000000 0.000000 0.000000 0.000000 0.058426 0.000000
# 6 0.000000 0.000000 0.000000 0.000000 0.000000 0.046922
#
#
# Mechanical properties :
#
#
# Convention : Reuss Voigt Hill
#
# Bulk Modulus (GPa) = 58.58922 59.33199 58.96061
# Shear Modulus (GPa) = 18.33471 21.02180 19.67825
#
# Velocity S-wave (km/s) = 3.33263 3.56849 3.45257
# Velocity P-wave (km/s) = 7.09221 7.27459 7.18398
#
# Compressibility (1/GPa) = 0.01706799
#
# Stress axis : x y z
#
# Youngs Moduli (GPa) = 39.88351 39.88353 99.90647
#
# Poissons Ratio (x) = 0.63151 0.28522
# Poissons Ratio (y) = 0.63151 0.28522
# Poissons Ratio (z) = 0.11386 0.11386
#
# Static dielectric constant tensor:
#      x y z
#    x 2.876900 0.000000 0.000000 
#    y 0.000000 2.876900 0.000000 
#    z 0.000000 0.000000 3.456080 
# 
# 
# High freq. dielectric constant tensor:
#      x y z
#    x 1.616380 0.000000 0.000000 
#    y 0.000000 1.616380 0.000000 
#    z 0.000000 0.000000 1.648070 
# 
# From -- ./inp_files/7265.got.cif
#   From: 2010.03.12/outbox.cif.g09.slc.cpg/sg129_4_cif.got.tgz:7265.got - 2010.04.06 17:19:44.
