data_PCOD8315223
_publ_section_title
;
Structure prediction by ZEFSAII (Michael W. Deem and Ramdas Pophale) SiO2 
 PCOD8315223
Probable space group: P 4/N M M
;
_chemical_formula_sum "Si O2"
_cell_formula_units_Z 96
_cell_length_a 13.435666
_cell_length_b 13.435666
_cell_length_c 31.161513
_cell_angle_alpha 90.000000
_cell_angle_beta 90.000000
_cell_angle_gamma 90.000000
_cell_volume 5625.186609
_symmetry_space_group_name_H-M "P 4/N M M"
_symmetry_group_IT_number 129
_symmetry_cell_setting 'tetragonal'
loop_
_space_group_symop_operation_xyz
x,y,z
1/2-y,x,z
1/2-x,1/2-y,z
y,1/2-x,z
1/2+x,-y,-z
-x,1/2+y,-z
1/2+y,1/2+x,-z
-y,-x,-z
-x,-y,-z
1/2+y,-x,-z
1/2+x,1/2+y,-z
-y,1/2+x,-z
1/2-x,y,z
x,1/2-y,z
1/2-y,1/2-x,z
y,x,z
loop_
_atom_site_type_symbol
_atom_site_label
_atom_site_fract_x
_atom_site_fract_y
_atom_site_fract_z
Si Si1 0.474384 0.865123 0.869544
Si Si2 0.868315 0.137940 0.637262
Si Si3 0.862930 0.368108 0.454887
Si Si4 0.976651 0.362278 0.032870
Si Si5 0.529599 0.365903 0.796136
Si Si6 0.973494 0.132718 0.278732
O O1 0.490154 0.750000 0.857413
O O2 0.438817 0.879016 0.918569
O O3 0.389002 0.913812 0.840512
O O4 0.579655 0.920346 0.861443
O O5 0.750000 0.144345 0.638547
O O6 0.911256 0.250000 0.643002
O O7 0.901711 0.089147 0.590904
O O8 0.905989 0.068657 0.675696
O O9 0.910995 0.410995 0.500000
O O10 0.750000 0.404465 0.451193
O O11 0.867631 0.250000 0.459504
O O12 0.010494 0.250000 0.025634
O O13 0.072792 0.427209 0.021925
O O14 0.888272 0.388272 0.000000
O O15 0.503248 0.250000 0.794151
O O16 0.426724 0.426724 0.792558
O O17 0.603738 0.394047 0.757533
O O18 0.993022 0.250000 0.277855
O O19 0.078228 0.078228 0.269971
#
# Coordination Sequence:
#
# PCOD8315223 Si02
#       6
#    16  16  16  16  16  16
#     4   9  18  32  50  73  99 127 159 194 233 275
#     4   8  13  22  38  59  81 107 140 177 219 267
#     4   7   9  14  27  50  78 104 131 166 211 263
#     4   9  18  32  49  70  97 127 160 199 239 279
#     4  10  21  36  53  73  96 121 150 184 222 267
#     4  10  20  32  46  65  89 118 152 189 228 269
#
# _framework density 17.066101
#
# number of rings (size 3 to 8) (size 9 to 14) (size 15 to 20)
#    0.000    3.167    0.000    2.500    0.000    3.500 
#    0.000    3.333    0.000    3.500    0.000    4.667 
#    0.000    0.000    0.000    0.000    0.000   34.333 
#
# Total GULP energy -1189323.302085 kJ/mol
# GULP energy per Si atom -12388.784397 kJ/mol
# Density = 1.702726 g / cm^3
# Si number density = 17.066101 Si / 1000 Ang^3
#
#
#
# Elastic Constant Matrix: (Units=GPa)
#
#
# Indices 1 2 3 4 5 6 
#
# 1 74.6805 29.4835 42.3649 0.0000 0.0000 0.0000
# 2 29.4835 74.6805 42.3649 0.0000 0.0000 0.0000
# 3 42.3649 42.3649 127.4583 0.0000 0.0000 0.0000
# 4 0.0000 0.0000 0.0000 15.7121 0.0000 0.0000
# 5 0.0000 0.0000 0.0000 0.0000 15.7121 0.0000
# 6 0.0000 0.0000 0.0000 0.0000 0.0000 9.8901
#
#
#
# Elastic Compliance Matrix: (Units=1/GPa)
#
#
# Indices 1 2 3 4 5 6 
#
# 1 0.017642 -0.004484 -0.004373 0.000000 0.000000 0.000000
# 2 -0.004484 0.017642 -0.004373 0.000000 0.000000 0.000000
# 3 -0.004373 -0.004373 0.010753 0.000000 0.000000 0.000000
# 4 0.000000 0.000000 0.000000 0.063645 0.000000 0.000000
# 5 0.000000 0.000000 0.000000 0.000000 0.063645 0.000000
# 6 0.000000 0.000000 0.000000 0.000000 0.000000 0.101112
#
#
# Mechanical properties :
#
#
# Convention : Reuss Voigt Hill
#
# Bulk Modulus (GPa) = 51.08607 56.13840 53.61224
# Shear Modulus (GPa) = 16.26419 19.10327 17.68373
#
# Velocity S-wave (km/s) = 3.09044 3.34933 3.22248
# Velocity P-wave (km/s) = 6.53710 6.92267 6.73265
#
# Compressibility (1/GPa) = 0.01957481
#
# Stress axis : x y z
#
# Youngs Moduli (GPa) = 56.68446 56.68446 92.99757
#
# Poissons Ratio (x) = 0.25416 0.40671
# Poissons Ratio (y) = 0.25416 0.40671
# Poissons Ratio (z) = 0.24790 0.24790
#
# Static dielectric constant tensor:
#      x y z
#    x 2.868020 0.000000 0.000000 
#    y 0.000000 2.868020 0.000000 
#    z 0.000000 0.000000 3.770510 
# 
# 
# High freq. dielectric constant tensor:
#      x y z
#    x 1.624210 0.000000 0.000000 
#    y 0.000000 1.624210 0.000000 
#    z 0.000000 0.000000 1.689360 
# 
# From -- ./inp_files/7861.got.cif
#   From: 2010.03.12/outbox.cif.g09.slc.cpg/sg129_4_cif.got.tgz:7861.got - 2010.04.06 17:19:44.
