data_PCOD8315933
_publ_section_title
;
Structure prediction by ZEFSAII (Michael W. Deem and Ramdas Pophale) SiO2 
 PCOD8315933
Probable space group: P 42/M M C
;
_chemical_formula_sum "Si O2"
_cell_formula_units_Z 104
_cell_length_a 26.383290
_cell_length_b 26.383290
_cell_length_c 8.918721
_cell_angle_alpha 90.000000
_cell_angle_beta 90.000000
_cell_angle_gamma 90.000000
_cell_volume 6208.125398
_symmetry_space_group_name_H-M "P 42/M M C"
_symmetry_group_IT_number 131
_symmetry_cell_setting 'tetragonal'
loop_
_space_group_symop_operation_xyz
x,y,z
-x,-y,z
-y,x,1/2+z
y,-x,1/2+z
-x,y,-z
x,-y,-z
y,x,1/2-z
-y,-x,1/2-z
-x,-y,-z
x,y,-z
y,-x,1/2-z
-y,x,1/2-z
x,-y,z
-x,y,z
-y,-x,1/2+z
y,x,1/2+z
loop_
_atom_site_type_symbol
_atom_site_label
_atom_site_fract_x
_atom_site_fract_y
_atom_site_fract_z
Si Si1 0.683704 0.154362 0.177160
Si Si2 0.556625 0.760445 0.326847
Si Si3 0.138384 0.212500 0.176852
Si Si4 0.874483 0.583432 0.175920
Si Si5 0.267753 0.344269 0.324194
Si Si6 0.056950 0.869815 0.175751
Si Si7 0.940132 0.500000 0.673850
O O1 0.732889 0.130133 0.252076
O O2 0.637618 0.122428 0.244327
O O3 0.679074 0.213509 0.222435
O O4 0.685491 0.147305 0.000000
O O5 0.569588 0.750819 0.500000
O O6 0.500000 0.741005 0.287153
O O7 0.558301 0.820140 0.290938
O O8 0.597380 0.729372 0.229752
O O9 0.188193 0.188193 0.250000
O O10 0.089105 0.179709 0.219918
O O11 0.146869 0.216599 0.000000
O O12 0.918293 0.549637 0.246731
O O13 0.884425 0.589548 0.000000
O O14 0.312205 0.312205 0.250000
O O15 0.276065 0.343041 0.500000
O O16 0.080155 0.919846 0.250000
O O17 0.000000 0.861795 0.235406
O O18 0.058013 0.878835 0.000000
O O19 0.924421 0.500000 0.500000
O O20 0.000000 0.500000 0.695341
#
# Coordination Sequence:
#
# PCOD8315933 Si02
#       7
#    16  16  16  16  16  16   8
#     4  10  20  33  50  74 101 131 166 205 250 299
#     4   9  17  31  50  72  97 127 163 205 248 294
#     4  10  19  32  51  73  98 131 166 202 243 294
#     4  10  19  34  54  75  97 126 167 209 252 302
#     4  10  20  31  45  69 100 134 166 202 246 293
#     4   9  19  35  53  74  99 125 156 194 237 288
#     4  11  23  37  53  73  99 129 163 211 264 305
#
# _framework density 16.752238999999999
#
# number of rings (size 3 to 8) (size 9 to 14) (size 15 to 20)
#    0.000    2.231    0.769    2.538    0.000    5.692 
#    0.000    1.538    0.000    2.769    0.000    0.000 
#    0.000    0.308    0.000    3.231    0.000    1.385 
#
# Total GULP energy -1289892.856041 kJ/mol
# GULP energy per Si atom -12402.815923 kJ/mol
# Density = 1.671411 g / cm^3
# Si number density = 16.752239 Si / 1000 Ang^3
#
#
#
# Elastic Constant Matrix: (Units=GPa)
#
#
# Indices 1 2 3 4 5 6 
#
# 1 134.3831 29.2956 46.7466 0.0000 0.0000 0.0000
# 2 29.2956 134.3828 46.7543 0.0000 0.0000 0.0000
# 3 46.7466 46.7543 78.7868 0.0000 0.0000 0.0000
# 4 0.0000 0.0000 0.0000 29.0128 0.0000 0.0000
# 5 0.0000 0.0000 0.0000 0.0000 29.0130 0.0000
# 6 0.0000 0.0000 0.0000 0.0000 0.0000 28.7913
#
#
#
# Elastic Compliance Matrix: (Units=1/GPa)
#
#
# Indices 1 2 3 4 5 6 
#
# 1 0.009379 -0.000137 -0.005484 0.000000 0.000000 0.000000
# 2 -0.000137 0.009380 -0.005485 0.000000 0.000000 0.000000
# 3 -0.005484 -0.005485 0.019201 0.000000 0.000000 0.000000
# 4 0.000000 0.000000 0.000000 0.034468 0.000000 0.000000
# 5 0.000000 0.000000 0.000000 0.000000 0.034467 0.000000
# 6 0.000000 0.000000 0.000000 0.000000 0.000000 0.034733
#
#
# Mechanical properties :
#
#
# Convention : Reuss Voigt Hill
#
# Bulk Modulus (GPa) = 63.49706 65.90510 64.70108
# Shear Modulus (GPa) = 29.57059 32.34717 30.95888
#
# Velocity S-wave (km/s) = 4.20595 4.39899 4.30355
# Velocity P-wave (km/s) = 7.84682 8.07638 7.96243
#
# Compressibility (1/GPa) = 0.01574876
#
# Stress axis : x y z
#
# Youngs Moduli (GPa) = 106.62420 106.61480 52.08067
#
# Poissons Ratio (x) = 0.01458 0.28559
# Poissons Ratio (y) = 0.01458 0.28566
# Poissons Ratio (z) = 0.58468 0.58478
#
# Static dielectric constant tensor:
#      x y z
#    x 3.105530 0.000000 0.000000 
#    y 0.000000 3.105530 0.000000 
#    z 0.000000 0.000000 3.216150 
# 
# 
# High freq. dielectric constant tensor:
#      x y z
#    x 1.633710 0.000000 0.000000 
#    y 0.000000 1.633710 0.000000 
#    z 0.000000 0.000000 1.658430 
# 
# From -- ./inp_files/2544.got.cif
#   From: 2010.03.12/outbox.cif.g09.slc.cpg/sg131_2_cif.got.tgz:2544.got - 2010.04.06 17:36:35.
