data_PCOD8315377
_publ_section_title
;
Structure prediction by ZEFSAII (Michael W. Deem and Ramdas Pophale) SiO2 
 PCOD8315377
Probable space group: P 4/N M M
;
_chemical_formula_sum "Si O2"
_cell_formula_units_Z 72
_cell_length_a 13.154712
_cell_length_b 13.154712
_cell_length_c 24.010565
_cell_angle_alpha 90.000000
_cell_angle_beta 90.000000
_cell_angle_gamma 90.000000
_cell_volume 4154.942983
_symmetry_space_group_name_H-M "P 4/N M M"
_symmetry_group_IT_number 129
_symmetry_cell_setting 'tetragonal'
loop_
_space_group_symop_operation_xyz
x,y,z
1/2-y,x,z
1/2-x,1/2-y,z
y,1/2-x,z
1/2+x,-y,-z
-x,1/2+y,-z
1/2+y,1/2+x,-z
-y,-x,-z
-x,-y,-z
1/2+y,-x,-z
1/2+x,1/2+y,-z
-y,1/2+x,-z
1/2-x,y,z
x,1/2-y,z
1/2-y,1/2-x,z
y,x,z
loop_
_atom_site_type_symbol
_atom_site_label
_atom_site_fract_x
_atom_site_fract_y
_atom_site_fract_z
Si Si1 0.867587 0.034516 0.947600
Si Si2 0.533284 0.132049 0.844349
Si Si3 0.367361 0.868393 0.726261
Si Si4 0.367504 0.367504 0.567211
Si Si5 0.496491 0.003510 0.355788
Si Si6 0.632236 0.632236 0.558717
O O1 0.750000 0.005168 0.950348
O O2 0.888915 0.098841 0.892170
O O3 0.896386 0.103615 0.000000
O O4 0.929522 0.929522 0.947972
O O5 0.506884 0.250000 0.850360
O O6 0.585770 0.106465 0.786121
O O7 0.427363 0.072638 0.849966
O O8 0.250000 0.887550 0.710659
O O9 0.393512 0.750000 0.727487
O O10 0.437537 0.920426 0.680766
O O11 0.250000 0.391261 0.577327
O O12 0.429409 0.429409 0.611945
O O13 0.397934 0.397934 0.504307
O O14 0.432846 0.067155 0.399409
O O15 0.750000 0.608773 0.569235
#
# Coordination Sequence:
#
# PCOD8315377 Si02
#       6
#    16  16  16   8   8   8
#     4  10  21  36  56  82 109 141 184 230 272 322
#     4  10  20  36  55  78 107 141 176 216 265 316
#     4  10  21  35  51  74 105 139 172 212 263 313
#     4   9  19  35  53  75 105 136 168 210 259 310
#     4  12  19  32  54  80 101 134 174 218 252 306
#     4   9  19  35  53  75 103 136 172 210 257 308
#
# _framework density 17.328758000000001
#
# number of rings (size 3 to 8) (size 9 to 14) (size 15 to 20)
#    0.000    2.000    1.111    3.667    0.000    2.889 
#    0.000    0.000    0.000    4.000    0.000    9.333 
#    0.000    0.000    0.000    0.000    0.000    0.000 
#
# Total GULP energy -893010.683656 kJ/mol
# GULP energy per Si atom -12402.926162 kJ/mol
# Density = 1.728932 g / cm^3
# Si number density = 17.328758 Si / 1000 Ang^3
#
#
#
# Elastic Constant Matrix: (Units=GPa)
#
#
# Indices 1 2 3 4 5 6 
#
# 1 94.3198 57.1115 48.2309 0.0000 0.0000 0.0000
# 2 57.1115 94.3201 48.2304 0.0000 0.0000 0.0000
# 3 48.2309 48.2304 82.3339 0.0000 0.0000 0.0000
# 4 0.0000 0.0000 0.0000 33.8172 0.0000 0.0000
# 5 0.0000 0.0000 0.0000 0.0000 33.8171 0.0000
# 6 0.0000 0.0000 0.0000 0.0000 0.0000 23.1668
#
#
#
# Elastic Compliance Matrix: (Units=1/GPa)
#
#
# Indices 1 2 3 4 5 6 
#
# 1 0.018705 -0.008171 -0.006171 0.000000 0.000000 0.000000
# 2 -0.008171 0.018705 -0.006171 0.000000 0.000000 0.000000
# 3 -0.006171 -0.006171 0.019376 0.000000 0.000000 0.000000
# 4 0.000000 0.000000 0.000000 0.029571 0.000000 0.000000
# 5 0.000000 0.000000 0.000000 0.000000 0.029571 0.000000
# 6 0.000000 0.000000 0.000000 0.000000 0.000000 0.043165
#
#
# Mechanical properties :
#
#
# Convention : Reuss Voigt Hill
#
# Bulk Modulus (GPa) = 63.44995 64.23551 63.84273
# Shear Modulus (GPa) = 24.34608 25.98693 25.16651
#
# Velocity S-wave (km/s) = 3.75234 3.87672 3.81504
# Velocity P-wave (km/s) = 7.44770 7.56226 7.50520
#
# Compressibility (1/GPa) = 0.01576045
#
# Stress axis : x y z
#
# Youngs Moduli (GPa) = 53.46092 53.46158 51.61107
#
# Poissons Ratio (x) = 0.43681 0.31851
# Poissons Ratio (y) = 0.43680 0.31849
# Poissons Ratio (z) = 0.32992 0.32991
#
# Static dielectric constant tensor:
#      x y z
#    x 3.191650 0.000000 0.000000 
#    y 0.000000 3.191650 0.000000 
#    z 0.000000 0.000000 3.380330 
# 
# 
# High freq. dielectric constant tensor:
#      x y z
#    x 1.672030 0.000000 0.000000 
#    y 0.000000 1.672030 0.000000 
#    z 0.000000 0.000000 1.685780 
# 
# From -- ./inp_files/7439.got.cif
#   From: 2010.03.12/outbox.cif.g09.slc.cpg/sg129_4_cif.got.tgz:7439.got - 2010.04.06 17:19:44.
