data_PCOD8315188
_publ_section_title
;
Structure prediction by ZEFSAII (Michael W. Deem and Ramdas Pophale) SiO2 
 PCOD8315188
Probable space group: P 4/N M M
;
_chemical_formula_sum "Si O2"
_cell_formula_units_Z 56
_cell_length_a 17.080684
_cell_length_b 17.080684
_cell_length_c 10.836618
_cell_angle_alpha 90.000000
_cell_angle_beta 90.000000
_cell_angle_gamma 90.000000
_cell_volume 3161.580765
_symmetry_space_group_name_H-M "P 4/N M M"
_symmetry_group_IT_number 129
_symmetry_cell_setting 'tetragonal'
loop_
_space_group_symop_operation_xyz
x,y,z
1/2-y,x,z
1/2-x,1/2-y,z
y,1/2-x,z
1/2+x,-y,-z
-x,1/2+y,-z
1/2+y,1/2+x,-z
-y,-x,-z
-x,-y,-z
1/2+y,-x,-z
1/2+x,1/2+y,-z
-y,1/2+x,-z
1/2-x,y,z
x,1/2-y,z
1/2-y,1/2-x,z
y,x,z
loop_
_atom_site_type_symbol
_atom_site_label
_atom_site_fract_x
_atom_site_fract_y
_atom_site_fract_z
Si Si1 0.548083 0.161951 0.938574
Si Si2 0.657481 0.157481 0.500000
Si Si3 0.043520 0.336826 0.180989
Si Si4 0.074347 0.549903 0.693892
O O1 0.570542 0.250000 0.903797
O O2 0.519370 0.118471 0.815620
O O3 0.624995 0.124995 0.000000
O O4 0.478607 0.157226 0.037214
O O5 0.645573 0.250000 0.463599
O O6 0.636723 0.093508 0.394366
O O7 0.041144 0.250000 0.232665
O O8 0.131286 0.368715 0.192991
O O9 0.987054 0.384600 0.268944
O O10 0.025570 0.474431 0.637964
#
# Coordination Sequence:
#
# PCOD8315188 Si02
#       4
#    16   8  16  16
#     4   9  17  29  46  70  98 127 158 190 228 274
#     4  11  23  36  50  70  97 125 154 196 250 301
#     4   9  17  29  46  68  93 120 151 188 228 271
#     4  10  19  33  51  69  92 124 162 198 233 280
#
# _framework density 17.71266
#
# number of rings (size 3 to 8) (size 9 to 14) (size 15 to 20)
#    0.000    2.429    0.000    3.000    0.000    5.143 
#    0.000    0.000    0.000    0.000    0.000    0.000 
#    0.000   23.429    0.000    0.000    0.000    0.000 
#
# Total GULP energy -693780.551908 kJ/mol
# GULP energy per Si atom -12388.938427 kJ/mol
# Density = 1.767234 g / cm^3
# Si number density = 17.712660 Si / 1000 Ang^3
#
#
#
# Elastic Constant Matrix: (Units=GPa)
#
#
# Indices 1 2 3 4 5 6 
#
# 1 71.8740 40.2544 5.4729 0.0000 0.0000 0.0000
# 2 40.2544 71.8740 5.4729 0.0000 0.0000 0.0000
# 3 5.4729 5.4729 44.3703 0.0000 0.0000 0.0000
# 4 0.0000 0.0000 0.0000 19.3275 0.0000 0.0000
# 5 0.0000 0.0000 0.0000 0.0000 19.3275 0.0000
# 6 0.0000 0.0000 0.0000 0.0000 0.0000 24.5029
#
#
#
# Elastic Compliance Matrix: (Units=1/GPa)
#
#
# Indices 1 2 3 4 5 6 
#
# 1 0.020326 -0.011299 -0.001113 0.000000 0.000000 0.000000
# 2 -0.011299 0.020326 -0.001113 0.000000 0.000000 0.000000
# 3 -0.001113 -0.001113 0.022812 0.000000 0.000000 0.000000
# 4 0.000000 0.000000 0.000000 0.051740 0.000000 0.000000
# 5 0.000000 0.000000 0.000000 0.000000 0.051740 0.000000
# 6 0.000000 0.000000 0.000000 0.000000 0.000000 0.040812
#
#
# Mechanical properties :
#
#
# Convention : Reuss Voigt Hill
#
# Bulk Modulus (GPa) = 27.46309 32.27988 29.87149
# Shear Modulus (GPa) = 20.24730 21.75944 21.00337
#
# Velocity S-wave (km/s) = 3.38464 3.50875 3.44726
# Velocity P-wave (km/s) = 5.55093 5.88888 5.72240
#
# Compressibility (1/GPa) = 0.03641251
#
# Stress axis : x y z
#
# Youngs Moduli (GPa) = 49.19694 49.19694 43.83608
#
# Poissons Ratio (x) = 0.55590 0.04881
# Poissons Ratio (y) = 0.55590 0.04881
# Poissons Ratio (z) = 0.05478 0.05478
#
# Static dielectric constant tensor:
#      x y z
#    x 3.409090 0.000000 0.000000 
#    y 0.000000 3.409090 0.000000 
#    z 0.000000 0.000000 3.190760 
# 
# 
# High freq. dielectric constant tensor:
#      x y z
#    x 1.681050 0.000000 0.000000 
#    y 0.000000 1.681050 0.000000 
#    z 0.000000 0.000000 1.672360 
# 
# From -- ./inp_files/3322.got.cif
#   From: 2010.03.12/outbox.cif.g09.slc.cpg/sg129_2_cif.got.tgz:3322.got - 2010.04.06 17:19:44.
