data_PCOD8315008
_publ_section_title
;
Structure prediction by ZEFSAII (Michael W. Deem and Ramdas Pophale) SiO2 
 PCOD8315008
Probable space group: P 4/N M M
;
_chemical_formula_sum "Si O2"
_cell_formula_units_Z 72
_cell_length_a 13.782488
_cell_length_b 13.782488
_cell_length_c 23.235858
_cell_angle_alpha 90.000000
_cell_angle_beta 90.000000
_cell_angle_gamma 90.000000
_cell_volume 4413.813308
_symmetry_space_group_name_H-M "P 4/N M M"
_symmetry_group_IT_number 129
_symmetry_cell_setting 'tetragonal'
loop_
_space_group_symop_operation_xyz
x,y,z
1/2-y,x,z
1/2-x,1/2-y,z
y,1/2-x,z
1/2+x,-y,-z
-x,1/2+y,-z
1/2+y,1/2+x,-z
-y,-x,-z
-x,-y,-z
1/2+y,-x,-z
1/2+x,1/2+y,-z
-y,1/2+x,-z
1/2-x,y,z
x,1/2-y,z
1/2-y,1/2-x,z
y,x,z
loop_
_atom_site_type_symbol
_atom_site_label
_atom_site_fract_x
_atom_site_fract_y
_atom_site_fract_z
Si Si1 0.861703 0.138298 0.000000
Si Si2 0.134960 0.857506 0.656514
Si Si3 0.364083 0.982320 0.111105
Si Si4 0.522637 0.365254 0.546944
Si Si5 0.865185 0.142345 0.782729
O O1 0.895127 0.078067 0.944805
O O2 0.750000 0.119446 0.015087
O O3 0.250000 0.848830 0.657977
O O4 0.091975 0.750000 0.642585
O O5 0.102607 0.934506 0.608649
O O6 0.099781 0.893648 0.719665
O O7 0.250000 0.998624 0.114485
O O8 0.405079 0.926882 0.167243
O O9 0.412555 0.087446 0.108164
O O10 0.601424 0.398577 0.500000
O O11 0.505238 0.250000 0.542077
O O12 0.420214 0.420214 0.537791
O O13 0.750000 0.149460 0.787152
O O14 0.909729 0.250000 0.791468
#
# Coordination Sequence:
#
# PCOD8315008 Si02
#       5
#     8  16  16  16  16
#     4   9  17  30  48  66  81  99 130 178 228 261
#     4   8  14  26  45  67  89 112 140 178 220 258
#     4  10  19  29  42  61  86 115 143 170 204 250
#     4  10  20  32  47  68  92 119 151 185 223 267
#     4   8  14  26  44  65  87 110 140 180 220 250
#
# _framework density 16.312425000000001
#
# number of rings (size 3 to 8) (size 9 to 14) (size 15 to 20)
#    0.000    3.000    0.000    3.000    0.000    5.111 
#    0.000    0.000    0.000    0.000    0.000    0.000 
#    0.000    9.333    0.000    0.889    0.000    0.000 
#
# Total GULP energy -892413.785202 kJ/mol
# GULP energy per Si atom -12394.635906 kJ/mol
# Density = 1.627530 g / cm^3
# Si number density = 16.312425 Si / 1000 Ang^3
#
#
#
# Elastic Constant Matrix: (Units=GPa)
#
#
# Indices 1 2 3 4 5 6 
#
# 1 62.2428 39.2295 45.2435 0.0000 0.0000 0.0000
# 2 39.2295 62.2439 45.2436 0.0000 0.0000 0.0000
# 3 45.2435 45.2436 134.2264 0.0000 0.0000 0.0000
# 4 0.0000 0.0000 0.0000 9.4025 0.0000 0.0000
# 5 0.0000 0.0000 0.0000 0.0000 9.4041 0.0000
# 6 0.0000 0.0000 0.0000 0.0000 0.0000 19.6088
#
#
#
# Elastic Compliance Matrix: (Units=1/GPa)
#
#
# Indices 1 2 3 4 5 6 
#
# 1 0.028771 -0.014681 -0.004749 0.000000 0.000000 0.000000
# 2 -0.014681 0.028771 -0.004749 0.000000 0.000000 0.000000
# 3 -0.004749 -0.004749 0.010652 0.000000 0.000000 0.000000
# 4 0.000000 0.000000 0.000000 0.106355 0.000000 0.000000
# 5 0.000000 0.000000 0.000000 0.000000 0.106337 0.000000
# 6 0.000000 0.000000 0.000000 0.000000 0.000000 0.050998
#
#
# Mechanical properties :
#
#
# Convention : Reuss Voigt Hill
#
# Bulk Modulus (GPa) = 50.41706 57.57180 53.99443
# Shear Modulus (GPa) = 12.92477 16.28283 14.60380
#
# Velocity S-wave (km/s) = 2.81788 3.16283 2.99533
# Velocity P-wave (km/s) = 6.44682 6.97910 6.71824
#
# Compressibility (1/GPa) = 0.01983456
#
# Stress axis : x y z
#
# Youngs Moduli (GPa) = 34.75681 34.75757 93.88099
#
# Poissons Ratio (x) = 0.51028 0.44588
# Poissons Ratio (y) = 0.51027 0.44586
# Poissons Ratio (z) = 0.16507 0.16507
#
# Static dielectric constant tensor:
#      x y z
#    x 2.814120 0.000000 0.000000 
#    y 0.000000 2.814110 0.000000 
#    z 0.000000 0.000000 3.542940 
# 
# 
# High freq. dielectric constant tensor:
#      x y z
#    x 1.598640 0.000000 0.000000 
#    y 0.000000 1.598640 0.000000 
#    z 0.000000 0.000000 1.649490 
# 
# From -- ./inp_files/6341.got.cif
#   From: 2010.03.12/outbox.cif.g09.slc.cpg/sg129_4_cif.got.tgz:6341.got - 2010.04.06 17:19:44.
