data_PCOD8315155
_publ_section_title
;
Structure prediction by ZEFSAII (Michael W. Deem and Ramdas Pophale) SiO2 
 PCOD8315155
Probable space group: P 4/N M M
;
_chemical_formula_sum "Si O2"
_cell_formula_units_Z 128
_cell_length_a 17.457720
_cell_length_b 17.457720
_cell_length_c 25.443896
_cell_angle_alpha 90.000000
_cell_angle_beta 90.000000
_cell_angle_gamma 90.000000
_cell_volume 7754.586756
_symmetry_space_group_name_H-M "P 4/N M M"
_symmetry_group_IT_number 129
_symmetry_cell_setting 'tetragonal'
loop_
_space_group_symop_operation_xyz
x,y,z
1/2-y,x,z
1/2-x,1/2-y,z
y,1/2-x,z
1/2+x,-y,-z
-x,1/2+y,-z
1/2+y,1/2+x,-z
-y,-x,-z
-x,-y,-z
1/2+y,-x,-z
1/2+x,1/2+y,-z
-y,1/2+x,-z
1/2-x,y,z
x,1/2-y,z
1/2-y,1/2-x,z
y,x,z
loop_
_atom_site_type_symbol
_atom_site_label
_atom_site_fract_x
_atom_site_fract_y
_atom_site_fract_z
Si Si1 0.839270 0.539637 0.385910
Si Si2 0.164481 0.596217 0.877775
Si Si3 0.459038 0.336362 0.948828
Si Si4 0.540169 0.838188 0.604930
Si Si5 0.566039 0.059049 0.683144
Si Si6 0.159200 0.662045 0.236853
Si Si7 0.037624 0.663193 0.495359
Si Si8 0.835925 0.074474 0.965436
O O1 0.750000 0.548377 0.375222
O O2 0.876945 0.623056 0.380064
O O3 0.873630 0.482685 0.342915
O O4 0.859095 0.508921 0.443620
O O5 0.250000 0.627778 0.893763
O O6 0.161018 0.507079 0.894241
O O7 0.151916 0.612357 0.816915
O O8 0.091658 0.633833 0.907286
O O9 0.435225 0.250000 0.962125
O O10 0.382245 0.382245 0.939589
O O11 0.506866 0.373108 0.998287
O O12 0.548069 0.750000 0.621156
O O13 0.621937 0.878063 0.614542
O O14 0.475202 0.877001 0.640046
O O15 0.518293 0.849112 0.544318
O O16 0.619831 0.098652 0.726425
O O17 0.508230 0.991770 0.704703
O O18 0.250000 0.644003 0.229950
O O19 0.149626 0.750000 0.257469
O O20 0.112597 0.612597 0.500000
O O21 0.067259 0.750000 0.492450
O O22 0.750000 0.050781 0.958998
O O23 0.848247 0.151754 0.000000
#
# Coordination Sequence:
#
# PCOD8315155 Si02
#       8
#    16  16  16  16  16  16  16  16
#     4  10  20  33  51  73  97 127 161 198 241 288
#     4   9  18  30  45  68  95 124 156 189 233 285
#     4   9  18  31  46  67  95 126 161 199 236 276
#     4  10  20  33  51  73  97 126 158 196 240 286
#     4  10  20  34  52  71  95 127 165 202 238 287
#     4  10  20  34  52  73 100 130 159 199 249 296
#     4  10  19  32  50  72 100 131 161 194 236 287
#     4   9  16  25  40  64  92 120 150 182 218 267
#
# _framework density 16.506360999999998
#
# number of rings (size 3 to 8) (size 9 to 14) (size 15 to 20)
#    0.000    2.375    1.250    2.625    0.000    5.125 
#    0.000    0.000    0.000    2.250    0.000    0.000 
#    0.000    3.000    0.000    4.125    0.000    0.000 
#
# Total GULP energy -1585778.287780 kJ/mol
# GULP energy per Si atom -12388.892873 kJ/mol
# Density = 1.646879 g / cm^3
# Si number density = 16.506361 Si / 1000 Ang^3
#
#
#
# Elastic Constant Matrix: (Units=GPa)
#
#
# Indices 1 2 3 4 5 6 
#
# 1 114.4604 29.3539 30.5882 0.0000 0.0000 0.0000
# 2 29.3539 114.4632 30.5878 0.0000 0.0000 0.0000
# 3 30.5882 30.5878 66.1604 0.0000 0.0000 0.0000
# 4 0.0000 0.0000 0.0000 19.7340 0.0000 0.0000
# 5 0.0000 0.0000 0.0000 0.0000 19.7340 0.0000
# 6 0.0000 0.0000 0.0000 0.0000 0.0000 28.7854
#
#
#
# Elastic Compliance Matrix: (Units=1/GPa)
#
#
# Indices 1 2 3 4 5 6 
#
# 1 0.010203 -0.001547 -0.004002 0.000000 0.000000 0.000000
# 2 -0.001547 0.010203 -0.004002 0.000000 0.000000 0.000000
# 3 -0.004002 -0.004002 0.018815 0.000000 0.000000 0.000000
# 4 0.000000 0.000000 0.000000 0.050674 0.000000 0.000000
# 5 0.000000 0.000000 0.000000 0.000000 0.050674 0.000000
# 6 0.000000 0.000000 0.000000 0.000000 0.000000 0.034740
#
#
# Mechanical properties :
#
#
# Convention : Reuss Voigt Hill
#
# Bulk Modulus (GPa) = 49.70365 52.90486 51.30426
# Shear Modulus (GPa) = 24.86132 27.28763 26.07447
#
# Velocity S-wave (km/s) = 3.88515 4.07032 3.97881
# Velocity P-wave (km/s) = 7.09246 7.36279 7.22889
#
# Compressibility (1/GPa) = 0.02011925
#
# Stress axis : x y z
#
# Youngs Moduli (GPa) = 98.01171 98.01484 53.14896
#
# Poissons Ratio (x) = 0.15164 0.21269
# Poissons Ratio (y) = 0.15163 0.21268
# Poissons Ratio (z) = 0.39223 0.39222
#
# Static dielectric constant tensor:
#      x y z
#    x 3.073480 0.000000 0.000000 
#    y 0.000000 3.073480 0.000000 
#    z 0.000000 0.000000 3.096230 
# 
# 
# High freq. dielectric constant tensor:
#      x y z
#    x 1.631260 0.000000 0.000000 
#    y 0.000000 1.631260 0.000000 
#    z 0.000000 0.000000 1.624560 
# 
# From -- ./inp_files/7325.got.cif
#   From: 2010.03.12/outbox.cif.g09.slc.cpg/sg129_4_cif.got.tgz:7325.got - 2010.04.06 17:19:44.
