data_PCOD8315828
_publ_section_title
;
Structure prediction by ZEFSAII (Michael W. Deem and Ramdas Pophale) SiO2 
 PCOD8315828
Probable space group: P 42/M M C
;
_chemical_formula_sum "Si O2"
_cell_formula_units_Z 88
_cell_length_a 13.039966
_cell_length_b 13.039966
_cell_length_c 28.543858
_cell_angle_alpha 90.000000
_cell_angle_beta 90.000000
_cell_angle_gamma 90.000000
_cell_volume 4853.617974
_symmetry_space_group_name_H-M "P 42/M M C"
_symmetry_group_IT_number 131
_symmetry_cell_setting 'tetragonal'
loop_
_space_group_symop_operation_xyz
x,y,z
-x,-y,z
-y,x,1/2+z
y,-x,1/2+z
-x,y,-z
x,-y,-z
y,x,1/2-z
-y,-x,1/2-z
-x,-y,-z
x,y,-z
y,-x,1/2-z
-y,x,1/2-z
x,-y,z
-x,y,z
-y,-x,1/2+z
y,x,1/2+z
loop_
_atom_site_type_symbol
_atom_site_label
_atom_site_fract_x
_atom_site_fract_y
_atom_site_fract_z
Si Si1 0.883143 0.617363 0.415017
Si Si2 0.756925 0.802338 0.447401
Si Si3 0.116517 0.741286 0.323308
Si Si4 0.290002 0.121127 0.356832
Si Si5 0.611701 0.121535 0.738447
Si Si6 0.110999 0.000000 0.554672
O O1 0.844613 0.500000 0.420730
O O2 0.813106 0.692555 0.446550
O O3 0.875466 0.649342 0.360924
O O4 0.000000 0.627196 0.433001
O O5 0.711169 0.818379 0.500000
O O6 0.674781 0.816744 0.404746
O O7 0.832701 0.894682 0.431851
O O8 0.178389 0.840542 0.339959
O O9 0.163952 0.696302 0.274849
O O10 0.000000 0.778052 0.316600
O O11 0.367600 0.150981 0.315542
O O12 0.286000 0.000000 0.366357
O O13 0.500000 0.166756 0.751091
O O14 0.611504 0.000000 0.744154
O O15 0.095526 0.000000 0.500000
O O16 0.000000 0.000000 0.579707
#
# Coordination Sequence:
#
# PCOD8315828 Si02
#       6
#    16  16  16  16  16   8
#     4   9  17  28  42  62  90 123 162 204 240 273
#     4  10  19  30  42  59  86 122 159 198 241 279
#     4   9  17  29  45  67  95 126 153 182 225 280
#     4  10  19  30  44  67  93 121 157 192 222 268
#     4   9  17  30  48  65  85 115 150 187 228 276
#     4   9  16  26  40  56  77 113 159 193 218 266
#
# _framework density 18.130804000000001
#
# number of rings (size 3 to 8) (size 9 to 14) (size 15 to 20)
#    0.000    2.636    0.909    1.636    0.000    4.727 
#    0.000    0.909    0.000    3.818    0.000    2.545 
#    0.000   40.727    0.000    6.545    0.000    0.000 
#
# Total GULP energy -1090170.641106 kJ/mol
# GULP energy per Si atom -12388.302740 kJ/mol
# Density = 1.808954 g / cm^3
# Si number density = 18.130804 Si / 1000 Ang^3
#
#
#
# Elastic Constant Matrix: (Units=GPa)
#
#
# Indices 1 2 3 4 5 6 
#
# 1 42.0886 5.5570 10.2344 0.0000 0.0000 0.0000
# 2 5.5570 42.0886 10.2344 0.0000 0.0000 0.0000
# 3 10.2344 10.2344 123.5425 0.0000 0.0000 0.0000
# 4 0.0000 0.0000 0.0000 16.5634 0.0000 0.0000
# 5 0.0000 0.0000 0.0000 0.0000 16.5634 0.0000
# 6 0.0000 0.0000 0.0000 0.0000 0.0000 7.3019
#
#
#
# Elastic Compliance Matrix: (Units=1/GPa)
#
#
# Indices 1 2 3 4 5 6 
#
# 1 0.024568 -0.002805 -0.001803 0.000000 0.000000 0.000000
# 2 -0.002805 0.024568 -0.001803 0.000000 0.000000 0.000000
# 3 -0.001803 -0.001803 0.008393 0.000000 0.000000 0.000000
# 4 0.000000 0.000000 0.000000 0.060374 0.000000 0.000000
# 5 0.000000 0.000000 0.000000 0.000000 0.060374 0.000000
# 6 0.000000 0.000000 0.000000 0.000000 0.000000 0.136951
#
#
# Mechanical properties :
#
#
# Convention : Reuss Voigt Hill
#
# Bulk Modulus (GPa) = 22.36771 28.86347 25.61559
# Shear Modulus (GPa) = 14.57923 20.19865 17.38894
#
# Velocity S-wave (km/s) = 2.83877 3.34136 3.10027
# Velocity P-wave (km/s) = 4.80712 5.55341 5.19369
#
# Compressibility (1/GPa) = 0.04470730
#
# Stress axis : x y z
#
# Youngs Moduli (GPa) = 40.70309 40.70309 119.14574
#
# Poissons Ratio (x) = 0.11419 0.21480
# Poissons Ratio (y) = 0.11419 0.21480
# Poissons Ratio (z) = 0.07338 0.07338
#
# Static dielectric constant tensor:
#      x y z
#    x 3.124190 0.000000 0.000000 
#    y 0.000000 3.124190 0.000000 
#    z 0.000000 0.000000 3.691230 
# 
# 
# High freq. dielectric constant tensor:
#      x y z
#    x 1.662070 0.000000 0.000000 
#    y 0.000000 1.662070 0.000000 
#    z 0.000000 0.000000 1.726700 
# 
# From -- ./inp_files/13574.got.cif
#   From: 2010.03.12/outbox.cif.g09.slc.cpg/sg131_7_cif.got.tgz:13574.got - 2010.04.06 17:36:35.
