data_PCOD8315583
_publ_section_title
;
Structure prediction by ZEFSAII (Michael W. Deem and Ramdas Pophale) SiO2 
 PCOD8315583
Probable space group: P 4/N C C
;
_chemical_formula_sum "Si O2"
_cell_formula_units_Z 112
_cell_length_a 14.605789
_cell_length_b 14.605789
_cell_length_c 28.003586
_cell_angle_alpha 90.000000
_cell_angle_beta 90.000000
_cell_angle_gamma 90.000000
_cell_volume 5973.979023
_symmetry_space_group_name_H-M "P 4/N C C"
_symmetry_group_IT_number 130
_symmetry_cell_setting 'tetragonal'
loop_
_space_group_symop_operation_xyz
x,y,z
1/2-y,x,z
1/2-x,1/2-y,z
y,1/2-x,z
1/2+x,-y,1/2-z
-x,1/2+y,1/2-z
1/2+y,1/2+x,1/2-z
-y,-x,1/2-z
-x,-y,-z
1/2+y,-x,-z
1/2+x,1/2+y,-z
-y,1/2+x,-z
1/2-x,y,1/2+z
x,1/2-y,1/2+z
1/2-y,1/2-x,1/2+z
y,x,1/2+z
loop_
_atom_site_type_symbol
_atom_site_label
_atom_site_fract_x
_atom_site_fract_y
_atom_site_fract_z
Si Si1 0.546365 0.256606 0.355212
Si Si2 0.573984 0.969516 0.789220
Si Si3 0.609417 0.802130 0.213310
Si Si4 0.868135 0.428012 0.347440
Si Si5 0.892300 0.287163 0.054272
Si Si6 0.797898 0.392189 0.548813
Si Si7 0.815055 0.137606 0.303816
O O1 0.471979 0.313181 0.324770
O O2 0.547669 0.145626 0.349378
O O3 0.530917 0.288818 0.409926
O O4 0.650717 0.282642 0.339322
O O5 0.665555 0.925757 0.765067
O O6 0.524932 0.902927 0.826953
O O7 0.497910 0.997910 0.750000
O O8 0.614132 0.056468 0.816274
O O9 0.634106 0.696586 0.205746
O O10 0.828499 0.447150 0.400649
O O11 0.789006 0.390861 0.312508
O O12 0.793737 0.332705 0.049530
O O13 0.881882 0.177235 0.060363
O O14 0.941602 0.308627 0.003072
O O15 0.826285 0.173716 0.250000
#
# Coordination Sequence:
#
# PCOD8315583 Si02
#       7
#    16  16  16  16  16  16  16
#     4  11  20  34  55  83 110 143 186 234 284 329
#     4  11  22  37  50  75 108 147 183 228 276 325
#     4  11  23  40  56  72 106 155 196 221 266 341
#     4  11  22  33  58  81 112 144 192 234 285 330
#     4   8  14  28  48  82 111 151 180 222 290 351
#     4   8  14  27  51  77 117 144 181 227 286 350
#     4  11  22  35  48  79 116 145 180 231 283 333
#
# _framework density 18.747973999999999
#
# number of rings (size 3 to 8) (size 9 to 14) (size 15 to 20)
#    0.000    1.857    4.286    3.000    2.000    0.571 
#    0.000    0.000    0.000    2.571    0.000    0.000 
#    0.000    2.286    0.000    0.000    0.000    0.000 
#
# Total GULP energy -1387498.072532 kJ/mol
# GULP energy per Si atom -12388.375648 kJ/mol
# Density = 1.870530 g / cm^3
# Si number density = 18.747974 Si / 1000 Ang^3
#
#
#
# Elastic Constant Matrix: (Units=GPa)
#
#
# Indices 1 2 3 4 5 6 
#
# 1 65.2446 29.3642 40.5682 0.0000 0.0000 0.0000
# 2 29.3642 65.2447 40.5682 0.0000 0.0000 0.0000
# 3 40.5682 40.5682 142.3354 0.0000 0.0000 0.0000
# 4 0.0000 0.0000 0.0000 22.3716 0.0000 0.0000
# 5 0.0000 0.0000 0.0000 0.0000 22.3717 0.0000
# 6 0.0000 0.0000 0.0000 0.0000 0.0000 27.2672
#
#
#
# Elastic Compliance Matrix: (Units=1/GPa)
#
#
# Indices 1 2 3 4 5 6 
#
# 1 0.020930 -0.006941 -0.003987 0.000000 0.000000 0.000000
# 2 -0.006941 0.020930 -0.003987 0.000000 0.000000 0.000000
# 3 -0.003987 -0.003987 0.009298 0.000000 0.000000 0.000000
# 4 0.000000 0.000000 0.000000 0.044699 0.000000 0.000000
# 5 0.000000 0.000000 0.000000 0.000000 0.044699 0.000000
# 6 0.000000 0.000000 0.000000 0.000000 0.000000 0.036674
#
#
# Mechanical properties :
#
#
# Convention : Reuss Voigt Hill
#
# Bulk Modulus (GPa) = 46.88622 54.86954 50.87788
# Shear Modulus (GPa) = 23.34590 25.22370 24.28480
#
# Velocity S-wave (km/s) = 3.53264 3.67196 3.60297
# Velocity P-wave (km/s) = 6.45774 6.87810 6.67123
#
# Compressibility (1/GPa) = 0.02132823
#
# Stress axis : x y z
#
# Youngs Moduli (GPa) = 47.77876 47.77878 107.54426
#
# Poissons Ratio (x) = 0.33161 0.42880
# Poissons Ratio (y) = 0.33161 0.42880
# Poissons Ratio (z) = 0.19050 0.19050
#
# Static dielectric constant tensor:
#      x y z
#    x 3.266070 0.000000 0.000000 
#    y 0.000000 3.266070 0.000000 
#    z 0.000000 0.000000 3.858170 
# 
# 
# High freq. dielectric constant tensor:
#      x y z
#    x 1.702310 0.000000 0.000000 
#    y 0.000000 1.702310 0.000000 
#    z 0.000000 0.000000 1.728110 
# 
# From -- ./inp_files/4980.got.cif
#   From: 2010.03.12/outbox.cif.g09.slc.cpg/sg130_3_cif.got.tgz:4980.got - 2010.04.06 17:30:23.
