data_PCOD8315356
_publ_section_title
;
Structure prediction by ZEFSAII (Michael W. Deem and Ramdas Pophale) SiO2 
 PCOD8315356
Probable space group: P 4/N M M
;
_chemical_formula_sum "Si O2"
_cell_formula_units_Z 72
_cell_length_a 18.057482
_cell_length_b 18.057482
_cell_length_c 10.745968
_cell_angle_alpha 90.000000
_cell_angle_beta 90.000000
_cell_angle_gamma 90.000000
_cell_volume 3503.966329
_symmetry_space_group_name_H-M "P 4/N M M"
_symmetry_group_IT_number 129
_symmetry_cell_setting 'tetragonal'
loop_
_space_group_symop_operation_xyz
x,y,z
1/2-y,x,z
1/2-x,1/2-y,z
y,1/2-x,z
1/2+x,-y,-z
-x,1/2+y,-z
1/2+y,1/2+x,-z
-y,-x,-z
-x,-y,-z
1/2+y,-x,-z
1/2+x,1/2+y,-z
-y,1/2+x,-z
1/2-x,y,z
x,1/2-y,z
1/2-y,1/2-x,z
y,x,z
loop_
_atom_site_type_symbol
_atom_site_label
_atom_site_fract_x
_atom_site_fract_y
_atom_site_fract_z
Si Si1 0.528506 0.165074 0.872847
Si Si2 0.044842 0.337166 0.609668
Si Si3 0.900589 0.332480 0.242388
Si Si4 0.833374 0.548678 0.880666
Si Si5 0.400166 0.599835 0.500000
O O1 0.543871 0.250000 0.899805
O O2 0.477301 0.152299 0.753104
O O3 0.609444 0.129929 0.857256
O O4 0.487234 0.132300 0.993500
O O5 0.047526 0.250000 0.572878
O O6 0.125483 0.374518 0.589420
O O7 0.986306 0.382654 0.525607
O O8 0.871455 0.250000 0.210171
O O9 0.874136 0.352693 0.381252
O O10 0.989743 0.335228 0.231927
O O11 0.750000 0.577145 0.904780
O O12 0.881907 0.618094 0.838628
#
# Coordination Sequence:
#
# PCOD8315356 Si02
#       5
#    16  16  16  16   8
#     4   9  19  35  54  80 112 143 179 222 270 328
#     4  10  20  34  54  79 108 143 183 231 285 340
#     4  10  21  36  56  82 110 143 184 231 280 329
#     4  10  21  37  57  82 112 145 183 227 276 332
#     4  10  21  38  56  77 108 147 192 236 279 334
#
# _framework density 20.548141000000001
#
# number of rings (size 3 to 8) (size 9 to 14) (size 15 to 20)
#    0.000    2.222    0.000    2.333    0.000    8.000 
#    0.000    0.000    0.000   12.333    0.000    3.111 
#    0.000    0.000    0.000    0.000    0.000    0.000 
#
# Total GULP energy -892612.704011 kJ/mol
# GULP energy per Si atom -12397.398667 kJ/mol
# Density = 2.050137 g / cm^3
# Si number density = 20.548141 Si / 1000 Ang^3
#
#
#
# Elastic Constant Matrix: (Units=GPa)
#
#
# Indices 1 2 3 4 5 6 
#
# 1 104.6966 70.4438 12.4410 0.0000 0.0000 0.0000
# 2 70.4438 104.6954 12.4408 0.0000 0.0000 0.0000
# 3 12.4410 12.4408 55.8823 0.0000 0.0000 0.0000
# 4 0.0000 0.0000 0.0000 21.5567 0.0000 0.0000
# 5 0.0000 0.0000 0.0000 0.0000 21.5569 0.0000
# 6 0.0000 0.0000 0.0000 0.0000 0.0000 27.1960
#
#
#
# Elastic Compliance Matrix: (Units=1/GPa)
#
#
# Indices 1 2 3 4 5 6 
#
# 1 0.017546 -0.011649 -0.001313 0.000000 0.000000 0.000000
# 2 -0.011649 0.017546 -0.001313 0.000000 0.000000 0.000000
# 3 -0.001313 -0.001313 0.018479 0.000000 0.000000 0.000000
# 4 0.000000 0.000000 0.000000 0.046389 0.000000 0.000000
# 5 0.000000 0.000000 0.000000 0.000000 0.046389 0.000000
# 6 0.000000 0.000000 0.000000 0.000000 0.000000 0.036770
#
#
# Mechanical properties :
#
#
# Convention : Reuss Voigt Hill
#
# Bulk Modulus (GPa) = 39.96638 50.65838 45.31238
# Shear Modulus (GPa) = 22.72636 25.39184 24.05910
#
# Velocity S-wave (km/s) = 3.32927 3.51910 3.42550
# Velocity P-wave (km/s) = 5.85415 6.42021 6.14370
#
# Compressibility (1/GPa) = 0.02502103
#
# Stress axis : x y z
#
# Youngs Moduli (GPa) = 56.99430 56.99372 54.11485
#
# Poissons Ratio (x) = 0.66395 0.07104
# Poissons Ratio (y) = 0.66395 0.07103
# Poissons Ratio (z) = 0.07482 0.07481
#
# Static dielectric constant tensor:
#      x y z
#    x 3.600110 0.000000 0.000000 
#    y 0.000000 3.600120 0.000000 
#    z 0.000000 0.000000 3.741300 
# 
# 
# High freq. dielectric constant tensor:
#      x y z
#    x 1.792360 0.000000 0.000000 
#    y 0.000000 1.792360 0.000000 
#    z 0.000000 0.000000 1.805770 
# 
# From -- ./inp_files/3546.got.cif
#   From: 2010.03.12/outbox.cif.g09.slc.cpg/sg129_2_cif.got.tgz:3546.got - 2010.04.06 17:19:44.
