data_PCOD8315440
_publ_section_title
;
Structure prediction by ZEFSAII (Michael W. Deem and Ramdas Pophale) SiO2 
 PCOD8315440
Probable space group: P 4/N M M
;
_chemical_formula_sum "Si O2"
_cell_formula_units_Z 88
_cell_length_a 14.311983
_cell_length_b 14.311983
_cell_length_c 27.415555
_cell_angle_alpha 90.000000
_cell_angle_beta 90.000000
_cell_angle_gamma 90.000000
_cell_volume 5615.606468
_symmetry_space_group_name_H-M "P 4/N M M"
_symmetry_group_IT_number 129
_symmetry_cell_setting 'tetragonal'
loop_
_space_group_symop_operation_xyz
x,y,z
1/2-y,x,z
1/2-x,1/2-y,z
y,1/2-x,z
1/2+x,-y,-z
-x,1/2+y,-z
1/2+y,1/2+x,-z
-y,-x,-z
-x,-y,-z
1/2+y,-x,-z
1/2+x,1/2+y,-z
-y,1/2+x,-z
1/2-x,y,z
x,1/2-y,z
1/2-y,1/2-x,z
y,x,z
loop_
_atom_site_type_symbol
_atom_site_label
_atom_site_fract_x
_atom_site_fract_y
_atom_site_fract_z
Si Si1 0.141387 0.511594 0.255246
Si Si2 0.642543 0.142543 0.000000
Si Si3 0.643622 0.493891 0.083807
Si Si4 0.141043 0.511435 0.804423
Si Si5 0.005165 0.643582 0.633114
Si Si6 0.646789 0.361346 0.446476
O O1 0.250000 0.496247 0.240535
O O2 0.084455 0.415546 0.244648
O O3 0.097570 0.597688 0.225495
O O4 0.132780 0.541288 0.311689
O O5 0.587678 0.108661 0.952040
O O6 0.623075 0.250000 0.011738
O O7 0.750000 0.520500 0.073346
O O8 0.586806 0.586806 0.072435
O O9 0.629807 0.459824 0.139159
O O10 0.250000 0.496823 0.790417
O O11 0.084858 0.415143 0.793227
O O12 0.985270 0.750000 0.619418
O O13 0.081329 0.599324 0.596473
O O14 0.907700 0.592301 0.625524
O O15 0.608480 0.391521 0.500000
O O16 0.750000 0.403422 0.437671
O O17 0.652064 0.250000 0.444589
#
# Coordination Sequence:
#
# PCOD8315440 Si02
#       6
#    16   8  16  16  16  16
#     4   9  18  31  45  63  87 113 143 179 216 256
#     4   9  17  28  42  62  87 113 142 174 206 243
#     4   9  17  29  45  64  86 112 140 171 208 248
#     4   9  18  31  46  66  90 114 143 178 215 257
#     4   9  17  28  42  61  84 109 137 168 203 245
#     4   8  14  25  40  58  81 107 135 169 206 242
#
# _framework density 15.670612999999999
#
# number of rings (size 3 to 8) (size 9 to 14) (size 15 to 20)
#    0.000    3.182    0.000    0.818    0.000    2.909 
#    0.000    7.273    0.000    0.000    0.000    0.000 
#    0.000    4.727    0.000    0.364    0.000    0.364 
#
# Total GULP energy -1090834.442146 kJ/mol
# GULP energy per Si atom -12395.845933 kJ/mol
# Density = 1.563495 g / cm^3
# Si number density = 15.670613 Si / 1000 Ang^3
#
#
#
# Elastic Constant Matrix: (Units=GPa)
#
#
# Indices 1 2 3 4 5 6 
#
# 1 87.6885 48.8240 56.5194 0.0000 0.0000 0.0000
# 2 48.8240 87.6884 56.5194 0.0000 0.0000 0.0000
# 3 56.5194 56.5194 90.6371 0.0000 0.0000 0.0000
# 4 0.0000 0.0000 0.0000 24.6287 0.0000 0.0000
# 5 0.0000 0.0000 0.0000 0.0000 24.6288 0.0000
# 6 0.0000 0.0000 0.0000 0.0000 0.0000 19.1950
#
#
#
# Elastic Compliance Matrix: (Units=1/GPa)
#
#
# Indices 1 2 3 4 5 6 
#
# 1 0.020438 -0.005292 -0.009445 0.000000 0.000000 0.000000
# 2 -0.005292 0.020438 -0.009445 0.000000 0.000000 0.000000
# 3 -0.009445 -0.009445 0.022812 0.000000 0.000000 0.000000
# 4 0.000000 0.000000 0.000000 0.040603 0.000000 0.000000
# 5 0.000000 0.000000 0.000000 0.000000 0.040603 0.000000
# 6 0.000000 0.000000 0.000000 0.000000 0.000000 0.052097
#
#
# Mechanical properties :
#
#
# Convention : Reuss Voigt Hill
#
# Bulk Modulus (GPa) = 65.25211 65.52664 65.38937
# Shear Modulus (GPa) = 19.96301 20.63391 20.29846
#
# Velocity S-wave (km/s) = 3.57307 3.63261 3.60296
# Velocity P-wave (km/s) = 7.66502 7.71364 7.68937
#
# Compressibility (1/GPa) = 0.01532518
#
# Stress axis : x y z
#
# Youngs Moduli (GPa) = 48.92792 48.92781 43.83632
#
# Poissons Ratio (x) = 0.25894 0.41402
# Poissons Ratio (y) = 0.25894 0.41402
# Poissons Ratio (z) = 0.46211 0.46211
#
# Static dielectric constant tensor:
#      x y z
#    x 2.957930 0.000000 0.000000 
#    y 0.000000 2.957930 0.000000 
#    z 0.000000 0.000000 3.177380 
# 
# 
# High freq. dielectric constant tensor:
#      x y z
#    x 1.588730 0.000000 0.000000 
#    y 0.000000 1.588730 0.000000 
#    z 0.000000 0.000000 1.607370 
# 
# From -- ./inp_files/6956.got.cif
#   From: 2010.03.12/outbox.cif.g09.slc.cpg/sg129_4_cif.got.tgz:6956.got - 2010.04.06 17:19:44.
