data_PCOD8315184
_publ_section_title
;
Structure prediction by ZEFSAII (Michael W. Deem and Ramdas Pophale) SiO2 
 PCOD8315184
Probable space group: P 4/N M M
;
_chemical_formula_sum "Si O2"
_cell_formula_units_Z 128
_cell_length_a 17.877285
_cell_length_b 17.877285
_cell_length_c 22.973389
_cell_angle_alpha 90.000000
_cell_angle_beta 90.000000
_cell_angle_gamma 90.000000
_cell_volume 7342.233532
_symmetry_space_group_name_H-M "P 4/N M M"
_symmetry_group_IT_number 129
_symmetry_cell_setting 'tetragonal'
loop_
_space_group_symop_operation_xyz
x,y,z
1/2-y,x,z
1/2-x,1/2-y,z
y,1/2-x,z
1/2+x,-y,-z
-x,1/2+y,-z
1/2+y,1/2+x,-z
-y,-x,-z
-x,-y,-z
1/2+y,-x,-z
1/2+x,1/2+y,-z
-y,1/2+x,-z
1/2-x,y,z
x,1/2-y,z
1/2-y,1/2-x,z
y,x,z
loop_
_atom_site_type_symbol
_atom_site_label
_atom_site_fract_x
_atom_site_fract_y
_atom_site_fract_z
Si Si1 0.447492 0.665254 0.334170
Si Si2 0.834381 0.952540 0.568288
Si Si3 0.455930 0.834093 0.675511
Si Si4 0.043705 0.336417 0.773588
Si Si5 0.454842 0.335559 0.211299
Si Si6 0.664874 0.164419 0.931238
Si Si7 0.335159 0.943806 0.533391
Si Si8 0.942749 0.435409 0.855972
O O1 0.417988 0.750000 0.332133
O O2 0.383966 0.614040 0.305344
O O3 0.521389 0.656781 0.294610
O O4 0.462297 0.639729 0.400737
O O5 0.750000 0.934776 0.584904
O O6 0.875752 0.875752 0.577353
O O7 0.864096 0.015187 0.613166
O O8 0.845153 0.979571 0.502230
O O9 0.425366 0.750000 0.670670
O O10 0.523498 0.839878 0.721021
O O11 0.051300 0.250000 0.792802
O O12 0.123685 0.376315 0.781934
O O13 0.980824 0.376303 0.812553
O O14 0.449444 0.250000 0.189347
O O15 0.374330 0.374330 0.202571
O O16 0.518348 0.378711 0.176205
O O17 0.750000 0.141560 0.912100
O O18 0.649708 0.250000 0.911259
O O19 0.600503 0.110328 0.905887
O O20 0.657999 0.157999 0.000000
O O21 0.380527 0.880527 0.500000
O O22 0.250000 0.915904 0.531924
O O23 0.006878 0.493123 0.880283
#
# Coordination Sequence:
#
# PCOD8315184 Si02
#       8
#    16  16  16  16  16  16  16  16
#     4  10  20  34  51  72 101 129 159 200 244 298
#     4  10  21  35  50  69  91 118 156 199 244 294
#     4  10  19  33  50  70  98 127 160 201 244 295
#     4  10  21  36  54  76 102 133 168 209 256 304
#     4  10  20  33  50  73 101 135 171 208 252 299
#     4   9  18  33  53  77 108 146 181 212 250 297
#     4  10  20  34  50  72  95 120 154 190 237 295
#     4  10  19  32  53  79 107 137 172 216 258 297
#
# _framework density 17.433385999999999
#
# number of rings (size 3 to 8) (size 9 to 14) (size 15 to 20)
#    0.000    2.125    2.500    1.500    0.000    2.250 
#    0.000    1.250    0.000    2.250    0.000    3.500 
#    0.000    0.000    0.000   23.250    0.000    0.000 
#
# Total GULP energy -1586557.375717 kJ/mol
# GULP energy per Si atom -12394.979498 kJ/mol
# Density = 1.739371 g / cm^3
# Si number density = 17.433386 Si / 1000 Ang^3
#
#
#
# Elastic Constant Matrix: (Units=GPa)
#
#
# Indices 1 2 3 4 5 6 
#
# 1 107.2094 69.2193 33.5023 0.0000 0.0000 0.0000
# 2 69.2193 107.2094 33.5023 0.0000 0.0000 0.0000
# 3 33.5023 33.5023 59.8265 0.0000 0.0000 0.0000
# 4 0.0000 0.0000 0.0000 23.4183 0.0000 0.0000
# 5 0.0000 0.0000 0.0000 0.0000 23.4183 0.0000
# 6 0.0000 0.0000 0.0000 0.0000 0.0000 34.7575
#
#
#
# Elastic Compliance Matrix: (Units=1/GPa)
#
#
# Indices 1 2 3 4 5 6 
#
# 1 0.016761 -0.009562 -0.004031 0.000000 0.000000 0.000000
# 2 -0.009562 0.016761 -0.004031 0.000000 0.000000 0.000000
# 3 -0.004031 -0.004031 0.021230 0.000000 0.000000 0.000000
# 4 0.000000 0.000000 0.000000 0.042702 0.000000 0.000000
# 5 0.000000 0.000000 0.000000 0.000000 0.042702 0.000000
# 6 0.000000 0.000000 0.000000 0.000000 0.000000 0.028771
#
#
# Mechanical properties :
#
#
# Convention : Reuss Voigt Hill
#
# Bulk Modulus (GPa) = 51.27521 60.74367 56.00944
# Shear Modulus (GPa) = 23.73314 25.52026 24.62670
#
# Velocity S-wave (km/s) = 3.69367 3.83021 3.76256
# Velocity P-wave (km/s) = 6.90412 7.38103 7.14655
#
# Compressibility (1/GPa) = 0.01950260
#
# Stress axis : x y z
#
# Youngs Moduli (GPa) = 59.66282 59.66282 47.10288
#
# Poissons Ratio (x) = 0.57048 0.18989
# Poissons Ratio (y) = 0.57048 0.18989
# Poissons Ratio (z) = 0.24053 0.24053
#
# Static dielectric constant tensor:
#      x y z
#    x 3.211850 0.000000 0.000000 
#    y 0.000000 3.211850 0.000000 
#    z 0.000000 0.000000 3.137610 
# 
# 
# High freq. dielectric constant tensor:
#      x y z
#    x 1.670960 0.000000 0.000000 
#    y 0.000000 1.670960 0.000000 
#    z 0.000000 0.000000 1.660310 
# 
# From -- ./inp_files/7303.got.cif
#   From: 2010.03.12/outbox.cif.g09.slc.cpg/sg129_4_cif.got.tgz:7303.got - 2010.04.06 17:19:44.
