data_PCOD8315969
_publ_section_title
;
Structure prediction by ZEFSAII (Michael W. Deem and Ramdas Pophale) SiO2 
 PCOD8315969
Probable space group: P 42/M M C
;
_chemical_formula_sum "Si O2"
_cell_formula_units_Z 72
_cell_length_a 14.271994
_cell_length_b 14.271994
_cell_length_c 18.898279
_cell_angle_alpha 90.000000
_cell_angle_beta 90.000000
_cell_angle_gamma 90.000000
_cell_volume 3849.386911
_symmetry_space_group_name_H-M "P 42/M M C"
_symmetry_group_IT_number 131
_symmetry_cell_setting 'tetragonal'
loop_
_space_group_symop_operation_xyz
x,y,z
-x,-y,z
-y,x,1/2+z
y,-x,1/2+z
-x,y,-z
x,-y,-z
y,x,1/2-z
-y,-x,1/2-z
-x,-y,-z
x,y,-z
y,-x,1/2-z
-y,x,1/2-z
x,-y,z
-x,y,z
-y,-x,1/2+z
y,x,1/2+z
loop_
_atom_site_type_symbol
_atom_site_label
_atom_site_fract_x
_atom_site_fract_y
_atom_site_fract_z
Si Si1 0.500000 0.611980 0.421059
Si Si2 0.720149 0.844101 0.204206
Si Si3 0.000000 0.750037 0.081939
Si Si4 0.386498 0.000000 0.290344
Si Si5 0.394161 0.337244 0.824462
Si Si6 0.159808 0.896953 0.920497
O O1 0.500000 0.500000 0.417474
O O2 0.500000 0.651775 0.500000
O O3 0.406882 0.650090 0.382844
O O4 0.809380 0.809380 0.250000
O O5 0.665382 0.755693 0.174693
O O6 0.755497 0.898896 0.135332
O O7 0.649929 0.907969 0.249804
O O8 0.911143 0.814533 0.099863
O O9 0.000000 0.657313 0.130581
O O10 0.000000 0.718105 0.000000
O O11 0.500000 0.000000 0.294728
O O12 0.390484 0.390484 0.750000
O O13 0.500000 0.310918 0.843742
O O14 0.111197 0.000000 0.916945
O O15 0.198876 0.880147 0.000000
#
# Coordination Sequence:
#
# PCOD8315969 Si02
#       6
#     8  16   8   8  16  16
#     4   9  18  32  54  82 108 137 181 240 301 356
#     4  11  22  37  58  85 117 156 205 251 299 351
#     4  10  21  39  62  92 124 159 197 247 315 375
#     4  12  24  40  62  88 127 169 212 258 301 369
#     4  10  19  33  54  78 106 144 190 239 296 358
#     4  10  20  37  62  89 120 154 192 245 309 368
#
# _framework density 18.704277000000001
#
# number of rings (size 3 to 8) (size 9 to 14) (size 15 to 20)
#    0.000    1.667    4.444    1.000    0.000    2.444 
#    0.000    0.000    0.000    2.667    0.000    0.000 
#    0.000    0.000    0.000    0.000    0.000    0.000 
#
# Total GULP energy -892591.247438 kJ/mol
# GULP energy per Si atom -12397.100659 kJ/mol
# Density = 1.866171 g / cm^3
# Si number density = 18.704277 Si / 1000 Ang^3
#
#
#
# Elastic Constant Matrix: (Units=GPa)
#
#
# Indices 1 2 3 4 5 6 
#
# 1 106.3854 38.3150 57.9360 0.0000 0.0000 0.0000
# 2 38.3150 106.3854 57.9360 0.0000 0.0000 0.0000
# 3 57.9360 57.9360 140.7232 0.0000 0.0000 0.0000
# 4 0.0000 0.0000 0.0000 22.7811 0.0000 0.0000
# 5 0.0000 0.0000 0.0000 0.0000 22.7811 0.0000
# 6 0.0000 0.0000 0.0000 0.0000 0.0000 26.2572
#
#
#
# Elastic Compliance Matrix: (Units=1/GPa)
#
#
# Indices 1 2 3 4 5 6 
#
# 1 0.012500 -0.002190 -0.004245 0.000000 0.000000 0.000000
# 2 -0.002190 0.012500 -0.004245 0.000000 0.000000 0.000000
# 3 -0.004245 -0.004245 0.010601 0.000000 0.000000 0.000000
# 4 0.000000 0.000000 0.000000 0.043896 0.000000 0.000000
# 5 0.000000 0.000000 0.000000 0.000000 0.043896 0.000000
# 6 0.000000 0.000000 0.000000 0.000000 0.000000 0.038085
#
#
# Mechanical properties :
#
#
# Convention : Reuss Voigt Hill
#
# Bulk Modulus (GPa) = 70.21269 73.54088 71.87679
# Shear Modulus (GPa) = 26.65460 27.65102 27.15281
#
# Velocity S-wave (km/s) = 3.77908 3.84907 3.81424
# Velocity P-wave (km/s) = 7.52740 7.69135 7.60982
#
# Compressibility (1/GPa) = 0.01424244
#
# Stress axis : x y z
#
# Youngs Moduli (GPa) = 79.99866 79.99866 94.32965
#
# Poissons Ratio (x) = 0.17523 0.40039
# Poissons Ratio (y) = 0.17523 0.40039
# Poissons Ratio (z) = 0.33956 0.33956
#
# Static dielectric constant tensor:
#      x y z
#    x 3.313620 0.000000 0.000000 
#    y 0.000000 3.313620 0.000000 
#    z 0.000000 0.000000 3.562280 
# 
# 
# High freq. dielectric constant tensor:
#      x y z
#    x 1.717800 0.000000 0.000000 
#    y 0.000000 1.717800 0.000000 
#    z 0.000000 0.000000 1.733600 
# 
# From -- ./inp_files/7631.got.cif
#   From: 2010.03.12/outbox.cif.g09.slc.cpg/sg131_4_cif.got.tgz:7631.got - 2010.04.06 17:36:35.
