data_PCOD8315809
_publ_section_title
;
Structure prediction by ZEFSAII (Michael W. Deem and Ramdas Pophale) SiO2 
 PCOD8315809
Probable space group: P 42/M M C
;
_chemical_formula_sum "Si O2"
_cell_formula_units_Z 80
_cell_length_a 18.133855
_cell_length_b 18.133855
_cell_length_c 16.937907
_cell_angle_alpha 90.000000
_cell_angle_beta 90.000000
_cell_angle_gamma 90.000000
_cell_volume 5569.805395
_symmetry_space_group_name_H-M "P 42/M M C"
_symmetry_group_IT_number 131
_symmetry_cell_setting 'tetragonal'
loop_
_space_group_symop_operation_xyz
x,y,z
-x,-y,z
-y,x,1/2+z
y,-x,1/2+z
-x,y,-z
x,-y,-z
y,x,1/2-z
-y,-x,1/2-z
-x,-y,-z
x,y,-z
y,-x,1/2-z
-y,x,1/2-z
x,-y,z
-x,y,z
-y,-x,1/2+z
y,x,1/2+z
loop_
_atom_site_type_symbol
_atom_site_label
_atom_site_fract_x
_atom_site_fract_y
_atom_site_fract_z
Si Si1 0.079767 0.000000 0.406891
Si Si2 0.913890 0.708354 0.378585
Si Si3 0.291610 0.086595 0.304937
Si Si4 0.087182 0.580515 0.086006
Si Si5 0.913038 0.584637 0.500000
Si Si6 0.142025 0.831490 0.089579
O O1 0.117833 0.075332 0.379262
O O2 0.072701 0.000000 0.500000
O O3 0.000000 0.000000 0.366168
O O4 0.895962 0.700870 0.286753
O O5 0.888318 0.633026 0.423214
O O6 0.872097 0.779690 0.411350
O O7 0.000000 0.721689 0.394628
O O8 0.368102 0.112378 0.342979
O O9 0.233899 0.140795 0.347077
O O10 0.273476 0.000000 0.321150
O O11 0.121881 0.500000 0.101250
O O12 0.000000 0.574579 0.085366
O O13 0.113601 0.610534 0.000000
O O14 0.879370 0.500000 0.500000
O O15 0.000000 0.575375 0.500000
O O16 0.126008 0.803691 0.000000
#
# Coordination Sequence:
#
# PCOD8315809 Si02
#       6
#     8  16  16  16   8  16
#     4   9  18  28  42  60  75 108 153 194 223 266
#     4  10  20  32  46  61  82 110 141 192 237 274
#     4  10  19  29  42  62  87 110 142 181 225 268
#     4   8  14  25  41  60  82 106 132 166 211 265
#     4   9  18  34  52  67  79 103 144 188 237 281
#     4  11  19  30  45  60  84 114 150 184 227 268
#
# _framework density 14.363159
#
# number of rings (size 3 to 8) (size 9 to 14) (size 15 to 20)
#    0.000    2.400    2.000    2.400    0.000    2.400 
#    0.000    4.000    0.000    0.000    0.000    0.000 
#    0.000    0.000    0.000    0.000    0.000    2.000 
#
# Total GULP energy -991203.818986 kJ/mol
# GULP energy per Si atom -12390.047737 kJ/mol
# Density = 1.433047 g / cm^3
# Si number density = 14.363159 Si / 1000 Ang^3
#
#
#
# Elastic Constant Matrix: (Units=GPa)
#
#
# Indices 1 2 3 4 5 6 
#
# 1 74.3415 25.3581 36.4152 0.0000 0.0000 0.0000
# 2 25.3581 74.3415 36.4152 0.0000 0.0000 0.0000
# 3 36.4152 36.4152 104.8753 0.0000 0.0000 0.0000
# 4 0.0000 0.0000 0.0000 14.9130 0.0000 0.0000
# 5 0.0000 0.0000 0.0000 0.0000 14.9130 0.0000
# 6 0.0000 0.0000 0.0000 0.0000 0.0000 6.1242
#
#
#
# Elastic Compliance Matrix: (Units=1/GPa)
#
#
# Indices 1 2 3 4 5 6 
#
# 1 0.016927 -0.003488 -0.004666 0.000000 0.000000 0.000000
# 2 -0.003488 0.016927 -0.004666 0.000000 0.000000 0.000000
# 3 -0.004666 -0.004666 0.012776 0.000000 0.000000 0.000000
# 4 0.000000 0.000000 0.000000 0.067056 0.000000 0.000000
# 5 0.000000 0.000000 0.000000 0.000000 0.067056 0.000000
# 6 0.000000 0.000000 0.000000 0.000000 0.000000 0.163288
#
#
# Mechanical properties :
#
#
# Convention : Reuss Voigt Hill
#
# Bulk Modulus (GPa) = 47.64593 49.99285 48.81939
# Shear Modulus (GPa) = 13.27435 17.54800 15.41118
#
# Velocity S-wave (km/s) = 3.04335 3.49913 3.27917
# Velocity P-wave (km/s) = 6.75231 7.15591 6.95704
#
# Compressibility (1/GPa) = 0.02098815
#
# Stress axis : x y z
#
# Youngs Moduli (GPa) = 59.07737 59.07737 78.27404
#
# Poissons Ratio (x) = 0.20607 0.36525
# Poissons Ratio (y) = 0.20607 0.36525
# Poissons Ratio (z) = 0.27567 0.27567
#
# Static dielectric constant tensor:
#      x y z
#    x 2.777160 0.000000 0.000000 
#    y 0.000000 2.777160 0.000000 
#    z 0.000000 0.000000 2.910110 
# 
# 
# High freq. dielectric constant tensor:
#      x y z
#    x 1.515650 0.000000 0.000000 
#    y 0.000000 1.515650 0.000000 
#    z 0.000000 0.000000 1.561830 
# 
# From -- ./inp_files/7830.got.cif
#   From: 2010.03.12/outbox.cif.g09.slc.cpg/sg131_4_cif.got.tgz:7830.got - 2010.04.06 17:36:35.
