data_PCOD8315186
_publ_section_title
;
Structure prediction by ZEFSAII (Michael W. Deem and Ramdas Pophale) SiO2 
 PCOD8315186
Probable space group: P 4/N M M
;
_chemical_formula_sum "Si O2"
_cell_formula_units_Z 88
_cell_length_a 13.363789
_cell_length_b 13.363789
_cell_length_c 29.030543
_cell_angle_alpha 90.000000
_cell_angle_beta 90.000000
_cell_angle_gamma 90.000000
_cell_volume 5184.589537
_symmetry_space_group_name_H-M "P 4/N M M"
_symmetry_group_IT_number 129
_symmetry_cell_setting 'tetragonal'
loop_
_space_group_symop_operation_xyz
x,y,z
1/2-y,x,z
1/2-x,1/2-y,z
y,1/2-x,z
1/2+x,-y,-z
-x,1/2+y,-z
1/2+y,1/2+x,-z
-y,-x,-z
-x,-y,-z
1/2+y,-x,-z
1/2+x,1/2+y,-z
-y,1/2+x,-z
1/2-x,y,z
x,1/2-y,z
1/2-y,1/2-x,z
y,x,z
loop_
_atom_site_type_symbol
_atom_site_label
_atom_site_fract_x
_atom_site_fract_y
_atom_site_fract_z
Si Si1 0.001009 0.498992 0.882861
Si Si2 0.634507 0.634507 0.051709
Si Si3 0.634579 0.634579 0.946278
Si Si4 0.367274 0.970761 0.459615
Si Si5 0.027381 0.634440 0.723849
Si Si6 0.135075 0.865167 0.181655
Si Si7 0.131360 0.638359 0.367134
O O1 0.067782 0.432219 0.915735
O O2 0.071143 0.566529 0.851684
O O3 0.931177 0.568824 0.912921
O O4 0.750000 0.610888 0.061846
O O5 0.608489 0.608489 0.998977
O O6 0.750000 0.610973 0.936157
O O7 0.392567 0.892567 0.500000
O O8 0.250000 0.994604 0.459557
O O9 0.403823 0.922114 0.411895
O O10 0.425057 0.074944 0.467323
O O11 0.996560 0.750000 0.718450
O O12 0.103191 0.617921 0.765744
O O13 0.081711 0.592812 0.678273
O O14 0.925547 0.574454 0.732648
O O15 0.250000 0.882054 0.167188
O O16 0.104028 0.750000 0.176973
O O17 0.250000 0.646271 0.365858
O O18 0.084941 0.750000 0.368490
#
# Coordination Sequence:
#
# PCOD8315186 Si02
#       7
#     8   8   8  16  16  16  16
#     4  12  19  32  54  80 100 130 171 212 252 298
#     4   9  19  35  53  75 103 135 171 208 248 296
#     4   9  19  35  53  75 105 137 167 202 246 300
#     4  10  20  33  50  75 105 135 172 219 270 318
#     4  10  19  33  50  72 100 134 172 210 254 308
#     4  10  21  35  50  72 103 134 166 210 259 305
#     4   9  17  30  50  72  95 129 170 209 251 303
#
# _framework density 16.973378
#
# number of rings (size 3 to 8) (size 9 to 14) (size 15 to 20)
#    0.000    2.182    0.909    3.545    0.000    3.455 
#    0.000    0.000    0.000    3.273    0.000    7.636 
#    0.000    2.909    0.000    0.000    0.000    0.000 
#
# Total GULP energy -1091343.222056 kJ/mol
# GULP energy per Si atom -12401.627523 kJ/mol
# Density = 1.693475 g / cm^3
# Si number density = 16.973378 Si / 1000 Ang^3
#
#
#
# Elastic Constant Matrix: (Units=GPa)
#
#
# Indices 1 2 3 4 5 6 
#
# 1 92.0346 69.3179 64.3139 0.0000 0.0000 0.0000
# 2 69.3179 92.0346 64.3139 0.0000 0.0000 0.0000
# 3 64.3139 64.3139 132.9288 0.0000 0.0000 0.0000
# 4 0.0000 0.0000 0.0000 30.6344 0.0000 0.0000
# 5 0.0000 0.0000 0.0000 0.0000 30.6344 0.0000
# 6 0.0000 0.0000 0.0000 0.0000 0.0000 25.2265
#
#
#
# Elastic Compliance Matrix: (Units=1/GPa)
#
#
# Indices 1 2 3 4 5 6 
#
# 1 0.027055 -0.016966 -0.004881 0.000000 0.000000 0.000000
# 2 -0.016966 0.027055 -0.004881 0.000000 0.000000 0.000000
# 3 -0.004881 -0.004881 0.012246 0.000000 0.000000 0.000000
# 4 0.000000 0.000000 0.000000 0.032643 0.000000 0.000000
# 5 0.000000 0.000000 0.000000 0.000000 0.032643 0.000000
# 6 0.000000 0.000000 0.000000 0.000000 0.000000 0.039641
#
#
# Mechanical properties :
#
#
# Convention : Reuss Voigt Hill
#
# Bulk Modulus (GPa) = 77.52567 79.20992 78.36779
# Shear Modulus (GPa) = 21.83042 25.23591 23.53316
#
# Velocity S-wave (km/s) = 3.59019 3.86008 3.72758
# Velocity P-wave (km/s) = 7.93473 8.16305 8.04970
#
# Compressibility (1/GPa) = 0.01289895
#
# Stress axis : x y z
#
# Youngs Moduli (GPa) = 36.96224 36.96224 81.65884
#
# Poissons Ratio (x) = 0.62709 0.39859
# Poissons Ratio (y) = 0.62709 0.39859
# Poissons Ratio (z) = 0.18042 0.18042
#
# Static dielectric constant tensor:
#      x y z
#    x 3.110650 0.000000 0.000000 
#    y 0.000000 3.110650 0.000000 
#    z 0.000000 0.000000 3.311310 
# 
# 
# High freq. dielectric constant tensor:
#      x y z
#    x 1.648500 0.000000 0.000000 
#    y 0.000000 1.648500 0.000000 
#    z 0.000000 0.000000 1.669830 
# 
# From -- ./inp_files/7799.got.cif
#   From: 2010.03.12/outbox.cif.g09.slc.cpg/sg129_4_cif.got.tgz:7799.got - 2010.04.06 17:19:44.
