data_PCOD8315786
_publ_section_title
;
Structure prediction by ZEFSAII (Michael W. Deem and Ramdas Pophale) SiO2 
 PCOD8315786
Probable space group: P 42/M M C
;
_chemical_formula_sum "Si O2"
_cell_formula_units_Z 104
_cell_length_a 17.725546
_cell_length_b 17.725546
_cell_length_c 17.859212
_cell_angle_alpha 90.000000
_cell_angle_beta 90.000000
_cell_angle_gamma 90.000000
_cell_volume 5611.274775
_symmetry_space_group_name_H-M "P 42/M M C"
_symmetry_group_IT_number 131
_symmetry_cell_setting 'tetragonal'
loop_
_space_group_symop_operation_xyz
x,y,z
-x,-y,z
-y,x,1/2+z
y,-x,1/2+z
-x,y,-z
x,-y,-z
y,x,1/2-z
-y,-x,1/2-z
-x,-y,-z
x,y,-z
y,-x,1/2-z
-y,x,1/2-z
x,-y,z
-x,y,z
-y,-x,1/2+z
y,x,1/2+z
loop_
_atom_site_type_symbol
_atom_site_label
_atom_site_fract_x
_atom_site_fract_y
_atom_site_fract_z
Si Si1 0.171203 0.319286 0.703511
Si Si2 0.621805 0.200002 0.415999
Si Si3 0.083490 0.500000 0.911474
Si Si4 0.588080 0.294823 0.279328
Si Si5 0.830195 0.766936 0.151707
Si Si6 0.415474 0.911053 0.916288
Si Si7 0.085320 0.916525 0.161330
O O1 0.222146 0.388214 0.731248
O O2 0.133272 0.272123 0.773209
O O3 0.223885 0.259150 0.662367
O O4 0.112093 0.353475 0.645152
O O5 0.598819 0.222527 0.500000
O O6 0.572035 0.130824 0.384427
O O7 0.608576 0.274502 0.365573
O O8 0.706814 0.166271 0.415306
O O9 0.000000 0.500000 0.873861
O O10 0.073977 0.500000 0.000000
O O11 0.631287 0.368714 0.250000
O O12 0.500000 0.310975 0.269560
O O13 0.867438 0.846645 0.127943
O O14 0.500000 0.881691 0.895935
O O15 0.415977 0.000000 0.917294
O O16 0.393538 0.881338 0.000000
O O17 0.088961 0.911040 0.250000
O O18 0.000000 0.908099 0.132508
O O19 0.116149 0.000000 0.136379
#
# Coordination Sequence:
#
# PCOD8315786 Si02
#       7
#    16  16   8  16  16  16  16
#     4  10  18  33  51  77 109 143 178 228 283 328
#     4  10  20  36  59  83 114 157 190 231 291 346
#     4   9  18  34  56  84 115 147 188 231 277 343
#     4  11  21  38  60  83 112 144 187 233 280 344
#     4  10  19  33  53  80 110 141 187 241 283 340
#     4   9  19  35  53  76 110 151 189 224 271 336
#     4   9  17  30  49  74 106 146 190 237 290 337
#
# _framework density 18.534113000000001
#
# number of rings (size 3 to 8) (size 9 to 14) (size 15 to 20)
#    0.000    2.231    5.385    1.385    0.000    2.615 
#    0.000    2.308    0.000    0.923    0.000    2.154 
#    0.000    0.615    0.000    3.385    0.000    0.000 
#
# Total GULP energy -1288421.708105 kJ/mol
# GULP energy per Si atom -12388.670270 kJ/mol
# Density = 1.849193 g / cm^3
# Si number density = 18.534113 Si / 1000 Ang^3
#
#
#
# Elastic Constant Matrix: (Units=GPa)
#
#
# Indices 1 2 3 4 5 6 
#
# 1 107.7493 49.6325 38.5926 0.0000 0.0000 0.0000
# 2 49.6325 107.7500 38.5918 0.0000 0.0000 0.0000
# 3 38.5926 38.5918 64.1272 0.0000 0.0000 0.0000
# 4 0.0000 0.0000 0.0000 20.7963 0.0000 0.0000
# 5 0.0000 0.0000 0.0000 0.0000 20.7966 0.0000
# 6 0.0000 0.0000 0.0000 0.0000 0.0000 33.3011
#
#
#
# Elastic Compliance Matrix: (Units=1/GPa)
#
#
# Indices 1 2 3 4 5 6 
#
# 1 0.013111 -0.004096 -0.005425 0.000000 0.000000 0.000000
# 2 -0.004096 0.013110 -0.005425 0.000000 0.000000 0.000000
# 3 -0.005425 -0.005425 0.022124 0.000000 0.000000 0.000000
# 4 0.000000 0.000000 0.000000 0.048085 0.000000 0.000000
# 5 0.000000 0.000000 0.000000 0.000000 0.048085 0.000000
# 6 0.000000 0.000000 0.000000 0.000000 0.000000 0.030029
#
#
# Mechanical properties :
#
#
# Convention : Reuss Voigt Hill
#
# Bulk Modulus (GPa) = 54.19275 59.25114 56.72194
# Shear Modulus (GPa) = 23.74315 25.16611 24.45463
#
# Velocity S-wave (km/s) = 3.58306 3.68887 3.63635
# Velocity P-wave (km/s) = 6.81327 7.08391 6.94991
#
# Compressibility (1/GPa) = 0.01845265
#
# Stress axis : x y z
#
# Youngs Moduli (GPa) = 76.27349 76.27512 45.20050
#
# Poissons Ratio (x) = 0.31243 0.24522
# Poissons Ratio (y) = 0.31242 0.24520
# Poissons Ratio (z) = 0.41380 0.41378
#
# Static dielectric constant tensor:
#      x y z
#    x 3.474150 0.000000 0.000000 
#    y 0.000000 3.474160 0.000000 
#    z 0.000000 0.000000 3.284580 
# 
# 
# High freq. dielectric constant tensor:
#      x y z
#    x 1.712990 0.000000 0.000000 
#    y 0.000000 1.712990 0.000000 
#    z 0.000000 0.000000 1.693450 
# 
# From -- ./inp_files/8065.got.cif
#   From: 2010.03.12/outbox.cif.g09.slc.cpg/sg131_5_cif.got.tgz:8065.got - 2010.04.06 17:36:35.
