data_PCOD8315255
_publ_section_title
;
Structure prediction by ZEFSAII (Michael W. Deem and Ramdas Pophale) SiO2 
 PCOD8315255
Probable space group: P 4/N M M
;
_chemical_formula_sum "Si O2"
_cell_formula_units_Z 64
_cell_length_a 13.150696
_cell_length_b 13.150696
_cell_length_c 20.663925
_cell_angle_alpha 90.000000
_cell_angle_beta 90.000000
_cell_angle_gamma 90.000000
_cell_volume 3573.635830
_symmetry_space_group_name_H-M "P 4/N M M"
_symmetry_group_IT_number 129
_symmetry_cell_setting 'tetragonal'
loop_
_space_group_symop_operation_xyz
x,y,z
1/2-y,x,z
1/2-x,1/2-y,z
y,1/2-x,z
1/2+x,-y,-z
-x,1/2+y,-z
1/2+y,1/2+x,-z
-y,-x,-z
-x,-y,-z
1/2+y,-x,-z
1/2+x,1/2+y,-z
-y,1/2+x,-z
1/2-x,y,z
x,1/2-y,z
1/2-y,1/2-x,z
y,x,z
loop_
_atom_site_type_symbol
_atom_site_label
_atom_site_fract_x
_atom_site_fract_y
_atom_site_fract_z
Si Si1 0.465271 0.632283 0.316474
Si Si2 0.969853 0.369353 0.199083
Si Si3 0.965094 0.131835 0.439119
Si Si4 0.362582 0.870895 0.929742
O O1 0.493077 0.750000 0.323497
O O2 0.570914 0.570914 0.316557
O O3 0.402618 0.615164 0.250520
O O4 0.393856 0.597575 0.374966
O O5 0.988508 0.250000 0.202527
O O6 0.934943 0.406798 0.128139
O O7 0.076260 0.423741 0.215854
O O8 0.894932 0.105068 0.500000
O O9 0.993173 0.250000 0.439898
O O10 0.070821 0.070821 0.441866
O O11 0.250000 0.917063 0.918260
O O12 0.354691 0.750000 0.930307
O O13 0.406342 0.906342 0.000000
#
# Coordination Sequence:
#
# PCOD8315255 Si02
#       4
#    16  16  16  16
#     4  10  21  36  54  77 102 128 161 200 244 296
#     4  10  20  32  47  69  96 128 166 204 243 288
#     4  10  21  36  54  78 106 136 172 210 248 292
#     4   8  14  26  45  68  92 118 152 197 246 292
#
# _framework density 17.908933000000001
#
# number of rings (size 3 to 8) (size 9 to 14) (size 15 to 20)
#    0.000    2.500    0.000    3.000    0.000    5.500 
#    0.000    0.000    0.000    9.000    0.000    0.000 
#    0.000    6.000    0.000    0.000    0.000    0.000 
#
# Total GULP energy -793532.355350 kJ/mol
# GULP energy per Si atom -12398.943052 kJ/mol
# Density = 1.786817 g / cm^3
# Si number density = 17.908933 Si / 1000 Ang^3
#
#
#
# Elastic Constant Matrix: (Units=GPa)
#
#
# Indices 1 2 3 4 5 6 
#
# 1 97.3968 51.1353 40.9385 0.0000 0.0000 0.0000
# 2 51.1353 97.3944 40.9443 0.0000 0.0000 0.0000
# 3 40.9385 40.9443 134.9690 0.0000 0.0000 0.0000
# 4 0.0000 0.0000 0.0000 22.2642 0.0000 0.0000
# 5 0.0000 0.0000 0.0000 0.0000 22.2622 0.0000
# 6 0.0000 0.0000 0.0000 0.0000 0.0000 12.5835
#
#
#
# Elastic Compliance Matrix: (Units=1/GPa)
#
#
# Indices 1 2 3 4 5 6 
#
# 1 0.014850 -0.006766 -0.002452 0.000000 0.000000 0.000000
# 2 -0.006766 0.014851 -0.002453 0.000000 0.000000 0.000000
# 3 -0.002452 -0.002453 0.008897 0.000000 0.000000 0.000000
# 4 0.000000 0.000000 0.000000 0.044915 0.000000 0.000000
# 5 0.000000 0.000000 0.000000 0.000000 0.044919 0.000000
# 6 0.000000 0.000000 0.000000 0.000000 0.000000 0.079469
#
#
# Mechanical properties :
#
#
# Convention : Reuss Voigt Hill
#
# Bulk Modulus (GPa) = 65.54554 66.19958 65.87256
# Shear Modulus (GPa) = 21.15695 24.53811 22.84753
#
# Velocity S-wave (km/s) = 3.44082 3.70558 3.57566
# Velocity P-wave (km/s) = 7.24324 7.43998 7.34227
#
# Compressibility (1/GPa) = 0.01525657
#
# Stress axis : x y z
#
# Youngs Moduli (GPa) = 67.33931 67.33461 112.39858
#
# Poissons Ratio (x) = 0.45559 0.27557
# Poissons Ratio (y) = 0.45563 0.27571
# Poissons Ratio (z) = 0.16510 0.16517
#
# Static dielectric constant tensor:
#      x y z
#    x 3.069680 0.000000 0.000000 
#    y 0.000000 3.069680 0.000000 
#    z 0.000000 0.000000 3.743570 
# 
# 
# High freq. dielectric constant tensor:
#      x y z
#    x 1.676040 0.000000 0.000000 
#    y 0.000000 1.676040 0.000000 
#    z 0.000000 0.000000 1.719090 
# 
# From -- ./inp_files/5364.got.cif
#   From: 2010.03.12/outbox.cif.g09.slc.cpg/sg129_3_cif.got.tgz:5364.got - 2010.04.06 17:19:44.
