data_PCOD8315775
_publ_section_title
;
Structure prediction by ZEFSAII (Michael W. Deem and Ramdas Pophale) SiO2 
 PCOD8315775
Probable space group: P 42/M M C
;
_chemical_formula_sum "Si O2"
_cell_formula_units_Z 96
_cell_length_a 17.451143
_cell_length_b 17.451143
_cell_length_c 19.457542
_cell_angle_alpha 90.000000
_cell_angle_beta 90.000000
_cell_angle_gamma 90.000000
_cell_volume 5925.646383
_symmetry_space_group_name_H-M "P 42/M M C"
_symmetry_group_IT_number 131
_symmetry_cell_setting 'tetragonal'
loop_
_space_group_symop_operation_xyz
x,y,z
-x,-y,z
-y,x,1/2+z
y,-x,1/2+z
-x,y,-z
x,-y,-z
y,x,1/2-z
-y,-x,1/2-z
-x,-y,-z
x,y,-z
y,-x,1/2-z
-y,x,1/2-z
x,-y,z
-x,y,z
-y,-x,1/2+z
y,x,1/2+z
loop_
_atom_site_type_symbol
_atom_site_label
_atom_site_fract_x
_atom_site_fract_y
_atom_site_fract_z
Si Si1 0.411418 0.911666 0.214822
Si Si2 0.140921 0.914906 0.682982
Si Si3 0.815129 0.712975 0.205623
Si Si4 0.174317 0.414185 0.577337
Si Si5 0.753445 0.267145 0.577314
Si Si6 0.799690 0.084195 0.078130
O O1 0.500000 0.901333 0.236268
O O2 0.363002 0.853648 0.263168
O O3 0.399586 0.890960 0.134604
O O4 0.385571 0.000000 0.225593
O O5 0.087669 0.912332 0.750000
O O6 0.222902 0.879612 0.701793
O O7 0.095413 0.875490 0.621960
O O8 0.156927 0.000000 0.658371
O O9 0.743014 0.743014 0.250000
O O10 0.780197 0.698769 0.128847
O O11 0.139358 0.400234 0.500000
O O12 0.206555 0.500000 0.584223
O O13 0.249469 0.359257 0.586884
O O14 0.732005 0.240741 0.500000
O O15 0.844829 0.256270 0.594649
O O16 0.762951 0.000000 0.095456
O O17 0.826413 0.087034 0.000000
#
# Coordination Sequence:
#
# PCOD8315775 Si02
#       6
#    16  16  16  16  16  16
#     4  10  20  32  48  71 100 132 162 196 240 286
#     4  10  20  30  41  57  77 105 142 186 230 269
#     4  10  18  32  48  67  88 120 156 195 231 277
#     4   9  17  29  45  69 101 130 156 185 223 282
#     4   9  17  30  47  67  91 121 155 192 234 278
#     4   9  18  30  42  57  78 108 146 185 227 272
#
# _framework density 16.200765000000001
#
# number of rings (size 3 to 8) (size 9 to 14) (size 15 to 20)
#    0.000    2.500    1.667    1.000    0.000    2.500 
#    0.000    4.167    0.000    2.000    0.000    1.167 
#    0.000    2.333    0.000    4.167    0.000    0.000 
#
# Total GULP energy -1189375.643176 kJ/mol
# GULP energy per Si atom -12389.329616 kJ/mol
# Density = 1.616389 g / cm^3
# Si number density = 16.200765 Si / 1000 Ang^3
#
#
#
# Elastic Constant Matrix: (Units=GPa)
#
#
# Indices 1 2 3 4 5 6 
#
# 1 68.2521 27.7814 42.6869 0.0000 0.0000 0.0000
# 2 27.7814 68.2520 42.6868 0.0000 0.0000 0.0000
# 3 42.6869 42.6868 93.5673 0.0000 0.0000 0.0000
# 4 0.0000 0.0000 0.0000 19.0702 0.0000 0.0000
# 5 0.0000 0.0000 0.0000 0.0000 19.0699 0.0000
# 6 0.0000 0.0000 0.0000 0.0000 0.0000 17.6215
#
#
#
# Elastic Compliance Matrix: (Units=1/GPa)
#
#
# Indices 1 2 3 4 5 6 
#
# 1 0.021114 -0.003596 -0.007992 0.000000 0.000000 0.000000
# 2 -0.003596 0.021114 -0.007992 0.000000 0.000000 0.000000
# 3 -0.007992 -0.007992 0.017980 0.000000 0.000000 0.000000
# 4 0.000000 0.000000 0.000000 0.052438 0.000000 0.000000
# 5 0.000000 0.000000 0.000000 0.000000 0.052439 0.000000
# 6 0.000000 0.000000 0.000000 0.000000 0.000000 0.056749
#
#
# Mechanical properties :
#
#
# Convention : Reuss Voigt Hill
#
# Bulk Modulus (GPa) = 47.51135 50.70907 49.11021
# Shear Modulus (GPa) = 18.65622 18.94672 18.80147
#
# Velocity S-wave (km/s) = 3.39715 3.42350 3.41035
# Velocity P-wave (km/s) = 6.69162 6.85533 6.77397
#
# Compressibility (1/GPa) = 0.02104760
#
# Stress axis : x y z
#
# Youngs Moduli (GPa) = 47.36294 47.36285 55.61869
#
# Poissons Ratio (x) = 0.17030 0.44450
# Poissons Ratio (y) = 0.17030 0.44450
# Poissons Ratio (z) = 0.37852 0.37852
#
# Static dielectric constant tensor:
#      x y z
#    x 2.944260 0.000000 0.000000 
#    y 0.000000 2.944260 0.000000 
#    z 0.000000 0.000000 3.239720 
# 
# 
# High freq. dielectric constant tensor:
#      x y z
#    x 1.595720 0.000000 0.000000 
#    y 0.000000 1.595720 0.000000 
#    z 0.000000 0.000000 1.632140 
# 
# From -- ./inp_files/7923.got.cif
#   From: 2010.03.12/outbox.cif.g09.slc.cpg/sg131_4_cif.got.tgz:7923.got - 2010.04.06 17:36:35.
