data_PCOD8315808
_publ_section_title
;
Structure prediction by ZEFSAII (Michael W. Deem and Ramdas Pophale) SiO2 
 PCOD8315808
Probable space group: P 42/M M C
;
_chemical_formula_sum "Si O2"
_cell_formula_units_Z 96
_cell_length_a 24.912514
_cell_length_b 24.912514
_cell_length_c 9.334869
_cell_angle_alpha 90.000000
_cell_angle_beta 90.000000
_cell_angle_gamma 90.000000
_cell_volume 5793.531055
_symmetry_space_group_name_H-M "P 42/M M C"
_symmetry_group_IT_number 131
_symmetry_cell_setting 'tetragonal'
loop_
_space_group_symop_operation_xyz
x,y,z
-x,-y,z
-y,x,1/2+z
y,-x,1/2+z
-x,y,-z
x,-y,-z
y,x,1/2-z
-y,-x,1/2-z
-x,-y,-z
x,y,-z
y,-x,1/2-z
-y,x,1/2-z
x,-y,z
-x,y,z
-y,-x,1/2+z
y,x,1/2+z
loop_
_atom_site_type_symbol
_atom_site_label
_atom_site_fract_x
_atom_site_fract_y
_atom_site_fract_z
Si Si1 0.739579 0.337956 0.831361
Si Si2 0.937010 0.137627 0.336183
Si Si3 0.938105 0.243203 0.166175
Si Si4 0.864614 0.340975 0.834089
Si Si5 0.866065 0.558513 0.660547
Si Si6 0.440589 0.261396 0.838867
O O1 0.709935 0.290066 0.750000
O O2 0.802478 0.330180 0.796992
O O3 0.717885 0.395094 0.770856
O O4 0.727548 0.335469 0.000000
O O5 0.910807 0.089194 0.250000
O O6 0.916799 0.138410 0.500000
O O7 0.920479 0.193111 0.261844
O O8 0.000000 0.128182 0.327465
O O9 0.900252 0.291322 0.218548
O O10 0.000000 0.259064 0.192861
O O11 0.928117 0.228963 0.000000
O O12 0.888309 0.394009 0.758933
O O13 0.872646 0.351376 0.000000
O O14 0.887012 0.568338 0.500000
O O15 0.886300 0.500000 0.715658
O O16 0.802265 0.558888 0.663614
O O17 0.500000 0.282585 0.792582
O O18 0.427202 0.281583 0.000000
#
# Coordination Sequence:
#
# PCOD8315808 Si02
#       6
#    16  16  16  16  16  16
#     4  10  19  29  41  61  92 122 149 183 222 267
#     4  10  21  36  54  76  99 122 150 184 224 271
#     4   9  18  34  53  70  92 122 156 194 232 272
#     4   9  18  30  45  67  90 117 154 191 231 276
#     4   8  14  25  42  64  88 115 148 186 229 275
#     4   8  14  26  43  61  83 113 148 183 221 266
#
# _framework density 16.570205999999999
#
# number of rings (size 3 to 8) (size 9 to 14) (size 15 to 20)
#    0.000    3.000    0.000    2.000    0.000    3.833 
#    0.000    5.833    0.000    0.500    0.000    3.500 
#    0.000    0.333    0.000    3.500    0.000    1.833 
#
# Total GULP energy -1190025.407193 kJ/mol
# GULP energy per Si atom -12396.097992 kJ/mol
# Density = 1.653249 g / cm^3
# Si number density = 16.570206 Si / 1000 Ang^3
#
#
#
# Elastic Constant Matrix: (Units=GPa)
#
#
# Indices 1 2 3 4 5 6 
#
# 1 70.4611 48.8646 49.2423 0.0000 0.0000 0.0000
# 2 48.8646 70.4771 49.2463 0.0000 0.0000 0.0000
# 3 49.2423 49.2463 91.4869 0.0000 0.0000 0.0000
# 4 0.0000 0.0000 0.0000 26.5123 0.0000 0.0000
# 5 0.0000 0.0000 0.0000 0.0000 26.5120 0.0000
# 6 0.0000 0.0000 0.0000 0.0000 0.0000 3.4687
#
#
#
# Elastic Compliance Matrix: (Units=1/GPa)
#
#
# Indices 1 2 3 4 5 6 
#
# 1 0.030687 -0.015604 -0.008117 0.000000 0.000000 0.000000
# 2 -0.015604 0.030678 -0.008115 0.000000 0.000000 0.000000
# 3 -0.008117 -0.008115 0.019668 0.000000 0.000000 0.000000
# 4 0.000000 0.000000 0.000000 0.037718 0.000000 0.000000
# 5 0.000000 0.000000 0.000000 0.000000 0.037719 0.000000
# 6 0.000000 0.000000 0.000000 0.000000 0.000000 0.288295
#
#
# Mechanical properties :
#
#
# Convention : Reuss Voigt Hill
#
# Bulk Modulus (GPa) = 57.60421 58.57018 58.08719
# Shear Modulus (GPa) = 9.72339 16.97006 13.34672
#
# Velocity S-wave (km/s) = 2.42502 3.20368 2.84115
# Velocity P-wave (km/s) = 6.53301 7.00772 6.77452
#
# Compressibility (1/GPa) = 0.01735984
#
# Stress axis : x y z
#
# Youngs Moduli (GPa) = 32.58762 32.59627 50.84450
#
# Poissons Ratio (x) = 0.50864 0.41272
# Poissons Ratio (y) = 0.50850 0.41260
# Poissons Ratio (z) = 0.26452 0.26452
#
# Static dielectric constant tensor:
#      x y z
#    x 3.121220 0.000000 0.000000 
#    y 0.000000 3.121220 0.000000 
#    z 0.000000 0.000000 3.246110 
# 
# 
# High freq. dielectric constant tensor:
#      x y z
#    x 1.620490 0.000000 0.000000 
#    y 0.000000 1.620490 0.000000 
#    z 0.000000 0.000000 1.643180 
# 
# From -- ./inp_files/2177.got.cif
#   From: 2010.03.12/outbox.cif.g09.slc.cpg/sg131_2_cif.got.tgz:2177.got - 2010.04.06 17:36:35.
