data_PCOD8315210
_publ_section_title
;
Structure prediction by ZEFSAII (Michael W. Deem and Ramdas Pophale) SiO2 
 PCOD8315210
Probable space group: P 4/N M M
;
_chemical_formula_sum "Si O2"
_cell_formula_units_Z 60
_cell_length_a 14.649858
_cell_length_b 14.649858
_cell_length_c 15.786110
_cell_angle_alpha 90.000000
_cell_angle_beta 90.000000
_cell_angle_gamma 90.000000
_cell_volume 3387.988714
_symmetry_space_group_name_H-M "P 4/N M M"
_symmetry_group_IT_number 129
_symmetry_cell_setting 'tetragonal'
loop_
_space_group_symop_operation_xyz
x,y,z
1/2-y,x,z
1/2-x,1/2-y,z
y,1/2-x,z
1/2+x,-y,-z
-x,1/2+y,-z
1/2+y,1/2+x,-z
-y,-x,-z
-x,-y,-z
1/2+y,-x,-z
1/2+x,1/2+y,-z
-y,1/2+x,-z
1/2-x,y,z
x,1/2-y,z
1/2-y,1/2-x,z
y,x,z
loop_
_atom_site_type_symbol
_atom_site_label
_atom_site_fract_x
_atom_site_fract_y
_atom_site_fract_z
Si Si1 0.147326 0.647326 0.000000
Si Si2 0.750000 0.602108 0.431251
Si Si3 0.750000 0.250000 0.701758
Si Si4 0.914385 0.065466 0.167317
Si Si5 0.944791 0.250000 0.703135
Si Si6 0.549538 0.250000 0.234658
Si Si7 0.600358 0.750000 0.626211
O O1 0.131938 0.576106 0.924240
O O2 0.133870 0.750000 0.964761
O O3 0.839600 0.660400 0.411366
O O4 0.750000 0.516153 0.371299
O O5 0.750000 0.570568 0.528418
O O6 0.846636 0.250000 0.652661
O O7 0.750000 0.159583 0.759388
O O8 0.839308 0.046023 0.239140
O O9 0.974834 0.156469 0.185860
O O10 0.978991 0.978991 0.164902
O O11 0.493839 0.250000 0.322473
O O12 0.660290 0.660290 0.647116
#
# Coordination Sequence:
#
# PCOD8315210 Si02
#       7
#     8   8   4  16   8   8   8
#     4  11  21  36  58  78 105 143 178 220 266 313
#     4   9  18  34  56  79 105 139 176 215 262 318
#     4   8  20  32  49  69 104 132 170 212 260 297
#     4  11  21  34  55  80 107 139 175 221 270 311
#     4  10  19  35  53  80 105 137 178 222 257 317
#     4  10  19  35  53  80 105 137 178 222 257 317
#     4   9  18  34  56  79 105 139 176 215 262 318
#
# _framework density 17.709620999999999
#
# number of rings (size 3 to 8) (size 9 to 14) (size 15 to 20)
#    0.000    2.000    2.667    2.800    0.000    0.000 
#    0.000    6.000    0.000   14.400    0.000    1.867 
#    0.000    0.000    0.000    0.000    0.000    0.000 
#
# Total GULP energy -743610.933034 kJ/mol
# GULP energy per Si atom -12393.515551 kJ/mol
# Density = 1.766931 g / cm^3
# Si number density = 17.709621 Si / 1000 Ang^3
#
#
#
# Elastic Constant Matrix: (Units=GPa)
#
#
# Indices 1 2 3 4 5 6 
#
# 1 107.8791 44.1287 41.4625 0.0000 0.0000 0.0000
# 2 44.1287 107.8791 41.4625 0.0000 0.0000 0.0000
# 3 41.4625 41.4625 81.1121 0.0000 0.0000 0.0000
# 4 0.0000 0.0000 0.0000 27.2750 0.0000 0.0000
# 5 0.0000 0.0000 0.0000 0.0000 27.2750 0.0000
# 6 0.0000 0.0000 0.0000 0.0000 0.0000 22.4427
#
#
#
# Elastic Compliance Matrix: (Units=1/GPa)
#
#
# Indices 1 2 3 4 5 6 
#
# 1 0.012404 -0.003282 -0.004663 0.000000 0.000000 0.000000
# 2 -0.003282 0.012404 -0.004663 0.000000 0.000000 0.000000
# 3 -0.004663 -0.004663 0.017096 0.000000 0.000000 0.000000
# 4 0.000000 0.000000 0.000000 0.036664 0.000000 0.000000
# 5 0.000000 0.000000 0.000000 0.000000 0.036664 0.000000
# 6 0.000000 0.000000 0.000000 0.000000 0.000000 0.044558
#
#
# Mechanical properties :
#
#
# Convention : Reuss Voigt Hill
#
# Bulk Modulus (GPa) = 59.92234 61.21977 60.57106
# Shear Modulus (GPa) = 26.23718 26.71964 26.47841
#
# Velocity S-wave (km/s) = 3.85323 3.88849 3.87090
# Velocity P-wave (km/s) = 7.32844 7.40299 7.36581
#
# Compressibility (1/GPa) = 0.01668827
#
# Stress axis : x y z
#
# Youngs Moduli (GPa) = 80.61680 80.61680 58.49300
#
# Poissons Ratio (x) = 0.26457 0.27277
# Poissons Ratio (y) = 0.26457 0.27277
# Poissons Ratio (z) = 0.37593 0.37593
#
# Static dielectric constant tensor:
#      x y z
#    x 3.352320 0.000000 0.000000 
#    y 0.000000 3.352320 0.000000 
#    z 0.000000 0.000000 3.050140 
# 
# 
# High freq. dielectric constant tensor:
#      x y z
#    x 1.687440 0.000000 0.000000 
#    y 0.000000 1.687440 0.000000 
#    z 0.000000 0.000000 1.672680 
# 
# From -- ./inp_files/4507.got.cif
#   From: 2010.03.12/outbox.cif.g09.slc.cpg/sg129_3_cif.got.tgz:4507.got - 2010.04.06 17:19:44.
