data_PCOD8315638
_publ_section_title
;
Structure prediction by ZEFSAII (Michael W. Deem and Ramdas Pophale) SiO2 
 PCOD8315638
Probable space group: P 42/M M C
;
_chemical_formula_sum "Si O2"
_cell_formula_units_Z 112
_cell_length_a 19.058252
_cell_length_b 19.058252
_cell_length_c 19.758751
_cell_angle_alpha 90.000000
_cell_angle_beta 90.000000
_cell_angle_gamma 90.000000
_cell_volume 7176.713655
_symmetry_space_group_name_H-M "P 42/M M C"
_symmetry_group_IT_number 131
_symmetry_cell_setting 'tetragonal'
loop_
_space_group_symop_operation_xyz
x,y,z
-x,-y,z
-y,x,1/2+z
y,-x,1/2+z
-x,y,-z
x,-y,-z
y,x,1/2-z
-y,-x,1/2-z
-x,-y,-z
x,y,-z
y,-x,1/2-z
-y,x,1/2-z
x,-y,z
-x,y,z
-y,-x,1/2+z
y,x,1/2+z
loop_
_atom_site_type_symbol
_atom_site_label
_atom_site_fract_x
_atom_site_fract_y
_atom_site_fract_z
Si Si1 0.153275 0.578007 0.851738
Si Si2 0.298463 0.579408 0.077730
Si Si3 0.703186 0.078296 0.179998
Si Si4 0.579293 0.174942 0.195574
Si Si5 0.792842 0.203653 0.171112
Si Si6 0.665660 0.695070 0.174801
Si Si7 0.284474 0.076919 0.340483
O O1 0.119138 0.500000 0.858403
O O2 0.216867 0.586171 0.903507
O O3 0.182944 0.588931 0.776130
O O4 0.095895 0.637680 0.867771
O O5 0.324537 0.500000 0.090860
O O6 0.345809 0.631675 0.122387
O O7 0.307535 0.600854 0.000000
O O8 0.626330 0.111204 0.166734
O O9 0.761564 0.129184 0.144607
O O10 0.715315 0.075247 0.259740
O O11 0.707681 0.000000 0.148421
O O12 0.500000 0.158887 0.173907
O O13 0.603476 0.248889 0.164077
O O14 0.805917 0.194084 0.250000
O O15 0.739716 0.267637 0.158931
O O16 0.866106 0.226063 0.135051
O O17 0.663874 0.663874 0.250000
O O18 0.264503 0.000000 0.369181
#
# Coordination Sequence:
#
# PCOD8315638 Si02
#       7
#    16  16  16  16  16  16  16
#     4   9  15  25  38  57  84 111 142 177 216 257
#     4  10  19  29  43  64  89 116 146 180 217 256
#     4   8  14  22  34  54  84 114 134 166 217 265
#     4   9  16  24  40  64  84 104 136 176 214 254
#     4   8  13  22  35  55  77 104 144 182 217 256
#     4  10  15  26  45  61  82 110 145 185 217 250
#     4   9  14  21  34  53  78 111 148 183 216 246
#
# _framework density 15.606028999999999
#
# number of rings (size 3 to 8) (size 9 to 14) (size 15 to 20)
#    0.000    3.000    2.857    1.714    0.000    0.571 
#    0.000    2.857    0.000    1.714    0.000    7.000 
#    0.000    9.143    0.000    5.143    0.000    7.143 
#
# Total GULP energy -1387839.650742 kJ/mol
# GULP energy per Si atom -12391.425453 kJ/mol
# Density = 1.557051 g / cm^3
# Si number density = 15.606029 Si / 1000 Ang^3
#
#
#
# Elastic Constant Matrix: (Units=GPa)
#
#
# Indices 1 2 3 4 5 6 
#
# 1 107.2218 71.6017 25.1300 0.0000 0.0000 0.0000
# 2 71.6017 107.2218 25.1299 0.0000 0.0000 0.0000
# 3 25.1300 25.1299 36.0952 0.0000 0.0000 0.0000
# 4 0.0000 0.0000 0.0000 9.7496 0.0000 0.0000
# 5 0.0000 0.0000 0.0000 0.0000 9.7496 0.0000
# 6 0.0000 0.0000 0.0000 0.0000 0.0000 18.9886
#
#
#
# Elastic Compliance Matrix: (Units=1/GPa)
#
#
# Indices 1 2 3 4 5 6 
#
# 1 0.017513 -0.010561 -0.004841 0.000000 0.000000 0.000000
# 2 -0.010561 0.017513 -0.004840 0.000000 0.000000 0.000000
# 3 -0.004841 -0.004840 0.034445 0.000000 0.000000 0.000000
# 4 0.000000 0.000000 0.000000 0.102568 0.000000 0.000000
# 5 0.000000 0.000000 0.000000 0.000000 0.102568 0.000000
# 6 0.000000 0.000000 0.000000 0.000000 0.000000 0.052663
#
#
# Mechanical properties :
#
#
# Convention : Reuss Voigt Hill
#
# Bulk Modulus (GPa) = 34.49731 54.91802 44.70766
# Shear Modulus (GPa) = 13.24797 16.27605 14.76201
#
# Velocity S-wave (km/s) = 2.91675 3.23295 3.07891
# Velocity P-wave (km/s) = 5.78760 7.01446 6.43036
#
# Compressibility (1/GPa) = 0.02898777
#
# Stress axis : x y z
#
# Youngs Moduli (GPa) = 57.09949 57.09955 29.03219
#
# Poissons Ratio (x) = 0.60301 0.14053
# Poissons Ratio (y) = 0.60301 0.14053
# Poissons Ratio (z) = 0.27639 0.27639
#
# Static dielectric constant tensor:
#      x y z
#    x 3.155320 0.000000 0.000000 
#    y 0.000000 3.155310 0.000000 
#    z 0.000000 0.000000 2.451760 
# 
# 
# High freq. dielectric constant tensor:
#      x y z
#    x 1.592140 0.000000 0.000000 
#    y 0.000000 1.592140 0.000000 
#    z 0.000000 0.000000 1.533130 
# 
# From -- ./inp_files/10049.got.cif
#   From: 2010.03.12/outbox.cif.g09.slc.cpg/sg131_6_cif.got.tgz:10049.got - 2010.04.06 17:36:35.
