data_PCOD8315456
_publ_section_title
;
Structure prediction by ZEFSAII (Michael W. Deem and Ramdas Pophale) SiO2 
 PCOD8315456
Probable space group: P 4/N M M
;
_chemical_formula_sum "Si O2"
_cell_formula_units_Z 88
_cell_length_a 14.501404
_cell_length_b 14.501404
_cell_length_c 27.257681
_cell_angle_alpha 90.000000
_cell_angle_beta 90.000000
_cell_angle_gamma 90.000000
_cell_volume 5732.037308
_symmetry_space_group_name_H-M "P 4/N M M"
_symmetry_group_IT_number 129
_symmetry_cell_setting 'tetragonal'
loop_
_space_group_symop_operation_xyz
x,y,z
1/2-y,x,z
1/2-x,1/2-y,z
y,1/2-x,z
1/2+x,-y,-z
-x,1/2+y,-z
1/2+y,1/2+x,-z
-y,-x,-z
-x,-y,-z
1/2+y,-x,-z
1/2+x,1/2+y,-z
-y,1/2+x,-z
1/2-x,y,z
x,1/2-y,z
1/2-y,1/2-x,z
y,x,z
loop_
_atom_site_type_symbol
_atom_site_label
_atom_site_fract_x
_atom_site_fract_y
_atom_site_fract_z
Si Si1 0.004772 0.855839 0.416752
Si Si2 0.355906 0.995258 0.694420
Si Si3 0.502698 0.145414 0.140685
Si Si4 0.144111 0.644243 0.222541
Si Si5 0.644072 0.144072 0.500000
Si Si6 0.508789 0.141847 0.027393
O O1 0.977511 0.750000 0.425392
O O2 0.913926 0.913926 0.428769
O O3 0.039286 0.872500 0.361164
O O4 0.086660 0.887302 0.452550
O O5 0.250000 0.021955 0.703220
O O6 0.413487 0.086514 0.706261
O O7 0.388098 0.913775 0.730329
O O8 0.473829 0.250000 0.151360
O O9 0.414379 0.085622 0.154508
O O10 0.587666 0.114154 0.174535
O O11 0.532820 0.132364 0.084586
O O12 0.250000 0.627107 0.236434
O O13 0.124762 0.750000 0.209356
O O14 0.625867 0.250000 0.486603
O O15 0.497427 0.250000 0.012350
O O16 0.413643 0.086358 0.015072
O O17 0.595637 0.095637 0.000000
#
# Coordination Sequence:
#
# PCOD8315456 Si02
#       6
#    16  16  16  16   8  16
#     4   9  17  28  42  60  81 105 133 165 200 238
#     4   9  17  28  42  60  81 106 135 166 201 239
#     4   9  17  29  45  64  86 111 138 170 207 246
#     4   9  17  28  42  61  84 109 137 168 202 241
#     4   9  17  28  42  60  81 105 132 162 198 239
#     4   9  18  31  46  66  90 115 145 179 215 256
#
# _framework density 15.352308000000001
#
# number of rings (size 3 to 8) (size 9 to 14) (size 15 to 20)
#    0.000    3.000    0.000    0.818    0.000    2.364 
#    0.000    9.091    0.000    0.000    0.000    0.000 
#    0.000    4.364    0.000   33.818    0.000    1.091 
#
# Total GULP energy -1091053.239427 kJ/mol
# GULP energy per Si atom -12398.332266 kJ/mol
# Density = 1.531737 g / cm^3
# Si number density = 15.352308 Si / 1000 Ang^3
#
#
#
# Elastic Constant Matrix: (Units=GPa)
#
#
# Indices 1 2 3 4 5 6 
#
# 1 87.8681 58.9897 61.7910 0.0000 0.0000 0.0000
# 2 58.9897 87.8681 61.7910 0.0000 0.0000 0.0000
# 3 61.7910 61.7910 90.8628 0.0000 0.0000 0.0000
# 4 0.0000 0.0000 0.0000 26.7679 0.0000 0.0000
# 5 0.0000 0.0000 0.0000 0.0000 26.7679 0.0000
# 6 0.0000 0.0000 0.0000 0.0000 0.0000 24.6272
#
#
#
# Elastic Compliance Matrix: (Units=1/GPa)
#
#
# Indices 1 2 3 4 5 6 
#
# 1 0.025274 -0.009354 -0.010826 0.000000 0.000000 0.000000
# 2 -0.009354 0.025274 -0.010826 0.000000 0.000000 0.000000
# 3 -0.010826 -0.010826 0.025730 0.000000 0.000000 0.000000
# 4 0.000000 0.000000 0.000000 0.037358 0.000000 0.000000
# 5 0.000000 0.000000 0.000000 0.000000 0.037358 0.000000
# 6 0.000000 0.000000 0.000000 0.000000 0.000000 0.040605
#
#
# Mechanical properties :
#
#
# Convention : Reuss Voigt Hill
#
# Bulk Modulus (GPa) = 70.10191 70.19359 70.14775
# Shear Modulus (GPa) = 19.35234 21.23441 20.29338
#
# Velocity S-wave (km/s) = 3.55427 3.72310 3.63966
# Velocity P-wave (km/s) = 7.91234 8.01892 7.96580
#
# Compressibility (1/GPa) = 0.01426495
#
# Stress axis : x y z
#
# Youngs Moduli (GPa) = 39.56681 39.56681 38.86525
#
# Poissons Ratio (x) = 0.37012 0.42075
# Poissons Ratio (y) = 0.37012 0.42075
# Poissons Ratio (z) = 0.42835 0.42835
#
# Static dielectric constant tensor:
#      x y z
#    x 2.956800 0.000000 0.000000 
#    y 0.000000 2.956800 0.000000 
#    z 0.000000 0.000000 3.042200 
# 
# 
# High freq. dielectric constant tensor:
#      x y z
#    x 1.584730 0.000000 0.000000 
#    y 0.000000 1.584730 0.000000 
#    z 0.000000 0.000000 1.590510 
# 
# From -- ./inp_files/6954.got.cif
#   From: 2010.03.12/outbox.cif.g09.slc.cpg/sg129_4_cif.got.tgz:6954.got - 2010.04.06 17:19:44.
