data_PCOD8315204
_publ_section_title
;
Structure prediction by ZEFSAII (Michael W. Deem and Ramdas Pophale) SiO2 
 PCOD8315204
Probable space group: P 4/N M M
;
_chemical_formula_sum "Si O2"
_cell_formula_units_Z 128
_cell_length_a 23.990256
_cell_length_b 23.990256
_cell_length_c 12.360504
_cell_angle_alpha 90.000000
_cell_angle_beta 90.000000
_cell_angle_gamma 90.000000
_cell_volume 7113.870322
_symmetry_space_group_name_H-M "P 4/N M M"
_symmetry_group_IT_number 129
_symmetry_cell_setting 'tetragonal'
loop_
_space_group_symop_operation_xyz
x,y,z
1/2-y,x,z
1/2-x,1/2-y,z
y,1/2-x,z
1/2+x,-y,-z
-x,1/2+y,-z
1/2+y,1/2+x,-z
-y,-x,-z
-x,-y,-z
1/2+y,-x,-z
1/2+x,1/2+y,-z
-y,1/2+x,-z
1/2-x,y,z
x,1/2-y,z
1/2-y,1/2-x,z
y,x,z
loop_
_atom_site_type_symbol
_atom_site_label
_atom_site_fract_x
_atom_site_fract_y
_atom_site_fract_z
Si Si1 0.183493 0.589907 0.151700
Si Si2 0.185089 0.888697 0.770269
Si Si3 0.019679 0.686800 0.651962
Si Si4 0.641747 0.437194 0.441365
Si Si5 0.686108 0.597199 0.581856
Si Si6 0.476275 0.815058 0.054343
Si Si7 0.058302 0.353177 0.642138
Si Si8 0.185738 0.092736 0.869025
O O1 0.250000 0.595074 0.151701
O O2 0.159678 0.652061 0.166151
O O3 0.158140 0.554199 0.251933
O O4 0.159285 0.559731 0.044396
O O5 0.250000 0.872995 0.776981
O O6 0.167065 0.893266 0.644392
O O7 0.171866 0.946726 0.831375
O O8 0.011361 0.750000 0.685937
O O9 0.052298 0.685240 0.538108
O O10 0.957568 0.660994 0.641950
O O11 0.585808 0.414193 0.500000
O O12 0.631067 0.494196 0.377445
O O13 0.750000 0.609340 0.612689
O O14 0.650132 0.650132 0.618958
O O15 0.682124 0.585865 0.454252
O O16 0.478375 0.750000 0.033454
O O17 0.540765 0.835804 0.056671
O O18 0.087335 0.412666 0.656129
O O19 0.069218 0.315811 0.747276
O O20 0.250000 0.109417 0.895020
O O21 0.146318 0.146318 0.888707
#
# Coordination Sequence:
#
# PCOD8315204 Si02
#       8
#    16  16  16  16  16  16  16  16
#     4  10  20  36  55  76 103 137 179 224 269 321
#     4  11  21  34  55  81 107 137 176 225 275 326
#     4   9  18  32  50  70  99 138 177 215 256 314
#     4  11  19  31  51  77 108 141 181 220 268 323
#     4   9  17  29  47  73 103 136 174 215 261 312
#     4   9  19  35  56  78 102 139 184 223 259 314
#     4   9  18  31  49  73 105 142 181 224 266 318
#     4  10  19  33  55  83 113 145 182 226 278 331
#
# _framework density 17.993017999999999
#
# number of rings (size 3 to 8) (size 9 to 14) (size 15 to 20)
#    0.000    2.250    2.500    1.125    0.000    1.750 
#    0.000    0.625    0.000    7.500    0.000    0.000 
#    0.000    5.000    0.000    0.000    0.000    0.125 
#
# Total GULP energy -1586254.369969 kJ/mol
# GULP energy per Si atom -12392.612265 kJ/mol
# Density = 1.795207 g / cm^3
# Si number density = 17.993018 Si / 1000 Ang^3
#
#
#
# Elastic Constant Matrix: (Units=GPa)
#
#
# Indices 1 2 3 4 5 6 
#
# 1 93.0122 52.4855 31.6970 0.0000 0.0000 0.0000
# 2 52.4855 93.0096 31.6959 0.0000 0.0000 0.0000
# 3 31.6970 31.6959 79.3659 0.0000 0.0000 0.0000
# 4 0.0000 0.0000 0.0000 21.8493 0.0000 0.0000
# 5 0.0000 0.0000 0.0000 0.0000 21.8497 0.0000
# 6 0.0000 0.0000 0.0000 0.0000 0.0000 22.1170
#
#
#
# Elastic Compliance Matrix: (Units=1/GPa)
#
#
# Indices 1 2 3 4 5 6 
#
# 1 0.016498 -0.008177 -0.003323 0.000000 0.000000 0.000000
# 2 -0.008177 0.016499 -0.003323 0.000000 0.000000 0.000000
# 3 -0.003323 -0.003323 0.015254 0.000000 0.000000 0.000000
# 4 0.000000 0.000000 0.000000 0.045768 0.000000 0.000000
# 5 0.000000 0.000000 0.000000 0.000000 0.045767 0.000000
# 6 0.000000 0.000000 0.000000 0.000000 0.000000 0.045214
#
#
# Mechanical properties :
#
#
# Convention : Reuss Voigt Hill
#
# Bulk Modulus (GPa) = 53.75335 55.23829 54.49582
# Shear Modulus (GPa) = 22.63991 23.13049 22.88520
#
# Velocity S-wave (km/s) = 3.55105 3.58931 3.57023
# Velocity P-wave (km/s) = 6.83759 6.92416 6.88101
#
# Compressibility (1/GPa) = 0.01860349
#
# Stress axis : x y z
#
# Youngs Moduli (GPa) = 60.61259 60.61130 65.55573
#
# Poissons Ratio (x) = 0.49565 0.21786
# Poissons Ratio (y) = 0.49566 0.21784
# Poissons Ratio (z) = 0.20143 0.20141
#
# Static dielectric constant tensor:
#      x y z
#    x 3.237370 0.000000 0.000000 
#    y 0.000000 3.237370 0.000000 
#    z 0.000000 0.000000 3.489270 
# 
# 
# High freq. dielectric constant tensor:
#      x y z
#    x 1.682820 0.000000 0.000000 
#    y 0.000000 1.682820 0.000000 
#    z 0.000000 0.000000 1.694020 
# 
# From -- ./inp_files/4168.got.cif
#   From: 2010.03.12/outbox.cif.g09.slc.cpg/sg129_3_cif.got.tgz:4168.got - 2010.04.06 17:19:44.
