data_PCOD8315317
_publ_section_title
;
Structure prediction by ZEFSAII (Michael W. Deem and Ramdas Pophale) SiO2 
 PCOD8315317
Probable space group: P 4/N M M
;
_chemical_formula_sum "Si O2"
_cell_formula_units_Z 80
_cell_length_a 13.426760
_cell_length_b 13.426760
_cell_length_c 25.681498
_cell_angle_alpha 90.000000
_cell_angle_beta 90.000000
_cell_angle_gamma 90.000000
_cell_volume 4629.806120
_symmetry_space_group_name_H-M "P 4/N M M"
_symmetry_group_IT_number 129
_symmetry_cell_setting 'tetragonal'
loop_
_space_group_symop_operation_xyz
x,y,z
1/2-y,x,z
1/2-x,1/2-y,z
y,1/2-x,z
1/2+x,-y,-z
-x,1/2+y,-z
1/2+y,1/2+x,-z
-y,-x,-z
-x,-y,-z
1/2+y,-x,-z
1/2+x,1/2+y,-z
-y,1/2+x,-z
1/2-x,y,z
x,1/2-y,z
1/2-y,1/2-x,z
y,x,z
loop_
_atom_site_type_symbol
_atom_site_label
_atom_site_fract_x
_atom_site_fract_y
_atom_site_fract_z
Si Si1 0.027763 0.867768 0.359164
Si Si2 0.525566 0.136848 0.958567
Si Si3 0.031352 0.867411 0.548132
Si Si4 0.476341 0.635559 0.157785
Si Si5 0.632154 0.359427 0.256210
O O1 0.010762 0.750000 0.364737
O O2 0.109415 0.905120 0.400299
O O3 0.067379 0.899760 0.302493
O O4 0.922152 0.922152 0.369051
O O5 0.492132 0.250000 0.965914
O O6 0.568357 0.118913 0.900175
O O7 0.428240 0.071761 0.969871
O O8 0.611329 0.111329 0.000000
O O9 0.098926 0.901075 0.500000
O O10 0.008583 0.750000 0.544866
O O11 0.926166 0.926166 0.548202
O O12 0.499534 0.750000 0.169282
O O13 0.581583 0.581583 0.163124
O O14 0.400029 0.592772 0.200678
O O15 0.750000 0.349978 0.255092
O O16 0.584884 0.250000 0.264887
#
# Coordination Sequence:
#
# PCOD8315317 Si02
#       5
#    16  16  16  16  16
#     4  10  20  33  50  73 100 130 165 204 246 293
#     4   9  18  31  46  66  92 121 155 195 237 283
#     4  10  21  36  54  77 103 132 168 207 247 293
#     4   9  17  29  45  66  92 120 150 186 230 282
#     4   9  17  29  45  65  90 121 156 192 230 274
#
# _framework density 17.279340999999999
#
# number of rings (size 3 to 8) (size 9 to 14) (size 15 to 20)
#    0.000    2.600    0.000    1.800    0.000    4.000 
#    0.000    4.000    0.000    7.200    0.000    0.000 
#    0.000    3.600    0.000    0.800    0.000    0.200 
#
# Total GULP energy -991806.918020 kJ/mol
# GULP energy per Si atom -12397.586475 kJ/mol
# Density = 1.724001 g / cm^3
# Si number density = 17.279341 Si / 1000 Ang^3
#
#
#
# Elastic Constant Matrix: (Units=GPa)
#
#
# Indices 1 2 3 4 5 6 
#
# 1 93.3557 39.9962 45.5075 0.0000 0.0000 0.0000
# 2 39.9962 93.3556 45.5076 0.0000 0.0000 0.0000
# 3 45.5075 45.5076 124.4084 0.0000 0.0000 0.0000
# 4 0.0000 0.0000 0.0000 25.3185 0.0000 0.0000
# 5 0.0000 0.0000 0.0000 0.0000 25.3186 0.0000
# 6 0.0000 0.0000 0.0000 0.0000 0.0000 13.3831
#
#
#
# Elastic Compliance Matrix: (Units=1/GPa)
#
#
# Indices 1 2 3 4 5 6 
#
# 1 0.014367 -0.004373 -0.003656 0.000000 0.000000 0.000000
# 2 -0.004373 0.014367 -0.003656 0.000000 0.000000 0.000000
# 3 -0.003656 -0.003656 0.010713 0.000000 0.000000 0.000000
# 4 0.000000 0.000000 0.000000 0.039497 0.000000 0.000000
# 5 0.000000 0.000000 0.000000 0.000000 0.039497 0.000000
# 6 0.000000 0.000000 0.000000 0.000000 0.000000 0.074721
#
#
# Mechanical properties :
#
#
# Convention : Reuss Voigt Hill
#
# Bulk Modulus (GPa) = 62.19802 63.68247 62.94024
# Shear Modulus (GPa) = 22.53357 24.81126 23.67242
#
# Velocity S-wave (km/s) = 3.61512 3.79343 3.70534
# Velocity P-wave (km/s) = 7.31431 7.49143 7.40340
#
# Compressibility (1/GPa) = 0.01607768
#
# Stress axis : x y z
#
# Youngs Moduli (GPa) = 69.60186 69.60167 93.34867
#
# Poissons Ratio (x) = 0.30439 0.34126
# Poissons Ratio (y) = 0.30440 0.34126
# Poissons Ratio (z) = 0.25445 0.25445
#
# Static dielectric constant tensor:
#      x y z
#    x 3.088910 0.000000 0.000000 
#    y 0.000000 3.088910 0.000000 
#    z 0.000000 0.000000 3.580560 
# 
# 
# High freq. dielectric constant tensor:
#      x y z
#    x 1.650400 0.000000 0.000000 
#    y 0.000000 1.650400 0.000000 
#    z 0.000000 0.000000 1.688820 
# 
# From -- ./inp_files/7690.got.cif
#   From: 2010.03.12/outbox.cif.g09.slc.cpg/sg129_4_cif.got.tgz:7690.got - 2010.04.06 17:19:44.
