data_PCOD8315009
_publ_section_title
;
Structure prediction by ZEFSAII (Michael W. Deem and Ramdas Pophale) SiO2 
 PCOD8315009
Probable space group: P 4/N M M
;
_chemical_formula_sum "Si O2"
_cell_formula_units_Z 96
_cell_length_a 13.710863
_cell_length_b 13.710863
_cell_length_c 30.981140
_cell_angle_alpha 90.000000
_cell_angle_beta 90.000000
_cell_angle_gamma 90.000000
_cell_volume 5824.075241
_symmetry_space_group_name_H-M "P 4/N M M"
_symmetry_group_IT_number 129
_symmetry_cell_setting 'tetragonal'
loop_
_space_group_symop_operation_xyz
x,y,z
1/2-y,x,z
1/2-x,1/2-y,z
y,1/2-x,z
1/2+x,-y,-z
-x,1/2+y,-z
1/2+y,1/2+x,-z
-y,-x,-z
-x,-y,-z
1/2+y,-x,-z
1/2+x,1/2+y,-z
-y,1/2+x,-z
1/2-x,y,z
x,1/2-y,z
1/2-y,1/2-x,z
y,x,z
loop_
_atom_site_type_symbol
_atom_site_label
_atom_site_fract_x
_atom_site_fract_y
_atom_site_fract_z
Si Si1 0.366178 0.641705 0.952732
Si Si2 0.021635 0.635327 0.703877
Si Si3 0.865216 0.358834 0.621367
Si Si4 0.635442 0.018324 0.127507
Si Si5 0.025313 0.865908 0.536576
Si Si6 0.362960 0.638589 0.211319
O O1 0.250000 0.647044 0.951240
O O2 0.409139 0.750000 0.945024
O O3 0.405659 0.572487 0.914967
O O4 0.398437 0.601564 0.000000
O O5 0.000804 0.750000 0.700461
O O6 0.091551 0.598523 0.665475
O O7 0.072888 0.606004 0.748446
O O8 0.918072 0.581929 0.700653
O O9 0.750000 0.348950 0.621999
O O10 0.911173 0.250000 0.617529
O O11 0.897638 0.425990 0.581591
O O12 0.750000 0.002887 0.125088
O O13 0.587669 0.912332 0.130139
O O14 0.603831 0.079424 0.169280
O O15 0.101520 0.898481 0.500000
O O16 0.005935 0.750000 0.533537
O O17 0.922182 0.922182 0.531591
O O18 0.250000 0.626256 0.200247
O O19 0.387493 0.750000 0.223300
#
# Coordination Sequence:
#
# PCOD8315009 Si02
#       6
#    16  16  16  16  16  16
#     4   8  14  26  44  64  84 105 133 174 220 258
#     4  10  19  30  45  66  93 122 150 181 220 269
#     4   9  17  30  48  68  90 118 153 192 231 268
#     4  10  19  29  42  61  86 115 144 173 208 254
#     4  10  20  33  50  73 100 130 164 201 243 291
#     4   9  17  30  48  67  85 107 140 185 231 264
#
# _framework density 16.483304
#
# number of rings (size 3 to 8) (size 9 to 14) (size 15 to 20)
#    0.000    2.667    0.000    3.000    0.000    5.667 
#    0.000    0.000    0.000    3.000    0.000    0.000 
#    0.000   16.667    0.000    0.667    0.000    0.000 
#
# Total GULP energy -1190197.971403 kJ/mol
# GULP energy per Si atom -12397.895535 kJ/mol
# Density = 1.644579 g / cm^3
# Si number density = 16.483304 Si / 1000 Ang^3
#
#
#
# Elastic Constant Matrix: (Units=GPa)
#
#
# Indices 1 2 3 4 5 6 
#
# 1 69.2325 43.8184 46.6967 0.0000 0.0000 0.0000
# 2 43.8184 69.2329 46.6969 0.0000 0.0000 0.0000
# 3 46.6967 46.6969 136.8083 0.0000 0.0000 0.0000
# 4 0.0000 0.0000 0.0000 15.8905 0.0000 0.0000
# 5 0.0000 0.0000 0.0000 0.0000 15.8904 0.0000
# 6 0.0000 0.0000 0.0000 0.0000 0.0000 23.2412
#
#
#
# Elastic Compliance Matrix: (Units=1/GPa)
#
#
# Indices 1 2 3 4 5 6 
#
# 1 0.025834 -0.013514 -0.004205 0.000000 0.000000 0.000000
# 2 -0.013514 0.025834 -0.004205 0.000000 0.000000 0.000000
# 3 -0.004205 -0.004205 0.010180 0.000000 0.000000 0.000000
# 4 0.000000 0.000000 0.000000 0.062931 0.000000 0.000000
# 5 0.000000 0.000000 0.000000 0.000000 0.062931 0.000000
# 6 0.000000 0.000000 0.000000 0.000000 0.000000 0.043027
#
#
# Mechanical properties :
#
#
# Convention : Reuss Voigt Hill
#
# Bulk Modulus (GPa) = 55.55892 61.07753 58.31822
# Shear Modulus (GPa) = 17.81993 20.20851 19.01422
#
# Velocity S-wave (km/s) = 3.29156 3.50522 3.40007
# Velocity P-wave (km/s) = 6.94443 7.31551 7.13239
#
# Compressibility (1/GPa) = 0.01799891
#
# Stress axis : x y z
#
# Youngs Moduli (GPa) = 38.70905 38.70926 98.23114
#
# Poissons Ratio (x) = 0.52313 0.41306
# Poissons Ratio (y) = 0.52313 0.41306
# Poissons Ratio (z) = 0.16277 0.16277
#
# Static dielectric constant tensor:
#      x y z
#    x 2.900500 0.000000 0.000000 
#    y 0.000000 2.900500 0.000000 
#    z 0.000000 0.000000 3.417110 
# 
# 
# High freq. dielectric constant tensor:
#      x y z
#    x 1.612680 0.000000 0.000000 
#    y 0.000000 1.612680 0.000000 
#    z 0.000000 0.000000 1.656250 
# 
# From -- ./inp_files/7851.got.cif
#   From: 2010.03.12/outbox.cif.g09.slc.cpg/sg129_4_cif.got.tgz:7851.got - 2010.04.06 17:19:44.
