data_PCOD8315821
_publ_section_title
;
Structure prediction by ZEFSAII (Michael W. Deem and Ramdas Pophale) SiO2 
 PCOD8315821
Probable space group: P 42/M M C
;
_chemical_formula_sum "Si O2"
_cell_formula_units_Z 112
_cell_length_a 15.231642
_cell_length_b 15.231642
_cell_length_c 27.414014
_cell_angle_alpha 90.000000
_cell_angle_beta 90.000000
_cell_angle_gamma 90.000000
_cell_volume 6360.131243
_symmetry_space_group_name_H-M "P 42/M M C"
_symmetry_group_IT_number 131
_symmetry_cell_setting 'tetragonal'
loop_
_space_group_symop_operation_xyz
x,y,z
-x,-y,z
-y,x,1/2+z
y,-x,1/2+z
-x,y,-z
x,-y,-z
y,x,1/2-z
-y,-x,1/2-z
-x,-y,-z
x,y,-z
y,-x,1/2-z
-y,x,1/2-z
x,-y,z
-x,y,z
-y,-x,1/2+z
y,x,1/2+z
loop_
_atom_site_type_symbol
_atom_site_label
_atom_site_fract_x
_atom_site_fract_y
_atom_site_fract_z
Si Si1 0.596071 0.269280 0.810572
Si Si2 0.900910 0.238365 0.445471
Si Si3 0.264130 0.403066 0.803150
Si Si4 0.849955 0.899353 0.805028
Si Si5 0.097141 0.662271 0.349606
Si Si6 0.212224 0.097862 0.396551
Si Si7 0.597726 0.900827 0.635170
O O1 0.500000 0.310364 0.820754
O O2 0.613724 0.260585 0.753733
O O3 0.671632 0.334225 0.830981
O O4 0.595809 0.173419 0.834927
O O5 0.884887 0.275331 0.500000
O O6 0.886550 0.315240 0.406438
O O7 0.833585 0.160187 0.435524
O O8 0.000000 0.201276 0.439659
O O9 0.300739 0.500000 0.815409
O O10 0.164195 0.392739 0.819609
O O11 0.869795 0.869795 0.750000
O O12 0.746544 0.894772 0.814723
O O13 0.894720 0.831185 0.842552
O O14 0.883334 0.000000 0.813291
O O15 0.000000 0.619926 0.343323
O O16 0.317451 0.118334 0.398615
O O17 0.196823 0.000000 0.415407
O O18 0.500000 0.887655 0.609961
O O19 0.604808 0.000000 0.655480
#
# Coordination Sequence:
#
# PCOD8315821 Si02
#       7
#    16  16  16  16  16  16  16
#     4  10  20  31  47  70  96 128 162 203 248 288
#     4   9  18  33  51  70  93 124 163 206 252 299
#     4   9  18  31  47  68  96 132 168 200 236 283
#     4  10  20  30  42  63  94 133 167 196 235 285
#     4   9  19  32  47  68  93 125 164 204 242 286
#     4  10  19  29  45  68  94 126 162 205 248 291
#     4   9  18  32  49  70  97 130 167 201 234 278
#
# _framework density 17.6097
#
# number of rings (size 3 to 8) (size 9 to 14) (size 15 to 20)
#    0.000    2.571    0.000    3.429    4.000    3.286 
#    0.000    3.571    0.000    0.857    0.000    4.000 
#    0.000    0.000    0.000    5.143    0.000    0.143 
#
# Total GULP energy -1387666.568285 kJ/mol
# GULP energy per Si atom -12389.880074 kJ/mol
# Density = 1.756962 g / cm^3
# Si number density = 17.609700 Si / 1000 Ang^3
#
#
#
# Elastic Constant Matrix: (Units=GPa)
#
#
# Indices 1 2 3 4 5 6 
#
# 1 36.4859 99.3064 25.1567 0.0000 0.0000 0.0000
# 2 99.3064 36.4859 25.1567 0.0000 0.0000 0.0000
# 3 25.1567 25.1567 60.2176 0.0000 0.0000 0.0000
# 4 0.0000 0.0000 0.0000 12.8726 0.0000 0.0000
# 5 0.0000 0.0000 0.0000 0.0000 12.8726 0.0000
# 6 0.0000 0.0000 0.0000 0.0000 0.0000 23.2984
#
#
#
# Elastic Compliance Matrix: (Units=1/GPa)
#
#
# Indices 1 2 3 4 5 6 
#
# 1 -0.003603 0.012316 -0.003640 0.000000 0.000000 0.000000
# 2 0.012316 -0.003603 -0.003640 0.000000 0.000000 0.000000
# 3 -0.003640 -0.003640 0.019648 0.000000 0.000000 0.000000
# 4 0.000000 0.000000 0.000000 0.077684 0.000000 0.000000
# 5 0.000000 0.000000 0.000000 0.000000 0.077684 0.000000
# 6 0.000000 0.000000 0.000000 0.000000 0.000000 0.042921
#
#
# Mechanical properties :
#
#
# Convention : Reuss Voigt Hill
#
# Bulk Modulus (GPa) = 44.41733 48.04767 46.23250
# Shear Modulus (GPa) = 24.01940 8.71337 16.36639
#
# Velocity S-wave (km/s) = 3.69723 2.22684 3.05191
# Velocity P-wave (km/s) = 6.59575 5.82715 6.22333
#
# Compressibility (1/GPa) = 0.02251374
#
# Stress axis : x y z
#
# Youngs Moduli (GPa) = -277.56397 -277.56397 50.89662
#
# Poissons Ratio (x) = 3.41837 0.18526
# Poissons Ratio (y) = 3.41837 0.18526
# Poissons Ratio (z) = -1.01031 -1.01031
#
# Static dielectric constant tensor:
#      x y z
#    x 3.443680 0.000000 0.000000 
#    y 0.000000 3.443680 0.000000 
#    z 0.000000 0.000000 3.017470 
# 
# 
# High freq. dielectric constant tensor:
#      x y z
#    x 1.683430 0.000000 0.000000 
#    y 0.000000 1.683430 0.000000 
#    z 0.000000 0.000000 1.635850 
# 
# From -- ./inp_files/12441.got.cif
#   From: 2010.03.12/outbox.cif.g09.slc.cpg/sg131_7_cif.got.tgz:12441.got - 2010.04.06 17:36:35.
