data_PCOD8315168
_publ_section_title
;
Structure prediction by ZEFSAII (Michael W. Deem and Ramdas Pophale) SiO2 
 PCOD8315168
Probable space group: P 4/N M M
;
_chemical_formula_sum "Si O2"
_cell_formula_units_Z 80
_cell_length_a 12.465191
_cell_length_b 12.465191
_cell_length_c 29.960585
_cell_angle_alpha 90.000000
_cell_angle_beta 90.000000
_cell_angle_gamma 90.000000
_cell_volume 4655.305258
_symmetry_space_group_name_H-M "P 4/N M M"
_symmetry_group_IT_number 129
_symmetry_cell_setting 'tetragonal'
loop_
_space_group_symop_operation_xyz
x,y,z
1/2-y,x,z
1/2-x,1/2-y,z
y,1/2-x,z
1/2+x,-y,-z
-x,1/2+y,-z
1/2+y,1/2+x,-z
-y,-x,-z
-x,-y,-z
1/2+y,-x,-z
1/2+x,1/2+y,-z
-y,1/2+x,-z
1/2-x,y,z
x,1/2-y,z
1/2-y,1/2-x,z
y,x,z
loop_
_atom_site_type_symbol
_atom_site_label
_atom_site_fract_x
_atom_site_fract_y
_atom_site_fract_z
Si Si1 0.512687 0.512687 0.926903
Si Si2 0.376037 0.947623 0.548131
Si Si3 0.624794 0.624794 0.008444
Si Si4 0.957073 0.373741 0.760509
Si Si5 0.377681 0.750000 0.708269
Si Si6 0.122879 0.750000 0.607713
Si Si7 0.371012 0.627757 0.857006
O O1 0.579388 0.579388 0.962531
O O2 0.448456 0.596244 0.896945
O O3 0.430464 0.430464 0.949370
O O4 0.397377 0.897377 0.500000
O O5 0.250000 0.974842 0.553715
O O6 0.416510 0.858250 0.583346
O O7 0.443476 0.056525 0.555848
O O8 0.750000 0.599704 0.010902
O O9 0.977283 0.250000 0.748744
O O10 0.854922 0.419889 0.733899
O O11 0.942583 0.391373 0.813225
O O12 0.060978 0.439023 0.744605
O O13 0.250000 0.750000 0.709466
O O14 0.422844 0.750000 0.657952
O O15 0.250000 0.750000 0.607406
O O16 0.250000 0.611659 0.874211
O O17 0.392510 0.750000 0.843396
#
# Coordination Sequence:
#
# PCOD8315168 Si02
#       7
#     8  16   8  16   8   8  16
#     4  11  20  34  56  76  98 132 176 208 253 314
#     4  10  19  32  52  78 109 143 181 230 280 324
#     4  10  22  38  52  72 104 138 166 206 258 312
#     4  10  19  33  53  78 110 142 174 218 272 320
#     4   9  18  34  54  77 103 145 185 218 261 321
#     4   9  18  32  54  77 103 139 189 226 263 323
#     4  10  19  32  51  77 103 129 167 216 260 304
#
# _framework density 17.184694
#
# number of rings (size 3 to 8) (size 9 to 14) (size 15 to 20)
#    0.000    2.100    3.000    1.200    0.000    1.200 
#    0.000    0.000    0.000    5.400    0.000    7.000 
#    0.000    0.000    0.000    0.000    0.000    0.000 
#
# Total GULP energy -992049.734833 kJ/mol
# GULP energy per Si atom -12400.621685 kJ/mol
# Density = 1.714558 g / cm^3
# Si number density = 17.184694 Si / 1000 Ang^3
#
#
#
# Elastic Constant Matrix: (Units=GPa)
#
#
# Indices 1 2 3 4 5 6 
#
# 1 79.3137 67.0427 27.9039 0.0000 0.0000 0.0000
# 2 67.0427 79.3137 27.9039 0.0000 0.0000 0.0000
# 3 27.9039 27.9039 77.6964 0.0000 0.0000 0.0000
# 4 0.0000 0.0000 0.0000 14.2053 0.0000 0.0000
# 5 0.0000 0.0000 0.0000 0.0000 14.2053 0.0000
# 6 0.0000 0.0000 0.0000 0.0000 0.0000 25.6850
#
#
#
# Elastic Compliance Matrix: (Units=1/GPa)
#
#
# Indices 1 2 3 4 5 6 
#
# 1 0.044705 -0.036788 -0.002843 0.000000 0.000000 0.000000
# 2 -0.036788 0.044705 -0.002843 0.000000 0.000000 0.000000
# 3 -0.002843 -0.002843 0.014913 0.000000 0.000000 0.000000
# 4 0.000000 0.000000 0.000000 0.070396 0.000000 0.000000
# 5 0.000000 0.000000 0.000000 0.000000 0.070396 0.000000
# 6 0.000000 0.000000 0.000000 0.000000 0.000000 0.038933
#
#
# Mechanical properties :
#
#
# Convention : Reuss Voigt Hill
#
# Bulk Modulus (GPa) = 51.61690 53.55829 52.58760
# Shear Modulus (GPa) = 13.31715 18.38401 15.85058
#
# Velocity S-wave (km/s) = 2.78680 3.27431 3.04034
# Velocity P-wave (km/s) = 6.36056 6.74750 6.55689
#
# Compressibility (1/GPa) = 0.01937350
#
# Stress axis : x y z
#
# Youngs Moduli (GPa) = 22.36884 22.36884 67.05626
#
# Poissons Ratio (x) = 0.82291 0.19066
# Poissons Ratio (y) = 0.82291 0.19066
# Poissons Ratio (z) = 0.06360 0.06360
#
# Static dielectric constant tensor:
#      x y z
#    x 3.114830 0.000000 0.000000 
#    y 0.000000 3.114830 0.000000 
#    z 0.000000 0.000000 3.282570 
# 
# 
# High freq. dielectric constant tensor:
#      x y z
#    x 1.655950 0.000000 0.000000 
#    y 0.000000 1.655950 0.000000 
#    z 0.000000 0.000000 1.668580 
# 
# From -- ./inp_files/7734.got.cif
#   From: 2010.03.12/outbox.cif.g09.slc.cpg/sg129_4_cif.got.tgz:7734.got - 2010.04.06 17:19:44.
