data_PCOD8315174
_publ_section_title
;
Structure prediction by ZEFSAII (Michael W. Deem and Ramdas Pophale) SiO2 
 PCOD8315174
Probable space group: P 4/N M M
;
_chemical_formula_sum "Si O2"
_cell_formula_units_Z 112
_cell_length_a 17.784143
_cell_length_b 17.784143
_cell_length_c 21.339993
_cell_angle_alpha 90.000000
_cell_angle_beta 90.000000
_cell_angle_gamma 90.000000
_cell_volume 6749.322126
_symmetry_space_group_name_H-M "P 4/N M M"
_symmetry_group_IT_number 129
_symmetry_cell_setting 'tetragonal'
loop_
_space_group_symop_operation_xyz
x,y,z
1/2-y,x,z
1/2-x,1/2-y,z
y,1/2-x,z
1/2+x,-y,-z
-x,1/2+y,-z
1/2+y,1/2+x,-z
-y,-x,-z
-x,-y,-z
1/2+y,-x,-z
1/2+x,1/2+y,-z
-y,1/2+x,-z
1/2-x,y,z
x,1/2-y,z
1/2-y,1/2-x,z
y,x,z
loop_
_atom_site_type_symbol
_atom_site_label
_atom_site_fract_x
_atom_site_fract_y
_atom_site_fract_z
Si Si1 0.664938 0.544696 0.924693
Si Si2 0.937442 0.438478 0.849643
Si Si3 0.337311 0.039432 0.628444
Si Si4 0.335132 0.940690 0.962822
Si Si5 0.961308 0.662288 0.631915
Si Si6 0.164246 0.538816 0.498511
Si Si7 0.435739 0.561997 0.709020
O O1 0.750000 0.559201 0.905728
O O2 0.623421 0.623421 0.918249
O O3 0.633233 0.484338 0.875805
O O4 0.655786 0.516054 0.995968
O O5 0.954786 0.368174 0.894113
O O6 0.918236 0.410499 0.779742
O O7 0.011501 0.488499 0.849930
O O8 0.250000 0.057006 0.642196
O O9 0.385110 0.114891 0.642058
O O10 0.351080 0.014640 0.557359
O O11 0.363518 0.970263 0.672450
O O12 0.250000 0.916698 0.953707
O O13 0.373309 0.873309 0.000000
O O14 0.943865 0.750000 0.644548
O O15 0.885444 0.614557 0.644914
O O16 0.987356 0.647285 0.561221
O O17 0.030054 0.636480 0.676711
O O18 0.111129 0.611129 0.500000
O O19 0.250000 0.568477 0.498099
O O20 0.500047 0.500047 0.708284
#
# Coordination Sequence:
#
# PCOD8315174 Si02
#       7
#    16  16  16  16  16  16  16
#     4   9  17  29  46  69  96 125 157 193 234 281
#     4   9  17  30  48  69  92 121 157 196 235 274
#     4  10  20  33  51  75 101 129 162 200 243 292
#     4   9  17  29  46  68  92 120 152 190 233 278
#     4  10  20  33  51  74  99 129 163 201 246 293
#     4  10  19  32  52  76 101 132 166 205 248 294
#     4   9  18  32  50  70  94 126 164 202 237 283
#
# _framework density 16.594259000000001
#
# number of rings (size 3 to 8) (size 9 to 14) (size 15 to 20)
#    0.000    2.571    1.429    0.857    0.000    4.143 
#    0.000    0.000    0.000    3.000    0.000    6.000 
#    0.000    3.429    0.000    0.000    0.000    0.000 
#
# Total GULP energy -1388719.091945 kJ/mol
# GULP energy per Si atom -12399.277607 kJ/mol
# Density = 1.655649 g / cm^3
# Si number density = 16.594259 Si / 1000 Ang^3
#
#
#
# Elastic Constant Matrix: (Units=GPa)
#
#
# Indices 1 2 3 4 5 6 
#
# 1 81.3069 36.8526 25.1153 0.0000 0.0000 0.0000
# 2 36.8526 81.3069 25.1153 0.0000 0.0000 0.0000
# 3 25.1153 25.1153 117.6456 0.0000 0.0000 0.0000
# 4 0.0000 0.0000 0.0000 13.6502 0.0000 0.0000
# 5 0.0000 0.0000 0.0000 0.0000 13.6502 0.0000
# 6 0.0000 0.0000 0.0000 0.0000 0.0000 13.3459
#
#
#
# Elastic Compliance Matrix: (Units=1/GPa)
#
#
# Indices 1 2 3 4 5 6 
#
# 1 0.015901 -0.006594 -0.001987 0.000000 0.000000 0.000000
# 2 -0.006594 0.015901 -0.001987 0.000000 0.000000 0.000000
# 3 -0.001987 -0.001987 0.009349 0.000000 0.000000 0.000000
# 4 0.000000 0.000000 0.000000 0.073259 0.000000 0.000000
# 5 0.000000 0.000000 0.000000 0.000000 0.073259 0.000000
# 6 0.000000 0.000000 0.000000 0.000000 0.000000 0.074930
#
#
# Mechanical properties :
#
#
# Convention : Reuss Voigt Hill
#
# Bulk Modulus (GPa) = 49.96012 50.49175 50.22593
# Shear Modulus (GPa) = 17.21727 21.00768 19.11248
#
# Velocity S-wave (km/s) = 3.22459 3.56189 3.39743
# Velocity P-wave (km/s) = 6.63598 6.88545 6.76186
#
# Compressibility (1/GPa) = 0.02001596
#
# Stress axis : x y z
#
# Youngs Moduli (GPa) = 62.88740 62.88740 106.96893
#
# Poissons Ratio (x) = 0.41465 0.21255
# Poissons Ratio (y) = 0.41465 0.21255
# Poissons Ratio (z) = 0.12496 0.12496
#
# Static dielectric constant tensor:
#      x y z
#    x 3.023490 0.000000 0.000000 
#    y 0.000000 3.023490 0.000000 
#    z 0.000000 0.000000 3.390070 
# 
# 
# High freq. dielectric constant tensor:
#      x y z
#    x 1.629570 0.000000 0.000000 
#    y 0.000000 1.629570 0.000000 
#    z 0.000000 0.000000 1.644480 
# 
# From -- ./inp_files/6662.got.cif
#   From: 2010.03.12/outbox.cif.g09.slc.cpg/sg129_4_cif.got.tgz:6662.got - 2010.04.06 17:19:44.
