data_PCOD8315918
_publ_section_title
;
Structure prediction by ZEFSAII (Michael W. Deem and Ramdas Pophale) SiO2 
 PCOD8315918
Probable space group: P 42/M M C
;
_chemical_formula_sum "Si O2"
_cell_formula_units_Z 128
_cell_length_a 16.951719
_cell_length_b 16.951719
_cell_length_c 25.692621
_cell_angle_alpha 90.000000
_cell_angle_beta 90.000000
_cell_angle_gamma 90.000000
_cell_volume 7383.051535
_symmetry_space_group_name_H-M "P 42/M M C"
_symmetry_group_IT_number 131
_symmetry_cell_setting 'tetragonal'
loop_
_space_group_symop_operation_xyz
x,y,z
-x,-y,z
-y,x,1/2+z
y,-x,1/2+z
-x,y,-z
x,-y,-z
y,x,1/2-z
-y,-x,1/2-z
-x,-y,-z
x,y,-z
y,-x,1/2-z
-y,x,1/2-z
x,-y,z
-x,y,z
-y,-x,1/2+z
y,x,1/2+z
loop_
_atom_site_type_symbol
_atom_site_label
_atom_site_fract_x
_atom_site_fract_y
_atom_site_fract_z
Si Si1 0.836384 0.294736 0.057245
Si Si2 0.706212 0.410344 0.060797
Si Si3 0.711156 0.590287 0.392082
Si Si4 0.285544 0.590951 0.730278
Si Si5 0.910548 0.775790 0.650525
Si Si6 0.218931 0.089118 0.348549
Si Si7 0.301187 0.167624 0.942025
Si Si8 0.159116 0.291062 0.249392
O O1 0.793790 0.376662 0.072899
O O2 0.901730 0.270341 0.099022
O O3 0.767127 0.231501 0.056244
O O4 0.876320 0.300387 0.000000
O O5 0.705448 0.500000 0.079471
O O6 0.638434 0.366248 0.092366
O O7 0.687167 0.400576 0.000000
O O8 0.697432 0.500000 0.407647
O O9 0.723211 0.601742 0.331111
O O10 0.789548 0.620105 0.421516
O O11 0.362576 0.637425 0.750000
O O12 0.294531 0.500000 0.746952
O O13 0.203948 0.624976 0.754516
O O14 0.855918 0.853185 0.652383
O O15 0.900832 0.725950 0.597366
O O16 0.892402 0.717079 0.698340
O O17 0.000000 0.805852 0.654065
O O18 0.278262 0.104306 0.300717
O O19 0.186826 0.000000 0.345732
O O20 0.315960 0.132572 0.000000
O O21 0.225768 0.225768 0.250000
#
# Coordination Sequence:
#
# PCOD8315918 Si02
#       8
#    16  16  16  16  16  16  16  16
#     4   8  16  31  50  71  98 135 174 205 240 293
#     4   9  18  31  48  73 103 134 169 210 256 302
#     4  10  19  32  50  74 101 133 173 215 260 304
#     4  10  21  35  53  76 104 138 175 215 259 302
#     4  10  19  33  54  77 104 135 163 203 257 309
#     4  10  20  33  53  80 104 129 165 209 252 304
#     4   9  17  31  50  73 100 134 179 216 244 294
#     4   9  18  34  54  74  99 134 179 210 242 296
#
# _framework density 17.337005000000001
#
# number of rings (size 3 to 8) (size 9 to 14) (size 15 to 20)
#    0.000    2.625    1.250    1.500    5.250    2.625 
#    0.000    1.875    0.000    6.000    0.000    6.125 
#    0.000    0.000    0.000    0.000    0.000    0.000 
#
# Total GULP energy -1586835.636878 kJ/mol
# GULP energy per Si atom -12397.153413 kJ/mol
# Density = 1.729754 g / cm^3
# Si number density = 17.337005 Si / 1000 Ang^3
#
#
#
# Elastic Constant Matrix: (Units=GPa)
#
#
# Indices 1 2 3 4 5 6 
#
# 1 76.9571 59.4992 42.0267 0.0000 0.0000 0.0000
# 2 59.4992 76.9571 42.0256 0.0000 0.0000 0.0000
# 3 42.0267 42.0256 110.6569 0.0000 0.0000 0.0000
# 4 0.0000 0.0000 0.0000 19.2198 0.0000 0.0000
# 5 0.0000 0.0000 0.0000 0.0000 19.2197 0.0000
# 6 0.0000 0.0000 0.0000 0.0000 0.0000 16.2642
#
#
#
# Elastic Compliance Matrix: (Units=1/GPa)
#
#
# Indices 1 2 3 4 5 6 
#
# 1 0.033424 -0.023857 -0.003634 0.000000 0.000000 0.000000
# 2 -0.023857 0.033423 -0.003633 0.000000 0.000000 0.000000
# 3 -0.003634 -0.003633 0.011797 0.000000 0.000000 0.000000
# 4 0.000000 0.000000 0.000000 0.052030 0.000000 0.000000
# 5 0.000000 0.000000 0.000000 0.000000 0.052030 0.000000
# 6 0.000000 0.000000 0.000000 0.000000 0.000000 0.061485
#
#
# Mechanical properties :
#
#
# Convention : Reuss Voigt Hill
#
# Bulk Modulus (GPa) = 60.98865 61.29715 61.14290
# Shear Modulus (GPa) = 16.03077 19.00873 17.51975
#
# Velocity S-wave (km/s) = 3.04412 3.31482 3.18235
# Velocity P-wave (km/s) = 6.90001 7.07699 6.98906
#
# Compressibility (1/GPa) = 0.01639649
#
# Stress axis : x y z
#
# Youngs Moduli (GPa) = 29.91891 29.91932 84.77028
#
# Poissons Ratio (x) = 0.71379 0.30801
# Poissons Ratio (y) = 0.71378 0.30795
# Poissons Ratio (z) = 0.10871 0.10869
#
# Static dielectric constant tensor:
#      x y z
#    x 3.090520 0.000000 0.000000 
#    y 0.000000 3.090520 0.000000 
#    z 0.000000 0.000000 3.596000 
# 
# 
# High freq. dielectric constant tensor:
#      x y z
#    x 1.647820 0.000000 0.000000 
#    y 0.000000 1.647820 0.000000 
#    z 0.000000 0.000000 1.685810 
# 
# From -- ./inp_files/11506.got.cif
#   From: 2010.03.12/outbox.cif.g09.slc.cpg/sg131_6_cif.got.tgz:11506.got - 2010.04.06 17:36:35.
