data_PCOD8315726
_publ_section_title
;
Structure prediction by ZEFSAII (Michael W. Deem and Ramdas Pophale) SiO2 
 PCOD8315726
Probable space group: P 42/M M C
;
_chemical_formula_sum "Si O2"
_cell_formula_units_Z 42
_cell_length_a 17.253871
_cell_length_b 17.253871
_cell_length_c 9.600456
_cell_angle_alpha 90.000000
_cell_angle_beta 90.000000
_cell_angle_gamma 90.000000
_cell_volume 2858.017968
_symmetry_space_group_name_H-M "P 42/M M C"
_symmetry_group_IT_number 131
_symmetry_cell_setting 'tetragonal'
loop_
_space_group_symop_operation_xyz
x,y,z
-x,-y,z
-y,x,1/2+z
y,-x,1/2+z
-x,y,-z
x,-y,-z
y,x,1/2-z
-y,-x,1/2-z
-x,-y,-z
x,y,-z
y,-x,1/2-z
-y,x,1/2-z
x,-y,z
-x,y,z
-y,-x,1/2+z
y,x,1/2+z
loop_
_atom_site_type_symbol
_atom_site_label
_atom_site_fract_x
_atom_site_fract_y
_atom_site_fract_z
Si Si1 0.000000 0.170599 0.656555
Si Si2 0.086538 0.584418 0.664856
Si Si3 0.255560 0.848326 0.834194
Si Si4 0.000000 0.000000 0.250000
O O1 0.922311 0.206468 0.723605
O O2 0.000000 0.201332 0.500000
O O3 0.000000 0.077308 0.657304
O O4 0.080855 0.585446 0.500000
O O5 0.118660 0.500000 0.715322
O O6 0.141677 0.654732 0.711772
O O7 0.000000 0.597376 0.725498
O O8 0.226300 0.773701 0.750000
O O9 0.245355 0.836001 0.000000
#
# Coordination Sequence:
#
# PCOD8315726 Si02
#       4
#     8  16  16   2
#     4  10  19  27  36  52  76 106 139 174 202 228
#     4   8  13  23  42  63  79  99 133 176 213 241
#     4  10  18  29  42  59  82 106 136 171 206 240
#     4  12  18  28  36  46  76 112 146 172 198 220
#
# _framework density 14.695498000000001
#
# number of rings (size 3 to 8) (size 9 to 14) (size 15 to 20)
#    0.000    2.667    3.810    1.429    0.000    0.000 
#    0.000    0.952    0.000    1.143    0.000    2.667 
#    0.000    0.762    0.000    9.524    0.000    0.000 
#
# Total GULP energy -520325.838714 kJ/mol
# GULP energy per Si atom -12388.710446 kJ/mol
# Density = 1.466205 g / cm^3
# Si number density = 14.695498 Si / 1000 Ang^3
#
#
#
# Elastic Constant Matrix: (Units=GPa)
#
#
# Indices 1 2 3 4 5 6 
#
# 1 118.4972 59.6636 22.8110 0.0000 0.0000 0.0000
# 2 59.6636 118.4989 22.8111 0.0000 0.0000 0.0000
# 3 22.8110 22.8111 23.7463 0.0000 0.0000 0.0000
# 4 0.0000 0.0000 0.0000 13.1789 0.0000 0.0000
# 5 0.0000 0.0000 0.0000 0.0000 13.1786 0.0000
# 6 0.0000 0.0000 0.0000 0.0000 0.0000 16.7908
#
#
#
# Elastic Compliance Matrix: (Units=1/GPa)
#
#
# Indices 1 2 3 4 5 6 
#
# 1 0.012221 -0.004776 -0.007151 0.000000 0.000000 0.000000
# 2 -0.004776 0.012220 -0.007151 0.000000 0.000000 0.000000
# 3 -0.007151 -0.007151 0.055850 0.000000 0.000000 0.000000
# 4 0.000000 0.000000 0.000000 0.075879 0.000000 0.000000
# 5 0.000000 0.000000 0.000000 0.000000 0.075881 0.000000
# 6 0.000000 0.000000 0.000000 0.000000 0.000000 0.059557
#
#
# Mechanical properties :
#
#
# Convention : Reuss Voigt Hill
#
# Bulk Modulus (GPa) = 23.73331 52.36820 38.05076
# Shear Modulus (GPa) = 14.54299 18.99342 16.76821
#
# Velocity S-wave (km/s) = 3.14924 3.59899 3.38160
# Velocity P-wave (km/s) = 5.42298 7.27895 6.41841
#
# Compressibility (1/GPa) = 0.04213487
#
# Stress axis : x y z
#
# Youngs Moduli (GPa) = 81.82964 81.83084 17.90505
#
# Poissons Ratio (x) = 0.39086 0.12804
# Poissons Ratio (y) = 0.39085 0.12804
# Poissons Ratio (z) = 0.58515 0.58515
#
# Static dielectric constant tensor:
#      x y z
#    x 2.991920 0.000000 0.000000 
#    y 0.000000 2.991920 0.000000 
#    z 0.000000 0.000000 2.380200 
# 
# 
# High freq. dielectric constant tensor:
#      x y z
#    x 1.549950 0.000000 0.000000 
#    y 0.000000 1.549950 0.000000 
#    z 0.000000 0.000000 1.514300 
# 
# From -- ./inp_files/921.got.cif
#   From: 2010.03.12/outbox.cif.g09.slc.cpg/sg131_1_cif.got.tgz:921.got - 2010.04.06 17:36:35.
