data_PCOD8315256
_publ_section_title
;
Structure prediction by ZEFSAII (Michael W. Deem and Ramdas Pophale) SiO2 
 PCOD8315256
Probable space group: P 4/N M M
;
_chemical_formula_sum "Si O2"
_cell_formula_units_Z 80
_cell_length_a 13.105392
_cell_length_b 13.105392
_cell_length_c 25.818999
_cell_angle_alpha 90.000000
_cell_angle_beta 90.000000
_cell_angle_gamma 90.000000
_cell_volume 4434.446629
_symmetry_space_group_name_H-M "P 4/N M M"
_symmetry_group_IT_number 129
_symmetry_cell_setting 'tetragonal'
loop_
_space_group_symop_operation_xyz
x,y,z
1/2-y,x,z
1/2-x,1/2-y,z
y,1/2-x,z
1/2+x,-y,-z
-x,1/2+y,-z
1/2+y,1/2+x,-z
-y,-x,-z
-x,-y,-z
1/2+y,-x,-z
1/2+x,1/2+y,-z
-y,1/2+x,-z
1/2-x,y,z
x,1/2-y,z
1/2-y,1/2-x,z
y,x,z
loop_
_atom_site_type_symbol
_atom_site_label
_atom_site_fract_x
_atom_site_fract_y
_atom_site_fract_z
Si Si1 0.368476 0.964456 0.352557
Si Si2 0.030748 0.869692 0.840399
Si Si3 0.631756 0.035747 0.450692
Si Si4 0.867936 0.035393 0.254016
Si Si5 0.362960 0.628659 0.943812
O O1 0.250000 0.992257 0.355155
O O2 0.398594 0.891744 0.399878
O O3 0.391635 0.904344 0.300023
O O4 0.429358 0.070643 0.355367
O O5 0.012192 0.750000 0.837703
O O6 0.116252 0.903220 0.799346
O O7 0.064991 0.907415 0.897277
O O8 0.924032 0.924032 0.826659
O O9 0.603883 0.103883 0.500000
O O10 0.750000 0.006509 0.452106
O O11 0.570035 0.929966 0.450719
O O12 0.750000 0.007722 0.260621
O O13 0.929283 0.929283 0.254474
O O14 0.250000 0.582363 0.934752
O O15 0.355192 0.750000 0.944343
O O16 0.407050 0.592950 0.000000
#
# Coordination Sequence:
#
# PCOD8315256 Si02
#       5
#    16  16  16  16  16
#     4  10  21  36  54  78 106 136 172 210 248 293
#     4  10  20  32  47  69  96 128 166 204 243 288
#     4  10  21  36  54  78 106 136 173 214 256 305
#     4  10  21  36  54  77 102 128 161 200 244 296
#     4   8  14  26  45  68  92 118 152 197 246 292
#
# _framework density 18.040582000000001
#
# number of rings (size 3 to 8) (size 9 to 14) (size 15 to 20)
#    0.000    2.400    0.000    3.000    0.000    5.800 
#    0.000    0.000    0.000   10.800    0.000    0.000 
#    0.000    4.800    0.000    0.000    0.000    0.000 
#
# Total GULP energy -992009.962965 kJ/mol
# GULP energy per Si atom -12400.124537 kJ/mol
# Density = 1.799952 g / cm^3
# Si number density = 18.040582 Si / 1000 Ang^3
#
#
#
# Elastic Constant Matrix: (Units=GPa)
#
#
# Indices 1 2 3 4 5 6 
#
# 1 114.0388 43.4313 40.1384 0.0000 0.0000 0.0000
# 2 43.4313 114.0388 40.1384 0.0000 0.0000 0.0000
# 3 40.1384 40.1384 129.0188 0.0000 0.0000 0.0000
# 4 0.0000 0.0000 0.0000 4.1469 0.0000 0.0000
# 5 0.0000 0.0000 0.0000 0.0000 4.1469 0.0000
# 6 0.0000 0.0000 0.0000 0.0000 0.0000 12.0566
#
#
#
# Elastic Compliance Matrix: (Units=1/GPa)
#
#
# Indices 1 2 3 4 5 6 
#
# 1 0.010855 -0.003308 -0.002348 0.000000 0.000000 0.000000
# 2 -0.003308 0.010855 -0.002348 0.000000 0.000000 0.000000
# 3 -0.002348 -0.002348 0.009212 0.000000 0.000000 0.000000
# 4 0.000000 0.000000 0.000000 0.241144 0.000000 0.000000
# 5 0.000000 0.000000 0.000000 0.000000 0.241144 0.000000
# 6 0.000000 0.000000 0.000000 0.000000 0.000000 0.082942
#
#
# Mechanical properties :
#
#
# Convention : Reuss Voigt Hill
#
# Bulk Modulus (GPa) = 67.04901 67.16806 67.10854
# Shear Modulus (GPa) = 8.10200 19.62930 13.86565
#
# Velocity S-wave (km/s) = 2.12149 3.30216 2.77534
# Velocity P-wave (km/s) = 6.57627 7.20080 6.89561
#
# Compressibility (1/GPa) = 0.01491446
#
# Stress axis : x y z
#
# Youngs Moduli (GPa) = 92.12246 92.12246 108.55660
#
# Poissons Ratio (x) = 0.30471 0.25490
# Poissons Ratio (y) = 0.30471 0.25490
# Poissons Ratio (z) = 0.21631 0.21631
#
# Static dielectric constant tensor:
#      x y z
#    x 3.106990 0.000000 0.000000 
#    y 0.000000 3.106990 0.000000 
#    z 0.000000 0.000000 3.742960 
# 
# 
# High freq. dielectric constant tensor:
#      x y z
#    x 1.684210 0.000000 0.000000 
#    y 0.000000 1.684210 0.000000 
#    z 0.000000 0.000000 1.724620 
# 
# From -- ./inp_files/7686.got.cif
#   From: 2010.03.12/outbox.cif.g09.slc.cpg/sg129_4_cif.got.tgz:7686.got - 2010.04.06 17:19:44.
