data_PCOD8315987
_publ_section_title
;
Structure prediction by ZEFSAII (Michael W. Deem and Ramdas Pophale) SiO2 
 PCOD8315987
Probable space group: P 42/M M C
;
_chemical_formula_sum "Si O2"
_cell_formula_units_Z 96
_cell_length_a 23.324147
_cell_length_b 23.324147
_cell_length_c 9.156047
_cell_angle_alpha 90.000000
_cell_angle_beta 90.000000
_cell_angle_gamma 90.000000
_cell_volume 4981.034538
_symmetry_space_group_name_H-M "P 42/M M C"
_symmetry_group_IT_number 131
_symmetry_cell_setting 'tetragonal'
loop_
_space_group_symop_operation_xyz
x,y,z
-x,-y,z
-y,x,1/2+z
y,-x,1/2+z
-x,y,-z
x,-y,-z
y,x,1/2-z
-y,-x,1/2-z
-x,-y,-z
x,y,-z
y,-x,1/2-z
-y,x,1/2-z
x,-y,z
-x,y,z
-y,-x,1/2+z
y,x,1/2+z
loop_
_atom_site_type_symbol
_atom_site_label
_atom_site_fract_x
_atom_site_fract_y
_atom_site_fract_z
Si Si1 0.260560 0.812697 0.660252
Si Si2 0.903911 0.832602 0.159130
Si Si3 0.567334 0.347745 0.328524
Si Si4 0.000000 0.361339 0.660150
Si Si5 0.773908 0.000000 0.162001
Si Si6 0.874438 0.359728 0.326228
Si Si7 0.433290 0.233914 0.833408
O O1 0.246009 0.753992 0.750000
O O2 0.286560 0.796820 0.500000
O O3 0.201156 0.845086 0.633839
O O4 0.301876 0.854468 0.749623
O O5 0.890668 0.890668 0.250000
O O6 0.944943 0.792780 0.250742
O O7 0.930173 0.848438 0.000000
O O8 0.601037 0.398964 0.250000
O O9 0.580090 0.349605 0.500000
O O10 0.500000 0.356332 0.294565
O O11 0.588887 0.286310 0.266661
O O12 0.000000 0.293563 0.650240
O O13 0.938383 0.378961 0.734117
O O14 0.000000 0.389753 0.500000
O O15 0.801139 0.000000 0.000000
O O16 0.878848 0.348835 0.500000
O O17 0.826812 0.406766 0.285254
O O18 0.500000 0.225493 0.811939
O O19 0.416889 0.248788 0.000000
#
# Coordination Sequence:
#
# PCOD8315987 Si02
#       7
#    16  16  16   8   8  16  16
#     4  10  20  32  48  72 103 135 169 208 256 313
#     4  10  20  33  49  72 101 132 168 208 251 305
#     4  10  21  37  59  87 119 155 194 235 279 329
#     4   9  18  31  50  77 105 134 171 217 272 331
#     4  11  19  31  53  75 102 137 170 210 261 317
#     4  10  19  34  54  76 105 140 178 223 276 330
#     4   9  19  36  57  79 106 144 188 231 274 323
#
# _framework density 19.273105000000001
#
# number of rings (size 3 to 8) (size 9 to 14) (size 15 to 20)
#    0.000    2.167    1.667    1.750    0.000    3.833 
#    0.000    1.667    0.000    2.750    0.000    1.750 
#    0.000    4.000    0.000    0.000    0.000    0.000 
#
# Total GULP energy -1189528.638556 kJ/mol
# GULP energy per Si atom -12390.923318 kJ/mol
# Density = 1.922924 g / cm^3
# Si number density = 19.273105 Si / 1000 Ang^3
#
#
#
# Elastic Constant Matrix: (Units=GPa)
#
#
# Indices 1 2 3 4 5 6 
#
# 1 82.2874 52.3305 42.9135 0.0000 0.0000 0.0000
# 2 52.3305 82.2831 42.9139 0.0000 0.0000 0.0000
# 3 42.9135 42.9139 116.4601 0.0000 0.0000 0.0000
# 4 0.0000 0.0000 0.0000 36.0582 0.0000 0.0000
# 5 0.0000 0.0000 0.0000 0.0000 36.0585 0.0000
# 6 0.0000 0.0000 0.0000 0.0000 0.0000 58.3156
#
#
#
# Elastic Compliance Matrix: (Units=1/GPa)
#
#
# Indices 1 2 3 4 5 6 
#
# 1 0.021546 -0.011837 -0.003578 0.000000 0.000000 0.000000
# 2 -0.011837 0.021547 -0.003578 0.000000 0.000000 0.000000
# 3 -0.003578 -0.003578 0.011223 0.000000 0.000000 0.000000
# 4 0.000000 0.000000 0.000000 0.027733 0.000000 0.000000
# 5 0.000000 0.000000 0.000000 0.000000 0.027733 0.000000
# 6 0.000000 0.000000 0.000000 0.000000 0.000000 0.017148
#
#
# Mechanical properties :
#
#
# Convention : Reuss Voigt Hill
#
# Bulk Modulus (GPa) = 61.23199 61.92738 61.57969
# Shear Modulus (GPa) = 29.34965 35.61131 32.48048
#
# Velocity S-wave (km/s) = 3.90658 4.30318 4.10966
# Velocity P-wave (km/s) = 7.22414 7.54261 7.38509
#
# Compressibility (1/GPa) = 0.01633133
#
# Stress axis : x y z
#
# Youngs Moduli (GPa) = 46.41242 46.40923 89.09950
#
# Poissons Ratio (x) = 0.54935 0.31876
# Poissons Ratio (y) = 0.54938 0.31882
# Poissons Ratio (z) = 0.16604 0.16606
#
# Static dielectric constant tensor:
#      x y z
#    x 3.384120 0.000000 0.000000 
#    y 0.000000 3.384100 0.000000 
#    z 0.000000 0.000000 3.836660 
# 
# 
# High freq. dielectric constant tensor:
#      x y z
#    x 1.735680 0.000000 0.000000 
#    y 0.000000 1.735680 0.000000 
#    z 0.000000 0.000000 1.751370 
# 
# From -- ./inp_files/2305.got.cif
#   From: 2010.03.12/outbox.cif.g09.slc.cpg/sg131_2_cif.got.tgz:2305.got - 2010.04.06 17:36:35.
