data_PCOD8315387
_publ_section_title
;
Structure prediction by ZEFSAII (Michael W. Deem and Ramdas Pophale) SiO2 
 PCOD8315387
Probable space group: P 4/N M M
;
_chemical_formula_sum "Si O2"
_cell_formula_units_Z 96
_cell_length_a 21.986628
_cell_length_b 21.986628
_cell_length_c 11.347444
_cell_angle_alpha 90.000000
_cell_angle_beta 90.000000
_cell_angle_gamma 90.000000
_cell_volume 5485.488452
_symmetry_space_group_name_H-M "P 4/N M M"
_symmetry_group_IT_number 129
_symmetry_cell_setting 'tetragonal'
loop_
_space_group_symop_operation_xyz
x,y,z
1/2-y,x,z
1/2-x,1/2-y,z
y,1/2-x,z
1/2+x,-y,-z
-x,1/2+y,-z
1/2+y,1/2+x,-z
-y,-x,-z
-x,-y,-z
1/2+y,-x,-z
1/2+x,1/2+y,-z
-y,1/2+x,-z
1/2-x,y,z
x,1/2-y,z
1/2-y,1/2-x,z
y,x,z
loop_
_atom_site_type_symbol
_atom_site_label
_atom_site_fract_x
_atom_site_fract_y
_atom_site_fract_z
Si Si1 0.458570 0.679948 0.478255
Si Si2 0.085618 0.182590 0.411643
Si Si3 0.017904 0.916764 0.899744
Si Si4 0.821600 0.578803 0.861865
Si Si5 0.101208 0.888653 0.692129
Si Si6 0.321898 0.816779 0.128259
O O1 0.439411 0.750000 0.462974
O O2 0.529879 0.672750 0.500410
O O3 0.423374 0.652691 0.588265
O O4 0.442465 0.643220 0.359617
O O5 0.112577 0.250000 0.424859
O O6 0.137230 0.137230 0.453993
O O7 0.065623 0.172157 0.276946
O O8 0.048391 0.917540 0.771030
O O9 0.980269 0.853489 0.923719
O O10 0.068819 0.931182 0.000000
O O11 0.970287 0.970287 0.896106
O O12 0.750000 0.584387 0.899748
O O13 0.858415 0.641586 0.893255
O O14 0.138725 0.843234 0.772005
O O15 0.250000 0.812672 0.130192
O O16 0.349999 0.750000 0.150844
O O17 0.342178 0.842178 0.000000
#
# Coordination Sequence:
#
# PCOD8315387 Si02
#       6
#    16  16  16  16  16  16
#     4  10  21  33  47  71 102 132 168 214 254 301
#     4   9  17  31  50  73 101 129 160 200 248 302
#     4  10  21  36  52  75 106 137 175 220 262 313
#     4   9  17  31  52  77 106 137 169 211 264 317
#     4  11  20  32  51  70  94 135 175 206 253 310
#     4   9  18  32  49  69  93 121 159 211 261 302
#
# _framework density 17.500720000000001
#
# number of rings (size 3 to 8) (size 9 to 14) (size 15 to 20)
#    0.000    2.333    1.667    2.000    0.000    1.667 
#    0.000    5.000    0.000    4.000    0.000    0.000 
#    0.000    0.000    0.000    5.000    0.000    0.333 
#
# Total GULP energy -1189890.760840 kJ/mol
# GULP energy per Si atom -12394.695425 kJ/mol
# Density = 1.746089 g / cm^3
# Si number density = 17.500720 Si / 1000 Ang^3
#
#
#
# Elastic Constant Matrix: (Units=GPa)
#
#
# Indices 1 2 3 4 5 6 
#
# 1 93.3136 58.4416 35.0462 0.0000 0.0000 0.0000
# 2 58.4416 93.3146 35.0461 0.0000 0.0000 0.0000
# 3 35.0462 35.0461 66.1364 0.0000 0.0000 0.0000
# 4 0.0000 0.0000 0.0000 20.8619 0.0000 0.0000
# 5 0.0000 0.0000 0.0000 0.0000 20.8619 0.0000
# 6 0.0000 0.0000 0.0000 0.0000 0.0000 26.7772
#
#
#
# Elastic Compliance Matrix: (Units=1/GPa)
#
#
# Indices 1 2 3 4 5 6 
#
# 1 0.018701 -0.009975 -0.004624 0.000000 0.000000 0.000000
# 2 -0.009975 0.018700 -0.004623 0.000000 0.000000 0.000000
# 3 -0.004624 -0.004623 0.020020 0.000000 0.000000 0.000000
# 4 0.000000 0.000000 0.000000 0.047934 0.000000 0.000000
# 5 0.000000 0.000000 0.000000 0.000000 0.047934 0.000000
# 6 0.000000 0.000000 0.000000 0.000000 0.000000 0.037345
#
#
# Mechanical properties :
#
#
# Convention : Reuss Voigt Hill
#
# Bulk Modulus (GPa) = 52.69678 56.64804 54.67241
# Shear Modulus (GPa) = 21.23999 21.98224 21.61111
#
# Velocity S-wave (km/s) = 3.48755 3.54796 3.51788
# Velocity P-wave (km/s) = 6.81131 7.01593 6.91438
#
# Compressibility (1/GPa) = 0.01897649
#
# Stress axis : x y z
#
# Youngs Moduli (GPa) = 53.47423 53.47500 49.94951
#
# Poissons Ratio (x) = 0.53344 0.23094
# Poissons Ratio (y) = 0.53343 0.23093
# Poissons Ratio (z) = 0.24724 0.24723
#
# Static dielectric constant tensor:
#      x y z
#    x 3.297630 0.000000 0.000000 
#    y 0.000000 3.297590 0.000000 
#    z 0.000000 0.000000 3.523230 
# 
# 
# High freq. dielectric constant tensor:
#      x y z
#    x 1.681030 0.000000 0.000000 
#    y 0.000000 1.681030 0.000000 
#    z 0.000000 0.000000 1.652290 
# 
# From -- ./inp_files/3897.got.cif
#   From: 2010.03.12/outbox.cif.g09.slc.cpg/sg129_2_cif.got.tgz:3897.got - 2010.04.06 17:19:44.
