data_PCOD8315776
_publ_section_title
;
Structure prediction by ZEFSAII (Michael W. Deem and Ramdas Pophale) SiO2 
 PCOD8315776
Probable space group: P 42/M M C
;
_chemical_formula_sum "Si O2"
_cell_formula_units_Z 96
_cell_length_a 21.411974
_cell_length_b 21.411974
_cell_length_c 13.165311
_cell_angle_alpha 90.000000
_cell_angle_beta 90.000000
_cell_angle_gamma 90.000000
_cell_volume 6035.934767
_symmetry_space_group_name_H-M "P 42/M M C"
_symmetry_group_IT_number 131
_symmetry_cell_setting 'tetragonal'
loop_
_space_group_symop_operation_xyz
x,y,z
-x,-y,z
-y,x,1/2+z
y,-x,1/2+z
-x,y,-z
x,-y,-z
y,x,1/2-z
-y,-x,1/2-z
-x,-y,-z
x,y,-z
y,-x,1/2-z
-y,x,1/2-z
x,-y,z
-x,y,z
-y,-x,1/2+z
y,x,1/2+z
loop_
_atom_site_type_symbol
_atom_site_label
_atom_site_fract_x
_atom_site_fract_y
_atom_site_fract_z
Si Si1 0.680835 0.070282 0.118837
Si Si2 0.569351 0.299355 0.686573
Si Si3 0.192837 0.717632 0.286956
Si Si4 0.176767 0.617968 0.884339
Si Si5 0.430523 0.929998 0.263315
Si Si6 0.696997 0.638953 0.616783
O O1 0.726173 0.126447 0.155147
O O2 0.613891 0.084841 0.168224
O O3 0.705110 0.000000 0.148941
O O4 0.671523 0.074693 0.000000
O O5 0.500000 0.329186 0.667386
O O6 0.567723 0.230505 0.639076
O O7 0.579862 0.295473 0.808516
O O8 0.626584 0.335332 0.632925
O O9 0.213628 0.786373 0.250000
O O10 0.184811 0.678028 0.185475
O O11 0.248955 0.689264 0.356388
O O12 0.111433 0.584692 0.861178
O O13 0.178647 0.640620 0.000000
O O14 0.500000 0.917189 0.222839
O O15 0.421757 0.000000 0.302466
O O16 0.704731 0.618105 0.500000
#
# Coordination Sequence:
#
# PCOD8315776 Si02
#       6
#    16  16  16  16  16  16
#     4   9  18  31  48  70  96 126 159 200 245 284
#     4  10  20  32  46  69  93 113 145 196 243 286
#     4  10  18  32  49  71  94 123 157 201 237 283
#     4  10  19  30  44  63  88 118 154 194 238 282
#     4   9  18  30  42  60  89 125 165 200 229 271
#     4  10  19  33  50  69  90 119 155 191 238 294
#
# _framework density 15.904744000000001
#
# number of rings (size 3 to 8) (size 9 to 14) (size 15 to 20)
#    0.000    2.333    3.333    1.500    0.000    4.000 
#    0.000    2.500    0.000   10.000    0.000    4.667 
#    0.000    0.333    0.000    1.833    0.000    0.000 
#
# Total GULP energy -1189515.629855 kJ/mol
# GULP energy per Si atom -12390.787811 kJ/mol
# Density = 1.586854 g / cm^3
# Si number density = 15.904744 Si / 1000 Ang^3
#
#
#
# Elastic Constant Matrix: (Units=GPa)
#
#
# Indices 1 2 3 4 5 6 
#
# 1 88.0218 31.7971 25.2035 0.0000 0.0000 0.0000
# 2 31.7971 88.0205 25.2034 0.0000 0.0000 0.0000
# 3 25.2035 25.2034 104.0790 0.0000 0.0000 0.0000
# 4 0.0000 0.0000 0.0000 14.0341 0.0000 0.0000
# 5 0.0000 0.0000 0.0000 0.0000 14.0338 0.0000
# 6 0.0000 0.0000 0.0000 0.0000 0.0000 18.0979
#
#
#
# Elastic Compliance Matrix: (Units=1/GPa)
#
#
# Indices 1 2 3 4 5 6 
#
# 1 0.013539 -0.004247 -0.002250 0.000000 0.000000 0.000000
# 2 -0.004247 0.013539 -0.002250 0.000000 0.000000 0.000000
# 3 -0.002250 -0.002250 0.010698 0.000000 0.000000 0.000000
# 4 0.000000 0.000000 0.000000 0.071255 0.000000 0.000000
# 5 0.000000 0.000000 0.000000 0.000000 0.071256 0.000000
# 6 0.000000 0.000000 0.000000 0.000000 0.000000 0.055255
#
#
# Mechanical properties :
#
#
# Convention : Reuss Voigt Hill
#
# Bulk Modulus (GPa) = 49.30453 49.39215 49.34834
# Shear Modulus (GPa) = 19.24570 22.42764 20.83667
#
# Velocity S-wave (km/s) = 3.48237 3.75923 3.62345
# Velocity P-wave (km/s) = 6.87287 7.06858 6.97141
#
# Compressibility (1/GPa) = 0.02028211
#
# Stress axis : x y z
#
# Youngs Moduli (GPa) = 73.85943 73.85836 93.47600
#
# Poissons Ratio (x) = 0.31365 0.21035
# Poissons Ratio (y) = 0.31366 0.21035
# Poissons Ratio (z) = 0.16620 0.16620
#
# Static dielectric constant tensor:
#      x y z
#    x 3.072820 0.000000 0.000000 
#    y 0.000000 3.072820 0.000000 
#    z 0.000000 0.000000 3.012710 
# 
# 
# High freq. dielectric constant tensor:
#      x y z
#    x 1.591910 0.000000 0.000000 
#    y 0.000000 1.591910 0.000000 
#    z 0.000000 0.000000 1.614330 
# 
# From -- ./inp_files/4304.got.cif
#   From: 2010.03.12/outbox.cif.g09.slc.cpg/sg131_3_cif.got.tgz:4304.got - 2010.04.06 17:36:35.
