data_PCOD8315285
_publ_section_title
;
Structure prediction by ZEFSAII (Michael W. Deem and Ramdas Pophale) SiO2 
 PCOD8315285
Probable space group: P 4/N M M
;
_chemical_formula_sum "Si O2"
_cell_formula_units_Z 80
_cell_length_a 13.676105
_cell_length_b 13.676105
_cell_length_c 25.041830
_cell_angle_alpha 90.000000
_cell_angle_beta 90.000000
_cell_angle_gamma 90.000000
_cell_volume 4683.719909
_symmetry_space_group_name_H-M "P 4/N M M"
_symmetry_group_IT_number 129
_symmetry_cell_setting 'tetragonal'
loop_
_space_group_symop_operation_xyz
x,y,z
1/2-y,x,z
1/2-x,1/2-y,z
y,1/2-x,z
1/2+x,-y,-z
-x,1/2+y,-z
1/2+y,1/2+x,-z
-y,-x,-z
-x,-y,-z
1/2+y,-x,-z
1/2+x,1/2+y,-z
-y,1/2+x,-z
1/2-x,y,z
x,1/2-y,z
1/2-y,1/2-x,z
y,x,z
loop_
_atom_site_type_symbol
_atom_site_label
_atom_site_fract_x
_atom_site_fract_y
_atom_site_fract_z
Si Si1 0.520640 0.362417 0.839283
Si Si2 0.019297 0.861096 0.038510
Si Si3 0.022492 0.636178 0.756116
Si Si4 0.135451 0.523639 0.544034
Si Si5 0.638205 0.137882 0.650439
O O1 0.500074 0.250000 0.825247
O O2 0.420733 0.420733 0.827026
O O3 0.553394 0.376074 0.900542
O O4 0.608472 0.403007 0.803315
O O5 0.991209 0.750000 0.026772
O O6 0.107647 0.892354 0.000000
O O7 0.923006 0.923006 0.025048
O O8 0.998612 0.750000 0.760031
O O9 0.071049 0.607704 0.699973
O O10 0.920930 0.579071 0.762347
O O11 0.101495 0.601495 0.500000
O O12 0.250000 0.502711 0.536914
O O13 0.110625 0.568633 0.601502
O O14 0.078594 0.421407 0.537276
O O15 0.750000 0.118301 0.633207
O O16 0.624031 0.250000 0.667806
#
# Coordination Sequence:
#
# PCOD8315285 Si02
#       5
#    16  16  16  16  16
#     4   9  18  32  50  72  96 122 153 191 236 284
#     4   9  18  32  49  70  96 124 155 192 233 278
#     4  10  20  33  49  69  95 127 162 199 236 275
#     4  10  20  33  50  72  98 128 161 197 237 281
#     4   9  17  30  50  74  96 120 154 195 237 282
#
# _framework density 17.080441
#
# number of rings (size 3 to 8) (size 9 to 14) (size 15 to 20)
#    0.000    2.600    0.000    1.800    0.000    4.000 
#    0.000    4.000    0.000    0.000    0.000   11.200 
#    0.000    0.000    0.000    0.000    0.000    0.000 
#
# Total GULP energy -992169.749558 kJ/mol
# GULP energy per Si atom -12402.121869 kJ/mol
# Density = 1.704156 g / cm^3
# Si number density = 17.080441 Si / 1000 Ang^3
#
#
#
# Elastic Constant Matrix: (Units=GPa)
#
#
# Indices 1 2 3 4 5 6 
#
# 1 99.0627 48.7110 56.6810 0.0000 0.0000 0.0000
# 2 48.7110 99.0676 56.6810 0.0000 0.0000 0.0000
# 3 56.6810 56.6810 94.1438 0.0000 0.0000 0.0000
# 4 0.0000 0.0000 0.0000 27.7371 0.0000 0.0000
# 5 0.0000 0.0000 0.0000 0.0000 27.7370 0.0000
# 6 0.0000 0.0000 0.0000 0.0000 0.0000 16.4183
#
#
#
# Elastic Compliance Matrix: (Units=1/GPa)
#
#
# Indices 1 2 3 4 5 6 
#
# 1 0.016218 -0.003642 -0.007571 0.000000 0.000000 0.000000
# 2 -0.003642 0.016216 -0.007570 0.000000 0.000000 0.000000
# 3 -0.007571 -0.007570 0.019738 0.000000 0.000000 0.000000
# 4 0.000000 0.000000 0.000000 0.036053 0.000000 0.000000
# 5 0.000000 0.000000 0.000000 0.000000 0.036053 0.000000
# 6 0.000000 0.000000 0.000000 0.000000 0.000000 0.060908
#
#
# Mechanical properties :
#
#
# Convention : Reuss Voigt Hill
#
# Bulk Modulus (GPa) = 68.47223 68.49112 68.48168
# Shear Modulus (GPa) = 21.96627 23.05857 22.51242
#
# Velocity S-wave (km/s) = 3.59004 3.67822 3.63440
# Velocity P-wave (km/s) = 7.57362 7.63055 7.60214
#
# Compressibility (1/GPa) = 0.01460446
#
# Stress axis : x y z
#
# Youngs Moduli (GPa) = 61.66121 61.66591 50.66277
#
# Poissons Ratio (x) = 0.22461 0.38358
# Poissons Ratio (y) = 0.22459 0.38354
# Poissons Ratio (z) = 0.46685 0.46684
#
# Static dielectric constant tensor:
#      x y z
#    x 3.105320 0.000000 0.000000 
#    y 0.000000 3.105320 0.000000 
#    z 0.000000 0.000000 3.302440 
# 
# 
# High freq. dielectric constant tensor:
#      x y z
#    x 1.654980 0.000000 0.000000 
#    y 0.000000 1.654980 0.000000 
#    z 0.000000 0.000000 1.668900 
# 
# From -- ./inp_files/6299.got.cif
#   From: 2010.03.12/outbox.cif.g09.slc.cpg/sg129_4_cif.got.tgz:6299.got - 2010.04.06 17:19:44.
