data_PCOD8315980
_publ_section_title
;
Structure prediction by ZEFSAII (Michael W. Deem and Ramdas Pophale) SiO2 
 PCOD8315980
Probable space group: P 42/M M C
;
_chemical_formula_sum "Si O2"
_cell_formula_units_Z 112
_cell_length_a 14.648928
_cell_length_b 14.648928
_cell_length_c 28.616098
_cell_angle_alpha 90.000000
_cell_angle_beta 90.000000
_cell_angle_gamma 90.000000
_cell_volume 6140.759706
_symmetry_space_group_name_H-M "P 42/M M C"
_symmetry_group_IT_number 131
_symmetry_cell_setting 'tetragonal'
loop_
_space_group_symop_operation_xyz
x,y,z
-x,-y,z
-y,x,1/2+z
y,-x,1/2+z
-x,y,-z
x,-y,-z
y,x,1/2-z
-y,-x,1/2-z
-x,-y,-z
x,y,-z
y,-x,1/2-z
-y,x,1/2-z
x,-y,z
-x,y,z
-y,-x,1/2+z
y,x,1/2+z
loop_
_atom_site_type_symbol
_atom_site_label
_atom_site_fract_x
_atom_site_fract_y
_atom_site_fract_z
Si Si1 0.897933 0.108522 0.198340
Si Si2 0.393384 0.392605 0.613443
Si Si3 0.602725 0.098523 0.180201
Si Si4 0.601058 0.100149 0.555510
Si Si5 0.274273 0.260121 0.444595
Si Si6 0.295425 0.605189 0.709663
Si Si7 0.102253 0.234594 0.384402
O O1 0.861017 0.138984 0.250000
O O2 0.831098 0.141455 0.156834
O O3 0.000000 0.147199 0.188841
O O4 0.900469 0.000000 0.199001
O O5 0.389166 0.500000 0.604840
O O6 0.500000 0.359939 0.611878
O O7 0.329575 0.347865 0.573807
O O8 0.345854 0.365346 0.662146
O O9 0.500000 0.108945 0.161682
O O10 0.626417 0.186917 0.210972
O O11 0.663273 0.096625 0.134317
O O12 0.615586 0.000000 0.207229
O O13 0.599136 0.104281 0.500000
O O14 0.500000 0.121678 0.574997
O O15 0.670809 0.173456 0.575383
O O16 0.632734 0.000000 0.572383
O O17 0.271175 0.267442 0.500000
O O18 0.171166 0.242183 0.427568
O O19 0.334117 0.665884 0.750000
O O20 0.316121 0.500000 0.720306
O O21 0.000000 0.202810 0.400697
#
# Coordination Sequence:
#
# PCOD8315980 Si02
#       7
#    16  16  16  16  16  16  16
#     4   8  15  30  53  80 108 136 169 214 268 326
#     4  10  21  37  56  81 111 139 172 218 277 341
#     4   9  18  34  55  76 103 141 182 219 256 308
#     4   8  15  30  52  74  95 125 169 219 270 327
#     4  11  22  35  52  76 105 141 187 233 278 323
#     4  10  19  33  56  84 112 143 177 214 265 332
#     4  10  20  34  52  76 106 142 183 225 273 325
#
# _framework density 18.238785
#
# number of rings (size 3 to 8) (size 9 to 14) (size 15 to 20)
#    0.000    2.571    1.429    1.714    0.000    3.286 
#    0.000    0.714    0.000    0.857    0.000    9.000 
#    0.000    0.000    0.000    0.000    0.000    0.000 
#
# Total GULP energy -1387658.809964 kJ/mol
# GULP energy per Si atom -12389.810803 kJ/mol
# Density = 1.819727 g / cm^3
# Si number density = 18.238785 Si / 1000 Ang^3
#
#
#
# Elastic Constant Matrix: (Units=GPa)
#
#
# Indices 1 2 3 4 5 6 
#
# 1 94.6975 54.6131 52.1759 0.0000 0.0000 0.0000
# 2 54.6131 94.7034 52.1732 0.0000 0.0000 0.0000
# 3 52.1759 52.1732 92.9501 0.0000 0.0000 0.0000
# 4 0.0000 0.0000 0.0000 24.1629 0.0000 0.0000
# 5 0.0000 0.0000 0.0000 0.0000 24.1638 0.0000
# 6 0.0000 0.0000 0.0000 0.0000 0.0000 22.8798
#
#
#
# Elastic Compliance Matrix: (Units=1/GPa)
#
#
# Indices 1 2 3 4 5 6 
#
# 1 0.017984 -0.006963 -0.006187 0.000000 0.000000 0.000000
# 2 -0.006963 0.017982 -0.006185 0.000000 0.000000 0.000000
# 3 -0.006187 -0.006185 0.017703 0.000000 0.000000 0.000000
# 4 0.000000 0.000000 0.000000 0.041386 0.000000 0.000000
# 5 0.000000 0.000000 0.000000 0.000000 0.041384 0.000000
# 6 0.000000 0.000000 0.000000 0.000000 0.000000 0.043707
#
#
# Mechanical properties :
#
#
# Convention : Reuss Voigt Hill
#
# Bulk Modulus (GPa) = 66.66642 66.69725 66.68184
# Shear Modulus (GPa) = 22.33993 22.46723 22.40358
#
# Velocity S-wave (km/s) = 3.50359 3.51356 3.50858
# Velocity P-wave (km/s) = 7.27999 7.28756 7.28377
#
# Compressibility (1/GPa) = 0.01500005
#
# Stress axis : x y z
#
# Youngs Moduli (GPa) = 55.60437 55.61200 56.48751
#
# Poissons Ratio (x) = 0.38720 0.34949
# Poissons Ratio (y) = 0.38715 0.34937
# Poissons Ratio (z) = 0.34402 0.34395
#
# Static dielectric constant tensor:
#      x y z
#    x 3.670190 0.000000 0.000000 
#    y 0.000000 3.670190 0.000000 
#    z 0.000000 0.000000 3.070120 
# 
# 
# High freq. dielectric constant tensor:
#      x y z
#    x 1.714830 0.000000 0.000000 
#    y 0.000000 1.714830 0.000000 
#    z 0.000000 0.000000 1.667220 
# 
# From -- ./inp_files/11313.got.cif
#   From: 2010.03.12/outbox.cif.g09.slc.cpg/sg131_6_cif.got.tgz:11313.got - 2010.04.06 17:36:35.
