data_PCOD8315530
_publ_section_title
;
Structure prediction by ZEFSAII (Michael W. Deem and Ramdas Pophale) SiO2 
 PCOD8315530
Probable space group: P 4/N C C
;
_chemical_formula_sum "Si O2"
_cell_formula_units_Z 64
_cell_length_a 25.635609
_cell_length_b 25.635609
_cell_length_c 4.974439
_cell_angle_alpha 90.000000
_cell_angle_beta 90.000000
_cell_angle_gamma 90.000000
_cell_volume 3269.123952
_symmetry_space_group_name_H-M "P 4/N C C"
_symmetry_group_IT_number 130
_symmetry_cell_setting 'tetragonal'
loop_
_space_group_symop_operation_xyz
x,y,z
1/2-y,x,z
1/2-x,1/2-y,z
y,1/2-x,z
1/2+x,-y,1/2-z
-x,1/2+y,1/2-z
1/2+y,1/2+x,1/2-z
-y,-x,1/2-z
-x,-y,-z
1/2+y,-x,-z
1/2+x,1/2+y,-z
-y,1/2+x,-z
1/2-x,y,1/2+z
x,1/2-y,1/2+z
1/2-y,1/2-x,1/2+z
y,x,1/2+z
loop_
_atom_site_type_symbol
_atom_site_label
_atom_site_fract_x
_atom_site_fract_y
_atom_site_fract_z
Si Si1 0.781886 0.962479 0.031086
Si Si2 0.435849 0.564152 0.750000
Si Si3 0.111497 0.611497 0.750000
Si Si4 0.550838 0.900691 0.168118
Si Si5 0.279804 0.914166 0.502581
O O1 0.759432 0.941203 0.750503
O O2 0.783851 0.024196 0.009497
O O3 0.839950 0.943479 0.097401
O O4 0.396333 0.570965 0.496881
O O5 0.424544 0.507028 0.869909
O O6 0.166888 0.608104 0.610313
O O7 0.567939 0.910157 0.474086
O O8 0.266157 0.894582 0.203616
#
# Coordination Sequence:
#
# PCOD8315530 Si02
#       5
#    16   8   8  16  16
#     4  10  21  38  59  82 112 151 198 244 279 326
#     4  12  24  37  56  86 122 165 193 226 277 353
#     4  12  22  37  60  81 114 146 205 242 291 356
#     4  12  24  39  57  86 126 163 192 228 287 351
#     4  10  21  36  57  81 106 143 195 252 297 334
#
# _framework density 19.577110999999999
#
# number of rings (size 3 to 8) (size 9 to 14) (size 15 to 20)
#    0.000    1.000    2.500    5.250    7.000    0.000 
#    0.000    0.000    0.000    2.250    0.000    0.000 
#    0.000   35.000    0.000    0.000    0.000    0.000 
#
# Total GULP energy -793383.823558 kJ/mol
# GULP energy per Si atom -12396.622243 kJ/mol
# Density = 1.953255 g / cm^3
# Si number density = 19.577111 Si / 1000 Ang^3
#
#
#
# Elastic Constant Matrix: (Units=GPa)
#
#
# Indices 1 2 3 4 5 6 
#
# 1 92.2801 19.2594 17.3646 0.0000 0.0000 0.0000
# 2 19.2594 92.2826 17.3658 0.0000 0.0000 0.0000
# 3 17.3646 17.3658 61.6550 0.0000 0.0000 0.0000
# 4 0.0000 0.0000 0.0000 24.4783 0.0000 0.0000
# 5 0.0000 0.0000 0.0000 0.0000 24.4785 0.0000
# 6 0.0000 0.0000 0.0000 0.0000 0.0000 14.7752
#
#
#
# Elastic Compliance Matrix: (Units=1/GPa)
#
#
# Indices 1 2 3 4 5 6 
#
# 1 0.011761 -0.001934 -0.002768 0.000000 0.000000 0.000000
# 2 -0.001934 0.011761 -0.002768 0.000000 0.000000 0.000000
# 3 -0.002768 -0.002768 0.017778 0.000000 0.000000 0.000000
# 4 0.000000 0.000000 0.000000 0.040852 0.000000 0.000000
# 5 0.000000 0.000000 0.000000 0.000000 0.040852 0.000000
# 6 0.000000 0.000000 0.000000 0.000000 0.000000 0.067681
#
#
# Mechanical properties :
#
#
# Convention : Reuss Voigt Hill
#
# Bulk Modulus (GPa) = 37.93424 39.35525 38.64475
# Shear Modulus (GPa) = 23.31964 25.56160 24.44062
#
# Velocity S-wave (km/s) = 3.45508 3.61735 3.53714
# Velocity P-wave (km/s) = 5.94438 6.13134 6.03858
#
# Compressibility (1/GPa) = 0.02636141
#
# Stress axis : x y z
#
# Youngs Moduli (GPa) = 85.02716 85.02892 56.24804
#
# Poissons Ratio (x) = 0.16442 0.15568
# Poissons Ratio (y) = 0.16442 0.15569
# Poissons Ratio (z) = 0.23533 0.23535
#
# Static dielectric constant tensor:
#      x y z
#    x 3.476680 0.000000 0.000000 
#    y 0.000000 3.476700 0.000000 
#    z 0.000000 0.000000 3.817810 
# 
# 
# High freq. dielectric constant tensor:
#      x y z
#    x 1.735980 0.000000 0.000000 
#    y 0.000000 1.735980 0.000000 
#    z 0.000000 0.000000 1.795680 
# 
# From -- ./inp_files/182.got.cif
#   From: 2010.03.12/outbox.cif.g09.slc.cpg/sg130_1_cif.got.tgz:182.got - 2010.04.06 17:30:23.
