data_PCOD8315314
_publ_section_title
;
Structure prediction by ZEFSAII (Michael W. Deem and Ramdas Pophale) SiO2 
 PCOD8315314
Probable space group: P 4/N M M
;
_chemical_formula_sum "Si O2"
_cell_formula_units_Z 80
_cell_length_a 13.222067
_cell_length_b 13.222067
_cell_length_c 25.569220
_cell_angle_alpha 90.000000
_cell_angle_beta 90.000000
_cell_angle_gamma 90.000000
_cell_volume 4470.089174
_symmetry_space_group_name_H-M "P 4/N M M"
_symmetry_group_IT_number 129
_symmetry_cell_setting 'tetragonal'
loop_
_space_group_symop_operation_xyz
x,y,z
1/2-y,x,z
1/2-x,1/2-y,z
y,1/2-x,z
1/2+x,-y,-z
-x,1/2+y,-z
1/2+y,1/2+x,-z
-y,-x,-z
-x,-y,-z
1/2+y,-x,-z
1/2+x,1/2+y,-z
-y,1/2+x,-z
1/2-x,y,z
x,1/2-y,z
1/2-y,1/2-x,z
y,x,z
loop_
_atom_site_type_symbol
_atom_site_label
_atom_site_fract_x
_atom_site_fract_y
_atom_site_fract_z
Si Si1 0.132322 0.533361 0.646888
Si Si2 0.368637 0.969912 0.258422
Si Si3 0.134290 0.866892 0.848830
Si Si4 0.466130 0.867959 0.548937
Si Si5 0.528924 0.132888 0.954911
O O1 0.250000 0.508121 0.640912
O O2 0.113769 0.591601 0.701153
O O3 0.096156 0.606912 0.600914
O O4 0.072693 0.427308 0.644778
O O5 0.250000 0.986494 0.265752
O O6 0.397283 0.933014 0.200590
O O7 0.423213 0.076788 0.269230
O O8 0.250000 0.892463 0.835154
O O9 0.121396 0.750000 0.862782
O O10 0.096750 0.928505 0.899076
O O11 0.396433 0.896433 0.500000
O O12 0.492790 0.750000 0.547612
O O13 0.571806 0.928195 0.547147
O O14 0.502589 0.250000 0.954482
O O15 0.425845 0.074156 0.967321
O O16 0.610797 0.110797 0.000000
#
# Coordination Sequence:
#
# PCOD8315314 Si02
#       5
#    16  16  16  16  16
#     4  10  21  36  54  77 103 131 166 207 251 301
#     4  10  20  33  50  73 101 133 169 207 246 290
#     4   9  17  30  50  74  97 124 161 203 245 290
#     4  10  21  36  54  78 106 136 172 211 251 297
#     4  10  20  33  50  72  98 128 162 201 244 290
#
# _framework density 17.896736000000001
#
# number of rings (size 3 to 8) (size 9 to 14) (size 15 to 20)
#    0.000    2.200    0.000    3.000    0.000    5.200 
#    0.000    0.000    0.000    7.200    0.000    5.600 
#    0.000    0.000    0.000    0.000    0.000    0.000 
#
# Total GULP energy -992233.375649 kJ/mol
# GULP energy per Si atom -12402.917196 kJ/mol
# Density = 1.785600 g / cm^3
# Si number density = 17.896736 Si / 1000 Ang^3
#
#
#
# Elastic Constant Matrix: (Units=GPa)
#
#
# Indices 1 2 3 4 5 6 
#
# 1 108.7809 48.6488 45.9032 0.0000 0.0000 0.0000
# 2 48.6488 108.7809 45.9032 0.0000 0.0000 0.0000
# 3 45.9032 45.9032 106.7393 0.0000 0.0000 0.0000
# 4 0.0000 0.0000 0.0000 23.1515 0.0000 0.0000
# 5 0.0000 0.0000 0.0000 0.0000 23.1515 0.0000
# 6 0.0000 0.0000 0.0000 0.0000 0.0000 16.6415
#
#
#
# Elastic Compliance Matrix: (Units=1/GPa)
#
#
# Indices 1 2 3 4 5 6 
#
# 1 0.012554 -0.004076 -0.003646 0.000000 0.000000 0.000000
# 2 -0.004076 0.012554 -0.003646 0.000000 0.000000 0.000000
# 3 -0.003646 -0.003646 0.012505 0.000000 0.000000 0.000000
# 4 0.000000 0.000000 0.000000 0.043194 0.000000 0.000000
# 5 0.000000 0.000000 0.000000 0.000000 0.043194 0.000000
# 6 0.000000 0.000000 0.000000 0.000000 0.000000 0.060091
#
#
# Mechanical properties :
#
#
# Convention : Reuss Voigt Hill
#
# Bulk Modulus (GPa) = 67.21852 67.24571 67.23211
# Shear Modulus (GPa) = 23.60872 24.84531 24.22702
#
# Velocity S-wave (km/s) = 3.63597 3.72998 3.68327
# Velocity P-wave (km/s) = 7.43422 7.49708 7.46572
#
# Compressibility (1/GPa) = 0.01487685
#
# Stress axis : x y z
#
# Youngs Moduli (GPa) = 79.65487 79.65487 79.97052
#
# Poissons Ratio (x) = 0.32466 0.29158
# Poissons Ratio (y) = 0.32466 0.29158
# Poissons Ratio (z) = 0.29043 0.29043
#
# Static dielectric constant tensor:
#      x y z
#    x 3.148400 0.000000 0.000000 
#    y 0.000000 3.148400 0.000000 
#    z 0.000000 0.000000 3.529070 
# 
# 
# High freq. dielectric constant tensor:
#      x y z
#    x 1.686650 0.000000 0.000000 
#    y 0.000000 1.686650 0.000000 
#    z 0.000000 0.000000 1.713420 
# 
# From -- ./inp_files/7695.got.cif
#   From: 2010.03.12/outbox.cif.g09.slc.cpg/sg129_4_cif.got.tgz:7695.got - 2010.04.06 17:19:44.
