data_PCOD8315431
_publ_section_title
;
Structure prediction by ZEFSAII (Michael W. Deem and Ramdas Pophale) SiO2 
 PCOD8315431
Probable space group: P 4/N M M
;
_chemical_formula_sum "Si O2"
_cell_formula_units_Z 112
_cell_length_a 21.247155
_cell_length_b 21.247155
_cell_length_c 19.479344
_cell_angle_alpha 90.000000
_cell_angle_beta 90.000000
_cell_angle_gamma 90.000000
_cell_volume 8793.786136
_symmetry_space_group_name_H-M "P 4/N M M"
_symmetry_group_IT_number 129
_symmetry_cell_setting 'tetragonal'
loop_
_space_group_symop_operation_xyz
x,y,z
1/2-y,x,z
1/2-x,1/2-y,z
y,1/2-x,z
1/2+x,-y,-z
-x,1/2+y,-z
1/2+y,1/2+x,-z
-y,-x,-z
-x,-y,-z
1/2+y,-x,-z
1/2+x,1/2+y,-z
-y,1/2+x,-z
1/2-x,y,z
x,1/2-y,z
1/2-y,1/2-x,z
y,x,z
loop_
_atom_site_type_symbol
_atom_site_label
_atom_site_fract_x
_atom_site_fract_y
_atom_site_fract_z
Si Si1 0.679839 0.321910 0.670384
Si Si2 0.494977 0.903302 0.719982
Si Si3 0.077585 0.597963 0.393777
Si Si4 0.510589 0.613945 0.505194
Si Si5 0.320080 0.675405 0.923401
Si Si6 0.577145 0.677702 0.617817
Si Si7 0.178209 0.592505 0.197049
O O1 0.750000 0.329437 0.638654
O O2 0.664246 0.250000 0.686930
O O3 0.628955 0.347496 0.616640
O O4 0.675842 0.358889 0.741035
O O5 0.544127 0.955874 0.745910
O O6 0.438594 0.937158 0.677450
O O7 0.527700 0.852689 0.670323
O O8 0.467307 0.866246 0.785850
O O9 0.106154 0.550019 0.447886
O O10 0.013531 0.627979 0.427184
O O11 0.549325 0.549325 0.506445
O O12 0.552393 0.669498 0.539077
O O13 0.250000 0.647313 0.908812
O O14 0.315549 0.750000 0.916194
O O15 0.371681 0.649904 0.869507
O O16 0.342871 0.657130 0.000000
O O17 0.585578 0.750000 0.636130
O O18 0.644629 0.644629 0.626130
O O19 0.250000 0.569271 0.184475
#
# Coordination Sequence:
#
# PCOD8315431 Si02
#       7
#    16  16  16  16  16  16  16
#     4   9  17  26  33  46  69  91 110 131 158 194
#     4   9  16  25  37  52  68  85 110 141 166 193
#     4   9  15  24  38  49  60  83 109 134 163 193
#     4   9  16  26  38  49  61  77 103 138 169 194
#     4   8  13  21  34  53  74  93 115 142 166 186
#     4   9  17  27  38  51  65  81 102 133 171 207
#     4   9  15  23  37  52  67  91 115 136 165 197
#
# _framework density 12.736266000000001
#
# number of rings (size 3 to 8) (size 9 to 14) (size 15 to 20)
#    0.000    3.143    0.000    3.857    0.000    5.857 
#    0.000    2.143    0.000    3.857    0.000    0.000 
#    0.000    0.000    0.000    0.000    0.000    0.000 
#
# Total GULP energy -1387726.244632 kJ/mol
# GULP energy per Si atom -12390.412899 kJ/mol
# Density = 1.270728 g / cm^3
# Si number density = 12.736266 Si / 1000 Ang^3
#
#
#
# Elastic Constant Matrix: (Units=GPa)
#
#
# Indices 1 2 3 4 5 6 
#
# 1 64.0938 31.5185 27.6868 0.0000 0.0000 0.0000
# 2 31.5185 64.0939 27.6868 0.0000 0.0000 0.0000
# 3 27.6868 27.6868 56.7413 0.0000 0.0000 0.0000
# 4 0.0000 0.0000 0.0000 15.3658 0.0000 0.0000
# 5 0.0000 0.0000 0.0000 0.0000 15.3657 0.0000
# 6 0.0000 0.0000 0.0000 0.0000 0.0000 18.8268
#
#
#
# Elastic Compliance Matrix: (Units=1/GPa)
#
#
# Indices 1 2 3 4 5 6 
#
# 1 0.022638 -0.008060 -0.007114 0.000000 0.000000 0.000000
# 2 -0.008060 0.022638 -0.007114 0.000000 0.000000 0.000000
# 3 -0.007114 -0.007114 0.024566 0.000000 0.000000 0.000000
# 4 0.000000 0.000000 0.000000 0.065079 0.000000 0.000000
# 5 0.000000 0.000000 0.000000 0.000000 0.065080 0.000000
# 6 0.000000 0.000000 0.000000 0.000000 0.000000 0.053116
#
#
# Mechanical properties :
#
#
# Convention : Reuss Voigt Hill
#
# Bulk Modulus (GPa) = 39.57439 39.85703 39.71571
# Shear Modulus (GPa) = 16.33373 16.44746 16.39059
#
# Velocity S-wave (km/s) = 3.58503 3.59749 3.59126
# Velocity P-wave (km/s) = 6.94811 6.97266 6.96039
#
# Compressibility (1/GPa) = 0.02526887
#
# Stress axis : x y z
#
# Youngs Moduli (GPa) = 44.17263 44.17274 40.70653
#
# Poissons Ratio (x) = 0.35602 0.28957
# Poissons Ratio (y) = 0.35602 0.28957
# Poissons Ratio (z) = 0.31423 0.31423
#
# Static dielectric constant tensor:
#      x y z
#    x 2.547100 0.000000 0.000000 
#    y 0.000000 2.547100 0.000000 
#    z 0.000000 0.000000 2.658590 
# 
# 
# High freq. dielectric constant tensor:
#      x y z
#    x 1.466930 0.000000 0.000000 
#    y 0.000000 1.466930 0.000000 
#    z 0.000000 0.000000 1.461680 
# 
# From -- ./inp_files/6856.got.cif
#   From: 2010.03.12/outbox.cif.g09.slc.cpg/sg129_4_cif.got.tgz:6856.got - 2010.04.06 17:19:44.
