data_PCOD8315915
_publ_section_title
;
Structure prediction by ZEFSAII (Michael W. Deem and Ramdas Pophale) SiO2 
 PCOD8315915
Probable space group: P 42/M M C
;
_chemical_formula_sum "Si O2"
_cell_formula_units_Z 64
_cell_length_a 12.960206
_cell_length_b 12.960206
_cell_length_c 22.446860
_cell_angle_alpha 90.000000
_cell_angle_beta 90.000000
_cell_angle_gamma 90.000000
_cell_volume 3770.330377
_symmetry_space_group_name_H-M "P 42/M M C"
_symmetry_group_IT_number 131
_symmetry_cell_setting 'tetragonal'
loop_
_space_group_symop_operation_xyz
x,y,z
-x,-y,z
-y,x,1/2+z
y,-x,1/2+z
-x,y,-z
x,-y,-z
y,x,1/2-z
-y,-x,1/2-z
-x,-y,-z
x,y,-z
y,-x,1/2-z
-y,x,1/2-z
x,-y,z
-x,y,z
-y,-x,1/2+z
y,x,1/2+z
loop_
_atom_site_type_symbol
_atom_site_label
_atom_site_fract_x
_atom_site_fract_y
_atom_site_fract_z
Si Si1 0.236987 0.378537 0.116720
Si Si2 0.113761 0.378561 0.000000
Si Si3 0.885522 0.621795 0.234466
Si Si4 0.377187 0.000000 0.067379
Si Si5 0.802694 0.621913 0.359144
O O1 0.267445 0.500000 0.116265
O O2 0.174025 0.344347 0.058747
O O3 0.169761 0.347166 0.173650
O O4 0.338582 0.307997 0.117718
O O5 0.100999 0.500000 0.000000
O O6 0.000000 0.327306 0.000000
O O7 0.896051 0.500000 0.238897
O O8 0.821439 0.661262 0.291583
O O9 0.000000 0.671120 0.234959
O O10 0.336261 0.897186 0.100444
O O11 0.500000 0.000000 0.068609
O O12 0.334685 0.000000 0.000000
O O13 0.796493 0.500000 0.362845
#
# Coordination Sequence:
#
# PCOD8315915 Si02
#       5
#    16   8  16   8  16
#     4  10  20  31  48  75 104 132 161 196 247 305
#     4   9  18  34  51  70  97 128 165 208 245 283
#     4   9  16  30  50  71  96 127 167 213 246 274
#     4   9  18  32  50  70  94 129 171 213 242 268
#     4  10  19  32  50  73 103 132 164 202 241 293
#
# _framework density 16.974640999999998
#
# number of rings (size 3 to 8) (size 9 to 14) (size 15 to 20)
#    0.000    2.500    1.250    1.500    1.750    3.500 
#    0.000    0.000    0.000    6.750    0.000    4.375 
#    0.000    0.000    0.000    0.000    0.000    0.000 
#
# Total GULP energy -793356.943483 kJ/mol
# GULP energy per Si atom -12396.202242 kJ/mol
# Density = 1.693601 g / cm^3
# Si number density = 16.974641 Si / 1000 Ang^3
#
#
#
# Elastic Constant Matrix: (Units=GPa)
#
#
# Indices 1 2 3 4 5 6 
#
# 1 72.1459 42.2398 44.3944 0.0000 0.0000 0.0000
# 2 42.2398 72.1459 44.3944 0.0000 0.0000 0.0000
# 3 44.3944 44.3944 161.5082 0.0000 0.0000 0.0000
# 4 0.0000 0.0000 0.0000 -82.0753 0.0000 0.0000
# 5 0.0000 0.0000 0.0000 0.0000 -82.0753 0.0000
# 6 0.0000 0.0000 0.0000 0.0000 0.0000 6.3059
#
#
#
# Elastic Compliance Matrix: (Units=1/GPa)
#
#
# Indices 1 2 3 4 5 6 
#
# 1 0.022276 -0.011162 -0.003055 0.000000 0.000000 0.000000
# 2 -0.011162 0.022276 -0.003055 0.000000 0.000000 0.000000
# 3 -0.003055 -0.003055 0.007871 0.000000 0.000000 0.000000
# 4 0.000000 0.000000 0.000000 -0.012184 0.000000 0.000000
# 5 0.000000 0.000000 0.000000 0.000000 -0.012184 0.000000
# 6 0.000000 0.000000 0.000000 0.000000 0.000000 0.158582
#
#
# Mechanical properties :
#
#
# Convention : Reuss Voigt Hill
#
# Bulk Modulus (GPa) = 55.93200 63.09523 59.51362
# Shear Modulus (GPa) = 22.01282 -19.91749 1.04766
#
# Velocity S-wave (km/s) = 3.60503 -3.42916 0.78647
# Velocity P-wave (km/s) = 7.09578 4.64458 5.99676
#
# Compressibility (1/GPa) = 0.01787885
#
# Stress axis : x y z
#
# Youngs Moduli (GPa) = 44.89177 44.89177 127.04835
#
# Poissons Ratio (x) = 0.50109 0.38811
# Poissons Ratio (y) = 0.50109 0.38811
# Poissons Ratio (z) = 0.13714 0.13714
#
# Static dielectric constant tensor:
#      x y z
#    x 2.975840 0.000000 0.000000 
#    y 0.000000 2.975840 0.000000 
#    z 0.000000 0.000000 3.523110 
# 
# 
# High freq. dielectric constant tensor:
#      x y z
#    x 1.626320 0.000000 0.000000 
#    y 0.000000 1.626320 0.000000 
#    z 0.000000 0.000000 1.677380 
# 
# From -- ./inp_files/10788.got.cif
#   From: 2010.03.12/outbox.cif.g09.slc.cpg/sg131_6_cif.got.tgz:10788.got - 2010.04.06 17:36:35.
