data_PCOD8315954
_publ_section_title
;
Structure prediction by ZEFSAII (Michael W. Deem and Ramdas Pophale) SiO2 
 PCOD8315954
Probable space group: P 42/M M C
;
_chemical_formula_sum "Si O2"
_cell_formula_units_Z 104
_cell_length_a 14.974018
_cell_length_b 14.974018
_cell_length_c 23.482668
_cell_angle_alpha 90.000000
_cell_angle_beta 90.000000
_cell_angle_gamma 90.000000
_cell_volume 5265.312352
_symmetry_space_group_name_H-M "P 42/M M C"
_symmetry_group_IT_number 131
_symmetry_cell_setting 'tetragonal'
loop_
_space_group_symop_operation_xyz
x,y,z
-x,-y,z
-y,x,1/2+z
y,-x,1/2+z
-x,y,-z
x,-y,-z
y,x,1/2-z
-y,-x,1/2-z
-x,-y,-z
x,y,-z
y,-x,1/2-z
-y,x,1/2-z
x,-y,z
-x,y,z
-y,-x,1/2+z
y,x,1/2+z
loop_
_atom_site_type_symbol
_atom_site_label
_atom_site_fract_x
_atom_site_fract_y
_atom_site_fract_z
Si Si1 0.810348 0.897037 0.564381
Si Si2 0.278912 0.902328 0.064753
Si Si3 0.395556 0.350279 0.314619
Si Si4 0.097183 0.601398 0.742350
Si Si5 0.843352 0.655446 0.855224
Si Si6 0.600446 0.783625 0.140226
Si Si7 0.105295 0.500000 0.063500
O O1 0.768704 0.893734 0.500000
O O2 0.893547 0.829271 0.567700
O O3 0.748143 0.854745 0.612862
O O4 0.836762 0.000000 0.578657
O O5 0.331657 0.819983 0.093144
O O6 0.302579 0.000000 0.091168
O O7 0.310838 0.899483 0.000000
O O8 0.382235 0.382235 0.250000
O O9 0.500000 0.366894 0.331963
O O10 0.366009 0.249146 0.323859
O O11 0.324728 0.402714 0.354990
O O12 0.119946 0.500000 0.759558
O O13 0.089794 0.655035 0.801748
O O14 0.173555 0.635747 0.699570
O O15 0.000000 0.609387 0.712474
O O16 0.861289 0.585994 0.904484
O O17 0.500000 0.817340 0.126635
O O18 0.000000 0.500000 0.060935
O O19 0.146037 0.500000 0.000000
#
# Coordination Sequence:
#
# PCOD8315954 Si02
#       7
#    16  16  16  16  16  16   8
#     4  10  21  37  59  88 123 163 205 248 298 361
#     4  10  22  41  65  92 122 157 201 255 313 374
#     4  12  24  41  62  88 124 164 209 262 317 373
#     4  10  19  32  54  85 118 150 189 246 308 366
#     4  12  20  35  56  84 121 163 205 252 308 367
#     4  11  23  40  62  88 117 154 202 259 319 378
#     4  11  22  34  54  88 127 165 208 256 310 379
#
# _framework density 19.751913999999999
#
# number of rings (size 3 to 8) (size 9 to 14) (size 15 to 20)
#    0.000    1.154    4.615    2.769    0.000    3.846 
#    0.000    2.308    0.000    0.000    0.000    1.077 
#    0.000    4.923    0.000    0.000    0.000    0.000 
#
# Total GULP energy -1288366.301176 kJ/mol
# GULP energy per Si atom -12388.137511 kJ/mol
# Density = 1.970696 g / cm^3
# Si number density = 19.751914 Si / 1000 Ang^3
#
#
#
# Elastic Constant Matrix: (Units=GPa)
#
#
# Indices 1 2 3 4 5 6 
#
# 1 106.4984 28.6721 39.0741 0.0000 0.0000 0.0000
# 2 28.6721 106.4984 39.0741 0.0000 0.0000 0.0000
# 3 39.0741 39.0741 87.9534 0.0000 0.0000 0.0000
# 4 0.0000 0.0000 0.0000 28.9502 0.0000 0.0000
# 5 0.0000 0.0000 0.0000 0.0000 28.9502 0.0000
# 6 0.0000 0.0000 0.0000 0.0000 0.0000 23.6377
#
#
#
# Elastic Compliance Matrix: (Units=1/GPa)
#
#
# Indices 1 2 3 4 5 6 
#
# 1 0.011402 -0.001447 -0.004423 0.000000 0.000000 0.000000
# 2 -0.001447 0.011402 -0.004423 0.000000 0.000000 0.000000
# 3 -0.004423 -0.004423 0.015299 0.000000 0.000000 0.000000
# 4 0.000000 0.000000 0.000000 0.034542 0.000000 0.000000
# 5 0.000000 0.000000 0.000000 0.000000 0.034542 0.000000
# 6 0.000000 0.000000 0.000000 0.000000 0.000000 0.042305
#
#
# Mechanical properties :
#
#
# Convention : Reuss Voigt Hill
#
# Bulk Modulus (GPa) = 57.08156 57.17676 57.12916
# Shear Modulus (GPa) = 28.42253 29.24961 28.83607
#
# Velocity S-wave (km/s) = 3.79750 3.85236 3.82503
# Velocity P-wave (km/s) = 6.94190 6.98554 6.96376
#
# Compressibility (1/GPa) = 0.01751879
#
# Stress axis : x y z
#
# Youngs Moduli (GPa) = 87.70364 87.70364 65.36294
#
# Poissons Ratio (x) = 0.12691 0.28907
# Poissons Ratio (y) = 0.12691 0.28907
# Poissons Ratio (z) = 0.38788 0.38788
#
# Static dielectric constant tensor:
#      x y z
#    x 3.865750 0.000000 0.000000 
#    y 0.000000 3.865750 0.000000 
#    z 0.000000 0.000000 3.655690 
# 
# 
# High freq. dielectric constant tensor:
#      x y z
#    x 1.767030 0.000000 0.000000 
#    y 0.000000 1.767030 0.000000 
#    z 0.000000 0.000000 1.762260 
# 
# From -- ./inp_files/11295.got.cif
#   From: 2010.03.12/outbox.cif.g09.slc.cpg/sg131_6_cif.got.tgz:11295.got - 2010.04.06 17:36:35.
