data_PCOD8315247
_publ_section_title
;
Structure prediction by ZEFSAII (Michael W. Deem and Ramdas Pophale) SiO2 
 PCOD8315247
Probable space group: P 4/N M M
;
_chemical_formula_sum "Si O2"
_cell_formula_units_Z 96
_cell_length_a 13.633779
_cell_length_b 13.633779
_cell_length_c 30.738150
_cell_angle_alpha 90.000000
_cell_angle_beta 90.000000
_cell_angle_gamma 90.000000
_cell_volume 5713.605165
_symmetry_space_group_name_H-M "P 4/N M M"
_symmetry_group_IT_number 129
_symmetry_cell_setting 'tetragonal'
loop_
_space_group_symop_operation_xyz
x,y,z
1/2-y,x,z
1/2-x,1/2-y,z
y,1/2-x,z
1/2+x,-y,-z
-x,1/2+y,-z
1/2+y,1/2+x,-z
-y,-x,-z
-x,-y,-z
1/2+y,-x,-z
1/2+x,1/2+y,-z
-y,1/2+x,-z
1/2-x,y,z
x,1/2-y,z
1/2-y,1/2-x,z
y,x,z
loop_
_atom_site_type_symbol
_atom_site_label
_atom_site_fract_x
_atom_site_fract_y
_atom_site_fract_z
Si Si1 0.634126 0.025050 0.703824
Si Si2 0.858199 0.133931 0.211621
Si Si3 0.024226 0.634017 0.368777
Si Si4 0.862562 0.020108 0.869084
Si Si5 0.633701 0.358725 0.452379
Si Si6 0.021823 0.638005 0.967070
O O1 0.750000 0.004748 0.701510
O O2 0.600277 0.070383 0.749798
O O3 0.604206 0.103443 0.667121
O O4 0.577812 0.922189 0.696944
O O5 0.750000 0.087154 0.217762
O O6 0.848944 0.250000 0.212127
O O7 0.900042 0.097564 0.165194
O O8 0.005277 0.750000 0.366333
O O9 0.066307 0.599162 0.415346
O O10 0.921293 0.578708 0.360728
O O11 0.750000 0.995154 0.859504
O O12 0.918466 0.918466 0.862544
O O13 0.878114 0.061268 0.917899
O O14 0.601006 0.398995 0.500000
O O15 0.750000 0.349705 0.451902
O O16 0.588859 0.250000 0.443627
O O17 0.992811 0.750000 0.975259
O O18 0.924500 0.575501 0.976400
O O19 0.107859 0.607859 0.000000
#
# Coordination Sequence:
#
# PCOD8315247 Si02
#       6
#    16  16  16  16  16  16
#     4  10  20  33  50  72  96 122 153 190 234 284
#     4   9  17  29  45  65  90 120 152 184 217 257
#     4  10  20  32  47  68  93 124 162 200 237 276
#     4   9  17  29  45  66  92 120 150 186 230 280
#     4   8  14  26  45  68  92 117 148 190 238 285
#     4   9  18  31  46  66  92 121 155 195 237 283
#
# _framework density 16.802002000000002
#
# number of rings (size 3 to 8) (size 9 to 14) (size 15 to 20)
#    0.000    2.833    0.000    2.000    0.000    3.500 
#    0.000    3.333    0.000    3.000    0.000    0.000 
#    0.000    7.000    0.000    0.667    0.000    0.167 
#
# Total GULP energy -1190087.927024 kJ/mol
# GULP energy per Si atom -12396.749240 kJ/mol
# Density = 1.676376 g / cm^3
# Si number density = 16.802002 Si / 1000 Ang^3
#
#
#
# Elastic Constant Matrix: (Units=GPa)
#
#
# Indices 1 2 3 4 5 6 
#
# 1 77.3094 33.6281 42.4879 0.0000 0.0000 0.0000
# 2 33.6281 77.3093 42.4879 0.0000 0.0000 0.0000
# 3 42.4879 42.4879 117.7447 0.0000 0.0000 0.0000
# 4 0.0000 0.0000 0.0000 24.6533 0.0000 0.0000
# 5 0.0000 0.0000 0.0000 0.0000 24.6534 0.0000
# 6 0.0000 0.0000 0.0000 0.0000 0.0000 14.4971
#
#
#
# Elastic Compliance Matrix: (Units=1/GPa)
#
#
# Indices 1 2 3 4 5 6 
#
# 1 0.017675 -0.005218 -0.004495 0.000000 0.000000 0.000000
# 2 -0.005218 0.017675 -0.004495 0.000000 0.000000 0.000000
# 3 -0.004495 -0.004495 0.011737 0.000000 0.000000 0.000000
# 4 0.000000 0.000000 0.000000 0.040562 0.000000 0.000000
# 5 0.000000 0.000000 0.000000 0.000000 0.040562 0.000000
# 6 0.000000 0.000000 0.000000 0.000000 0.000000 0.068979
#
#
# Mechanical properties :
#
#
# Convention : Reuss Voigt Hill
#
# Bulk Modulus (GPa) = 53.55907 56.61900 55.08903
# Shear Modulus (GPa) = 21.56733 23.01139 22.28936
#
# Velocity S-wave (km/s) = 3.58665 3.70477 3.64619
# Velocity P-wave (km/s) = 7.00699 7.21605 7.11229
#
# Compressibility (1/GPa) = 0.01867097
#
# Stress axis : x y z
#
# Youngs Moduli (GPa) = 56.57647 56.57636 85.19986
#
# Poissons Ratio (x) = 0.29521 0.38299
# Poissons Ratio (y) = 0.29521 0.38299
# Poissons Ratio (z) = 0.25432 0.25432
#
# Static dielectric constant tensor:
#      x y z
#    x 2.976600 0.000000 0.000000 
#    y 0.000000 2.976600 0.000000 
#    z 0.000000 0.000000 3.528390 
# 
# 
# High freq. dielectric constant tensor:
#      x y z
#    x 1.626460 0.000000 0.000000 
#    y 0.000000 1.626460 0.000000 
#    z 0.000000 0.000000 1.666470 
# 
# From -- ./inp_files/7863.got.cif
#   From: 2010.03.12/outbox.cif.g09.slc.cpg/sg129_4_cif.got.tgz:7863.got - 2010.04.06 17:19:44.
