data_PCOD8315005
_publ_section_title
;
Structure prediction by ZEFSAII (Michael W. Deem and Ramdas Pophale) SiO2 
 PCOD8315005
Probable space group: P 4/N M M
;
_chemical_formula_sum "Si O2"
_cell_formula_units_Z 72
_cell_length_a 14.039539
_cell_length_b 14.039539
_cell_length_c 23.036590
_cell_angle_alpha 90.000000
_cell_angle_beta 90.000000
_cell_angle_gamma 90.000000
_cell_volume 4540.711278
_symmetry_space_group_name_H-M "P 4/N M M"
_symmetry_group_IT_number 129
_symmetry_cell_setting 'tetragonal'
loop_
_space_group_symop_operation_xyz
x,y,z
1/2-y,x,z
1/2-x,1/2-y,z
y,1/2-x,z
1/2+x,-y,-z
-x,1/2+y,-z
1/2+y,1/2+x,-z
-y,-x,-z
-x,-y,-z
1/2+y,-x,-z
1/2+x,1/2+y,-z
-y,1/2+x,-z
1/2-x,y,z
x,1/2-y,z
1/2-y,1/2-x,z
y,x,z
loop_
_atom_site_type_symbol
_atom_site_label
_atom_site_fract_x
_atom_site_fract_y
_atom_site_fract_z
Si Si1 0.136844 0.644216 0.564057
Si Si2 0.138708 0.983887 0.110333
Si Si3 0.638213 0.484775 0.331265
Si Si4 0.640329 0.140329 0.000000
Si Si5 0.640440 0.140848 0.779578
O O1 0.106825 0.606825 0.500000
O O2 0.250000 0.650955 0.567407
O O3 0.094312 0.750000 0.575520
O O4 0.099025 0.571903 0.612644
O O5 0.250000 0.008215 0.110147
O O6 0.109205 0.922572 0.054537
O O7 0.109367 0.923983 0.166739
O O8 0.083068 0.083068 0.109949
O O9 0.750000 0.505961 0.335701
O O10 0.585556 0.585556 0.327344
O O11 0.612494 0.422602 0.275282
O O12 0.623011 0.250000 0.983208
O O13 0.750000 0.123845 0.762281
O O14 0.623704 0.250000 0.797980
#
# Coordination Sequence:
#
# PCOD8315005 Si02
#       5
#    16  16  16   8  16
#     4   8  14  26  44  64  84 105 133 174 219 253
#     4  10  19  30  45  65  90 117 142 170 206 251
#     4  10  19  29  42  61  86 115 143 170 203 247
#     4   9  17  30  48  68  87 109 142 182 218 245
#     4   9  17  30  48  67  84 104 136 180 223 253
#
# _framework density 15.856547000000001
#
# number of rings (size 3 to 8) (size 9 to 14) (size 15 to 20)
#    0.000    2.778    0.000    3.000    0.000    6.222 
#    0.000    0.000    0.000    0.000    0.000    0.000 
#    0.000   20.000    0.000    0.889    0.000    0.000 
#
# Total GULP energy -892729.704930 kJ/mol
# GULP energy per Si atom -12399.023680 kJ/mol
# Density = 1.582046 g / cm^3
# Si number density = 15.856547 Si / 1000 Ang^3
#
#
#
# Elastic Constant Matrix: (Units=GPa)
#
#
# Indices 1 2 3 4 5 6 
#
# 1 68.2407 50.0274 57.9219 0.0000 0.0000 0.0000
# 2 50.0274 68.2407 57.9219 0.0000 0.0000 0.0000
# 3 57.9219 57.9219 136.8682 0.0000 0.0000 0.0000
# 4 0.0000 0.0000 0.0000 8.4021 0.0000 0.0000
# 5 0.0000 0.0000 0.0000 0.0000 8.4021 0.0000
# 6 0.0000 0.0000 0.0000 0.0000 0.0000 28.0550
#
#
#
# Elastic Compliance Matrix: (Units=1/GPa)
#
#
# Indices 1 2 3 4 5 6 
#
# 1 0.034673 -0.020232 -0.006112 0.000000 0.000000 0.000000
# 2 -0.020232 0.034673 -0.006112 0.000000 0.000000 0.000000
# 3 -0.006112 -0.006112 0.012479 0.000000 0.000000 0.000000
# 4 0.000000 0.000000 0.000000 0.119017 0.000000 0.000000
# 5 0.000000 0.000000 0.000000 0.000000 0.119017 0.000000
# 6 0.000000 0.000000 0.000000 0.000000 0.000000 0.035644
#
#
# Mechanical properties :
#
#
# Convention : Reuss Voigt Hill
#
# Bulk Modulus (GPa) = 59.11568 67.23242 63.17405
# Shear Modulus (GPa) = 11.73561 16.13707 13.93634
#
# Velocity S-wave (km/s) = 2.72345 3.19359 2.96784
# Velocity P-wave (km/s) = 6.87401 7.48940 7.18830
#
# Compressibility (1/GPa) = 0.01691599
#
# Stress axis : x y z
#
# Youngs Moduli (GPa) = 28.84057 28.84057 80.13358
#
# Poissons Ratio (x) = 0.58349 0.48975
# Poissons Ratio (y) = 0.58349 0.48975
# Poissons Ratio (z) = 0.17626 0.17626
#
# Static dielectric constant tensor:
#      x y z
#    x 2.815360 0.000000 0.000000 
#    y 0.000000 2.815360 0.000000 
#    z 0.000000 0.000000 3.272900 
# 
# 
# High freq. dielectric constant tensor:
#      x y z
#    x 1.589110 0.000000 0.000000 
#    y 0.000000 1.589110 0.000000 
#    z 0.000000 0.000000 1.626670 
# 
# From -- ./inp_files/7433.got.cif
#   From: 2010.03.12/outbox.cif.g09.slc.cpg/sg129_4_cif.got.tgz:7433.got - 2010.04.06 17:19:44.
