data_PCOD8315214
_publ_section_title
;
Structure prediction by ZEFSAII (Michael W. Deem and Ramdas Pophale) SiO2 
 PCOD8315214
Probable space group: P 4/N M M
;
_chemical_formula_sum "Si O2"
_cell_formula_units_Z 128
_cell_length_a 18.275841
_cell_length_b 18.275841
_cell_length_c 23.460166
_cell_angle_alpha 90.000000
_cell_angle_beta 90.000000
_cell_angle_gamma 90.000000
_cell_volume 7835.844751
_symmetry_space_group_name_H-M "P 4/N M M"
_symmetry_group_IT_number 129
_symmetry_cell_setting 'tetragonal'
loop_
_space_group_symop_operation_xyz
x,y,z
1/2-y,x,z
1/2-x,1/2-y,z
y,1/2-x,z
1/2+x,-y,-z
-x,1/2+y,-z
1/2+y,1/2+x,-z
-y,-x,-z
-x,-y,-z
1/2+y,-x,-z
1/2+x,1/2+y,-z
-y,1/2+x,-z
1/2-x,y,z
x,1/2-y,z
1/2-y,1/2-x,z
y,x,z
loop_
_atom_site_type_symbol
_atom_site_label
_atom_site_fract_x
_atom_site_fract_y
_atom_site_fract_z
Si Si1 0.166775 0.949300 0.928703
Si Si2 0.048208 0.334051 0.821622
Si Si3 0.551822 0.069219 0.359014
Si Si4 0.950279 0.668635 0.567236
Si Si5 0.985414 0.392608 0.536079
Si Si6 0.833499 0.545819 0.967418
Si Si7 0.435949 0.665341 0.871889
Si Si8 0.939042 0.440316 0.766897
O O1 0.250000 0.922511 0.932449
O O2 0.122049 0.877806 0.910724
O O3 0.157239 0.015540 0.884480
O O4 0.140150 0.982257 0.989005
O O5 0.058612 0.250000 0.803514
O O6 0.127060 0.372941 0.819647
O O7 0.992155 0.371957 0.778124
O O8 0.512805 0.134618 0.392958
O O9 0.621325 0.040657 0.398146
O O10 0.574951 0.094912 0.295980
O O11 0.497542 0.002459 0.348595
O O12 0.934783 0.750000 0.588249
O O13 0.875658 0.624343 0.574362
O O14 0.974357 0.671103 0.499808
O O15 0.913648 0.413648 0.500000
O O16 0.036806 0.463195 0.538713
O O17 0.750000 0.568447 0.981750
O O18 0.882538 0.617463 0.973336
O O19 0.839653 0.514114 0.903515
O O20 0.411179 0.750000 0.865511
O O21 0.443145 0.629149 0.809889
O O22 0.983754 0.516247 0.772696
#
# Coordination Sequence:
#
# PCOD8315214 Si02
#       8
#    16  16  16  16  16  16  16  16
#     4   9  18  32  48  66  88 115 149 187 227 272
#     4   9  17  29  45  66  91 117 146 182 226 278
#     4   8  14  26  44  62  80 108 149 193 227 250
#     4   9  16  25  39  62  91 120 147 176 215 264
#     4   7  11  22  39  57  77 100 131 174 214 243
#     4  10  20  33  49  69  92 118 149 185 226 274
#     4  10  20  31  45  68  94 120 151 186 227 275
#     4   9  17  30  47  65  88 120 156 195 233 264
#
# _framework density 16.335189
#
# number of rings (size 3 to 8) (size 9 to 14) (size 15 to 20)
#    0.000    3.125    0.000    2.625    0.000    3.125 
#    0.000    0.625    0.000    4.500    0.000    0.000 
#    0.000   37.250    0.000    0.000    0.000    0.125 
#
# Total GULP energy -1585750.973737 kJ/mol
# GULP energy per Si atom -12388.679482 kJ/mol
# Density = 1.629801 g / cm^3
# Si number density = 16.335189 Si / 1000 Ang^3
#
#
#
# Elastic Constant Matrix: (Units=GPa)
#
#
# Indices 1 2 3 4 5 6 
#
# 1 82.3849 41.2821 39.5078 0.0000 0.0000 0.0000
# 2 41.2821 82.3849 39.5078 0.0000 0.0000 0.0000
# 3 39.5078 39.5078 122.2921 0.0000 0.0000 0.0000
# 4 0.0000 0.0000 0.0000 14.6157 0.0000 0.0000
# 5 0.0000 0.0000 0.0000 0.0000 14.6157 0.0000
# 6 0.0000 0.0000 0.0000 0.0000 0.0000 15.0201
#
#
#
# Elastic Compliance Matrix: (Units=1/GPa)
#
#
# Indices 1 2 3 4 5 6 
#
# 1 0.017259 -0.007070 -0.003292 0.000000 0.000000 0.000000
# 2 -0.007070 0.017259 -0.003292 0.000000 0.000000 0.000000
# 3 -0.003292 -0.003292 0.010304 0.000000 0.000000 0.000000
# 4 0.000000 0.000000 0.000000 0.068420 0.000000 0.000000
# 5 0.000000 0.000000 0.000000 0.000000 0.068420 0.000000
# 6 0.000000 0.000000 0.000000 0.000000 0.000000 0.066578
#
#
# Mechanical properties :
#
#
# Convention : Reuss Voigt Hill
#
# Bulk Modulus (GPa) = 57.09145 58.62859 57.86002
# Shear Modulus (GPa) = 17.76924 19.96790 18.86857
#
# Velocity S-wave (km/s) = 3.30174 3.50006 3.40234
# Velocity P-wave (km/s) = 7.03997 7.23206 7.13666
#
# Compressibility (1/GPa) = 0.01751576
#
# Stress axis : x y z
#
# Youngs Moduli (GPa) = 57.93946 57.93946 97.04902
#
# Poissons Ratio (x) = 0.40963 0.31947
# Poissons Ratio (y) = 0.40963 0.31947
# Poissons Ratio (z) = 0.19073 0.19073
#
# Static dielectric constant tensor:
#      x y z
#    x 2.876840 0.000000 0.000000 
#    y 0.000000 2.876840 0.000000 
#    z 0.000000 0.000000 3.365570 
# 
# 
# High freq. dielectric constant tensor:
#      x y z
#    x 1.605560 0.000000 0.000000 
#    y 0.000000 1.605560 0.000000 
#    z 0.000000 0.000000 1.634320 
# 
# From -- ./inp_files/7324.got.cif
#   From: 2010.03.12/outbox.cif.g09.slc.cpg/sg129_4_cif.got.tgz:7324.got - 2010.04.06 17:19:44.
