data_PCOD8315237
_publ_section_title
;
Structure prediction by ZEFSAII (Michael W. Deem and Ramdas Pophale) SiO2 
 PCOD8315237
Probable space group: P 4/N M M
;
_chemical_formula_sum "Si O2"
_cell_formula_units_Z 96
_cell_length_a 14.139659
_cell_length_b 14.139659
_cell_length_c 30.960403
_cell_angle_alpha 90.000000
_cell_angle_beta 90.000000
_cell_angle_gamma 90.000000
_cell_volume 6189.912029
_symmetry_space_group_name_H-M "P 4/N M M"
_symmetry_group_IT_number 129
_symmetry_cell_setting 'tetragonal'
loop_
_space_group_symop_operation_xyz
x,y,z
1/2-y,x,z
1/2-x,1/2-y,z
y,1/2-x,z
1/2+x,-y,-z
-x,1/2+y,-z
1/2+y,1/2+x,-z
-y,-x,-z
-x,-y,-z
1/2+y,-x,-z
1/2+x,1/2+y,-z
-y,1/2+x,-z
1/2-x,y,z
x,1/2-y,z
1/2-y,1/2-x,z
y,x,z
loop_
_atom_site_type_symbol
_atom_site_label
_atom_site_fract_x
_atom_site_fract_y
_atom_site_fract_z
Si Si1 0.137191 0.854547 0.047233
Si Si2 0.361633 0.644614 0.385963
Si Si3 0.141466 0.990226 0.120923
Si Si4 0.509231 0.358499 0.217259
Si Si5 0.354946 0.862417 0.709708
Si Si6 0.520014 0.135783 0.466014
O O1 0.250000 0.849989 0.048639
O O2 0.095010 0.750000 0.054505
O O3 0.097156 0.918780 0.085881
O O4 0.105943 0.894058 0.000000
O O5 0.250000 0.654207 0.386739
O O6 0.403295 0.750000 0.396701
O O7 0.394976 0.611440 0.338144
O O8 0.392754 0.564770 0.419867
O O9 0.250000 0.010905 0.110431
O O10 0.128957 0.946799 0.169151
O O11 0.089958 0.089958 0.116986
O O12 0.489151 0.250000 0.227911
O O13 0.408740 0.408740 0.220607
O O14 0.578948 0.404548 0.252713
O O15 0.250000 0.901817 0.718048
O O16 0.354750 0.750000 0.712869
O O17 0.596876 0.096876 0.500000
O O18 0.505505 0.250000 0.471346
O O19 0.419025 0.080976 0.470898
#
# Coordination Sequence:
#
# PCOD8315237 Si02
#       6
#    16  16  16  16  16  16
#     4   8  14  25  40  57  76  96 120 155 199 243
#     4   8  14  26  44  63  82 106 137 172 208 248
#     4   9  17  27  38  54  76 103 134 163 192 231
#     4   9  17  27  38  54  78 107 137 167 197 235
#     4   8  14  25  41  60  80 103 133 169 208 244
#     4  10  20  32  47  68  92 119 152 188 225 265
#
# _framework density 15.509105
#
# number of rings (size 3 to 8) (size 9 to 14) (size 15 to 20)
#    0.000    3.333    0.000    2.000    0.000    3.000 
#    0.000    5.000    0.000    0.000    0.000    4.667 
#    0.000    0.667    0.000    7.333    0.000    4.667 
#
# Total GULP energy -1189322.300232 kJ/mol
# GULP energy per Si atom -12388.773961 kJ/mol
# Density = 1.547381 g / cm^3
# Si number density = 15.509105 Si / 1000 Ang^3
#
#
#
# Elastic Constant Matrix: (Units=GPa)
#
#
# Indices 1 2 3 4 5 6 
#
# 1 58.4089 30.4171 47.9830 0.0000 0.0000 0.0000
# 2 30.4171 58.4088 47.9830 0.0000 0.0000 0.0000
# 3 47.9830 47.9830 127.8015 0.0000 0.0000 0.0000
# 4 0.0000 0.0000 0.0000 20.5812 0.0000 0.0000
# 5 0.0000 0.0000 0.0000 0.0000 20.5813 0.0000
# 6 0.0000 0.0000 0.0000 0.0000 0.0000 11.1864
#
#
#
# Elastic Compliance Matrix: (Units=1/GPa)
#
#
# Indices 1 2 3 4 5 6 
#
# 1 0.027333 -0.008392 -0.007111 0.000000 0.000000 0.000000
# 2 -0.008392 0.027333 -0.007111 0.000000 0.000000 0.000000
# 3 -0.007111 -0.007111 0.013165 0.000000 0.000000 0.000000
# 4 0.000000 0.000000 0.000000 0.048588 0.000000 0.000000
# 5 0.000000 0.000000 0.000000 0.000000 0.048588 0.000000
# 6 0.000000 0.000000 0.000000 0.000000 0.000000 0.089394
#
#
# Mechanical properties :
#
#
# Convention : Reuss Voigt Hill
#
# Bulk Modulus (GPa) = 44.24584 55.26503 49.75544
# Shear Modulus (GPa) = 16.27798 18.35218 17.31508
#
# Velocity S-wave (km/s) = 3.24323 3.44367 3.34495
# Velocity P-wave (km/s) = 6.52806 7.17796 6.86071
#
# Compressibility (1/GPa) = 0.02260099
#
# Stress axis : x y z
#
# Youngs Moduli (GPa) = 36.58597 36.58587 75.96155
#
# Poissons Ratio (x) = 0.30703 0.54019
# Poissons Ratio (y) = 0.30703 0.54019
# Poissons Ratio (z) = 0.26018 0.26018
#
# Static dielectric constant tensor:
#      x y z
#    x 2.778840 0.000000 0.000000 
#    y 0.000000 2.778840 0.000000 
#    z 0.000000 0.000000 3.446560 
# 
# 
# High freq. dielectric constant tensor:
#      x y z
#    x 1.562120 0.000000 0.000000 
#    y 0.000000 1.562120 0.000000 
#    z 0.000000 0.000000 1.615410 
# 
# From -- ./inp_files/7827.got.cif
#   From: 2010.03.12/outbox.cif.g09.slc.cpg/sg129_4_cif.got.tgz:7827.got - 2010.04.06 17:19:44.
