data_PCOD8315270
_publ_section_title
;
Structure prediction by ZEFSAII (Michael W. Deem and Ramdas Pophale) SiO2 
 PCOD8315270
Probable space group: P 4/N M M
;
_chemical_formula_sum "Si O2"
_cell_formula_units_Z 96
_cell_length_a 23.255082
_cell_length_b 23.255082
_cell_length_c 10.094653
_cell_angle_alpha 90.000000
_cell_angle_beta 90.000000
_cell_angle_gamma 90.000000
_cell_volume 5459.176621
_symmetry_space_group_name_H-M "P 4/N M M"
_symmetry_group_IT_number 129
_symmetry_cell_setting 'tetragonal'
loop_
_space_group_symop_operation_xyz
x,y,z
1/2-y,x,z
1/2-x,1/2-y,z
y,1/2-x,z
1/2+x,-y,-z
-x,1/2+y,-z
1/2+y,1/2+x,-z
-y,-x,-z
-x,-y,-z
1/2+y,-x,-z
1/2+x,1/2+y,-z
-y,1/2+x,-z
1/2-x,y,z
x,1/2-y,z
1/2-y,1/2-x,z
y,x,z
loop_
_atom_site_type_symbol
_atom_site_label
_atom_site_fract_x
_atom_site_fract_y
_atom_site_fract_z
Si Si1 0.682963 0.993356 0.082923
Si Si2 0.376597 0.817765 0.117601
Si Si3 0.908849 0.816841 0.860743
Si Si4 0.467677 0.375369 0.368849
Si Si5 0.108347 0.599320 0.351517
Si Si6 0.116463 0.476040 0.665247
O O1 0.750000 0.987563 0.074936
O O2 0.664609 0.967100 0.223676
O O3 0.664731 0.059872 0.067234
O O4 0.657049 0.955922 0.963141
O O5 0.372073 0.750000 0.153500
O O6 0.362477 0.855848 0.248456
O O7 0.332162 0.832162 0.000000
O O8 0.896830 0.750000 0.881200
O O9 0.848815 0.848815 0.884873
O O10 0.932819 0.828261 0.714018
O O11 0.439168 0.439168 0.346243
O O12 0.534393 0.370258 0.326867
O O13 0.460069 0.357503 0.522263
O O14 0.122231 0.622231 0.500000
O O15 0.040653 0.594515 0.334503
O O16 0.062119 0.437882 0.703118
#
# Coordination Sequence:
#
# PCOD8315270 Si02
#       6
#    16  16  16  16  16  16
#     4   9  18  31  47  68  92 119 154 196 238 279
#     4  10  20  34  51  70  93 122 156 192 232 279
#     4  10  20  33  48  67  93 125 162 202 240 279
#     4   9  17  29  47  72  99 126 156 189 230 282
#     4   9  17  31  50  73 100 126 153 189 233 279
#     4   9  16  27  46  71  98 126 153 185 231 285
#
# _framework density 17.585068
#
# number of rings (size 3 to 8) (size 9 to 14) (size 15 to 20)
#    0.000    2.667    0.000    2.000    0.000    3.000 
#    0.000    3.333    0.000    8.000    0.000    0.000 
#    0.000    4.000    0.000    0.000    0.000    0.000 
#
# Total GULP energy -1190020.898697 kJ/mol
# GULP energy per Si atom -12396.051028 kJ/mol
# Density = 1.754504 g / cm^3
# Si number density = 17.585068 Si / 1000 Ang^3
#
#
#
# Elastic Constant Matrix: (Units=GPa)
#
#
# Indices 1 2 3 4 5 6 
#
# 1 33.5549 45.9442 31.8211 0.0000 0.0000 0.0000
# 2 45.9442 33.5549 31.8211 0.0000 0.0000 0.0000
# 3 31.8211 31.8211 90.9151 0.0000 0.0000 0.0000
# 4 0.0000 0.0000 0.0000 24.8923 0.0000 0.0000
# 5 0.0000 0.0000 0.0000 0.0000 24.8923 0.0000
# 6 0.0000 0.0000 0.0000 0.0000 0.0000 19.3398
#
#
#
# Elastic Compliance Matrix: (Units=1/GPa)
#
#
# Indices 1 2 3 4 5 6 
#
# 1 -0.031620 0.049095 -0.006116 0.000000 0.000000 0.000000
# 2 0.049095 -0.031620 -0.006116 0.000000 0.000000 0.000000
# 3 -0.006116 -0.006116 0.015281 0.000000 0.000000 0.000000
# 4 0.000000 0.000000 0.000000 0.040173 0.000000 0.000000
# 5 0.000000 0.000000 0.000000 0.000000 0.040173 0.000000
# 6 0.000000 0.000000 0.000000 0.000000 0.000000 0.051707
#
#
# Mechanical properties :
#
#
# Convention : Reuss Voigt Hill
#
# Bulk Modulus (GPa) = 38.81166 41.91086 40.36126
# Shear Modulus (GPa) = 263.73690 17.05412 140.39551
#
# Velocity S-wave (km/s) = 12.25983 3.11755 8.94490
# Velocity P-wave (km/s) = 14.91721 6.06991 11.38787
#
# Compressibility (1/GPa) = 0.02576545
#
# Stress axis : x y z
#
# Youngs Moduli (GPa) = -31.62567 -31.62567 65.44102
#
# Poissons Ratio (x) = 1.55267 0.40027
# Poissons Ratio (y) = 1.55267 0.40027
# Poissons Ratio (z) = -0.19344 -0.19344
#
# Static dielectric constant tensor:
#      x y z
#    x 3.121500 0.000000 0.000000 
#    y 0.000000 3.121500 0.000000 
#    z 0.000000 0.000000 3.625010 
# 
# 
# High freq. dielectric constant tensor:
#      x y z
#    x 1.663310 0.000000 0.000000 
#    y 0.000000 1.663310 0.000000 
#    z 0.000000 0.000000 1.691100 
# 
# From -- ./inp_files/2647.got.cif
#   From: 2010.03.12/outbox.cif.g09.slc.cpg/sg129_2_cif.got.tgz:2647.got - 2010.04.06 17:19:44.
