data_PCOD8315111
_publ_section_title
;
Structure prediction by ZEFSAII (Michael W. Deem and Ramdas Pophale) SiO2 
 PCOD8315111
Probable space group: P 4/N M M
;
_chemical_formula_sum "Si O2"
_cell_formula_units_Z 128
_cell_length_a 19.991544
_cell_length_b 19.991544
_cell_length_c 18.045169
_cell_angle_alpha 90.000000
_cell_angle_beta 90.000000
_cell_angle_gamma 90.000000
_cell_volume 7211.965292
_symmetry_space_group_name_H-M "P 4/N M M"
_symmetry_group_IT_number 129
_symmetry_cell_setting 'tetragonal'
loop_
_space_group_symop_operation_xyz
x,y,z
1/2-y,x,z
1/2-x,1/2-y,z
y,1/2-x,z
1/2+x,-y,-z
-x,1/2+y,-z
1/2+y,1/2+x,-z
-y,-x,-z
-x,-y,-z
1/2+y,-x,-z
1/2+x,1/2+y,-z
-y,1/2+x,-z
1/2-x,y,z
x,1/2-y,z
1/2-y,1/2-x,z
y,x,z
loop_
_atom_site_type_symbol
_atom_site_label
_atom_site_fract_x
_atom_site_fract_y
_atom_site_fract_z
Si Si1 0.928853 0.824249 0.003063
Si Si2 0.075194 0.671979 0.044888
Si Si3 0.324145 0.071451 0.170321
Si Si4 0.171986 0.437239 0.516406
Si Si5 0.492347 0.600825 0.612860
Si Si6 0.580486 0.172603 0.781085
Si Si7 0.495491 0.112724 0.657074
Si Si8 0.555490 0.325998 0.252008
O O1 0.919725 0.750000 0.038328
O O2 0.874721 0.874721 0.039411
O O3 0.916837 0.820839 0.916337
O O4 0.003077 0.851527 0.016401
O O5 0.088625 0.750000 0.028101
O O6 0.072861 0.657527 0.132216
O O7 0.131290 0.631290 0.000000
O O8 0.250000 0.082222 0.205252
O O9 0.375160 0.124841 0.206456
O O10 0.348416 0.995528 0.186593
O O11 0.250000 0.427446 0.496378
O O12 0.133673 0.366328 0.506662
O O13 0.136588 0.493733 0.465446
O O14 0.165706 0.463343 0.600455
O O15 0.555089 0.555089 0.635640
O O16 0.424938 0.555972 0.613703
O O17 0.483800 0.659424 0.672323
O O18 0.597534 0.250000 0.766851
O O19 0.516207 0.151560 0.732167
O O20 0.640037 0.127153 0.751975
O O21 0.441280 0.058721 0.683182
O O22 0.574351 0.250000 0.245377
#
# Coordination Sequence:
#
# PCOD8315111 Si02
#       8
#    16  16  16  16  16  16  16  16
#     4   9  18  32  49  70  95 122 154 194 240 292
#     4  10  21  36  52  72  99 130 166 206 248 297
#     4   9  17  29  46  68  95 127 161 197 238 285
#     4  10  19  31  49  72 100 133 165 198 237 284
#     4   9  17  30  49  73  98 124 159 202 245 287
#     4  10  21  35  51  72  98 127 161 205 253 299
#     4   9  18  33  53  75  97 123 159 203 250 296
#     4  10  19  31  48  69  96 130 165 201 241 288
#
# _framework density 17.748283000000001
#
# number of rings (size 3 to 8) (size 9 to 14) (size 15 to 20)
#    0.000    2.500    0.000    2.250    0.000    5.000 
#    0.000    2.500    0.000    0.000    0.000    1.750 
#    0.000   12.000    0.000    0.000    0.000    0.000 
#
# Total GULP energy -1586417.688373 kJ/mol
# GULP energy per Si atom -12393.888190 kJ/mol
# Density = 1.770789 g / cm^3
# Si number density = 17.748283 Si / 1000 Ang^3
#
#
#
# Elastic Constant Matrix: (Units=GPa)
#
#
# Indices 1 2 3 4 5 6 
#
# 1 98.6949 60.2294 37.5145 0.0000 0.0000 0.0000
# 2 60.2294 98.6949 37.5145 0.0000 0.0000 0.0000
# 3 37.5145 37.5145 73.0065 0.0000 0.0000 0.0000
# 4 0.0000 0.0000 0.0000 22.3936 0.0000 0.0000
# 5 0.0000 0.0000 0.0000 0.0000 22.3936 0.0000
# 6 0.0000 0.0000 0.0000 0.0000 0.0000 22.8379
#
#
#
# Elastic Compliance Matrix: (Units=1/GPa)
#
#
# Indices 1 2 3 4 5 6 
#
# 1 0.017152 -0.008845 -0.004269 0.000000 0.000000 0.000000
# 2 -0.008845 0.017152 -0.004269 0.000000 0.000000 0.000000
# 3 -0.004269 -0.004269 0.018085 0.000000 0.000000 0.000000
# 4 0.000000 0.000000 0.000000 0.044656 0.000000 0.000000
# 5 0.000000 0.000000 0.000000 0.000000 0.044656 0.000000
# 6 0.000000 0.000000 0.000000 0.000000 0.000000 0.043787
#
#
# Mechanical properties :
#
#
# Convention : Reuss Voigt Hill
#
# Bulk Modulus (GPa) = 56.73986 60.10146 58.42066
# Shear Modulus (GPa) = 22.11138 22.53420 22.32279
#
# Velocity S-wave (km/s) = 3.53346 3.56709 3.55032
# Velocity P-wave (km/s) = 6.97752 7.13458 7.05649
#
# Compressibility (1/GPa) = 0.01762429
#
# Stress axis : x y z
#
# Youngs Moduli (GPa) = 58.30056 58.30056 55.29568
#
# Poissons Ratio (x) = 0.51566 0.23605
# Poissons Ratio (y) = 0.51566 0.23605
# Poissons Ratio (z) = 0.24888 0.24888
#
# Static dielectric constant tensor:
#      x y z
#    x 3.380470 0.000000 0.000000 
#    y 0.000000 3.380470 0.000000 
#    z 0.000000 0.000000 3.239980 
# 
# 
# High freq. dielectric constant tensor:
#      x y z
#    x 1.684380 0.000000 0.000000 
#    y 0.000000 1.684380 0.000000 
#    z 0.000000 0.000000 1.677340 
# 
# From -- ./inp_files/6126.got.cif
#   From: 2010.03.12/outbox.cif.g09.slc.cpg/sg129_4_cif.got.tgz:6126.got - 2010.04.06 17:19:44.
