data_PCOD8315778
_publ_section_title
;
Structure prediction by ZEFSAII (Michael W. Deem and Ramdas Pophale) SiO2 
 PCOD8315778
Probable space group: P 42/M M C
;
_chemical_formula_sum "Si O2"
_cell_formula_units_Z 120
_cell_length_a 21.618316
_cell_length_b 21.618316
_cell_length_c 15.076716
_cell_angle_alpha 90.000000
_cell_angle_beta 90.000000
_cell_angle_gamma 90.000000
_cell_volume 7046.127144
_symmetry_space_group_name_H-M "P 42/M M C"
_symmetry_group_IT_number 131
_symmetry_cell_setting 'tetragonal'
loop_
_space_group_symop_operation_xyz
x,y,z
-x,-y,z
-y,x,1/2+z
y,-x,1/2+z
-x,y,-z
x,-y,-z
y,x,1/2-z
-y,-x,1/2-z
-x,-y,-z
x,y,-z
y,-x,1/2-z
-y,x,1/2-z
x,-y,z
-x,y,z
-y,-x,1/2+z
y,x,1/2+z
loop_
_atom_site_type_symbol
_atom_site_label
_atom_site_fract_x
_atom_site_fract_y
_atom_site_fract_z
Si Si1 0.753289 0.340135 0.601856
Si Si2 0.121385 0.726705 0.601084
Si Si3 0.121421 0.277197 0.899810
Si Si4 0.350377 0.246257 0.599373
Si Si5 0.427257 0.195901 0.754535
Si Si6 0.356649 0.930222 0.249176
Si Si7 0.928741 0.066797 0.000000
Si Si8 0.865591 0.137529 0.849985
O O1 0.752562 0.362304 0.500000
O O2 0.807433 0.290704 0.619151
O O3 0.688072 0.307717 0.627055
O O4 0.766513 0.399410 0.662555
O O5 0.102096 0.712182 0.500000
O O6 0.076478 0.688185 0.664798
O O7 0.114283 0.798536 0.620520
O O8 0.190490 0.302451 0.897848
O O9 0.076117 0.318728 0.840507
O O10 0.125646 0.210283 0.857782
O O11 0.095166 0.275708 0.000000
O O12 0.377715 0.253917 0.500000
O O13 0.406228 0.232001 0.665935
O O14 0.500000 0.199976 0.761724
O O15 0.408892 0.123186 0.754354
O O16 0.385311 0.000000 0.246974
O O17 0.914188 0.104399 0.088036
O O18 0.000000 0.054413 0.000000
O O19 0.894346 0.000000 0.000000
O O20 0.881095 0.118906 0.750000
#
# Coordination Sequence:
#
# PCOD8315778 Si02
#       8
#    16  16  16  16  16  16   8  16
#     4   9  17  30  54  80 106 133 167 212 267 310
#     4  10  18  32  53  79 104 124 154 210 275 327
#     4  10  18  32  53  79 104 124 154 210 275 327
#     4   9  17  30  54  80 106 133 167 212 267 310
#     4  10  21  34  50  74 108 150 183 211 253 309
#     4  10  22  35  49  73 103 137 182 227 256 296
#     4  11  28  48  56  64  92 136 174 202 254 338
#     4  12  21  35  59  82 100 124 158 210 274 332
#
# _framework density 17.030632000000001
#
# number of rings (size 3 to 8) (size 9 to 14) (size 15 to 20)
#    0.000    1.933    4.000    0.400    0.000    2.933 
#    0.000    0.667    0.000    0.000    0.000    7.467 
#    0.000    4.267    0.000   11.733    0.000    0.000 
#
# Total GULP energy -1487803.685208 kJ/mol
# GULP energy per Si atom -12398.364043 kJ/mol
# Density = 1.699187 g / cm^3
# Si number density = 17.030632 Si / 1000 Ang^3
#
#
#
# Elastic Constant Matrix: (Units=GPa)
#
#
# Indices 1 2 3 4 5 6 
#
# 1 76.8092 35.9817 38.9081 0.0000 0.0000 0.0000
# 2 35.9817 76.8083 38.9082 0.0000 0.0000 0.0000
# 3 38.9081 38.9082 121.3375 0.0000 0.0000 0.0000
# 4 0.0000 0.0000 0.0000 15.9369 0.0000 0.0000
# 5 0.0000 0.0000 0.0000 0.0000 15.9372 0.0000
# 6 0.0000 0.0000 0.0000 0.0000 0.0000 11.3573
#
#
#
# Elastic Compliance Matrix: (Units=1/GPa)
#
#
# Indices 1 2 3 4 5 6 
#
# 1 0.017939 -0.006554 -0.003651 0.000000 0.000000 0.000000
# 2 -0.006554 0.017939 -0.003651 0.000000 0.000000 0.000000
# 3 -0.003651 -0.003651 0.010583 0.000000 0.000000 0.000000
# 4 0.000000 0.000000 0.000000 0.062747 0.000000 0.000000
# 5 0.000000 0.000000 0.000000 0.000000 0.062746 0.000000
# 6 0.000000 0.000000 0.000000 0.000000 0.000000 0.088049
#
#
# Mechanical properties :
#
#
# Convention : Reuss Voigt Hill
#
# Bulk Modulus (GPa) = 53.33469 55.83900 54.58685
# Shear Modulus (GPa) = 17.00886 19.39009 18.19948
#
# Velocity S-wave (km/s) = 3.16368 3.37789 3.27254
# Velocity P-wave (km/s) = 6.68806 6.93340 6.81183
#
# Compressibility (1/GPa) = 0.01874952
#
# Stress axis : x y z
#
# Youngs Moduli (GPa) = 55.74462 55.74380 94.49396
#
# Poissons Ratio (x) = 0.36537 0.34496
# Poissons Ratio (y) = 0.36538 0.34496
# Poissons Ratio (z) = 0.20350 0.20350
#
# Static dielectric constant tensor:
#      x y z
#    x 2.915980 0.000000 0.000000 
#    y 0.000000 2.915980 0.000000 
#    z 0.000000 0.000000 3.641140 
# 
# 
# High freq. dielectric constant tensor:
#      x y z
#    x 1.629120 0.000000 0.000000 
#    y 0.000000 1.629120 0.000000 
#    z 0.000000 0.000000 1.678460 
# 
# From -- ./inp_files/6346.got.cif
#   From: 2010.03.12/outbox.cif.g09.slc.cpg/sg131_4_cif.got.tgz:6346.got - 2010.04.06 17:36:35.
