data_PCOD8315240
_publ_section_title
;
Structure prediction by ZEFSAII (Michael W. Deem and Ramdas Pophale) SiO2 
 PCOD8315240
Probable space group: P 4/N M M
;
_chemical_formula_sum "Si O2"
_cell_formula_units_Z 104
_cell_length_a 13.784639
_cell_length_b 13.784639
_cell_length_c 33.225549
_cell_angle_alpha 90.000000
_cell_angle_beta 90.000000
_cell_angle_gamma 90.000000
_cell_volume 6313.394968
_symmetry_space_group_name_H-M "P 4/N M M"
_symmetry_group_IT_number 129
_symmetry_cell_setting 'tetragonal'
loop_
_space_group_symop_operation_xyz
x,y,z
1/2-y,x,z
1/2-x,1/2-y,z
y,1/2-x,z
1/2+x,-y,-z
-x,1/2+y,-z
1/2+y,1/2+x,-z
-y,-x,-z
-x,-y,-z
1/2+y,-x,-z
1/2+x,1/2+y,-z
-y,1/2+x,-z
1/2-x,y,z
x,1/2-y,z
1/2-y,1/2-x,z
y,x,z
loop_
_atom_site_type_symbol
_atom_site_label
_atom_site_fract_x
_atom_site_fract_y
_atom_site_fract_z
Si Si1 0.857592 0.365250 0.721370
Si Si2 0.139842 0.639842 0.500000
Si Si3 0.477367 0.636281 0.579633
Si Si4 0.134702 0.856831 0.190782
Si Si5 0.634978 0.021851 0.355126
Si Si6 0.513599 0.360721 0.119773
Si Si7 0.638743 0.020027 0.970487
O O1 0.750000 0.406482 0.710898
O O2 0.850701 0.250000 0.723457
O O3 0.892043 0.403055 0.765497
O O4 0.934258 0.397514 0.687793
O O5 0.125355 0.750000 0.484532
O O6 0.116541 0.566006 0.464304
O O7 0.497201 0.750000 0.587019
O O8 0.578631 0.578631 0.584214
O O9 0.398051 0.598468 0.611289
O O10 0.250000 0.849972 0.187120
O O11 0.088625 0.750000 0.186949
O O12 0.091099 0.918196 0.153766
O O13 0.750000 0.004560 0.358329
O O14 0.581111 0.918890 0.361008
O O15 0.495314 0.250000 0.130373
O O16 0.408875 0.408875 0.121514
O O17 0.558980 0.374752 0.075251
O O18 0.750000 0.993311 0.979126
O O19 0.576687 0.923314 0.978704
O O20 0.605881 0.105881 0.000000
#
# Coordination Sequence:
#
# PCOD8315240 Si02
#       7
#    16   8  16  16  16  16  16
#     4   8  14  26  44  64  86 112 143 181 221 260
#     4   9  17  30  50  74  97 123 156 192 227 263
#     4  10  20  33  50  72  97 125 157 192 229 270
#     4   8  14  25  41  62  87 112 140 177 217 254
#     4  10  20  32  47  68  92 119 153 191 231 275
#     4   9  17  28  42  61  85 113 142 171 206 250
#     4   9  18  31  45  63  87 113 144 181 219 262
#
# _framework density 16.472912000000001
#
# number of rings (size 3 to 8) (size 9 to 14) (size 15 to 20)
#    0.000    3.000    0.000    2.077    0.000    3.538 
#    0.000    3.077    0.000    0.000    0.000    2.154 
#    0.000    4.000    0.000    0.308    0.000    0.154 
#
# Total GULP energy -1289013.183088 kJ/mol
# GULP energy per Si atom -12394.357530 kJ/mol
# Density = 1.643542 g / cm^3
# Si number density = 16.472912 Si / 1000 Ang^3
#
#
#
# Elastic Constant Matrix: (Units=GPa)
#
#
# Indices 1 2 3 4 5 6 
#
# 1 76.4915 37.9838 47.8560 0.0000 0.0000 0.0000
# 2 37.9838 76.4915 47.8560 0.0000 0.0000 0.0000
# 3 47.8560 47.8560 110.1846 0.0000 0.0000 0.0000
# 4 0.0000 0.0000 0.0000 23.0435 0.0000 0.0000
# 5 0.0000 0.0000 0.0000 0.0000 23.0435 0.0000
# 6 0.0000 0.0000 0.0000 0.0000 0.0000 14.8545
#
#
#
# Elastic Compliance Matrix: (Units=1/GPa)
#
#
# Indices 1 2 3 4 5 6 
#
# 1 0.019843 -0.006126 -0.005957 0.000000 0.000000 0.000000
# 2 -0.006126 0.019843 -0.005957 0.000000 0.000000 0.000000
# 3 -0.005957 -0.005957 0.014251 0.000000 0.000000 0.000000
# 4 0.000000 0.000000 0.000000 0.043396 0.000000 0.000000
# 5 0.000000 0.000000 0.000000 0.000000 0.043396 0.000000
# 6 0.000000 0.000000 0.000000 0.000000 0.000000 0.067319
#
#
# Mechanical properties :
#
#
# Convention : Reuss Voigt Hill
#
# Bulk Modulus (GPa) = 56.01028 58.95102 57.48065
# Shear Modulus (GPa) = 19.99353 20.81978 20.40666
#
# Velocity S-wave (km/s) = 3.48763 3.55897 3.52348
# Velocity P-wave (km/s) = 7.09178 7.26310 7.17795
#
# Compressibility (1/GPa) = 0.01785387
#
# Stress axis : x y z
#
# Youngs Moduli (GPa) = 50.39656 50.39656 70.17246
#
# Poissons Ratio (x) = 0.30874 0.41805
# Poissons Ratio (y) = 0.30874 0.41805
# Poissons Ratio (z) = 0.30023 0.30023
#
# Static dielectric constant tensor:
#      x y z
#    x 2.932670 0.000000 0.000000 
#    y 0.000000 2.932670 0.000000 
#    z 0.000000 0.000000 3.444130 
# 
# 
# High freq. dielectric constant tensor:
#      x y z
#    x 1.612420 0.000000 0.000000 
#    y 0.000000 1.612420 0.000000 
#    z 0.000000 0.000000 1.651440 
# 
# From -- ./inp_files/7900.got.cif
#   From: 2010.03.12/outbox.cif.g09.slc.cpg/sg129_4_cif.got.tgz:7900.got - 2010.04.06 17:19:44.
