data_PCOD8315860
_publ_section_title
;
Structure prediction by ZEFSAII (Michael W. Deem and Ramdas Pophale) SiO2 
 PCOD8315860
Probable space group: P 42/M M C
;
_chemical_formula_sum "Si O2"
_cell_formula_units_Z 72
_cell_length_a 20.702796
_cell_length_b 20.702796
_cell_length_c 9.751121
_cell_angle_alpha 90.000000
_cell_angle_beta 90.000000
_cell_angle_gamma 90.000000
_cell_volume 4179.386649
_symmetry_space_group_name_H-M "P 42/M M C"
_symmetry_group_IT_number 131
_symmetry_cell_setting 'tetragonal'
loop_
_space_group_symop_operation_xyz
x,y,z
-x,-y,z
-y,x,1/2+z
y,-x,1/2+z
-x,y,-z
x,-y,-z
y,x,1/2-z
-y,-x,1/2-z
-x,-y,-z
x,y,-z
y,-x,1/2-z
-y,x,1/2-z
x,-y,z
-x,y,z
-y,-x,1/2+z
y,x,1/2+z
loop_
_atom_site_type_symbol
_atom_site_label
_atom_site_fract_x
_atom_site_fract_y
_atom_site_fract_z
Si Si1 0.654989 0.263482 0.656083
Si Si2 0.654938 0.075321 0.757656
Si Si3 0.572912 0.818290 0.149442
Si Si4 0.075687 0.570773 0.000000
Si Si5 0.844294 0.763865 0.845296
O O1 0.675476 0.324525 0.750000
O O2 0.636319 0.284367 0.500000
O O3 0.594216 0.230678 0.731236
O O4 0.714190 0.214290 0.649193
O O5 0.621739 0.120293 0.871400
O O6 0.611776 0.097505 0.628934
O O7 0.729256 0.093505 0.724646
O O8 0.650640 0.000000 0.796620
O O9 0.500000 0.842102 0.181609
O O10 0.575355 0.783565 0.000000
O O11 0.108859 0.500000 0.000000
O O12 0.000000 0.562120 0.000000
O O13 0.824902 0.824902 0.750000
O O14 0.861230 0.787494 0.000000
#
# Coordination Sequence:
#
# PCOD8315860 Si02
#       5
#    16  16  16   8  16
#     4   9  17  30  49  68  87 116 156 201 246 290
#     4  10  19  31  47  66  90 124 164 202 241 288
#     4  10  21  33  44  64  97 132 164 199 237 280
#     4   9  16  26  42  64  88 116 153 197 236 275
#     4   9  17  29  45  64  86 113 149 193 241 288
#
# _framework density 17.227408
#
# number of rings (size 3 to 8) (size 9 to 14) (size 15 to 20)
#    0.000    2.556    1.111    1.333    1.556    7.556 
#    0.000    1.111    0.000    0.000    0.000    0.000 
#    0.000    0.889    0.000    6.667    0.000    2.444 
#
# Total GULP energy -892079.478563 kJ/mol
# GULP energy per Si atom -12389.992758 kJ/mol
# Density = 1.718820 g / cm^3
# Si number density = 17.227408 Si / 1000 Ang^3
#
#
#
# Elastic Constant Matrix: (Units=GPa)
#
#
# Indices 1 2 3 4 5 6 
#
# 1 53.7854 46.0529 32.7250 0.0000 0.0000 0.0000
# 2 46.0529 53.7852 32.7252 0.0000 0.0000 0.0000
# 3 32.7250 32.7252 112.8006 0.0000 0.0000 0.0000
# 4 0.0000 0.0000 0.0000 17.7662 0.0000 0.0000
# 5 0.0000 0.0000 0.0000 0.0000 17.7661 0.0000
# 6 0.0000 0.0000 0.0000 0.0000 0.0000 21.7680
#
#
#
# Elastic Compliance Matrix: (Units=1/GPa)
#
#
# Indices 1 2 3 4 5 6 
#
# 1 0.070847 -0.058478 -0.003588 0.000000 0.000000 0.000000
# 2 -0.058478 0.070847 -0.003588 0.000000 0.000000 0.000000
# 3 -0.003588 -0.003588 0.010947 0.000000 0.000000 0.000000
# 4 0.000000 0.000000 0.000000 0.056287 0.000000 0.000000
# 5 0.000000 0.000000 0.000000 0.000000 0.056287 0.000000
# 6 0.000000 0.000000 0.000000 0.000000 0.000000 0.045939
#
#
# Mechanical properties :
#
#
# Convention : Reuss Voigt Hill
#
# Bulk Modulus (GPa) = 46.87978 49.26416 48.07197
# Shear Modulus (GPa) = 11.12164 18.71794 14.91979
#
# Velocity S-wave (km/s) = 2.54358 3.29982 2.94606
# Velocity P-wave (km/s) = 5.99148 6.57091 6.28787
#
# Compressibility (1/GPa) = 0.02133116
#
# Stress axis : x y z
#
# Youngs Moduli (GPa) = 14.11498 14.11488 91.34720
#
# Poissons Ratio (x) = 0.82542 0.32777
# Poissons Ratio (y) = 0.82542 0.32780
# Poissons Ratio (z) = 0.05065 0.05065
#
# Static dielectric constant tensor:
#      x y z
#    x 2.998530 0.000000 0.000000 
#    y 0.000000 2.998540 0.000000 
#    z 0.000000 0.000000 3.595970 
# 
# 
# High freq. dielectric constant tensor:
#      x y z
#    x 1.623840 0.000000 0.000000 
#    y 0.000000 1.623840 0.000000 
#    z 0.000000 0.000000 1.683920 
# 
# From -- ./inp_files/1755.got.cif
#   From: 2010.03.12/outbox.cif.g09.slc.cpg/sg131_1_cif.got.tgz:1755.got - 2010.04.06 17:36:35.
