data_PCOD8315910
_publ_section_title
;
Structure prediction by ZEFSAII (Michael W. Deem and Ramdas Pophale) SiO2 
 PCOD8315910
Probable space group: P 42/M M C
;
_chemical_formula_sum "Si O2"
_cell_formula_units_Z 104
_cell_length_a 27.311515
_cell_length_b 27.311515
_cell_length_c 8.929475
_cell_angle_alpha 90.000000
_cell_angle_beta 90.000000
_cell_angle_gamma 90.000000
_cell_volume 6660.663737
_symmetry_space_group_name_H-M "P 42/M M C"
_symmetry_group_IT_number 131
_symmetry_cell_setting 'tetragonal'
loop_
_space_group_symop_operation_xyz
x,y,z
-x,-y,z
-y,x,1/2+z
y,-x,1/2+z
-x,y,-z
x,-y,-z
y,x,1/2-z
-y,-x,1/2-z
-x,-y,-z
x,y,-z
y,-x,1/2-z
-y,x,1/2-z
x,-y,z
-x,y,z
-y,-x,1/2+z
y,x,1/2+z
loop_
_atom_site_type_symbol
_atom_site_label
_atom_site_fract_x
_atom_site_fract_y
_atom_site_fract_z
Si Si1 0.221757 0.102348 0.323823
Si Si2 0.055093 0.123698 0.176531
Si Si3 0.899740 0.442776 0.174540
Si Si4 0.848894 0.361562 0.676287
Si Si5 0.201111 0.273216 0.178715
Si Si6 0.306022 0.053852 0.828187
Si Si7 0.000000 0.557984 0.331681
O O1 0.224326 0.100579 0.500000
O O2 0.167451 0.090302 0.265883
O O3 0.239197 0.155798 0.267217
O O4 0.256395 0.059304 0.264723
O O5 0.073606 0.073606 0.250000
O O6 0.000000 0.133817 0.230497
O O7 0.057544 0.118134 0.000000
O O8 0.891280 0.500000 0.202553
O O9 0.852705 0.415722 0.251116
O O10 0.950993 0.424812 0.247065
O O11 0.901755 0.429887 0.000000
O O12 0.837776 0.364189 0.500000
O O13 0.807594 0.327863 0.755198
O O14 0.902917 0.342175 0.717709
O O15 0.250430 0.250430 0.250000
O O16 0.206274 0.276115 0.000000
O O17 0.329433 0.000000 0.795131
O O18 0.291162 0.059210 0.000000
O O19 0.000000 0.500000 0.341699
O O20 0.000000 0.580961 0.500000
#
# Coordination Sequence:
#
# PCOD8315910 Si02
#       7
#    16  16  16  16  16  16   8
#     4   9  18  32  49  67  84 103 127 156 192 240
#     4  10  21  35  49  64  80  97 119 147 180 223
#     4  10  20  33  47  65  90 118 152 193 231 267
#     4  10  20  32  47  66  89 117 150 182 219 265
#     4  10  19  32  50  70  92 114 139 171 212 259
#     4   9  18  30  43  62  87 111 134 166 204 244
#     4   9  17  29  45  63  83 113 151 187 225 267
#
# _framework density 15.614058999999999
#
# number of rings (size 3 to 8) (size 9 to 14) (size 15 to 20)
#    0.000    2.385    0.000    2.538    1.077    5.077 
#    0.000    0.769    0.000    0.000    0.000    0.000 
#    0.000    0.000    0.000    0.000    0.000    0.000 
#
# Total GULP energy -1289318.822498 kJ/mol
# GULP energy per Si atom -12397.296370 kJ/mol
# Density = 1.557852 g / cm^3
# Si number density = 15.614059 Si / 1000 Ang^3
#
#
#
# Elastic Constant Matrix: (Units=GPa)
#
#
# Indices 1 2 3 4 5 6 
#
# 1 48.1917 32.1924 29.2237 0.0000 0.0000 0.0000
# 2 32.1924 48.1917 29.2237 0.0000 0.0000 0.0000
# 3 29.2237 29.2237 62.3144 0.0000 0.0000 0.0000
# 4 0.0000 0.0000 0.0000 22.5987 0.0000 0.0000
# 5 0.0000 0.0000 0.0000 0.0000 22.5987 0.0000
# 6 0.0000 0.0000 0.0000 0.0000 0.0000 22.1361
#
#
#
# Elastic Compliance Matrix: (Units=1/GPa)
#
#
# Indices 1 2 3 4 5 6 
#
# 1 0.040690 -0.021813 -0.008853 0.000000 0.000000 0.000000
# 2 -0.021813 0.040690 -0.008853 0.000000 0.000000 0.000000
# 3 -0.008853 -0.008853 0.024351 0.000000 0.000000 0.000000
# 4 0.000000 0.000000 0.000000 0.044250 0.000000 0.000000
# 5 0.000000 0.000000 0.000000 0.000000 0.044250 0.000000
# 6 0.000000 0.000000 0.000000 0.000000 0.000000 0.045175
#
#
# Mechanical properties :
#
#
# Convention : Reuss Voigt Hill
#
# Bulk Modulus (GPa) = 37.46153 37.77528 37.61840
# Shear Modulus (GPa) = 15.27456 18.00388 16.63922
#
# Velocity S-wave (km/s) = 3.13110 3.39935 3.26798
# Velocity P-wave (km/s) = 6.09229 6.29707 6.19553
#
# Compressibility (1/GPa) = 0.02669405
#
# Stress axis : x y z
#
# Youngs Moduli (GPa) = 24.57615 24.57615 41.06578
#
# Poissons Ratio (x) = 0.53607 0.36355
# Poissons Ratio (y) = 0.53607 0.36355
# Poissons Ratio (z) = 0.21757 0.21757
#
# Static dielectric constant tensor:
#      x y z
#    x 2.916600 0.000000 0.000000 
#    y 0.000000 2.916600 0.000000 
#    z 0.000000 0.000000 2.995120 
# 
# 
# High freq. dielectric constant tensor:
#      x y z
#    x 1.569460 0.000000 0.000000 
#    y 0.000000 1.569460 0.000000 
#    z 0.000000 0.000000 1.609150 
# 
# From -- ./inp_files/2571.got.cif
#   From: 2010.03.12/outbox.cif.g09.slc.cpg/sg131_2_cif.got.tgz:2571.got - 2010.04.06 17:36:35.
