data_PCOD8315351
_publ_section_title
;
Structure prediction by ZEFSAII (Michael W. Deem and Ramdas Pophale) SiO2 
 PCOD8315351
Probable space group: P 4/N M M
;
_chemical_formula_sum "Si O2"
_cell_formula_units_Z 64
_cell_length_a 18.832486
_cell_length_b 18.832486
_cell_length_c 9.795618
_cell_angle_alpha 90.000000
_cell_angle_beta 90.000000
_cell_angle_gamma 90.000000
_cell_volume 3474.138652
_symmetry_space_group_name_H-M "P 4/N M M"
_symmetry_group_IT_number 129
_symmetry_cell_setting 'tetragonal'
loop_
_space_group_symop_operation_xyz
x,y,z
1/2-y,x,z
1/2-x,1/2-y,z
y,1/2-x,z
1/2+x,-y,-z
-x,1/2+y,-z
1/2+y,1/2+x,-z
-y,-x,-z
-x,-y,-z
1/2+y,-x,-z
1/2+x,1/2+y,-z
-y,1/2+x,-z
1/2-x,y,z
x,1/2-y,z
1/2-y,1/2-x,z
y,x,z
loop_
_atom_site_type_symbol
_atom_site_label
_atom_site_fract_x
_atom_site_fract_y
_atom_site_fract_z
Si Si1 0.060883 0.172926 0.341903
Si Si2 0.331080 0.937511 0.548785
Si Si3 0.331254 0.520663 0.081481
Si Si4 0.970581 0.089348 0.817905
O O1 0.092197 0.250000 0.378657
O O2 0.116159 0.116159 0.395883
O O3 0.986900 0.160718 0.417342
O O4 0.048009 0.167034 0.179584
O O5 0.362455 0.862455 0.500000
O O6 0.250000 0.925861 0.593930
O O7 0.374053 0.974404 0.671212
O O8 0.250000 0.551717 0.077937
O O9 0.388135 0.576644 0.142507
O O10 0.356407 0.497192 0.930281
O O11 0.015845 0.015845 0.817015
#
# Coordination Sequence:
#
# PCOD8315351 Si02
#       4
#    16  16  16  16
#     4  10  20  35  55  80 110 143 181 226 276 329
#     4  11  23  37  55  80 111 148 186 230 279 329
#     4  10  20  34  53  81 113 140 177 226 275 328
#     4  11  21  35  59  82 107 146 190 230 276 326
#
# _framework density 18.421832999999999
#
# number of rings (size 3 to 8) (size 9 to 14) (size 15 to 20)
#    0.000    1.500    2.500    4.500    0.000    1.500 
#    0.000    0.000    0.000   12.000    0.000    0.000 
#    0.000   22.000    0.000    0.000    0.000    0.000 
#
# Total GULP energy -793309.643839 kJ/mol
# GULP energy per Si atom -12395.463185 kJ/mol
# Density = 1.837990 g / cm^3
# Si number density = 18.421833 Si / 1000 Ang^3
#
#
#
# Elastic Constant Matrix: (Units=GPa)
#
#
# Indices 1 2 3 4 5 6 
#
# 1 104.1137 64.9129 28.8205 0.0000 0.0000 0.0000
# 2 64.9129 104.1137 28.8205 0.0000 0.0000 0.0000
# 3 28.8205 28.8205 93.5664 0.0000 0.0000 0.0000
# 4 0.0000 0.0000 0.0000 23.5265 0.0000 0.0000
# 5 0.0000 0.0000 0.0000 0.0000 23.5265 0.0000
# 6 0.0000 0.0000 0.0000 0.0000 0.0000 19.3720
#
#
#
# Elastic Compliance Matrix: (Units=1/GPa)
#
#
# Indices 1 2 3 4 5 6 
#
# 1 0.016060 -0.009450 -0.002036 0.000000 0.000000 0.000000
# 2 -0.009450 0.016060 -0.002036 0.000000 0.000000 0.000000
# 3 -0.002036 -0.002036 0.011942 0.000000 0.000000 0.000000
# 4 0.000000 0.000000 0.000000 0.042505 0.000000 0.000000
# 5 0.000000 0.000000 0.000000 0.000000 0.042505 0.000000
# 6 0.000000 0.000000 0.000000 0.000000 0.000000 0.051621
#
#
# Mechanical properties :
#
#
# Convention : Reuss Voigt Hill
#
# Bulk Modulus (GPa) = 58.76007 60.76686 59.76346
# Shear Modulus (GPa) = 23.42904 25.23433 24.33168
#
# Velocity S-wave (km/s) = 3.57011 3.70510 3.63823
# Velocity P-wave (km/s) = 6.99718 7.16670 7.08245
#
# Compressibility (1/GPa) = 0.01701836
#
# Stress axis : x y z
#
# Youngs Moduli (GPa) = 62.26598 62.26598 83.73809
#
# Poissons Ratio (x) = 0.58838 0.17051
# Poissons Ratio (y) = 0.58838 0.17051
# Poissons Ratio (z) = 0.12679 0.12679
#
# Static dielectric constant tensor:
#      x y z
#    x 3.325840 0.000000 0.000000 
#    y 0.000000 3.325840 0.000000 
#    z 0.000000 0.000000 3.629440 
# 
# 
# High freq. dielectric constant tensor:
#      x y z
#    x 1.700030 0.000000 0.000000 
#    y 0.000000 1.700030 0.000000 
#    z 0.000000 0.000000 1.732150 
# 
# From -- ./inp_files/3415.got.cif
#   From: 2010.03.12/outbox.cif.g09.slc.cpg/sg129_2_cif.got.tgz:3415.got - 2010.04.06 17:19:44.
