data_PCOD8315740
_publ_section_title
;
Structure prediction by ZEFSAII (Michael W. Deem and Ramdas Pophale) SiO2 
 PCOD8315740
Probable space group: P 42/M M C
;
_chemical_formula_sum "Si O2"
_cell_formula_units_Z 104
_cell_length_a 22.931452
_cell_length_b 22.931452
_cell_length_c 15.742644
_cell_angle_alpha 90.000000
_cell_angle_beta 90.000000
_cell_angle_gamma 90.000000
_cell_volume 8278.292817
_symmetry_space_group_name_H-M "P 42/M M C"
_symmetry_group_IT_number 131
_symmetry_cell_setting 'tetragonal'
loop_
_space_group_symop_operation_xyz
x,y,z
-x,-y,z
-y,x,1/2+z
y,-x,1/2+z
-x,y,-z
x,-y,-z
y,x,1/2-z
-y,-x,1/2-z
-x,-y,-z
x,y,-z
y,-x,1/2-z
-y,x,1/2-z
x,-y,z
-x,y,z
-y,-x,1/2+z
y,x,1/2+z
loop_
_atom_site_type_symbol
_atom_site_label
_atom_site_fract_x
_atom_site_fract_y
_atom_site_fract_z
Si Si1 0.933961 0.755967 0.362078
Si Si2 0.565637 0.930367 0.259962
Si Si3 0.883581 0.874172 0.596617
Si Si4 0.934138 0.227685 0.835764
Si Si5 0.065749 0.000000 0.898864
Si Si6 0.371542 0.069200 0.906713
Si Si7 0.348921 0.069272 0.594585
O O1 0.890862 0.804749 0.398927
O O2 0.933070 0.753760 0.261259
O O3 0.909283 0.694793 0.395995
O O4 0.000000 0.767684 0.395013
O O5 0.500000 0.907610 0.273968
O O6 0.588322 0.905624 0.169100
O O7 0.605497 0.905148 0.336550
O O8 0.567519 0.000000 0.259890
O O9 0.873867 0.894793 0.500000
O O10 0.828057 0.893313 0.650973
O O11 0.941993 0.902956 0.636629
O O12 0.909058 0.282982 0.887769
O O13 0.000000 0.212030 0.865004
O O14 0.000000 0.000000 0.865038
O O15 0.069206 0.000000 0.000000
O O16 0.371986 0.000000 0.899855
O O17 0.394758 0.089299 0.000000
O O18 0.367683 0.089565 0.500000
O O19 0.349178 0.000000 0.602354
#
# Coordination Sequence:
#
# PCOD8315740 Si02
#       7
#    16  16  16  16   8  16  16
#     4  10  18  30  43  53  70  90 115 145 178 214
#     4   9  16  26  39  57  78  95 110 132 159 192
#     4  11  20  29  41  56  69  86 116 148 183 228
#     4  10  19  30  43  54  70  91 116 146 182 220
#     4   9  18  30  40  50  68  86 106 148 195 230
#     4   9  16  26  41  57  73  95 115 134 163 200
#     4   9  16  27  41  56  73  94 116 137 164 203
#
# _framework density 12.562977
#
# number of rings (size 3 to 8) (size 9 to 14) (size 15 to 20)
#    0.000    2.385    2.308    1.846    0.000    2.769 
#    0.000    3.077    0.000    0.000    0.000    0.000 
#    0.000    0.000    0.000    0.000    0.000    0.000 
#
# Total GULP energy -1289336.278240 kJ/mol
# GULP energy per Si atom -12397.464214 kJ/mol
# Density = 1.253438 g / cm^3
# Si number density = 12.562977 Si / 1000 Ang^3
#
#
#
# Elastic Constant Matrix: (Units=GPa)
#
#
# Indices 1 2 3 4 5 6 
#
# 1 58.4813 14.2370 22.9916 0.0000 0.0000 0.0000
# 2 14.2370 58.4813 22.9916 0.0000 0.0000 0.0000
# 3 22.9916 22.9916 76.4139 0.0000 0.0000 0.0000
# 4 0.0000 0.0000 0.0000 12.9873 0.0000 0.0000
# 5 0.0000 0.0000 0.0000 0.0000 12.9873 0.0000
# 6 0.0000 0.0000 0.0000 0.0000 0.0000 3.0990
#
#
#
# Elastic Compliance Matrix: (Units=1/GPa)
#
#
# Indices 1 2 3 4 5 6 
#
# 1 0.019792 -0.002809 -0.005110 0.000000 0.000000 0.000000
# 2 -0.002809 0.019792 -0.005110 0.000000 0.000000 0.000000
# 3 -0.005110 -0.005110 0.016162 0.000000 0.000000 0.000000
# 4 0.000000 0.000000 0.000000 0.076998 0.000000 0.000000
# 5 0.000000 0.000000 0.000000 0.000000 0.076998 0.000000
# 6 0.000000 0.000000 0.000000 0.000000 0.000000 0.322683
#
#
# Mechanical properties :
#
#
# Convention : Reuss Voigt Hill
#
# Bulk Modulus (GPa) = 33.68374 34.86855 34.27615
# Shear Modulus (GPa) = 8.79693 14.69183 11.74438
#
# Velocity S-wave (km/s) = 2.64905 3.42344 3.06083
# Velocity P-wave (km/s) = 6.01887 6.59104 6.31144
#
# Compressibility (1/GPa) = 0.02968792
#
# Stress axis : x y z
#
# Youngs Moduli (GPa) = 50.52461 50.52461 61.87519
#
# Poissons Ratio (x) = 0.14195 0.31617
# Poissons Ratio (y) = 0.14195 0.31617
# Poissons Ratio (z) = 0.25817 0.25817
#
# Static dielectric constant tensor:
#      x y z
#    x 2.332270 0.000000 0.000000 
#    y 0.000000 2.332270 0.000000 
#    z 0.000000 0.000000 2.728290 
# 
# 
# High freq. dielectric constant tensor:
#      x y z
#    x 1.433250 0.000000 0.000000 
#    y 0.000000 1.433250 0.000000 
#    z 0.000000 0.000000 1.496680 
# 
# From -- ./inp_files/6401.got.cif
#   From: 2010.03.12/outbox.cif.g09.slc.cpg/sg131_4_cif.got.tgz:6401.got - 2010.04.06 17:36:35.
