data_PCOD8315367
_publ_section_title
;
Structure prediction by ZEFSAII (Michael W. Deem and Ramdas Pophale) SiO2 
 PCOD8315367
Probable space group: P 4/N M M
;
_chemical_formula_sum "Si O2"
_cell_formula_units_Z 128
_cell_length_a 22.956346
_cell_length_b 22.956346
_cell_length_c 12.990832
_cell_angle_alpha 90.000000
_cell_angle_beta 90.000000
_cell_angle_gamma 90.000000
_cell_volume 6846.088202
_symmetry_space_group_name_H-M "P 4/N M M"
_symmetry_group_IT_number 129
_symmetry_cell_setting 'tetragonal'
loop_
_space_group_symop_operation_xyz
x,y,z
1/2-y,x,z
1/2-x,1/2-y,z
y,1/2-x,z
1/2+x,-y,-z
-x,1/2+y,-z
1/2+y,1/2+x,-z
-y,-x,-z
-x,-y,-z
1/2+y,-x,-z
1/2+x,1/2+y,-z
-y,1/2+x,-z
1/2-x,y,z
x,1/2-y,z
1/2-y,1/2-x,z
y,x,z
loop_
_atom_site_type_symbol
_atom_site_label
_atom_site_fract_x
_atom_site_fract_y
_atom_site_fract_z
Si Si1 0.183785 0.410440 0.995994
Si Si2 0.063644 0.346854 0.395400
Si Si3 0.182663 0.085210 0.624662
Si Si4 0.682315 0.316250 0.117712
Si Si5 0.814548 0.987742 0.813087
Si Si6 0.532063 0.442224 0.391340
Si Si7 0.900605 0.406569 0.794933
Si Si8 0.375321 0.471533 0.816808
O O1 0.250000 0.391008 0.991296
O O2 0.147729 0.352272 0.980365
O O3 0.171329 0.454937 0.903471
O O4 0.168128 0.438662 0.105503
O O5 0.130025 0.369975 0.378282
O O6 0.059398 0.316982 0.507977
O O7 0.042035 0.307799 0.299878
O O8 0.023194 0.402175 0.390905
O O9 0.250000 0.098464 0.654540
O O10 0.144936 0.144936 0.631446
O O11 0.154927 0.037759 0.704143
O O12 0.750000 0.324606 0.139157
O O13 0.663626 0.250000 0.140281
O O14 0.648838 0.358883 0.194517
O O15 0.667212 0.332788 0.000000
O O16 0.750000 0.013886 0.838060
O O17 0.864599 0.036282 0.829163
O O18 0.561541 0.438460 0.500000
O O19 0.508064 0.508064 0.363893
O O20 0.584499 0.420147 0.321781
O O21 0.962573 0.394233 0.848887
O O22 0.433055 0.433055 0.826371
#
# Coordination Sequence:
#
# PCOD8315367 Si02
#       8
#    16  16  16  16  16  16  16  16
#     4  10  22  39  57  78 108 143 178 218 262 314
#     4   9  17  30  51  77 105 140 176 214 264 316
#     4  10  20  35  55  78 107 141 180 227 276 325
#     4   9  20  38  57  77 104 140 184 233 283 336
#     4  10  21  35  53  80 112 142 177 221 269 319
#     4   9  17  31  51  77 111 145 177 213 259 321
#     4  11  21  33  57  84 105 141 184 224 268 330
#     4  10  22  37  52  77 111 142 176 221 274 323
#
# _framework density 18.696808999999998
#
# number of rings (size 3 to 8) (size 9 to 14) (size 15 to 20)
#    0.000    2.250    0.000    3.000    1.750    4.750 
#    0.000    1.250    0.000    3.750    0.000    2.625 
#    0.000    0.000    0.000    0.000    0.000    0.000 
#
# Total GULP energy -1585781.350511 kJ/mol
# GULP energy per Si atom -12388.916801 kJ/mol
# Density = 1.865425 g / cm^3
# Si number density = 18.696809 Si / 1000 Ang^3
#
#
#
# Elastic Constant Matrix: (Units=GPa)
#
#
# Indices 1 2 3 4 5 6 
#
# 1 93.4675 50.9881 44.2640 0.0000 0.0000 0.0000
# 2 50.9881 93.4675 44.2645 0.0000 0.0000 0.0000
# 3 44.2640 44.2645 104.7433 0.0000 0.0000 0.0000
# 4 0.0000 0.0000 0.0000 27.1483 0.0000 0.0000
# 5 0.0000 0.0000 0.0000 0.0000 27.1480 0.0000
# 6 0.0000 0.0000 0.0000 0.0000 0.0000 20.3394
#
#
#
# Elastic Compliance Matrix: (Units=1/GPa)
#
#
# Indices 1 2 3 4 5 6 
#
# 1 0.016441 -0.007099 -0.003948 0.000000 0.000000 0.000000
# 2 -0.007099 0.016441 -0.003948 0.000000 0.000000 0.000000
# 3 -0.003948 -0.003948 0.012884 0.000000 0.000000 0.000000
# 4 0.000000 0.000000 0.000000 0.036835 0.000000 0.000000
# 5 0.000000 0.000000 0.000000 0.000000 0.036835 0.000000
# 6 0.000000 0.000000 0.000000 0.000000 0.000000 0.049166
#
#
# Mechanical properties :
#
#
# Convention : Reuss Voigt Hill
#
# Bulk Modulus (GPa) = 63.38637 63.41240 63.39938
# Shear Modulus (GPa) = 24.52766 25.07124 24.79945
#
# Velocity S-wave (km/s) = 3.62589 3.66585 3.64593
# Velocity P-wave (km/s) = 7.17672 7.20470 7.19073
#
# Compressibility (1/GPa) = 0.01577626
#
# Stress axis : x y z
#
# Youngs Moduli (GPa) = 60.82219 60.82188 77.61633
#
# Poissons Ratio (x) = 0.43180 0.30642
# Poissons Ratio (y) = 0.43180 0.30643
# Poissons Ratio (z) = 0.24012 0.24012
#
# Static dielectric constant tensor:
#      x y z
#    x 3.727080 0.000000 0.000000 
#    y 0.000000 3.727100 0.000000 
#    z 0.000000 0.000000 3.470710 
# 
# 
# High freq. dielectric constant tensor:
#      x y z
#    x 1.721930 0.000000 0.000000 
#    y 0.000000 1.721930 0.000000 
#    z 0.000000 0.000000 1.726360 
# 
# From -- ./inp_files/4207.got.cif
#   From: 2010.03.12/outbox.cif.g09.slc.cpg/sg129_3_cif.got.tgz:4207.got - 2010.04.06 17:19:44.
