data_PCOD8315271
_publ_section_title
;
Structure prediction by ZEFSAII (Michael W. Deem and Ramdas Pophale) SiO2 
 PCOD8315271
Probable space group: P 4/N M M
;
_chemical_formula_sum "Si O2"
_cell_formula_units_Z 112
_cell_length_a 13.842187
_cell_length_b 13.842187
_cell_length_c 36.042605
_cell_angle_alpha 90.000000
_cell_angle_beta 90.000000
_cell_angle_gamma 90.000000
_cell_volume 6905.984454
_symmetry_space_group_name_H-M "P 4/N M M"
_symmetry_group_IT_number 129
_symmetry_cell_setting 'tetragonal'
loop_
_space_group_symop_operation_xyz
x,y,z
1/2-y,x,z
1/2-x,1/2-y,z
y,1/2-x,z
1/2+x,-y,-z
-x,1/2+y,-z
1/2+y,1/2+x,-z
-y,-x,-z
-x,-y,-z
1/2+y,-x,-z
1/2+x,1/2+y,-z
-y,1/2+x,-z
1/2-x,y,z
x,1/2-y,z
1/2-y,1/2-x,z
y,x,z
loop_
_atom_site_type_symbol
_atom_site_label
_atom_site_fract_x
_atom_site_fract_y
_atom_site_fract_z
Si Si1 0.638520 0.481130 0.026929
Si Si2 0.522496 0.137272 0.528585
Si Si3 0.358635 0.987726 0.609227
Si Si4 0.637099 0.359280 0.820586
Si Si5 0.521389 0.135984 0.250905
Si Si6 0.139615 0.514768 0.889522
Si Si7 0.363963 0.976079 0.690050
O O1 0.750000 0.504893 0.019168
O O2 0.578869 0.578869 0.018947
O O3 0.621756 0.444164 0.069069
O O4 0.604373 0.395628 0.000000
O O5 0.604685 0.104685 0.500000
O O6 0.498406 0.250000 0.522143
O O7 0.567371 0.118826 0.570294
O O8 0.424451 0.075550 0.522407
O O9 0.250000 0.021484 0.609460
O O10 0.411786 0.088215 0.608981
O O11 0.381493 0.932883 0.648095
O O12 0.750000 0.363714 0.826444
O O13 0.604084 0.250000 0.810786
O O14 0.604606 0.430186 0.787814
O O15 0.592394 0.395578 0.859339
O O16 0.500905 0.250000 0.253135
O O17 0.419964 0.080037 0.255313
O O18 0.596251 0.106842 0.283068
O O19 0.250000 0.487730 0.883400
O O20 0.084166 0.415835 0.883014
O O21 0.250000 0.995093 0.697671
O O22 0.423871 0.076130 0.696079
#
# Coordination Sequence:
#
# PCOD8315271 Si02
#       7
#    16  16  16  16  16  16  16
#     4   9  18  31  46  66  91 119 152 188 225 265
#     4   9  17  29  45  65  89 117 148 182 220 261
#     4   8  14  25  41  62  88 115 143 176 214 258
#     4   9  17  29  46  68  91 114 142 176 216 264
#     4  10  20  33  49  67  87 115 151 190 229 263
#     4   9  17  29  45  65  90 118 146 177 213 256
#     4   9  17  29  46  69  95 120 145 174 212 262
#
# _framework density 16.217818999999999
#
# number of rings (size 3 to 8) (size 9 to 14) (size 15 to 20)
#    0.000    3.000    0.000    0.857    0.000    2.571 
#    0.000    6.429    0.000    2.571    0.000    2.000 
#    0.000    9.143    0.000    0.000    0.000    0.000 
#
# Total GULP energy -1387659.014228 kJ/mol
# GULP energy per Si atom -12389.812627 kJ/mol
# Density = 1.618091 g / cm^3
# Si number density = 16.217819 Si / 1000 Ang^3
#
#
#
# Elastic Constant Matrix: (Units=GPa)
#
#
# Indices 1 2 3 4 5 6 
#
# 1 69.9088 34.3802 53.6245 0.0000 0.0000 0.0000
# 2 34.3802 69.9102 53.6250 0.0000 0.0000 0.0000
# 3 53.6245 53.6250 131.7647 0.0000 0.0000 0.0000
# 4 0.0000 0.0000 0.0000 25.0791 0.0000 0.0000
# 5 0.0000 0.0000 0.0000 0.0000 25.0791 0.0000
# 6 0.0000 0.0000 0.0000 0.0000 0.0000 15.9235
#
#
#
# Elastic Compliance Matrix: (Units=1/GPa)
#
#
# Indices 1 2 3 4 5 6 
#
# 1 0.022318 -0.005828 -0.006711 0.000000 0.000000 0.000000
# 2 -0.005828 0.022318 -0.006711 0.000000 0.000000 0.000000
# 3 -0.006711 -0.006711 0.013052 0.000000 0.000000 0.000000
# 4 0.000000 0.000000 0.000000 0.039874 0.000000 0.000000
# 5 0.000000 0.000000 0.000000 0.000000 0.039874 0.000000
# 6 0.000000 0.000000 0.000000 0.000000 0.000000 0.062800
#
#
# Mechanical properties :
#
#
# Convention : Reuss Voigt Hill
#
# Bulk Modulus (GPa) = 52.11627 61.64922 56.88274
# Shear Modulus (GPa) = 20.39722 21.87995 21.13858
#
# Velocity S-wave (km/s) = 3.55026 3.67704 3.61420
# Velocity P-wave (km/s) = 7.00077 7.49154 7.25031
#
# Compressibility (1/GPa) = 0.01918787
#
# Stress axis : x y z
#
# Youngs Moduli (GPa) = 44.80645 44.80739 76.61813
#
# Poissons Ratio (x) = 0.26113 0.51419
# Poissons Ratio (y) = 0.26112 0.51419
# Poissons Ratio (z) = 0.30070 0.30070
#
# Static dielectric constant tensor:
#      x y z
#    x 2.906340 0.000000 0.000000 
#    y 0.000000 2.906340 0.000000 
#    z 0.000000 0.000000 3.539070 
# 
# 
# High freq. dielectric constant tensor:
#      x y z
#    x 1.606760 0.000000 0.000000 
#    y 0.000000 1.606760 0.000000 
#    z 0.000000 0.000000 1.644190 
# 
# From -- ./inp_files/7889.got.cif
#   From: 2010.03.12/outbox.cif.g09.slc.cpg/sg129_4_cif.got.tgz:7889.got - 2010.04.06 17:19:44.
