data_PCOD8315116
_publ_section_title
;
Structure prediction by ZEFSAII (Michael W. Deem and Ramdas Pophale) SiO2 
 PCOD8315116
Probable space group: P 4/N M M
;
_chemical_formula_sum "Si O2"
_cell_formula_units_Z 96
_cell_length_a 23.643122
_cell_length_b 23.643122
_cell_length_c 9.834281
_cell_angle_alpha 90.000000
_cell_angle_beta 90.000000
_cell_angle_gamma 90.000000
_cell_volume 5497.335719
_symmetry_space_group_name_H-M "P 4/N M M"
_symmetry_group_IT_number 129
_symmetry_cell_setting 'tetragonal'
loop_
_space_group_symop_operation_xyz
x,y,z
1/2-y,x,z
1/2-x,1/2-y,z
y,1/2-x,z
1/2+x,-y,-z
-x,1/2+y,-z
1/2+y,1/2+x,-z
-y,-x,-z
-x,-y,-z
1/2+y,-x,-z
1/2+x,1/2+y,-z
-y,1/2+x,-z
1/2-x,y,z
x,1/2-y,z
1/2-y,1/2-x,z
y,x,z
loop_
_atom_site_type_symbol
_atom_site_label
_atom_site_fract_x
_atom_site_fract_y
_atom_site_fract_z
Si Si1 0.999772 0.814696 0.892436
Si Si2 0.595882 0.104559 0.159681
Si Si3 0.115945 0.478107 0.835542
Si Si4 0.315878 0.406694 0.625856
Si Si5 0.188570 0.098775 0.320465
Si Si6 0.187093 0.812359 0.837802
O O1 0.022978 0.750000 0.917530
O O2 0.947204 0.811492 0.795032
O O3 0.042238 0.855696 0.810153
O O4 0.983053 0.843258 0.034780
O O5 0.649132 0.137524 0.225808
O O6 0.591793 0.039750 0.211775
O O7 0.603112 0.103112 0.000000
O O8 0.062624 0.437377 0.867816
O O9 0.154061 0.454635 0.714385
O O10 0.250000 0.401258 0.666013
O O11 0.345784 0.345784 0.650771
O O12 0.325271 0.426152 0.469839
O O13 0.250000 0.127821 0.329045
O O14 0.145372 0.145372 0.271509
O O15 0.250000 0.823044 0.783146
O O16 0.165961 0.750000 0.790637
O O17 0.185475 0.814525 0.000000
#
# Coordination Sequence:
#
# PCOD8315116 Si02
#       6
#    16  16  16  16  16  16
#     4  10  19  31  49  70  93 123 157 195 236 278
#     4   9  18  28  42  64  91 121 155 191 228 276
#     4  10  20  32  47  69  96 127 160 194 233 277
#     4   9  18  33  51  71  96 123 154 192 231 276
#     4   9  18  32  50  71  94 122 154 190 234 279
#     4   8  13  22  37  58  85 114 144 183 230 275
#
# _framework density 17.463004000000002
#
# number of rings (size 3 to 8) (size 9 to 14) (size 15 to 20)
#    0.000    2.833    0.000    2.000    0.000    8.667 
#    0.000    2.500    0.000    3.000    0.000    2.333 
#    0.000    0.000    0.000    8.167    0.000   10.333 
#
# Total GULP energy -1189387.374395 kJ/mol
# GULP energy per Si atom -12389.451817 kJ/mol
# Density = 1.742326 g / cm^3
# Si number density = 17.463004 Si / 1000 Ang^3
#
#
#
# Elastic Constant Matrix: (Units=GPa)
#
#
# Indices 1 2 3 4 5 6 
#
# 1 114.4511 58.9641 24.2393 0.0000 0.0000 0.0000
# 2 58.9641 114.4511 24.2395 0.0000 0.0000 0.0000
# 3 24.2393 24.2395 39.5357 0.0000 0.0000 0.0000
# 4 0.0000 0.0000 0.0000 13.9616 0.0000 0.0000
# 5 0.0000 0.0000 0.0000 0.0000 13.9616 0.0000
# 6 0.0000 0.0000 0.0000 0.0000 0.0000 32.2881
#
#
#
# Elastic Compliance Matrix: (Units=1/GPa)
#
#
# Indices 1 2 3 4 5 6 
#
# 1 0.012491 -0.005531 -0.004267 0.000000 0.000000 0.000000
# 2 -0.005531 0.012491 -0.004267 0.000000 0.000000 0.000000
# 3 -0.004267 -0.004267 0.030525 0.000000 0.000000 0.000000
# 4 0.000000 0.000000 0.000000 0.071625 0.000000 0.000000
# 5 0.000000 0.000000 0.000000 0.000000 0.071625 0.000000
# 6 0.000000 0.000000 0.000000 0.000000 0.000000 0.030971
#
#
# Mechanical properties :
#
#
# Convention : Reuss Voigt Hill
#
# Bulk Modulus (GPa) = 36.52693 53.70263 45.11478
# Shear Modulus (GPa) = 18.72774 22.77526 20.75150
#
# Velocity S-wave (km/s) = 3.27834 3.61529 3.45093
# Velocity P-wave (km/s) = 5.94072 6.94594 6.46290
#
# Compressibility (1/GPa) = 0.02737706
#
# Stress axis : x y z
#
# Youngs Moduli (GPa) = 80.05920 80.05907 32.75951
#
# Poissons Ratio (x) = 0.44284 0.13978
# Poissons Ratio (y) = 0.44285 0.13978
# Poissons Ratio (z) = 0.34159 0.34160
#
# Static dielectric constant tensor:
#      x y z
#    x 3.691150 0.000000 0.000000 
#    y 0.000000 3.691150 0.000000 
#    z 0.000000 0.000000 2.891420 
# 
# 
# High freq. dielectric constant tensor:
#      x y z
#    x 1.684410 0.000000 0.000000 
#    y 0.000000 1.684410 0.000000 
#    z 0.000000 0.000000 1.631990 
# 
# From -- ./inp_files/2609.got.cif
#   From: 2010.03.12/outbox.cif.g09.slc.cpg/sg129_2_cif.got.tgz:2609.got - 2010.04.06 17:19:44.
