data_PCOD8315410
_publ_section_title
;
Structure prediction by ZEFSAII (Michael W. Deem and Ramdas Pophale) SiO2 
 PCOD8315410
Probable space group: P 4/N M M
;
_chemical_formula_sum "Si O2"
_cell_formula_units_Z 96
_cell_length_a 20.422214
_cell_length_b 20.422214
_cell_length_c 12.022274
_cell_angle_alpha 90.000000
_cell_angle_beta 90.000000
_cell_angle_gamma 90.000000
_cell_volume 5014.091642
_symmetry_space_group_name_H-M "P 4/N M M"
_symmetry_group_IT_number 129
_symmetry_cell_setting 'tetragonal'
loop_
_space_group_symop_operation_xyz
x,y,z
1/2-y,x,z
1/2-x,1/2-y,z
y,1/2-x,z
1/2+x,-y,-z
-x,1/2+y,-z
1/2+y,1/2+x,-z
-y,-x,-z
-x,-y,-z
1/2+y,-x,-z
1/2+x,1/2+y,-z
-y,1/2+x,-z
1/2-x,y,z
x,1/2-y,z
1/2-y,1/2-x,z
y,x,z
loop_
_atom_site_type_symbol
_atom_site_label
_atom_site_fract_x
_atom_site_fract_y
_atom_site_fract_z
Si Si1 0.931974 0.675404 0.384393
Si Si2 0.826686 0.176306 0.373557
Si Si3 0.507665 0.402000 0.437892
Si Si4 0.821387 0.427676 0.987642
Si Si5 0.593502 0.011821 0.804990
Si Si6 0.353359 0.549181 0.775299
O O1 0.907521 0.750000 0.398583
O O2 0.869804 0.630197 0.353161
O O3 0.965670 0.651290 0.497203
O O4 0.988234 0.672290 0.293355
O O5 0.845408 0.154593 0.500000
O O6 0.750000 0.182232 0.365128
O O7 0.855959 0.250000 0.347168
O O8 0.848275 0.119920 0.286629
O O9 0.575155 0.424846 0.500000
O O10 0.468518 0.468518 0.415432
O O11 0.519208 0.370655 0.315975
O O12 0.750000 0.411900 0.938569
O O13 0.855149 0.479680 0.904813
O O14 0.860548 0.360548 0.000000
O O15 0.812591 0.455987 0.111375
O O16 0.539951 0.070335 0.807633
O O17 0.557568 0.942433 0.822172
#
# Coordination Sequence:
#
# PCOD8315410 Si02
#       6
#    16  16  16  16  16  16
#     4  11  23  37  57  84 114 153 195 239 294 348
#     4   9  19  34  51  78 117 155 190 230 278 334
#     4   9  17  34  58  84 112 138 173 226 289 348
#     4  10  23  39  55  79 112 150 193 232 275 333
#     4  10  21  37  59  83 110 143 182 233 286 336
#     4  11  21  35  56  82 112 147 190 237 288 342
#
# _framework density 19.146039999999999
#
# number of rings (size 3 to 8) (size 9 to 14) (size 15 to 20)
#    0.000    2.000    1.667    2.500    2.333    7.333 
#    0.000    0.000    0.000    0.000    0.000    0.000 
#    0.000    0.333    0.000    0.333    0.000    0.000 
#
# Total GULP energy -1189302.498739 kJ/mol
# GULP energy per Si atom -12388.567695 kJ/mol
# Density = 1.910246 g / cm^3
# Si number density = 19.146040 Si / 1000 Ang^3
#
#
#
# Elastic Constant Matrix: (Units=GPa)
#
#
# Indices 1 2 3 4 5 6 
#
# 1 97.1568 48.4445 46.5853 0.0000 0.0000 0.0000
# 2 48.4445 97.1614 46.5866 0.0000 0.0000 0.0000
# 3 46.5853 46.5866 144.2686 0.0000 0.0000 0.0000
# 4 0.0000 0.0000 0.0000 6.5911 0.0000 0.0000
# 5 0.0000 0.0000 0.0000 0.0000 6.5892 0.0000
# 6 0.0000 0.0000 0.0000 0.0000 0.0000 17.2445
#
#
#
# Elastic Compliance Matrix: (Units=1/GPa)
#
#
# Indices 1 2 3 4 5 6 
#
# 1 0.014593 -0.005936 -0.002795 0.000000 0.000000 0.000000
# 2 -0.005936 0.014592 -0.002795 0.000000 0.000000 0.000000
# 3 -0.002795 -0.002795 0.008737 0.000000 0.000000 0.000000
# 4 0.000000 0.000000 0.000000 0.151719 0.000000 0.000000
# 5 0.000000 0.000000 0.000000 0.000000 0.151764 0.000000
# 6 0.000000 0.000000 0.000000 0.000000 0.000000 0.057990
#
#
# Mechanical properties :
#
#
# Convention : Reuss Voigt Hill
#
# Bulk Modulus (GPa) = 67.25474 69.09106 68.17290
# Shear Modulus (GPa) = 11.69857 19.21632 15.45745
#
# Velocity S-wave (km/s) = 2.47456 3.17151 2.84446
# Velocity P-wave (km/s) = 6.58544 7.04102 6.81704
#
# Compressibility (1/GPa) = 0.01486884
#
# Stress axis : x y z
#
# Youngs Moduli (GPa) = 68.52808 68.53124 114.45819
#
# Poissons Ratio (x) = 0.40677 0.31995
# Poissons Ratio (y) = 0.40675 0.31995
# Poissons Ratio (z) = 0.19156 0.19157
#
# Static dielectric constant tensor:
#      x y z
#    x 3.580720 0.000000 0.000000 
#    y 0.000000 3.580670 0.000000 
#    z 0.000000 0.000000 3.947150 
# 
# 
# High freq. dielectric constant tensor:
#      x y z
#    x 1.727620 0.000000 0.000000 
#    y 0.000000 1.727620 0.000000 
#    z 0.000000 0.000000 1.756590 
# 
# From -- ./inp_files/3857.got.cif
#   From: 2010.03.12/outbox.cif.g09.slc.cpg/sg129_2_cif.got.tgz:3857.got - 2010.04.06 17:19:44.
