data_PCOD8315167
_publ_section_title
;
Structure prediction by ZEFSAII (Michael W. Deem and Ramdas Pophale) SiO2 
 PCOD8315167
Probable space group: P 4/N M M
;
_chemical_formula_sum "Si O2"
_cell_formula_units_Z 96
_cell_length_a 31.915637
_cell_length_b 31.915637
_cell_length_c 4.963866
_cell_angle_alpha 90.000000
_cell_angle_beta 90.000000
_cell_angle_gamma 90.000000
_cell_volume 5056.233048
_symmetry_space_group_name_H-M "P 4/N M M"
_symmetry_group_IT_number 129
_symmetry_cell_setting 'tetragonal'
loop_
_space_group_symop_operation_xyz
x,y,z
1/2-y,x,z
1/2-x,1/2-y,z
y,1/2-x,z
1/2+x,-y,-z
-x,1/2+y,-z
1/2+y,1/2+x,-z
-y,-x,-z
-x,-y,-z
1/2+y,-x,-z
1/2+x,1/2+y,-z
-y,1/2+x,-z
1/2-x,y,z
x,1/2-y,z
1/2-y,1/2-x,z
y,x,z
loop_
_atom_site_type_symbol
_atom_site_label
_atom_site_fract_x
_atom_site_fract_y
_atom_site_fract_z
Si Si1 0.030354 0.660732 0.097598
Si Si2 0.750000 0.567120 0.581643
Si Si3 0.661725 0.596833 0.623906
Si Si4 0.556841 0.622720 0.124324
Si Si5 0.009910 0.250000 0.922260
Si Si6 0.085362 0.850306 0.600755
Si Si7 0.202063 0.836788 0.260714
O O1 0.048979 0.662714 0.396230
O O2 0.992797 0.626734 0.080647
O O3 0.016924 0.708098 0.023160
O O4 0.065304 0.643634 0.893892
O O5 0.710160 0.597082 0.542526
O O6 0.750000 0.527794 0.379916
O O7 0.750000 0.549252 0.881100
O O8 0.643998 0.643998 0.593192
O O9 0.636491 0.565561 0.429293
O O10 0.655034 0.580334 0.926422
O O11 0.575436 0.575436 0.076334
O O12 0.106827 0.893174 0.500000
O O13 0.119090 0.813039 0.618374
O O14 0.197209 0.802792 0.500000
O O15 0.250000 0.839512 0.169761
O O16 0.174676 0.825324 0.000000
#
# Coordination Sequence:
#
# PCOD8315167 Si02
#       7
#    16   8  16  16   8  16  16
#     4  12  22  38  62  88 117 152 190 238 291 345
#     4  12  18  36  50  81 130 144 190 242 289 354
#     4  10  19  32  51  76 115 161 191 228 290 347
#     4  10  20  36  56  85 116 149 190 235 290 349
#     4  12  24  32  58  96 120 145 177 250 304 344
#     4  11  25  43  61  82 119 158 192 227 283 352
#     4  11  24  42  62  87 116 149 192 236 279 335
#
# _framework density 18.986464999999999
#
# number of rings (size 3 to 8) (size 9 to 14) (size 15 to 20)
#    0.000    1.000    3.333    5.000    2.333    1.000 
#    0.000    0.000    0.000    3.250    0.000    0.000 
#    0.000    5.333    0.000    0.000    0.000    0.833 
#
# Total GULP energy -1190569.175960 kJ/mol
# GULP energy per Si atom -12401.762250 kJ/mol
# Density = 1.894325 g / cm^3
# Si number density = 18.986465 Si / 1000 Ang^3
#
#
#
# Elastic Constant Matrix: (Units=GPa)
#
#
# Indices 1 2 3 4 5 6 
#
# 1 100.8536 52.2634 14.4735 0.0000 0.0000 0.0000
# 2 52.2634 100.8499 14.4728 0.0000 0.0000 0.0000
# 3 14.4735 14.4728 75.6921 0.0000 0.0000 0.0000
# 4 0.0000 0.0000 0.0000 25.1501 0.0000 0.0000
# 5 0.0000 0.0000 0.0000 0.0000 25.1509 0.0000
# 6 0.0000 0.0000 0.0000 0.0000 0.0000 24.6339
#
#
#
# Elastic Compliance Matrix: (Units=1/GPa)
#
#
# Indices 1 2 3 4 5 6 
#
# 1 0.013678 -0.006903 -0.001296 0.000000 0.000000 0.000000
# 2 -0.006903 0.013679 -0.001296 0.000000 0.000000 0.000000
# 3 -0.001296 -0.001296 0.013707 0.000000 0.000000 0.000000
# 4 0.000000 0.000000 0.000000 0.039761 0.000000 0.000000
# 5 0.000000 0.000000 0.000000 0.000000 0.039760 0.000000
# 6 0.000000 0.000000 0.000000 0.000000 0.000000 0.040594
#
#
# Mechanical properties :
#
#
# Convention : Reuss Voigt Hill
#
# Bulk Modulus (GPa) = 45.29750 48.86836 47.08293
# Shear Modulus (GPa) = 26.66295 28.06603 27.36449
#
# Velocity S-wave (km/s) = 3.75148 3.84892 3.80052
# Velocity P-wave (km/s) = 6.53256 6.74883 6.64158
#
# Compressibility (1/GPa) = 0.02207628
#
# Stress axis : x y z
#
# Youngs Moduli (GPa) = 73.10859 73.10602 72.95597
#
# Poissons Ratio (x) = 0.50462 0.09453
# Poissons Ratio (y) = 0.50464 0.09452
# Poissons Ratio (z) = 0.09473 0.09472
#
# Static dielectric constant tensor:
#      x y z
#    x 3.475830 0.000000 0.000000 
#    y 0.000000 3.475830 0.000000 
#    z 0.000000 0.000000 3.623180 
# 
# 
# High freq. dielectric constant tensor:
#      x y z
#    x 1.722580 0.000000 0.000000 
#    y 0.000000 1.722580 0.000000 
#    z 0.000000 0.000000 1.762810 
# 
# From -- ./inp_files/1140.got.cif
#   From: 2010.03.12/outbox.cif.g09.slc.cpg/sg129_1_cif.got.tgz:1140.got - 2010.04.06 17:19:44.
