data_PCOD8315313
_publ_section_title
;
Structure prediction by ZEFSAII (Michael W. Deem and Ramdas Pophale) SiO2 
 PCOD8315313
Probable space group: P 4/N M M
;
_chemical_formula_sum "Si O2"
_cell_formula_units_Z 64
_cell_length_a 13.321870
_cell_length_b 13.321870
_cell_length_c 20.391976
_cell_angle_alpha 90.000000
_cell_angle_beta 90.000000
_cell_angle_gamma 90.000000
_cell_volume 3619.009257
_symmetry_space_group_name_H-M "P 4/N M M"
_symmetry_group_IT_number 129
_symmetry_cell_setting 'tetragonal'
loop_
_space_group_symop_operation_xyz
x,y,z
1/2-y,x,z
1/2-x,1/2-y,z
y,1/2-x,z
1/2+x,-y,-z
-x,1/2+y,-z
1/2+y,1/2+x,-z
-y,-x,-z
-x,-y,-z
1/2+y,-x,-z
1/2+x,1/2+y,-z
-y,1/2+x,-z
1/2-x,y,z
x,1/2-y,z
1/2-y,1/2-x,z
y,x,z
loop_
_atom_site_type_symbol
_atom_site_label
_atom_site_fract_x
_atom_site_fract_y
_atom_site_fract_z
Si Si1 0.632302 0.471327 0.677686
Si Si2 0.031851 0.632927 0.439516
Si Si3 0.865634 0.364878 0.811485
Si Si4 0.133475 0.972261 0.944029
O O1 0.750000 0.488955 0.668147
O O2 0.577159 0.577159 0.665110
O O3 0.593540 0.388644 0.626600
O O4 0.605023 0.432997 0.749985
O O5 0.101354 0.601354 0.500000
O O6 0.006050 0.750000 0.443837
O O7 0.926899 0.573102 0.440675
O O8 0.750000 0.378662 0.830418
O O9 0.888940 0.250000 0.792980
O O10 0.929536 0.400097 0.873733
O O11 0.250000 0.997705 0.945638
O O12 0.109008 0.890993 0.000000
O O13 0.075003 0.075003 0.958221
#
# Coordination Sequence:
#
# PCOD8315313 Si02
#       4
#    16  16  16  16
#     4  10  20  33  50  73 101 133 169 207 246 289
#     4  10  21  36  54  77 103 131 165 204 246 293
#     4   9  17  30  50  74  97 124 161 203 245 290
#     4  10  20  33  50  72  98 128 162 201 244 290
#
# _framework density 17.684398000000002
#
# number of rings (size 3 to 8) (size 9 to 14) (size 15 to 20)
#    0.000    2.250    0.000    3.000    0.000    4.750 
#    0.000    0.000    0.000    4.500    0.000    7.000 
#    0.000    0.000    0.000    0.000    0.000    0.000 
#
# Total GULP energy -793779.713860 kJ/mol
# GULP energy per Si atom -12402.808029 kJ/mol
# Density = 1.764415 g / cm^3
# Si number density = 17.684398 Si / 1000 Ang^3
#
#
#
# Elastic Constant Matrix: (Units=GPa)
#
#
# Indices 1 2 3 4 5 6 
#
# 1 102.0321 47.2860 48.9749 0.0000 0.0000 0.0000
# 2 47.2860 102.0337 48.9747 0.0000 0.0000 0.0000
# 3 48.9749 48.9747 106.8964 0.0000 0.0000 0.0000
# 4 0.0000 0.0000 0.0000 26.4111 0.0000 0.0000
# 5 0.0000 0.0000 0.0000 0.0000 26.4112 0.0000
# 6 0.0000 0.0000 0.0000 0.0000 0.0000 17.8328
#
#
#
# Elastic Compliance Matrix: (Units=1/GPa)
#
#
# Indices 1 2 3 4 5 6 
#
# 1 0.013920 -0.004346 -0.004387 0.000000 0.000000 0.000000
# 2 -0.004346 0.013920 -0.004387 0.000000 0.000000 0.000000
# 3 -0.004387 -0.004387 0.013374 0.000000 0.000000 0.000000
# 4 0.000000 0.000000 0.000000 0.037863 0.000000 0.000000
# 5 0.000000 0.000000 0.000000 0.000000 0.037863 0.000000
# 6 0.000000 0.000000 0.000000 0.000000 0.000000 0.056077
#
#
# Mechanical properties :
#
#
# Convention : Reuss Voigt Hill
#
# Bulk Modulus (GPa) = 66.76887 66.82593 66.79740
# Shear Modulus (GPa) = 24.48015 25.17944 24.82979
#
# Velocity S-wave (km/s) = 3.72463 3.77745 3.75113
# Velocity P-wave (km/s) = 7.50566 7.54292 7.52431
#
# Compressibility (1/GPa) = 0.01497704
#
# Stress axis : x y z
#
# Youngs Moduli (GPa) = 71.83708 71.83869 74.77013
#
# Poissons Ratio (x) = 0.31218 0.32799
# Poissons Ratio (y) = 0.31218 0.32798
# Poissons Ratio (z) = 0.31513 0.31512
#
# Static dielectric constant tensor:
#      x y z
#    x 3.120330 0.000000 0.000000 
#    y 0.000000 3.120330 0.000000 
#    z 0.000000 0.000000 3.457570 
# 
# 
# High freq. dielectric constant tensor:
#      x y z
#    x 1.678140 0.000000 0.000000 
#    y 0.000000 1.678140 0.000000 
#    z 0.000000 0.000000 1.702620 
# 
# From -- ./inp_files/5367.got.cif
#   From: 2010.03.12/outbox.cif.g09.slc.cpg/sg129_3_cif.got.tgz:5367.got - 2010.04.06 17:19:44.
