data_PCOD8315231
_publ_section_title
;
Structure prediction by ZEFSAII (Michael W. Deem and Ramdas Pophale) SiO2 
 PCOD8315231
Probable space group: P 4/N M M
;
_chemical_formula_sum "Si O2"
_cell_formula_units_Z 96
_cell_length_a 20.518913
_cell_length_b 20.518913
_cell_length_c 13.764932
_cell_angle_alpha 90.000000
_cell_angle_beta 90.000000
_cell_angle_gamma 90.000000
_cell_volume 5795.391379
_symmetry_space_group_name_H-M "P 4/N M M"
_symmetry_group_IT_number 129
_symmetry_cell_setting 'tetragonal'
loop_
_space_group_symop_operation_xyz
x,y,z
1/2-y,x,z
1/2-x,1/2-y,z
y,1/2-x,z
1/2+x,-y,-z
-x,1/2+y,-z
1/2+y,1/2+x,-z
-y,-x,-z
-x,-y,-z
1/2+y,-x,-z
1/2+x,1/2+y,-z
-y,1/2+x,-z
1/2-x,y,z
x,1/2-y,z
1/2-y,1/2-x,z
y,x,z
loop_
_atom_site_type_symbol
_atom_site_label
_atom_site_fract_x
_atom_site_fract_y
_atom_site_fract_z
Si Si1 0.610437 0.504228 0.894083
Si Si2 0.072507 0.176435 0.275210
Si Si3 0.063230 0.173223 0.928526
Si Si4 0.978430 0.087601 0.802195
Si Si5 0.976029 0.082658 0.587664
Si Si6 0.323275 0.073565 0.495689
O O1 0.553336 0.553336 0.922674
O O2 0.642165 0.518349 0.789821
O O3 0.578532 0.431884 0.880500
O O4 0.663490 0.514935 0.978725
O O5 0.083165 0.250000 0.241232
O O6 0.142069 0.142069 0.261075
O O7 0.047291 0.171335 0.385491
O O8 0.081107 0.250000 0.918998
O O9 0.130386 0.130386 0.935666
O O10 0.019328 0.150653 0.836725
O O11 0.946911 0.098533 0.694731
O O12 0.026610 0.026610 0.794730
O O13 0.922788 0.077213 0.500000
O O14 0.023189 0.142524 0.566171
O O15 0.014489 0.014489 0.591656
O O16 0.250000 0.081784 0.531010
O O17 0.355620 0.144381 0.503966
#
# Coordination Sequence:
#
# PCOD8315231 Si02
#       6
#    16  16  16  16  16  16
#     4   9  16  28  45  63  84 111 146 190 236 274
#     4   9  16  25  38  58  86 120 155 189 225 267
#     4  10  20  32  46  66  93 125 158 187 215 253
#     4   9  17  29  46  65  85 111 145 187 231 270
#     4   9  16  27  44  64  84 109 144 187 235 278
#     4   9  17  27  39  58  86 120 155 187 219 260
#
# _framework density 16.564886999999999
#
# number of rings (size 3 to 8) (size 9 to 14) (size 15 to 20)
#    0.000    2.833    0.000    2.000    0.000    7.167 
#    0.000    1.667    0.000    3.000    0.000    4.667 
#    0.000   11.667    0.000   13.333    0.000    5.167 
#
# Total GULP energy -1189352.737105 kJ/mol
# GULP energy per Si atom -12389.091012 kJ/mol
# Density = 1.652718 g / cm^3
# Si number density = 16.564887 Si / 1000 Ang^3
#
#
#
# Elastic Constant Matrix: (Units=GPa)
#
#
# Indices 1 2 3 4 5 6 
#
# 1 41.0631 38.3474 27.0576 0.0000 0.0000 0.0000
# 2 38.3474 41.0594 27.0574 0.0000 0.0000 0.0000
# 3 27.0576 27.0574 83.1961 0.0000 0.0000 0.0000
# 4 0.0000 0.0000 0.0000 8.0880 0.0000 0.0000
# 5 0.0000 0.0000 0.0000 0.0000 8.0903 0.0000
# 6 0.0000 0.0000 0.0000 0.0000 0.0000 11.2695
#
#
#
# Elastic Compliance Matrix: (Units=1/GPa)
#
#
# Indices 1 2 3 4 5 6 
#
# 1 0.192321 -0.176153 -0.005259 0.000000 0.000000 0.000000
# 2 -0.176153 0.192342 -0.005265 0.000000 0.000000 0.000000
# 3 -0.005259 -0.005265 0.015442 0.000000 0.000000 0.000000
# 4 0.000000 0.000000 0.000000 0.123640 0.000000 0.000000
# 5 0.000000 0.000000 0.000000 0.000000 0.123605 0.000000
# 6 0.000000 0.000000 0.000000 0.000000 0.000000 0.088735
#
#
# Mechanical properties :
#
#
# Convention : Reuss Voigt Hill
#
# Bulk Modulus (GPa) = 37.37911 38.91595 38.14753
# Shear Modulus (GPa) = 4.47085 10.34664 7.40874
#
# Velocity S-wave (km/s) = 1.64464 2.50194 2.11714
# Velocity P-wave (km/s) = 5.12062 5.64715 5.39032
#
# Compressibility (1/GPa) = 0.02675291
#
# Stress axis : x y z
#
# Youngs Moduli (GPa) = 5.19965 5.19907 64.75716
#
# Poissons Ratio (x) = 0.91583 0.34055
# Poissons Ratio (y) = 0.91593 0.34092
# Poissons Ratio (z) = 0.02734 0.02737
#
# Static dielectric constant tensor:
#      x y z
#    x 2.887590 0.000000 0.000000 
#    y 0.000000 2.887590 0.000000 
#    z 0.000000 0.000000 3.347360 
# 
# 
# High freq. dielectric constant tensor:
#      x y z
#    x 1.600330 0.000000 0.000000 
#    y 0.000000 1.600330 0.000000 
#    z 0.000000 0.000000 1.655390 
# 
# From -- ./inp_files/4904.got.cif
#   From: 2010.03.12/outbox.cif.g09.slc.cpg/sg129_3_cif.got.tgz:4904.got - 2010.04.06 17:19:44.
