data_PCOD8315307
_publ_section_title
;
Structure prediction by ZEFSAII (Michael W. Deem and Ramdas Pophale) SiO2 
 PCOD8315307
Probable space group: P 4/N M M
;
_chemical_formula_sum "Si O2"
_cell_formula_units_Z 128
_cell_length_a 17.671698
_cell_length_b 17.671698
_cell_length_c 23.467523
_cell_angle_alpha 90.000000
_cell_angle_beta 90.000000
_cell_angle_gamma 90.000000
_cell_volume 7328.647183
_symmetry_space_group_name_H-M "P 4/N M M"
_symmetry_group_IT_number 129
_symmetry_cell_setting 'tetragonal'
loop_
_space_group_symop_operation_xyz
x,y,z
1/2-y,x,z
1/2-x,1/2-y,z
y,1/2-x,z
1/2+x,-y,-z
-x,1/2+y,-z
1/2+y,1/2+x,-z
-y,-x,-z
-x,-y,-z
1/2+y,-x,-z
1/2+x,1/2+y,-z
-y,1/2+x,-z
1/2-x,y,z
x,1/2-y,z
1/2-y,1/2-x,z
y,x,z
loop_
_atom_site_type_symbol
_atom_site_label
_atom_site_fract_x
_atom_site_fract_y
_atom_site_fract_z
Si Si1 0.948654 0.339139 0.024014
Si Si2 0.662621 0.536976 0.200405
Si Si3 0.040338 0.336885 0.583714
Si Si4 0.531108 0.840257 0.859509
Si Si5 0.333577 0.051285 0.927637
Si Si6 0.335619 0.949782 0.474623
Si Si7 0.072724 0.553274 0.365831
Si Si8 0.421730 0.951885 0.239508
O O1 0.941327 0.250000 0.022103
O O2 0.979876 0.363706 0.086036
O O3 0.868663 0.368663 0.000000
O O4 0.003893 0.375670 0.976237
O O5 0.750000 0.551706 0.219658
O O6 0.612231 0.612231 0.214097
O O7 0.659488 0.513694 0.134134
O O8 0.629505 0.461362 0.229364
O O9 0.054592 0.250000 0.600944
O O10 0.116193 0.383808 0.597459
O O11 0.021802 0.345411 0.516390
O O12 0.968448 0.366888 0.620180
O O13 0.552252 0.750000 0.860085
O O14 0.608447 0.891554 0.858378
O O15 0.477082 0.856499 0.804759
O O16 0.250000 0.060646 0.949871
O O17 0.364716 0.135285 0.924083
O O18 0.379087 0.879087 0.500000
O O19 0.250000 0.923742 0.469989
O O20 0.364221 0.969780 0.411607
O O21 0.111892 0.552929 0.303549
O O22 0.008663 0.491338 0.369419
O O23 0.487202 0.012799 0.233915
#
# Coordination Sequence:
#
# PCOD8315307 Si02
#       8
#    16  16  16  16  16  16  16  16
#     4  10  20  33  50  72  97 126 160 198 240 288
#     4   9  17  29  46  68  95 127 162 202 247 293
#     4   9  17  29  46  70  99 128 158 192 231 278
#     4  10  21  36  54  77 103 130 162 202 248 298
#     4   9  17  28  43  65  90 117 150 186 229 281
#     4   9  17  29  46  68  92 119 151 189 234 281
#     4   9  17  30  48  68  91 122 160 198 234 274
#     4   9  18  32  49  69  94 126 164 204 243 284
#
# _framework density 17.465706000000001
#
# number of rings (size 3 to 8) (size 9 to 14) (size 15 to 20)
#    0.000    2.750    0.000    1.500    0.000    5.250 
#    0.000    1.250    0.000    3.375    0.000    5.250 
#    0.000    3.000    0.000    0.000    0.000    0.000 
#
# Total GULP energy -1585672.482866 kJ/mol
# GULP energy per Si atom -12388.066272 kJ/mol
# Density = 1.742595 g / cm^3
# Si number density = 17.465706 Si / 1000 Ang^3
#
#
#
# Elastic Constant Matrix: (Units=GPa)
#
#
# Indices 1 2 3 4 5 6 
#
# 1 64.7185 17.8263 24.0599 0.0000 0.0000 0.0000
# 2 17.8263 64.7185 24.0599 0.0000 0.0000 0.0000
# 3 24.0599 24.0599 100.7737 0.0000 0.0000 0.0000
# 4 0.0000 0.0000 0.0000 17.5615 0.0000 0.0000
# 5 0.0000 0.0000 0.0000 0.0000 17.5615 0.0000
# 6 0.0000 0.0000 0.0000 0.0000 0.0000 18.8719
#
#
#
# Elastic Compliance Matrix: (Units=1/GPa)
#
#
# Indices 1 2 3 4 5 6 
#
# 1 0.017699 -0.003626 -0.003360 0.000000 0.000000 0.000000
# 2 -0.003626 0.017699 -0.003360 0.000000 0.000000 0.000000
# 3 -0.003360 -0.003360 0.011528 0.000000 0.000000 0.000000
# 4 0.000000 0.000000 0.000000 0.056943 0.000000 0.000000
# 5 0.000000 0.000000 0.000000 0.000000 0.056943 0.000000
# 6 0.000000 0.000000 0.000000 0.000000 0.000000 0.052989
#
#
# Mechanical properties :
#
#
# Convention : Reuss Voigt Hill
#
# Bulk Modulus (GPa) = 38.11812 40.23366 39.17589
# Shear Modulus (GPa) = 20.55600 21.74995 21.15298
#
# Velocity S-wave (km/s) = 3.43437 3.53270 3.48388
# Velocity P-wave (km/s) = 6.13176 6.30284 6.21789
#
# Compressibility (1/GPa) = 0.02623424
#
# Stress axis : x y z
#
# Youngs Moduli (GPa) = 56.49899 56.49899 86.74790
#
# Poissons Ratio (x) = 0.20487 0.29148
# Poissons Ratio (y) = 0.20487 0.29148
# Poissons Ratio (z) = 0.18984 0.18984
#
# Static dielectric constant tensor:
#      x y z
#    x 3.159540 0.000000 0.000000 
#    y 0.000000 3.159540 0.000000 
#    z 0.000000 0.000000 3.688360 
# 
# 
# High freq. dielectric constant tensor:
#      x y z
#    x 1.658990 0.000000 0.000000 
#    y 0.000000 1.658990 0.000000 
#    z 0.000000 0.000000 1.684700 
# 
# From -- ./inp_files/7312.got.cif
#   From: 2010.03.12/outbox.cif.g09.slc.cpg/sg129_4_cif.got.tgz:7312.got - 2010.04.06 17:19:44.
