data_PCOD8315911
_publ_section_title
;
Structure prediction by ZEFSAII (Michael W. Deem and Ramdas Pophale) SiO2 
 PCOD8315911
Probable space group: P 42/M M C
;
_chemical_formula_sum "Si O2"
_cell_formula_units_Z 104
_cell_length_a 26.237207
_cell_length_b 26.237207
_cell_length_c 8.882784
_cell_angle_alpha 90.000000
_cell_angle_beta 90.000000
_cell_angle_gamma 90.000000
_cell_volume 6114.828837
_symmetry_space_group_name_H-M "P 42/M M C"
_symmetry_group_IT_number 131
_symmetry_cell_setting 'tetragonal'
loop_
_space_group_symop_operation_xyz
x,y,z
-x,-y,z
-y,x,1/2+z
y,-x,1/2+z
-x,y,-z
x,-y,-z
y,x,1/2-z
-y,-x,1/2-z
-x,-y,-z
x,y,-z
y,-x,1/2-z
-y,x,1/2-z
x,-y,z
-x,y,z
-y,-x,1/2+z
y,x,1/2+z
loop_
_atom_site_type_symbol
_atom_site_label
_atom_site_fract_x
_atom_site_fract_y
_atom_site_fract_z
Si Si1 0.150341 0.688204 0.825680
Si Si2 0.409833 0.110700 0.178298
Si Si3 0.443370 0.212267 0.324599
Si Si4 0.263596 0.659322 0.826544
Si Si5 0.944160 0.127135 0.675278
Si Si6 0.000000 0.559954 0.331528
Si Si7 0.862612 0.789618 0.677417
O O1 0.123011 0.647502 0.721104
O O2 0.211366 0.690366 0.799416
O O3 0.124447 0.738930 0.766424
O O4 0.137704 0.678177 0.000000
O O5 0.443506 0.156582 0.247430
O O6 0.422509 0.053819 0.244886
O O7 0.418901 0.111062 0.000000
O O8 0.431791 0.202451 0.500000
O O9 0.500000 0.236222 0.299263
O O10 0.398929 0.251490 0.265698
O O11 0.311537 0.688464 0.750000
O O12 0.278886 0.656624 0.000000
O O13 0.924438 0.075563 0.750000
O O14 0.944253 0.117249 0.500000
O O15 0.909406 0.174482 0.718851
O O16 0.000000 0.139445 0.737758
O O17 0.000000 0.500000 0.331410
O O18 0.000000 0.582503 0.500000
O O19 0.811230 0.811230 0.750000
O O20 0.855087 0.780813 0.500000
#
# Coordination Sequence:
#
# PCOD8315911 Si02
#       7
#    16  16  16  16  16   8  16
#     4  10  20  34  49  68  97 128 161 198 240 290
#     4  10  19  32  50  71  94 123 162 206 248 291
#     4   9  18  33  50  69  98 133 165 199 243 293
#     4   9  18  30  46  69  96 127 158 194 236 281
#     4   9  19  35  52  71  94 118 146 183 226 279
#     4   9  18  32  49  69  93 121 157 203 250 293
#     4  10  19  32  51  72  94 122 155 189 229 280
#
# _framework density 17.007835
#
# number of rings (size 3 to 8) (size 9 to 14) (size 15 to 20)
#    0.000    2.538    0.000    3.231    0.000    6.308 
#    1.385    2.308    0.000    2.769    0.000    0.000 
#    0.000    0.308    0.000    3.846    0.000    0.000 
#
# Total GULP energy -1288572.037940 kJ/mol
# GULP energy per Si atom -12390.115749 kJ/mol
# Density = 1.696912 g / cm^3
# Si number density = 17.007835 Si / 1000 Ang^3
#
#
#
# Elastic Constant Matrix: (Units=GPa)
#
#
# Indices 1 2 3 4 5 6 
#
# 1 112.0538 37.6661 25.5905 0.0000 0.0000 0.0000
# 2 37.6661 112.0609 25.5869 0.0000 0.0000 0.0000
# 3 25.5905 25.5869 35.8654 0.0000 0.0000 0.0000
# 4 0.0000 0.0000 0.0000 21.9446 0.0000 0.0000
# 5 0.0000 0.0000 0.0000 0.0000 21.9441 0.0000
# 6 0.0000 0.0000 0.0000 0.0000 0.0000 15.7320
#
#
#
# Elastic Compliance Matrix: (Units=1/GPa)
#
#
# Indices 1 2 3 4 5 6 
#
# 1 0.011139 -0.002305 -0.006303 0.000000 0.000000 0.000000
# 2 -0.002305 0.011137 -0.006301 0.000000 0.000000 0.000000
# 3 -0.006303 -0.006301 0.036875 0.000000 0.000000 0.000000
# 4 0.000000 0.000000 0.000000 0.045569 0.000000 0.000000
# 5 0.000000 0.000000 0.000000 0.000000 0.045570 0.000000
# 6 0.000000 0.000000 0.000000 0.000000 0.000000 0.063565
#
#
# Mechanical properties :
#
#
# Convention : Reuss Voigt Hill
#
# Bulk Modulus (GPa) = 34.09193 48.62968 41.36081
# Shear Modulus (GPa) = 19.72777 23.33325 21.53051
#
# Velocity S-wave (km/s) = 3.40946 3.70795 3.56183
# Velocity P-wave (km/s) = 5.96553 6.85467 6.42550
#
# Compressibility (1/GPa) = 0.02933245
#
# Stress axis : x y z
#
# Youngs Moduli (GPa) = 89.77854 89.79031 27.11888
#
# Poissons Ratio (x) = 0.20694 0.17094
# Poissons Ratio (y) = 0.20691 0.17087
# Poissons Ratio (z) = 0.56590 0.56576
#
# Static dielectric constant tensor:
#      x y z
#    x 3.109940 0.000000 0.000000 
#    y 0.000000 3.109940 0.000000 
#    z 0.000000 0.000000 3.124870 
# 
# 
# High freq. dielectric constant tensor:
#      x y z
#    x 1.647890 0.000000 0.000000 
#    y 0.000000 1.647890 0.000000 
#    z 0.000000 0.000000 1.650180 
# 
# From -- ./inp_files/2554.got.cif
#   From: 2010.03.12/outbox.cif.g09.slc.cpg/sg131_2_cif.got.tgz:2554.got - 2010.04.06 17:36:35.
