data_PCOD8315229
_publ_section_title
;
Structure prediction by ZEFSAII (Michael W. Deem and Ramdas Pophale) SiO2 
 PCOD8315229
Probable space group: P 4/N M M
;
_chemical_formula_sum "Si O2"
_cell_formula_units_Z 96
_cell_length_a 13.674098
_cell_length_b 13.674098
_cell_length_c 30.460958
_cell_angle_alpha 90.000000
_cell_angle_beta 90.000000
_cell_angle_gamma 90.000000
_cell_volume 5695.619051
_symmetry_space_group_name_H-M "P 4/N M M"
_symmetry_group_IT_number 129
_symmetry_cell_setting 'tetragonal'
loop_
_space_group_symop_operation_xyz
x,y,z
1/2-y,x,z
1/2-x,1/2-y,z
y,1/2-x,z
1/2+x,-y,-z
-x,1/2+y,-z
1/2+y,1/2+x,-z
-y,-x,-z
-x,-y,-z
1/2+y,-x,-z
1/2+x,1/2+y,-z
-y,1/2+x,-z
1/2-x,y,z
x,1/2-y,z
1/2-y,1/2-x,z
y,x,z
loop_
_atom_site_type_symbol
_atom_site_label
_atom_site_fract_x
_atom_site_fract_y
_atom_site_fract_z
Si Si1 0.635203 0.021584 0.700352
Si Si2 0.859087 0.133988 0.216816
Si Si3 0.478803 0.862585 0.367817
Si Si4 0.865848 0.141118 0.880178
Si Si5 0.638918 0.480712 0.468341
Si Si6 0.023531 0.634191 0.963869
O O1 0.750000 0.001006 0.700629
O O2 0.595818 0.067115 0.746096
O O3 0.610068 0.096779 0.661363
O O4 0.581443 0.918558 0.692909
O O5 0.750000 0.092502 0.225734
O O6 0.855193 0.250000 0.219191
O O7 0.894803 0.100091 0.168288
O O8 0.499124 0.750000 0.356250
O O9 0.446626 0.876006 0.418247
O O10 0.578250 0.921751 0.357544
O O11 0.750000 0.147583 0.881811
O O12 0.908387 0.250000 0.889516
O O13 0.901457 0.065075 0.916839
O O14 0.607646 0.392355 0.500000
O O15 0.750000 0.508834 0.478028
O O16 0.577017 0.577017 0.479405
O O17 0.004988 0.750000 0.966236
O O18 0.920720 0.579281 0.972077
O O19 0.103479 0.603479 0.000000
#
# Coordination Sequence:
#
# PCOD8315229 Si02
#       6
#    16  16  16  16  16  16
#     4  10  20  32  46  65  91 124 161 199 236 276
#     4   8  14  26  45  67  88 112 146 188 231 271
#     4   9  18  32  50  72  95 119 149 187 233 282
#     4   8  14  26  45  67  89 114 146 185 227 270
#     4   9  18  32  49  70  96 123 152 188 228 272
#     4  10  20  32  47  68  93 122 157 196 237 281
#
# _framework density 16.855059000000001
#
# number of rings (size 3 to 8) (size 9 to 14) (size 15 to 20)
#    0.000    3.000    0.000    2.000    0.000    4.000 
#    0.000    3.333    0.000    0.000    0.000    9.333 
#    0.000    0.000    0.000   31.000    0.000    1.833 
#
# Total GULP energy -1190016.288773 kJ/mol
# GULP energy per Si atom -12396.003008 kJ/mol
# Density = 1.681670 g / cm^3
# Si number density = 16.855059 Si / 1000 Ang^3
#
#
#
# Elastic Constant Matrix: (Units=GPa)
#
#
# Indices 1 2 3 4 5 6 
#
# 1 78.8304 34.5970 46.4542 0.0000 0.0000 0.0000
# 2 34.5970 78.8345 46.4541 0.0000 0.0000 0.0000
# 3 46.4542 46.4541 103.0196 0.0000 0.0000 0.0000
# 4 0.0000 0.0000 0.0000 24.1251 0.0000 0.0000
# 5 0.0000 0.0000 0.0000 0.0000 24.1250 0.0000
# 6 0.0000 0.0000 0.0000 0.0000 0.0000 11.9799
#
#
#
# Elastic Compliance Matrix: (Units=1/GPa)
#
#
# Indices 1 2 3 4 5 6 
#
# 1 0.018293 -0.004314 -0.006304 0.000000 0.000000 0.000000
# 2 -0.004314 0.018292 -0.006303 0.000000 0.000000 0.000000
# 3 -0.006304 -0.006303 0.015392 0.000000 0.000000 0.000000
# 4 0.000000 0.000000 0.000000 0.041451 0.000000 0.000000
# 5 0.000000 0.000000 0.000000 0.000000 0.041451 0.000000
# 6 0.000000 0.000000 0.000000 0.000000 0.000000 0.083473
#
#
# Mechanical properties :
#
#
# Convention : Reuss Voigt Hill
#
# Bulk Modulus (GPa) = 55.13927 57.29944 56.21936
# Shear Modulus (GPa) = 19.36193 20.92461 20.14327
#
# Velocity S-wave (km/s) = 3.39297 3.52724 3.46075
# Velocity P-wave (km/s) = 6.93790 7.11742 7.02824
#
# Compressibility (1/GPa) = 0.01813589
#
# Stress axis : x y z
#
# Youngs Moduli (GPa) = 54.66442 54.66838 64.96969
#
# Poissons Ratio (x) = 0.23581 0.40956
# Poissons Ratio (y) = 0.23580 0.40952
# Poissons Ratio (z) = 0.34460 0.34459
#
# Static dielectric constant tensor:
#      x y z
#    x 2.959550 0.000000 0.000000 
#    y 0.000000 2.959550 0.000000 
#    z 0.000000 0.000000 3.512110 
# 
# 
# High freq. dielectric constant tensor:
#      x y z
#    x 1.629270 0.000000 0.000000 
#    y 0.000000 1.629270 0.000000 
#    z 0.000000 0.000000 1.665530 
# 
# From -- ./inp_files/7862.got.cif
#   From: 2010.03.12/outbox.cif.g09.slc.cpg/sg129_4_cif.got.tgz:7862.got - 2010.04.06 17:19:44.
