data_PCOD8315436
_publ_section_title
;
Structure prediction by ZEFSAII (Michael W. Deem and Ramdas Pophale) SiO2 
 PCOD8315436
Probable space group: P 4/N M M
;
_chemical_formula_sum "Si O2"
_cell_formula_units_Z 96
_cell_length_a 19.980398
_cell_length_b 19.980398
_cell_length_c 16.429906
_cell_angle_alpha 90.000000
_cell_angle_beta 90.000000
_cell_angle_gamma 90.000000
_cell_volume 6559.086352
_symmetry_space_group_name_H-M "P 4/N M M"
_symmetry_group_IT_number 129
_symmetry_cell_setting 'tetragonal'
loop_
_space_group_symop_operation_xyz
x,y,z
1/2-y,x,z
1/2-x,1/2-y,z
y,1/2-x,z
1/2+x,-y,-z
-x,1/2+y,-z
1/2+y,1/2+x,-z
-y,-x,-z
-x,-y,-z
1/2+y,-x,-z
1/2+x,1/2+y,-z
-y,1/2+x,-z
1/2-x,y,z
x,1/2-y,z
1/2-y,1/2-x,z
y,x,z
loop_
_atom_site_type_symbol
_atom_site_label
_atom_site_fract_x
_atom_site_fract_y
_atom_site_fract_z
Si Si1 0.673023 0.936183 0.663153
Si Si2 0.529995 0.082908 0.247490
Si Si3 0.566346 0.674619 0.479708
Si Si4 0.878020 0.988869 0.326512
Si Si5 0.462970 0.575186 0.084561
Si Si6 0.062152 0.172908 0.838911
O O1 0.750000 0.918759 0.679976
O O2 0.630797 0.869204 0.681755
O O3 0.659949 0.960731 0.570471
O O4 0.651872 0.997445 0.721640
O O5 0.558016 0.090369 0.155750
O O6 0.474579 0.025422 0.251317
O O7 0.592604 0.062144 0.305119
O O8 0.591654 0.750000 0.473234
O O9 0.630786 0.630786 0.458407
O O10 0.508332 0.660963 0.412778
O O11 0.940526 0.940526 0.335741
O O12 0.830301 0.962137 0.254547
O O13 0.516545 0.516545 0.081157
O O14 0.502944 0.643858 0.103303
O O15 0.421620 0.578381 0.000000
O O16 0.075977 0.250000 0.862732
O O17 0.130289 0.130289 0.851223
#
# Coordination Sequence:
#
# PCOD8315436 Si02
#       6
#    16  16  16  16  16  16
#     4   9  17  27  38  54  77 105 135 164 193 227
#     4   8  14  25  40  56  73  94 122 160 203 236
#     4   9  16  24  34  50  75 107 139 166 190 222
#     4   8  14  24  37  53  74 101 132 165 198 227
#     4   8  14  26  43  59  75  98 129 164 199 232
#     4   9  16  25  38  58  85 112 134 157 186 227
#
# _framework density 14.636184
#
# number of rings (size 3 to 8) (size 9 to 14) (size 15 to 20)
#    0.000    3.500    0.000    2.500    0.000    1.167 
#    0.000    5.833    0.000    3.000    0.000    0.000 
#    0.000   29.000    0.000   18.333    0.000    1.833 
#
# Total GULP energy -1189444.355679 kJ/mol
# GULP energy per Si atom -12390.045372 kJ/mol
# Density = 1.460287 g / cm^3
# Si number density = 14.636184 Si / 1000 Ang^3
#
#
#
# Elastic Constant Matrix: (Units=GPa)
#
#
# Indices 1 2 3 4 5 6 
#
# 1 55.8125 47.6627 45.3178 0.0000 0.0000 0.0000
# 2 47.6627 55.8124 45.3178 0.0000 0.0000 0.0000
# 3 45.3178 45.3178 95.7701 0.0000 0.0000 0.0000
# 4 0.0000 0.0000 0.0000 15.7120 0.0000 0.0000
# 5 0.0000 0.0000 0.0000 0.0000 15.7121 0.0000
# 6 0.0000 0.0000 0.0000 0.0000 0.0000 13.4175
#
#
#
# Elastic Compliance Matrix: (Units=1/GPa)
#
#
# Indices 1 2 3 4 5 6 
#
# 1 0.069604 -0.053099 -0.007810 0.000000 0.000000 0.000000
# 2 -0.053099 0.069604 -0.007810 0.000000 0.000000 0.000000
# 3 -0.007810 -0.007810 0.017833 0.000000 0.000000 0.000000
# 4 0.000000 0.000000 0.000000 0.063645 0.000000 0.000000
# 5 0.000000 0.000000 0.000000 0.000000 0.063645 0.000000
# 6 0.000000 0.000000 0.000000 0.000000 0.000000 0.074530
#
#
# Mechanical properties :
#
#
# Convention : Reuss Voigt Hill
#
# Bulk Modulus (GPa) = 51.01290 53.77685 52.39487
# Shear Modulus (GPa) = 9.94363 13.57476 11.75919
#
# Velocity S-wave (km/s) = 2.60933 3.04876 2.83756
# Velocity P-wave (km/s) = 6.63384 7.01537 6.82727
#
# Compressibility (1/GPa) = 0.01960289
#
# Stress axis : x y z
#
# Youngs Moduli (GPa) = 14.36699 14.36692 56.07548
#
# Poissons Ratio (x) = 0.76287 0.43795
# Poissons Ratio (y) = 0.76287 0.43796
# Poissons Ratio (z) = 0.11221 0.11221
#
# Static dielectric constant tensor:
#      x y z
#    x 2.667920 0.000000 0.000000 
#    y 0.000000 2.667920 0.000000 
#    z 0.000000 0.000000 3.202410 
# 
# 
# High freq. dielectric constant tensor:
#      x y z
#    x 1.527820 0.000000 0.000000 
#    y 0.000000 1.527820 0.000000 
#    z 0.000000 0.000000 1.562800 
# 
# From -- ./inp_files/4917.got.cif
#   From: 2010.03.12/outbox.cif.g09.slc.cpg/sg129_3_cif.got.tgz:4917.got - 2010.04.06 17:19:44.
