data_PCOD8315336
_publ_section_title
;
Structure prediction by ZEFSAII (Michael W. Deem and Ramdas Pophale) SiO2 
 PCOD8315336
Probable space group: P 4/N M M
;
_chemical_formula_sum "Si O2"
_cell_formula_units_Z 112
_cell_length_a 18.647512
_cell_length_b 18.647512
_cell_length_c 18.435330
_cell_angle_alpha 90.000000
_cell_angle_beta 90.000000
_cell_angle_gamma 90.000000
_cell_volume 6410.511840
_symmetry_space_group_name_H-M "P 4/N M M"
_symmetry_group_IT_number 129
_symmetry_cell_setting 'tetragonal'
loop_
_space_group_symop_operation_xyz
x,y,z
1/2-y,x,z
1/2-x,1/2-y,z
y,1/2-x,z
1/2+x,-y,-z
-x,1/2+y,-z
1/2+y,1/2+x,-z
-y,-x,-z
-x,-y,-z
1/2+y,-x,-z
1/2+x,1/2+y,-z
-y,1/2+x,-z
1/2-x,y,z
x,1/2-y,z
1/2-y,1/2-x,z
y,x,z
loop_
_atom_site_type_symbol
_atom_site_label
_atom_site_fract_x
_atom_site_fract_y
_atom_site_fract_z
Si Si1 0.057864 0.558486 0.815291
Si Si2 0.560487 0.671841 0.987232
Si Si3 0.420514 0.535532 0.656254
Si Si4 0.331733 0.051413 0.547378
Si Si5 0.670218 0.940780 0.815057
Si Si6 0.667051 0.087492 0.057562
Si Si7 0.580034 0.332517 0.444102
O O1 0.097387 0.533936 0.741914
O O2 0.116932 0.586060 0.871873
O O3 0.005406 0.494595 0.845712
O O4 0.010364 0.626467 0.790848
O O5 0.580220 0.750000 0.017882
O O6 0.617817 0.617817 0.021078
O O7 0.483146 0.647882 0.012992
O O8 0.561211 0.671782 0.901355
O O9 0.497757 0.497757 0.641067
O O10 0.358106 0.489124 0.619457
O O11 0.420594 0.616906 0.626640
O O12 0.250000 0.075333 0.559403
O O13 0.378056 0.121945 0.530968
O O14 0.339510 0.998023 0.479774
O O15 0.750000 0.943694 0.781923
O O16 0.631086 0.868915 0.785950
O O17 0.750000 0.092943 0.081839
O O18 0.651026 0.151026 0.000000
O O19 0.641176 0.358825 0.500000
O O20 0.596364 0.250000 0.422048
#
# Coordination Sequence:
#
# PCOD8315336 Si02
#       7
#    16  16  16  16  16  16  16
#     4  10  20  33  52  74  97 127 162 205 248 290
#     4   9  17  29  47  70  93 118 148 185 232 287
#     4   9  18  32  49  73 101 130 166 203 244 291
#     4   9  17  30  50  74 102 134 165 201 241 285
#     4   9  17  29  46  69  95 122 153 190 235 287
#     4  11  22  35  51  69  90 121 161 204 250 299
#     4   9  17  30  49  73 100 132 167 203 242 285
#
# _framework density 17.471304
#
# number of rings (size 3 to 8) (size 9 to 14) (size 15 to 20)
#    0.000    2.571    1.429    0.857    0.000    4.143 
#    0.000    1.429    0.000    0.000    0.000    2.000 
#    0.000    6.857    0.000    0.000    0.000    0.000 
#
# Total GULP energy -1388307.826802 kJ/mol
# GULP energy per Si atom -12395.605596 kJ/mol
# Density = 1.743154 g / cm^3
# Si number density = 17.471304 Si / 1000 Ang^3
#
#
#
# Elastic Constant Matrix: (Units=GPa)
#
#
# Indices 1 2 3 4 5 6 
#
# 1 91.6655 30.7834 20.4797 0.0000 0.0000 0.0000
# 2 30.7834 91.6662 20.4796 0.0000 0.0000 0.0000
# 3 20.4797 20.4796 52.5283 0.0000 0.0000 0.0000
# 4 0.0000 0.0000 0.0000 12.3776 0.0000 0.0000
# 5 0.0000 0.0000 0.0000 0.0000 12.3775 0.0000
# 6 0.0000 0.0000 0.0000 0.0000 0.0000 11.4561
#
#
#
# Elastic Compliance Matrix: (Units=1/GPa)
#
#
# Indices 1 2 3 4 5 6 
#
# 1 0.012908 -0.003517 -0.003662 0.000000 0.000000 0.000000
# 2 -0.003517 0.012908 -0.003661 0.000000 0.000000 0.000000
# 3 -0.003662 -0.003661 0.021892 0.000000 0.000000 0.000000
# 4 0.000000 0.000000 0.000000 0.080791 0.000000 0.000000
# 5 0.000000 0.000000 0.000000 0.000000 0.080792 0.000000
# 6 0.000000 0.000000 0.000000 0.000000 0.000000 0.087290
#
#
# Mechanical properties :
#
#
# Convention : Reuss Voigt Hill
#
# Bulk Modulus (GPa) = 38.41834 42.14948 40.28391
# Shear Modulus (GPa) = 15.29344 18.18340 16.73842
#
# Velocity S-wave (km/s) = 2.96183 3.22958 3.09860
# Velocity P-wave (km/s) = 5.80808 6.17124 5.99241
#
# Compressibility (1/GPa) = 0.02602924
#
# Stress axis : x y z
#
# Youngs Moduli (GPa) = 77.46947 77.47012 45.67787
#
# Poissons Ratio (x) = 0.27245 0.16725
# Poissons Ratio (y) = 0.27245 0.16725
# Poissons Ratio (z) = 0.28366 0.28366
#
# Static dielectric constant tensor:
#      x y z
#    x 3.363950 0.000000 0.000000 
#    y 0.000000 3.363950 0.000000 
#    z 0.000000 0.000000 3.022750 
# 
# 
# High freq. dielectric constant tensor:
#      x y z
#    x 1.673890 0.000000 0.000000 
#    y 0.000000 1.673890 0.000000 
#    z 0.000000 0.000000 1.650290 
# 
# From -- ./inp_files/6697.got.cif
#   From: 2010.03.12/outbox.cif.g09.slc.cpg/sg129_4_cif.got.tgz:6697.got - 2010.04.06 17:19:44.
