data_PCOD8315024
_publ_section_title
;
Structure prediction by ZEFSAII (Michael W. Deem and Ramdas Pophale) SiO2 
 PCOD8315024
Probable space group: P 4/N M M
;
_chemical_formula_sum "Si O2"
_cell_formula_units_Z 128
_cell_length_a 18.715934
_cell_length_b 18.715934
_cell_length_c 23.166652
_cell_angle_alpha 90.000000
_cell_angle_beta 90.000000
_cell_angle_gamma 90.000000
_cell_volume 8114.958160
_symmetry_space_group_name_H-M "P 4/N M M"
_symmetry_group_IT_number 129
_symmetry_cell_setting 'tetragonal'
loop_
_space_group_symop_operation_xyz
x,y,z
1/2-y,x,z
1/2-x,1/2-y,z
y,1/2-x,z
1/2+x,-y,-z
-x,1/2+y,-z
1/2+y,1/2+x,-z
-y,-x,-z
-x,-y,-z
1/2+y,-x,-z
1/2+x,1/2+y,-z
-y,1/2+x,-z
1/2-x,y,z
x,1/2-y,z
1/2-y,1/2-x,z
y,x,z
loop_
_atom_site_type_symbol
_atom_site_label
_atom_site_fract_x
_atom_site_fract_y
_atom_site_fract_z
Si Si1 0.670173 0.556037 0.703004
Si Si2 0.331464 0.445175 0.539453
Si Si3 0.065801 0.947116 0.255499
Si Si4 0.927311 0.332777 0.038991
Si Si5 0.510087 0.169627 0.417168
Si Si6 0.926340 0.455765 0.128914
Si Si7 0.964754 0.415691 0.622440
Si Si8 0.550132 0.667614 0.051151
O O1 0.750000 0.569815 0.724948
O O2 0.623761 0.623761 0.722494
O O3 0.643142 0.482415 0.732459
O O4 0.666169 0.548563 0.633674
O O5 0.250000 0.424067 0.542924
O O6 0.373454 0.373454 0.553136
O O7 0.353144 0.474077 0.476936
O O8 0.348635 0.502708 0.589139
O O9 0.063378 0.905247 0.194934
O O10 0.043247 0.896604 0.309395
O O11 0.012016 0.012016 0.252040
O O12 0.911681 0.250000 0.054713
O O13 0.933888 0.380430 0.096254
O O14 0.862206 0.362206 0.000000
O O15 0.002535 0.340261 0.006085
O O16 0.542316 0.250000 0.421389
O O17 0.572617 0.113534 0.404489
O O18 0.862170 0.504172 0.104730
O O19 0.000950 0.499051 0.123410
O O20 0.012793 0.487208 0.613740
O O21 0.570000 0.750000 0.063397
O O22 0.623006 0.623006 0.042914
#
# Coordination Sequence:
#
# PCOD8315024 Si02
#       8
#    16  16  16  16  16  16  16  16
#     4   9  16  25  37  56  84 115 145 177 212 252
#     4  10  19  29  43  63  85 111 142 175 215 262
#     4   8  15  27  42  60  80 104 139 181 218 248
#     4   9  17  28  43  65  91 117 144 173 206 245
#     4   9  16  26  42  64  87 109 137 175 216 255
#     4   9  16  28  46  65  86 113 144 179 216 252
#     4   9  16  28  45  62  82 110 144 180 214 252
#     4   9  17  29  45  66  91 117 145 177 213 254
#
# _framework density 15.773341
#
# number of rings (size 3 to 8) (size 9 to 14) (size 15 to 20)
#    0.000    3.000    0.000    2.625    0.000    3.500 
#    0.000    0.625    0.000    2.625    0.000    1.750 
#    0.000   11.000    0.000    0.000    0.000    0.125 
#
# Total GULP energy -1586553.105953 kJ/mol
# GULP energy per Si atom -12394.946140 kJ/mol
# Density = 1.573744 g / cm^3
# Si number density = 15.773341 Si / 1000 Ang^3
#
#
#
# Elastic Constant Matrix: (Units=GPa)
#
#
# Indices 1 2 3 4 5 6 
#
# 1 77.0652 30.9033 38.8670 0.0000 0.0000 0.0000
# 2 30.9033 77.0652 38.8670 0.0000 0.0000 0.0000
# 3 38.8670 38.8670 72.0195 0.0000 0.0000 0.0000
# 4 0.0000 0.0000 0.0000 16.3235 0.0000 0.0000
# 5 0.0000 0.0000 0.0000 0.0000 16.3235 0.0000
# 6 0.0000 0.0000 0.0000 0.0000 0.0000 14.6529
#
#
#
# Elastic Compliance Matrix: (Units=1/GPa)
#
#
# Indices 1 2 3 4 5 6 
#
# 1 0.018405 -0.003258 -0.008175 0.000000 0.000000 0.000000
# 2 -0.003258 0.018405 -0.008175 0.000000 0.000000 0.000000
# 3 -0.008175 -0.008175 0.022708 0.000000 0.000000 0.000000
# 4 0.000000 0.000000 0.000000 0.061261 0.000000 0.000000
# 5 0.000000 0.000000 0.000000 0.000000 0.061261 0.000000
# 6 0.000000 0.000000 0.000000 0.000000 0.000000 0.068246
#
#
# Mechanical properties :
#
#
# Convention : Reuss Voigt Hill
#
# Bulk Modulus (GPa) = 49.24977 49.26937 49.25957
# Shear Modulus (GPa) = 16.87650 17.29414 17.08532
#
# Velocity S-wave (km/s) = 3.27454 3.31481 3.29474
# Velocity P-wave (km/s) = 6.75189 6.77896 6.76544
#
# Compressibility (1/GPa) = 0.02030466
#
# Stress axis : x y z
#
# Youngs Moduli (GPa) = 54.33251 54.33251 44.03653
#
# Poissons Ratio (x) = 0.17700 0.35998
# Poissons Ratio (y) = 0.17700 0.35998
# Poissons Ratio (z) = 0.44415 0.44415
#
# Static dielectric constant tensor:
#      x y z
#    x 2.874720 0.000000 0.000000 
#    y 0.000000 2.874720 0.000000 
#    z 0.000000 0.000000 3.249500 
# 
# 
# High freq. dielectric constant tensor:
#      x y z
#    x 1.588010 0.000000 0.000000 
#    y 0.000000 1.588010 0.000000 
#    z 0.000000 0.000000 1.604760 
# 
# From -- ./inp_files/7267.got.cif
#   From: 2010.03.12/outbox.cif.g09.slc.cpg/sg129_4_cif.got.tgz:7267.got - 2010.04.06 17:19:44.
