data_PCOD8315131
_publ_section_title
;
Structure prediction by ZEFSAII (Michael W. Deem and Ramdas Pophale) SiO2 
 PCOD8315131
Probable space group: P 4/N M M
;
_chemical_formula_sum "Si O2"
_cell_formula_units_Z 80
_cell_length_a 29.417422
_cell_length_b 29.417422
_cell_length_c 5.054937
_cell_angle_alpha 90.000000
_cell_angle_beta 90.000000
_cell_angle_gamma 90.000000
_cell_volume 4374.465226
_symmetry_space_group_name_H-M "P 4/N M M"
_symmetry_group_IT_number 129
_symmetry_cell_setting 'tetragonal'
loop_
_space_group_symop_operation_xyz
x,y,z
1/2-y,x,z
1/2-x,1/2-y,z
y,1/2-x,z
1/2+x,-y,-z
-x,1/2+y,-z
1/2+y,1/2+x,-z
-y,-x,-z
-x,-y,-z
1/2+y,-x,-z
1/2+x,1/2+y,-z
-y,1/2+x,-z
1/2-x,y,z
x,1/2-y,z
1/2-y,1/2-x,z
y,x,z
loop_
_atom_site_type_symbol
_atom_site_label
_atom_site_fract_x
_atom_site_fract_y
_atom_site_fract_z
Si Si1 0.071554 0.501393 0.500333
Si Si2 0.945175 0.301193 0.357787
Si Si3 0.611954 0.539290 0.984380
Si Si4 0.198692 0.497399 0.839264
Si Si5 0.303220 0.654414 0.258153
O O1 0.030446 0.469555 0.399635
O O2 0.085775 0.489279 0.795041
O O3 0.053720 0.553720 0.500000
O O4 0.110852 0.491311 0.283129
O O5 0.939684 0.250000 0.463748
O O6 0.978458 0.323326 0.578901
O O7 0.894992 0.322988 0.345056
O O8 0.965224 0.302088 0.066276
O O9 0.589521 0.589521 0.949800
O O10 0.664909 0.543915 0.074619
O O11 0.250000 0.478009 0.794581
O O12 0.311084 0.688917 0.500000
O O13 0.250000 0.652017 0.188619
O O14 0.329642 0.670359 0.000000
#
# Coordination Sequence:
#
# PCOD8315131 Si02
#       5
#    16  16  16  16  16
#     4   9  17  30  46  64  92 128 157 183 226 281
#     4   9  19  35  52  67  88 122 159 195 234 276
#     4  10  19  31  49  73  99 126 156 192 234 279
#     4  10  19  34  53  70  92 125 163 197 234 277
#     4  11  22  36  53  72  96 122 152 196 246 293
#
# _framework density 18.287949000000001
#
# number of rings (size 3 to 8) (size 9 to 14) (size 15 to 20)
#    0.000    2.200    0.000    3.600    0.000    6.800 
#    0.000   10.000    0.000    0.000    0.000    0.000 
#    0.000    0.400    0.000    0.000    0.000   31.200 
#
# Total GULP energy -991498.277957 kJ/mol
# GULP energy per Si atom -12393.728474 kJ/mol
# Density = 1.824632 g / cm^3
# Si number density = 18.287949 Si / 1000 Ang^3
#
#
#
# Elastic Constant Matrix: (Units=GPa)
#
#
# Indices 1 2 3 4 5 6 
#
# 1 64.4300 40.5446 20.0178 0.0000 0.0000 0.0000
# 2 40.5446 64.4298 20.0178 0.0000 0.0000 0.0000
# 3 20.0178 20.0178 111.7133 0.0000 0.0000 0.0000
# 4 0.0000 0.0000 0.0000 24.3159 0.0000 0.0000
# 5 0.0000 0.0000 0.0000 0.0000 24.3156 0.0000
# 6 0.0000 0.0000 0.0000 0.0000 0.0000 16.3800
#
#
#
# Elastic Compliance Matrix: (Units=1/GPa)
#
#
# Indices 1 2 3 4 5 6 
#
# 1 0.026046 -0.015821 -0.001832 0.000000 0.000000 0.000000
# 2 -0.015821 0.026046 -0.001832 0.000000 0.000000 0.000000
# 3 -0.001832 -0.001832 0.009608 0.000000 0.000000 0.000000
# 4 0.000000 0.000000 0.000000 0.041125 0.000000 0.000000
# 5 0.000000 0.000000 0.000000 0.000000 0.041126 0.000000
# 6 0.000000 0.000000 0.000000 0.000000 0.000000 0.061050
#
#
# Mechanical properties :
#
#
# Convention : Reuss Voigt Hill
#
# Bulk Modulus (GPa) = 43.99641 44.63706 44.31674
# Shear Modulus (GPa) = 19.87694 23.66851 21.77273
#
# Velocity S-wave (km/s) = 3.30037 3.60142 3.45418
# Velocity P-wave (km/s) = 6.21555 6.46178 6.33986
#
# Compressibility (1/GPa) = 0.02272913
#
# Stress axis : x y z
#
# Youngs Moduli (GPa) = 38.39395 38.39377 104.07881
#
# Poissons Ratio (x) = 0.60743 0.19069
# Poissons Ratio (y) = 0.60743 0.19069
# Poissons Ratio (z) = 0.07034 0.07035
#
# Static dielectric constant tensor:
#      x y z
#    x 3.378220 0.000000 0.000000 
#    y 0.000000 3.378230 0.000000 
#    z 0.000000 0.000000 3.530250 
# 
# 
# High freq. dielectric constant tensor:
#      x y z
#    x 1.679370 0.000000 0.000000 
#    y 0.000000 1.679370 0.000000 
#    z 0.000000 0.000000 1.735620 
# 
# From -- ./inp_files/1059.got.cif
#   From: 2010.03.12/outbox.cif.g09.slc.cpg/sg129_1_cif.got.tgz:1059.got - 2010.04.06 17:19:44.
