data_PCOD8315664
_publ_section_title
;
Structure prediction by ZEFSAII (Michael W. Deem and Ramdas Pophale) SiO2 
 PCOD8315664
Probable space group: P 42/M M C
;
_chemical_formula_sum "Si O2"
_cell_formula_units_Z 96
_cell_length_a 14.387469
_cell_length_b 14.387469
_cell_length_c 31.119792
_cell_angle_alpha 90.000000
_cell_angle_beta 90.000000
_cell_angle_gamma 90.000000
_cell_volume 6441.774047
_symmetry_space_group_name_H-M "P 42/M M C"
_symmetry_group_IT_number 131
_symmetry_cell_setting 'tetragonal'
loop_
_space_group_symop_operation_xyz
x,y,z
-x,-y,z
-y,x,1/2+z
y,-x,1/2+z
-x,y,-z
x,-y,-z
y,x,1/2-z
-y,-x,1/2-z
-x,-y,-z
x,y,-z
y,-x,1/2-z
-y,x,1/2-z
x,-y,z
-x,y,z
-y,-x,1/2+z
y,x,1/2+z
loop_
_atom_site_type_symbol
_atom_site_label
_atom_site_fract_x
_atom_site_fract_y
_atom_site_fract_z
Si Si1 0.889755 0.104091 0.625323
Si Si2 0.396345 0.894545 0.827743
Si Si3 0.107185 0.207010 0.711946
Si Si4 0.890971 0.772503 0.547777
Si Si5 0.609825 0.398916 0.048088
Si Si6 0.607016 0.209604 0.085452
O O1 0.859211 0.159415 0.667819
O O2 0.849338 0.156558 0.583270
O O3 0.000000 0.099723 0.622437
O O4 0.848009 0.000000 0.626798
O O5 0.500000 0.880002 0.808182
O O6 0.318511 0.878427 0.791343
O O7 0.378012 0.822194 0.865770
O O8 0.385907 0.000000 0.845967
O O9 0.171132 0.171132 0.750000
O O10 0.000000 0.181669 0.721789
O O11 0.866031 0.809148 0.500000
O O12 0.850920 0.669441 0.553668
O O13 0.000000 0.764458 0.554196
O O14 0.648884 0.500000 0.063527
O O15 0.500000 0.404693 0.046332
O O16 0.639463 0.317354 0.080943
O O17 0.647476 0.376730 0.000000
O O18 0.500000 0.196166 0.071237
#
# Coordination Sequence:
#
# PCOD8315664 Si02
#       6
#    16  16  16  16  16  16
#     4   9  17  29  42  58  84 115 146 180 214 250
#     4   9  17  29  45  65  92 123 148 170 206 263
#     4  10  18  29  47  70  90 109 139 181 227 264
#     4  10  19  28  38  57  87 121 153 179 205 246
#     4   8  14  24  37  55  80 109 143 184 224 254
#     4  10  17  26  42  61  85 118 150 179 214 255
#
# _framework density 14.902727000000001
#
# number of rings (size 3 to 8) (size 9 to 14) (size 15 to 20)
#    0.000    2.667    1.667    2.000    0.000    3.167 
#    0.000    2.500    0.000    1.000    0.000    0.000 
#    0.000    0.667    0.000    3.500    0.000    0.333 
#
# Total GULP energy -1189750.730682 kJ/mol
# GULP energy per Si atom -12393.236778 kJ/mol
# Density = 1.486881 g / cm^3
# Si number density = 14.902727 Si / 1000 Ang^3
#
#
#
# Elastic Constant Matrix: (Units=GPa)
#
#
# Indices 1 2 3 4 5 6 
#
# 1 71.9936 34.4487 49.8924 0.0000 0.0000 0.0000
# 2 34.4487 71.9936 49.8924 0.0000 0.0000 0.0000
# 3 49.8924 49.8924 94.6183 0.0000 0.0000 0.0000
# 4 0.0000 0.0000 0.0000 21.5807 0.0000 0.0000
# 5 0.0000 0.0000 0.0000 0.0000 21.5807 0.0000
# 6 0.0000 0.0000 0.0000 0.0000 0.0000 10.3048
#
#
#
# Elastic Compliance Matrix: (Units=1/GPa)
#
#
# Indices 1 2 3 4 5 6 
#
# 1 0.022607 -0.004028 -0.009796 0.000000 0.000000 0.000000
# 2 -0.004028 0.022607 -0.009796 0.000000 0.000000 0.000000
# 3 -0.009796 -0.009796 0.020900 0.000000 0.000000 0.000000
# 4 0.000000 0.000000 0.000000 0.046338 0.000000 0.000000
# 5 0.000000 0.000000 0.000000 0.000000 0.046338 0.000000
# 6 0.000000 0.000000 0.000000 0.000000 0.000000 0.097042
#
#
# Mechanical properties :
#
#
# Convention : Reuss Voigt Hill
#
# Bulk Modulus (GPa) = 52.99056 56.34137 54.66597
# Shear Modulus (GPa) = 16.16224 17.65140 16.90682
#
# Velocity S-wave (km/s) = 3.29677 3.44530 3.37186
# Velocity P-wave (km/s) = 7.08000 7.32905 7.20560
#
# Compressibility (1/GPa) = 0.01887129
#
# Stress axis : x y z
#
# Youngs Moduli (GPa) = 44.23483 44.23483 47.84652
#
# Poissons Ratio (x) = 0.17818 0.46873
# Poissons Ratio (y) = 0.17818 0.46873
# Poissons Ratio (z) = 0.43335 0.43335
#
# Static dielectric constant tensor:
#      x y z
#    x 2.959060 0.000000 0.000000 
#    y 0.000000 2.959060 0.000000 
#    z 0.000000 0.000000 2.774730 
# 
# 
# High freq. dielectric constant tensor:
#      x y z
#    x 1.551500 0.000000 0.000000 
#    y 0.000000 1.551500 0.000000 
#    z 0.000000 0.000000 1.552380 
# 
# From -- ./inp_files/13682.got.cif
#   From: 2010.03.12/outbox.cif.g09.slc.cpg/sg131_7_cif.got.tgz:13682.got - 2010.04.06 17:36:35.
