data_PCOD8315288
_publ_section_title
;
Structure prediction by ZEFSAII (Michael W. Deem and Ramdas Pophale) SiO2 
 PCOD8315288
Probable space group: P 4/N M M
;
_chemical_formula_sum "Si O2"
_cell_formula_units_Z 112
_cell_length_a 17.588145
_cell_length_b 17.588145
_cell_length_c 21.853414
_cell_angle_alpha 90.000000
_cell_angle_beta 90.000000
_cell_angle_gamma 90.000000
_cell_volume 6760.197250
_symmetry_space_group_name_H-M "P 4/N M M"
_symmetry_group_IT_number 129
_symmetry_cell_setting 'tetragonal'
loop_
_space_group_symop_operation_xyz
x,y,z
1/2-y,x,z
1/2-x,1/2-y,z
y,1/2-x,z
1/2+x,-y,-z
-x,1/2+y,-z
1/2+y,1/2+x,-z
-y,-x,-z
-x,-y,-z
1/2+y,-x,-z
1/2+x,1/2+y,-z
-y,1/2+x,-z
1/2-x,y,z
x,1/2-y,z
1/2-y,1/2-x,z
y,x,z
loop_
_atom_site_type_symbol
_atom_site_label
_atom_site_fract_x
_atom_site_fract_y
_atom_site_fract_z
Si Si1 0.964611 0.838199 0.744048
Si Si2 0.550382 0.667699 0.997024
Si Si3 0.453985 0.578089 0.643489
Si Si4 0.338333 0.035970 0.601646
Si Si5 0.606354 0.013809 0.872894
Si Si6 0.833412 0.104966 0.061832
Si Si7 0.547627 0.336753 0.478389
O O1 0.944728 0.750000 0.731258
O O2 0.888610 0.888610 0.732279
O O3 0.034814 0.864815 0.700586
O O4 0.994350 0.846549 0.812777
O O5 0.588247 0.750000 0.994534
O O6 0.611030 0.611030 0.025080
O O7 0.482238 0.664852 0.043982
O O8 0.526879 0.646628 0.928912
O O9 0.507940 0.507940 0.654433
O O10 0.370085 0.539027 0.638065
O O11 0.480405 0.621691 0.582621
O O12 0.250000 0.049302 0.620576
O O13 0.387891 0.112109 0.615361
O O14 0.345083 0.018035 0.529379
O O15 0.613093 0.104272 0.884657
O O16 0.519602 0.980399 0.867483
O O17 0.750000 0.128121 0.087592
O O18 0.847332 0.152669 0.000000
O O19 0.626539 0.373462 0.500000
O O20 0.565532 0.250000 0.463092
#
# Coordination Sequence:
#
# PCOD8315288 Si02
#       7
#    16  16  16  16  16  16  16
#     4  10  20  33  50  70  92 120 151 183 218 256
#     4   9  16  26  42  64  89 116 144 176 215 258
#     4   9  17  30  47  65  87 119 156 187 217 261
#     4   9  17  29  46  68  92 117 148 188 232 276
#     4   9  17  30  46  63  86 117 151 182 214 259
#     4   9  17  29  45  64  85 110 143 183 224 265
#     4   9  16  26  42  64  89 117 149 185 223 265
#
# _framework density 16.567564000000001
#
# number of rings (size 3 to 8) (size 9 to 14) (size 15 to 20)
#    0.000    2.857    0.000    1.714    0.000    4.714 
#    0.000    0.714    0.000    4.714    0.000    2.000 
#    0.000    0.000    0.000    9.000    0.000    0.000 
#
# Total GULP energy -1387749.041061 kJ/mol
# GULP energy per Si atom -12390.616438 kJ/mol
# Density = 1.652986 g / cm^3
# Si number density = 16.567564 Si / 1000 Ang^3
#
#
#
# Elastic Constant Matrix: (Units=GPa)
#
#
# Indices 1 2 3 4 5 6 
#
# 1 115.4641 26.6524 16.0746 0.0000 0.0000 0.0000
# 2 26.6524 115.4689 16.0784 0.0000 0.0000 0.0000
# 3 16.0746 16.0784 38.1977 0.0000 0.0000 0.0000
# 4 0.0000 0.0000 0.0000 16.8488 0.0000 0.0000
# 5 0.0000 0.0000 0.0000 0.0000 16.8489 0.0000
# 6 0.0000 0.0000 0.0000 0.0000 0.0000 12.7468
#
#
#
# Elastic Compliance Matrix: (Units=1/GPa)
#
#
# Indices 1 2 3 4 5 6 
#
# 1 0.009518 -0.001741 -0.003273 0.000000 0.000000 0.000000
# 2 -0.001741 0.009518 -0.003274 0.000000 0.000000 0.000000
# 3 -0.003273 -0.003274 0.028935 0.000000 0.000000 0.000000
# 4 0.000000 0.000000 0.000000 0.059351 0.000000 0.000000
# 5 0.000000 0.000000 0.000000 0.000000 0.059351 0.000000
# 6 0.000000 0.000000 0.000000 0.000000 0.000000 0.078451
#
#
# Mechanical properties :
#
#
# Convention : Reuss Voigt Hill
#
# Bulk Modulus (GPa) = 31.85112 42.97126 37.41119
# Shear Modulus (GPa) = 18.37124 23.31060 20.84092
#
# Velocity S-wave (km/s) = 3.33358 3.75507 3.55059
# Velocity P-wave (km/s) = 5.83813 6.69284 6.28004
#
# Compressibility (1/GPa) = 0.03139607
#
# Stress axis : x y z
#
# Youngs Moduli (GPa) = 105.06141 105.06292 34.56055
#
# Poissons Ratio (x) = 0.18295 0.11310
# Poissons Ratio (y) = 0.18294 0.11314
# Poissons Ratio (z) = 0.34382 0.34394
#
# Static dielectric constant tensor:
#      x y z
#    x 3.271720 0.000000 0.000000 
#    y 0.000000 3.271730 0.000000 
#    z 0.000000 0.000000 3.039930 
# 
# 
# High freq. dielectric constant tensor:
#      x y z
#    x 1.634310 0.000000 0.000000 
#    y 0.000000 1.634310 0.000000 
#    z 0.000000 0.000000 1.615010 
# 
# From -- ./inp_files/6699.got.cif
#   From: 2010.03.12/outbox.cif.g09.slc.cpg/sg129_4_cif.got.tgz:6699.got - 2010.04.06 17:19:44.
