data_PCOD8315060
_publ_section_title
;
Structure prediction by ZEFSAII (Michael W. Deem and Ramdas Pophale) SiO2 
 PCOD8315060
Probable space group: P 4/N M M
;
_chemical_formula_sum "Si O2"
_cell_formula_units_Z 88
_cell_length_a 13.302842
_cell_length_b 13.302842
_cell_length_c 28.322058
_cell_angle_alpha 90.000000
_cell_angle_beta 90.000000
_cell_angle_gamma 90.000000
_cell_volume 5012.030137
_symmetry_space_group_name_H-M "P 4/N M M"
_symmetry_group_IT_number 129
_symmetry_cell_setting 'tetragonal'
loop_
_space_group_symop_operation_xyz
x,y,z
1/2-y,x,z
1/2-x,1/2-y,z
y,1/2-x,z
1/2+x,-y,-z
-x,1/2+y,-z
1/2+y,1/2+x,-z
-y,-x,-z
-x,-y,-z
1/2+y,-x,-z
1/2+x,1/2+y,-z
-y,1/2+x,-z
1/2-x,y,z
x,1/2-y,z
1/2-y,1/2-x,z
y,x,z
loop_
_atom_site_type_symbol
_atom_site_label
_atom_site_fract_x
_atom_site_fract_y
_atom_site_fract_z
Si Si1 0.631707 0.024278 0.906792
Si Si2 0.868196 0.029183 0.282918
Si Si3 0.366669 0.633332 0.000000
Si Si4 0.533065 0.131922 0.544057
Si Si5 0.632652 0.363359 0.186921
Si Si6 0.967421 0.132276 0.367864
O O1 0.750000 0.016415 0.907624
O O2 0.590513 0.080829 0.953123
O O3 0.593541 0.081562 0.860162
O O4 0.587573 0.912428 0.906210
O O5 0.750000 0.013183 0.290008
O O6 0.895992 0.066864 0.230792
O O7 0.909039 0.112320 0.319147
O O8 0.922658 0.922658 0.292095
O O9 0.250000 0.610766 0.993907
O O10 0.602021 0.102021 0.500000
O O11 0.508775 0.250000 0.542895
O O12 0.595287 0.105435 0.590707
O O13 0.427089 0.072912 0.542639
O O14 0.750000 0.364231 0.177190
O O15 0.595714 0.250000 0.197741
O O16 0.990740 0.250000 0.372967
O O17 0.073512 0.073512 0.369719
#
# Coordination Sequence:
#
# PCOD8315060 Si02
#       6
#    16  16   8  16  16  16
#     4  10  19  30  45  65  91 121 150 183 224 272
#     4  10  20  33  50  73 100 130 164 201 241 287
#     4   9  17  30  48  68  87 109 144 190 234 271
#     4  10  21  36  54  78 106 136 172 211 251 297
#     4   9  17  30  49  71  92 117 153 196 239 279
#     4  10  21  36  54  77 103 131 166 206 248 296
#
# _framework density 17.557756000000001
#
# number of rings (size 3 to 8) (size 9 to 14) (size 15 to 20)
#    0.000    2.273    0.000    3.000    0.000    6.000 
#    0.000    0.000    0.000    6.545    0.000    2.545 
#    0.000   13.091    0.000    0.000    0.000    0.000 
#
# Total GULP energy -1091243.095389 kJ/mol
# GULP energy per Si atom -12400.489720 kJ/mol
# Density = 1.751779 g / cm^3
# Si number density = 17.557756 Si / 1000 Ang^3
#
#
#
# Elastic Constant Matrix: (Units=GPa)
#
#
# Indices 1 2 3 4 5 6 
#
# 1 95.5106 50.8831 48.1088 0.0000 0.0000 0.0000
# 2 50.8831 95.5112 48.1087 0.0000 0.0000 0.0000
# 3 48.1088 48.1087 126.1433 0.0000 0.0000 0.0000
# 4 0.0000 0.0000 0.0000 22.2269 0.0000 0.0000
# 5 0.0000 0.0000 0.0000 0.0000 22.2268 0.0000
# 6 0.0000 0.0000 0.0000 0.0000 0.0000 21.8337
#
#
#
# Elastic Compliance Matrix: (Units=1/GPa)
#
#
# Indices 1 2 3 4 5 6 
#
# 1 0.015762 -0.006646 -0.003477 0.000000 0.000000 0.000000
# 2 -0.006646 0.015762 -0.003477 0.000000 0.000000 0.000000
# 3 -0.003477 -0.003477 0.010579 0.000000 0.000000 0.000000
# 4 0.000000 0.000000 0.000000 0.044991 0.000000 0.000000
# 5 0.000000 0.000000 0.000000 0.000000 0.044991 0.000000
# 6 0.000000 0.000000 0.000000 0.000000 0.000000 0.045801
#
#
# Mechanical properties :
#
#
# Convention : Reuss Voigt Hill
#
# Bulk Modulus (GPa) = 67.09338 67.92957 67.51147
# Shear Modulus (GPa) = 23.80373 24.59513 24.19943
#
# Velocity S-wave (km/s) = 3.68603 3.74680 3.71654
# Velocity P-wave (km/s) = 7.51077 7.58230 7.54662
#
# Compressibility (1/GPa) = 0.01490460
#
# Stress axis : x y z
#
# Youngs Moduli (GPa) = 63.44461 63.44513 94.52388
#
# Poissons Ratio (x) = 0.42164 0.32863
# Poissons Ratio (y) = 0.42164 0.32862
# Poissons Ratio (z) = 0.22058 0.22057
#
# Static dielectric constant tensor:
#      x y z
#    x 3.106330 0.000000 0.000000 
#    y 0.000000 3.106320 0.000000 
#    z 0.000000 0.000000 3.606450 
# 
# 
# High freq. dielectric constant tensor:
#      x y z
#    x 1.668890 0.000000 0.000000 
#    y 0.000000 1.668890 0.000000 
#    z 0.000000 0.000000 1.701970 
# 
# From -- ./inp_files/7766.got.cif
#   From: 2010.03.12/outbox.cif.g09.slc.cpg/sg129_4_cif.got.tgz:7766.got - 2010.04.06 17:19:44.
