data_PCOD8315088
_publ_section_title
;
Structure prediction by ZEFSAII (Michael W. Deem and Ramdas Pophale) SiO2 
 PCOD8315088
Probable space group: P 4/N M M
;
_chemical_formula_sum "Si O2"
_cell_formula_units_Z 72
_cell_length_a 23.399708
_cell_length_b 23.399708
_cell_length_c 8.827328
_cell_angle_alpha 90.000000
_cell_angle_beta 90.000000
_cell_angle_gamma 90.000000
_cell_volume 4833.371090
_symmetry_space_group_name_H-M "P 4/N M M"
_symmetry_group_IT_number 129
_symmetry_cell_setting 'tetragonal'
loop_
_space_group_symop_operation_xyz
x,y,z
1/2-y,x,z
1/2-x,1/2-y,z
y,1/2-x,z
1/2+x,-y,-z
-x,1/2+y,-z
1/2+y,1/2+x,-z
-y,-x,-z
-x,-y,-z
1/2+y,-x,-z
1/2+x,1/2+y,-z
-y,1/2+x,-z
1/2-x,y,z
x,1/2-y,z
1/2-y,1/2-x,z
y,x,z
loop_
_atom_site_type_symbol
_atom_site_label
_atom_site_fract_x
_atom_site_fract_y
_atom_site_fract_z
Si Si1 0.452318 0.952318 0.331021
Si Si2 0.463759 0.371006 0.820703
Si Si3 0.750000 0.551219 0.669960
Si Si4 0.250000 0.157604 0.499997
Si Si5 0.750000 0.551219 0.330045
Si Si6 0.963760 0.628993 0.820707
O O1 0.433396 0.933396 0.500000
O O2 0.477863 0.898592 0.241179
O O3 0.499999 0.000001 0.342037
O O4 0.398592 0.977862 0.241176
O O5 0.407986 0.407986 0.766874
O O6 0.464679 0.306644 0.760684
O O7 0.466199 0.370023 0.999998
O O8 0.750000 0.619795 0.652160
O O9 0.750000 0.523086 0.500002
O O10 0.693356 0.535320 0.760688
O O11 0.306742 0.193259 0.499997
O O12 0.250000 0.119796 0.652155
O O13 0.907987 0.592014 0.766878
#
# Coordination Sequence:
#
# PCOD8315088 Si02
#       6
#    16  16   8   8   8  16
#     4   9  17  29  47  67  89 116 149 186 229 285
#     4  10  19  31  46  66  92 121 152 190 238 286
#     4  10  20  29  46  63  89 117 156 196 231 269
#     4   9  18  30  44  60  82 116 160 201 234 268
#     4  10  20  29  46  63  89 117 156 196 231 269
#     4  10  19  31  46  66  92 121 152 190 238 286
#
# _framework density 14.896436
#
# number of rings (size 3 to 8) (size 9 to 14) (size 15 to 20)
#    0.667    1.667    0.000    4.000    0.000    4.444 
#    0.000    0.000    0.000    0.000    0.000    9.333 
#    0.000    0.889    0.000    8.889    0.000    5.333 
#
# Total GULP energy -892199.641499 kJ/mol
# GULP energy per Si atom -12391.661687 kJ/mol
# Density = 1.486253 g / cm^3
# Si number density = 14.896436 Si / 1000 Ang^3
#
#
#
# Elastic Constant Matrix: (Units=GPa)
#
#
# Indices 1 2 3 4 5 6 
#
# 1 98.7027 63.2425 43.1692 0.0000 0.0000 0.0000
# 2 63.2425 98.7027 43.1692 0.0000 0.0000 0.0000
# 3 43.1692 43.1692 89.9662 0.0000 0.0000 0.0000
# 4 0.0000 0.0000 0.0000 27.2579 0.0000 0.0000
# 5 0.0000 0.0000 0.0000 0.0000 27.2579 0.0000
# 6 0.0000 0.0000 0.0000 0.0000 0.0000 30.0800
#
#
#
# Elastic Compliance Matrix: (Units=1/GPa)
#
#
# Indices 1 2 3 4 5 6 
#
# 1 0.018249 -0.009952 -0.003982 0.000000 0.000000 0.000000
# 2 -0.009952 0.018249 -0.003982 0.000000 0.000000 0.000000
# 3 -0.003982 -0.003982 0.014936 0.000000 0.000000 0.000000
# 4 0.000000 0.000000 0.000000 0.036687 0.000000 0.000000
# 5 0.000000 0.000000 0.000000 0.000000 0.036687 0.000000
# 6 0.000000 0.000000 0.000000 0.000000 0.000000 0.033245
#
#
# Mechanical properties :
#
#
# Convention : Reuss Voigt Hill
#
# Bulk Modulus (GPa) = 64.08027 65.17038 64.62533
# Shear Modulus (GPa) = 25.11515 26.10523 25.61019
#
# Velocity S-wave (km/s) = 4.11053 4.19077 4.15084
# Velocity P-wave (km/s) = 8.10180 8.20126 8.15168
#
# Compressibility (1/GPa) = 0.01560543
#
# Stress axis : x y z
#
# Youngs Moduli (GPa) = 54.79722 54.79722 66.95124
#
# Poissons Ratio (x) = 0.54531 0.26657
# Poissons Ratio (y) = 0.54531 0.26657
# Poissons Ratio (z) = 0.21818 0.21818
#
# Static dielectric constant tensor:
#      x y z
#    x 2.791090 0.000000 0.000000 
#    y 0.000000 2.791090 0.000000 
#    z 0.000000 0.000000 2.971400 
# 
# 
# High freq. dielectric constant tensor:
#      x y z
#    x 1.551190 0.000000 0.000000 
#    y 0.000000 1.551190 0.000000 
#    z 0.000000 0.000000 1.581990 
# 
# From -- ./inp_files/2463.got.cif
#   From: 2010.03.12/outbox.cif.g09.slc.cpg/sg129_2_cif.got.tgz:2463.got - 2010.04.06 17:19:44.
