data_PCOD8315324
_publ_section_title
;
Structure prediction by ZEFSAII (Michael W. Deem and Ramdas Pophale) SiO2 
 PCOD8315324
Probable space group: P 4/N M M
;
_chemical_formula_sum "Si O2"
_cell_formula_units_Z 88
_cell_length_a 13.335061
_cell_length_b 13.335061
_cell_length_c 27.886980
_cell_angle_alpha 90.000000
_cell_angle_beta 90.000000
_cell_angle_gamma 90.000000
_cell_volume 4958.970201
_symmetry_space_group_name_H-M "P 4/N M M"
_symmetry_group_IT_number 129
_symmetry_cell_setting 'tetragonal'
loop_
_space_group_symop_operation_xyz
x,y,z
1/2-y,x,z
1/2-x,1/2-y,z
y,1/2-x,z
1/2+x,-y,-z
-x,1/2+y,-z
1/2+y,1/2+x,-z
-y,-x,-z
-x,-y,-z
1/2+y,-x,-z
1/2+x,1/2+y,-z
-y,1/2+x,-z
1/2-x,y,z
x,1/2-y,z
1/2-y,1/2-x,z
y,x,z
loop_
_atom_site_type_symbol
_atom_site_label
_atom_site_fract_x
_atom_site_fract_y
_atom_site_fract_z
Si Si1 0.971789 0.367362 0.597585
Si Si2 0.472121 0.633963 0.853658
Si Si3 0.530645 0.366601 0.770261
Si Si4 0.525169 0.362995 0.037699
Si Si5 0.635356 0.135356 0.500000
Si Si6 0.633305 0.468627 0.682813
O O1 0.990059 0.250000 0.604692
O O2 0.933758 0.394003 0.544585
O O3 0.889158 0.405441 0.635034
O O4 0.077222 0.422779 0.606786
O O5 0.489495 0.750000 0.841064
O O6 0.577773 0.577773 0.844443
O O7 0.386247 0.586895 0.820423
O O8 0.435453 0.618408 0.908306
O O9 0.505571 0.250000 0.765352
O O10 0.425766 0.425766 0.767395
O O11 0.604231 0.400752 0.728029
O O12 0.489566 0.250000 0.031047
O O13 0.428677 0.428677 0.025317
O O14 0.613239 0.386762 0.000000
O O15 0.617821 0.250000 0.484582
O O16 0.750000 0.495392 0.684884
O O17 0.572981 0.572981 0.683234
#
# Coordination Sequence:
#
# PCOD8315324 Si02
#       6
#    16  16  16  16   8  16
#     4  10  20  33  50  73 101 133 169 208 248 291
#     4   9  18  32  50  73  99 127 160 198 242 291
#     4  10  21  36  53  74 100 130 165 203 241 283
#     4   9  18  32  49  70  97 127 160 200 243 288
#     4   9  17  30  50  74  97 125 164 208 253 299
#     4  10  21  36  54  77 103 130 162 200 243 292
#
# _framework density 17.745621
#
# number of rings (size 3 to 8) (size 9 to 14) (size 15 to 20)
#    0.000    2.455    0.000    1.909    0.000    5.091 
#    0.000    3.636    0.000    6.545    0.000    7.636 
#    0.000    0.000    0.000    0.000    0.000    0.000 
#
# Total GULP energy -1091354.265880 kJ/mol
# GULP energy per Si atom -12401.753021 kJ/mol
# Density = 1.770523 g / cm^3
# Si number density = 17.745621 Si / 1000 Ang^3
#
#
#
# Elastic Constant Matrix: (Units=GPa)
#
#
# Indices 1 2 3 4 5 6 
#
# 1 115.6875 50.4107 54.0713 0.0000 0.0000 0.0000
# 2 50.4107 115.6908 54.0713 0.0000 0.0000 0.0000
# 3 54.0713 54.0713 102.6409 0.0000 0.0000 0.0000
# 4 0.0000 0.0000 0.0000 25.1403 0.0000 0.0000
# 5 0.0000 0.0000 0.0000 0.0000 25.1402 0.0000
# 6 0.0000 0.0000 0.0000 0.0000 0.0000 13.8613
#
#
#
# Elastic Compliance Matrix: (Units=1/GPa)
#
#
# Indices 1 2 3 4 5 6 
#
# 1 0.012241 -0.003078 -0.004827 0.000000 0.000000 0.000000
# 2 -0.003078 0.012241 -0.004827 0.000000 0.000000 0.000000
# 3 -0.004827 -0.004827 0.014829 0.000000 0.000000 0.000000
# 4 0.000000 0.000000 0.000000 0.039777 0.000000 0.000000
# 5 0.000000 0.000000 0.000000 0.000000 0.039777 0.000000
# 6 0.000000 0.000000 0.000000 0.000000 0.000000 0.072143
#
#
# Mechanical properties :
#
#
# Convention : Reuss Voigt Hill
#
# Bulk Modulus (GPa) = 72.22104 72.34731 72.28417
# Shear Modulus (GPa) = 22.61540 24.52609 23.57075
#
# Velocity S-wave (km/s) = 3.57378 3.72168 3.64848
# Velocity P-wave (km/s) = 7.60365 7.70231 7.65314
#
# Compressibility (1/GPa) = 0.01384638
#
# Stress axis : x y z
#
# Youngs Moduli (GPa) = 81.68994 81.69297 67.43670
#
# Poissons Ratio (x) = 0.25144 0.32554
# Poissons Ratio (y) = 0.25143 0.32553
# Poissons Ratio (z) = 0.39435 0.39434
#
# Static dielectric constant tensor:
#      x y z
#    x 3.157950 0.000000 0.000000 
#    y 0.000000 3.157950 0.000000 
#    z 0.000000 0.000000 3.530840 
# 
# 
# High freq. dielectric constant tensor:
#      x y z
#    x 1.679030 0.000000 0.000000 
#    y 0.000000 1.679030 0.000000 
#    z 0.000000 0.000000 1.704610 
# 
# From -- ./inp_files/7746.got.cif
#   From: 2010.03.12/outbox.cif.g09.slc.cpg/sg129_4_cif.got.tgz:7746.got - 2010.04.06 17:19:44.
