data_PCOD8315475
_publ_section_title
;
Structure prediction by ZEFSAII (Michael W. Deem and Ramdas Pophale) SiO2 
 PCOD8315475
Probable space group: P 4/N C C
;
_chemical_formula_sum "Si O2"
_cell_formula_units_Z 96
_cell_length_a 15.023944
_cell_length_b 15.023944
_cell_length_c 24.143157
_cell_angle_alpha 90.000000
_cell_angle_beta 90.000000
_cell_angle_gamma 90.000000
_cell_volume 5449.566679
_symmetry_space_group_name_H-M "P 4/N C C"
_symmetry_group_IT_number 130
_symmetry_cell_setting 'tetragonal'
loop_
_space_group_symop_operation_xyz
x,y,z
1/2-y,x,z
1/2-x,1/2-y,z
y,1/2-x,z
1/2+x,-y,1/2-z
-x,1/2+y,1/2-z
1/2+y,1/2+x,1/2-z
-y,-x,1/2-z
-x,-y,-z
1/2+y,-x,-z
1/2+x,1/2+y,-z
-y,1/2+x,-z
1/2-x,y,1/2+z
x,1/2-y,1/2+z
1/2-y,1/2-x,1/2+z
y,x,1/2+z
loop_
_atom_site_type_symbol
_atom_site_label
_atom_site_fract_x
_atom_site_fract_y
_atom_site_fract_z
Si Si1 0.333482 0.370356 0.772596
Si Si2 0.916465 0.171251 0.453163
Si Si3 0.649589 0.258329 0.128642
Si Si4 0.427118 0.461715 0.874214
Si Si5 0.373717 0.912866 0.936947
Si Si6 0.880140 0.470017 0.800471
O O1 0.227623 0.372661 0.768716
O O2 0.371305 0.405483 0.830354
O O3 0.362554 0.430339 0.720601
O O4 0.821509 0.149364 0.425225
O O5 0.931931 0.117803 0.510373
O O6 0.922327 0.275982 0.462611
O O7 0.998006 0.146825 0.414034
O O8 0.750000 0.250000 0.153612
O O9 0.618556 0.160294 0.111284
O O10 0.578812 0.294029 0.173526
O O11 0.494472 0.403565 0.910441
O O12 0.481128 0.541075 0.844764
O O13 0.907412 0.407412 0.750000
#
# Coordination Sequence:
#
# PCOD8315475 Si02
#       6
#    16  16  16  16  16  16
#     4  10  21  38  58  75 102 145 184 226 276 330
#     4  10  19  34  52  78 112 140 175 216 265 332
#     4   9  19  32  53  81 110 143 176 217 273 329
#     4  10  21  35  53  81 107 136 181 228 269 315
#     4  11  19  32  57  79 108 146 176 218 271 331
#     4   9  20  37  53  77 112 138 179 232 272 327
#
# _framework density 17.61608
#
# number of rings (size 3 to 8) (size 9 to 14) (size 15 to 20)
#    0.000    2.167    1.667    1.500    2.333    1.667 
#    0.000    0.000    0.000    0.000    0.000    0.000 
#    0.000    0.000    0.000    0.000    0.000    0.000 
#
# Total GULP energy -1190179.482591 kJ/mol
# GULP energy per Si atom -12397.702944 kJ/mol
# Density = 1.757598 g / cm^3
# Si number density = 17.616080 Si / 1000 Ang^3
#
#
#
# Elastic Constant Matrix: (Units=GPa)
#
#
# Indices 1 2 3 4 5 6 
#
# 1 93.7661 21.5452 36.2372 0.0000 0.0000 0.0000
# 2 21.5452 93.7661 36.2372 0.0000 0.0000 0.0000
# 3 36.2372 36.2372 86.5008 0.0000 0.0000 0.0000
# 4 0.0000 0.0000 0.0000 28.5441 0.0000 0.0000
# 5 0.0000 0.0000 0.0000 0.0000 28.5441 0.0000
# 6 0.0000 0.0000 0.0000 0.0000 0.0000 22.1296
#
#
#
# Elastic Compliance Matrix: (Units=1/GPa)
#
#
# Indices 1 2 3 4 5 6 
#
# 1 0.012809 -0.001037 -0.004931 0.000000 0.000000 0.000000
# 2 -0.001037 0.012809 -0.004931 0.000000 0.000000 0.000000
# 3 -0.004931 -0.004931 0.015692 0.000000 0.000000 0.000000
# 4 0.000000 0.000000 0.000000 0.035033 0.000000 0.000000
# 5 0.000000 0.000000 0.000000 0.000000 0.035033 0.000000
# 6 0.000000 0.000000 0.000000 0.000000 0.000000 0.045188
#
#
# Mechanical properties :
#
#
# Convention : Reuss Voigt Hill
#
# Bulk Modulus (GPa) = 51.25588 51.34138 51.29863
# Shear Modulus (GPa) = 27.04613 27.84447 27.44530
#
# Velocity S-wave (km/s) = 3.92255 3.98002 3.95139
# Velocity P-wave (km/s) = 7.04801 7.09427 7.07118
#
# Compressibility (1/GPa) = 0.01950996
#
# Stress axis : x y z
#
# Youngs Moduli (GPa) = 78.07006 78.07006 63.72534
#
# Poissons Ratio (x) = 0.08099 0.31426
# Poissons Ratio (y) = 0.08099 0.31426
# Poissons Ratio (z) = 0.38500 0.38500
#
# Static dielectric constant tensor:
#      x y z
#    x 3.224500 0.000000 0.000000 
#    y 0.000000 3.224500 0.000000 
#    z 0.000000 0.000000 3.250620 
# 
# 
# High freq. dielectric constant tensor:
#      x y z
#    x 1.678400 0.000000 0.000000 
#    y 0.000000 1.678400 0.000000 
#    z 0.000000 0.000000 1.682420 
# 
# From -- ./inp_files/3758.got.cif
#   From: 2010.03.12/outbox.cif.g09.slc.cpg/sg130_2_cif.got.tgz:3758.got - 2010.04.06 17:30:23.
