data_PCOD8315493
_publ_section_title
;
Structure prediction by ZEFSAII (Michael W. Deem and Ramdas Pophale) SiO2 
 PCOD8315493
Probable space group: P 4/N C C
;
_chemical_formula_sum "Si O2"
_cell_formula_units_Z 56
_cell_length_a 12.338568
_cell_length_b 12.338568
_cell_length_c 18.694040
_cell_angle_alpha 90.000000
_cell_angle_beta 90.000000
_cell_angle_gamma 90.000000
_cell_volume 2845.985515
_symmetry_space_group_name_H-M "P 4/N C C"
_symmetry_group_IT_number 130
_symmetry_cell_setting 'tetragonal'
loop_
_space_group_symop_operation_xyz
x,y,z
1/2-y,x,z
1/2-x,1/2-y,z
y,1/2-x,z
1/2+x,-y,1/2-z
-x,1/2+y,1/2-z
1/2+y,1/2+x,1/2-z
-y,-x,1/2-z
-x,-y,-z
1/2+y,-x,-z
1/2+x,1/2+y,-z
-y,1/2+x,-z
1/2-x,y,1/2+z
x,1/2-y,1/2+z
1/2-y,1/2-x,1/2+z
y,x,1/2+z
loop_
_atom_site_type_symbol
_atom_site_label
_atom_site_fract_x
_atom_site_fract_y
_atom_site_fract_z
Si Si1 0.250000 0.750000 0.000000
Si Si2 0.877388 0.622612 0.199043
Si Si3 0.578958 0.250000 0.621398
Si Si4 0.539950 0.960049 0.849864
Si Si5 0.250000 0.750000 0.250000
O O1 0.148269 0.750000 0.949096
O O2 0.901998 0.750000 0.190503
O O3 0.922804 0.577195 0.272212
O O4 0.946970 0.553030 0.142724
O O5 0.504289 0.354216 0.611836
O O6 0.504289 0.145784 0.611836
O O7 0.644768 0.250000 0.697735
#
# Coordination Sequence:
#
# PCOD8315493 Si02
#       5
#     4  16  16  16   4
#     4  10  28  46  64  86 116 178 220 270 304 386
#     4  10  20  34  56  98 136 159 198 252 321 374
#     4  11  24  41  64  93 129 164 216 252 321 365
#     4  11  22  35  62  90 128 172 200 260 311 377
#     4  10  20  38  64  98 128 158 208 254 292 382
#
# _framework density 19.676839000000001
#
# number of rings (size 3 to 8) (size 9 to 14) (size 15 to 20)
#    0.000    1.429    2.857    3.429    8.000    1.714 
#    0.000    0.000    0.000    0.000    0.000    0.000 
#    0.000    0.000    0.000    0.000    0.000    0.000 
#
# Total GULP energy -693987.426145 kJ/mol
# GULP energy per Si atom -12392.632610 kJ/mol
# Density = 1.963205 g / cm^3
# Si number density = 19.676839 Si / 1000 Ang^3
#
#
#
# Elastic Constant Matrix: (Units=GPa)
#
#
# Indices 1 2 3 4 5 6 
#
# 1 187.6149 114.8149 49.9650 0.0000 0.0000 0.0000
# 2 114.8149 187.6149 49.9650 0.0000 0.0000 0.0000
# 3 49.9650 49.9650 88.3448 0.0000 0.0000 0.0000
# 4 0.0000 0.0000 0.0000 19.1916 0.0000 0.0000
# 5 0.0000 0.0000 0.0000 0.0000 19.1916 0.0000
# 6 0.0000 0.0000 0.0000 0.0000 0.0000 51.9022
#
#
#
# Elastic Compliance Matrix: (Units=1/GPa)
#
#
# Indices 1 2 3 4 5 6 
#
# 1 0.008901 -0.004835 -0.002300 0.000000 0.000000 0.000000
# 2 -0.004835 0.008901 -0.002300 0.000000 0.000000 0.000000
# 3 -0.002300 -0.002300 0.013921 0.000000 0.000000 0.000000
# 4 0.000000 0.000000 0.000000 0.052106 0.000000 0.000000
# 5 0.000000 0.000000 0.000000 0.000000 0.052106 0.000000
# 6 0.000000 0.000000 0.000000 0.000000 0.000000 0.019267
#
#
# Mechanical properties :
#
#
# Convention : Reuss Voigt Hill
#
# Bulk Modulus (GPa) = 77.79544 99.22940 88.51242
# Shear Modulus (GPa) = 28.03365 34.64569 31.33967
#
# Velocity S-wave (km/s) = 3.77862 4.20066 3.99522
# Velocity P-wave (km/s) = 7.65896 8.60619 8.14635
#
# Compressibility (1/GPa) = 0.01285422
#
# Stress axis : x y z
#
# Youngs Moduli (GPa) = 112.34212 112.34212 71.83518
#
# Poissons Ratio (x) = 0.54316 0.16521
# Poissons Ratio (y) = 0.54316 0.16521
# Poissons Ratio (z) = 0.25837 0.25837
#
# Static dielectric constant tensor:
#      x y z
#    x 3.905180 0.000000 0.000000 
#    y 0.000000 3.905180 0.000000 
#    z 0.000000 0.000000 3.188690 
# 
# 
# High freq. dielectric constant tensor:
#      x y z
#    x 1.788250 0.000000 0.000000 
#    y 0.000000 1.788250 0.000000 
#    z 0.000000 0.000000 1.719550 
# 
# From -- ./inp_files/4078.got.cif
#   From: 2010.03.12/outbox.cif.g09.slc.cpg/sg130_3_cif.got.tgz:4078.got - 2010.04.06 17:30:23.
