data_PCOD8315413
_publ_section_title
;
Structure prediction by ZEFSAII (Michael W. Deem and Ramdas Pophale) SiO2 
 PCOD8315413
Probable space group: P 4/N M M
;
_chemical_formula_sum "Si O2"
_cell_formula_units_Z 56
_cell_length_a 18.308575
_cell_length_b 18.308575
_cell_length_c 7.804413
_cell_angle_alpha 90.000000
_cell_angle_beta 90.000000
_cell_angle_gamma 90.000000
_cell_volume 2616.069819
_symmetry_space_group_name_H-M "P 4/N M M"
_symmetry_group_IT_number 129
_symmetry_cell_setting 'tetragonal'
loop_
_space_group_symop_operation_xyz
x,y,z
1/2-y,x,z
1/2-x,1/2-y,z
y,1/2-x,z
1/2+x,-y,-z
-x,1/2+y,-z
1/2+y,1/2+x,-z
-y,-x,-z
-x,-y,-z
1/2+y,-x,-z
1/2+x,1/2+y,-z
-y,1/2+x,-z
1/2-x,y,z
x,1/2-y,z
1/2-y,1/2-x,z
y,x,z
loop_
_atom_site_type_symbol
_atom_site_label
_atom_site_fract_x
_atom_site_fract_y
_atom_site_fract_z
Si Si1 0.450219 0.166956 0.999782
Si Si2 0.834603 0.550181 0.600038
Si Si3 0.666377 0.399336 0.158199
Si Si4 0.093973 0.593973 0.500000
O O1 0.430906 0.250000 0.951168
O O2 0.381577 0.118424 0.944358
O O3 0.468557 0.160368 0.199925
O O4 0.520593 0.137854 0.897666
O O5 0.750000 0.549754 0.536958
O O6 0.869916 0.630085 0.565032
O O7 0.884334 0.491612 0.497241
O O8 0.750000 0.403039 0.207747
O O9 0.625558 0.369919 0.327003
O O10 0.655594 0.344407 0.000000
#
# Coordination Sequence:
#
# PCOD8315413 Si02
#       4
#    16  16  16   8
#     4   9  19  37  61  91 127 165 206 255 310 369
#     4  10  21  38  62  93 129 169 214 264 319 379
#     4  11  24  42  64  89 123 162 205 259 316 375
#     4  12  23  40  66  97 126 167 214 260 317 374
#
# _framework density 21.406154999999998
#
# number of rings (size 3 to 8) (size 9 to 14) (size 15 to 20)
#    0.000    1.714    2.857    1.286    0.000    4.857 
#    0.000    2.857    0.000    3.857    0.000    4.000 
#    0.000    0.000    0.000    0.000    0.000    0.000 
#
# Total GULP energy -694345.196457 kJ/mol
# GULP energy per Si atom -12399.021365 kJ/mol
# Density = 2.135743 g / cm^3
# Si number density = 21.406155 Si / 1000 Ang^3
#
#
#
# Elastic Constant Matrix: (Units=GPa)
#
#
# Indices 1 2 3 4 5 6 
#
# 1 93.6569 65.1897 23.2185 0.0000 0.0000 0.0000
# 2 65.1897 93.6629 23.2204 0.0000 0.0000 0.0000
# 3 23.2185 23.2204 95.0808 0.0000 0.0000 0.0000
# 4 0.0000 0.0000 0.0000 22.3180 0.0000 0.0000
# 5 0.0000 0.0000 0.0000 0.0000 22.3177 0.0000
# 6 0.0000 0.0000 0.0000 0.0000 0.0000 33.4989
#
#
#
# Elastic Compliance Matrix: (Units=1/GPa)
#
#
# Indices 1 2 3 4 5 6 
#
# 1 0.020952 -0.014173 -0.001655 0.000000 0.000000 0.000000
# 2 -0.014173 0.020951 -0.001656 0.000000 0.000000 0.000000
# 3 -0.001655 -0.001656 0.011326 0.000000 0.000000 0.000000
# 4 0.000000 0.000000 0.000000 0.044807 0.000000 0.000000
# 5 0.000000 0.000000 0.000000 0.000000 0.044807 0.000000
# 6 0.000000 0.000000 0.000000 0.000000 0.000000 0.029852
#
#
# Mechanical properties :
#
#
# Convention : Reuss Voigt Hill
#
# Bulk Modulus (GPa) = 54.75764 56.18419 55.47091
# Shear Modulus (GPa) = 23.39175 27.01172 25.20173
#
# Velocity S-wave (km/s) = 3.30928 3.55613 3.43492
# Velocity P-wave (km/s) = 6.34331 6.57002 6.45766
#
# Compressibility (1/GPa) = 0.01826229
#
# Stress axis : x y z
#
# Youngs Moduli (GPa) = 47.72709 47.72986 88.29270
#
# Poissons Ratio (x) = 0.67646 0.14616
# Poissons Ratio (y) = 0.67642 0.14619
# Poissons Ratio (z) = 0.07900 0.07903
#
# Static dielectric constant tensor:
#      x y z
#    x 3.799060 0.000000 0.000000 
#    y 0.000000 3.799060 0.000000 
#    z 0.000000 0.000000 3.891060 
# 
# 
# High freq. dielectric constant tensor:
#      x y z
#    x 1.830960 0.000000 0.000000 
#    y 0.000000 1.830960 0.000000 
#    z 0.000000 0.000000 1.842560 
# 
# From -- ./inp_files/1762.got.cif
#   From: 2010.03.12/outbox.cif.g09.slc.cpg/sg129_1_cif.got.tgz:1762.got - 2010.04.06 17:19:44.
