data_PCOD8315337
_publ_section_title
;
Structure prediction by ZEFSAII (Michael W. Deem and Ramdas Pophale) SiO2 
 PCOD8315337
Probable space group: P 4/N M M
;
_chemical_formula_sum "Si O2"
_cell_formula_units_Z 128
_cell_length_a 19.619648
_cell_length_b 19.619648
_cell_length_c 16.684623
_cell_angle_alpha 90.000000
_cell_angle_beta 90.000000
_cell_angle_gamma 90.000000
_cell_volume 6422.421736
_symmetry_space_group_name_H-M "P 4/N M M"
_symmetry_group_IT_number 129
_symmetry_cell_setting 'tetragonal'
loop_
_space_group_symop_operation_xyz
x,y,z
1/2-y,x,z
1/2-x,1/2-y,z
y,1/2-x,z
1/2+x,-y,-z
-x,1/2+y,-z
1/2+y,1/2+x,-z
-y,-x,-z
-x,-y,-z
1/2+y,-x,-z
1/2+x,1/2+y,-z
-y,1/2+x,-z
1/2-x,y,z
x,1/2-y,z
1/2-y,1/2-x,z
y,x,z
loop_
_atom_site_type_symbol
_atom_site_label
_atom_site_fract_x
_atom_site_fract_y
_atom_site_fract_z
Si Si1 0.522608 0.632866 0.358985
Si Si2 0.438254 0.325865 0.476080
Si Si3 0.169808 0.675037 0.090365
Si Si4 0.994136 0.100952 0.959654
Si Si5 0.066885 0.325959 0.102400
Si Si6 0.413893 0.976703 0.357202
Si Si7 0.829386 0.553081 0.186002
Si Si8 0.562422 0.173231 0.210070
O O1 0.590223 0.590223 0.348265
O O2 0.535377 0.683975 0.432799
O O3 0.460757 0.584749 0.388040
O O4 0.514640 0.668787 0.272448
O O5 0.425893 0.250000 0.440732
O O6 0.367747 0.367747 0.470993
O O7 0.496935 0.364291 0.426529
O O8 0.250000 0.678292 0.100420
O O9 0.138360 0.750000 0.108809
O O10 0.139634 0.618418 0.150477
O O11 0.152319 0.652319 0.000000
O O12 0.030467 0.030467 0.935995
O O13 0.994378 0.146715 0.878389
O O14 0.037161 0.145061 0.021031
O O15 0.920976 0.079025 0.000000
O O16 0.092743 0.250000 0.085684
O O17 0.130746 0.369254 0.133241
O O18 0.011221 0.327542 0.171037
O O19 0.371079 0.941492 0.288317
O O20 0.461358 0.038643 0.324929
O O21 0.750000 0.574615 0.170254
O O22 0.879634 0.620367 0.179614
O O23 0.584046 0.250000 0.232695
#
# Coordination Sequence:
#
# PCOD8315337 Si02
#       8
#    16  16  16  16  16  16  16  16
#     4   9  19  35  56  81 111 148 190 233 279 332
#     4  10  20  36  59  87 119 151 183 226 282 347
#     4   8  15  31  53  74 102 142 184 229 286 349
#     4   9  19  34  54  77 107 147 190 238 293 341
#     4  10  21  36  54  77 107 145 191 242 295 353
#     4  10  20  35  57  80 108 147 192 237 285 331
#     4  10  20  35  56  85 121 158 196 238 287 350
#     4  10  20  33  52  80 110 142 187 239 291 348
#
# _framework density 19.930177
#
# number of rings (size 3 to 8) (size 9 to 14) (size 15 to 20)
#    0.000    2.500    0.000    2.250    1.750    2.375 
#    0.000    1.250    0.000    4.875    0.000    1.750 
#    0.000    5.250    0.000    0.000    0.000    0.000 
#
# Total GULP energy -1585819.046564 kJ/mol
# GULP energy per Si atom -12389.211301 kJ/mol
# Density = 1.988482 g / cm^3
# Si number density = 19.930177 Si / 1000 Ang^3
#
#
#
# Elastic Constant Matrix: (Units=GPa)
#
#
# Indices 1 2 3 4 5 6 
#
# 1 111.7667 36.1736 31.2796 0.0000 0.0000 0.0000
# 2 36.1736 111.7665 31.2775 0.0000 0.0000 0.0000
# 3 31.2796 31.2775 90.1802 0.0000 0.0000 0.0000
# 4 0.0000 0.0000 0.0000 25.4770 0.0000 0.0000
# 5 0.0000 0.0000 0.0000 0.0000 25.4773 0.0000
# 6 0.0000 0.0000 0.0000 0.0000 0.0000 23.4112
#
#
#
# Elastic Compliance Matrix: (Units=1/GPa)
#
#
# Indices 1 2 3 4 5 6 
#
# 1 0.010575 -0.002654 -0.002748 0.000000 0.000000 0.000000
# 2 -0.002654 0.010575 -0.002747 0.000000 0.000000 0.000000
# 3 -0.002748 -0.002747 0.012995 0.000000 0.000000 0.000000
# 4 0.000000 0.000000 0.000000 0.039251 0.000000 0.000000
# 5 0.000000 0.000000 0.000000 0.000000 0.039251 0.000000
# 6 0.000000 0.000000 0.000000 0.000000 0.000000 0.042715
#
#
# Mechanical properties :
#
#
# Convention : Reuss Voigt Hill
#
# Bulk Modulus (GPa) = 56.03023 56.79719 56.41371
# Shear Modulus (GPa) = 28.15196 29.20528 28.67862
#
# Velocity S-wave (km/s) = 3.76244 3.83218 3.79747
# Velocity P-wave (km/s) = 6.85922 6.93836 6.89890
#
# Compressibility (1/GPa) = 0.01784751
#
# Stress axis : x y z
#
# Youngs Moduli (GPa) = 94.56215 94.56322 76.95392
#
# Poissons Ratio (x) = 0.25095 0.21144
# Poissons Ratio (y) = 0.25094 0.21141
# Poissons Ratio (z) = 0.25982 0.25979
#
# Static dielectric constant tensor:
#      x y z
#    x 3.752970 0.000000 0.000000 
#    y 0.000000 3.752980 0.000000 
#    z 0.000000 0.000000 3.774140 
# 
# 
# High freq. dielectric constant tensor:
#      x y z
#    x 1.774280 0.000000 0.000000 
#    y 0.000000 1.774280 0.000000 
#    z 0.000000 0.000000 1.770960 
# 
# From -- ./inp_files/6085.got.cif
#   From: 2010.03.12/outbox.cif.g09.slc.cpg/sg129_4_cif.got.tgz:6085.got - 2010.04.06 17:19:44.
