data_PCOD8315444
_publ_section_title
;
Structure prediction by ZEFSAII (Michael W. Deem and Ramdas Pophale) SiO2 
 PCOD8315444
Probable space group: P 4/N M M
;
_chemical_formula_sum "Si O2"
_cell_formula_units_Z 64
_cell_length_a 19.437276
_cell_length_b 19.437276
_cell_length_c 7.647307
_cell_angle_alpha 90.000000
_cell_angle_beta 90.000000
_cell_angle_gamma 90.000000
_cell_volume 2889.211456
_symmetry_space_group_name_H-M "P 4/N M M"
_symmetry_group_IT_number 129
_symmetry_cell_setting 'tetragonal'
loop_
_space_group_symop_operation_xyz
x,y,z
1/2-y,x,z
1/2-x,1/2-y,z
y,1/2-x,z
1/2+x,-y,-z
-x,1/2+y,-z
1/2+y,1/2+x,-z
-y,-x,-z
-x,-y,-z
1/2+y,-x,-z
1/2+x,1/2+y,-z
-y,1/2+x,-z
1/2-x,y,z
x,1/2-y,z
1/2-y,1/2-x,z
y,x,z
loop_
_atom_site_type_symbol
_atom_site_label
_atom_site_fract_x
_atom_site_fract_y
_atom_site_fract_z
Si Si1 0.442181 0.329500 0.661063
Si Si2 0.039275 0.831576 0.643368
Si Si3 0.174922 0.668684 0.802267
Si Si4 0.560251 0.828930 0.944162
O O1 0.423503 0.250000 0.620339
O O2 0.373729 0.373729 0.624838
O O3 0.503920 0.356342 0.536331
O O4 0.468963 0.338670 0.859121
O O5 0.043038 0.750000 0.652082
O O6 0.117370 0.860602 0.668057
O O7 0.995267 0.858470 0.808652
O O8 0.250000 0.634913 0.757241
O O9 0.182382 0.750000 0.783526
O O10 0.151814 0.651814 0.000000
O O11 0.577617 0.750000 0.904834
O O12 0.631475 0.868526 0.920091
#
# Coordination Sequence:
#
# PCOD8315444 Si02
#       4
#    16  16  16  16
#     4   9  17  28  43  65  93 127 167 207 246 289
#     4   9  16  27  45  67  92 123 157 195 243 298
#     4   8  14  26  47  74  97 117 148 194 248 303
#     4   9  17  28  43  65  93 127 167 207 246 289
#
# _framework density 22.151373
#
# number of rings (size 3 to 8) (size 9 to 14) (size 15 to 20)
#    0.000    3.250    0.000    1.500    0.000    0.500 
#    0.000    2.500    0.000   10.500    0.000   21.000 
#    0.000   12.000    0.000    0.000    0.000    0.000 
#
# Total GULP energy -793229.224450 kJ/mol
# GULP energy per Si atom -12394.206632 kJ/mol
# Density = 2.210096 g / cm^3
# Si number density = 22.151373 Si / 1000 Ang^3
#
#
#
# Elastic Constant Matrix: (Units=GPa)
#
#
# Indices 1 2 3 4 5 6 
#
# 1 70.2773 18.1100 35.6900 0.0000 0.0000 0.0000
# 2 18.1100 70.2773 35.6900 0.0000 0.0000 0.0000
# 3 35.6900 35.6900 104.0068 0.0000 0.0000 0.0000
# 4 0.0000 0.0000 0.0000 8.3367 0.0000 0.0000
# 5 0.0000 0.0000 0.0000 0.0000 8.3367 0.0000
# 6 0.0000 0.0000 0.0000 0.0000 0.0000 5.6224
#
#
#
# Elastic Compliance Matrix: (Units=1/GPa)
#
#
# Indices 1 2 3 4 5 6 
#
# 1 0.017410 -0.001759 -0.005371 0.000000 0.000000 0.000000
# 2 -0.001759 0.017410 -0.005371 0.000000 0.000000 0.000000
# 3 -0.005371 -0.005371 0.013301 0.000000 0.000000 0.000000
# 4 0.000000 0.000000 0.000000 0.119952 0.000000 0.000000
# 5 0.000000 0.000000 0.000000 0.000000 0.119952 0.000000
# 6 0.000000 0.000000 0.000000 0.000000 0.000000 0.177861
#
#
# Mechanical properties :
#
#
# Convention : Reuss Voigt Hill
#
# Bulk Modulus (GPa) = 43.25235 47.06015 45.15625
# Shear Modulus (GPa) = 10.02822 14.79724 12.41273
#
# Velocity S-wave (km/s) = 2.13001 2.58738 2.36976
# Velocity P-wave (km/s) = 5.06137 5.49700 5.28368
#
# Compressibility (1/GPa) = 0.02312013
#
# Stress axis : x y z
#
# Youngs Moduli (GPa) = 57.43792 57.43792 75.18430
#
# Poissons Ratio (x) = 0.10103 0.40379
# Poissons Ratio (y) = 0.10103 0.40379
# Poissons Ratio (z) = 0.30848 0.30848
#
# Static dielectric constant tensor:
#      x y z
#    x 3.937910 0.000000 0.000000 
#    y 0.000000 3.937910 0.000000 
#    z 0.000000 0.000000 4.269410 
# 
# 
# High freq. dielectric constant tensor:
#      x y z
#    x 1.847730 0.000000 0.000000 
#    y 0.000000 1.847730 0.000000 
#    z 0.000000 0.000000 1.886660 
# 
# From -- ./inp_files/2058.got.cif
#   From: 2010.03.12/outbox.cif.g09.slc.cpg/sg129_2_cif.got.tgz:2058.got - 2010.04.06 17:19:44.
