data_PCOD8315827
_publ_section_title
;
Structure prediction by ZEFSAII (Michael W. Deem and Ramdas Pophale) SiO2 
 PCOD8315827
Probable space group: P 42/M M C
;
_chemical_formula_sum "Si O2"
_cell_formula_units_Z 80
_cell_length_a 19.726747
_cell_length_b 19.726747
_cell_length_c 14.715103
_cell_angle_alpha 90.000000
_cell_angle_beta 90.000000
_cell_angle_gamma 90.000000
_cell_volume 5726.302094
_symmetry_space_group_name_H-M "P 42/M M C"
_symmetry_group_IT_number 131
_symmetry_cell_setting 'tetragonal'
loop_
_space_group_symop_operation_xyz
x,y,z
-x,-y,z
-y,x,1/2+z
y,-x,1/2+z
-x,y,-z
x,-y,-z
y,x,1/2-z
-y,-x,1/2-z
-x,-y,-z
x,y,-z
y,-x,1/2-z
-y,x,1/2-z
x,-y,z
-x,y,z
-y,-x,1/2+z
y,x,1/2+z
loop_
_atom_site_type_symbol
_atom_site_label
_atom_site_fract_x
_atom_site_fract_y
_atom_site_fract_z
Si Si1 0.424186 0.249793 0.401348
Si Si2 0.193673 0.420902 0.601673
Si Si3 0.500000 0.579228 0.107424
Si Si4 0.128114 0.419959 0.782760
Si Si5 0.660648 0.630810 0.349478
Si Si6 0.418981 0.000000 0.394352
O O1 0.428053 0.214258 0.500000
O O2 0.500000 0.272678 0.370385
O O3 0.393372 0.196318 0.330654
O O4 0.376304 0.314562 0.412568
O O5 0.165477 0.406104 0.500000
O O6 0.210767 0.500000 0.614351
O O7 0.135854 0.399310 0.675796
O O8 0.263466 0.380782 0.615285
O O9 0.500000 0.500000 0.133018
O O10 0.563838 0.615679 0.151467
O O11 0.500000 0.590802 0.000000
O O12 0.122794 0.500000 0.793227
O O13 0.063619 0.389296 0.836289
O O14 0.662839 0.662839 0.250000
O O15 0.500000 0.000000 0.395260
O O16 0.392981 0.000000 0.500000
#
# Coordination Sequence:
#
# PCOD8315827 Si02
#       6
#    16  16   8  16  16   8
#     4  10  19  30  42  57  76  98 129 170 210 248
#     4  10  19  32  45  56  75 104 134 164 200 242
#     4  11  24  34  40  52  70  97 136 181 223 258
#     4   9  17  29  44  63  78  96 119 149 191 253
#     4  12  22  30  43  55  73 102 137 174 211 248
#     4   9  16  28  47  67  85  97 108 138 191 250
#
# _framework density 13.970622000000001
#
# number of rings (size 3 to 8) (size 9 to 14) (size 15 to 20)
#    0.000    1.800    3.000    3.000    2.800    4.000 
#    0.000    0.500    0.000    3.000    0.000    0.000 
#    0.000    0.000    0.000    0.000    0.000    0.000 
#
# Total GULP energy -991392.231953 kJ/mol
# GULP energy per Si atom -12392.402899 kJ/mol
# Density = 1.393882 g / cm^3
# Si number density = 13.970622 Si / 1000 Ang^3
#
#
#
# Elastic Constant Matrix: (Units=GPa)
#
#
# Indices 1 2 3 4 5 6 
#
# 1 57.0370 14.4187 30.1715 0.0000 0.0000 0.0000
# 2 14.4187 57.0370 30.1715 0.0000 0.0000 0.0000
# 3 30.1715 30.1715 115.8499 0.0000 0.0000 0.0000
# 4 0.0000 0.0000 0.0000 17.2436 0.0000 0.0000
# 5 0.0000 0.0000 0.0000 0.0000 17.2436 0.0000
# 6 0.0000 0.0000 0.0000 0.0000 0.0000 -13.5403
#
#
#
# Elastic Compliance Matrix: (Units=1/GPa)
#
#
# Indices 1 2 3 4 5 6 
#
# 1 0.020702 -0.002762 -0.004672 0.000000 0.000000 0.000000
# 2 -0.002762 0.020702 -0.004672 0.000000 0.000000 0.000000
# 3 -0.004672 -0.004672 0.011066 0.000000 0.000000 0.000000
# 4 0.000000 0.000000 0.000000 0.057993 0.000000 0.000000
# 5 0.000000 0.000000 0.000000 0.000000 0.057993 0.000000
# 6 0.000000 0.000000 0.000000 0.000000 0.000000 -0.073854
#
#
# Mechanical properties :
#
#
# Convention : Reuss Voigt Hill
#
# Bulk Modulus (GPa) = 35.38946 42.16083 38.77514
# Shear Modulus (GPa) = 38.99133 14.53352 26.76242
#
# Velocity S-wave (km/s) = 5.28868 3.22885 4.38153
# Velocity P-wave (km/s) = 7.91706 6.64412 7.30836
#
# Compressibility (1/GPa) = 0.02825700
#
# Stress axis : x y z
#
# Youngs Moduli (GPa) = 48.30397 48.30397 90.37056
#
# Poissons Ratio (x) = 0.13341 0.42224
# Poissons Ratio (y) = 0.13341 0.42224
# Poissons Ratio (z) = 0.22569 0.22569
#
# Static dielectric constant tensor:
#      x y z
#    x 2.517750 0.000000 0.000000 
#    y 0.000000 2.517750 0.000000 
#    z 0.000000 0.000000 3.064340 
# 
# 
# High freq. dielectric constant tensor:
#      x y z
#    x 1.485940 0.000000 0.000000 
#    y 0.000000 1.485940 0.000000 
#    z 0.000000 0.000000 1.562270 
# 
# From -- ./inp_files/6044.got.cif
#   From: 2010.03.12/outbox.cif.g09.slc.cpg/sg131_4_cif.got.tgz:6044.got - 2010.04.06 17:36:35.
