data_PCOD8315108
_publ_section_title
;
Structure prediction by ZEFSAII (Michael W. Deem and Ramdas Pophale) SiO2 
 PCOD8315108
Probable space group: P 4/N M M
;
_chemical_formula_sum "Si O2"
_cell_formula_units_Z 112
_cell_length_a 14.385110
_cell_length_b 14.385110
_cell_length_c 30.665015
_cell_angle_alpha 90.000000
_cell_angle_beta 90.000000
_cell_angle_gamma 90.000000
_cell_volume 6345.554169
_symmetry_space_group_name_H-M "P 4/N M M"
_symmetry_group_IT_number 129
_symmetry_cell_setting 'tetragonal'
loop_
_space_group_symop_operation_xyz
x,y,z
1/2-y,x,z
1/2-x,1/2-y,z
y,1/2-x,z
1/2+x,-y,-z
-x,1/2+y,-z
1/2+y,1/2+x,-z
-y,-x,-z
-x,-y,-z
1/2+y,-x,-z
1/2+x,1/2+y,-z
-y,1/2+x,-z
1/2-x,y,z
x,1/2-y,z
1/2-y,1/2-x,z
y,x,z
loop_
_atom_site_type_symbol
_atom_site_label
_atom_site_fract_x
_atom_site_fract_y
_atom_site_fract_z
Si Si1 0.006785 0.858454 0.161559
Si Si2 0.489881 0.641395 0.790334
Si Si3 0.072430 0.647953 0.066183
Si Si4 0.981784 0.362339 0.533087
Si Si5 0.645025 0.356582 0.615174
Si Si6 0.354918 0.995982 0.309854
Si Si7 0.652866 0.988161 0.973805
O O1 0.997862 0.750000 0.174800
O O2 0.015309 0.871684 0.109772
O O3 0.098383 0.902963 0.183470
O O4 0.914091 0.914091 0.176830
O O5 0.503201 0.750000 0.802945
O O6 0.585394 0.585394 0.801111
O O7 0.463788 0.629383 0.739686
O O8 0.116421 0.750000 0.067396
O O9 0.157719 0.578943 0.057034
O O10 0.004832 0.633640 0.024827
O O11 0.907376 0.407376 0.500000
O O12 0.996857 0.250000 0.524286
O O13 0.933425 0.378555 0.579562
O O14 0.080820 0.419181 0.531160
O O15 0.750000 0.382385 0.598554
O O16 0.641647 0.250000 0.628663
O O17 0.618574 0.411196 0.658860
O O18 0.250000 0.029205 0.317212
O O19 0.416549 0.083452 0.322864
O O20 0.750000 0.935371 0.969304
O O21 0.574167 0.925834 0.952726
#
# Coordination Sequence:
#
# PCOD8315108 Si02
#       7
#    16  16  16  16  16  16  16
#     4  10  20  34  52  73  97 124 155 193 237 285
#     4   9  19  34  51  73  99 128 163 201 241 285
#     4   9  18  33  52  70  89 117 152 190 232 271
#     4  10  20  33  50  72  98 130 168 209 252 297
#     4   9  17  29  47  71  97 127 163 201 241 286
#     4   9  17  30  48  70  97 126 157 195 237 283
#     4  10  19  31  48  69  95 124 151 182 219 263
#
# _framework density 17.650151999999999
#
# number of rings (size 3 to 8) (size 9 to 14) (size 15 to 20)
#    0.000    2.571    0.000    2.571    0.000    3.143 
#    0.000    5.714    0.000    2.571    0.000    4.000 
#    0.000    3.429    0.000    0.000    0.000    0.000 
#
# Total GULP energy -1387560.747397 kJ/mol
# GULP energy per Si atom -12388.935245 kJ/mol
# Density = 1.760998 g / cm^3
# Si number density = 17.650152 Si / 1000 Ang^3
#
#
#
# Elastic Constant Matrix: (Units=GPa)
#
#
# Indices 1 2 3 4 5 6 
#
# 1 118.1917 72.4444 47.1718 0.0000 0.0000 0.0000
# 2 72.4444 118.1917 47.1718 0.0000 0.0000 0.0000
# 3 47.1718 47.1718 57.0859 0.0000 0.0000 0.0000
# 4 0.0000 0.0000 0.0000 22.9289 0.0000 0.0000
# 5 0.0000 0.0000 0.0000 0.0000 22.9289 0.0000
# 6 0.0000 0.0000 0.0000 0.0000 0.0000 18.6991
#
#
#
# Elastic Compliance Matrix: (Units=1/GPa)
#
#
# Indices 1 2 3 4 5 6 
#
# 1 0.015367 -0.006492 -0.007334 0.000000 0.000000 0.000000
# 2 -0.006492 0.015367 -0.007334 0.000000 0.000000 0.000000
# 3 -0.007334 -0.007334 0.029637 0.000000 0.000000 0.000000
# 4 0.000000 0.000000 0.000000 0.043613 0.000000 0.000000
# 5 0.000000 0.000000 0.000000 0.000000 0.043613 0.000000
# 6 0.000000 0.000000 0.000000 0.000000 0.000000 0.053478
#
#
# Mechanical properties :
#
#
# Convention : Reuss Voigt Hill
#
# Bulk Modulus (GPa) = 55.39300 69.67170 62.53235
# Shear Modulus (GPa) = 20.04711 21.35680 20.70195
#
# Velocity S-wave (km/s) = 3.37382 3.48229 3.42849
# Velocity P-wave (km/s) = 6.82854 7.46511 7.15391
#
# Compressibility (1/GPa) = 0.01805282
#
# Stress axis : x y z
#
# Youngs Moduli (GPa) = 65.07425 65.07425 33.74111
#
# Poissons Ratio (x) = 0.42247 0.24744
# Poissons Ratio (y) = 0.42247 0.24744
# Poissons Ratio (z) = 0.47723 0.47723
#
# Static dielectric constant tensor:
#      x y z
#    x 3.378580 0.000000 0.000000 
#    y 0.000000 3.378580 0.000000 
#    z 0.000000 0.000000 3.233130 
# 
# 
# High freq. dielectric constant tensor:
#      x y z
#    x 1.680810 0.000000 0.000000 
#    y 0.000000 1.680810 0.000000 
#    z 0.000000 0.000000 1.674330 
# 
# From -- ./inp_files/7194.got.cif
#   From: 2010.03.12/outbox.cif.g09.slc.cpg/sg129_4_cif.got.tgz:7194.got - 2010.04.06 17:19:44.
