data_PCOD8315265
_publ_section_title
;
Structure prediction by ZEFSAII (Michael W. Deem and Ramdas Pophale) SiO2 
 PCOD8315265
Probable space group: P 4/N M M
;
_chemical_formula_sum "Si O2"
_cell_formula_units_Z 80
_cell_length_a 13.043892
_cell_length_b 13.043892
_cell_length_c 26.776172
_cell_angle_alpha 90.000000
_cell_angle_beta 90.000000
_cell_angle_gamma 90.000000
_cell_volume 4555.781406
_symmetry_space_group_name_H-M "P 4/N M M"
_symmetry_group_IT_number 129
_symmetry_cell_setting 'tetragonal'
loop_
_space_group_symop_operation_xyz
x,y,z
1/2-y,x,z
1/2-x,1/2-y,z
y,1/2-x,z
1/2+x,-y,-z
-x,1/2+y,-z
1/2+y,1/2+x,-z
-y,-x,-z
-x,-y,-z
1/2+y,-x,-z
1/2+x,1/2+y,-z
-y,1/2+x,-z
1/2-x,y,z
x,1/2-y,z
1/2-y,1/2-x,z
y,x,z
loop_
_atom_site_type_symbol
_atom_site_label
_atom_site_fract_x
_atom_site_fract_y
_atom_site_fract_z
Si Si1 0.628366 0.133631 0.847155
Si Si2 0.630741 0.469296 0.361971
Si Si3 0.535813 0.367372 0.452296
Si Si4 0.496550 0.496550 0.078327
Si Si5 0.362976 0.628462 0.262847
Si Si6 0.372290 0.127711 0.996720
O O1 0.750000 0.124788 0.851052
O O2 0.592899 0.250000 0.857154
O O3 0.592373 0.097846 0.791618
O O4 0.578887 0.062769 0.888351
O O5 0.750000 0.492920 0.361413
O O6 0.574525 0.574525 0.376679
O O7 0.604675 0.383401 0.402954
O O8 0.589417 0.434233 0.307691
O O9 0.602624 0.397377 0.500000
O O10 0.503170 0.250000 0.456301
O O11 0.431568 0.431568 0.449390
O O12 0.573933 0.573933 0.050525
O O13 0.424943 0.424943 0.044354
O O14 0.250000 0.579832 0.269831
O O15 0.352942 0.750000 0.265503
O O16 0.393751 0.250000 0.996359
#
# Coordination Sequence:
#
# PCOD8315265 Si02
#       6
#    16  16  16   8  16   8
#     4   9  18  32  50  75 104 130 163 209 255 300
#     4  10  20  32  49  73 102 138 177 214 256 307
#     4  10  21  36  54  78 105 134 174 220 265 314
#     4  11  20  32  56  78  96 132 173 208 248 296
#     4   8  15  29  48  69  95 127 162 204 254 304
#     4  10  22  38  52  72 104 136 168 206 250 300
#
# _framework density 17.560103999999999
#
# number of rings (size 3 to 8) (size 9 to 14) (size 15 to 20)
#    0.000    2.500    0.000    3.600    1.400    2.600 
#    0.000    0.000    0.000    8.400    0.000    0.000 
#    0.000    0.000    0.000    0.000    0.000    0.000 
#
# Total GULP energy -991704.838581 kJ/mol
# GULP energy per Si atom -12396.310482 kJ/mol
# Density = 1.752014 g / cm^3
# Si number density = 17.560104 Si / 1000 Ang^3
#
#
#
# Elastic Constant Matrix: (Units=GPa)
#
#
# Indices 1 2 3 4 5 6 
#
# 1 63.6223 57.3369 44.5159 0.0000 0.0000 0.0000
# 2 57.3369 63.6102 44.5199 0.0000 0.0000 0.0000
# 3 44.5159 44.5199 132.8570 0.0000 0.0000 0.0000
# 4 0.0000 0.0000 0.0000 29.8430 0.0000 0.0000
# 5 0.0000 0.0000 0.0000 0.0000 29.8450 0.0000
# 6 0.0000 0.0000 0.0000 0.0000 0.0000 21.4430
#
#
#
# Elastic Compliance Matrix: (Units=1/GPa)
#
#
# Indices 1 2 3 4 5 6 
#
# 1 0.085101 -0.074139 -0.003671 0.000000 0.000000 0.000000
# 2 -0.074139 0.085127 -0.003684 0.000000 0.000000 0.000000
# 3 -0.003671 -0.003684 0.009991 0.000000 0.000000 0.000000
# 4 0.000000 0.000000 0.000000 0.033509 0.000000 0.000000
# 5 0.000000 0.000000 0.000000 0.000000 0.033506 0.000000
# 6 0.000000 0.000000 0.000000 0.000000 0.000000 0.046635
#
#
# Mechanical properties :
#
#
# Convention : Reuss Voigt Hill
#
# Bulk Modulus (GPa) = 58.03473 61.42610 59.73042
# Shear Modulus (GPa) = 10.80846 23.80732 17.30789
#
# Velocity S-wave (km/s) = 2.48364 3.68606 3.14289
# Velocity P-wave (km/s) = 6.43005 7.29195 6.87452
#
# Compressibility (1/GPa) = 0.01723106
#
# Stress axis : x y z
#
# Youngs Moduli (GPa) = 11.75077 11.74719 100.08655
#
# Poissons Ratio (x) = 0.87093 0.36739
# Poissons Ratio (y) = 0.87119 0.36873
# Poissons Ratio (z) = 0.04313 0.04328
#
# Static dielectric constant tensor:
#      x y z
#    x 3.119750 0.000000 0.000000 
#    y 0.000000 3.119740 0.000000 
#    z 0.000000 0.000000 3.596460 
# 
# 
# High freq. dielectric constant tensor:
#      x y z
#    x 1.667500 0.000000 0.000000 
#    y 0.000000 1.667500 0.000000 
#    z 0.000000 0.000000 1.698350 
# 
# From -- ./inp_files/7714.got.cif
#   From: 2010.03.12/outbox.cif.g09.slc.cpg/sg129_4_cif.got.tgz:7714.got - 2010.04.06 17:19:44.
