data_PCOD8315308
_publ_section_title
;
Structure prediction by ZEFSAII (Michael W. Deem and Ramdas Pophale) SiO2 
 PCOD8315308
Probable space group: P 4/N M M
;
_chemical_formula_sum "Si O2"
_cell_formula_units_Z 64
_cell_length_a 13.695571
_cell_length_b 13.695571
_cell_length_c 20.380833
_cell_angle_alpha 90.000000
_cell_angle_beta 90.000000
_cell_angle_gamma 90.000000
_cell_volume 3822.805638
_symmetry_space_group_name_H-M "P 4/N M M"
_symmetry_group_IT_number 129
_symmetry_cell_setting 'tetragonal'
loop_
_space_group_symop_operation_xyz
x,y,z
1/2-y,x,z
1/2-x,1/2-y,z
y,1/2-x,z
1/2+x,-y,-z
-x,1/2+y,-z
1/2+y,1/2+x,-z
-y,-x,-z
-x,-y,-z
1/2+y,-x,-z
1/2+x,1/2+y,-z
-y,1/2+x,-z
1/2-x,y,z
x,1/2-y,z
1/2-y,1/2-x,z
y,x,z
loop_
_atom_site_type_symbol
_atom_site_label
_atom_site_fract_x
_atom_site_fract_y
_atom_site_fract_z
Si Si1 0.520696 0.138357 0.951165
Si Si2 0.634571 0.142210 0.317868
Si Si3 0.475385 0.634245 0.445098
Si Si4 0.137974 0.980915 0.803008
O O1 0.493090 0.250000 0.964436
O O2 0.559083 0.122833 0.876826
O O3 0.423371 0.076630 0.965222
O O4 0.606790 0.106790 0.000000
O O5 0.750000 0.152115 0.318777
O O6 0.587738 0.250000 0.327017
O O7 0.601491 0.070390 0.375770
O O8 0.598837 0.100043 0.247873
O O9 0.397503 0.602498 0.500000
O O10 0.494624 0.750000 0.449619
O O11 0.578233 0.578233 0.454546
O O12 0.250000 0.006279 0.788443
O O13 0.081447 0.081447 0.792234
#
# Coordination Sequence:
#
# PCOD8315308 Si02
#       4
#    16  16  16  16
#     4   9  18  31  46  66  92 121 155 195 237 283
#     4   9  17  29  45  65  90 120 153 188 226 271
#     4  10  20  33  50  72  97 126 161 200 241 285
#     4   9  17  29  45  66  92 120 150 186 230 280
#
# _framework density 16.741631000000002
#
# number of rings (size 3 to 8) (size 9 to 14) (size 15 to 20)
#    0.000    2.750    0.000    1.500    0.000    3.250 
#    0.000    5.000    0.000    4.500    0.000    0.000 
#    0.000    4.500    0.000    1.000    0.000    0.250 
#
# Total GULP energy -793472.000437 kJ/mol
# GULP energy per Si atom -12398.000007 kJ/mol
# Density = 1.670353 g / cm^3
# Si number density = 16.741631 Si / 1000 Ang^3
#
#
#
# Elastic Constant Matrix: (Units=GPa)
#
#
# Indices 1 2 3 4 5 6 
#
# 1 83.9102 36.4444 46.4749 0.0000 0.0000 0.0000
# 2 36.4444 83.9100 46.4748 0.0000 0.0000 0.0000
# 3 46.4749 46.4748 111.1777 0.0000 0.0000 0.0000
# 4 0.0000 0.0000 0.0000 26.0935 0.0000 0.0000
# 5 0.0000 0.0000 0.0000 0.0000 26.0934 0.0000
# 6 0.0000 0.0000 0.0000 0.0000 0.0000 15.4413
#
#
#
# Elastic Compliance Matrix: (Units=1/GPa)
#
#
# Indices 1 2 3 4 5 6 
#
# 1 0.016669 -0.004399 -0.005129 0.000000 0.000000 0.000000
# 2 -0.004399 0.016669 -0.005129 0.000000 0.000000 0.000000
# 3 -0.005129 -0.005129 0.013283 0.000000 0.000000 0.000000
# 4 0.000000 0.000000 0.000000 0.038324 0.000000 0.000000
# 5 0.000000 0.000000 0.000000 0.000000 0.038324 0.000000
# 6 0.000000 0.000000 0.000000 0.000000 0.000000 0.064761
#
#
# Mechanical properties :
#
#
# Convention : Reuss Voigt Hill
#
# Bulk Modulus (GPa) = 57.78256 59.75401 58.76828
# Shear Modulus (GPa) = 22.41020 23.49923 22.95471
#
# Velocity S-wave (km/s) = 3.66265 3.75058 3.70688
# Velocity P-wave (km/s) = 7.24402 7.38412 7.31440
#
# Compressibility (1/GPa) = 0.01730626
#
# Stress axis : x y z
#
# Youngs Moduli (GPa) = 59.99181 59.99185 75.28518
#
# Poissons Ratio (x) = 0.26390 0.38615
# Poissons Ratio (y) = 0.26390 0.38615
# Poissons Ratio (z) = 0.30771 0.30771
#
# Static dielectric constant tensor:
#      x y z
#    x 3.032700 0.000000 0.000000 
#    y 0.000000 3.032700 0.000000 
#    z 0.000000 0.000000 3.423840 
# 
# 
# High freq. dielectric constant tensor:
#      x y z
#    x 1.628430 0.000000 0.000000 
#    y 0.000000 1.628430 0.000000 
#    z 0.000000 0.000000 1.661750 
# 
# From -- ./inp_files/4454.got.cif
#   From: 2010.03.12/outbox.cif.g09.slc.cpg/sg129_3_cif.got.tgz:4454.got - 2010.04.06 17:19:44.
