data_PCOD8315675
_publ_section_title
;
Structure prediction by ZEFSAII (Michael W. Deem and Ramdas Pophale) SiO2 
 PCOD8315675
Probable space group: P 42/M M C
;
_chemical_formula_sum "Si O2"
_cell_formula_units_Z 96
_cell_length_a 18.370701
_cell_length_b 18.370701
_cell_length_c 17.191398
_cell_angle_alpha 90.000000
_cell_angle_beta 90.000000
_cell_angle_gamma 90.000000
_cell_volume 5801.798644
_symmetry_space_group_name_H-M "P 42/M M C"
_symmetry_group_IT_number 131
_symmetry_cell_setting 'tetragonal'
loop_
_space_group_symop_operation_xyz
x,y,z
-x,-y,z
-y,x,1/2+z
y,-x,1/2+z
-x,y,-z
x,-y,-z
y,x,1/2-z
-y,-x,1/2-z
-x,-y,-z
x,y,-z
y,-x,1/2-z
-y,x,1/2-z
x,-y,z
-x,y,z
-y,-x,1/2+z
y,x,1/2+z
loop_
_atom_site_type_symbol
_atom_site_label
_atom_site_fract_x
_atom_site_fract_y
_atom_site_fract_z
Si Si1 0.822413 0.207031 0.339785
Si Si2 0.781474 0.418079 0.629875
Si Si3 0.583471 0.304465 0.281363
Si Si4 0.308638 0.283884 0.414066
Si Si5 0.080357 0.080399 0.157324
Si Si6 0.915323 0.668774 0.408857
O O1 0.800258 0.199743 0.250000
O O2 0.749797 0.224521 0.386567
O O3 0.856891 0.133172 0.374359
O O4 0.884536 0.267760 0.353325
O O5 0.764464 0.500000 0.601998
O O6 0.762807 0.408844 0.721368
O O7 0.729070 0.363259 0.583666
O O8 0.866519 0.401904 0.612357
O O9 0.623644 0.376357 0.250000
O O10 0.500000 0.325282 0.296718
O O11 0.619994 0.279505 0.361345
O O12 0.334818 0.263730 0.500000
O O13 0.081227 0.081227 0.250000
O O14 0.000000 0.097690 0.125498
O O15 0.105035 0.000000 0.128360
O O16 0.905874 0.688924 0.500000
O O17 0.000000 0.653379 0.389126
#
# Coordination Sequence:
#
# PCOD8315675 Si02
#       6
#    16  16  16  16  16  16
#     4  10  17  28  46  65  89 121 158 195 226 264
#     4   9  17  31  49  67  91 121 152 183 215 260
#     4   9  18  33  51  70  91 117 149 185 226 269
#     4  10  19  30  46  68  92 120 152 185 224 267
#     4   8  14  24  39  62  89 115 147 189 234 272
#     4  10  20  31  44  66  96 126 151 179 223 273
#
# _framework density 16.546592
#
# number of rings (size 3 to 8) (size 9 to 14) (size 15 to 20)
#    0.000    2.667    0.000    5.500    0.000    2.833 
#    0.000    0.833    0.000    2.000    0.000   10.500 
#    0.000    0.000    0.000   10.167    0.000    0.000 
#
# Total GULP energy -1189827.283932 kJ/mol
# GULP energy per Si atom -12394.034208 kJ/mol
# Density = 1.650893 g / cm^3
# Si number density = 16.546592 Si / 1000 Ang^3
#
#
#
# Elastic Constant Matrix: (Units=GPa)
#
#
# Indices 1 2 3 4 5 6 
#
# 1 89.1711 50.2481 42.1057 0.0000 0.0000 0.0000
# 2 50.2481 89.1705 42.1057 0.0000 0.0000 0.0000
# 3 42.1057 42.1057 92.4744 0.0000 0.0000 0.0000
# 4 0.0000 0.0000 0.0000 10.5015 0.0000 0.0000
# 5 0.0000 0.0000 0.0000 0.0000 10.5014 0.0000
# 6 0.0000 0.0000 0.0000 0.0000 0.0000 18.6867
#
#
#
# Elastic Compliance Matrix: (Units=1/GPa)
#
#
# Indices 1 2 3 4 5 6 
#
# 1 0.017793 -0.007899 -0.004505 0.000000 0.000000 0.000000
# 2 -0.007899 0.017793 -0.004505 0.000000 0.000000 0.000000
# 3 -0.004505 -0.004505 0.014916 0.000000 0.000000 0.000000
# 4 0.000000 0.000000 0.000000 0.095224 0.000000 0.000000
# 5 0.000000 0.000000 0.000000 0.000000 0.095225 0.000000
# 6 0.000000 0.000000 0.000000 0.000000 0.000000 0.053514
#
#
# Mechanical properties :
#
#
# Convention : Reuss Voigt Hill
#
# Bulk Modulus (GPa) = 59.93720 59.97056 59.95388
# Shear Modulus (GPa) = 14.97705 17.02835 16.00270
#
# Velocity S-wave (km/s) = 3.01183 3.21146 3.11324
# Velocity P-wave (km/s) = 6.95677 7.07626 7.01677
#
# Compressibility (1/GPa) = 0.01668413
#
# Stress axis : x y z
#
# Youngs Moduli (GPa) = 56.20284 56.20236 67.04180
#
# Poissons Ratio (x) = 0.44395 0.30201
# Poissons Ratio (y) = 0.44396 0.30201
# Poissons Ratio (z) = 0.25318 0.25318
#
# Static dielectric constant tensor:
#      x y z
#    x 3.210270 0.000000 0.000000 
#    y 0.000000 3.210270 0.000000 
#    z 0.000000 0.000000 3.006520 
# 
# 
# High freq. dielectric constant tensor:
#      x y z
#    x 1.631450 0.000000 0.000000 
#    y 0.000000 1.631450 0.000000 
#    z 0.000000 0.000000 1.623500 
# 
# From -- ./inp_files/7982.got.cif
#   From: 2010.03.12/outbox.cif.g09.slc.cpg/sg131_4_cif.got.tgz:7982.got - 2010.04.06 17:36:35.
