data_PCOD8315242
_publ_section_title
;
Structure prediction by ZEFSAII (Michael W. Deem and Ramdas Pophale) SiO2 
 PCOD8315242
Probable space group: P 4/N M M
;
_chemical_formula_sum "Si O2"
_cell_formula_units_Z 80
_cell_length_a 13.324268
_cell_length_b 13.324268
_cell_length_c 25.850442
_cell_angle_alpha 90.000000
_cell_angle_beta 90.000000
_cell_angle_gamma 90.000000
_cell_volume 4589.387114
_symmetry_space_group_name_H-M "P 4/N M M"
_symmetry_group_IT_number 129
_symmetry_cell_setting 'tetragonal'
loop_
_space_group_symop_operation_xyz
x,y,z
1/2-y,x,z
1/2-x,1/2-y,z
y,1/2-x,z
1/2+x,-y,-z
-x,1/2+y,-z
1/2+y,1/2+x,-z
-y,-x,-z
-x,-y,-z
1/2+y,-x,-z
1/2+x,1/2+y,-z
-y,1/2+x,-z
1/2-x,y,z
x,1/2-y,z
1/2-y,1/2-x,z
y,x,z
loop_
_atom_site_type_symbol
_atom_site_label
_atom_site_fract_x
_atom_site_fract_y
_atom_site_fract_z
Si Si1 0.027975 0.868434 0.359376
Si Si2 0.526871 0.132919 0.956282
Si Si3 0.032512 0.867421 0.548286
Si Si4 0.361961 0.630981 0.144340
Si Si5 0.631125 0.361787 0.257978
O O1 0.010289 0.750000 0.362468
O O2 0.111305 0.902305 0.400553
O O3 0.064527 0.906009 0.303002
O O4 0.922182 0.922182 0.371634
O O5 0.503260 0.250000 0.955082
O O6 0.566348 0.091507 0.901052
O O7 0.423731 0.076270 0.969597
O O8 0.609883 0.109883 0.000000
O O9 0.099699 0.900302 0.500000
O O10 0.007313 0.750000 0.544742
O O11 0.927433 0.927433 0.549246
O O12 0.250000 0.587145 0.136252
O O13 0.356764 0.750000 0.140876
O O14 0.402580 0.597773 0.201192
O O15 0.750000 0.354681 0.260593
O O16 0.586537 0.250000 0.266592
#
# Coordination Sequence:
#
# PCOD8315242 Si02
#       5
#    16  16  16  16  16
#     4  10  20  32  47  69  97 130 168 207 246 290
#     4  10  20  32  47  68  93 122 157 196 238 285
#     4  10  21  36  54  77 102 128 161 199 240 288
#     4   8  14  26  45  67  89 115 150 192 235 278
#     4   8  14  26  45  67  89 116 153 196 239 279
#
# _framework density 17.431521
#
# number of rings (size 3 to 8) (size 9 to 14) (size 15 to 20)
#    0.000    2.800    0.000    3.000    0.000    4.600 
#    0.000    0.000    0.000    3.600    0.000    5.600 
#    0.000    0.000    0.000   37.200    0.000    2.000 
#
# Total GULP energy -991587.100351 kJ/mol
# GULP energy per Si atom -12394.838754 kJ/mol
# Density = 1.739185 g / cm^3
# Si number density = 17.431521 Si / 1000 Ang^3
#
#
#
# Elastic Constant Matrix: (Units=GPa)
#
#
# Indices 1 2 3 4 5 6 
#
# 1 80.3851 34.4615 38.2386 0.0000 0.0000 0.0000
# 2 34.4615 80.3845 38.2389 0.0000 0.0000 0.0000
# 3 38.2386 38.2389 130.6477 0.0000 0.0000 0.0000
# 4 0.0000 0.0000 0.0000 22.4861 0.0000 0.0000
# 5 0.0000 0.0000 0.0000 0.0000 22.4861 0.0000
# 6 0.0000 0.0000 0.0000 0.0000 0.0000 12.8563
#
#
#
# Elastic Compliance Matrix: (Units=1/GPa)
#
#
# Indices 1 2 3 4 5 6 
#
# 1 0.016295 -0.005480 -0.003165 0.000000 0.000000 0.000000
# 2 -0.005480 0.016295 -0.003166 0.000000 0.000000 0.000000
# 3 -0.003165 -0.003166 0.009507 0.000000 0.000000 0.000000
# 4 0.000000 0.000000 0.000000 0.044472 0.000000 0.000000
# 5 0.000000 0.000000 0.000000 0.000000 0.044472 0.000000
# 6 0.000000 0.000000 0.000000 0.000000 0.000000 0.077783
#
#
# Mechanical properties :
#
#
# Convention : Reuss Voigt Hill
#
# Bulk Modulus (GPa) = 54.12509 57.03281 55.57895
# Shear Modulus (GPa) = 20.95516 23.59760 22.27638
#
# Velocity S-wave (km/s) = 3.47095 3.68330 3.57870
# Velocity P-wave (km/s) = 6.86883 7.13289 7.00211
#
# Compressibility (1/GPa) = 0.01847572
#
# Stress axis : x y z
#
# Youngs Moduli (GPa) = 61.36768 61.36700 105.18403
#
# Poissons Ratio (x) = 0.33630 0.33295
# Poissons Ratio (y) = 0.33630 0.33296
# Poissons Ratio (z) = 0.19425 0.19426
#
# Static dielectric constant tensor:
#      x y z
#    x 2.958250 0.000000 0.000000 
#    y 0.000000 2.958240 0.000000 
#    z 0.000000 0.000000 3.711310 
# 
# 
# High freq. dielectric constant tensor:
#      x y z
#    x 1.648050 0.000000 0.000000 
#    y 0.000000 1.648050 0.000000 
#    z 0.000000 0.000000 1.697960 
# 
# From -- ./inp_files/7697.got.cif
#   From: 2010.03.12/outbox.cif.g09.slc.cpg/sg129_4_cif.got.tgz:7697.got - 2010.04.06 17:19:44.
