data_PCOD8315222
_publ_section_title
;
Structure prediction by ZEFSAII (Michael W. Deem and Ramdas Pophale) SiO2 
 PCOD8315222
Probable space group: P 4/N M M
;
_chemical_formula_sum "Si O2"
_cell_formula_units_Z 80
_cell_length_a 13.907385
_cell_length_b 13.907385
_cell_length_c 25.605437
_cell_angle_alpha 90.000000
_cell_angle_beta 90.000000
_cell_angle_gamma 90.000000
_cell_volume 4952.484752
_symmetry_space_group_name_H-M "P 4/N M M"
_symmetry_group_IT_number 129
_symmetry_cell_setting 'tetragonal'
loop_
_space_group_symop_operation_xyz
x,y,z
1/2-y,x,z
1/2-x,1/2-y,z
y,1/2-x,z
1/2+x,-y,-z
-x,1/2+y,-z
1/2+y,1/2+x,-z
-y,-x,-z
-x,-y,-z
1/2+y,-x,-z
1/2+x,1/2+y,-z
-y,1/2+x,-z
1/2-x,y,z
x,1/2-y,z
1/2-y,1/2-x,z
y,x,z
loop_
_atom_site_type_symbol
_atom_site_label
_atom_site_fract_x
_atom_site_fract_y
_atom_site_fract_z
Si Si1 0.361691 0.519304 0.265644
Si Si2 0.864052 0.479810 0.344822
Si Si3 0.143767 0.864885 0.943077
Si Si4 0.643284 0.136092 0.557438
Si Si5 0.011017 0.859312 0.852437
O O1 0.250000 0.501618 0.280408
O O2 0.420226 0.420226 0.275853
O O3 0.406117 0.605918 0.299262
O O4 0.371373 0.554149 0.205654
O O5 0.750000 0.498213 0.342340
O O6 0.898555 0.432044 0.399168
O O7 0.918259 0.581742 0.338610
O O8 0.250000 0.907690 0.935027
O O9 0.147917 0.750000 0.941550
O O10 0.081166 0.906658 0.895412
O O11 0.102806 0.897195 0.000000
O O12 0.604935 0.104935 0.500000
O O13 0.750000 0.092286 0.568400
O O14 0.652107 0.250000 0.558852
O O15 0.992319 0.750000 0.866964
O O16 0.907926 0.907926 0.855902
#
# Coordination Sequence:
#
# PCOD8315222 Si02
#       5
#    16  16  16  16  16
#     4   9  18  31  46  66  90 114 142 177 218 266
#     4  10  20  32  46  65  89 118 152 187 221 257
#     4   8  14  25  40  58  81 108 139 176 213 244
#     4   8  14  26  45  68  91 113 140 177 219 260
#     4   9  17  28  42  62  87 112 138 167 202 250
#
# _framework density 16.153509
#
# number of rings (size 3 to 8) (size 9 to 14) (size 15 to 20)
#    0.000    3.200    0.000    1.800    0.000    3.400 
#    0.000    4.000    0.000    0.000    0.000    0.000 
#    0.000    5.200    0.000    0.400    0.000    0.200 
#
# Total GULP energy -991405.921256 kJ/mol
# GULP energy per Si atom -12392.574016 kJ/mol
# Density = 1.611674 g / cm^3
# Si number density = 16.153509 Si / 1000 Ang^3
#
#
#
# Elastic Constant Matrix: (Units=GPa)
#
#
# Indices 1 2 3 4 5 6 
#
# 1 70.9049 34.4814 47.8891 0.0000 0.0000 0.0000
# 2 34.4814 70.9047 47.8891 0.0000 0.0000 0.0000
# 3 47.8891 47.8891 118.8325 0.0000 0.0000 0.0000
# 4 0.0000 0.0000 0.0000 21.9633 0.0000 0.0000
# 5 0.0000 0.0000 0.0000 0.0000 21.9633 0.0000
# 6 0.0000 0.0000 0.0000 0.0000 0.0000 13.6002
#
#
#
# Elastic Compliance Matrix: (Units=1/GPa)
#
#
# Indices 1 2 3 4 5 6 
#
# 1 0.021214 -0.006241 -0.006034 0.000000 0.000000 0.000000
# 2 -0.006241 0.021214 -0.006034 0.000000 0.000000 0.000000
# 3 -0.006034 -0.006034 0.013279 0.000000 0.000000 0.000000
# 4 0.000000 0.000000 0.000000 0.045531 0.000000 0.000000
# 5 0.000000 0.000000 0.000000 0.000000 0.045530 0.000000
# 6 0.000000 0.000000 0.000000 0.000000 0.000000 0.073528
#
#
# Mechanical properties :
#
#
# Convention : Reuss Voigt Hill
#
# Bulk Modulus (GPa) = 52.38843 57.90682 55.14763
# Shear Modulus (GPa) = 18.99146 20.19752 19.59449
#
# Velocity S-wave (km/s) = 3.43255 3.53986 3.48662
# Velocity P-wave (km/s) = 6.94348 7.25487 7.10088
#
# Compressibility (1/GPa) = 0.01908818
#
# Stress axis : x y z
#
# Youngs Moduli (GPa) = 47.13915 47.13902 75.30935
#
# Poissons Ratio (x) = 0.29420 0.45441
# Poissons Ratio (y) = 0.29420 0.45442
# Poissons Ratio (z) = 0.28444 0.28444
#
# Static dielectric constant tensor:
#      x y z
#    x 2.881140 0.000000 0.000000 
#    y 0.000000 2.881140 0.000000 
#    z 0.000000 0.000000 3.482880 
# 
# 
# High freq. dielectric constant tensor:
#      x y z
#    x 1.595270 0.000000 0.000000 
#    y 0.000000 1.595270 0.000000 
#    z 0.000000 0.000000 1.639090 
# 
# From -- ./inp_files/6334.got.cif
#   From: 2010.03.12/outbox.cif.g09.slc.cpg/sg129_4_cif.got.tgz:6334.got - 2010.04.06 17:19:44.
