data_PCOD8315362
_publ_section_title
;
Structure prediction by ZEFSAII (Michael W. Deem and Ramdas Pophale) SiO2 
 PCOD8315362
Probable space group: P 4/N M M
;
_chemical_formula_sum "Si O2"
_cell_formula_units_Z 64
_cell_length_a 19.556579
_cell_length_b 19.556579
_cell_length_c 8.909897
_cell_angle_alpha 90.000000
_cell_angle_beta 90.000000
_cell_angle_gamma 90.000000
_cell_volume 3407.677266
_symmetry_space_group_name_H-M "P 4/N M M"
_symmetry_group_IT_number 129
_symmetry_cell_setting 'tetragonal'
loop_
_space_group_symop_operation_xyz
x,y,z
1/2-y,x,z
1/2-x,1/2-y,z
y,1/2-x,z
1/2+x,-y,-z
-x,1/2+y,-z
1/2+y,1/2+x,-z
-y,-x,-z
-x,-y,-z
1/2+y,-x,-z
1/2+x,1/2+y,-z
-y,1/2+x,-z
1/2-x,y,z
x,1/2-y,z
1/2-y,1/2-x,z
y,x,z
loop_
_atom_site_type_symbol
_atom_site_label
_atom_site_fract_x
_atom_site_fract_y
_atom_site_fract_z
Si Si1 0.326554 0.430546 0.447153
Si Si2 0.415006 0.523410 0.641247
Si Si3 0.073968 0.669335 0.084848
Si Si4 0.940906 0.671836 0.887575
O O1 0.250000 0.428633 0.499624
O O2 0.353017 0.353017 0.429696
O O3 0.364411 0.465604 0.583726
O O4 0.338233 0.466332 0.284671
O O5 0.427657 0.572344 0.500000
O O6 0.486227 0.486227 0.695467
O O7 0.376831 0.567086 0.767012
O O8 0.084161 0.750000 0.120277
O O9 0.141299 0.641299 0.000000
O O10 0.006026 0.655868 0.989060
O O11 0.915051 0.750000 0.910070
O O12 0.879543 0.620458 0.932142
#
# Coordination Sequence:
#
# PCOD8315362 Si02
#       4
#    16  16  16  16
#     4   9  17  30  48  72 105 140 173 209 247 296
#     4  10  20  34  55  82 108 134 168 214 268 325
#     4  11  23  38  57  78 103 138 179 226 276 324
#     4   9  18  32  52  80 112 146 181 216 260 315
#
# _framework density 18.781122
#
# number of rings (size 3 to 8) (size 9 to 14) (size 15 to 20)
#    0.000    2.250    0.000    3.000    0.000    4.750 
#    0.000    3.750    0.000    0.000    0.000    3.500 
#    0.000    0.000    0.000    0.000    0.000    0.000 
#
# Total GULP energy -793222.612176 kJ/mol
# GULP energy per Si atom -12394.103315 kJ/mol
# Density = 1.873838 g / cm^3
# Si number density = 18.781122 Si / 1000 Ang^3
#
#
#
# Elastic Constant Matrix: (Units=GPa)
#
#
# Indices 1 2 3 4 5 6 
#
# 1 84.5434 36.5601 35.7695 0.0000 0.0000 0.0000
# 2 36.5601 84.5432 35.7698 0.0000 0.0000 0.0000
# 3 35.7695 35.7698 80.0592 0.0000 0.0000 0.0000
# 4 0.0000 0.0000 0.0000 26.1439 0.0000 0.0000
# 5 0.0000 0.0000 0.0000 0.0000 26.1442 0.0000
# 6 0.0000 0.0000 0.0000 0.0000 0.0000 26.3191
#
#
#
# Elastic Compliance Matrix: (Units=1/GPa)
#
#
# Indices 1 2 3 4 5 6 
#
# 1 0.016029 -0.004811 -0.005012 0.000000 0.000000 0.000000
# 2 -0.004811 0.016030 -0.005012 0.000000 0.000000 0.000000
# 3 -0.005012 -0.005012 0.016970 0.000000 0.000000 0.000000
# 4 0.000000 0.000000 0.000000 0.038250 0.000000 0.000000
# 5 0.000000 0.000000 0.000000 0.000000 0.038249 0.000000
# 6 0.000000 0.000000 0.000000 0.000000 0.000000 0.037995
#
#
# Mechanical properties :
#
#
# Convention : Reuss Voigt Hill
#
# Bulk Modulus (GPa) = 51.66021 51.70497 51.68259
# Shear Modulus (GPa) = 25.04425 25.12453 25.08439
#
# Velocity S-wave (km/s) = 3.65565 3.66150 3.65857
# Velocity P-wave (km/s) = 6.73680 6.74281 6.73981
#
# Compressibility (1/GPa) = 0.01935726
#
# Stress axis : x y z
#
# Youngs Moduli (GPa) = 62.38536 62.38496 58.92897
#
# Poissons Ratio (x) = 0.30015 0.29536
# Poissons Ratio (y) = 0.30015 0.29537
# Poissons Ratio (z) = 0.31269 0.31269
#
# Static dielectric constant tensor:
#      x y z
#    x 3.456930 0.000000 0.000000 
#    y 0.000000 3.456930 0.000000 
#    z 0.000000 0.000000 3.454430 
# 
# 
# High freq. dielectric constant tensor:
#      x y z
#    x 1.724270 0.000000 0.000000 
#    y 0.000000 1.724270 0.000000 
#    z 0.000000 0.000000 1.729030 
# 
# From -- ./inp_files/2050.got.cif
#   From: 2010.03.12/outbox.cif.g09.slc.cpg/sg129_2_cif.got.tgz:2050.got - 2010.04.06 17:19:44.
