data_PCOD8315942
_publ_section_title
;
Structure prediction by ZEFSAII (Michael W. Deem and Ramdas Pophale) SiO2 
 PCOD8315942
Probable space group: P 42/M M C
;
_chemical_formula_sum "Si O2"
_cell_formula_units_Z 104
_cell_length_a 18.275962
_cell_length_b 18.275962
_cell_length_c 18.301297
_cell_angle_alpha 90.000000
_cell_angle_beta 90.000000
_cell_angle_gamma 90.000000
_cell_volume 6112.830615
_symmetry_space_group_name_H-M "P 42/M M C"
_symmetry_group_IT_number 131
_symmetry_cell_setting 'tetragonal'
loop_
_space_group_symop_operation_xyz
x,y,z
-x,-y,z
-y,x,1/2+z
y,-x,1/2+z
-x,y,-z
x,-y,-z
y,x,1/2-z
-y,-x,1/2-z
-x,-y,-z
x,y,-z
y,-x,1/2-z
-y,x,1/2-z
x,-y,z
-x,y,z
-y,-x,1/2+z
y,x,1/2+z
loop_
_atom_site_type_symbol
_atom_site_label
_atom_site_fract_x
_atom_site_fract_y
_atom_site_fract_z
Si Si1 0.416649 0.718202 0.416013
Si Si2 0.500000 0.086706 0.417861
Si Si3 0.916157 0.366573 0.819422
Si Si4 0.325898 0.202448 0.085855
Si Si5 0.418548 0.083003 0.157065
Si Si6 0.714793 0.776291 0.675068
Si Si7 0.337575 0.420564 0.415747
O O1 0.393186 0.737554 0.500000
O O2 0.500000 0.742921 0.401332
O O3 0.364687 0.754066 0.355869
O O4 0.409224 0.630049 0.405451
O O5 0.500000 0.118493 0.500000
O O6 0.424925 0.113200 0.379644
O O7 0.500000 0.000000 0.415859
O O8 0.910709 0.408333 0.743218
O O9 0.864579 0.293735 0.817126
O O10 0.000000 0.341692 0.835272
O O11 0.356219 0.125973 0.113908
O O12 0.245212 0.220655 0.118341
O O13 0.379128 0.266404 0.116539
O O14 0.318469 0.200492 0.000000
O O15 0.500000 0.112243 0.137529
O O16 0.410528 0.000000 0.130827
O O17 0.734657 0.734657 0.750000
O O18 0.320818 0.433738 0.500000
O O19 0.348705 0.500000 0.377336
#
# Coordination Sequence:
#
# PCOD8315942 Si02
#       7
#    16   8  16  16  16  16  16
#     4   9  19  33  48  69  96 128 170 218 265 308
#     4   9  18  32  52  80 109 137 172 215 263 311
#     4  10  20  35  53  76 107 137 173 216 260 317
#     4  10  20  34  50  72 102 133 171 216 258 310
#     4  10  19  32  52  77 107 143 178 215 259 310
#     4  11  21  35  52  74  99 135 174 209 262 320
#     4   8  14  26  44  64  86 118 162 209 253 293
#
# _framework density 17.013394999999999
#
# number of rings (size 3 to 8) (size 9 to 14) (size 15 to 20)
#    0.000    2.385    2.308    1.846    1.077    2.769 
#    0.000    3.077    0.000    0.000    0.000    0.000 
#    0.000    2.154    0.000    1.385    0.000    0.000 
#
# Total GULP energy -1288694.590255 kJ/mol
# GULP energy per Si atom -12391.294137 kJ/mol
# Density = 1.697467 g / cm^3
# Si number density = 17.013395 Si / 1000 Ang^3
#
#
#
# Elastic Constant Matrix: (Units=GPa)
#
#
# Indices 1 2 3 4 5 6 
#
# 1 83.1146 41.5677 34.2416 0.0000 0.0000 0.0000
# 2 41.5677 83.1146 34.2416 0.0000 0.0000 0.0000
# 3 34.2416 34.2416 86.4127 0.0000 0.0000 0.0000
# 4 0.0000 0.0000 0.0000 20.1367 0.0000 0.0000
# 5 0.0000 0.0000 0.0000 0.0000 20.1367 0.0000
# 6 0.0000 0.0000 0.0000 0.0000 0.0000 26.2095
#
#
#
# Elastic Compliance Matrix: (Units=1/GPa)
#
#
# Indices 1 2 3 4 5 6 
#
# 1 0.017160 -0.006909 -0.004062 0.000000 0.000000 0.000000
# 2 -0.006909 0.017160 -0.004062 0.000000 0.000000 0.000000
# 3 -0.004062 -0.004062 0.014792 0.000000 0.000000 0.000000
# 4 0.000000 0.000000 0.000000 0.049661 0.000000 0.000000
# 5 0.000000 0.000000 0.000000 0.000000 0.049661 0.000000
# 6 0.000000 0.000000 0.000000 0.000000 0.000000 0.038154
#
#
# Mechanical properties :
#
#
# Convention : Reuss Voigt Hill
#
# Bulk Modulus (GPa) = 52.50462 52.52708 52.51585
# Shear Modulus (GPa) = 22.42118 22.80262 22.61190
#
# Velocity S-wave (km/s) = 3.63417 3.66495 3.64959
# Velocity P-wave (km/s) = 6.96687 6.98929 6.97809
#
# Compressibility (1/GPa) = 0.01904594
#
# Stress axis : x y z
#
# Youngs Moduli (GPa) = 58.27363 58.27363 67.60500
#
# Poissons Ratio (x) = 0.40260 0.27463
# Poissons Ratio (y) = 0.40260 0.27463
# Poissons Ratio (z) = 0.23672 0.23672
#
# Static dielectric constant tensor:
#      x y z
#    x 3.309260 0.000000 0.000000 
#    y 0.000000 3.309260 0.000000 
#    z 0.000000 0.000000 3.116370 
# 
# 
# High freq. dielectric constant tensor:
#      x y z
#    x 1.638350 0.000000 0.000000 
#    y 0.000000 1.638350 0.000000 
#    z 0.000000 0.000000 1.652120 
# 
# From -- ./inp_files/8061.got.cif
#   From: 2010.03.12/outbox.cif.g09.slc.cpg/sg131_5_cif.got.tgz:8061.got - 2010.04.06 17:36:35.
