data_PCOD8315381
_publ_section_title
;
Structure prediction by ZEFSAII (Michael W. Deem and Ramdas Pophale) SiO2 
 PCOD8315381
Probable space group: P 4/N M M
;
_chemical_formula_sum "Si O2"
_cell_formula_units_Z 120
_cell_length_a 26.673672
_cell_length_b 26.673672
_cell_length_c 8.363407
_cell_angle_alpha 90.000000
_cell_angle_beta 90.000000
_cell_angle_gamma 90.000000
_cell_volume 5950.436772
_symmetry_space_group_name_H-M "P 4/N M M"
_symmetry_group_IT_number 129
_symmetry_cell_setting 'tetragonal'
loop_
_space_group_symop_operation_xyz
x,y,z
1/2-y,x,z
1/2-x,1/2-y,z
y,1/2-x,z
1/2+x,-y,-z
-x,1/2+y,-z
1/2+y,1/2+x,-z
-y,-x,-z
-x,-y,-z
1/2+y,-x,-z
1/2+x,1/2+y,-z
-y,1/2+x,-z
1/2-x,y,z
x,1/2-y,z
1/2-y,1/2-x,z
y,x,z
loop_
_atom_site_type_symbol
_atom_site_label
_atom_site_fract_x
_atom_site_fract_y
_atom_site_fract_z
Si Si1 0.485820 0.195019 0.457486
Si Si2 0.537023 0.043547 0.314839
Si Si3 0.152531 0.541028 0.172895
Si Si4 0.308790 0.648427 0.158436
Si Si5 0.954872 0.808757 0.033308
Si Si6 0.886744 0.805215 0.735995
Si Si7 0.615464 0.964574 0.298010
Si Si8 0.691845 0.308156 0.500000
O O1 0.495141 0.250000 0.536833
O O2 0.525913 0.189558 0.316499
O O3 0.429004 0.192177 0.397760
O O4 0.493775 0.147999 0.570930
O O5 0.552318 0.052318 0.500000
O O6 0.532089 0.094768 0.217745
O O7 0.482485 0.017516 0.307747
O O8 0.578582 0.007801 0.229164
O O9 0.160943 0.598003 0.125264
O O10 0.169268 0.508018 0.022565
O O11 0.250000 0.638817 0.172960
O O12 0.329050 0.669377 0.331101
O O13 0.317301 0.682700 0.000000
O O14 0.959598 0.750000 0.080187
O O15 0.911436 0.817540 0.905584
O O16 0.939772 0.844094 0.180021
O O17 0.862421 0.750000 0.740239
O O18 0.843946 0.843946 0.691597
O O19 0.580627 0.919374 0.366086
O O20 0.750000 0.319960 0.488387
#
# Coordination Sequence:
#
# PCOD8315381 Si02
#       8
#    16  16  16  16  16  16  16   8
#     4  10  20  36  58  81 113 155 197 243 295 354
#     4  10  22  39  59  88 118 152 194 241 301 372
#     4  11  23  40  60  83 119 155 200 252 304 364
#     4  11  24  41  65  93 125 163 208 260 323 380
#     4  10  22  39  57  81 116 153 195 242 291 352
#     4   9  18  33  54  80 110 146 188 234 287 345
#     4  11  22  36  59  88 117 152 197 243 299 365
#     4   9  20  40  64  90 117 152 202 252 305 378
#
# _framework density 20.166585999999999
#
# number of rings (size 3 to 8) (size 9 to 14) (size 15 to 20)
#    0.000    1.800    1.333    3.600    2.800    3.467 
#    0.000    1.333    0.000    0.000    0.000    0.000 
#    0.000    9.600    0.000    0.000    0.000    0.000 
#
# Total GULP energy -1487314.327640 kJ/mol
# GULP energy per Si atom -12394.286064 kJ/mol
# Density = 2.012069 g / cm^3
# Si number density = 20.166586 Si / 1000 Ang^3
#
#
#
# Elastic Constant Matrix: (Units=GPa)
#
#
# Indices 1 2 3 4 5 6 
#
# 1 91.1668 33.5142 8.8711 0.0000 0.0000 0.0000
# 2 33.5142 91.1664 8.8709 0.0000 0.0000 0.0000
# 3 8.8711 8.8709 58.1744 0.0000 0.0000 0.0000
# 4 0.0000 0.0000 0.0000 24.9017 0.0000 0.0000
# 5 0.0000 0.0000 0.0000 0.0000 24.9022 0.0000
# 6 0.0000 0.0000 0.0000 0.0000 0.0000 23.3392
#
#
#
# Elastic Compliance Matrix: (Units=1/GPa)
#
#
# Indices 1 2 3 4 5 6 
#
# 1 0.012772 -0.004573 -0.001250 0.000000 0.000000 0.000000
# 2 -0.004573 0.012772 -0.001250 0.000000 0.000000 0.000000
# 3 -0.001250 -0.001250 0.017571 0.000000 0.000000 0.000000
# 4 0.000000 0.000000 0.000000 0.040158 0.000000 0.000000
# 5 0.000000 0.000000 0.000000 0.000000 0.040157 0.000000
# 6 0.000000 0.000000 0.000000 0.000000 0.000000 0.042846
#
#
# Mechanical properties :
#
#
# Convention : Reuss Voigt Hill
#
# Bulk Modulus (GPa) = 34.52198 38.11334 36.31766
# Shear Modulus (GPa) = 26.30481 27.24538 26.77509
#
# Velocity S-wave (km/s) = 3.61553 3.67960 3.64771
# Velocity P-wave (km/s) = 5.88090 6.08218 5.98239
#
# Compressibility (1/GPa) = 0.02896705
#
# Stress axis : x y z
#
# Youngs Moduli (GPa) = 78.29725 78.29700 56.91202
#
# Poissons Ratio (x) = 0.35809 0.07115
# Poissons Ratio (y) = 0.35809 0.07115
# Poissons Ratio (z) = 0.09789 0.09788
#
# Static dielectric constant tensor:
#      x y z
#    x 3.633110 0.000000 0.000000 
#    y 0.000000 3.633140 0.000000 
#    z 0.000000 0.000000 3.706200 
# 
# 
# High freq. dielectric constant tensor:
#      x y z
#    x 1.788250 0.000000 0.000000 
#    y 0.000000 1.788250 0.000000 
#    z 0.000000 0.000000 1.775680 
# 
# From -- ./inp_files/2937.got.cif
#   From: 2010.03.12/outbox.cif.g09.slc.cpg/sg129_2_cif.got.tgz:2937.got - 2010.04.06 17:19:44.
