data_PCOD8315190
_publ_section_title
;
Structure prediction by ZEFSAII (Michael W. Deem and Ramdas Pophale) SiO2 
 PCOD8315190
Probable space group: P 4/N M M
;
_chemical_formula_sum "Si O2"
_cell_formula_units_Z 72
_cell_length_a 13.363026
_cell_length_b 13.363026
_cell_length_c 24.175007
_cell_angle_alpha 90.000000
_cell_angle_beta 90.000000
_cell_angle_gamma 90.000000
_cell_volume 4316.942214
_symmetry_space_group_name_H-M "P 4/N M M"
_symmetry_group_IT_number 129
_symmetry_cell_setting 'tetragonal'
loop_
_space_group_symop_operation_xyz
x,y,z
1/2-y,x,z
1/2-x,1/2-y,z
y,1/2-x,z
1/2+x,-y,-z
-x,1/2+y,-z
1/2+y,1/2+x,-z
-y,-x,-z
-x,-y,-z
1/2+y,-x,-z
1/2+x,1/2+y,-z
-y,1/2+x,-z
1/2-x,y,z
x,1/2-y,z
1/2-y,1/2-x,z
y,x,z
loop_
_atom_site_type_symbol
_atom_site_label
_atom_site_fract_x
_atom_site_fract_y
_atom_site_fract_z
Si Si1 0.473848 0.865371 0.110674
Si Si2 0.134617 0.635412 0.777568
Si Si3 0.633985 0.633985 0.499730
Si Si4 0.634123 0.365878 0.000000
Si Si5 0.999808 0.999808 0.700228
Si Si6 0.131942 0.131942 0.620113
Si Si7 0.631935 0.631935 0.619598
O O1 0.504955 0.750000 0.107110
O O2 0.393672 0.884016 0.158842
O O3 0.425984 0.903306 0.053455
O O4 0.574237 0.925764 0.123562
O O5 0.250000 0.619197 0.761302
O O6 0.102323 0.750000 0.770267
O O7 0.068603 0.569066 0.737599
O O8 0.750000 0.611677 0.499708
O O9 0.592915 0.592915 0.440833
O O10 0.592956 0.592956 0.558634
O O11 0.750000 0.386064 0.988267
O O12 0.929460 0.929460 0.664071
O O13 0.070805 0.070805 0.664804
O O14 0.250000 0.110847 0.627416
O O15 0.750000 0.610778 0.626879
#
# Coordination Sequence:
#
# PCOD8315190 Si02
#       7
#    16  16   8   8   8   8   8
#     4  10  19  33  51  74 100 128 165 205 248 294
#     4  10  21  36  51  69  98 133 165 201 245 294
#     4   7  12  27  48  68  94 126 158 194 240 290
#     4   9  17  30  52  78  99 125 164 206 242 284
#     4  12  20  31  50  75 100 124 166 206 242 290
#     4   9  18  32  50  72  99 130 160 196 242 292
#     4   9  18  32  50  72  97 126 162 204 246 288
#
# _framework density 16.678473
#
# number of rings (size 3 to 8) (size 9 to 14) (size 15 to 20)
#    0.000    2.444    1.111    3.667    0.000    3.333 
#    0.000    0.000    0.000    0.000    0.000    0.000 
#    0.000   14.222    0.000    0.000    0.000    0.000 
#
# Total GULP energy -892319.306512 kJ/mol
# GULP energy per Si atom -12393.323702 kJ/mol
# Density = 1.664051 g / cm^3
# Si number density = 16.678473 Si / 1000 Ang^3
#
#
#
# Elastic Constant Matrix: (Units=GPa)
#
#
# Indices 1 2 3 4 5 6 
#
# 1 81.6118 60.6796 63.8872 0.0000 0.0000 0.0000
# 2 60.6796 81.6112 63.8873 0.0000 0.0000 0.0000
# 3 63.8872 63.8873 136.2402 0.0000 0.0000 0.0000
# 4 0.0000 0.0000 0.0000 35.6478 0.0000 0.0000
# 5 0.0000 0.0000 0.0000 0.0000 35.6472 0.0000
# 6 0.0000 0.0000 0.0000 0.0000 0.0000 29.3699
#
#
#
# Elastic Compliance Matrix: (Units=1/GPa)
#
#
# Indices 1 2 3 4 5 6 
#
# 1 0.029957 -0.017817 -0.005693 0.000000 0.000000 0.000000
# 2 -0.017817 0.029957 -0.005693 0.000000 0.000000 0.000000
# 3 -0.005693 -0.005693 0.012679 0.000000 0.000000 0.000000
# 4 0.000000 0.000000 0.000000 0.028052 0.000000 0.000000
# 5 0.000000 0.000000 0.000000 0.000000 0.028053 0.000000
# 6 0.000000 0.000000 0.000000 0.000000 0.000000 0.034048
#
#
# Mechanical properties :
#
#
# Convention : Reuss Voigt Hill
#
# Bulk Modulus (GPa) = 70.48382 75.15239 72.81810
# Shear Modulus (GPa) = 22.13558 27.53358 24.83458
#
# Velocity S-wave (km/s) = 3.64702 4.06747 3.86297
# Velocity P-wave (km/s) = 7.75154 8.19856 7.97818
#
# Compressibility (1/GPa) = 0.01418765
#
# Stress axis : x y z
#
# Youngs Moduli (GPa) = 33.38144 33.38103 78.87078
#
# Poissons Ratio (x) = 0.59475 0.44898
# Poissons Ratio (y) = 0.59476 0.44900
# Poissons Ratio (z) = 0.19003 0.19003
#
# Static dielectric constant tensor:
#      x y z
#    x 2.992710 0.000000 0.000000 
#    y 0.000000 2.992720 0.000000 
#    z 0.000000 0.000000 3.443930 
# 
# 
# High freq. dielectric constant tensor:
#      x y z
#    x 1.630050 0.000000 0.000000 
#    y 0.000000 1.630050 0.000000 
#    z 0.000000 0.000000 1.663050 
# 
# From -- ./inp_files/5596.got.cif
#   From: 2010.03.12/outbox.cif.g09.slc.cpg/sg129_3_cif.got.tgz:5596.got - 2010.04.06 17:19:44.
