data_PCOD8315767
_publ_section_title
;
Structure prediction by ZEFSAII (Michael W. Deem and Ramdas Pophale) SiO2 
 PCOD8315767
Probable space group: P 42/M M C
;
_chemical_formula_sum "Si O2"
_cell_formula_units_Z 56
_cell_length_a 13.109318
_cell_length_b 13.109318
_cell_length_c 18.756977
_cell_angle_alpha 90.000000
_cell_angle_beta 90.000000
_cell_angle_gamma 90.000000
_cell_volume 3223.465622
_symmetry_space_group_name_H-M "P 42/M M C"
_symmetry_group_IT_number 131
_symmetry_cell_setting 'tetragonal'
loop_
_space_group_symop_operation_xyz
x,y,z
-x,-y,z
-y,x,1/2+z
y,-x,1/2+z
-x,y,-z
x,-y,-z
y,x,1/2-z
-y,-x,1/2-z
-x,-y,-z
x,y,-z
y,-x,1/2-z
-y,x,1/2-z
x,-y,z
-x,y,z
-y,-x,1/2+z
y,x,1/2+z
loop_
_atom_site_type_symbol
_atom_site_label
_atom_site_fract_x
_atom_site_fract_y
_atom_site_fract_z
Si Si1 0.269717 0.617989 0.416857
Si Si2 0.111915 0.618569 0.697482
Si Si3 0.621526 0.000000 0.420324
Si Si4 0.620211 0.799187 0.658177
O O1 0.261261 0.644894 0.500000
O O2 0.304856 0.500000 0.405792
O O3 0.160075 0.637367 0.380323
O O4 0.347559 0.692887 0.377522
O O5 0.096281 0.500000 0.712067
O O6 0.187364 0.659477 0.760035
O O7 0.000000 0.671472 0.700107
O O8 0.664340 0.897733 0.383310
O O9 0.500000 0.000000 0.417674
O O10 0.663937 0.000000 0.500000
O O11 0.500000 0.797828 0.653795
#
# Coordination Sequence:
#
# PCOD8315767 Si02
#       4
#    16  16   8  16
#     4  10  21  33  46  71 106 141 172 201 244 308
#     4   9  17  32  52  71  93 126 171 218 260 300
#     4   9  16  26  44  70  96 126 166 213 260 294
#     4  10  18  31  50  72 100 134 172 214 254 298
#
# _framework density 17.372606000000001
#
# number of rings (size 3 to 8) (size 9 to 14) (size 15 to 20)
#    0.000    2.429    1.429    1.714    0.000    2.857 
#    0.000    4.286    0.000    5.143    0.000    1.000 
#    0.000    3.429    0.000    0.000    0.000    0.000 
#
# Total GULP energy -693854.927667 kJ/mol
# GULP energy per Si atom -12390.266565 kJ/mol
# Density = 1.733307 g / cm^3
# Si number density = 17.372606 Si / 1000 Ang^3
#
#
#
# Elastic Constant Matrix: (Units=GPa)
#
#
# Indices 1 2 3 4 5 6 
#
# 1 68.0091 29.4029 35.2302 0.0000 0.0000 0.0000
# 2 29.4029 68.0091 35.2302 0.0000 0.0000 0.0000
# 3 35.2302 35.2302 105.4485 0.0000 0.0000 0.0000
# 4 0.0000 0.0000 0.0000 22.6189 0.0000 0.0000
# 5 0.0000 0.0000 0.0000 0.0000 22.6189 0.0000
# 6 0.0000 0.0000 0.0000 0.0000 0.0000 3.1133
#
#
#
# Elastic Compliance Matrix: (Units=1/GPa)
#
#
# Indices 1 2 3 4 5 6 
#
# 1 0.019720 -0.006183 -0.004523 0.000000 0.000000 0.000000
# 2 -0.006183 0.019720 -0.004523 0.000000 0.000000 0.000000
# 3 -0.004523 -0.004523 0.012505 0.000000 0.000000 0.000000
# 4 0.000000 0.000000 0.000000 0.044211 0.000000 0.000000
# 5 0.000000 0.000000 0.000000 0.000000 0.044211 0.000000
# 6 0.000000 0.000000 0.000000 0.000000 0.000000 0.321203
#
#
# Mechanical properties :
#
#
# Convention : Reuss Voigt Hill
#
# Bulk Modulus (GPa) = 46.53620 49.02146 47.77883
# Shear Modulus (GPa) = 10.01624 19.11045 14.56335
#
# Velocity S-wave (km/s) = 2.40376 3.32027 2.89847
# Velocity P-wave (km/s) = 5.87787 6.55575 6.22604
#
# Compressibility (1/GPa) = 0.02148865
#
# Stress axis : x y z
#
# Youngs Moduli (GPa) = 50.71042 50.71042 79.96574
#
# Poissons Ratio (x) = 0.31353 0.36166
# Poissons Ratio (y) = 0.31353 0.36166
# Poissons Ratio (z) = 0.22935 0.22935
#
# Static dielectric constant tensor:
#      x y z
#    x 3.096930 0.000000 0.000000 
#    y 0.000000 3.096930 0.000000 
#    z 0.000000 0.000000 3.507740 
# 
# 
# High freq. dielectric constant tensor:
#      x y z
#    x 1.642000 0.000000 0.000000 
#    y 0.000000 1.642000 0.000000 
#    z 0.000000 0.000000 1.691900 
# 
# From -- ./inp_files/7202.got.cif
#   From: 2010.03.12/outbox.cif.g09.slc.cpg/sg131_4_cif.got.tgz:7202.got - 2010.04.06 17:36:35.
