data_PCOD8315067
_publ_section_title
;
Structure prediction by ZEFSAII (Michael W. Deem and Ramdas Pophale) SiO2 
 PCOD8315067
Probable space group: P 4/N M M
;
_chemical_formula_sum "Si O2"
_cell_formula_units_Z 112
_cell_length_a 13.640883
_cell_length_b 13.640883
_cell_length_c 35.536837
_cell_angle_alpha 90.000000
_cell_angle_beta 90.000000
_cell_angle_gamma 90.000000
_cell_volume 6612.470357
_symmetry_space_group_name_H-M "P 4/N M M"
_symmetry_group_IT_number 129
_symmetry_cell_setting 'tetragonal'
loop_
_space_group_symop_operation_xyz
x,y,z
1/2-y,x,z
1/2-x,1/2-y,z
y,1/2-x,z
1/2+x,-y,-z
-x,1/2+y,-z
1/2+y,1/2+x,-z
-y,-x,-z
-x,-y,-z
1/2+y,-x,-z
1/2+x,1/2+y,-z
-y,1/2+x,-z
1/2-x,y,z
x,1/2-y,z
1/2-y,1/2-x,z
y,x,z
loop_
_atom_site_type_symbol
_atom_site_label
_atom_site_fract_x
_atom_site_fract_y
_atom_site_fract_z
Si Si1 0.525905 0.133859 0.967957
Si Si2 0.137289 0.521435 0.613442
Si Si3 0.862226 0.136840 0.253050
Si Si4 0.365928 0.640719 0.893823
Si Si5 0.865132 0.022398 0.178419
Si Si6 0.519964 0.361356 0.527460
Si Si7 0.022909 0.635844 0.672525
O O1 0.505746 0.250000 0.970128
O O2 0.573982 0.101057 0.928653
O O3 0.422574 0.077427 0.972848
O O4 0.602776 0.102776 0.000000
O O5 0.250000 0.500033 0.622981
O O6 0.078443 0.421558 0.622119
O O7 0.122987 0.554734 0.570329
O O8 0.097669 0.609454 0.639092
O O9 0.750000 0.115615 0.264057
O O10 0.877151 0.250000 0.242519
O O11 0.894520 0.074376 0.217181
O O12 0.928535 0.105414 0.288066
O O13 0.250000 0.649892 0.893243
O O14 0.411910 0.750000 0.897175
O O15 0.402882 0.591295 0.855349
O O16 0.750000 0.002033 0.175333
O O17 0.917840 0.917840 0.176042
O O18 0.608214 0.391787 0.500000
O O19 0.491121 0.250000 0.519579
O O20 0.423567 0.423567 0.517972
O O21 0.999061 0.750000 0.670564
O O22 0.921115 0.578886 0.667623
#
# Coordination Sequence:
#
# PCOD8315067 Si02
#       7
#    16  16  16  16  16  16  16
#     4  10  20  33  50  73 100 130 164 201 243 291
#     4   9  18  32  50  72  96 122 153 190 233 280
#     4   9  17  30  49  71  92 116 150 193 239 282
#     4   9  17  30  48  68  90 118 154 196 238 277
#     4  10  19  30  45  66  94 126 157 190 230 278
#     4   9  18  32  49  70  96 124 155 192 232 275
#     4  10  20  33  49  69  94 124 158 196 236 279
#
# _framework density 16.937692999999999
#
# number of rings (size 3 to 8) (size 9 to 14) (size 15 to 20)
#    0.000    2.571    0.000    2.143    0.000    4.714 
#    0.000    2.857    0.000    2.571    0.000    6.000 
#    0.000   11.714    0.000    0.000    0.000    0.000 
#
# Total GULP energy -1388921.690493 kJ/mol
# GULP energy per Si atom -12401.086522 kJ/mol
# Density = 1.689914 g / cm^3
# Si number density = 16.937693 Si / 1000 Ang^3
#
#
#
# Elastic Constant Matrix: (Units=GPa)
#
#
# Indices 1 2 3 4 5 6 
#
# 1 86.7047 44.2693 51.2020 0.0000 0.0000 0.0000
# 2 44.2693 86.7081 51.2021 0.0000 0.0000 0.0000
# 3 51.2020 51.2021 109.7645 0.0000 0.0000 0.0000
# 4 0.0000 0.0000 0.0000 25.8513 0.0000 0.0000
# 5 0.0000 0.0000 0.0000 0.0000 25.8512 0.0000
# 6 0.0000 0.0000 0.0000 0.0000 0.0000 18.3748
#
#
#
# Elastic Compliance Matrix: (Units=1/GPa)
#
#
# Indices 1 2 3 4 5 6 
#
# 1 0.017792 -0.005773 -0.005606 0.000000 0.000000 0.000000
# 2 -0.005773 0.017791 -0.005606 0.000000 0.000000 0.000000
# 3 -0.005606 -0.005606 0.014341 0.000000 0.000000 0.000000
# 4 0.000000 0.000000 0.000000 0.038683 0.000000 0.000000
# 5 0.000000 0.000000 0.000000 0.000000 0.038683 0.000000
# 6 0.000000 0.000000 0.000000 0.000000 0.000000 0.054422
#
#
# Mechanical properties :
#
#
# Convention : Reuss Voigt Hill
#
# Bulk Modulus (GPa) = 62.68634 64.05822 63.37228
# Shear Modulus (GPa) = 22.62451 23.11572 22.87011
#
# Velocity S-wave (km/s) = 3.65875 3.69826 3.67856
# Velocity P-wave (km/s) = 7.41208 7.49254 7.45242
#
# Compressibility (1/GPa) = 0.01595244
#
# Stress axis : x y z
#
# Youngs Moduli (GPa) = 56.20591 56.20892 69.73189
#
# Poissons Ratio (x) = 0.32450 0.39094
# Poissons Ratio (y) = 0.32448 0.39091
# Poissons Ratio (z) = 0.31511 0.31510
#
# Static dielectric constant tensor:
#      x y z
#    x 3.046880 0.000000 0.000000 
#    y 0.000000 3.046880 0.000000 
#    z 0.000000 0.000000 3.364200 
# 
# 
# High freq. dielectric constant tensor:
#      x y z
#    x 1.642400 0.000000 0.000000 
#    y 0.000000 1.642400 0.000000 
#    z 0.000000 0.000000 1.668460 
# 
# From -- ./inp_files/7559.got.cif
#   From: 2010.03.12/outbox.cif.g09.slc.cpg/sg129_4_cif.got.tgz:7559.got - 2010.04.06 17:19:44.
