data_PCOD8315259
_publ_section_title
;
Structure prediction by ZEFSAII (Michael W. Deem and Ramdas Pophale) SiO2 
 PCOD8315259
Probable space group: P 4/N M M
;
_chemical_formula_sum "Si O2"
_cell_formula_units_Z 128
_cell_length_a 17.995859
_cell_length_b 17.995859
_cell_length_c 23.106353
_cell_angle_alpha 90.000000
_cell_angle_beta 90.000000
_cell_angle_gamma 90.000000
_cell_volume 7483.014166
_symmetry_space_group_name_H-M "P 4/N M M"
_symmetry_group_IT_number 129
_symmetry_cell_setting 'tetragonal'
loop_
_space_group_symop_operation_xyz
x,y,z
1/2-y,x,z
1/2-x,1/2-y,z
y,1/2-x,z
1/2+x,-y,-z
-x,1/2+y,-z
1/2+y,1/2+x,-z
-y,-x,-z
-x,-y,-z
1/2+y,-x,-z
1/2+x,1/2+y,-z
-y,1/2+x,-z
1/2-x,y,z
x,1/2-y,z
1/2-y,1/2-x,z
y,x,z
loop_
_atom_site_type_symbol
_atom_site_label
_atom_site_fract_x
_atom_site_fract_y
_atom_site_fract_z
Si Si1 0.933099 0.057484 0.629847
Si Si2 0.453619 0.165204 0.814388
Si Si3 0.047820 0.834416 0.074225
Si Si4 0.064785 0.557130 0.239738
Si Si5 0.334358 0.045082 0.032516
Si Si6 0.455403 0.164936 0.441162
Si Si7 0.664495 0.543598 0.423041
Si Si8 0.563310 0.334740 0.131706
O O1 0.903877 0.065162 0.695470
O O2 0.968266 0.134925 0.607516
O O3 0.864485 0.029654 0.590800
O O4 0.998225 0.998225 0.625605
O O5 0.443780 0.250000 0.795467
O O6 0.374147 0.125854 0.808476
O O7 0.481530 0.156110 0.879851
O O8 0.513375 0.128506 0.771603
O O9 0.073960 0.750000 0.068529
O O10 0.120602 0.877568 0.093909
O O11 0.016699 0.864239 0.012962
O O12 0.133808 0.553842 0.196106
O O13 0.017809 0.482191 0.230991
O O14 0.250000 0.065258 0.016072
O O15 0.380052 0.119949 0.027259
O O16 0.340542 0.014614 0.097804
O O17 0.440396 0.250000 0.422914
O O18 0.383115 0.116886 0.422739
O O19 0.470342 0.157625 0.508897
O O20 0.750000 0.557467 0.404568
O O21 0.616199 0.616199 0.404850
O O22 0.590624 0.250000 0.136334
#
# Coordination Sequence:
#
# PCOD8315259 Si02
#       8
#    16  16  16  16  16  16  16  16
#     4   9  17  30  48  68  91 124 166 203 234 274
#     4   9  17  29  45  66  92 121 154 192 234 281
#     4   9  18  32  48  67  92 121 152 187 229 276
#     4   9  18  32  48  65  89 123 159 196 236 273
#     4  10  20  33  50  72  96 122 152 185 224 273
#     4   9  17  29  47  72  99 126 156 192 236 285
#     4   9  17  29  47  72 101 130 159 194 236 282
#     4  10  20  32  48  71  94 118 152 192 233 277
#
# _framework density 17.105407
#
# number of rings (size 3 to 8) (size 9 to 14) (size 15 to 20)
#    0.000    2.750    0.000    1.500    0.000    5.250 
#    0.000    1.250    0.000    4.875    0.000    7.000 
#    0.000    3.000    0.000    0.000    0.000    0.000 
#
# Total GULP energy -1587076.304519 kJ/mol
# GULP energy per Si atom -12399.033629 kJ/mol
# Density = 1.706647 g / cm^3
# Si number density = 17.105407 Si / 1000 Ang^3
#
#
#
# Elastic Constant Matrix: (Units=GPa)
#
#
# Indices 1 2 3 4 5 6 
#
# 1 101.1131 56.4697 40.5423 0.0000 0.0000 0.0000
# 2 56.4697 101.1131 40.5423 0.0000 0.0000 0.0000
# 3 40.5423 40.5423 76.9455 0.0000 0.0000 0.0000
# 4 0.0000 0.0000 0.0000 19.6122 0.0000 0.0000
# 5 0.0000 0.0000 0.0000 0.0000 19.6122 0.0000
# 6 0.0000 0.0000 0.0000 0.0000 0.0000 19.4512
#
#
#
# Elastic Compliance Matrix: (Units=1/GPa)
#
#
# Indices 1 2 3 4 5 6 
#
# 1 0.015553 -0.006847 -0.004587 0.000000 0.000000 0.000000
# 2 -0.006847 0.015553 -0.004587 0.000000 0.000000 0.000000
# 3 -0.004587 -0.004587 0.017830 0.000000 0.000000 0.000000
# 4 0.000000 0.000000 0.000000 0.050989 0.000000 0.000000
# 5 0.000000 0.000000 0.000000 0.000000 0.050989 0.000000
# 6 0.000000 0.000000 0.000000 0.000000 0.000000 0.051411
#
#
# Mechanical properties :
#
#
# Convention : Reuss Voigt Hill
#
# Bulk Modulus (GPa) = 59.19397 61.58671 60.39034
# Shear Modulus (GPa) = 20.83351 21.17630 21.00490
#
# Velocity S-wave (km/s) = 3.49370 3.52232 3.50804
# Velocity P-wave (km/s) = 7.13828 7.25429 7.19652
#
# Compressibility (1/GPa) = 0.01689361
#
# Stress axis : x y z
#
# Youngs Moduli (GPa) = 64.29625 64.29625 56.08430
#
# Poissons Ratio (x) = 0.44022 0.25728
# Poissons Ratio (y) = 0.44022 0.25728
# Poissons Ratio (z) = 0.29495 0.29495
#
# Static dielectric constant tensor:
#      x y z
#    x 3.124220 0.000000 0.000000 
#    y 0.000000 3.124220 0.000000 
#    z 0.000000 0.000000 3.253780 
# 
# 
# High freq. dielectric constant tensor:
#      x y z
#    x 1.647960 0.000000 0.000000 
#    y 0.000000 1.647960 0.000000 
#    z 0.000000 0.000000 1.661410 
# 
# From -- ./inp_files/7266.got.cif
#   From: 2010.03.12/outbox.cif.g09.slc.cpg/sg129_4_cif.got.tgz:7266.got - 2010.04.06 17:19:44.
