data_PCOD8315369
_publ_section_title
;
Structure prediction by ZEFSAII (Michael W. Deem and Ramdas Pophale) SiO2 
 PCOD8315369
Probable space group: P 4/N M M
;
_chemical_formula_sum "Si O2"
_cell_formula_units_Z 96
_cell_length_a 22.720842
_cell_length_b 22.720842
_cell_length_c 9.980078
_cell_angle_alpha 90.000000
_cell_angle_beta 90.000000
_cell_angle_gamma 90.000000
_cell_volume 5152.082145
_symmetry_space_group_name_H-M "P 4/N M M"
_symmetry_group_IT_number 129
_symmetry_cell_setting 'tetragonal'
loop_
_space_group_symop_operation_xyz
x,y,z
1/2-y,x,z
1/2-x,1/2-y,z
y,1/2-x,z
1/2+x,-y,-z
-x,1/2+y,-z
1/2+y,1/2+x,-z
-y,-x,-z
-x,-y,-z
1/2+y,-x,-z
1/2+x,1/2+y,-z
-y,1/2+x,-z
1/2-x,y,z
x,1/2-y,z
1/2-y,1/2-x,z
y,x,z
loop_
_atom_site_type_symbol
_atom_site_label
_atom_site_fract_x
_atom_site_fract_y
_atom_site_fract_z
Si Si1 0.583138 0.818927 0.511454
Si Si2 0.815046 0.314489 0.159070
Si Si3 0.816688 0.978056 0.231906
Si Si4 0.523264 0.620510 0.748599
Si Si5 0.415074 0.900006 0.158728
Si Si6 0.911143 0.683729 0.966923
O O1 0.599486 0.750000 0.526695
O O2 0.643028 0.856973 0.526733
O O3 0.552501 0.832280 0.370771
O O4 0.534523 0.837261 0.621710
O O5 0.750000 0.330055 0.213080
O O6 0.834245 0.250000 0.211268
O O7 0.860766 0.361520 0.212499
O O8 0.814719 0.314719 0.000000
O O9 0.750000 0.005032 0.231941
O O10 0.865976 0.025862 0.197364
O O11 0.820302 0.926634 0.122511
O O12 0.565900 0.565900 0.739985
O O13 0.458823 0.591920 0.754486
O O14 0.533934 0.658580 0.882627
O O15 0.413370 0.913370 0.000000
O O16 0.898208 0.750000 0.921206
O O17 0.852458 0.647543 0.934274
#
# Coordination Sequence:
#
# PCOD8315369 Si02
#       6
#    16  16  16  16  16  16
#     4  10  22  41  62  85 115 150 189 238 294 347
#     4   8  15  27  44  71 106 137 173 226 275 318
#     4  10  21  37  57  83 116 150 190 241 287 334
#     4  10  22  37  54  80 112 145 186 235 279 333
#     4  11  20  33  55  83 109 154 195 228 280 349
#     4  10  20  35  55  80 110 142 181 233 288 341
#
# _framework density 18.633243
#
# number of rings (size 3 to 8) (size 9 to 14) (size 15 to 20)
#    0.000    2.167    1.667    2.000    0.000    4.667 
#    0.000    1.667    0.000    6.000    0.000    0.000 
#    0.000    4.000    0.000    0.000    0.000    0.000 
#
# Total GULP energy -1190145.351450 kJ/mol
# GULP energy per Si atom -12397.347411 kJ/mol
# Density = 1.859083 g / cm^3
# Si number density = 18.633243 Si / 1000 Ang^3
#
#
#
# Elastic Constant Matrix: (Units=GPa)
#
#
# Indices 1 2 3 4 5 6 
#
# 1 108.6061 54.9836 25.7300 0.0000 0.0000 0.0000
# 2 54.9836 108.6061 25.7300 0.0000 0.0000 0.0000
# 3 25.7300 25.7300 78.8394 0.0000 0.0000 0.0000
# 4 0.0000 0.0000 0.0000 24.6102 0.0000 0.0000
# 5 0.0000 0.0000 0.0000 0.0000 24.6102 0.0000
# 6 0.0000 0.0000 0.0000 0.0000 0.0000 26.3088
#
#
#
# Elastic Compliance Matrix: (Units=1/GPa)
#
#
# Indices 1 2 3 4 5 6 
#
# 1 0.012731 -0.005918 -0.002223 0.000000 0.000000 0.000000
# 2 -0.005918 0.012731 -0.002223 0.000000 0.000000 0.000000
# 3 -0.002223 -0.002223 0.014135 0.000000 0.000000 0.000000
# 4 0.000000 0.000000 0.000000 0.040634 0.000000 0.000000
# 5 0.000000 0.000000 0.000000 0.000000 0.040634 0.000000
# 6 0.000000 0.000000 0.000000 0.000000 0.000000 0.038010
#
#
# Mechanical properties :
#
#
# Convention : Reuss Voigt Hill
#
# Bulk Modulus (GPa) = 53.00357 56.54877 54.77617
# Shear Modulus (GPa) = 26.89732 27.74635 27.32184
#
# Velocity S-wave (km/s) = 3.80348 3.86304 3.83338
# Velocity P-wave (km/s) = 6.91347 7.09307 7.00385
#
# Compressibility (1/GPa) = 0.01886665
#
# Stress axis : x y z
#
# Youngs Moduli (GPa) = 78.55115 78.55115 70.74562
#
# Poissons Ratio (x) = 0.46489 0.15728
# Poissons Ratio (y) = 0.46489 0.15728
# Poissons Ratio (z) = 0.17464 0.17464
#
# Static dielectric constant tensor:
#      x y z
#    x 3.504190 0.000000 0.000000 
#    y 0.000000 3.504190 0.000000 
#    z 0.000000 0.000000 3.326140 
# 
# 
# High freq. dielectric constant tensor:
#      x y z
#    x 1.727210 0.000000 0.000000 
#    y 0.000000 1.727210 0.000000 
#    z 0.000000 0.000000 1.706060 
# 
# From -- ./inp_files/2614.got.cif
#   From: 2010.03.12/outbox.cif.g09.slc.cpg/sg129_2_cif.got.tgz:2614.got - 2010.04.06 17:19:44.
