data_PCOD8315769
_publ_section_title
;
Structure prediction by ZEFSAII (Michael W. Deem and Ramdas Pophale) SiO2 
 PCOD8315769
Probable space group: P 42/M M C
;
_chemical_formula_sum "Si O2"
_cell_formula_units_Z 96
_cell_length_a 23.961306
_cell_length_b 23.961306
_cell_length_c 10.232444
_cell_angle_alpha 90.000000
_cell_angle_beta 90.000000
_cell_angle_gamma 90.000000
_cell_volume 5874.898223
_symmetry_space_group_name_H-M "P 42/M M C"
_symmetry_group_IT_number 131
_symmetry_cell_setting 'tetragonal'
loop_
_space_group_symop_operation_xyz
x,y,z
-x,-y,z
-y,x,1/2+z
y,-x,1/2+z
-x,y,-z
x,-y,-z
y,x,1/2-z
-y,-x,1/2-z
-x,-y,-z
x,y,-z
y,-x,1/2-z
-y,x,1/2-z
x,-y,z
-x,y,z
-y,-x,1/2+z
y,x,1/2+z
loop_
_atom_site_type_symbol
_atom_site_label
_atom_site_fract_x
_atom_site_fract_y
_atom_site_fract_z
Si Si1 0.936978 0.342393 0.152504
Si Si2 0.775120 0.066016 0.258048
Si Si3 0.634313 0.565473 0.351872
Si Si4 0.435396 0.150542 0.650409
Si Si5 0.566175 0.240866 0.856000
Si Si6 0.933849 0.150243 0.000000
Si Si7 0.066167 0.837813 0.500000
O O1 0.910935 0.288222 0.226194
O O2 0.903015 0.398280 0.185115
O O3 0.000000 0.354441 0.199000
O O4 0.935368 0.327901 0.000000
O O5 0.814819 0.085767 0.374775
O O6 0.770490 0.000000 0.263520
O O7 0.802082 0.086928 0.123680
O O8 0.593552 0.593552 0.250000
O O9 0.615596 0.579603 0.500000
O O10 0.631500 0.500000 0.326836
O O11 0.696923 0.588382 0.327619
O O12 0.427607 0.169080 0.500000
O O13 0.500000 0.135556 0.679327
O O14 0.412592 0.200075 0.742156
O O15 0.500000 0.242598 0.856024
O O16 0.586961 0.220781 0.000000
O O17 0.899536 0.092536 0.000000
O O18 0.000000 0.136282 0.000000
O O19 0.000000 0.846958 0.500000
#
# Coordination Sequence:
#
# PCOD8315769 Si02
#       7
#    16  16  16  16  16   8   8
#     4   9  16  29  49  70  94 126 158 186 223 275
#     4   9  17  31  48  67  91 124 161 188 220 273
#     4   9  18  31  47  68  93 123 157 192 233 279
#     4   9  17  28  46  74  98 117 150 195 236 272
#     4   8  15  30  48  65  90 124 157 185 223 278
#     4  10  18  31  52  70  89 123 157 185 231 291
#     4  10  20  31  46  72  99 117 147 199 241 269
#
# _framework density 16.340707999999999
#
# number of rings (size 3 to 8) (size 9 to 14) (size 15 to 20)
#    0.000    3.000    0.833    1.500    0.000    1.667 
#    1.500    4.167    0.000    5.000    0.000    2.333 
#    0.000    0.000    0.000    0.000    0.000    0.000 
#
# Total GULP energy -1189925.108958 kJ/mol
# GULP energy per Si atom -12395.053218 kJ/mol
# Density = 1.630352 g / cm^3
# Si number density = 16.340708 Si / 1000 Ang^3
#
#
#
# Elastic Constant Matrix: (Units=GPa)
#
#
# Indices 1 2 3 4 5 6 
#
# 1 77.5235 46.8700 54.7134 0.0000 0.0000 0.0000
# 2 46.8700 77.5235 54.7134 0.0000 0.0000 0.0000
# 3 54.7134 54.7134 117.8423 0.0000 0.0000 0.0000
# 4 0.0000 0.0000 0.0000 20.4112 0.0000 0.0000
# 5 0.0000 0.0000 0.0000 0.0000 20.4112 0.0000
# 6 0.0000 0.0000 0.0000 0.0000 0.0000 6.3553
#
#
#
# Elastic Compliance Matrix: (Units=1/GPa)
#
#
# Indices 1 2 3 4 5 6 
#
# 1 0.023106 -0.009517 -0.006309 0.000000 0.000000 0.000000
# 2 -0.009517 0.023106 -0.006309 0.000000 0.000000 0.000000
# 3 -0.006309 -0.006309 0.014345 0.000000 0.000000 0.000000
# 4 0.000000 0.000000 0.000000 0.048993 0.000000 0.000000
# 5 0.000000 0.000000 0.000000 0.000000 0.048993 0.000000
# 6 0.000000 0.000000 0.000000 0.000000 0.000000 0.157348
#
#
# Mechanical properties :
#
#
# Convention : Reuss Voigt Hill
#
# Bulk Modulus (GPa) = 61.40363 65.05361 63.22862
# Shear Modulus (GPa) = 13.67653 17.20837 15.44245
#
# Velocity S-wave (km/s) = 2.89617 3.24867 3.07747
# Velocity P-wave (km/s) = 6.98873 7.34636 7.16978
#
# Compressibility (1/GPa) = 0.01628568
#
# Stress axis : x y z
#
# Youngs Moduli (GPa) = 43.27881 43.27881 69.71192
#
# Poissons Ratio (x) = 0.41187 0.43984
# Poissons Ratio (y) = 0.41187 0.43984
# Poissons Ratio (z) = 0.27306 0.27306
#
# Static dielectric constant tensor:
#      x y z
#    x 2.984470 0.000000 0.000000 
#    y 0.000000 2.984470 0.000000 
#    z 0.000000 0.000000 3.310980 
# 
# 
# High freq. dielectric constant tensor:
#      x y z
#    x 1.610000 0.000000 0.000000 
#    y 0.000000 1.610000 0.000000 
#    z 0.000000 0.000000 1.634060 
# 
# From -- ./inp_files/2312.got.cif
#   From: 2010.03.12/outbox.cif.g09.slc.cpg/sg131_2_cif.got.tgz:2312.got - 2010.04.06 17:36:35.
