data_PCOD8315734
_publ_section_title
;
Structure prediction by ZEFSAII (Michael W. Deem and Ramdas Pophale) SiO2 
 PCOD8315734
Probable space group: P 42/M M C
;
_chemical_formula_sum "Si O2"
_cell_formula_units_Z 96
_cell_length_a 23.725231
_cell_length_b 23.725231
_cell_length_c 9.658289
_cell_angle_alpha 90.000000
_cell_angle_beta 90.000000
_cell_angle_gamma 90.000000
_cell_volume 5436.521322
_symmetry_space_group_name_H-M "P 42/M M C"
_symmetry_group_IT_number 131
_symmetry_cell_setting 'tetragonal'
loop_
_space_group_symop_operation_xyz
x,y,z
-x,-y,z
-y,x,1/2+z
y,-x,1/2+z
-x,y,-z
x,-y,-z
y,x,1/2-z
-y,-x,1/2-z
-x,-y,-z
x,y,-z
y,-x,1/2-z
-y,x,1/2-z
x,-y,z
-x,y,z
-y,-x,1/2+z
y,x,1/2+z
loop_
_atom_site_type_symbol
_atom_site_label
_atom_site_fract_x
_atom_site_fract_y
_atom_site_fract_z
Si Si1 0.934260 0.857160 0.840415
Si Si2 0.362249 0.127978 0.160000
Si Si3 0.749378 0.064668 0.841290
Si Si4 0.643759 0.565698 0.340630
Si Si5 0.438852 0.065701 0.350529
Si Si6 0.563125 0.229963 0.164357
O O1 0.905273 0.905273 0.750000
O O2 0.920932 0.797885 0.767627
O O3 0.000000 0.870598 0.837010
O O4 0.912519 0.855984 0.000000
O O5 0.296897 0.113569 0.188171
O O6 0.395307 0.077921 0.231129
O O7 0.387303 0.187496 0.218457
O O8 0.376120 0.124287 0.000000
O O9 0.727400 0.000000 0.817929
O O10 0.770970 0.070298 0.000000
O O11 0.600268 0.600268 0.250000
O O12 0.637383 0.584233 0.500000
O O13 0.629859 0.500000 0.323693
O O14 0.707075 0.578371 0.285367
O O15 0.418285 0.089731 0.500000
O O16 0.500000 0.092011 0.314063
O O17 0.445025 0.000000 0.362485
O O18 0.500000 0.212867 0.218047
O O19 0.561552 0.230353 0.000000
#
# Coordination Sequence:
#
# PCOD8315734 Si02
#       6
#    16  16  16  16  16  16
#     4  10  21  37  58  82 106 134 166 199 241 295
#     4  10  18  29  49  73  94 124 170 215 250 289
#     4   9  18  32  49  72 104 137 168 207 252 292
#     4   9  18  33  52  73  98 127 157 192 239 294
#     4   9  18  30  41  58  90 128 162 204 260 310
#     4   8  15  29  48  70  98 131 164 201 247 294
#
# _framework density 17.658351
#
# number of rings (size 3 to 8) (size 9 to 14) (size 15 to 20)
#    0.000    2.833    0.000    3.000    0.000    4.333 
#    0.000    5.833    0.000    3.000    0.000    0.000 
#    0.000    0.000    0.000    0.000    0.000    0.000 
#
# Total GULP energy -1189320.717151 kJ/mol
# GULP energy per Si atom -12388.757470 kJ/mol
# Density = 1.761816 g / cm^3
# Si number density = 17.658351 Si / 1000 Ang^3
#
#
#
# Elastic Constant Matrix: (Units=GPa)
#
#
# Indices 1 2 3 4 5 6 
#
# 1 80.5619 55.1189 51.5435 0.0000 0.0000 0.0000
# 2 55.1189 80.5619 51.5435 0.0000 0.0000 0.0000
# 3 51.5435 51.5435 79.9870 0.0000 0.0000 0.0000
# 4 0.0000 0.0000 0.0000 21.8803 0.0000 0.0000
# 5 0.0000 0.0000 0.0000 0.0000 21.8803 0.0000
# 6 0.0000 0.0000 0.0000 0.0000 0.0000 29.0233
#
#
#
# Elastic Compliance Matrix: (Units=1/GPa)
#
#
# Indices 1 2 3 4 5 6 
#
# 1 0.026872 -0.012432 -0.009305 0.000000 0.000000 0.000000
# 2 -0.012432 0.026872 -0.009305 0.000000 0.000000 0.000000
# 3 -0.009305 -0.009305 0.024495 0.000000 0.000000 0.000000
# 4 0.000000 0.000000 0.000000 0.045703 0.000000 0.000000
# 5 0.000000 0.000000 0.000000 0.000000 0.045703 0.000000
# 6 0.000000 0.000000 0.000000 0.000000 0.000000 0.034455
#
#
# Mechanical properties :
#
#
# Convention : Reuss Voigt Hill
#
# Bulk Modulus (GPa) = 61.90419 61.94697 61.92558
# Shear Modulus (GPa) = 18.41154 20.08375 19.24764
#
# Velocity S-wave (km/s) = 3.23252 3.37612 3.30510
# Velocity P-wave (km/s) = 7.00464 7.09610 7.05052
#
# Compressibility (1/GPa) = 0.01615399
#
# Stress axis : x y z
#
# Youngs Moduli (GPa) = 37.21360 37.21360 40.82541
#
# Poissons Ratio (x) = 0.46263 0.37989
# Poissons Ratio (y) = 0.46263 0.37989
# Poissons Ratio (z) = 0.34628 0.34628
#
# Static dielectric constant tensor:
#      x y z
#    x 3.267060 0.000000 0.000000 
#    y 0.000000 3.267060 0.000000 
#    z 0.000000 0.000000 3.270130 
# 
# 
# High freq. dielectric constant tensor:
#      x y z
#    x 1.673210 0.000000 0.000000 
#    y 0.000000 1.673210 0.000000 
#    z 0.000000 0.000000 1.673480 
# 
# From -- ./inp_files/2212.got.cif
#   From: 2010.03.12/outbox.cif.g09.slc.cpg/sg131_2_cif.got.tgz:2212.got - 2010.04.06 17:36:35.
