data_PCOD8315097
_publ_section_title
;
Structure prediction by ZEFSAII (Michael W. Deem and Ramdas Pophale) SiO2 
 PCOD8315097
Probable space group: P 4/N M M
;
_chemical_formula_sum "Si O2"
_cell_formula_units_Z 128
_cell_length_a 20.226360
_cell_length_b 20.226360
_cell_length_c 17.872855
_cell_angle_alpha 90.000000
_cell_angle_beta 90.000000
_cell_angle_gamma 90.000000
_cell_volume 7311.885763
_symmetry_space_group_name_H-M "P 4/N M M"
_symmetry_group_IT_number 129
_symmetry_cell_setting 'tetragonal'
loop_
_space_group_symop_operation_xyz
x,y,z
1/2-y,x,z
1/2-x,1/2-y,z
y,1/2-x,z
1/2+x,-y,-z
-x,1/2+y,-z
1/2+y,1/2+x,-z
-y,-x,-z
-x,-y,-z
1/2+y,-x,-z
1/2+x,1/2+y,-z
-y,1/2+x,-z
1/2-x,y,z
x,1/2-y,z
1/2-y,1/2-x,z
y,x,z
loop_
_atom_site_type_symbol
_atom_site_label
_atom_site_fract_x
_atom_site_fract_y
_atom_site_fract_z
Si Si1 0.326589 0.962457 0.629278
Si Si2 0.673056 0.933552 0.488147
Si Si3 0.077449 0.676334 0.921551
Si Si4 0.675514 0.931388 0.659530
Si Si5 0.548660 0.358585 0.232295
Si Si6 0.676469 0.326058 0.680809
Si Si7 0.602392 0.496365 0.221774
Si Si8 0.558639 0.326608 0.915592
O O1 0.250000 0.973955 0.624578
O O2 0.343149 0.883448 0.622658
O O3 0.356223 0.004796 0.560271
O O4 0.348701 0.992426 0.708296
O O5 0.750000 0.918501 0.471832
O O6 0.632471 0.867530 0.467407
O O7 0.661507 0.952668 0.574430
O O8 0.105748 0.750000 0.928603
O O9 0.028962 0.668785 0.849931
O O10 0.140654 0.630409 0.907125
O O11 0.036419 0.660201 0.997930
O O12 0.750000 0.904221 0.668413
O O13 0.626217 0.873784 0.686495
O O14 0.666871 0.996761 0.708010
O O15 0.622503 0.330985 0.250961
O O16 0.548557 0.437948 0.229943
O O17 0.750000 0.334196 0.644087
O O18 0.667609 0.250000 0.709633
O O19 0.566346 0.566346 0.223178
O O20 0.640858 0.492144 0.142808
O O21 0.564295 0.250000 0.895821
#
# Coordination Sequence:
#
# PCOD8315097 Si02
#       8
#    16  16  16  16  16  16  16  16
#     4   9  17  30  49  71  95 124 155 189 231 275
#     4   9  18  32  50  72  96 121 151 190 237 287
#     4   9  17  29  46  68  94 123 153 188 230 276
#     4  10  20  34  52  72  94 120 152 193 241 290
#     4  10  19  32  49  69  93 124 158 193 232 277
#     4   9  17  29  47  71  96 123 158 195 228 268
#     4  10  19  31  47  67  93 125 160 193 227 273
#     4   9  18  31  45  66  95 123 154 193 234 275
#
# _framework density 17.505745000000001
#
# number of rings (size 3 to 8) (size 9 to 14) (size 15 to 20)
#    0.000    2.625    0.000    2.250    0.000    3.500 
#    0.000   10.625    0.000    9.000    0.000    5.250 
#    0.000    2.250    0.000    0.000    0.000    1.875 
#
# Total GULP energy -1586068.155693 kJ/mol
# GULP energy per Si atom -12391.157466 kJ/mol
# Density = 1.746590 g / cm^3
# Si number density = 17.505745 Si / 1000 Ang^3
#
#
#
# Elastic Constant Matrix: (Units=GPa)
#
#
# Indices 1 2 3 4 5 6 
#
# 1 60.5185 31.0350 42.1836 0.0000 0.0000 0.0000
# 2 31.0350 60.5185 42.1836 0.0000 0.0000 0.0000
# 3 42.1836 42.1836 105.0924 0.0000 0.0000 0.0000
# 4 0.0000 0.0000 0.0000 20.7022 0.0000 0.0000
# 5 0.0000 0.0000 0.0000 0.0000 20.7022 0.0000
# 6 0.0000 0.0000 0.0000 0.0000 0.0000 19.9043
#
#
#
# Elastic Compliance Matrix: (Units=1/GPa)
#
#
# Indices 1 2 3 4 5 6 
#
# 1 0.025626 -0.008291 -0.006958 0.000000 0.000000 0.000000
# 2 -0.008291 0.025626 -0.006958 0.000000 0.000000 0.000000
# 3 -0.006958 -0.006958 0.015101 0.000000 0.000000 0.000000
# 4 0.000000 0.000000 0.000000 0.048304 0.000000 0.000000
# 5 0.000000 0.000000 0.000000 0.000000 0.048304 0.000000
# 6 0.000000 0.000000 0.000000 0.000000 0.000000 0.050241
#
#
# Mechanical properties :
#
#
# Convention : Reuss Voigt Hill
#
# Bulk Modulus (GPa) = 45.58264 50.77044 48.17654
# Shear Modulus (GPa) = 18.87300 19.64355 19.25827
#
# Velocity S-wave (km/s) = 3.28701 3.35344 3.32039
# Velocity P-wave (km/s) = 6.36405 6.63771 6.50232
#
# Compressibility (1/GPa) = 0.02193818
#
# Stress axis : x y z
#
# Youngs Moduli (GPa) = 39.02317 39.02317 66.21986
#
# Poissons Ratio (x) = 0.32356 0.46075
# Poissons Ratio (y) = 0.32356 0.46075
# Poissons Ratio (z) = 0.27152 0.27152
#
# Static dielectric constant tensor:
#      x y z
#    x 3.190640 0.000000 0.000000 
#    y 0.000000 3.190640 0.000000 
#    z 0.000000 0.000000 3.507520 
# 
# 
# High freq. dielectric constant tensor:
#      x y z
#    x 1.661390 0.000000 0.000000 
#    y 0.000000 1.661390 0.000000 
#    z 0.000000 0.000000 1.678490 
# 
# From -- ./inp_files/6130.got.cif
#   From: 2010.03.12/outbox.cif.g09.slc.cpg/sg129_4_cif.got.tgz:6130.got - 2010.04.06 17:19:44.
