data_PCOD8315146
_publ_section_title
;
Structure prediction by ZEFSAII (Michael W. Deem and Ramdas Pophale) SiO2 
 PCOD8315146
Probable space group: P 4/N M M
;
_chemical_formula_sum "Si O2"
_cell_formula_units_Z 96
_cell_length_a 16.732676
_cell_length_b 16.732676
_cell_length_c 19.880492
_cell_angle_alpha 90.000000
_cell_angle_beta 90.000000
_cell_angle_gamma 90.000000
_cell_volume 5566.188780
_symmetry_space_group_name_H-M "P 4/N M M"
_symmetry_group_IT_number 129
_symmetry_cell_setting 'tetragonal'
loop_
_space_group_symop_operation_xyz
x,y,z
1/2-y,x,z
1/2-x,1/2-y,z
y,1/2-x,z
1/2+x,-y,-z
-x,1/2+y,-z
1/2+y,1/2+x,-z
-y,-x,-z
-x,-y,-z
1/2+y,-x,-z
1/2+x,1/2+y,-z
-y,1/2+x,-z
1/2-x,y,z
x,1/2-y,z
1/2-y,1/2-x,z
y,x,z
loop_
_atom_site_type_symbol
_atom_site_label
_atom_site_fract_x
_atom_site_fract_y
_atom_site_fract_z
Si Si1 0.339116 0.543226 0.967099
Si Si2 0.457551 0.337602 0.101237
Si Si3 0.656977 0.343937 0.276466
Si Si4 0.574444 0.055128 0.609446
Si Si5 0.578907 0.046042 0.168622
Si Si6 0.343685 0.471408 0.512075
O O1 0.250000 0.571017 0.951695
O O2 0.376775 0.512794 0.897495
O O3 0.380554 0.619447 0.000000
O O4 0.343563 0.472576 0.021353
O O5 0.465858 0.250000 0.130367
O O6 0.367639 0.367639 0.112677
O O7 0.516580 0.388630 0.145467
O O8 0.750000 0.353536 0.297753
O O9 0.641003 0.250000 0.257537
O O10 0.595975 0.370266 0.334657
O O11 0.640542 0.407764 0.216918
O O12 0.522246 0.123989 0.574751
O O13 0.514255 0.985746 0.637702
O O14 0.635401 0.016531 0.556679
O O15 0.529944 0.970056 0.200989
O O16 0.250000 0.459592 0.519655
O O17 0.384352 0.384352 0.512322
#
# Coordination Sequence:
#
# PCOD8315146 Si02
#       6
#    16  16  16  16  16  16
#     4   9  17  29  45  66  90 116 147 182 224 273
#     4   9  17  29  45  64  85 110 142 180 221 265
#     4  11  22  33  47  69  96 122 151 193 240 280
#     4   9  18  33  51  70  94 127 162 190 222 271
#     4  10  19  32  48  64  87 120 155 188 224 272
#     4   9  17  30  50  74  99 126 156 191 228 268
#
# _framework density 17.24699
#
# number of rings (size 3 to 8) (size 9 to 14) (size 15 to 20)
#    0.000    2.500    0.000    4.000    0.000    3.167 
#    0.000    0.000    0.000    4.000    0.000    0.000 
#    0.000   25.667    0.000    0.000    0.000    0.000 
#
# Total GULP energy -1189451.507473 kJ/mol
# GULP energy per Si atom -12390.119870 kJ/mol
# Density = 1.720773 g / cm^3
# Si number density = 17.246990 Si / 1000 Ang^3
#
#
#
# Elastic Constant Matrix: (Units=GPa)
#
#
# Indices 1 2 3 4 5 6 
#
# 1 76.9593 34.4534 7.8500 0.0000 0.0000 0.0000
# 2 34.4534 76.9593 7.8509 0.0000 0.0000 0.0000
# 3 7.8500 7.8509 42.3178 0.0000 0.0000 0.0000
# 4 0.0000 0.0000 0.0000 20.9968 0.0000 0.0000
# 5 0.0000 0.0000 0.0000 0.0000 20.9966 0.0000
# 6 0.0000 0.0000 0.0000 0.0000 0.0000 20.1104
#
#
#
# Elastic Compliance Matrix: (Units=1/GPa)
#
#
# Indices 1 2 3 4 5 6 
#
# 1 0.016371 -0.007155 -0.001710 0.000000 0.000000 0.000000
# 2 -0.007155 0.016371 -0.001710 0.000000 0.000000 0.000000
# 3 -0.001710 -0.001710 0.024265 0.000000 0.000000 0.000000
# 4 0.000000 0.000000 0.000000 0.047626 0.000000 0.000000
# 5 0.000000 0.000000 0.000000 0.000000 0.047627 0.000000
# 6 0.000000 0.000000 0.000000 0.000000 0.000000 0.049726
#
#
# Mechanical properties :
#
#
# Convention : Reuss Voigt Hill
#
# Bulk Modulus (GPa) = 27.88691 32.94945 30.41818
# Shear Modulus (GPa) = 21.26861 22.15956 21.71408
#
# Velocity S-wave (km/s) = 3.51547 3.58835 3.55210
# Velocity P-wave (km/s) = 5.71685 6.02613 5.87353
#
# Compressibility (1/GPa) = 0.03585912
#
# Stress axis : x y z
#
# Youngs Moduli (GPa) = 61.08243 61.08212 41.21145
#
# Poissons Ratio (x) = 0.43703 0.07045
# Poissons Ratio (y) = 0.43703 0.07047
# Poissons Ratio (z) = 0.10442 0.10445
#
# Static dielectric constant tensor:
#      x y z
#    x 3.202020 0.000000 0.000000 
#    y 0.000000 3.201950 0.000000 
#    z 0.000000 0.000000 3.111810 
# 
# 
# High freq. dielectric constant tensor:
#      x y z
#    x 1.664190 0.000000 0.000000 
#    y 0.000000 1.664190 0.000000 
#    z 0.000000 0.000000 1.654560 
# 
# From -- ./inp_files/5709.got.cif
#   From: 2010.03.12/outbox.cif.g09.slc.cpg/sg129_3_cif.got.tgz:5709.got - 2010.04.06 17:19:44.
