data_PCOD8315542
_publ_section_title
;
Structure prediction by ZEFSAII (Michael W. Deem and Ramdas Pophale) SiO2 
 PCOD8315542
Probable space group: P 4/N C C
;
_chemical_formula_sum "Si O2"
_cell_formula_units_Z 116
_cell_length_a 17.176530
_cell_length_b 17.176530
_cell_length_c 18.576157
_cell_angle_alpha 90.000000
_cell_angle_beta 90.000000
_cell_angle_gamma 90.000000
_cell_volume 5480.582725
_symmetry_space_group_name_H-M "P 4/N C C"
_symmetry_group_IT_number 130
_symmetry_cell_setting 'tetragonal'
loop_
_space_group_symop_operation_xyz
x,y,z
1/2-y,x,z
1/2-x,1/2-y,z
y,1/2-x,z
1/2+x,-y,1/2-z
-x,1/2+y,1/2-z
1/2+y,1/2+x,1/2-z
-y,-x,1/2-z
-x,-y,-z
1/2+y,-x,-z
1/2+x,1/2+y,-z
-y,1/2+x,-z
1/2-x,y,1/2+z
x,1/2-y,1/2+z
1/2-y,1/2-x,1/2+z
y,x,1/2+z
loop_
_atom_site_type_symbol
_atom_site_label
_atom_site_fract_x
_atom_site_fract_y
_atom_site_fract_z
Si Si1 0.152539 0.450665 0.104683
Si Si2 0.474504 0.094941 0.762958
Si Si3 0.669293 0.129496 0.901834
Si Si4 0.750000 0.250000 0.000000
Si Si5 0.457137 0.181292 0.051085
Si Si6 0.917885 0.185806 0.664726
Si Si7 0.476398 0.848582 0.693475
Si Si8 0.204130 0.505322 0.389087
O O1 0.131297 0.441907 0.189116
O O2 0.143486 0.540613 0.076927
O O3 0.240322 0.421295 0.087125
O O4 0.095663 0.394486 0.061163
O O5 0.464182 0.157340 0.825501
O O6 0.562785 0.062785 0.750000
O O7 0.428720 0.021603 0.796959
O O8 0.729560 0.123524 0.834830
O O9 0.596070 0.182765 0.884840
O O10 0.722441 0.172141 0.960319
O O11 0.540549 0.168272 0.088338
O O12 0.467410 0.188608 0.965701
O O13 0.860044 0.114949 0.677572
O O14 0.981215 0.194176 0.728877
O O15 0.508949 0.794966 0.629460
#
# Coordination Sequence:
#
# PCOD8315542 Si02
#       8
#    16  16  16   4  16  16  16  16
#     4  11  24  45  72  95 139 182 239 284 358 411
#     4  12  23  47  70 102 136 186 235 291 337 434
#     4  11  23  41  65  99 144 183 224 277 343 435
#     4  12  24  44  60 106 152 184 216 274 360 420
#     4  11  25  44  67 105 132 185 232 301 351 417
#     4  10  21  41  68  96 139 182 228 279 346 424
#     4  11  23  43  69  98 135 184 233 288 345 422
#     4  12  27  40  70 105 140 179 234 293 353 409
#
# _framework density 21.165634000000001
#
# number of rings (size 3 to 8) (size 9 to 14) (size 15 to 20)
#    0.000    0.828    4.138    4.138    1.931    3.034 
#    0.000    1.379    0.000    0.414    0.000    0.000 
#    0.000    0.000    0.000    0.000    0.000    0.000 
#
# Total GULP energy -1437397.454727 kJ/mol
# GULP energy per Si atom -12391.357368 kJ/mol
# Density = 2.111746 g / cm^3
# Si number density = 21.165634 Si / 1000 Ang^3
#
#
#
# Elastic Constant Matrix: (Units=GPa)
#
#
# Indices 1 2 3 4 5 6 
#
# 1 91.2903 44.0476 43.3123 0.0000 0.0000 0.0000
# 2 44.0476 91.2903 43.3123 0.0000 0.0000 0.0000
# 3 43.3123 43.3123 144.0245 0.0000 0.0000 0.0000
# 4 0.0000 0.0000 0.0000 33.7843 0.0000 0.0000
# 5 0.0000 0.0000 0.0000 0.0000 33.7843 0.0000
# 6 0.0000 0.0000 0.0000 0.0000 0.0000 33.9921
#
#
#
# Elastic Compliance Matrix: (Units=1/GPa)
#
#
# Indices 1 2 3 4 5 6 
#
# 1 0.015159 -0.006009 -0.002752 0.000000 0.000000 0.000000
# 2 -0.006009 0.015159 -0.002752 0.000000 0.000000 0.000000
# 3 -0.002752 -0.002752 0.008598 0.000000 0.000000 0.000000
# 4 0.000000 0.000000 0.000000 0.029600 0.000000 0.000000
# 5 0.000000 0.000000 0.000000 0.000000 0.029600 0.000000
# 6 0.000000 0.000000 0.000000 0.000000 0.000000 0.029419
#
#
# Mechanical properties :
#
#
# Convention : Reuss Voigt Hill
#
# Bulk Modulus (GPa) = 62.92560 65.32772 64.12666
# Shear Modulus (GPa) = 32.08118 33.37436 32.72777
#
# Velocity S-wave (km/s) = 3.89745 3.97523 3.93653
# Velocity P-wave (km/s) = 7.07447 7.21123 7.14318
#
# Compressibility (1/GPa) = 0.01589178
#
# Stress axis : x y z
#
# Youngs Moduli (GPa) = 65.96856 65.96856 116.30202
#
# Poissons Ratio (x) = 0.39638 0.32003
# Poissons Ratio (y) = 0.39638 0.32003
# Poissons Ratio (z) = 0.18153 0.18153
#
# Static dielectric constant tensor:
#      x y z
#    x 3.876730 0.000000 0.000000 
#    y 0.000000 3.876730 0.000000 
#    z 0.000000 0.000000 4.065690 
# 
# 
# High freq. dielectric constant tensor:
#      x y z
#    x 1.823920 0.000000 0.000000 
#    y 0.000000 1.823920 0.000000 
#    z 0.000000 0.000000 1.836670 
# 
# From -- ./inp_files/3232.got.cif
#   From: 2010.03.12/outbox.cif.g09.slc.cpg/sg130_2_cif.got.tgz:3232.got - 2010.04.06 17:30:23.
