data_PCOD8315725
_publ_section_title
;
Structure prediction by ZEFSAII (Michael W. Deem and Ramdas Pophale) SiO2 
 PCOD8315725
Probable space group: P 42/M M C
;
_chemical_formula_sum "Si O2"
_cell_formula_units_Z 104
_cell_length_a 25.055896
_cell_length_b 25.055896
_cell_length_c 9.511305
_cell_angle_alpha 90.000000
_cell_angle_beta 90.000000
_cell_angle_gamma 90.000000
_cell_volume 5971.177537
_symmetry_space_group_name_H-M "P 42/M M C"
_symmetry_group_IT_number 131
_symmetry_cell_setting 'tetragonal'
loop_
_space_group_symop_operation_xyz
x,y,z
-x,-y,z
-y,x,1/2+z
y,-x,1/2+z
-x,y,-z
x,-y,-z
y,x,1/2-z
-y,-x,1/2-z
-x,-y,-z
x,y,-z
y,-x,1/2-z
-y,x,1/2-z
x,-y,z
-x,y,z
-y,-x,1/2+z
y,x,1/2+z
loop_
_atom_site_type_symbol
_atom_site_label
_atom_site_fract_x
_atom_site_fract_y
_atom_site_fract_z
Si Si1 0.500000 0.939561 0.167471
Si Si2 0.062158 0.785277 0.845000
Si Si3 0.591011 0.138277 0.160223
Si Si4 0.562075 0.640398 0.334437
Si Si5 0.437590 0.237531 0.661612
Si Si6 0.059643 0.686477 0.656083
Si Si7 0.938423 0.122986 0.345990
O O1 0.449957 0.905318 0.222382
O O2 0.500000 0.000000 0.230987
O O3 0.500000 0.944347 0.000000
O O4 0.071179 0.728220 0.777110
O O5 0.088904 0.829028 0.742589
O O6 0.000000 0.798718 0.858463
O O7 0.088638 0.786102 0.000000
O O8 0.593497 0.193632 0.246169
O O9 0.646621 0.108414 0.170036
O O10 0.576071 0.153165 0.000000
O O11 0.599747 0.599747 0.250000
O O12 0.571181 0.631556 0.500000
O O13 0.500000 0.629210 0.296528
O O14 0.576973 0.701653 0.293449
O O15 0.421595 0.228671 0.500000
O O16 0.500000 0.227974 0.684505
O O17 0.061163 0.712795 0.500000
O O18 0.000000 0.660754 0.676916
O O19 0.929583 0.070418 0.250000
O O20 0.911264 0.117262 0.500000
O O21 0.000000 0.133690 0.369088
#
# Coordination Sequence:
#
# PCOD8315725 Si02
#       7
#     8  16  16  16  16  16  16
#     4   9  16  26  41  65  99 133 166 209 256 295
#     4   9  17  30  48  68  90 119 157 199 241 288
#     4  10  18  28  46  71  96 128 172 213 247 292
#     4   9  19  35  54  78 106 135 165 198 243 296
#     4   9  18  33  50  68  97 135 169 203 246 295
#     4   9  17  29  45  67  95 125 159 204 257 304
#     4  10  20  33  50  72  98 127 156 188 229 280
#
# _framework density 17.417000999999999
#
# number of rings (size 3 to 8) (size 9 to 14) (size 15 to 20)
#    0.000    2.692    0.769    2.308    0.000    6.462 
#    0.000    3.077    0.000    2.769    0.000    2.154 
#    0.000    0.000    0.000    0.000    0.000    0.000 
#
# Total GULP energy -1288584.259245 kJ/mol
# GULP energy per Si atom -12390.233262 kJ/mol
# Density = 1.737736 g / cm^3
# Si number density = 17.417001 Si / 1000 Ang^3
#
#
#
# Elastic Constant Matrix: (Units=GPa)
#
#
# Indices 1 2 3 4 5 6 
#
# 1 78.2123 44.7775 52.5274 0.0000 0.0000 0.0000
# 2 44.7775 78.2163 52.5281 0.0000 0.0000 0.0000
# 3 52.5274 52.5281 125.3078 0.0000 0.0000 0.0000
# 4 0.0000 0.0000 0.0000 23.2192 0.0000 0.0000
# 5 0.0000 0.0000 0.0000 0.0000 23.2190 0.0000
# 6 0.0000 0.0000 0.0000 0.0000 0.0000 7.8406
#
#
#
# Elastic Compliance Matrix: (Units=1/GPa)
#
#
# Indices 1 2 3 4 5 6 
#
# 1 0.021287 -0.008621 -0.005309 0.000000 0.000000 0.000000
# 2 -0.008621 0.021286 -0.005309 0.000000 0.000000 0.000000
# 3 -0.005309 -0.005309 0.012432 0.000000 0.000000 0.000000
# 4 0.000000 0.000000 0.000000 0.043068 0.000000 0.000000
# 5 0.000000 0.000000 0.000000 0.000000 0.043068 0.000000
# 6 0.000000 0.000000 0.000000 0.000000 0.000000 0.127541
#
#
# Mechanical properties :
#
#
# Convention : Reuss Voigt Hill
#
# Bulk Modulus (GPa) = 60.51205 64.60027 62.55616
# Shear Modulus (GPa) = 15.99134 19.64931 17.82033
#
# Velocity S-wave (km/s) = 3.03338 3.36247 3.20215
# Velocity P-wave (km/s) = 6.86200 7.22812 7.04744
#
# Compressibility (1/GPa) = 0.01652563
#
# Stress axis : x y z
#
# Youngs Moduli (GPa) = 46.97696 46.97970 80.44036
#
# Poissons Ratio (x) = 0.40500 0.42710
# Poissons Ratio (y) = 0.40498 0.42707
# Poissons Ratio (z) = 0.24942 0.24942
#
# Static dielectric constant tensor:
#      x y z
#    x 3.105300 0.000000 0.000000 
#    y 0.000000 3.105290 0.000000 
#    z 0.000000 0.000000 3.420380 
# 
# 
# High freq. dielectric constant tensor:
#      x y z
#    x 1.655140 0.000000 0.000000 
#    y 0.000000 1.655140 0.000000 
#    z 0.000000 0.000000 1.674260 
# 
# From -- ./inp_files/2582.got.cif
#   From: 2010.03.12/outbox.cif.g09.slc.cpg/sg131_2_cif.got.tgz:2582.got - 2010.04.06 17:36:35.
