data_PCOD8315906
_publ_section_title
;
Structure prediction by ZEFSAII (Michael W. Deem and Ramdas Pophale) SiO2 
 PCOD8315906
Probable space group: P 42/M M C
;
_chemical_formula_sum "Si O2"
_cell_formula_units_Z 96
_cell_length_a 14.608487
_cell_length_b 14.608487
_cell_length_c 28.369979
_cell_angle_alpha 90.000000
_cell_angle_beta 90.000000
_cell_angle_gamma 90.000000
_cell_volume 6054.377427
_symmetry_space_group_name_H-M "P 42/M M C"
_symmetry_group_IT_number 131
_symmetry_cell_setting 'tetragonal'
loop_
_space_group_symop_operation_xyz
x,y,z
-x,-y,z
-y,x,1/2+z
y,-x,1/2+z
-x,y,-z
x,-y,-z
y,x,1/2-z
-y,-x,1/2-z
-x,-y,-z
x,y,-z
y,-x,1/2-z
-y,x,1/2-z
x,-y,z
-x,y,z
-y,-x,1/2+z
y,x,1/2+z
loop_
_atom_site_type_symbol
_atom_site_label
_atom_site_fract_x
_atom_site_fract_y
_atom_site_fract_z
Si Si1 0.896785 0.764266 0.693789
Si Si2 0.104707 0.732193 0.202192
Si Si3 0.768372 0.837802 0.444903
Si Si4 0.894853 0.687179 0.594473
Si Si5 0.108172 0.605046 0.880817
Si Si6 0.107145 0.500000 0.551731
Si Si7 0.896439 0.000000 0.443935
O O1 0.824569 0.844903 0.686189
O O2 0.876839 0.710161 0.742673
O O3 0.885591 0.694715 0.650715
O O4 0.000000 0.805628 0.694969
O O5 0.134597 0.644605 0.170969
O O6 0.000000 0.754410 0.192172
O O7 0.748319 0.848920 0.500000
O O8 0.821266 0.745051 0.434355
O O9 0.669840 0.843505 0.419452
O O10 0.839093 0.913663 0.425512
O O11 0.863018 0.586006 0.582289
O O12 0.000000 0.709382 0.578385
O O13 0.144054 0.500000 0.884716
O O14 0.000000 0.607347 0.889570
O O15 0.154475 0.500000 0.500000
O O16 0.000000 0.500000 0.543892
O O17 0.902900 0.000000 0.500000
O O18 0.000000 0.000000 0.422792
#
# Coordination Sequence:
#
# PCOD8315906 Si02
#       7
#    16  16  16  16  16   8   8
#     4   9  17  29  48  72  98 127 158 197 239 286
#     4   9  17  31  47  67  98 130 161 197 238 287
#     4  11  20  31  47  69  96 128 166 205 243 286
#     4  10  19  32  49  72  99 129 162 197 240 292
#     4  10  20  34  49  66  93 132 173 210 248 287
#     4   9  18  32  48  68  97 131 161 193 237 293
#     4   9  18  30  43  65  97 129 160 196 239 285
#
# _framework density 15.856296
#
# number of rings (size 3 to 8) (size 9 to 14) (size 15 to 20)
#    0.000    2.333    2.500    1.000    0.000    2.333 
#    1.500    2.500    0.000    0.000    0.000    0.583 
#    0.000    2.000    0.000    0.000    0.000    0.000 
#
# Total GULP energy -1189849.048839 kJ/mol
# GULP energy per Si atom -12394.260925 kJ/mol
# Density = 1.582021 g / cm^3
# Si number density = 15.856296 Si / 1000 Ang^3
#
#
#
# Elastic Constant Matrix: (Units=GPa)
#
#
# Indices 1 2 3 4 5 6 
#
# 1 99.3295 47.5995 45.3769 0.0000 0.0000 0.0000
# 2 47.5995 99.3295 45.3769 0.0000 0.0000 0.0000
# 3 45.3769 45.3769 97.1803 0.0000 0.0000 0.0000
# 4 0.0000 0.0000 0.0000 20.3853 0.0000 0.0000
# 5 0.0000 0.0000 0.0000 0.0000 20.3853 0.0000
# 6 0.0000 0.0000 0.0000 0.0000 0.0000 5.9594
#
#
#
# Elastic Compliance Matrix: (Units=1/GPa)
#
#
# Indices 1 2 3 4 5 6 
#
# 1 0.014448 -0.004883 -0.004466 0.000000 0.000000 0.000000
# 2 -0.004883 0.014448 -0.004466 0.000000 0.000000 0.000000
# 3 -0.004466 -0.004466 0.014461 0.000000 0.000000 0.000000
# 4 0.000000 0.000000 0.000000 0.049055 0.000000 0.000000
# 5 0.000000 0.000000 0.000000 0.000000 0.049055 0.000000
# 6 0.000000 0.000000 0.000000 0.000000 0.000000 0.167802
#
#
# Mechanical properties :
#
#
# Convention : Reuss Voigt Hill
#
# Bulk Modulus (GPa) = 63.58965 63.61623 63.60294
# Shear Modulus (GPa) = 14.61385 19.84507 17.22946
#
# Velocity S-wave (km/s) = 3.03915 3.54157 3.29994
# Velocity P-wave (km/s) = 7.24610 7.54528 7.39721
#
# Compressibility (1/GPa) = 0.01572583
#
# Stress axis : x y z
#
# Youngs Moduli (GPa) = 69.21444 69.21444 69.15228
#
# Poissons Ratio (x) = 0.33799 0.30884
# Poissons Ratio (y) = 0.33799 0.30884
# Poissons Ratio (z) = 0.30911 0.30911
#
# Static dielectric constant tensor:
#      x y z
#    x 3.000230 0.000000 0.000000 
#    y 0.000000 3.000230 0.000000 
#    z 0.000000 0.000000 3.171840 
# 
# 
# High freq. dielectric constant tensor:
#      x y z
#    x 1.582420 0.000000 0.000000 
#    y 0.000000 1.582420 0.000000 
#    z 0.000000 0.000000 1.625050 
# 
# From -- ./inp_files/12358.got.cif
#   From: 2010.03.12/outbox.cif.g09.slc.cpg/sg131_7_cif.got.tgz:12358.got - 2010.04.06 17:36:35.
