data_PCOD8315418
_publ_section_title
;
Structure prediction by ZEFSAII (Michael W. Deem and Ramdas Pophale) SiO2 
 PCOD8315418
Probable space group: P 4/N M M
;
_chemical_formula_sum "Si O2"
_cell_formula_units_Z 128
_cell_length_a 20.195339
_cell_length_b 20.195339
_cell_length_c 17.999551
_cell_angle_alpha 90.000000
_cell_angle_beta 90.000000
_cell_angle_gamma 90.000000
_cell_volume 7341.147786
_symmetry_space_group_name_H-M "P 4/N M M"
_symmetry_group_IT_number 129
_symmetry_cell_setting 'tetragonal'
loop_
_space_group_symop_operation_xyz
x,y,z
1/2-y,x,z
1/2-x,1/2-y,z
y,1/2-x,z
1/2+x,-y,-z
-x,1/2+y,-z
1/2+y,1/2+x,-z
-y,-x,-z
-x,-y,-z
1/2+y,-x,-z
1/2+x,1/2+y,-z
-y,1/2+x,-z
1/2-x,y,z
x,1/2-y,z
1/2-y,1/2-x,z
y,x,z
loop_
_atom_site_type_symbol
_atom_site_label
_atom_site_fract_x
_atom_site_fract_y
_atom_site_fract_z
Si Si1 0.559380 0.827056 0.011456
Si Si2 0.121230 0.544279 0.868285
Si Si3 0.490070 0.114840 0.132220
Si Si4 0.677689 0.326912 0.916815
Si Si5 0.432981 0.824731 0.581849
Si Si6 0.602103 0.001009 0.291478
Si Si7 0.388002 0.007867 0.294910
Si Si8 0.325717 0.932500 0.585216
O O1 0.581652 0.750000 0.021535
O O2 0.623644 0.876357 0.015686
O O3 0.505459 0.846377 0.073139
O O4 0.518698 0.832024 0.933653
O O5 0.151317 0.618591 0.863288
O O6 0.134825 0.510784 0.789047
O O7 0.044243 0.557834 0.886773
O O8 0.420182 0.079819 0.139291
O O9 0.503202 0.146974 0.213890
O O10 0.750000 0.360156 0.897825
O O11 0.688300 0.250000 0.910084
O O12 0.654531 0.345470 0.000000
O O13 0.408643 0.750000 0.589230
O O14 0.493834 0.836848 0.638614
O O15 0.369021 0.867784 0.602476
O O16 0.458653 0.839665 0.498329
O O17 0.543359 0.052455 0.302982
O O18 0.656038 0.009640 0.356651
O O19 0.573258 0.926743 0.296670
O O20 0.418098 0.081903 0.303218
O O21 0.250000 0.911732 0.596035
#
# Coordination Sequence:
#
# PCOD8315418 Si02
#       8
#    16  16  16  16  16  16  16  16
#     4  11  23  36  51  71  94 127 171 212 254 301
#     4  11  19  31  52  73  96 123 159 205 251 295
#     4   9  18  32  49  70  95 118 144 187 241 297
#     4   9  18  31  45  65  96 130 161 194 235 286
#     4   9  17  29  46  69  96 125 157 189 224 273
#     4   9  18  32  48  67  92 122 157 201 248 285
#     4   8  15  29  48  69  93 119 148 187 235 282
#     4   9  18  31  46  66  93 126 160 191 226 274
#
# _framework density 17.435964999999999
#
# number of rings (size 3 to 8) (size 9 to 14) (size 15 to 20)
#    0.000    2.625    0.000    3.750    0.000    4.875 
#    0.000    8.750    0.000    0.000    0.000    0.000 
#    0.000    0.500    0.000    2.750    0.000    0.250 
#
# Total GULP energy -1585830.415308 kJ/mol
# GULP energy per Si atom -12389.300120 kJ/mol
# Density = 1.739628 g / cm^3
# Si number density = 17.435965 Si / 1000 Ang^3
#
#
#
# Elastic Constant Matrix: (Units=GPa)
#
#
# Indices 1 2 3 4 5 6 
#
# 1 61.1201 48.6943 55.0087 0.0000 0.0000 0.0000
# 2 48.6943 61.1207 55.0092 0.0000 0.0000 0.0000
# 3 55.0087 55.0092 129.0211 0.0000 0.0000 0.0000
# 4 0.0000 0.0000 0.0000 22.6389 0.0000 0.0000
# 5 0.0000 0.0000 0.0000 0.0000 22.6392 0.0000
# 6 0.0000 0.0000 0.0000 0.0000 0.0000 22.0352
#
#
#
# Elastic Compliance Matrix: (Units=1/GPa)
#
#
# Indices 1 2 3 4 5 6 
#
# 1 0.048186 -0.032290 -0.006777 0.000000 0.000000 0.000000
# 2 -0.032290 0.048186 -0.006778 0.000000 0.000000 0.000000
# 3 -0.006777 -0.006778 0.013530 0.000000 0.000000 0.000000
# 4 0.000000 0.000000 0.000000 0.044172 0.000000 0.000000
# 5 0.000000 0.000000 0.000000 0.000000 0.044171 0.000000
# 6 0.000000 0.000000 0.000000 0.000000 0.000000 0.045382
#
#
# Mechanical properties :
#
#
# Convention : Reuss Voigt Hill
#
# Bulk Modulus (GPa) = 54.90720 63.18736 59.04728
# Shear Modulus (GPa) = 14.64615 19.63264 17.13940
#
# Velocity S-wave (km/s) = 2.90141 3.35921 3.13867
# Velocity P-wave (km/s) = 6.54090 7.16687 6.86103
#
# Compressibility (1/GPa) = 0.01821255
#
# Stress axis : x y z
#
# Youngs Moduli (GPa) = 20.75290 20.75298 73.91043
#
# Poissons Ratio (x) = 0.67011 0.50092
# Poissons Ratio (y) = 0.67010 0.50093
# Poissons Ratio (z) = 0.14065 0.14066
#
# Static dielectric constant tensor:
#      x y z
#    x 3.144050 0.000000 0.000000 
#    y 0.000000 3.144050 0.000000 
#    z 0.000000 0.000000 3.669850 
# 
# 
# High freq. dielectric constant tensor:
#      x y z
#    x 1.649050 0.000000 0.000000 
#    y 0.000000 1.649050 0.000000 
#    z 0.000000 0.000000 1.681540 
# 
# From -- ./inp_files/6127.got.cif
#   From: 2010.03.12/outbox.cif.g09.slc.cpg/sg129_4_cif.got.tgz:6127.got - 2010.04.06 17:19:44.
