data_PCOD8315480
_publ_section_title
;
Structure prediction by ZEFSAII (Michael W. Deem and Ramdas Pophale) SiO2 
 PCOD8315480
Probable space group: P 4/N C C
;
_chemical_formula_sum "Si O2"
_cell_formula_units_Z 80
_cell_length_a 15.159572
_cell_length_b 15.159572
_cell_length_c 17.913175
_cell_angle_alpha 90.000000
_cell_angle_beta 90.000000
_cell_angle_gamma 90.000000
_cell_volume 4116.673737
_symmetry_space_group_name_H-M "P 4/N C C"
_symmetry_group_IT_number 130
_symmetry_cell_setting 'tetragonal'
loop_
_space_group_symop_operation_xyz
x,y,z
1/2-y,x,z
1/2-x,1/2-y,z
y,1/2-x,z
1/2+x,-y,1/2-z
-x,1/2+y,1/2-z
1/2+y,1/2+x,1/2-z
-y,-x,1/2-z
-x,-y,-z
1/2+y,-x,-z
1/2+x,1/2+y,-z
-y,1/2+x,-z
1/2-x,y,1/2+z
x,1/2-y,1/2+z
1/2-y,1/2-x,1/2+z
y,x,1/2+z
loop_
_atom_site_type_symbol
_atom_site_label
_atom_site_fract_x
_atom_site_fract_y
_atom_site_fract_z
Si Si1 0.083405 0.824621 0.320648
Si Si2 0.186729 0.829641 0.589986
Si Si3 0.428737 0.682840 0.061025
Si Si4 0.881873 0.703667 0.603286
Si Si5 0.791532 0.614382 0.279237
O O1 0.130205 0.869796 0.250000
O O2 0.124186 0.725991 0.335032
O O3 0.103477 0.881939 0.394373
O O4 0.978137 0.819878 0.314982
O O5 0.250000 0.750000 0.563479
O O6 0.180625 0.901747 0.525227
O O7 0.093567 0.778210 0.601342
O O8 0.532705 0.668451 0.061210
O O9 0.860339 0.803178 0.578431
O O10 0.896966 0.702411 0.691205
O O11 0.858854 0.692127 0.304014
#
# Coordination Sequence:
#
# PCOD8315480 Si02
#       5
#    16  16  16  16  16
#     4  11  20  35  61  93 111 140 202 245 274 350
#     4  10  19  36  57  78 121 161 172 226 315 349
#     4  11  18  37  60  81 118 153 187 233 292 353
#     4   9  19  37  59  82 115 159 199 237 292 348
#     4   9  19  39  59  81 121 159 186 241 308 340
#
# _framework density 19.433166
#
# number of rings (size 3 to 8) (size 9 to 14) (size 15 to 20)
#    0.000    2.000    6.000    1.200    0.000    3.600 
#    3.600    3.000    0.000    2.400    0.000    0.000 
#    0.000    0.000    0.000    0.000    0.000    0.000 
#
# Total GULP energy -991326.679786 kJ/mol
# GULP energy per Si atom -12391.583497 kJ/mol
# Density = 1.938894 g / cm^3
# Si number density = 19.433166 Si / 1000 Ang^3
#
#
#
# Elastic Constant Matrix: (Units=GPa)
#
#
# Indices 1 2 3 4 5 6 
#
# 1 115.1364 39.4815 35.2054 0.0000 0.0000 0.0000
# 2 39.4815 115.1366 35.2051 0.0000 0.0000 0.0000
# 3 35.2054 35.2051 58.8592 0.0000 0.0000 0.0000
# 4 0.0000 0.0000 0.0000 27.2517 0.0000 0.0000
# 5 0.0000 0.0000 0.0000 0.0000 27.2517 0.0000
# 6 0.0000 0.0000 0.0000 0.0000 0.0000 14.4214
#
#
#
# Elastic Compliance Matrix: (Units=1/GPa)
#
#
# Indices 1 2 3 4 5 6 
#
# 1 0.011053 -0.002165 -0.005317 0.000000 0.000000 0.000000
# 2 -0.002165 0.011053 -0.005316 0.000000 0.000000 0.000000
# 3 -0.005317 -0.005316 0.023350 0.000000 0.000000 0.000000
# 4 0.000000 0.000000 0.000000 0.036695 0.000000 0.000000
# 5 0.000000 0.000000 0.000000 0.000000 0.036695 0.000000
# 6 0.000000 0.000000 0.000000 0.000000 0.000000 0.069341
#
#
# Mechanical properties :
#
#
# Convention : Reuss Voigt Hill
#
# Bulk Modulus (GPa) = 50.35051 56.54623 53.44837
# Shear Modulus (GPa) = 22.68573 25.73432 24.21002
#
# Velocity S-wave (km/s) = 3.42039 3.64297 3.53343
# Velocity P-wave (km/s) = 6.44706 6.84514 6.64908
#
# Compressibility (1/GPa) = 0.01986077
#
# Stress axis : x y z
#
# Youngs Moduli (GPa) = 90.47092 90.47143 42.82731
#
# Poissons Ratio (x) = 0.19584 0.22769
# Poissons Ratio (y) = 0.19584 0.22769
# Poissons Ratio (z) = 0.48099 0.48099
#
# Static dielectric constant tensor:
#      x y z
#    x 3.755300 0.000000 0.000000 
#    y 0.000000 3.755300 0.000000 
#    z 0.000000 0.000000 3.265170 
# 
# 
# High freq. dielectric constant tensor:
#      x y z
#    x 1.748780 0.000000 0.000000 
#    y 0.000000 1.748780 0.000000 
#    z 0.000000 0.000000 1.736520 
# 
# From -- ./inp_files/3636.got.cif
#   From: 2010.03.12/outbox.cif.g09.slc.cpg/sg130_2_cif.got.tgz:3636.got - 2010.04.06 17:30:23.
