data_PCOD8315579
_publ_section_title
;
Structure prediction by ZEFSAII (Michael W. Deem and Ramdas Pophale) SiO2 
 PCOD8315579
Probable space group: P 4/N C C
;
_chemical_formula_sum "Si O2"
_cell_formula_units_Z 64
_cell_length_a 11.777545
_cell_length_b 11.777545
_cell_length_c 22.216709
_cell_angle_alpha 90.000000
_cell_angle_beta 90.000000
_cell_angle_gamma 90.000000
_cell_volume 3081.692285
_symmetry_space_group_name_H-M "P 4/N C C"
_symmetry_group_IT_number 130
_symmetry_cell_setting 'tetragonal'
loop_
_space_group_symop_operation_xyz
x,y,z
1/2-y,x,z
1/2-x,1/2-y,z
y,1/2-x,z
1/2+x,-y,1/2-z
-x,1/2+y,1/2-z
1/2+y,1/2+x,1/2-z
-y,-x,1/2-z
-x,-y,-z
1/2+y,-x,-z
1/2+x,1/2+y,-z
-y,1/2+x,-z
1/2-x,y,1/2+z
x,1/2-y,1/2+z
1/2-y,1/2-x,1/2+z
y,x,1/2+z
loop_
_atom_site_type_symbol
_atom_site_label
_atom_site_fract_x
_atom_site_fract_y
_atom_site_fract_z
Si Si1 0.558227 0.124647 0.183643
Si Si2 0.748322 0.383162 0.588411
Si Si3 0.484494 0.645767 0.866573
Si Si4 0.723991 0.932244 0.991543
O O1 0.582397 0.082397 0.250000
O O2 0.659689 0.085994 0.140404
O O3 0.548354 0.261375 0.184022
O O4 0.440379 0.072785 0.161406
O O5 0.750000 0.250000 0.572055
O O6 0.872432 0.421403 0.611352
O O7 0.710187 0.452901 0.529651
O O8 0.537617 0.717812 0.921430
O O9 0.622915 0.845358 0.007087
#
# Coordination Sequence:
#
# PCOD8315579 Si02
#       4
#    16  16  16  16
#     4  11  26  44  68  96 130 181 223 279 328 400
#     4  10  25  40  66 102 134 173 217 277 341 395
#     4  11  24  43  69  95 135 174 228 270 337 396
#     4  11  23  42  67  97 137 175 222 272 330 398
#
# _framework density 20.767809
#
# number of rings (size 3 to 8) (size 9 to 14) (size 15 to 20)
#    0.000    1.250    2.500    1.500   10.500    6.000 
#    0.000    0.000    0.000    0.000    0.000    0.000 
#    0.000    0.000    0.000    0.000    0.000    0.000 
#
# Total GULP energy -793910.432923 kJ/mol
# GULP energy per Si atom -12404.850514 kJ/mol
# Density = 2.072054 g / cm^3
# Si number density = 20.767809 Si / 1000 Ang^3
#
#
#
# Elastic Constant Matrix: (Units=GPa)
#
#
# Indices 1 2 3 4 5 6 
#
# 1 98.1287 36.5875 57.2028 0.0000 0.0000 0.0000
# 2 36.5875 98.1287 57.2028 0.0000 0.0000 0.0000
# 3 57.2028 57.2028 137.0198 0.0000 0.0000 0.0000
# 4 0.0000 0.0000 0.0000 21.7213 0.0000 0.0000
# 5 0.0000 0.0000 0.0000 0.0000 21.7213 0.0000
# 6 0.0000 0.0000 0.0000 0.0000 0.0000 28.4213
#
#
#
# Elastic Compliance Matrix: (Units=1/GPa)
#
#
# Indices 1 2 3 4 5 6 
#
# 1 0.013875 -0.002374 -0.004801 0.000000 0.000000 0.000000
# 2 -0.002374 0.013875 -0.004801 0.000000 0.000000 0.000000
# 3 -0.004801 -0.004801 0.011307 0.000000 0.000000 0.000000
# 4 0.000000 0.000000 0.000000 0.046038 0.000000 0.000000
# 5 0.000000 0.000000 0.000000 0.000000 0.046038 0.000000
# 6 0.000000 0.000000 0.000000 0.000000 0.000000 0.035185
#
#
# Mechanical properties :
#
#
# Convention : Reuss Voigt Hill
#
# Bulk Modulus (GPa) = 66.21186 70.58482 68.39834
# Shear Modulus (GPa) = 25.60101 26.52505 26.06303
#
# Velocity S-wave (km/s) = 3.51483 3.57770 3.54640
# Velocity P-wave (km/s) = 6.95868 7.15038 7.05518
#
# Compressibility (1/GPa) = 0.01510304
#
# Stress axis : x y z
#
# Youngs Moduli (GPa) = 72.07322 72.07322 88.44123
#
# Poissons Ratio (x) = 0.17114 0.42462
# Poissons Ratio (y) = 0.17114 0.42462
# Poissons Ratio (z) = 0.34603 0.34603
#
# Static dielectric constant tensor:
#      x y z
#    x 3.915340 0.000000 0.000000 
#    y 0.000000 3.915340 0.000000 
#    z 0.000000 0.000000 3.556400 
# 
# 
# High freq. dielectric constant tensor:
#      x y z
#    x 1.822140 0.000000 0.000000 
#    y 0.000000 1.822140 0.000000 
#    z 0.000000 0.000000 1.802210 
# 
# From -- ./inp_files/3494.got.cif
#   From: 2010.03.12/outbox.cif.g09.slc.cpg/sg130_2_cif.got.tgz:3494.got - 2010.04.06 17:30:23.
