data_PCOD8315162
_publ_section_title
;
Structure prediction by ZEFSAII (Michael W. Deem and Ramdas Pophale) SiO2 
 PCOD8315162
Probable space group: P 4/N M M
;
_chemical_formula_sum "Si O2"
_cell_formula_units_Z 96
_cell_length_a 19.830034
_cell_length_b 19.830034
_cell_length_c 12.706188
_cell_angle_alpha 90.000000
_cell_angle_beta 90.000000
_cell_angle_gamma 90.000000
_cell_volume 4996.457464
_symmetry_space_group_name_H-M "P 4/N M M"
_symmetry_group_IT_number 129
_symmetry_cell_setting 'tetragonal'
loop_
_space_group_symop_operation_xyz
x,y,z
1/2-y,x,z
1/2-x,1/2-y,z
y,1/2-x,z
1/2+x,-y,-z
-x,1/2+y,-z
1/2+y,1/2+x,-z
-y,-x,-z
-x,-y,-z
1/2+y,-x,-z
1/2+x,1/2+y,-z
-y,1/2+x,-z
1/2-x,y,z
x,1/2-y,z
1/2-y,1/2-x,z
y,x,z
loop_
_atom_site_type_symbol
_atom_site_label
_atom_site_fract_x
_atom_site_fract_y
_atom_site_fract_z
Si Si1 0.037362 0.828366 0.316405
Si Si2 0.827429 0.324751 0.225449
Si Si3 0.107191 0.999714 0.893441
Si Si4 0.638347 0.453269 0.889778
Si Si5 0.674591 0.565767 0.728836
Si Si6 0.828601 0.562615 0.489462
O O1 0.032782 0.750000 0.330657
O O2 0.116891 0.849292 0.309228
O O3 0.997163 0.847964 0.210930
O O4 0.998815 0.858592 0.418143
O O5 0.750000 0.336518 0.187620
O O6 0.834648 0.250000 0.276567
O O7 0.877754 0.331129 0.125458
O O8 0.071552 0.071552 0.911357
O O9 0.049608 0.942646 0.878603
O O10 0.154946 0.981350 0.993454
O O11 0.669519 0.500968 0.802162
O O12 0.750000 0.595674 0.736180
O O13 0.623697 0.623697 0.766905
O O14 0.659068 0.541614 0.610334
O O15 0.750000 0.577501 0.466705
O O16 0.869142 0.630859 0.462783
#
# Coordination Sequence:
#
# PCOD8315162 Si02
#       6
#    16  16  16  16  16  16
#     4   9  18  32  50  73 101 134 173 214 257 306
#     4   9  18  33  52  73  99 131 167 211 261 310
#     4  10  19  32  51  74 104 137 170 213 258 305
#     4  10  19  33  52  74 101 132 169 210 253 303
#     4  10  20  34  54  79 107 139 174 213 257 305
#     4   9  18  33  53  77 105 136 171 212 256 304
#
# _framework density 19.213612999999999
#
# number of rings (size 3 to 8) (size 9 to 14) (size 15 to 20)
#    0.000    2.500    0.000    3.000    0.000    1.667 
#    0.000   15.833    0.000   28.000    0.000    7.000 
#    0.000    4.000    0.000    0.000    0.000    0.000 
#
# Total GULP energy -1189655.343623 kJ/mol
# GULP energy per Si atom -12392.243163 kJ/mol
# Density = 1.916988 g / cm^3
# Si number density = 19.213613 Si / 1000 Ang^3
#
#
#
# Elastic Constant Matrix: (Units=GPa)
#
#
# Indices 1 2 3 4 5 6 
#
# 1 75.4462 50.5490 44.7735 0.0000 0.0000 0.0000
# 2 50.5490 75.4462 44.7735 0.0000 0.0000 0.0000
# 3 44.7735 44.7735 99.9916 0.0000 0.0000 0.0000
# 4 0.0000 0.0000 0.0000 24.3841 0.0000 0.0000
# 5 0.0000 0.0000 0.0000 0.0000 24.3841 0.0000
# 6 0.0000 0.0000 0.0000 0.0000 0.0000 25.6863
#
#
#
# Elastic Compliance Matrix: (Units=1/GPa)
#
#
# Indices 1 2 3 4 5 6 
#
# 1 0.025903 -0.014262 -0.005213 0.000000 0.000000 0.000000
# 2 -0.014262 0.025903 -0.005213 0.000000 0.000000 0.000000
# 3 -0.005213 -0.005213 0.014669 0.000000 0.000000 0.000000
# 4 0.000000 0.000000 0.000000 0.041010 0.000000 0.000000
# 5 0.000000 0.000000 0.000000 0.000000 0.041010 0.000000
# 6 0.000000 0.000000 0.000000 0.000000 0.000000 0.038931
#
#
# Mechanical properties :
#
#
# Convention : Reuss Voigt Hill
#
# Bulk Modulus (GPa) = 58.47544 59.00846 58.74195
# Shear Modulus (GPa) = 20.61826 22.27673 21.44750
#
# Velocity S-wave (km/s) = 3.27939 3.40873 3.34468
# Velocity P-wave (km/s) = 6.69624 6.80228 6.74947
#
# Compressibility (1/GPa) = 0.01710120
#
# Stress axis : x y z
#
# Youngs Moduli (GPa) = 38.60488 38.60488 68.17027
#
# Poissons Ratio (x) = 0.55058 0.35536
# Poissons Ratio (y) = 0.55058 0.35536
# Poissons Ratio (z) = 0.20124 0.20124
#
# Static dielectric constant tensor:
#      x y z
#    x 3.552460 0.000000 0.000000 
#    y 0.000000 3.552460 0.000000 
#    z 0.000000 0.000000 3.560290 
# 
# 
# High freq. dielectric constant tensor:
#      x y z
#    x 1.740340 0.000000 0.000000 
#    y 0.000000 1.740340 0.000000 
#    z 0.000000 0.000000 1.734690 
# 
# From -- ./inp_files/3814.got.cif
#   From: 2010.03.12/outbox.cif.g09.slc.cpg/sg129_2_cif.got.tgz:3814.got - 2010.04.06 17:19:44.
