data_PCOD8315563
_publ_section_title
;
Structure prediction by ZEFSAII (Michael W. Deem and Ramdas Pophale) SiO2 
 PCOD8315563
Probable space group: P 4/N C C
;
_chemical_formula_sum "Si O2"
_cell_formula_units_Z 116
_cell_length_a 18.291586
_cell_length_b 18.291586
_cell_length_c 16.583501
_cell_angle_alpha 90.000000
_cell_angle_beta 90.000000
_cell_angle_gamma 90.000000
_cell_volume 5548.542895
_symmetry_space_group_name_H-M "P 4/N C C"
_symmetry_group_IT_number 130
_symmetry_cell_setting 'tetragonal'
loop_
_space_group_symop_operation_xyz
x,y,z
1/2-y,x,z
1/2-x,1/2-y,z
y,1/2-x,z
1/2+x,-y,1/2-z
-x,1/2+y,1/2-z
1/2+y,1/2+x,1/2-z
-y,-x,1/2-z
-x,-y,-z
1/2+y,-x,-z
1/2+x,1/2+y,-z
-y,1/2+x,-z
1/2-x,y,1/2+z
x,1/2-y,1/2+z
1/2-y,1/2-x,1/2+z
y,x,1/2+z
loop_
_atom_site_type_symbol
_atom_site_label
_atom_site_fract_x
_atom_site_fract_y
_atom_site_fract_z
Si Si1 0.750000 0.250000 0.000000
Si Si2 0.530452 0.767189 0.479495
Si Si3 0.315046 0.964054 0.372957
Si Si4 0.881801 0.185289 0.098963
Si Si5 0.152718 0.182247 0.931406
Si Si6 0.284932 0.907211 0.743345
Si Si7 0.401039 0.340129 0.272369
Si Si8 0.804377 0.562660 0.317705
O O1 0.729063 0.181032 0.946544
O O2 0.511134 0.711142 0.551342
O O3 0.458331 0.804240 0.445049
O O4 0.581875 0.835171 0.512738
O O5 0.570577 0.719772 0.410294
O O6 0.370666 0.901620 0.400514
O O7 0.244689 0.925248 0.332389
O O8 0.356084 0.019094 0.310719
O O9 0.882211 0.215968 0.189709
O O10 0.230726 0.150040 0.953074
O O11 0.141786 0.162356 0.837955
O O12 0.344331 0.844331 0.750000
O O13 0.320978 0.978420 0.703191
O O14 0.380237 0.393480 0.197929
O O15 0.401789 0.257880 0.239429
#
# Coordination Sequence:
#
# PCOD8315563 Si02
#       8
#     4  16  16  16  16  16  16  16
#     4  12  20  36  70 100 128 184 222 276 340 392
#     4  11  24  41  62  98 143 163 218 276 340 386
#     4  11  22  41  68  94 133 181 216 275 329 397
#     4  11  23  39  64  99 135 174 222 276 333 395
#     4  11  21  38  67  93 118 172 215 265 327 400
#     4  10  22  42  66  96 132 173 230 271 325 391
#     4  11  21  43  66  92 130 167 229 270 331 396
#     4  10  24  39  63  96 129 172 212 289 325 392
#
# _framework density 20.906389999999998
#
# number of rings (size 3 to 8) (size 9 to 14) (size 15 to 20)
#    0.000    1.241    4.138    2.069    1.931    0.828 
#    0.000    4.828    0.000    0.000    0.000    0.000 
#    0.000    0.000    0.000    0.000    0.000    0.000 
#
# Total GULP energy -1437681.112443 kJ/mol
# GULP energy per Si atom -12393.802693 kJ/mol
# Density = 2.085881 g / cm^3
# Si number density = 20.906390 Si / 1000 Ang^3
#
#
#
# Elastic Constant Matrix: (Units=GPa)
#
#
# Indices 1 2 3 4 5 6 
#
# 1 95.5733 50.9135 40.7792 0.0000 0.0000 0.0000
# 2 50.9135 95.5733 40.7792 0.0000 0.0000 0.0000
# 3 40.7792 40.7792 109.7061 0.0000 0.0000 0.0000
# 4 0.0000 0.0000 0.0000 38.3483 0.0000 0.0000
# 5 0.0000 0.0000 0.0000 0.0000 38.3483 0.0000
# 6 0.0000 0.0000 0.0000 0.0000 0.0000 23.0762
#
#
#
# Elastic Compliance Matrix: (Units=1/GPa)
#
#
# Indices 1 2 3 4 5 6 
#
# 1 0.015500 -0.006892 -0.003200 0.000000 0.000000 0.000000
# 2 -0.006892 0.015500 -0.003200 0.000000 0.000000 0.000000
# 3 -0.003200 -0.003200 0.011494 0.000000 0.000000 0.000000
# 4 0.000000 0.000000 0.000000 0.026077 0.000000 0.000000
# 5 0.000000 0.000000 0.000000 0.000000 0.026077 0.000000
# 6 0.000000 0.000000 0.000000 0.000000 0.000000 0.043335
#
#
# Mechanical properties :
#
#
# Convention : Reuss Voigt Hill
#
# Bulk Modulus (GPa) = 62.84875 62.86627 62.85751
# Shear Modulus (GPa) = 29.43464 31.17995 30.30729
#
# Velocity S-wave (km/s) = 3.75630 3.86606 3.81158
# Velocity P-wave (km/s) = 6.99574 7.07561 7.03579
#
# Compressibility (1/GPa) = 0.01591122
#
# Stress axis : x y z
#
# Youngs Moduli (GPa) = 64.51712 64.51712 87.00179
#
# Poissons Ratio (x) = 0.44463 0.27838
# Poissons Ratio (y) = 0.44463 0.27838
# Poissons Ratio (z) = 0.20644 0.20644
#
# Static dielectric constant tensor:
#      x y z
#    x 3.862040 0.000000 0.000000 
#    y 0.000000 3.862040 0.000000 
#    z 0.000000 0.000000 4.027310 
# 
# 
# High freq. dielectric constant tensor:
#      x y z
#    x 1.811000 0.000000 0.000000 
#    y 0.000000 1.811000 0.000000 
#    z 0.000000 0.000000 1.832780 
# 
# From -- ./inp_files/3217.got.cif
#   From: 2010.03.12/outbox.cif.g09.slc.cpg/sg130_2_cif.got.tgz:3217.got - 2010.04.06 17:30:23.
