data_PCOD8315007
_publ_section_title
;
Structure prediction by ZEFSAII (Michael W. Deem and Ramdas Pophale) SiO2 
 PCOD8315007
Probable space group: P 4/N M M
;
_chemical_formula_sum "Si O2"
_cell_formula_units_Z 112
_cell_length_a 13.932843
_cell_length_b 13.932843
_cell_length_c 35.973912
_cell_angle_alpha 90.000000
_cell_angle_beta 90.000000
_cell_angle_gamma 90.000000
_cell_volume 6983.403796
_symmetry_space_group_name_H-M "P 4/N M M"
_symmetry_group_IT_number 129
_symmetry_cell_setting 'tetragonal'
loop_
_space_group_symop_operation_xyz
x,y,z
1/2-y,x,z
1/2-x,1/2-y,z
y,1/2-x,z
1/2+x,-y,-z
-x,1/2+y,-z
1/2+y,1/2+x,-z
-y,-x,-z
-x,-y,-z
1/2+y,-x,-z
1/2+x,1/2+y,-z
-y,1/2+x,-z
1/2-x,y,z
x,1/2-y,z
1/2-y,1/2-x,z
y,x,z
loop_
_atom_site_type_symbol
_atom_site_label
_atom_site_fract_x
_atom_site_fract_y
_atom_site_fract_z
Si Si1 0.363615 0.517192 0.109363
Si Si2 0.139196 0.516162 0.246172
Si Si3 0.643435 0.136044 0.040879
Si Si4 0.364226 0.521604 0.529997
Si Si5 0.361541 0.858367 0.601975
Si Si6 0.143507 0.863679 0.821193
Si Si7 0.640237 0.486015 0.670652
O O1 0.250000 0.499713 0.109531
O O2 0.413819 0.413819 0.111399
O O3 0.400374 0.570962 0.072333
O O4 0.398664 0.580396 0.144177
O O5 0.250000 0.490978 0.238677
O O6 0.101825 0.596298 0.217477
O O7 0.122940 0.556582 0.287955
O O8 0.082093 0.417908 0.239788
O O9 0.750000 0.093193 0.048358
O O10 0.650721 0.250000 0.042278
O O11 0.605022 0.105022 0.000000
O O12 0.402030 0.597971 0.500000
O O13 0.250000 0.504754 0.524757
O O14 0.419859 0.419859 0.526227
O O15 0.389308 0.567784 0.569693
O O16 0.250000 0.860218 0.609865
O O17 0.394220 0.750000 0.591025
O O18 0.409318 0.893740 0.640207
O O19 0.250000 0.908964 0.823975
O O20 0.151430 0.750000 0.822111
O O21 0.750000 0.513915 0.664784
O O22 0.583815 0.583815 0.664527
#
# Coordination Sequence:
#
# PCOD8315007 Si02
#       7
#    16  16  16  16  16  16  16
#     4  10  19  29  42  61  86 115 143 170 203 247
#     4   9  17  28  42  62  88 117 146 174 207 251
#     4   8  14  26  44  64  85 109 139 177 217 250
#     4  10  20  33  50  71  94 121 152 187 228 273
#     4   9  17  29  46  67  89 115 149 187 226 267
#     4   9  17  29  44  60  79 104 135 174 216 251
#     4   9  17  28  42  61  87 118 149 180 212 249
#
# _framework density 16.038024
#
# number of rings (size 3 to 8) (size 9 to 14) (size 15 to 20)
#    0.000    2.857    0.000    2.143    0.000    3.857 
#    0.000    4.286    0.000    2.571    0.000    2.000 
#    0.000   13.429    0.000   10.571    0.000    0.857 
#
# Total GULP energy -1388324.984238 kJ/mol
# GULP energy per Si atom -12395.758788 kJ/mol
# Density = 1.600152 g / cm^3
# Si number density = 16.038024 Si / 1000 Ang^3
#
#
#
# Elastic Constant Matrix: (Units=GPa)
#
#
# Indices 1 2 3 4 5 6 
#
# 1 69.5423 41.4695 51.9523 0.0000 0.0000 0.0000
# 2 41.4695 69.5415 51.9523 0.0000 0.0000 0.0000
# 3 51.9523 51.9523 132.0966 0.0000 0.0000 0.0000
# 4 0.0000 0.0000 0.0000 21.9692 0.0000 0.0000
# 5 0.0000 0.0000 0.0000 0.0000 21.9692 0.0000
# 6 0.0000 0.0000 0.0000 0.0000 0.0000 16.7891
#
#
#
# Elastic Compliance Matrix: (Units=1/GPa)
#
#
# Indices 1 2 3 4 5 6 
#
# 1 0.024939 -0.010683 -0.005607 0.000000 0.000000 0.000000
# 2 -0.010683 0.024939 -0.005607 0.000000 0.000000 0.000000
# 3 -0.005607 -0.005607 0.011980 0.000000 0.000000 0.000000
# 4 0.000000 0.000000 0.000000 0.045518 0.000000 0.000000
# 5 0.000000 0.000000 0.000000 0.000000 0.045518 0.000000
# 6 0.000000 0.000000 0.000000 0.000000 0.000000 0.059562
#
#
# Mechanical properties :
#
#
# Convention : Reuss Voigt Hill
#
# Bulk Modulus (GPa) = 55.35484 62.43650 58.89567
# Shear Modulus (GPa) = 19.06417 20.53260 19.79838
#
# Velocity S-wave (km/s) = 3.45147 3.58193 3.51731
# Velocity P-wave (km/s) = 7.10445 7.49145 7.30051
#
# Compressibility (1/GPa) = 0.01806527
#
# Stress axis : x y z
#
# Youngs Moduli (GPa) = 40.09810 40.09743 83.47028
#
# Poissons Ratio (x) = 0.42837 0.46798
# Poissons Ratio (y) = 0.42838 0.46800
# Poissons Ratio (z) = 0.22481 0.22482
#
# Static dielectric constant tensor:
#      x y z
#    x 2.883000 0.000000 0.000000 
#    y 0.000000 2.883000 0.000000 
#    z 0.000000 0.000000 3.387390 
# 
# 
# High freq. dielectric constant tensor:
#      x y z
#    x 1.592870 0.000000 0.000000 
#    y 0.000000 1.592870 0.000000 
#    z 0.000000 0.000000 1.636630 
# 
# From -- ./inp_files/7933.got.cif
#   From: 2010.03.12/outbox.cif.g09.slc.cpg/sg129_4_cif.got.tgz:7933.got - 2010.04.06 17:19:44.
