data_PCOD8315975
_publ_section_title
;
Structure prediction by ZEFSAII (Michael W. Deem and Ramdas Pophale) SiO2 
 PCOD8315975
Probable space group: P 42/M M C
;
_chemical_formula_sum "Si O2"
_cell_formula_units_Z 112
_cell_length_a 17.641109
_cell_length_b 17.641109
_cell_length_c 18.637616
_cell_angle_alpha 90.000000
_cell_angle_beta 90.000000
_cell_angle_gamma 90.000000
_cell_volume 5800.188745
_symmetry_space_group_name_H-M "P 42/M M C"
_symmetry_group_IT_number 131
_symmetry_cell_setting 'tetragonal'
loop_
_space_group_symop_operation_xyz
x,y,z
-x,-y,z
-y,x,1/2+z
y,-x,1/2+z
-x,y,-z
x,-y,-z
y,x,1/2-z
-y,-x,1/2-z
-x,-y,-z
x,y,-z
y,-x,1/2-z
-y,x,1/2-z
x,-y,z
-x,y,z
-y,-x,1/2+z
y,x,1/2+z
loop_
_atom_site_type_symbol
_atom_site_label
_atom_site_fract_x
_atom_site_fract_y
_atom_site_fract_z
Si Si1 0.298215 0.589502 0.725053
Si Si2 0.588491 0.085942 0.579858
Si Si3 0.331078 0.084912 0.138750
Si Si4 0.845736 0.332426 0.786325
Si Si5 0.833013 0.085922 0.081041
Si Si6 0.826766 0.087773 0.307066
Si Si7 0.776235 0.586780 0.421077
O O1 0.381191 0.618810 0.750000
O O2 0.290687 0.500000 0.742331
O O3 0.239028 0.640299 0.769656
O O4 0.285401 0.606388 0.640225
O O5 0.606781 0.117331 0.500000
O O6 0.500000 0.090293 0.595361
O O7 0.630484 0.134864 0.638372
O O8 0.617388 0.000000 0.585815
O O9 0.357897 0.100184 0.220514
O O10 0.240562 0.093354 0.131938
O O11 0.368057 0.145458 0.085992
O O12 0.356398 0.000000 0.116642
O O13 0.854389 0.242649 0.795480
O O14 0.898344 0.139469 0.113453
O O15 0.862747 0.000000 0.081102
O O16 0.813996 0.112089 0.000000
O O17 0.892533 0.107468 0.250000
O O18 0.801570 0.000000 0.299125
O O19 0.741233 0.604486 0.500000
O O20 0.799913 0.500000 0.413881
#
# Coordination Sequence:
#
# PCOD8315975 Si02
#       7
#    16  16  16  16  16  16  16
#     4  10  22  40  64  92 121 153 191 234 281 343
#     4   9  18  33  53  79 116 160 198 236 287 343
#     4  10  19  33  54  81 114 155 197 241 293 349
#     4  11  21  36  59  85 114 148 190 244 295 345
#     4  10  22  39  56  77 108 149 197 249 307 360
#     4  12  24  38  57  81 110 150 198 250 303 353
#     4   9  19  35  56  85 121 157 190 231 286 344
#
# _framework density 19.309716000000002
#
# number of rings (size 3 to 8) (size 9 to 14) (size 15 to 20)
#    0.000    1.857    1.429    3.429    2.000    3.714 
#    0.000    2.143    0.000    1.286    0.000    2.000 
#    0.000    0.000    0.000    0.000    0.000    0.000 
#
# Total GULP energy -1388533.766978 kJ/mol
# GULP energy per Si atom -12397.622919 kJ/mol
# Density = 1.926577 g / cm^3
# Si number density = 19.309716 Si / 1000 Ang^3
#
#
#
# Elastic Constant Matrix: (Units=GPa)
#
#
# Indices 1 2 3 4 5 6 
#
# 1 75.0362 45.7840 39.8451 0.0000 0.0000 0.0000
# 2 45.7840 75.0394 39.8460 0.0000 0.0000 0.0000
# 3 39.8451 39.8460 124.8094 0.0000 0.0000 0.0000
# 4 0.0000 0.0000 0.0000 28.0098 0.0000 0.0000
# 5 0.0000 0.0000 0.0000 0.0000 28.0099 0.0000
# 6 0.0000 0.0000 0.0000 0.0000 0.0000 25.1402
#
#
#
# Elastic Compliance Matrix: (Units=1/GPa)
#
#
# Indices 1 2 3 4 5 6 
#
# 1 0.022334 -0.011850 -0.003347 0.000000 0.000000 0.000000
# 2 -0.011850 0.022334 -0.003347 0.000000 0.000000 0.000000
# 3 -0.003347 -0.003347 0.010149 0.000000 0.000000 0.000000
# 4 0.000000 0.000000 0.000000 0.035702 0.000000 0.000000
# 5 0.000000 0.000000 0.000000 0.000000 0.035702 0.000000
# 6 0.000000 0.000000 0.000000 0.000000 0.000000 0.039777
#
#
# Mechanical properties :
#
#
# Convention : Reuss Voigt Hill
#
# Bulk Modulus (GPa) = 56.40316 58.42613 57.41464
# Shear Modulus (GPa) = 23.92398 26.19264 25.05831
#
# Velocity S-wave (km/s) = 3.52371 3.68700 3.60628
# Velocity P-wave (km/s) = 6.76967 6.96048 6.86574
#
# Compressibility (1/GPa) = 0.01772950
#
# Stress axis : x y z
#
# Youngs Moduli (GPa) = 44.77393 44.77578 98.52823
#
# Poissons Ratio (x) = 0.53058 0.32979
# Poissons Ratio (y) = 0.53055 0.32979
# Poissons Ratio (z) = 0.14987 0.14987
#
# Static dielectric constant tensor:
#      x y z
#    x 3.349280 0.000000 0.000000 
#    y 0.000000 3.349280 0.000000 
#    z 0.000000 0.000000 3.617920 
# 
# 
# High freq. dielectric constant tensor:
#      x y z
#    x 1.733390 0.000000 0.000000 
#    y 0.000000 1.733390 0.000000 
#    z 0.000000 0.000000 1.765290 
# 
# From -- ./inp_files/10061.got.cif
#   From: 2010.03.12/outbox.cif.g09.slc.cpg/sg131_6_cif.got.tgz:10061.got - 2010.04.06 17:36:35.
