data_PCOD8315618
_publ_section_title
;
Structure prediction by ZEFSAII (Michael W. Deem and Ramdas Pophale) SiO2 
 PCOD8315618
Probable space group: P 4/N C C
;
_chemical_formula_sum "Si O2"
_cell_formula_units_Z 80
_cell_length_a 11.123938
_cell_length_b 11.123938
_cell_length_c 33.257138
_cell_angle_alpha 90.000000
_cell_angle_beta 90.000000
_cell_angle_gamma 90.000000
_cell_volume 4115.304658
_symmetry_space_group_name_H-M "P 4/N C C"
_symmetry_group_IT_number 130
_symmetry_cell_setting 'tetragonal'
loop_
_space_group_symop_operation_xyz
x,y,z
1/2-y,x,z
1/2-x,1/2-y,z
y,1/2-x,z
1/2+x,-y,1/2-z
-x,1/2+y,1/2-z
1/2+y,1/2+x,1/2-z
-y,-x,1/2-z
-x,-y,-z
1/2+y,-x,-z
1/2+x,1/2+y,-z
-y,1/2+x,-z
1/2-x,y,1/2+z
x,1/2-y,1/2+z
1/2-y,1/2-x,1/2+z
y,x,1/2+z
loop_
_atom_site_type_symbol
_atom_site_label
_atom_site_fract_x
_atom_site_fract_y
_atom_site_fract_z
Si Si1 0.349208 0.849208 0.441816
Si Si2 0.055172 0.221018 0.294758
Si Si3 0.278982 0.444828 0.705242
Si Si4 0.048473 0.250000 0.000000
Si Si5 0.849139 0.150861 0.352967
O O1 0.250000 0.750000 0.437789
O O2 0.461882 0.782534 0.462832
O O3 0.391857 0.891857 0.397348
O O4 0.282534 0.961882 0.462832
O O5 0.150429 0.115404 0.300373
O O6 0.998015 0.212003 0.250000
O O7 0.957956 0.208778 0.328992
O O8 0.150429 0.384596 0.699627
O O9 0.291222 0.542044 0.671008
O O10 0.131688 0.131688 0.000000
O O11 0.750000 0.250000 0.358541
#
# Coordination Sequence:
#
# PCOD8315618 Si02
#       5
#    16  16  16  16  16
#     4  11  23  42  63  89 129 162 197 258 311 366
#     4   9  20  40  62  85 121 167 208 252 303 356
#     4   9  20  40  62  85 121 167 208 252 303 356
#     4  11  23  42  70  94 117 161 206 250 312 375
#     4  11  25  37  58  94 125 156 204 256 307 355
#
# _framework density 19.439630999999999
#
# number of rings (size 3 to 8) (size 9 to 14) (size 15 to 20)
#    0.000    1.800    2.000    2.400    2.800    4.800 
#    0.000    4.000    0.000    0.000    0.000    0.000 
#    0.000    0.000    0.000    0.000    0.000    0.000 
#
# Total GULP energy -991045.747523 kJ/mol
# GULP energy per Si atom -12388.071844 kJ/mol
# Density = 1.939539 g / cm^3
# Si number density = 19.439631 Si / 1000 Ang^3
#
#
#
# Elastic Constant Matrix: (Units=GPa)
#
#
# Indices 1 2 3 4 5 6 
#
# 1 89.1960 40.4337 68.8777 0.0000 0.0000 0.0000
# 2 40.4337 89.1960 68.8777 0.0000 0.0000 0.0000
# 3 68.8777 68.8777 183.7807 0.0000 0.0000 0.0000
# 4 0.0000 0.0000 0.0000 2.5246 0.0000 0.0000
# 5 0.0000 0.0000 0.0000 0.0000 2.5246 0.0000
# 6 0.0000 0.0000 0.0000 0.0000 0.0000 40.8856
#
#
#
# Elastic Compliance Matrix: (Units=1/GPa)
#
#
# Indices 1 2 3 4 5 6 
#
# 1 0.016664 -0.003844 -0.004805 0.000000 0.000000 0.000000
# 2 -0.003844 0.016664 -0.004805 0.000000 0.000000 0.000000
# 3 -0.004805 -0.004805 0.009043 0.000000 0.000000 0.000000
# 4 0.000000 0.000000 0.000000 0.396107 0.000000 0.000000
# 5 0.000000 0.000000 0.000000 0.000000 0.396107 0.000000
# 6 0.000000 0.000000 0.000000 0.000000 0.000000 0.024459
#
#
# Mechanical properties :
#
#
# Convention : Reuss Voigt Hill
#
# Bulk Modulus (GPa) = 64.66591 79.83900 72.25246
# Shear Modulus (GPa) = 5.61101 21.45251 13.53176
#
# Velocity S-wave (km/s) = 1.70078 3.32557 2.64122
# Velocity P-wave (km/s) = 6.09869 7.47698 6.82273
#
# Compressibility (1/GPa) = 0.01546410
#
# Stress axis : x y z
#
# Youngs Moduli (GPa) = 60.00971 60.00971 110.58534
#
# Poissons Ratio (x) = 0.23066 0.53134
# Poissons Ratio (y) = 0.23066 0.53134
# Poissons Ratio (z) = 0.28834 0.28834
#
# Static dielectric constant tensor:
#      x y z
#    x 3.635870 0.000000 0.000000 
#    y 0.000000 3.635870 0.000000 
#    z 0.000000 0.000000 4.132920 
# 
# 
# High freq. dielectric constant tensor:
#      x y z
#    x 1.765760 0.000000 0.000000 
#    y 0.000000 1.765760 0.000000 
#    z 0.000000 0.000000 1.759800 
# 
# From -- ./inp_files/4778.got.cif
#   From: 2010.03.12/outbox.cif.g09.slc.cpg/sg130_3_cif.got.tgz:4778.got - 2010.04.06 17:30:23.
