data_PCOD8315609
_publ_section_title
;
Structure prediction by ZEFSAII (Michael W. Deem and Ramdas Pophale) SiO2 
 PCOD8315609
Probable space group: P 4/N C C
;
_chemical_formula_sum "Si O2"
_cell_formula_units_Z 80
_cell_length_a 16.547853
_cell_length_b 16.547853
_cell_length_c 13.192431
_cell_angle_alpha 90.000000
_cell_angle_beta 90.000000
_cell_angle_gamma 90.000000
_cell_volume 3612.502363
_symmetry_space_group_name_H-M "P 4/N C C"
_symmetry_group_IT_number 130
_symmetry_cell_setting 'tetragonal'
loop_
_space_group_symop_operation_xyz
x,y,z
1/2-y,x,z
1/2-x,1/2-y,z
y,1/2-x,z
1/2+x,-y,1/2-z
-x,1/2+y,1/2-z
1/2+y,1/2+x,1/2-z
-y,-x,1/2-z
-x,-y,-z
1/2+y,-x,-z
1/2+x,1/2+y,-z
-y,1/2+x,-z
1/2-x,y,1/2+z
x,1/2-y,1/2+z
1/2-y,1/2-x,1/2+z
y,x,1/2+z
loop_
_atom_site_type_symbol
_atom_site_label
_atom_site_fract_x
_atom_site_fract_y
_atom_site_fract_z
Si Si1 0.166660 0.709566 0.362876
Si Si2 0.433198 0.343535 0.491636
Si Si3 0.319265 0.471105 0.382127
Si Si4 0.295211 0.371141 0.199893
Si Si5 0.634547 0.396518 0.946534
O O1 0.250000 0.750000 0.394790
O O2 0.170978 0.670978 0.250000
O O3 0.147875 0.638736 0.440907
O O4 0.103700 0.784042 0.376566
O O5 0.376476 0.410523 0.443003
O O6 0.462556 0.273516 0.416052
O O7 0.385069 0.299659 0.580798
O O8 0.510691 0.390383 0.537248
O O9 0.324357 0.448746 0.263553
O O10 0.347643 0.563335 0.391542
O O11 0.203497 0.351939 0.230725
#
# Coordination Sequence:
#
# PCOD8315609 Si02
#       5
#    16  16  16  16  16
#     4  11  22  42  70  98 133 191 238 272 336 417
#     4  12  25  44  73 102 140 183 231 288 357 414
#     4  12  25  46  72 102 141 184 231 290 353 416
#     4  11  24  43  72 102 135 184 238 281 338 419
#     4  12  24  48  67 104 146 176 230 299 346 415
#
# _framework density 22.145313000000002
#
# number of rings (size 3 to 8) (size 9 to 14) (size 15 to 20)
#    0.000    0.400    8.000    0.600    0.000    6.000 
#    3.600    0.000    0.000    0.000    0.000    0.000 
#    0.000    0.000    0.000    0.000    0.000    0.000 
#
# Total GULP energy -992039.901765 kJ/mol
# GULP energy per Si atom -12400.498772 kJ/mol
# Density = 2.209491 g / cm^3
# Si number density = 22.145313 Si / 1000 Ang^3
#
#
#
# Elastic Constant Matrix: (Units=GPa)
#
#
# Indices 1 2 3 4 5 6 
#
# 1 65.1562 21.0795 17.8013 0.0000 0.0000 0.0000
# 2 21.0795 65.1562 17.8013 0.0000 0.0000 0.0000
# 3 17.8013 17.8013 84.6884 0.0000 0.0000 0.0000
# 4 0.0000 0.0000 0.0000 25.1725 0.0000 0.0000
# 5 0.0000 0.0000 0.0000 0.0000 25.1725 0.0000
# 6 0.0000 0.0000 0.0000 0.0000 0.0000 38.3904
#
#
#
# Elastic Compliance Matrix: (Units=1/GPa)
#
#
# Indices 1 2 3 4 5 6 
#
# 1 0.017693 -0.004995 -0.002669 0.000000 0.000000 0.000000
# 2 -0.004995 0.017693 -0.002669 0.000000 0.000000 0.000000
# 3 -0.002669 -0.002669 0.012930 0.000000 0.000000 0.000000
# 4 0.000000 0.000000 0.000000 0.039726 0.000000 0.000000
# 5 0.000000 0.000000 0.000000 0.000000 0.039726 0.000000
# 6 0.000000 0.000000 0.000000 0.000000 0.000000 0.026048
#
#
# Mechanical properties :
#
#
# Convention : Reuss Voigt Hill
#
# Bulk Modulus (GPa) = 36.16664 36.48501 36.32582
# Shear Modulus (GPa) = 27.21854 28.30169 27.76012
#
# Velocity S-wave (km/s) = 3.50964 3.57879 3.54438
# Velocity P-wave (km/s) = 5.72629 5.79552 5.76101
#
# Compressibility (1/GPa) = 0.02764979
#
# Stress axis : x y z
#
# Youngs Moduli (GPa) = 56.51989 56.51989 77.33916
#
# Poissons Ratio (x) = 0.28231 0.20643
# Poissons Ratio (y) = 0.28231 0.20643
# Poissons Ratio (z) = 0.15086 0.15086
#
# Static dielectric constant tensor:
#      x y z
#    x 4.048910 0.000000 0.000000 
#    y 0.000000 4.048910 0.000000 
#    z 0.000000 0.000000 3.909860 
# 
# 
# High freq. dielectric constant tensor:
#      x y z
#    x 1.871860 0.000000 0.000000 
#    y 0.000000 1.871860 0.000000 
#    z 0.000000 0.000000 1.875050 
# 
# From -- ./inp_files/2321.got.cif
#   From: 2010.03.12/outbox.cif.g09.slc.cpg/sg130_2_cif.got.tgz:2321.got - 2010.04.06 17:30:23.
