data_PCOD8315684
_publ_section_title
;
Structure prediction by ZEFSAII (Michael W. Deem and Ramdas Pophale) SiO2 
 PCOD8315684
Probable space group: P 42/M M C
;
_chemical_formula_sum "Si O2"
_cell_formula_units_Z 72
_cell_length_a 19.769597
_cell_length_b 19.769597
_cell_length_c 10.562029
_cell_angle_alpha 90.000000
_cell_angle_beta 90.000000
_cell_angle_gamma 90.000000
_cell_volume 4128.031364
_symmetry_space_group_name_H-M "P 42/M M C"
_symmetry_group_IT_number 131
_symmetry_cell_setting 'tetragonal'
loop_
_space_group_symop_operation_xyz
x,y,z
-x,-y,z
-y,x,1/2+z
y,-x,1/2+z
-x,y,-z
x,-y,-z
y,x,1/2-z
-y,-x,1/2-z
-x,-y,-z
x,y,-z
y,-x,1/2-z
-y,x,1/2-z
x,-y,z
-x,y,z
-y,-x,1/2+z
y,x,1/2+z
loop_
_atom_site_type_symbol
_atom_site_label
_atom_site_fract_x
_atom_site_fract_y
_atom_site_fract_z
Si Si1 0.170064 0.000000 0.641268
Si Si2 0.136090 0.136090 0.250000
Si Si3 0.276547 0.000000 0.139169
Si Si4 0.370139 0.258826 0.246754
Si Si5 0.144712 0.284909 0.640952
Si Si6 0.576655 0.306050 0.500000
Si Si7 0.313974 0.575555 0.500000
O O1 0.128945 0.070060 0.660076
O O2 0.228390 0.000000 0.742439
O O3 0.200130 0.000000 0.500000
O O4 0.136008 0.205352 0.330193
O O5 0.319529 0.930190 0.147193
O O6 0.239441 0.000000 0.000000
O O7 0.323643 0.323643 0.250000
O O8 0.323733 0.191820 0.240482
O O9 0.412107 0.258322 0.377216
O O10 0.417237 0.265874 0.123252
O O11 0.176407 0.291986 0.500000
O O12 0.500000 0.332856 0.500000
O O13 0.624373 0.371716 0.500000
O O14 0.344858 0.500000 0.500000
#
# Coordination Sequence:
#
# PCOD8315684 Si02
#       7
#     8   8   8  16  16   8   8
#     4  10  20  35  47  74  97 141 189 225 267 319
#     4  10  20  31  50  70 108 138 173 226 270 314
#     4   8  18  32  49  73 107 135 172 217 278 327
#     4  10  19  32  52  78 105 137 174 212 253 298
#     4  10  17  31  51  75 100 137 172 219 266 307
#     4  10  22  37  52  79 113 139 165 203 249 301
#     4  10  20  35  56  81 105 137 177 205 233 295
#
# _framework density 17.441727
#
# number of rings (size 3 to 8) (size 9 to 14) (size 15 to 20)
#    0.000    2.222    2.222    1.333    0.000    1.333 
#    8.000    0.556    0.000    4.000    0.000    4.667 
#    0.000    0.000    0.000    0.000    0.000    0.000 
#
# Total GULP energy -891949.831467 kJ/mol
# GULP energy per Si atom -12388.192104 kJ/mol
# Density = 1.740203 g / cm^3
# Si number density = 17.441727 Si / 1000 Ang^3
#
#
#
# Elastic Constant Matrix: (Units=GPa)
#
#
# Indices 1 2 3 4 5 6 
#
# 1 76.7123 31.3268 38.4904 0.0000 0.0000 0.0000
# 2 31.3268 76.7123 38.4904 0.0000 0.0000 0.0000
# 3 38.4904 38.4904 144.4404 0.0000 0.0000 0.0000
# 4 0.0000 0.0000 0.0000 18.4748 0.0000 0.0000
# 5 0.0000 0.0000 0.0000 0.0000 18.4748 0.0000
# 6 0.0000 0.0000 0.0000 0.0000 0.0000 5.9248
#
#
#
# Elastic Compliance Matrix: (Units=1/GPa)
#
#
# Indices 1 2 3 4 5 6 
#
# 1 0.016729 -0.005304 -0.003045 0.000000 0.000000 0.000000
# 2 -0.005304 0.016729 -0.003045 0.000000 0.000000 0.000000
# 3 -0.003045 -0.003045 0.008546 0.000000 0.000000 0.000000
# 4 0.000000 0.000000 0.000000 0.054128 0.000000 0.000000
# 5 0.000000 0.000000 0.000000 0.000000 0.054128 0.000000
# 6 0.000000 0.000000 0.000000 0.000000 0.000000 0.168783
#
#
# Mechanical properties :
#
#
# Convention : Reuss Voigt Hill
#
# Bulk Modulus (GPa) = 52.03439 57.16447 54.59943
# Shear Modulus (GPa) = 14.35810 21.21203 17.78506
#
# Velocity S-wave (km/s) = 2.87227 3.49114 3.19671
# Velocity P-wave (km/s) = 6.39515 7.00689 6.70799
#
# Compressibility (1/GPa) = 0.01921806
#
# Stress axis : x y z
#
# Youngs Moduli (GPa) = 59.77511 59.77511 117.01486
#
# Poissons Ratio (x) = 0.31705 0.35626
# Poissons Ratio (y) = 0.31705 0.35626
# Poissons Ratio (z) = 0.18199 0.18199
#
# Static dielectric constant tensor:
#      x y z
#    x 3.180400 0.000000 0.000000 
#    y 0.000000 3.180400 0.000000 
#    z 0.000000 0.000000 3.511020 
# 
# 
# High freq. dielectric constant tensor:
#      x y z
#    x 1.650520 0.000000 0.000000 
#    y 0.000000 1.650520 0.000000 
#    z 0.000000 0.000000 1.690250 
# 
# From -- ./inp_files/1923.got.cif
#   From: 2010.03.12/outbox.cif.g09.slc.cpg/sg131_1_cif.got.tgz:1923.got - 2010.04.06 17:36:35.
