data_PCOD8315826
_publ_section_title
;
Structure prediction by ZEFSAII (Michael W. Deem and Ramdas Pophale) SiO2 
 PCOD8315826
Probable space group: P 42/M M C
;
_chemical_formula_sum "Si O2"
_cell_formula_units_Z 72
_cell_length_a 18.239914
_cell_length_b 18.239914
_cell_length_c 15.821593
_cell_angle_alpha 90.000000
_cell_angle_beta 90.000000
_cell_angle_gamma 90.000000
_cell_volume 5263.756383
_symmetry_space_group_name_H-M "P 42/M M C"
_symmetry_group_IT_number 131
_symmetry_cell_setting 'tetragonal'
loop_
_space_group_symop_operation_xyz
x,y,z
-x,-y,z
-y,x,1/2+z
y,-x,1/2+z
-x,y,-z
x,-y,-z
y,x,1/2-z
-y,-x,1/2-z
-x,-y,-z
x,y,-z
y,-x,1/2-z
-y,x,1/2-z
x,-y,z
-x,y,z
-y,-x,1/2+z
y,x,1/2+z
loop_
_atom_site_type_symbol
_atom_site_label
_atom_site_fract_x
_atom_site_fract_y
_atom_site_fract_z
Si Si1 0.417806 0.412923 0.500000
Si Si2 0.419764 0.912952 0.500000
Si Si3 0.082348 0.412149 0.819601
Si Si4 0.412910 0.828426 0.161894
Si Si5 0.412824 0.338928 0.830529
Si Si6 0.916382 0.412526 0.500000
O O1 0.500000 0.381715 0.500000
O O2 0.416813 0.500000 0.500000
O O3 0.378353 0.384351 0.584538
O O4 0.500000 0.875900 0.500000
O O5 0.380052 0.890786 0.411480
O O6 0.428870 0.000000 0.500000
O O7 0.084265 0.500000 0.823752
O O8 0.135372 0.381151 0.747265
O O9 0.000000 0.385761 0.798663
O O10 0.500000 0.833052 0.160929
O O11 0.386995 0.744728 0.159877
O O12 0.381984 0.873331 0.081806
O O13 0.375272 0.375272 0.750000
O O14 0.500000 0.346168 0.819544
O O15 0.916519 0.500000 0.500000
O O16 0.000000 0.383137 0.500000
#
# Coordination Sequence:
#
# PCOD8315826 Si02
#       6
#     8   8  16  16  16   8
#     4   9  17  29  44  56  62  74 104 148 194 238
#     4   7  10  16  27  42  59  81 105 121 133 159
#     4   8  12  19  31  46  64  85 106 126 153 193
#     4   9  16  24  34  50  70  88 106 133 172 217
#     4  10  19  30  42  54  68  87 114 151 195 238
#     4   9  15  23  37  56  75  93 111 133 170 221
#
# _framework density 13.678445
#
# number of rings (size 3 to 8) (size 9 to 14) (size 15 to 20)
#    0.000    3.222    0.000    3.333    0.000    6.444 
#    0.000    1.111    0.000    4.000    0.000    0.000 
#    0.000    0.000    0.000    0.000    0.000    0.000 
#
# Total GULP energy -892062.605635 kJ/mol
# GULP energy per Si atom -12389.758412 kJ/mol
# Density = 1.364731 g / cm^3
# Si number density = 13.678445 Si / 1000 Ang^3
#
#
#
# Elastic Constant Matrix: (Units=GPa)
#
#
# Indices 1 2 3 4 5 6 
#
# 1 58.9534 12.4532 46.2185 0.0000 0.0000 0.0000
# 2 12.4532 58.9534 46.2185 0.0000 0.0000 0.0000
# 3 46.2185 46.2185 167.0309 0.0000 0.0000 0.0000
# 4 0.0000 0.0000 0.0000 8.2241 0.0000 0.0000
# 5 0.0000 0.0000 0.0000 0.0000 8.2241 0.0000
# 6 0.0000 0.0000 0.0000 0.0000 0.0000 2.4366
#
#
#
# Elastic Compliance Matrix: (Units=1/GPa)
#
#
# Indices 1 2 3 4 5 6 
#
# 1 0.021663 0.000158 -0.006038 0.000000 0.000000 0.000000
# 2 0.000158 0.021663 -0.006038 0.000000 0.000000 0.000000
# 3 -0.006038 -0.006038 0.009328 0.000000 0.000000 0.000000
# 4 0.000000 0.000000 0.000000 0.121594 0.000000 0.000000
# 5 0.000000 0.000000 0.000000 0.000000 0.121594 0.000000
# 6 0.000000 0.000000 0.000000 0.000000 0.000000 0.410412
#
#
# Mechanical properties :
#
#
# Convention : Reuss Voigt Hill
#
# Bulk Modulus (GPa) = 34.70080 54.96865 44.83472
# Shear Modulus (GPa) = 6.75953 15.78012 11.26982
#
# Velocity S-wave (km/s) = 2.22541 3.40022 2.87350
# Velocity P-wave (km/s) = 5.65927 7.46250 6.62255
#
# Compressibility (1/GPa) = 0.02881778
#
# Stress axis : x y z
#
# Youngs Moduli (GPa) = 46.16200 46.16200 107.20032
#
# Poissons Ratio (x) = -0.00727 0.64726
# Poissons Ratio (y) = -0.00727 0.64726
# Poissons Ratio (z) = 0.27872 0.27872
#
# Static dielectric constant tensor:
#      x y z
#    x 2.378880 0.000000 0.000000 
#    y 0.000000 2.378880 0.000000 
#    z 0.000000 0.000000 3.182830 
# 
# 
# High freq. dielectric constant tensor:
#      x y z
#    x 1.466790 0.000000 0.000000 
#    y 0.000000 1.466790 0.000000 
#    z 0.000000 0.000000 1.553320 
# 
# From -- ./inp_files/7678.got.cif
#   From: 2010.03.12/outbox.cif.g09.slc.cpg/sg131_4_cif.got.tgz:7678.got - 2010.04.06 17:36:35.
