data_PCOD8315401
_publ_section_title
;
Structure prediction by ZEFSAII (Michael W. Deem and Ramdas Pophale) SiO2 
 PCOD8315401
Probable space group: P 4/N M M
;
_chemical_formula_sum "Si O2"
_cell_formula_units_Z 80
_cell_length_a 13.177224
_cell_length_b 13.177224
_cell_length_c 25.506649
_cell_angle_alpha 90.000000
_cell_angle_beta 90.000000
_cell_angle_gamma 90.000000
_cell_volume 4428.954952
_symmetry_space_group_name_H-M "P 4/N M M"
_symmetry_group_IT_number 129
_symmetry_cell_setting 'tetragonal'
loop_
_space_group_symop_operation_xyz
x,y,z
1/2-y,x,z
1/2-x,1/2-y,z
y,1/2-x,z
1/2+x,-y,-z
-x,1/2+y,-z
1/2+y,1/2+x,-z
-y,-x,-z
-x,-y,-z
1/2+y,-x,-z
1/2+x,1/2+y,-z
-y,1/2+x,-z
1/2-x,y,z
x,1/2-y,z
1/2-y,1/2-x,z
y,x,z
loop_
_atom_site_type_symbol
_atom_site_label
_atom_site_fract_x
_atom_site_fract_y
_atom_site_fract_z
Si Si1 0.132469 0.968754 0.339150
Si Si2 0.632033 0.034526 0.049388
Si Si3 0.867549 0.032861 0.245352
Si Si4 0.636012 0.471976 0.542731
Si Si5 0.965879 0.131873 0.147787
O O1 0.250000 0.986493 0.326101
O O2 0.085183 0.883191 0.301781
O O3 0.115358 0.930062 0.398667
O O4 0.076079 0.076079 0.329699
O O5 0.750000 0.006614 0.047682
O O6 0.608335 0.098307 0.101301
O O7 0.571098 0.928903 0.048596
O O8 0.603455 0.103455 0.000000
O O9 0.750000 0.009553 0.236488
O O10 0.908707 0.110574 0.202055
O O11 0.926030 0.926030 0.241304
O O12 0.615529 0.384472 0.500000
O O13 0.750000 0.510280 0.537616
O O14 0.568956 0.568956 0.529092
O O15 0.991641 0.250000 0.143308
O O16 0.072064 0.072064 0.144428
#
# Coordination Sequence:
#
# PCOD8315401 Si02
#       5
#    16  16  16  16  16
#     4   9  18  32  50  73  99 127 160 198 242 292
#     4  10  21  36  54  78 106 136 173 214 255 302
#     4  10  21  36  53  74 100 130 166 206 246 291
#     4   9  18  32  49  70  97 127 160 200 243 288
#     4  10  21  36  54  78 106 135 169 207 248 297
#
# _framework density 18.062953
#
# number of rings (size 3 to 8) (size 9 to 14) (size 15 to 20)
#    0.000    2.400    0.000    1.800    0.000    5.800 
#    0.000    4.000    0.000   10.800    0.000    5.600 
#    0.000    0.000    0.000    0.000    0.000    0.000 
#
# Total GULP energy -992147.833784 kJ/mol
# GULP energy per Si atom -12401.847922 kJ/mol
# Density = 1.802184 g / cm^3
# Si number density = 18.062953 Si / 1000 Ang^3
#
#
#
# Elastic Constant Matrix: (Units=GPa)
#
#
# Indices 1 2 3 4 5 6 
#
# 1 120.0685 48.2603 44.8882 0.0000 0.0000 0.0000
# 2 48.2603 120.0717 44.8883 0.0000 0.0000 0.0000
# 3 44.8882 44.8883 108.2992 0.0000 0.0000 0.0000
# 4 0.0000 0.0000 0.0000 20.3987 0.0000 0.0000
# 5 0.0000 0.0000 0.0000 0.0000 20.3986 0.0000
# 6 0.0000 0.0000 0.0000 0.0000 0.0000 10.9154
#
#
#
# Elastic Compliance Matrix: (Units=1/GPa)
#
#
# Indices 1 2 3 4 5 6 
#
# 1 0.010776 -0.003150 -0.003161 0.000000 0.000000 0.000000
# 2 -0.003150 0.010776 -0.003161 0.000000 0.000000 0.000000
# 3 -0.003161 -0.003161 0.011854 0.000000 0.000000 0.000000
# 4 0.000000 0.000000 0.000000 0.049023 0.000000 0.000000
# 5 0.000000 0.000000 0.000000 0.000000 0.049023 0.000000
# 6 0.000000 0.000000 0.000000 0.000000 0.000000 0.091614
#
#
# Mechanical properties :
#
#
# Convention : Reuss Voigt Hill
#
# Bulk Modulus (GPa) = 69.14222 69.39034 69.26628
# Shear Modulus (GPa) = 20.25680 24.36936 22.31308
#
# Velocity S-wave (km/s) = 3.35245 3.67704 3.51849
# Velocity P-wave (km/s) = 7.30389 7.51843 7.41193
#
# Compressibility (1/GPa) = 0.01446294
#
# Stress axis : x y z
#
# Youngs Moduli (GPa) = 92.79610 92.79892 84.35866
#
# Poissons Ratio (x) = 0.29227 0.26667
# Poissons Ratio (y) = 0.29226 0.26666
# Poissons Ratio (z) = 0.29335 0.29334
#
# Static dielectric constant tensor:
#      x y z
#    x 3.192590 0.000000 0.000000 
#    y 0.000000 3.192590 0.000000 
#    z 0.000000 0.000000 3.657900 
# 
# 
# High freq. dielectric constant tensor:
#      x y z
#    x 1.691270 0.000000 0.000000 
#    y 0.000000 1.691270 0.000000 
#    z 0.000000 0.000000 1.720930 
# 
# From -- ./inp_files/7688.got.cif
#   From: 2010.03.12/outbox.cif.g09.slc.cpg/sg129_4_cif.got.tgz:7688.got - 2010.04.06 17:19:44.
