data_PCOD8315981
_publ_section_title
;
Structure prediction by ZEFSAII (Michael W. Deem and Ramdas Pophale) SiO2 
 PCOD8315981
Probable space group: P 42/M M C
;
_chemical_formula_sum "Si O2"
_cell_formula_units_Z 80
_cell_length_a 14.399006
_cell_length_b 14.399006
_cell_length_c 19.861825
_cell_angle_alpha 90.000000
_cell_angle_beta 90.000000
_cell_angle_gamma 90.000000
_cell_volume 4117.979463
_symmetry_space_group_name_H-M "P 42/M M C"
_symmetry_group_IT_number 131
_symmetry_cell_setting 'tetragonal'
loop_
_space_group_symop_operation_xyz
x,y,z
-x,-y,z
-y,x,1/2+z
y,-x,1/2+z
-x,y,-z
x,-y,-z
y,x,1/2-z
-y,-x,1/2-z
-x,-y,-z
x,y,-z
y,-x,1/2-z
-y,x,1/2-z
x,-y,z
-x,y,z
-y,-x,1/2+z
y,x,1/2+z
loop_
_atom_site_type_symbol
_atom_site_label
_atom_site_fract_x
_atom_site_fract_y
_atom_site_fract_z
Si Si1 0.100642 0.143252 0.174286
Si Si2 0.723077 0.393434 0.577043
Si Si3 0.652023 0.102809 0.284015
Si Si4 0.102275 0.296530 0.630252
Si Si5 0.397017 0.301048 0.311644
O O1 0.105841 0.105841 0.250000
O O2 0.106065 0.253863 0.174114
O O3 0.184033 0.106211 0.127772
O O4 0.000000 0.111952 0.144710
O O5 0.690541 0.389900 0.500000
O O6 0.729484 0.500000 0.602639
O O7 0.823518 0.345037 0.582156
O O8 0.647432 0.337109 0.619460
O O9 0.670461 0.121803 0.205757
O O10 0.591942 0.188713 0.311866
O O11 0.605010 0.000000 0.293429
O O12 0.000000 0.327311 0.605835
O O13 0.332872 0.332872 0.250000
O O14 0.500000 0.343632 0.304899
#
# Coordination Sequence:
#
# PCOD8315981 Si02
#       5
#    16  16  16  16  16
#     4   9  15  26  48  81 121 156 187 229 285 346
#     4  11  25  44  62  82 115 158 201 247 300 355
#     4   9  17  32  58  90 121 152 188 235 291 346
#     4  10  19  33  56  86 120 156 196 238 286 347
#     4  12  23  39  64  91 120 152 194 248 302 352
#
# _framework density 19.427004
#
# number of rings (size 3 to 8) (size 9 to 14) (size 15 to 20)
#    0.000    1.800    4.000    3.000    0.000    4.400 
#    0.000    4.000    0.000    2.400    0.000    2.800 
#    0.000    0.000    0.000    0.000    0.000    0.000 
#
# Total GULP energy -991591.746270 kJ/mol
# GULP energy per Si atom -12394.896828 kJ/mol
# Density = 1.938279 g / cm^3
# Si number density = 19.427004 Si / 1000 Ang^3
#
#
#
# Elastic Constant Matrix: (Units=GPa)
#
#
# Indices 1 2 3 4 5 6 
#
# 1 123.9800 34.8581 31.1656 0.0000 0.0000 0.0000
# 2 34.8581 123.9800 31.1656 0.0000 0.0000 0.0000
# 3 31.1656 31.1656 58.7639 0.0000 0.0000 0.0000
# 4 0.0000 0.0000 0.0000 20.0948 0.0000 0.0000
# 5 0.0000 0.0000 0.0000 0.0000 20.0948 0.0000
# 6 0.0000 0.0000 0.0000 0.0000 0.0000 2.7998
#
#
#
# Elastic Compliance Matrix: (Units=1/GPa)
#
#
# Indices 1 2 3 4 5 6 
#
# 1 0.009585 -0.001635 -0.004216 0.000000 0.000000 0.000000
# 2 -0.001635 0.009585 -0.004216 0.000000 0.000000 0.000000
# 3 -0.004216 -0.004216 0.021490 0.000000 0.000000 0.000000
# 4 0.000000 0.000000 0.000000 0.049764 0.000000 0.000000
# 5 0.000000 0.000000 0.000000 0.000000 0.049764 0.000000
# 6 0.000000 0.000000 0.000000 0.000000 0.000000 0.357173
#
#
# Mechanical properties :
#
#
# Convention : Reuss Voigt Hill
#
# Bulk Modulus (GPa) = 48.72238 55.67806 52.20022
# Shear Modulus (GPa) = 9.53581 22.56687 16.05134
#
# Velocity S-wave (km/s) = 2.21792 3.41196 2.87755
# Velocity P-wave (km/s) = 5.62966 6.65164 6.16187
#
# Compressibility (1/GPa) = 0.02052445
#
# Stress axis : x y z
#
# Youngs Moduli (GPa) = 104.32460 104.32460 46.53392
#
# Poissons Ratio (x) = 0.17058 0.19621
# Poissons Ratio (y) = 0.17058 0.19621
# Poissons Ratio (z) = 0.43988 0.43988
#
# Static dielectric constant tensor:
#      x y z
#    x 3.676740 0.000000 0.000000 
#    y 0.000000 3.676740 0.000000 
#    z 0.000000 0.000000 2.998970 
# 
# 
# High freq. dielectric constant tensor:
#      x y z
#    x 1.766350 0.000000 0.000000 
#    y 0.000000 1.766350 0.000000 
#    z 0.000000 0.000000 1.694920 
# 
# From -- ./inp_files/9415.got.cif
#   From: 2010.03.12/outbox.cif.g09.slc.cpg/sg131_5_cif.got.tgz:9415.got - 2010.04.06 17:36:35.
