data_PCOD8315100
_publ_section_title
;
Structure prediction by ZEFSAII (Michael W. Deem and Ramdas Pophale) SiO2 
 PCOD8315100
Probable space group: P 4/N M M
;
_chemical_formula_sum "Si O2"
_cell_formula_units_Z 88
_cell_length_a 12.360049
_cell_length_b 12.360049
_cell_length_c 32.696360
_cell_angle_alpha 90.000000
_cell_angle_beta 90.000000
_cell_angle_gamma 90.000000
_cell_volume 4995.049443
_symmetry_space_group_name_H-M "P 4/N M M"
_symmetry_group_IT_number 129
_symmetry_cell_setting 'tetragonal'
loop_
_space_group_symop_operation_xyz
x,y,z
1/2-y,x,z
1/2-x,1/2-y,z
y,1/2-x,z
1/2+x,-y,-z
-x,1/2+y,-z
1/2+y,1/2+x,-z
-y,-x,-z
-x,-y,-z
1/2+y,-x,-z
1/2+x,1/2+y,-z
-y,1/2+x,-z
1/2-x,y,z
x,1/2-y,z
1/2-y,1/2-x,z
y,x,z
loop_
_atom_site_type_symbol
_atom_site_label
_atom_site_fract_x
_atom_site_fract_y
_atom_site_fract_z
Si Si1 0.750000 0.936315 0.291484
Si Si2 0.125684 0.625684 0.500000
Si Si3 0.041774 0.877029 0.085935
Si Si4 0.250000 0.875875 0.776536
Si Si5 0.125987 0.750000 0.358411
Si Si6 0.540803 0.127409 0.413385
Si Si7 0.955181 0.130379 0.167407
Si Si8 0.124807 0.624807 0.000000
O O1 0.642361 0.857640 0.291312
O O2 0.750000 0.023480 0.254728
O O3 0.750000 0.021473 0.328911
O O4 0.104604 0.750000 0.489806
O O5 0.060313 0.589709 0.539994
O O6 0.040172 0.750000 0.087395
O O7 0.123780 0.921650 0.119849
O O8 0.074527 0.923138 0.041441
O O9 0.921937 0.921937 0.095868
O O10 0.250000 0.750000 0.758757
O O11 0.353529 0.894441 0.804423
O O12 0.250000 0.750000 0.338688
O O13 0.113271 0.853304 0.386669
O O14 0.499445 0.250000 0.412159
O O15 0.447107 0.052894 0.394425
O O16 0.000239 0.250000 0.175365
O O17 0.048773 0.048773 0.180022
O O18 0.098920 0.750000 0.998130
#
# Coordination Sequence:
#
# PCOD8315100 Si02
#       8
#     8   8  16   8   8  16  16   8
#     4  11  23  38  58  84 115 143 172 220 278 331
#     4   9  15  28  48  72  98 132 180 224 262 312
#     4  10  19  31  47  69  98 133 173 217 262 313
#     4  10  20  37  60  83 107 141 177 216 259 319
#     4  10  20  37  56  79 103 141 187 224 261 315
#     4  10  19  31  50  74 102 137 177 223 270 315
#     4  10  20  34  54  78 106 137 173 216 262 312
#     4   9  17  28  46  68  91 123 170 220 265 311
#
# _framework density 17.617443000000002
#
# number of rings (size 3 to 8) (size 9 to 14) (size 15 to 20)
#    0.000    2.091    1.818    2.455    0.000    1.273 
#    0.000    0.000    0.000    0.000    0.000    2.545 
#    0.000   13.091    0.000    0.000    0.000    0.000 
#
# Total GULP energy -1090159.649992 kJ/mol
# GULP energy per Si atom -12388.177841 kJ/mol
# Density = 1.757734 g / cm^3
# Si number density = 17.617443 Si / 1000 Ang^3
#
#
#
# Elastic Constant Matrix: (Units=GPa)
#
#
# Indices 1 2 3 4 5 6 
#
# 1 100.5187 92.0514 48.6721 0.0000 0.0000 0.0000
# 2 92.0514 100.5187 48.6721 0.0000 0.0000 0.0000
# 3 48.6721 48.6721 83.0284 0.0000 0.0000 0.0000
# 4 0.0000 0.0000 0.0000 22.5890 0.0000 0.0000
# 5 0.0000 0.0000 0.0000 0.0000 22.5890 0.0000
# 6 0.0000 0.0000 0.0000 0.0000 0.0000 38.2238
#
#
#
# Elastic Compliance Matrix: (Units=1/GPa)
#
#
# Indices 1 2 3 4 5 6 
#
# 1 0.062741 -0.055361 -0.004326 0.000000 0.000000 0.000000
# 2 -0.055361 0.062741 -0.004326 0.000000 0.000000 0.000000
# 3 -0.004326 -0.004326 0.017116 0.000000 0.000000 0.000000
# 4 0.000000 0.000000 0.000000 0.044269 0.000000 0.000000
# 5 0.000000 0.000000 0.000000 0.000000 0.044269 0.000000
# 6 0.000000 0.000000 0.000000 0.000000 0.000000 0.026162
#
#
# Mechanical properties :
#
#
# Convention : Reuss Voigt Hill
#
# Bulk Modulus (GPa) = 68.62841 73.65075 71.13958
# Shear Modulus (GPa) = 12.81455 22.99170 17.90312
#
# Velocity S-wave (km/s) = 2.69992 3.61647 3.19127
# Velocity P-wave (km/s) = 6.98275 7.70291 7.35165
#
# Compressibility (1/GPa) = 0.01457123
#
# Stress axis : x y z
#
# Youngs Moduli (GPa) = 15.93860 15.93860 58.42473
#
# Poissons Ratio (x) = 0.88238 0.25275
# Poissons Ratio (y) = 0.88238 0.25275
# Poissons Ratio (z) = 0.06895 0.06895
#
# Static dielectric constant tensor:
#      x y z
#    x 3.281410 0.000000 0.000000 
#    y 0.000000 3.281410 0.000000 
#    z 0.000000 0.000000 3.308380 
# 
# 
# High freq. dielectric constant tensor:
#      x y z
#    x 1.681010 0.000000 0.000000 
#    y 0.000000 1.681010 0.000000 
#    z 0.000000 0.000000 1.680340 
# 
# From -- ./inp_files/7817.got.cif
#   From: 2010.03.12/outbox.cif.g09.slc.cpg/sg129_4_cif.got.tgz:7817.got - 2010.04.06 17:19:44.
