data_PCOD8315394
_publ_section_title
;
Structure prediction by ZEFSAII (Michael W. Deem and Ramdas Pophale) SiO2 
 PCOD8315394
Probable space group: P 4/N M M
;
_chemical_formula_sum "Si O2"
_cell_formula_units_Z 104
_cell_length_a 18.879457
_cell_length_b 18.879457
_cell_length_c 17.668530
_cell_angle_alpha 90.000000
_cell_angle_beta 90.000000
_cell_angle_gamma 90.000000
_cell_volume 6297.662995
_symmetry_space_group_name_H-M "P 4/N M M"
_symmetry_group_IT_number 129
_symmetry_cell_setting 'tetragonal'
loop_
_space_group_symop_operation_xyz
x,y,z
1/2-y,x,z
1/2-x,1/2-y,z
y,1/2-x,z
1/2+x,-y,-z
-x,1/2+y,-z
1/2+y,1/2+x,-z
-y,-x,-z
-x,-y,-z
1/2+y,-x,-z
1/2+x,1/2+y,-z
-y,1/2+x,-z
1/2-x,y,z
x,1/2-y,z
1/2-y,1/2-x,z
y,x,z
loop_
_atom_site_type_symbol
_atom_site_label
_atom_site_fract_x
_atom_site_fract_y
_atom_site_fract_z
Si Si1 0.923359 0.462931 0.742497
Si Si2 0.125977 0.484870 0.642430
Si Si3 0.948416 0.832759 0.640380
Si Si4 0.171464 0.946919 0.495335
Si Si5 0.824909 0.938145 0.198027
Si Si6 0.411491 0.668943 0.150936
Si Si7 0.669368 0.330633 0.000000
O O1 0.857439 0.511688 0.717423
O O2 0.894122 0.397440 0.793498
O O3 0.986854 0.513147 0.779067
O O4 0.954675 0.430024 0.665479
O O5 0.084905 0.415096 0.613849
O O6 0.174877 0.512058 0.575103
O O7 0.171979 0.466257 0.716192
O O8 0.930533 0.750000 0.646847
O O9 0.875027 0.875027 0.630832
O O10 0.997853 0.850639 0.569010
O O11 0.117923 0.882078 0.500000
O O12 0.250000 0.916725 0.478831
O O13 0.750000 0.898456 0.187989
O O14 0.886991 0.886991 0.174624
O O15 0.829134 0.004105 0.141152
O O16 0.386090 0.750000 0.176709
O O17 0.378676 0.648443 0.070793
O O18 0.750000 0.343429 0.974995
#
# Coordination Sequence:
#
# PCOD8315394 Si02
#       7
#    16  16  16  16  16  16   8
#     4   9  17  31  49  71  97 123 156 196 237 278
#     4   9  16  28  48  68  88 118 158 200 239 282
#     4  10  21  35  51  71  93 120 158 202 246 291
#     4  11  21  32  47  67  93 127 165 201 242 285
#     4   9  17  29  45  68  96 126 160 196 236 280
#     4   9  17  30  49  72  99 127 157 190 225 271
#     4   9  18  32  49  70  96 126 155 184 224 275
#
# _framework density 16.514061000000002
#
# number of rings (size 3 to 8) (size 9 to 14) (size 15 to 20)
#    0.000    2.538    1.538    2.308    0.000    2.308 
#    0.000    1.538    0.000    0.000    0.000    2.154 
#    0.000    0.000    0.000    4.615    0.000    0.000 
#
# Total GULP energy -1288370.232011 kJ/mol
# GULP energy per Si atom -12388.175308 kJ/mol
# Density = 1.647647 g / cm^3
# Si number density = 16.514061 Si / 1000 Ang^3
#
#
#
# Elastic Constant Matrix: (Units=GPa)
#
#
# Indices 1 2 3 4 5 6 
#
# 1 100.5284 63.2779 45.8742 0.0000 0.0000 0.0000
# 2 63.2779 100.5285 45.8742 0.0000 0.0000 0.0000
# 3 45.8742 45.8742 76.2329 0.0000 0.0000 0.0000
# 4 0.0000 0.0000 0.0000 21.1079 0.0000 0.0000
# 5 0.0000 0.0000 0.0000 0.0000 21.1077 0.0000
# 6 0.0000 0.0000 0.0000 0.0000 0.0000 19.6275
#
#
#
# Elastic Compliance Matrix: (Units=1/GPa)
#
#
# Indices 1 2 3 4 5 6 
#
# 1 0.018027 -0.008818 -0.005541 0.000000 0.000000 0.000000
# 2 -0.008818 0.018027 -0.005541 0.000000 0.000000 0.000000
# 3 -0.005541 -0.005541 0.019787 0.000000 0.000000 0.000000
# 4 0.000000 0.000000 0.000000 0.047376 0.000000 0.000000
# 5 0.000000 0.000000 0.000000 0.000000 0.047376 0.000000
# 6 0.000000 0.000000 0.000000 0.000000 0.000000 0.050949
#
#
# Mechanical properties :
#
#
# Convention : Reuss Voigt Hill
#
# Bulk Modulus (GPa) = 62.35003 65.26025 63.80514
# Shear Modulus (GPa) = 20.26840 20.51952 20.39396
#
# Velocity S-wave (km/s) = 3.50714 3.52880 3.51799
# Velocity P-wave (km/s) = 7.36463 7.49714 7.43118
#
# Compressibility (1/GPa) = 0.01603849
#
# Stress axis : x y z
#
# Youngs Moduli (GPa) = 55.47270 55.47283 50.53859
#
# Poissons Ratio (x) = 0.48918 0.28005
# Poissons Ratio (y) = 0.48918 0.28005
# Poissons Ratio (z) = 0.30739 0.30739
#
# Static dielectric constant tensor:
#      x y z
#    x 3.122290 0.000000 0.000000 
#    y 0.000000 3.122310 0.000000 
#    z 0.000000 0.000000 2.834440 
# 
# 
# High freq. dielectric constant tensor:
#      x y z
#    x 1.635230 0.000000 0.000000 
#    y 0.000000 1.635230 0.000000 
#    z 0.000000 0.000000 1.604160 
# 
# From -- ./inp_files/5823.got.cif
#   From: 2010.03.12/outbox.cif.g09.slc.cpg/sg129_3_cif.got.tgz:5823.got - 2010.04.06 17:19:44.
