data_PCOD8315642
_publ_section_title
;
Structure prediction by ZEFSAII (Michael W. Deem and Ramdas Pophale) SiO2 
 PCOD8315642
Probable space group: P 42/M M C
;
_chemical_formula_sum "Si O2"
_cell_formula_units_Z 112
_cell_length_a 27.676782
_cell_length_b 27.676782
_cell_length_c 9.129509
_cell_angle_alpha 90.000000
_cell_angle_beta 90.000000
_cell_angle_gamma 90.000000
_cell_volume 6993.242803
_symmetry_space_group_name_H-M "P 42/M M C"
_symmetry_group_IT_number 131
_symmetry_cell_setting 'tetragonal'
loop_
_space_group_symop_operation_xyz
x,y,z
-x,-y,z
-y,x,1/2+z
y,-x,1/2+z
-x,y,-z
x,-y,-z
y,x,1/2-z
-y,-x,1/2-z
-x,-y,-z
x,y,-z
y,-x,1/2-z
-y,x,1/2-z
x,-y,z
-x,y,z
-y,-x,1/2+z
y,x,1/2+z
loop_
_atom_site_type_symbol
_atom_site_label
_atom_site_fract_x
_atom_site_fract_y
_atom_site_fract_z
Si Si1 0.688715 0.878131 0.329232
Si Si2 0.222594 0.944468 0.330046
Si Si3 0.500000 0.227583 0.170513
Si Si4 0.126001 0.943461 0.168825
Si Si5 0.405974 0.877749 0.165504
Si Si6 0.766332 0.695964 0.170518
Si Si7 0.500000 0.872102 0.673815
Si Si8 0.396988 0.762926 0.838191
O O1 0.676968 0.883518 0.500000
O O2 0.733208 0.911177 0.280111
O O3 0.642608 0.897526 0.240687
O O4 0.701093 0.822715 0.290394
O O5 0.210244 0.936885 0.500000
O O6 0.176696 0.927101 0.237696
O O7 0.235941 0.000000 0.296310
O O8 0.500000 0.184224 0.286127
O O9 0.450717 0.259001 0.196982
O O10 0.500000 0.208423 0.000000
O O11 0.082328 0.917672 0.250000
O O12 0.117804 0.000000 0.191407
O O13 0.126069 0.928379 0.000000
O O14 0.452228 0.896824 0.256703
O O15 0.404803 0.820094 0.168508
O O16 0.408984 0.897513 0.000000
O O17 0.739442 0.739442 0.250000
O O18 0.746060 0.643868 0.224407
O O19 0.755959 0.699882 0.000000
O O20 0.500000 0.879079 0.500000
O O21 0.379654 0.746949 0.000000
#
# Coordination Sequence:
#
# PCOD8315642 Si02
#       8
#    16  16   8  16  16  16   8  16
#     4   9  18  31  46  66  88 112 147 185 219 260
#     4   9  18  34  54  73  95 121 147 180 222 265
#     4   8  14  24  38  56  78 105 137 175 219 264
#     4  10  21  36  54  76 100 124 150 180 215 259
#     4   9  16  26  40  59  84 113 143 177 219 264
#     4  10  19  29  40  56  82 114 147 181 214 251
#     4  10  16  22  36  58  85 113 140 176 219 262
#     4   8  14  25  39  55  77 105 138 174 212 254
#
# _framework density 16.015460000000001
#
# number of rings (size 3 to 8) (size 9 to 14) (size 15 to 20)
#    0.000    2.857    0.000    2.786    0.000    6.143 
#    0.000    2.143    0.000    0.000    0.000    0.500 
#    0.000    4.000    0.000    0.000    0.000    0.357 
#
# Total GULP energy -1388365.309827 kJ/mol
# GULP energy per Si atom -12396.118838 kJ/mol
# Density = 1.597901 g / cm^3
# Si number density = 16.015460 Si / 1000 Ang^3
#
#
#
# Elastic Constant Matrix: (Units=GPa)
#
#
# Indices 1 2 3 4 5 6 
#
# 1 73.0312 48.7730 50.1233 0.0000 0.0000 0.0000
# 2 48.7730 73.0183 50.1199 0.0000 0.0000 0.0000
# 3 50.1233 50.1199 104.1988 0.0000 0.0000 0.0000
# 4 0.0000 0.0000 0.0000 23.6280 0.0000 0.0000
# 5 0.0000 0.0000 0.0000 0.0000 23.6282 0.0000
# 6 0.0000 0.0000 0.0000 0.0000 0.0000 1.2608
#
#
#
# Elastic Compliance Matrix: (Units=1/GPa)
#
#
# Indices 1 2 3 4 5 6 
#
# 1 0.027410 -0.013822 -0.006537 0.000000 0.000000 0.000000
# 2 -0.013822 0.027415 -0.006538 0.000000 0.000000 0.000000
# 3 -0.006537 -0.006538 0.015886 0.000000 0.000000 0.000000
# 4 0.000000 0.000000 0.000000 0.042323 0.000000 0.000000
# 5 0.000000 0.000000 0.000000 0.000000 0.042322 0.000000
# 6 0.000000 0.000000 0.000000 0.000000 0.000000 0.793169
#
#
# Mechanical properties :
#
#
# Convention : Reuss Voigt Hill
#
# Bulk Modulus (GPa) = 59.10796 60.92009 60.01402
# Shear Modulus (GPa) = 4.96052 16.45219 10.70636
#
# Velocity S-wave (km/s) = 1.76183 3.20858 2.58834
# Velocity P-wave (km/s) = 6.41293 7.20052 6.81811
#
# Compressibility (1/GPa) = 0.01691819
#
# Stress axis : x y z
#
# Youngs Moduli (GPa) = 36.48330 36.47614 62.94722
#
# Poissons Ratio (x) = 0.50416 0.41148
# Poissons Ratio (y) = 0.50426 0.41155
# Poissons Ratio (z) = 0.23849 0.23848
#
# Static dielectric constant tensor:
#      x y z
#    x 2.994140 0.000000 0.000000 
#    y 0.000000 2.994140 0.000000 
#    z 0.000000 0.000000 3.130510 
# 
# 
# High freq. dielectric constant tensor:
#      x y z
#    x 1.591040 0.000000 0.000000 
#    y 0.000000 1.591040 0.000000 
#    z 0.000000 0.000000 1.625540 
# 
# From -- ./inp_files/2780.got.cif
#   From: 2010.03.12/outbox.cif.g09.slc.cpg/sg131_2_cif.got.tgz:2780.got - 2010.04.06 17:36:35.
