data_PCOD8315744
_publ_section_title
;
Structure prediction by ZEFSAII (Michael W. Deem and Ramdas Pophale) SiO2 
 PCOD8315744
Probable space group: P 42/M M C
;
_chemical_formula_sum "Si O2"
_cell_formula_units_Z 96
_cell_length_a 22.365459
_cell_length_b 22.365459
_cell_length_c 11.009119
_cell_angle_alpha 90.000000
_cell_angle_beta 90.000000
_cell_angle_gamma 90.000000
_cell_volume 5506.912768
_symmetry_space_group_name_H-M "P 42/M M C"
_symmetry_group_IT_number 131
_symmetry_cell_setting 'tetragonal'
loop_
_space_group_symop_operation_xyz
x,y,z
-x,-y,z
-y,x,1/2+z
y,-x,1/2+z
-x,y,-z
x,-y,-z
y,x,1/2-z
-y,-x,1/2-z
-x,-y,-z
x,y,-z
y,-x,1/2-z
-y,x,1/2-z
x,-y,z
-x,y,z
-y,-x,1/2+z
y,x,1/2+z
loop_
_atom_site_type_symbol
_atom_site_label
_atom_site_fract_x
_atom_site_fract_y
_atom_site_fract_z
Si Si1 0.112233 0.726774 0.636134
Si Si2 0.812745 0.435418 0.641113
Si Si3 0.931805 0.389525 0.260019
Si Si4 0.363138 0.069482 0.500000
Si Si5 0.768180 0.071160 0.500000
Si Si6 0.164048 0.069577 0.263423
Si Si7 0.243403 0.312123 0.354941
O O1 0.100543 0.704467 0.500000
O O2 0.074582 0.681892 0.721211
O O3 0.086926 0.793309 0.651341
O O4 0.183130 0.725964 0.661881
O O5 0.802936 0.439945 0.500000
O O6 0.794567 0.500000 0.700122
O O7 0.883639 0.424936 0.661255
O O8 0.771363 0.380706 0.685865
O O9 0.000000 0.409791 0.290142
O O10 0.914825 0.401771 0.118942
O O11 0.297834 0.101132 0.500000
O O12 0.347822 0.000000 0.500000
O O13 0.803231 0.094785 0.617188
O O14 0.766590 0.000000 0.500000
O O15 0.100041 0.100041 0.250000
O O16 0.150951 0.000000 0.268244
O O17 0.289795 0.289795 0.250000
O O18 0.264729 0.308022 0.500000
#
# Coordination Sequence:
#
# PCOD8315744 Si02
#       7
#    16  16  16   8   8  16  16
#     4  10  20  33  49  73  99 119 149 199 254 296
#     4   9  19  35  52  72 104 141 172 205 246 293
#     4  10  18  30  49  72  98 131 170 207 242 288
#     4   9  16  30  49  67  89 123 162 197 241 288
#     4   9  18  36  53  65  83 111 148 185 231 300
#     4  11  23  37  51  66  85 111 146 191 246 311
#     4   9  18  35  55  79 107 135 169 206 247 291
#
# _framework density 17.432635000000001
#
# number of rings (size 3 to 8) (size 9 to 14) (size 15 to 20)
#    0.000    2.333    1.667    2.500    1.167    2.833 
#    7.500    1.250    0.000    3.000    0.000    0.000 
#    0.000    0.333    0.000    4.167    0.000    0.000 
#
# Total GULP energy -1189446.229147 kJ/mol
# GULP energy per Si atom -12390.064887 kJ/mol
# Density = 1.739296 g / cm^3
# Si number density = 17.432635 Si / 1000 Ang^3
#
#
#
# Elastic Constant Matrix: (Units=GPa)
#
#
# Indices 1 2 3 4 5 6 
#
# 1 69.5861 27.0258 17.8965 0.0000 0.0000 0.0000
# 2 27.0258 69.5861 17.8965 0.0000 0.0000 0.0000
# 3 17.8965 17.8965 56.5388 0.0000 0.0000 0.0000
# 4 0.0000 0.0000 0.0000 15.4794 0.0000 0.0000
# 5 0.0000 0.0000 0.0000 0.0000 15.4794 0.0000
# 6 0.0000 0.0000 0.0000 0.0000 0.0000 10.0604
#
#
#
# Elastic Compliance Matrix: (Units=1/GPa)
#
#
# Indices 1 2 3 4 5 6 
#
# 1 0.017611 -0.005885 -0.003712 0.000000 0.000000 0.000000
# 2 -0.005885 0.017611 -0.003712 0.000000 0.000000 0.000000
# 3 -0.003712 -0.003712 0.020037 0.000000 0.000000 0.000000
# 4 0.000000 0.000000 0.000000 0.064602 0.000000 0.000000
# 5 0.000000 0.000000 0.000000 0.000000 0.064602 0.000000
# 6 0.000000 0.000000 0.000000 0.000000 0.000000 0.099400
#
#
# Mechanical properties :
#
#
# Convention : Reuss Voigt Hill
#
# Bulk Modulus (GPa) = 34.91402 35.70538 35.30970
# Shear Modulus (GPa) = 15.62374 17.06334 16.34354
#
# Velocity S-wave (km/s) = 2.99697 3.13200 3.06523
# Velocity P-wave (km/s) = 5.66102 5.79703 5.72943
#
# Compressibility (1/GPa) = 0.02864179
#
# Stress axis : x y z
#
# Youngs Moduli (GPa) = 56.78291 56.78291 49.90852
#
# Poissons Ratio (x) = 0.33418 0.18524
# Poissons Ratio (y) = 0.33418 0.18524
# Poissons Ratio (z) = 0.21076 0.21076
#
# Static dielectric constant tensor:
#      x y z
#    x 3.240440 0.000000 0.000000 
#    y 0.000000 3.240440 0.000000 
#    z 0.000000 0.000000 3.545860 
# 
# 
# High freq. dielectric constant tensor:
#      x y z
#    x 1.643330 0.000000 0.000000 
#    y 0.000000 1.643330 0.000000 
#    z 0.000000 0.000000 1.681020 
# 
# From -- ./inp_files/4347.got.cif
#   From: 2010.03.12/outbox.cif.g09.slc.cpg/sg131_3_cif.got.tgz:4347.got - 2010.04.06 17:36:35.
