data_PCOD8315558
_publ_section_title
;
Structure prediction by ZEFSAII (Michael W. Deem and Ramdas Pophale) SiO2 
 PCOD8315558
Probable space group: P 4/N C C
;
_chemical_formula_sum "Si O2"
_cell_formula_units_Z 88
_cell_length_a 11.938493
_cell_length_b 11.938493
_cell_length_c 28.980882
_cell_angle_alpha 90.000000
_cell_angle_beta 90.000000
_cell_angle_gamma 90.000000
_cell_volume 4130.575995
_symmetry_space_group_name_H-M "P 4/N C C"
_symmetry_group_IT_number 130
_symmetry_cell_setting 'tetragonal'
loop_
_space_group_symop_operation_xyz
x,y,z
1/2-y,x,z
1/2-x,1/2-y,z
y,1/2-x,z
1/2+x,-y,1/2-z
-x,1/2+y,1/2-z
1/2+y,1/2+x,1/2-z
-y,-x,1/2-z
-x,-y,-z
1/2+y,-x,-z
1/2+x,1/2+y,-z
-y,1/2+x,-z
1/2-x,y,1/2+z
x,1/2-y,1/2+z
1/2-y,1/2-x,1/2+z
y,x,1/2+z
loop_
_atom_site_type_symbol
_atom_site_label
_atom_site_fract_x
_atom_site_fract_y
_atom_site_fract_z
Si Si1 0.854004 0.389681 0.863587
Si Si2 0.892304 0.638696 0.985619
Si Si3 0.346545 0.405789 0.697273
Si Si4 0.533677 0.033677 0.250000
Si Si5 0.400963 0.856191 0.653443
Si Si6 0.525782 0.971450 0.073000
O O1 0.896079 0.502917 0.837771
O O2 0.903180 0.278077 0.839471
O O3 0.720339 0.388625 0.867214
O O4 0.914166 0.402271 0.912776
O O5 0.904465 0.768749 0.973174
O O6 0.987536 0.580726 0.955060
O O7 0.907452 0.612820 0.039863
O O8 0.215262 0.401984 0.690294
O O9 0.398468 0.444048 0.746781
O O10 0.582905 0.091620 0.295807
O O11 0.493950 0.896350 0.616557
#
# Coordination Sequence:
#
# PCOD8315558 Si02
#       6
#    16  16  16   8  16  16
#     4  11  22  42  63  92 132 170 220 267 330 390
#     4  10  22  39  65  93 122 163 210 264 335 401
#     4  11  24  42  64  91 126 171 224 275 319 378
#     4  12  24  41  62  95 130 174 224 270 324 375
#     4  11  25  39  64  96 129 177 219 271 330 390
#     4  11  21  41  63  92 129 163 212 272 324 398
#
# _framework density 21.304535000000001
#
# number of rings (size 3 to 8) (size 9 to 14) (size 15 to 20)
#    0.000    1.091    3.636    2.182    2.545    1.455 
#    0.000    1.818    0.000   10.909    0.000    0.000 
#    0.000    0.000    0.000    0.000    0.000    0.000 
#
# Total GULP energy -1090349.610294 kJ/mol
# GULP energy per Si atom -12390.336481 kJ/mol
# Density = 2.125604 g / cm^3
# Si number density = 21.304535 Si / 1000 Ang^3
#
#
#
# Elastic Constant Matrix: (Units=GPa)
#
#
# Indices 1 2 3 4 5 6 
#
# 1 97.1182 21.2561 21.9568 0.0000 0.0000 0.0000
# 2 21.2561 97.1182 21.9568 0.0000 0.0000 0.0000
# 3 21.9568 21.9568 78.9739 0.0000 0.0000 0.0000
# 4 0.0000 0.0000 0.0000 29.6905 0.0000 0.0000
# 5 0.0000 0.0000 0.0000 0.0000 29.6905 0.0000
# 6 0.0000 0.0000 0.0000 0.0000 0.0000 22.3280
#
#
#
# Elastic Compliance Matrix: (Units=1/GPa)
#
#
# Indices 1 2 3 4 5 6 
#
# 1 0.011301 -0.001881 -0.002619 0.000000 0.000000 0.000000
# 2 -0.001881 0.011301 -0.002619 0.000000 0.000000 0.000000
# 3 -0.002619 -0.002619 0.014119 0.000000 0.000000 0.000000
# 4 0.000000 0.000000 0.000000 0.033681 0.000000 0.000000
# 5 0.000000 0.000000 0.000000 0.000000 0.033681 0.000000
# 6 0.000000 0.000000 0.000000 0.000000 0.000000 0.044787
#
#
# Mechanical properties :
#
#
# Convention : Reuss Voigt Hill
#
# Bulk Modulus (GPa) = 44.48014 44.83886 44.65950
# Shear Modulus (GPa) = 29.30837 30.21120 29.75978
#
# Velocity S-wave (km/s) = 3.71305 3.76980 3.74153
# Velocity P-wave (km/s) = 6.26944 6.32779 6.29868
#
# Compressibility (1/GPa) = 0.02248195
#
# Stress axis : x y z
#
# Youngs Moduli (GPa) = 88.49125 88.49125 70.82856
#
# Poissons Ratio (x) = 0.16648 0.18549
# Poissons Ratio (y) = 0.16648 0.18549
# Poissons Ratio (z) = 0.23174 0.23174
#
# Static dielectric constant tensor:
#      x y z
#    x 4.001540 0.000000 0.000000 
#    y 0.000000 4.001540 0.000000 
#    z 0.000000 0.000000 3.744000 
# 
# 
# High freq. dielectric constant tensor:
#      x y z
#    x 1.846410 0.000000 0.000000 
#    y 0.000000 1.846410 0.000000 
#    z 0.000000 0.000000 1.819440 
# 
# From -- ./inp_files/4832.got.cif
#   From: 2010.03.12/outbox.cif.g09.slc.cpg/sg130_3_cif.got.tgz:4832.got - 2010.04.06 17:30:23.
