data_PCOD8315851
_publ_section_title
;
Structure prediction by ZEFSAII (Michael W. Deem and Ramdas Pophale) SiO2 
 PCOD8315851
Probable space group: P 42/M M C
;
_chemical_formula_sum "Si O2"
_cell_formula_units_Z 48
_cell_length_a 7.837066
_cell_length_b 7.837066
_cell_length_c 37.573800
_cell_angle_alpha 90.000000
_cell_angle_beta 90.000000
_cell_angle_gamma 90.000000
_cell_volume 2307.767898
_symmetry_space_group_name_H-M "P 42/M M C"
_symmetry_group_IT_number 131
_symmetry_cell_setting 'tetragonal'
loop_
_space_group_symop_operation_xyz
x,y,z
-x,-y,z
-y,x,1/2+z
y,-x,1/2+z
-x,y,-z
x,-y,-z
y,x,1/2-z
-y,-x,1/2-z
-x,-y,-z
x,y,-z
y,-x,1/2-z
-y,x,1/2-z
x,-y,z
-x,y,z
-y,-x,1/2+z
y,x,1/2+z
loop_
_atom_site_type_symbol
_atom_site_label
_atom_site_fract_x
_atom_site_fract_y
_atom_site_fract_z
Si Si1 0.000000 0.201616 0.335446
Si Si2 0.802536 0.690608 0.787012
Si Si3 0.688090 0.297196 0.540136
Si Si4 0.696890 0.000000 0.915788
O O1 0.169504 0.266251 0.314928
O O2 0.000000 0.285605 0.373738
O O3 0.000000 0.000000 0.339931
O O4 0.702589 0.702589 0.750000
O O5 0.774601 0.500000 0.802777
O O6 0.000000 0.727557 0.778795
O O7 0.733781 0.239866 0.500000
O O8 0.684554 0.500000 0.542475
O O9 0.500000 0.226633 0.550774
O O10 0.829761 0.219209 0.566978
O O11 0.500000 0.000000 0.926427
#
# Coordination Sequence:
#
# PCOD8315851 Si02
#       4
#     8  16  16   8
#     4  10  22  37  53  75 112 148 176 216 274 332
#     4  10  20  36  60  82 102 135 180 226 274 329
#     4   8  14  26  46  72 100 132 174 224 274 320
#     4  10  19  30  48  74 102 134 174 220 266 320
#
# _framework density 20.799320999999999
#
# number of rings (size 3 to 8) (size 9 to 14) (size 15 to 20)
#    0.000    2.667    1.667    1.500    0.000    5.000 
#    0.000    0.000    0.000    2.000    0.000    2.333 
#    0.000    0.000    0.000    0.000    0.000    0.000 
#
# Total GULP energy -595011.263716 kJ/mol
# GULP energy per Si atom -12396.067994 kJ/mol
# Density = 2.075198 g / cm^3
# Si number density = 20.799321 Si / 1000 Ang^3
#
#
#
# Elastic Constant Matrix: (Units=GPa)
#
#
# Indices 1 2 3 4 5 6 
#
# 1 98.5815 31.2209 54.8657 0.0000 0.0000 0.0000
# 2 31.2209 98.5815 54.8657 0.0000 0.0000 0.0000
# 3 54.8657 54.8657 144.3575 0.0000 0.0000 0.0000
# 4 0.0000 0.0000 0.0000 55.5235 0.0000 0.0000
# 5 0.0000 0.0000 0.0000 0.0000 55.5235 0.0000
# 6 0.0000 0.0000 0.0000 0.0000 0.0000 9.0443
#
#
#
# Elastic Compliance Matrix: (Units=1/GPa)
#
#
# Indices 1 2 3 4 5 6 
#
# 1 0.013098 -0.001747 -0.004314 0.000000 0.000000 0.000000
# 2 -0.001747 0.013098 -0.004314 0.000000 0.000000 0.000000
# 3 -0.004314 -0.004314 0.010207 0.000000 0.000000 0.000000
# 4 0.000000 0.000000 0.000000 0.018010 0.000000 0.000000
# 5 0.000000 0.000000 0.000000 0.000000 0.018010 0.000000
# 6 0.000000 0.000000 0.000000 0.000000 0.000000 0.110567
#
#
# Mechanical properties :
#
#
# Convention : Reuss Voigt Hill
#
# Bulk Modulus (GPa) = 63.88929 69.26944 66.57937
# Shear Modulus (GPa) = 23.92804 37.38948 30.65876
#
# Velocity S-wave (km/s) = 3.39547 4.24445 3.84347
# Velocity P-wave (km/s) = 6.79382 7.57604 7.19557
#
# Compressibility (1/GPa) = 0.01565208
#
# Stress axis : x y z
#
# Youngs Moduli (GPa) = 76.34577 76.34577 97.97556
#
# Poissons Ratio (x) = 0.13339 0.42269
# Poissons Ratio (y) = 0.13339 0.42269
# Poissons Ratio (z) = 0.32937 0.32937
#
# Static dielectric constant tensor:
#      x y z
#    x 3.803250 0.000000 0.000000 
#    y 0.000000 3.803250 0.000000 
#    z 0.000000 0.000000 3.559410 
# 
# 
# High freq. dielectric constant tensor:
#      x y z
#    x 1.802840 0.000000 0.000000 
#    y 0.000000 1.802840 0.000000 
#    z 0.000000 0.000000 1.795960 
# 
# From -- ./inp_files/12871.got.cif
#   From: 2010.03.12/outbox.cif.g09.slc.cpg/sg131_7_cif.got.tgz:12871.got - 2010.04.06 17:36:35.
