data_PCOD8315847
_publ_section_title
;
Structure prediction by ZEFSAII (Michael W. Deem and Ramdas Pophale) SiO2 
 PCOD8315847
Probable space group: P 42/M M C
;
_chemical_formula_sum "Si O2"
_cell_formula_units_Z 104
_cell_length_a 26.088640
_cell_length_b 26.088640
_cell_length_c 9.141422
_cell_angle_alpha 90.000000
_cell_angle_beta 90.000000
_cell_angle_gamma 90.000000
_cell_volume 6221.808470
_symmetry_space_group_name_H-M "P 42/M M C"
_symmetry_group_IT_number 131
_symmetry_cell_setting 'tetragonal'
loop_
_space_group_symop_operation_xyz
x,y,z
-x,-y,z
-y,x,1/2+z
y,-x,1/2+z
-x,y,-z
x,-y,-z
y,x,1/2-z
-y,-x,1/2-z
-x,-y,-z
x,y,-z
y,-x,1/2-z
-y,x,1/2-z
x,-y,z
-x,y,z
-y,-x,1/2+z
y,x,1/2+z
loop_
_atom_site_type_symbol
_atom_site_label
_atom_site_fract_x
_atom_site_fract_y
_atom_site_fract_z
Si Si1 0.253045 0.443571 0.174244
Si Si2 0.944362 0.269573 0.333064
Si Si3 0.072513 0.371028 0.834908
Si Si4 0.631705 0.557463 0.167818
Si Si5 0.651438 0.188197 0.332683
Si Si6 0.000000 0.559983 0.667845
Si Si7 0.756324 0.168250 0.827474
O O1 0.231880 0.500000 0.226706
O O2 0.310998 0.438067 0.230612
O O3 0.223382 0.393708 0.235921
O O4 0.250254 0.442517 0.000000
O O5 0.938030 0.288293 0.500000
O O6 0.948211 0.318347 0.230270
O O7 0.893042 0.237101 0.292893
O O8 0.000000 0.240032 0.314945
O O9 0.133039 0.374121 0.827546
O O10 0.050912 0.418378 0.743568
O O11 0.052381 0.374756 0.000000
O O12 0.595697 0.595697 0.250000
O O13 0.610814 0.500000 0.189566
O O14 0.631630 0.573472 0.000000
O O15 0.665881 0.203439 0.500000
O O16 0.702819 0.190527 0.235312
O O17 0.000000 0.500000 0.688734
O O18 0.000000 0.576759 0.500000
O O19 0.803790 0.196211 0.750000
O O20 0.757980 0.179324 0.000000
#
# Coordination Sequence:
#
# PCOD8315847 Si02
#       7
#    16  16  16  16  16   8  16
#     4   8  15  30  50  69  90 118 152 190 234 285
#     4   9  17  31  52  72  93 128 166 197 238 294
#     4  10  19  30  47  71  93 115 153 204 248 287
#     4   9  18  32  49  68  89 113 141 174 216 269
#     4   9  18  32  51  73  96 125 160 198 244 295
#     4  11  23  35  45  59  87 127 163 201 252 301
#     4  10  20  33  49  72 104 136 166 203 246 292
#
# _framework density 16.715396999999999
#
# number of rings (size 3 to 8) (size 9 to 14) (size 15 to 20)
#    0.000    2.692    0.769    2.077    0.000    3.538 
#    0.000    4.615    0.000    1.385    0.000    0.000 
#    0.000    0.308    0.000    3.846    0.000    0.000 
#
# Total GULP energy -1288640.778082 kJ/mol
# GULP energy per Si atom -12390.776712 kJ/mol
# Density = 1.667735 g / cm^3
# Si number density = 16.715397 Si / 1000 Ang^3
#
#
#
# Elastic Constant Matrix: (Units=GPa)
#
#
# Indices 1 2 3 4 5 6 
#
# 1 101.2179 60.5828 43.7326 0.0000 0.0000 0.0000
# 2 60.5828 101.2204 43.7330 0.0000 0.0000 0.0000
# 3 43.7326 43.7330 80.3571 0.0000 0.0000 0.0000
# 4 0.0000 0.0000 0.0000 22.9587 0.0000 0.0000
# 5 0.0000 0.0000 0.0000 0.0000 22.9586 0.0000
# 6 0.0000 0.0000 0.0000 0.0000 0.0000 22.2100
#
#
#
# Elastic Compliance Matrix: (Units=1/GPa)
#
#
# Indices 1 2 3 4 5 6 
#
# 1 0.016683 -0.007926 -0.004766 0.000000 0.000000 0.000000
# 2 -0.007926 0.016682 -0.004765 0.000000 0.000000 0.000000
# 3 -0.004766 -0.004765 0.017632 0.000000 0.000000 0.000000
# 4 0.000000 0.000000 0.000000 0.043556 0.000000 0.000000
# 5 0.000000 0.000000 0.000000 0.000000 0.043557 0.000000
# 6 0.000000 0.000000 0.000000 0.000000 0.000000 0.045025
#
#
# Mechanical properties :
#
#
# Convention : Reuss Voigt Hill
#
# Bulk Modulus (GPa) = 62.17990 64.32134 63.25062
# Shear Modulus (GPa) = 22.38043 22.60861 22.49452
#
# Velocity S-wave (km/s) = 3.66308 3.68171 3.67241
# Velocity P-wave (km/s) = 7.42771 7.52577 7.47690
#
# Compressibility (1/GPa) = 0.01608237
#
# Stress axis : x y z
#
# Youngs Moduli (GPa) = 59.94218 59.94387 56.71641
#
# Poissons Ratio (x) = 0.47511 0.27029
# Poissons Ratio (y) = 0.47510 0.27028
# Poissons Ratio (z) = 0.28566 0.28566
#
# Static dielectric constant tensor:
#      x y z
#    x 1.265200 0.000000 0.000000 
#    y 0.000000 1.263880 0.000000 
#    z 0.000000 0.000000 3.122420 
# 
# 
# High freq. dielectric constant tensor:
#      x y z
#    x 1.634910 0.000000 0.000000 
#    y 0.000000 1.634910 0.000000 
#    z 0.000000 0.000000 1.636910 
# 
# From -- ./inp_files/2575.got.cif
#   From: 2010.03.12/outbox.cif.g09.slc.cpg/sg131_2_cif.got.tgz:2575.got - 2010.04.06 17:36:35.
