data_PCOD8315269
_publ_section_title
;
Structure prediction by ZEFSAII (Michael W. Deem and Ramdas Pophale) SiO2 
 PCOD8315269
Probable space group: P 4/N M M
;
_chemical_formula_sum "Si O2"
_cell_formula_units_Z 112
_cell_length_a 18.145659
_cell_length_b 18.145659
_cell_length_c 21.718145
_cell_angle_alpha 90.000000
_cell_angle_beta 90.000000
_cell_angle_gamma 90.000000
_cell_volume 7151.023722
_symmetry_space_group_name_H-M "P 4/N M M"
_symmetry_group_IT_number 129
_symmetry_cell_setting 'tetragonal'
loop_
_space_group_symop_operation_xyz
x,y,z
1/2-y,x,z
1/2-x,1/2-y,z
y,1/2-x,z
1/2+x,-y,-z
-x,1/2+y,-z
1/2+y,1/2+x,-z
-y,-x,-z
-x,-y,-z
1/2+y,-x,-z
1/2+x,1/2+y,-z
-y,1/2+x,-z
1/2-x,y,z
x,1/2-y,z
1/2-y,1/2-x,z
y,x,z
loop_
_atom_site_type_symbol
_atom_site_label
_atom_site_fract_x
_atom_site_fract_y
_atom_site_fract_z
Si Si1 0.833088 0.406350 0.942802
Si Si2 0.166733 0.897858 0.438970
Si Si3 0.022383 0.595486 0.130897
Si Si4 0.552149 0.831901 0.016065
Si Si5 0.042794 0.163035 0.751630
Si Si6 0.048582 0.333424 0.502741
Si Si7 0.034234 0.663970 0.375062
O O1 0.750000 0.385959 0.920407
O O2 0.890939 0.401888 0.886434
O O3 0.853398 0.353398 0.000000
O O4 0.836365 0.489897 0.964759
O O5 0.149085 0.850916 0.500000
O O6 0.250000 0.879858 0.418295
O O7 0.112092 0.877850 0.383094
O O8 0.157680 0.984195 0.452952
O O9 0.987663 0.512338 0.133628
O O10 0.977394 0.641409 0.081212
O O11 0.013223 0.637141 0.195420
O O12 0.582501 0.750000 0.024570
O O13 0.618694 0.881307 0.991855
O O14 0.058984 0.250000 0.755495
O O15 0.120692 0.120692 0.757564
O O16 0.003528 0.140607 0.688290
O O17 0.077770 0.250000 0.505333
O O18 0.115735 0.384266 0.481826
O O19 0.020134 0.358468 0.569740
O O20 0.052026 0.750000 0.377600
#
# Coordination Sequence:
#
# PCOD8315269 Si02
#       7
#    16  16  16  16  16  16  16
#     4   9  17  29  45  64  85 110 141 175 211 252
#     4   9  17  28  44  66  88 111 141 175 210 251
#     4   9  17  30  46  62  83 112 144 176 210 249
#     4   9  16  26  42  64  88 113 140 171 208 250
#     4  10  20  33  48  65  86 113 144 176 208 244
#     4   9  17  28  42  62  86 111 141 176 213 253
#     4   9  18  30  43  62  87 113 142 173 206 247
#
# _framework density 15.662094
#
# number of rings (size 3 to 8) (size 9 to 14) (size 15 to 20)
#    0.000    2.857    0.000    2.571    0.000    7.000 
#    0.000    0.714    0.000    6.000    0.000    0.000 
#    0.000    0.000    0.000    0.000    0.000   36.286 
#
# Total GULP energy -1388527.541442 kJ/mol
# GULP energy per Si atom -12397.567334 kJ/mol
# Density = 1.562645 g / cm^3
# Si number density = 15.662094 Si / 1000 Ang^3
#
#
#
# Elastic Constant Matrix: (Units=GPa)
#
#
# Indices 1 2 3 4 5 6 
#
# 1 99.1907 57.8536 26.3535 0.0000 0.0000 0.0000
# 2 57.8536 99.1908 26.3531 0.0000 0.0000 0.0000
# 3 26.3535 26.3531 56.3940 0.0000 0.0000 0.0000
# 4 0.0000 0.0000 0.0000 17.2616 0.0000 0.0000
# 5 0.0000 0.0000 0.0000 0.0000 17.2616 0.0000
# 6 0.0000 0.0000 0.0000 0.0000 0.0000 22.4415
#
#
#
# Elastic Compliance Matrix: (Units=1/GPa)
#
#
# Indices 1 2 3 4 5 6 
#
# 1 0.015872 -0.008320 -0.003529 0.000000 0.000000 0.000000
# 2 -0.008320 0.015872 -0.003529 0.000000 0.000000 0.000000
# 3 -0.003529 -0.003529 0.021031 0.000000 0.000000 0.000000
# 4 0.000000 0.000000 0.000000 0.057932 0.000000 0.000000
# 5 0.000000 0.000000 0.000000 0.000000 0.057932 0.000000
# 6 0.000000 0.000000 0.000000 0.000000 0.000000 0.044560
#
#
# Mechanical properties :
#
#
# Convention : Reuss Voigt Hill
#
# Bulk Modulus (GPa) = 45.41666 52.87733 49.14699
# Shear Modulus (GPa) = 19.89705 21.00731 20.45218
#
# Velocity S-wave (km/s) = 3.56813 3.66633 3.61756
# Velocity P-wave (km/s) = 6.78499 7.19425 6.99262
#
# Compressibility (1/GPa) = 0.02201835
#
# Stress axis : x y z
#
# Youngs Moduli (GPa) = 63.00515 63.00554 47.54943
#
# Poissons Ratio (x) = 0.52418 0.16781
# Poissons Ratio (y) = 0.52418 0.16780
# Poissons Ratio (z) = 0.22236 0.22235
#
# Static dielectric constant tensor:
#      x y z
#    x 3.036790 0.000000 0.000000 
#    y 0.000000 3.036790 0.000000 
#    z 0.000000 0.000000 2.811700 
# 
# 
# High freq. dielectric constant tensor:
#      x y z
#    x 1.601250 0.000000 0.000000 
#    y 0.000000 1.601250 0.000000 
#    z 0.000000 0.000000 1.571630 
# 
# From -- ./inp_files/6658.got.cif
#   From: 2010.03.12/outbox.cif.g09.slc.cpg/sg129_4_cif.got.tgz:6658.got - 2010.04.06 17:19:44.
