data_PCOD8315881
_publ_section_title
;
Structure prediction by ZEFSAII (Michael W. Deem and Ramdas Pophale) SiO2 
 PCOD8315881
Probable space group: P 42/M M C
;
_chemical_formula_sum "Si O2"
_cell_formula_units_Z 80
_cell_length_a 14.484422
_cell_length_b 14.484422
_cell_length_c 20.672978
_cell_angle_alpha 90.000000
_cell_angle_beta 90.000000
_cell_angle_gamma 90.000000
_cell_volume 4337.159375
_symmetry_space_group_name_H-M "P 42/M M C"
_symmetry_group_IT_number 131
_symmetry_cell_setting 'tetragonal'
loop_
_space_group_symop_operation_xyz
x,y,z
-x,-y,z
-y,x,1/2+z
y,-x,1/2+z
-x,y,-z
x,-y,-z
y,x,1/2-z
-y,-x,1/2-z
-x,-y,-z
x,y,-z
y,-x,1/2-z
-y,x,1/2-z
x,-y,z
-x,y,z
-y,-x,1/2+z
y,x,1/2+z
loop_
_atom_site_type_symbol
_atom_site_label
_atom_site_fract_x
_atom_site_fract_y
_atom_site_fract_z
Si Si1 0.717004 0.105133 0.571118
Si Si2 0.397566 0.101028 0.230865
Si Si3 0.700374 0.607497 0.687353
Si Si4 0.605866 0.284265 0.426397
Si Si5 0.899115 0.215422 0.798867
O O1 0.762584 0.116321 0.500000
O O2 0.633819 0.177050 0.579370
O O3 0.796904 0.125584 0.625183
O O4 0.679918 0.000000 0.580603
O O5 0.500000 0.110285 0.260921
O O6 0.379832 0.188132 0.183751
O O7 0.325925 0.104191 0.289850
O O8 0.387222 0.000000 0.195058
O O9 0.659142 0.659142 0.750000
O O10 0.672219 0.500000 0.690768
O O11 0.664080 0.651391 0.621299
O O12 0.621293 0.319371 0.500000
O O13 0.500000 0.292376 0.405604
O O14 0.827730 0.172271 0.750000
O O15 0.000000 0.174053 0.782993
#
# Coordination Sequence:
#
# PCOD8315881 Si02
#       5
#    16  16  16  16  16
#     4   9  18  32  50  73 101 133 168 208 258 310
#     4   9  18  32  51  75  99 124 160 210 264 309
#     4  11  22  35  53  75 101 135 175 217 257 302
#     4  10  21  35  51  74 105 140 175 210 251 302
#     4  10  19  31  50  74 101 133 165 201 246 297
#
# _framework density 18.445252
#
# number of rings (size 3 to 8) (size 9 to 14) (size 15 to 20)
#    0.000    2.200    0.000    3.600    0.000    4.800 
#    0.000    5.000    0.000    1.200    0.000   11.200 
#    0.000    0.000    0.000    0.000    0.000    0.400 
#
# Total GULP energy -991054.457536 kJ/mol
# GULP energy per Si atom -12388.180719 kJ/mol
# Density = 1.840327 g / cm^3
# Si number density = 18.445252 Si / 1000 Ang^3
#
#
#
# Elastic Constant Matrix: (Units=GPa)
#
#
# Indices 1 2 3 4 5 6 
#
# 1 106.8368 45.8733 64.9286 0.0000 0.0000 0.0000
# 2 45.8733 106.8347 64.9272 0.0000 0.0000 0.0000
# 3 64.9286 64.9272 131.6753 0.0000 0.0000 0.0000
# 4 0.0000 0.0000 0.0000 24.0733 0.0000 0.0000
# 5 0.0000 0.0000 0.0000 0.0000 24.0734 0.0000
# 6 0.0000 0.0000 0.0000 0.0000 0.0000 19.2675
#
#
#
# Elastic Compliance Matrix: (Units=1/GPa)
#
#
# Indices 1 2 3 4 5 6 
#
# 1 0.013840 -0.002563 -0.005561 0.000000 0.000000 0.000000
# 2 -0.002563 0.013840 -0.005560 0.000000 0.000000 0.000000
# 3 -0.005561 -0.005560 0.013078 0.000000 0.000000 0.000000
# 4 0.000000 0.000000 0.000000 0.041540 0.000000 0.000000
# 5 0.000000 0.000000 0.000000 0.000000 0.041540 0.000000
# 6 0.000000 0.000000 0.000000 0.000000 0.000000 0.051901
#
#
# Mechanical properties :
#
#
# Convention : Reuss Voigt Hill
#
# Bulk Modulus (GPa) = 74.68430 77.42278 76.05354
# Shear Modulus (GPa) = 24.08822 24.79069 24.43945
#
# Velocity S-wave (km/s) = 3.61769 3.67006 3.64397
# Velocity P-wave (km/s) = 7.61760 7.74755 7.68285
#
# Compressibility (1/GPa) = 0.01338969
#
# Stress axis : x y z
#
# Youngs Moduli (GPa) = 72.25405 72.25328 76.46389
#
# Poissons Ratio (x) = 0.18521 0.42518
# Poissons Ratio (y) = 0.18522 0.42517
# Poissons Ratio (z) = 0.40177 0.40176
#
# Static dielectric constant tensor:
#      x y z
#    x 3.493120 0.000000 0.000000 
#    y 0.000000 3.493130 0.000000 
#    z 0.000000 0.000000 3.461440 
# 
# 
# High freq. dielectric constant tensor:
#      x y z
#    x 1.711780 0.000000 0.000000 
#    y 0.000000 1.711780 0.000000 
#    z 0.000000 0.000000 1.704270 
# 
# From -- ./inp_files/9381.got.cif
#   From: 2010.03.12/outbox.cif.g09.slc.cpg/sg131_5_cif.got.tgz:9381.got - 2010.04.06 17:36:35.
