data_PCOD8315922
_publ_section_title
;
Structure prediction by ZEFSAII (Michael W. Deem and Ramdas Pophale) SiO2 
 PCOD8315922
Probable space group: P 42/M M C
;
_chemical_formula_sum "Si O2"
_cell_formula_units_Z 120
_cell_length_a 26.795572
_cell_length_b 26.795572
_cell_length_c 9.215629
_cell_angle_alpha 90.000000
_cell_angle_beta 90.000000
_cell_angle_gamma 90.000000
_cell_volume 6616.846309
_symmetry_space_group_name_H-M "P 42/M M C"
_symmetry_group_IT_number 131
_symmetry_cell_setting 'tetragonal'
loop_
_space_group_symop_operation_xyz
x,y,z
-x,-y,z
-y,x,1/2+z
y,-x,1/2+z
-x,y,-z
x,-y,-z
y,x,1/2-z
-y,-x,1/2-z
-x,-y,-z
x,y,-z
y,-x,1/2-z
-y,x,1/2-z
x,-y,z
-x,y,z
-y,-x,1/2+z
y,x,1/2+z
loop_
_atom_site_type_symbol
_atom_site_label
_atom_site_fract_x
_atom_site_fract_y
_atom_site_fract_z
Si Si1 0.442091 0.368896 0.670867
Si Si2 0.554484 0.178282 0.162786
Si Si3 0.385612 0.917396 0.830395
Si Si4 0.404189 0.740157 0.329710
Si Si5 0.846210 0.775127 0.668783
Si Si6 0.724492 0.055796 0.172419
Si Si7 0.000000 0.441285 0.837605
Si Si8 0.235190 0.693928 0.330466
O O1 0.414021 0.414021 0.750000
O O2 0.437743 0.377424 0.500000
O O3 0.500000 0.368525 0.719152
O O4 0.416317 0.316612 0.715255
O O5 0.500000 0.151907 0.169880
O O6 0.598467 0.139354 0.200511
O O7 0.551303 0.223676 0.278975
O O8 0.563914 0.199195 0.000000
O O9 0.329866 0.927585 0.771233
O O10 0.423707 0.951168 0.744511
O O11 0.389262 0.930414 0.000000
O O12 0.393761 0.744079 0.500000
O O13 0.360473 0.766116 0.237199
O O14 0.822486 0.822486 0.750000
O O15 0.844889 0.788465 0.500000
O O16 0.903015 0.765297 0.724344
O O17 0.815669 0.724257 0.699662
O O18 0.737991 0.000000 0.230568
O O19 0.723644 0.055973 0.000000
O O20 0.000000 0.500000 0.840483
O O21 0.000000 0.419295 0.000000
O O22 0.280800 0.719201 0.250000
O O23 0.247002 0.690971 0.500000
#
# Coordination Sequence:
#
# PCOD8315922 Si02
#       8
#    16  16  16  16  16  16   8  16
#     4  10  23  42  61  82 106 131 161 198 245 306
#     4  10  21  35  52  75 101 131 173 223 269 313
#     4  10  19  35  56  75  96 132 182 229 271 317
#     4  11  22  36  55  78 106 140 171 205 255 313
#     4   9  18  32  51  75 106 141 175 214 260 310
#     4   9  16  29  52  78 100 129 173 219 259 303
#     4  11  23  35  47  69 103 139 179 231 286 331
#     4  10  19  32  50  75 106 137 171 211 253 303
#
# _framework density 18.135528000000001
#
# number of rings (size 3 to 8) (size 9 to 14) (size 15 to 20)
#    0.000    2.067    0.667    3.000    0.000    7.600 
#    0.000    1.333    0.000    0.000    0.000    0.000 
#    0.000    0.267    0.000    3.333    0.000    0.000 
#
# Total GULP energy -1487473.842885 kJ/mol
# GULP energy per Si atom -12395.615357 kJ/mol
# Density = 1.809425 g / cm^3
# Si number density = 18.135528 Si / 1000 Ang^3
#
#
#
# Elastic Constant Matrix: (Units=GPa)
#
#
# Indices 1 2 3 4 5 6 
#
# 1 116.5446 53.0297 39.9291 0.0000 0.0000 0.0000
# 2 53.0297 116.5405 39.9411 0.0000 0.0000 0.0000
# 3 39.9291 39.9411 60.9147 0.0000 0.0000 0.0000
# 4 0.0000 0.0000 0.0000 19.0008 0.0000 0.0000
# 5 0.0000 0.0000 0.0000 0.0000 19.0004 0.0000
# 6 0.0000 0.0000 0.0000 0.0000 0.0000 25.3599
#
#
#
# Elastic Compliance Matrix: (Units=1/GPa)
#
#
# Indices 1 2 3 4 5 6 
#
# 1 0.012137 -0.003607 -0.005591 0.000000 0.000000 0.000000
# 2 -0.003607 0.012140 -0.005596 0.000000 0.000000 0.000000
# 3 -0.005591 -0.005596 0.023750 0.000000 0.000000 0.000000
# 4 0.000000 0.000000 0.000000 0.052629 0.000000 0.000000
# 5 0.000000 0.000000 0.000000 0.000000 0.052630 0.000000
# 6 0.000000 0.000000 0.000000 0.000000 0.000000 0.039432
#
#
# Mechanical properties :
#
#
# Convention : Reuss Voigt Hill
#
# Bulk Modulus (GPa) = 54.22873 62.19997 58.21435
# Shear Modulus (GPa) = 21.88643 23.41222 22.64933
#
# Velocity S-wave (km/s) = 3.47771 3.59689 3.53780
# Velocity P-wave (km/s) = 6.78917 7.18484 6.98980
#
# Compressibility (1/GPa) = 0.01844041
#
# Stress axis : x y z
#
# Youngs Moduli (GPa) = 82.39312 82.37510 42.10488
#
# Poissons Ratio (x) = 0.29709 0.23540
# Poissons Ratio (y) = 0.29716 0.23561
# Poissons Ratio (z) = 0.46065 0.46095
#
# Static dielectric constant tensor:
#      x y z
#    x 3.106070 0.000000 0.000000 
#    y 0.000000 3.106110 0.000000 
#    z 0.000000 0.000000 3.244240 
# 
# 
# High freq. dielectric constant tensor:
#      x y z
#    x 1.695490 0.000000 0.000000 
#    y 0.000000 1.695490 0.000000 
#    z 0.000000 0.000000 1.687940 
# 
# From -- ./inp_files/2661.got.cif
#   From: 2010.03.12/outbox.cif.g09.slc.cpg/sg131_2_cif.got.tgz:2661.got - 2010.04.06 17:36:35.
