data_PCOD8315220
_publ_section_title
;
Structure prediction by ZEFSAII (Michael W. Deem and Ramdas Pophale) SiO2 
 PCOD8315220
Probable space group: P 4/N M M
;
_chemical_formula_sum "Si O2"
_cell_formula_units_Z 112
_cell_length_a 13.639496
_cell_length_b 13.639496
_cell_length_c 36.370607
_cell_angle_alpha 90.000000
_cell_angle_beta 90.000000
_cell_angle_gamma 90.000000
_cell_volume 6766.236830
_symmetry_space_group_name_H-M "P 4/N M M"
_symmetry_group_IT_number 129
_symmetry_cell_setting 'tetragonal'
loop_
_space_group_symop_operation_xyz
x,y,z
1/2-y,x,z
1/2-x,1/2-y,z
y,1/2-x,z
1/2+x,-y,-z
-x,1/2+y,-z
1/2+y,1/2+x,-z
-y,-x,-z
-x,-y,-z
1/2+y,-x,-z
1/2+x,1/2+y,-z
-y,1/2+x,-z
1/2-x,y,z
x,1/2-y,z
1/2-y,1/2-x,z
y,x,z
loop_
_atom_site_type_symbol
_atom_site_label
_atom_site_fract_x
_atom_site_fract_y
_atom_site_fract_z
Si Si1 0.975121 0.365806 0.750189
Si Si2 0.138036 0.521721 0.527789
Si Si3 0.362508 0.520002 0.610618
Si Si4 0.134145 0.975948 0.188585
Si Si5 0.633973 0.141830 0.321210
Si Si6 0.640509 0.366898 0.117538
Si Si7 0.632812 0.141421 0.038685
O O1 0.995399 0.250000 0.752045
O O2 0.897142 0.395623 0.781347
O O3 0.929435 0.399808 0.711413
O O4 0.078013 0.421988 0.755889
O O5 0.250000 0.492838 0.520822
O O6 0.075604 0.424397 0.519906
O O7 0.121968 0.561072 0.569355
O O8 0.107761 0.607761 0.500000
O O9 0.250000 0.495003 0.618714
O O10 0.418459 0.418459 0.616189
O O11 0.402303 0.599929 0.639555
O O12 0.250000 0.994597 0.191119
O O13 0.100657 0.934562 0.149008
O O14 0.078762 0.078762 0.195392
O O15 0.750000 0.151022 0.320736
O O16 0.587229 0.250000 0.316068
O O17 0.750000 0.406132 0.126894
O O18 0.644827 0.250000 0.114791
O O19 0.604820 0.410853 0.077607
O O20 0.750000 0.146417 0.036122
O O21 0.587771 0.250000 0.040512
O O22 0.592800 0.092800 0.000000
#
# Coordination Sequence:
#
# PCOD8315220 Si02
#       7
#    16  16  16  16  16  16  16
#     4  10  20  33  50  72  96 121 149 182 222 270
#     4   9  18  31  46  66  92 121 155 195 237 283
#     4   9  17  29  45  66  92 120 150 186 230 280
#     4  10  20  32  46  64  86 115 152 192 231 269
#     4   9  17  29  45  65  90 120 152 183 213 249
#     4   8  13  22  38  59  81 106 137 174 218 268
#     4   7   9  14  27  50  78 104 130 162 205 260
#
# _framework density 16.552776000000001
#
# number of rings (size 3 to 8) (size 9 to 14) (size 15 to 20)
#    0.000    3.143    0.000    2.571    0.000    2.714 
#    0.000    2.857    0.000    3.000    0.000    0.000 
#    0.000    2.571    0.000    0.571    0.000   29.571 
#
# Total GULP energy -1387622.044815 kJ/mol
# GULP energy per Si atom -12389.482543 kJ/mol
# Density = 1.651510 g / cm^3
# Si number density = 16.552776 Si / 1000 Ang^3
#
#
#
# Elastic Constant Matrix: (Units=GPa)
#
#
# Indices 1 2 3 4 5 6 
#
# 1 64.6819 27.8769 40.0104 0.0000 0.0000 0.0000
# 2 27.8769 64.6819 40.0104 0.0000 0.0000 0.0000
# 3 40.0104 40.0104 128.8391 0.0000 0.0000 0.0000
# 4 0.0000 0.0000 0.0000 16.2151 0.0000 0.0000
# 5 0.0000 0.0000 0.0000 0.0000 16.2151 0.0000
# 6 0.0000 0.0000 0.0000 0.0000 0.0000 12.1253
#
#
#
# Elastic Compliance Matrix: (Units=1/GPa)
#
#
# Indices 1 2 3 4 5 6 
#
# 1 0.020970 -0.006201 -0.004586 0.000000 0.000000 0.000000
# 2 -0.006201 0.020970 -0.004586 0.000000 0.000000 0.000000
# 3 -0.004586 -0.004586 0.010610 0.000000 0.000000 0.000000
# 4 0.000000 0.000000 0.000000 0.061671 0.000000 0.000000
# 5 0.000000 0.000000 0.000000 0.000000 0.061671 0.000000
# 6 0.000000 0.000000 0.000000 0.000000 0.000000 0.082472
#
#
# Mechanical properties :
#
#
# Convention : Reuss Voigt Hill
#
# Bulk Modulus (GPa) = 45.86616 52.66650 49.26633
# Shear Modulus (GPa) = 16.87033 18.93145 17.90089
#
# Velocity S-wave (km/s) = 3.19593 3.38554 3.29210
# Velocity P-wave (km/s) = 6.43334 6.86796 6.65420
#
# Compressibility (1/GPa) = 0.02180257
#
# Stress axis : x y z
#
# Youngs Moduli (GPa) = 47.68789 47.68789 94.24851
#
# Poissons Ratio (x) = 0.29569 0.43227
# Poissons Ratio (y) = 0.29569 0.43227
# Poissons Ratio (z) = 0.21872 0.21872
#
# Static dielectric constant tensor:
#      x y z
#    x 2.817180 0.000000 0.000000 
#    y 0.000000 2.817180 0.000000 
#    z 0.000000 0.000000 3.630450 
# 
# 
# High freq. dielectric constant tensor:
#      x y z
#    x 1.602540 0.000000 0.000000 
#    y 0.000000 1.602540 0.000000 
#    z 0.000000 0.000000 1.664930 
# 
# From -- ./inp_files/7901.got.cif
#   From: 2010.03.12/outbox.cif.g09.slc.cpg/sg129_4_cif.got.tgz:7901.got - 2010.04.06 17:19:44.
