data_PCOD8315735
_publ_section_title
;
Structure prediction by ZEFSAII (Michael W. Deem and Ramdas Pophale) SiO2 
 PCOD8315735
Probable space group: P 42/M M C
;
_chemical_formula_sum "Si O2"
_cell_formula_units_Z 64
_cell_length_a 12.256645
_cell_length_b 12.256645
_cell_length_c 26.074347
_cell_angle_alpha 90.000000
_cell_angle_beta 90.000000
_cell_angle_gamma 90.000000
_cell_volume 3917.027817
_symmetry_space_group_name_H-M "P 42/M M C"
_symmetry_group_IT_number 131
_symmetry_cell_setting 'tetragonal'
loop_
_space_group_symop_operation_xyz
x,y,z
-x,-y,z
-y,x,1/2+z
y,-x,1/2+z
-x,y,-z
x,-y,-z
y,x,1/2-z
-y,-x,1/2-z
-x,-y,-z
x,y,-z
y,-x,1/2-z
-y,x,1/2-z
x,-y,z
-x,y,z
-y,-x,1/2+z
y,x,1/2+z
loop_
_atom_site_type_symbol
_atom_site_label
_atom_site_fract_x
_atom_site_fract_y
_atom_site_fract_z
Si Si1 0.500000 0.869915 0.798679
Si Si2 0.122853 0.273885 0.342318
Si Si3 0.628060 0.121319 0.500000
Si Si4 0.117620 0.117620 0.750000
Si Si5 0.868925 0.300972 0.109390
Si Si6 0.500000 0.871171 0.318079
O O1 0.394989 0.829886 0.831288
O O2 0.500000 0.822695 0.740022
O O3 0.500000 0.000000 0.794394
O O4 0.124563 0.217411 0.287574
O O5 0.192797 0.200721 0.380599
O O6 0.000000 0.279640 0.364661
O O7 0.500000 0.120230 0.500000
O O8 0.667141 0.175548 0.447063
O O9 0.675760 0.000000 0.500000
O O10 0.000000 0.125068 0.779162
O O11 0.833417 0.392467 0.150793
O O12 0.000000 0.281752 0.111101
O O13 0.500000 0.000000 0.315807
#
# Coordination Sequence:
#
# PCOD8315735 Si02
#       6
#     8  16   8   8  16   8
#     4   9  18  30  43  62  93 131 167 196 218 262
#     4  10  19  30  44  65  95 130 162 192 232 278
#     4   9  16  30  49  74  99 118 149 195 243 286
#     4   9  16  26  42  66  96 125 154 188 228 283
#     4  10  18  29  49  74  98 123 153 192 238 286
#     4   9  16  27  46  72  96 121 156 192 231 276
#
# _framework density 16.338919000000001
#
# number of rings (size 3 to 8) (size 9 to 14) (size 15 to 20)
#    0.000    2.500    1.250    2.250    0.000    5.500 
#    0.000    0.625    0.000    3.750    0.000    5.250 
#    0.000    0.000    0.000    0.000    0.000    0.000 
#
# Total GULP energy -792869.919754 kJ/mol
# GULP energy per Si atom -12388.592496 kJ/mol
# Density = 1.630173 g / cm^3
# Si number density = 16.338919 Si / 1000 Ang^3
#
#
#
# Elastic Constant Matrix: (Units=GPa)
#
#
# Indices 1 2 3 4 5 6 
#
# 1 67.3551 24.7116 22.3463 0.0000 0.0000 0.0000
# 2 24.7116 67.3551 22.3463 0.0000 0.0000 0.0000
# 3 22.3463 22.3463 72.1008 0.0000 0.0000 0.0000
# 4 0.0000 0.0000 0.0000 34.8371 0.0000 0.0000
# 5 0.0000 0.0000 0.0000 0.0000 34.8371 0.0000
# 6 0.0000 0.0000 0.0000 0.0000 0.0000 9.7898
#
#
#
# Elastic Compliance Matrix: (Units=1/GPa)
#
#
# Indices 1 2 3 4 5 6 
#
# 1 0.018118 -0.005333 -0.003963 0.000000 0.000000 0.000000
# 2 -0.005333 0.018118 -0.003963 0.000000 0.000000 0.000000
# 3 -0.003963 -0.003963 0.016326 0.000000 0.000000 0.000000
# 4 0.000000 0.000000 0.000000 0.028705 0.000000 0.000000
# 5 0.000000 0.000000 0.000000 0.000000 0.028705 0.000000
# 6 0.000000 0.000000 0.000000 0.000000 0.000000 0.102147
#
#
# Mechanical properties :
#
#
# Convention : Reuss Voigt Hill
#
# Bulk Modulus (GPa) = 38.39357 38.40214 38.39785
# Shear Modulus (GPa) = 20.21706 25.05326 22.63516
#
# Velocity S-wave (km/s) = 3.52142 3.92005 3.72607
# Velocity P-wave (km/s) = 6.33112 6.63653 6.48563
#
# Compressibility (1/GPa) = 0.02604603
#
# Stress axis : x y z
#
# Youngs Moduli (GPa) = 55.19448 55.19448 61.25313
#
# Poissons Ratio (x) = 0.29432 0.24272
# Poissons Ratio (y) = 0.29432 0.24272
# Poissons Ratio (z) = 0.21871 0.21871
#
# Static dielectric constant tensor:
#      x y z
#    x 3.083660 0.000000 0.000000 
#    y 0.000000 3.083660 0.000000 
#    z 0.000000 0.000000 3.111040 
# 
# 
# High freq. dielectric constant tensor:
#      x y z
#    x 1.608860 0.000000 0.000000 
#    y 0.000000 1.608860 0.000000 
#    z 0.000000 0.000000 1.614060 
# 
# From -- ./inp_files/12016.got.cif
#   From: 2010.03.12/outbox.cif.g09.slc.cpg/sg131_7_cif.got.tgz:12016.got - 2010.04.06 17:36:35.
