data_PCOD8315659
_publ_section_title
;
Structure prediction by ZEFSAII (Michael W. Deem and Ramdas Pophale) SiO2 
 PCOD8315659
Probable space group: P 42/M M C
;
_chemical_formula_sum "Si O2"
_cell_formula_units_Z 72
_cell_length_a 16.143957
_cell_length_b 16.143957
_cell_length_c 18.814769
_cell_angle_alpha 90.000000
_cell_angle_beta 90.000000
_cell_angle_gamma 90.000000
_cell_volume 4903.643341
_symmetry_space_group_name_H-M "P 42/M M C"
_symmetry_group_IT_number 131
_symmetry_cell_setting 'tetragonal'
loop_
_space_group_symop_operation_xyz
x,y,z
-x,-y,z
-y,x,1/2+z
y,-x,1/2+z
-x,y,-z
x,-y,-z
y,x,1/2-z
-y,-x,1/2-z
-x,-y,-z
x,y,-z
y,-x,1/2-z
-y,x,1/2-z
x,-y,z
-x,y,z
-y,-x,1/2+z
y,x,1/2+z
loop_
_atom_site_type_symbol
_atom_site_label
_atom_site_fract_x
_atom_site_fract_y
_atom_site_fract_z
Si Si1 0.404912 0.353157 0.676427
Si Si2 0.401374 0.500000 0.579330
Si Si3 0.096932 0.908423 0.168374
Si Si4 0.407095 0.194498 0.418678
Si Si5 0.094923 0.755027 0.918018
O O1 0.353498 0.353498 0.750000
O O2 0.500000 0.373716 0.695605
O O3 0.368706 0.420299 0.621685
O O4 0.395663 0.266565 0.637727
O O5 0.500000 0.500000 0.573715
O O6 0.363009 0.500000 0.500000
O O7 0.113211 0.886790 0.250000
O O8 0.137319 0.832837 0.123238
O O9 0.000000 0.913322 0.151784
O O10 0.135021 0.000000 0.149699
O O11 0.396553 0.226796 0.500000
O O12 0.500000 0.155644 0.410397
O O13 0.335362 0.130155 0.398755
O O14 0.000000 0.749284 0.895575
O O15 0.107638 0.775338 0.000000
#
# Coordination Sequence:
#
# PCOD8315659 Si02
#       5
#    16   8  16  16  16
#     4  10  17  26  40  58  80 103 131 167 201 234
#     4   9  16  24  38  56  76 104 131 156 193 239
#     4   8  14  25  41  61  85 109 130 158 201 251
#     4   9  18  30  41  55  79 109 140 171 204 243
#     4   9  17  28  42  60  80 105 139 173 202 238
#
# _framework density 14.682959
#
# number of rings (size 3 to 8) (size 9 to 14) (size 15 to 20)
#    0.000    3.000    1.111    1.333    0.000    4.444 
#    0.000    4.444    0.000    0.000    0.000    0.000 
#    0.000    0.000    0.000    0.000    0.000   11.778 
#
# Total GULP energy -892110.923341 kJ/mol
# GULP energy per Si atom -12390.429491 kJ/mol
# Density = 1.464954 g / cm^3
# Si number density = 14.682959 Si / 1000 Ang^3
#
#
#
# Elastic Constant Matrix: (Units=GPa)
#
#
# Indices 1 2 3 4 5 6 
#
# 1 72.8768 40.9159 43.9578 0.0000 0.0000 0.0000
# 2 40.9159 72.8770 43.9578 0.0000 0.0000 0.0000
# 3 43.9578 43.9578 88.6368 0.0000 0.0000 0.0000
# 4 0.0000 0.0000 0.0000 17.9119 0.0000 0.0000
# 5 0.0000 0.0000 0.0000 0.0000 17.9118 0.0000
# 6 0.0000 0.0000 0.0000 0.0000 0.0000 12.8251
#
#
#
# Elastic Compliance Matrix: (Units=1/GPa)
#
#
# Indices 1 2 3 4 5 6 
#
# 1 0.022767 -0.008521 -0.007065 0.000000 0.000000 0.000000
# 2 -0.008521 0.022767 -0.007065 0.000000 0.000000 0.000000
# 3 -0.007065 -0.007065 0.018290 0.000000 0.000000 0.000000
# 4 0.000000 0.000000 0.000000 0.055829 0.000000 0.000000
# 5 0.000000 0.000000 0.000000 0.000000 0.055829 0.000000
# 6 0.000000 0.000000 0.000000 0.000000 0.000000 0.077972
#
#
# Mechanical properties :
#
#
# Convention : Reuss Voigt Hill
#
# Bulk Modulus (GPa) = 53.99088 54.67260 54.33174
# Shear Modulus (GPa) = 16.39714 16.76703 16.58208
#
# Velocity S-wave (km/s) = 3.34540 3.38292 3.36421
# Velocity P-wave (km/s) = 7.19536 7.25087 7.22317
#
# Compressibility (1/GPa) = 0.01852165
#
# Stress axis : x y z
#
# Youngs Moduli (GPa) = 43.92250 43.92270 54.67525
#
# Poissons Ratio (x) = 0.37426 0.38630
# Poissons Ratio (y) = 0.37426 0.38630
# Poissons Ratio (z) = 0.31033 0.31033
#
# Static dielectric constant tensor:
#      x y z
#    x 2.791360 0.000000 0.000000 
#    y 0.000000 2.791360 0.000000 
#    z 0.000000 0.000000 2.907430 
# 
# 
# High freq. dielectric constant tensor:
#      x y z
#    x 1.536240 0.000000 0.000000 
#    y 0.000000 1.536240 0.000000 
#    z 0.000000 0.000000 1.566600 
# 
# From -- ./inp_files/9442.got.cif
#   From: 2010.03.12/outbox.cif.g09.slc.cpg/sg131_5_cif.got.tgz:9442.got - 2010.04.06 17:36:35.
