data_PCOD8315724
_publ_section_title
;
Structure prediction by ZEFSAII (Michael W. Deem and Ramdas Pophale) SiO2 
 PCOD8315724
Probable space group: P 42/M M C
;
_chemical_formula_sum "Si O2"
_cell_formula_units_Z 96
_cell_length_a 18.287252
_cell_length_b 18.287252
_cell_length_c 16.297627
_cell_angle_alpha 90.000000
_cell_angle_beta 90.000000
_cell_angle_gamma 90.000000
_cell_volume 5450.310860
_symmetry_space_group_name_H-M "P 42/M M C"
_symmetry_group_IT_number 131
_symmetry_cell_setting 'tetragonal'
loop_
_space_group_symop_operation_xyz
x,y,z
-x,-y,z
-y,x,1/2+z
y,-x,1/2+z
-x,y,-z
x,-y,-z
y,x,1/2-z
-y,-x,1/2-z
-x,-y,-z
x,y,-z
y,-x,1/2-z
-y,x,1/2-z
x,-y,z
-x,y,z
-y,-x,1/2+z
y,x,1/2+z
loop_
_atom_site_type_symbol
_atom_site_label
_atom_site_fract_x
_atom_site_fract_y
_atom_site_fract_z
Si Si1 0.079523 0.858181 0.902600
Si Si2 0.710642 0.223643 0.828782
Si Si3 0.305447 0.079302 0.597141
Si Si4 0.230219 0.639600 0.093361
Si Si5 0.231220 0.081935 0.097024
Si Si6 0.417206 0.700444 0.747183
O O1 0.091110 0.776257 0.867289
O O2 0.147206 0.907636 0.872555
O O3 0.000000 0.888517 0.872159
O O4 0.079142 0.856314 0.000000
O O5 0.761732 0.238269 0.750000
O O6 0.736569 0.278281 0.901064
O O7 0.716050 0.139810 0.857710
O O8 0.626714 0.242269 0.804602
O O9 0.299192 0.080934 0.500000
O O10 0.358122 0.145411 0.624239
O O11 0.336337 0.000000 0.626624
O O12 0.272106 0.583820 0.152816
O O13 0.237408 0.611726 0.000000
O O14 0.255983 0.000000 0.121260
O O15 0.237538 0.094328 0.000000
O O16 0.379027 0.620974 0.750000
O O17 0.500000 0.693792 0.778621
#
# Coordination Sequence:
#
# PCOD8315724 Si02
#       6
#    16  16  16  16  16  16
#     4   8  13  21  35  59  92 125 158 202 255 298
#     4   9  18  32  48  67  97 130 167 200 238 293
#     4   8  12  19  36  64  95 124 154 191 236 279
#     4   9  15  27  51  76  99 126 160 203 237 271
#     4  10  18  28  46  69  94 130 179 229 264 284
#     4   9  20  36  55  79 102 126 152 177 225 298
#
# _framework density 17.613672999999999
#
# number of rings (size 3 to 8) (size 9 to 14) (size 15 to 20)
#    0.000    3.500    1.667    1.500    0.000    0.833 
#    0.000    5.833    0.000   14.500    0.000    8.167 
#    0.000    0.000    0.000    0.000    0.000    0.000 
#
# Total GULP energy -1189307.252331 kJ/mol
# GULP energy per Si atom -12388.617212 kJ/mol
# Density = 1.757358 g / cm^3
# Si number density = 17.613673 Si / 1000 Ang^3
#
#
#
# Elastic Constant Matrix: (Units=GPa)
#
#
# Indices 1 2 3 4 5 6 
#
# 1 110.8242 47.3932 26.7973 0.0000 0.0000 0.0000
# 2 47.3932 110.8255 26.7978 0.0000 0.0000 0.0000
# 3 26.7973 26.7978 36.5929 0.0000 0.0000 0.0000
# 4 0.0000 0.0000 0.0000 15.5897 0.0000 0.0000
# 5 0.0000 0.0000 0.0000 0.0000 15.5892 0.0000
# 6 0.0000 0.0000 0.0000 0.0000 0.0000 14.2345
#
#
#
# Elastic Compliance Matrix: (Units=1/GPa)
#
#
# Indices 1 2 3 4 5 6 
#
# 1 0.012085 -0.003680 -0.006155 0.000000 0.000000 0.000000
# 2 -0.003680 0.012085 -0.006156 0.000000 0.000000 0.000000
# 3 -0.006155 -0.006156 0.036343 0.000000 0.000000 0.000000
# 4 0.000000 0.000000 0.000000 0.064145 0.000000 0.000000
# 5 0.000000 0.000000 0.000000 0.000000 0.064147 0.000000
# 6 0.000000 0.000000 0.000000 0.000000 0.000000 0.070252
#
#
# Mechanical properties :
#
#
# Convention : Reuss Voigt Hill
#
# Bulk Modulus (GPa) = 35.04802 51.13546 43.09174
# Shear Modulus (GPa) = 16.63620 19.56631 18.10126
#
# Velocity S-wave (km/s) = 3.07661 3.33657 3.20923
# Velocity P-wave (km/s) = 5.70632 6.62860 6.18468
#
# Compressibility (1/GPa) = 0.02853228
#
# Stress axis : x y z
#
# Youngs Moduli (GPa) = 82.74526 82.74572 27.51548
#
# Poissons Ratio (x) = 0.30448 0.16937
# Poissons Ratio (y) = 0.30448 0.16937
# Poissons Ratio (z) = 0.50933 0.50935
#
# Static dielectric constant tensor:
#      x y z
#    x 3.134760 0.000000 0.000000 
#    y 0.000000 3.134760 0.000000 
#    z 0.000000 0.000000 2.997150 
# 
# 
# High freq. dielectric constant tensor:
#      x y z
#    x 1.655540 0.000000 0.000000 
#    y 0.000000 1.655540 0.000000 
#    z 0.000000 0.000000 1.655020 
# 
# From -- ./inp_files/7975.got.cif
#   From: 2010.03.12/outbox.cif.g09.slc.cpg/sg131_4_cif.got.tgz:7975.got - 2010.04.06 17:36:35.
