data_PCOD8315037
_publ_section_title
;
Structure prediction by ZEFSAII (Michael W. Deem and Ramdas Pophale) SiO2 
 PCOD8315037
Probable space group: P 4/N M M
;
_chemical_formula_sum "Si O2"
_cell_formula_units_Z 96
_cell_length_a 24.977675
_cell_length_b 24.977675
_cell_length_c 9.030458
_cell_angle_alpha 90.000000
_cell_angle_beta 90.000000
_cell_angle_gamma 90.000000
_cell_volume 5633.960502
_symmetry_space_group_name_H-M "P 4/N M M"
_symmetry_group_IT_number 129
_symmetry_cell_setting 'tetragonal'
loop_
_space_group_symop_operation_xyz
x,y,z
1/2-y,x,z
1/2-x,1/2-y,z
y,1/2-x,z
1/2+x,-y,-z
-x,1/2+y,-z
1/2+y,1/2+x,-z
-y,-x,-z
-x,-y,-z
1/2+y,-x,-z
1/2+x,1/2+y,-z
-y,1/2+x,-z
1/2-x,y,z
x,1/2-y,z
1/2-y,1/2-x,z
y,x,z
loop_
_atom_site_type_symbol
_atom_site_label
_atom_site_fract_x
_atom_site_fract_y
_atom_site_fract_z
Si Si1 0.311300 0.504281 0.962917
Si Si2 0.624790 0.539844 0.458730
Si Si3 0.099124 0.188293 0.778508
Si Si4 0.850884 0.463977 0.724540
Si Si5 0.610346 0.190598 0.503889
Si Si6 0.386757 0.945268 0.735376
O O1 0.250000 0.521090 0.928093
O O2 0.320713 0.443058 0.912140
O O3 0.352005 0.545111 0.882620
O O4 0.322734 0.508893 0.136304
O O5 0.582013 0.582013 0.516380
O O6 0.673940 0.569627 0.375953
O O7 0.646001 0.510240 0.602912
O O8 0.595327 0.501104 0.339314
O O9 0.118186 0.250000 0.771306
O O10 0.150497 0.150497 0.806558
O O11 0.813839 0.416428 0.659038
O O12 0.909027 0.438924 0.767557
O O13 0.672566 0.172566 0.500000
O O14 0.606569 0.250000 0.566122
O O15 0.580962 0.150809 0.613303
#
# Coordination Sequence:
#
# PCOD8315037 Si02
#       6
#    16  16  16  16  16  16
#     4  10  19  31  48  68  94 126 158 195 236 276
#     4   9  18  32  49  70  96 124 153 185 228 282
#     4   9  19  35  53  73  96 123 155 190 229 274
#     4  10  19  29  46  71  95 121 156 195 233 277
#     4   9  17  29  44  63  87 116 154 196 236 278
#     4   9  18  31  46  65  92 126 159 191 228 275
#
# _framework density 17.039522000000002
#
# number of rings (size 3 to 8) (size 9 to 14) (size 15 to 20)
#    0.000    2.667    0.000    3.000    0.000    7.000 
#    0.000    0.000    0.000    5.000    0.000    0.000 
#    0.000   14.667    0.000    0.000    0.000    0.000 
#
# Total GULP energy -1189887.485344 kJ/mol
# GULP energy per Si atom -12394.661306 kJ/mol
# Density = 1.700074 g / cm^3
# Si number density = 17.039522 Si / 1000 Ang^3
#
#
#
# Elastic Constant Matrix: (Units=GPa)
#
#
# Indices 1 2 3 4 5 6 
#
# 1 85.1873 47.4657 34.3470 0.0000 0.0000 0.0000
# 2 47.4657 85.1873 34.3470 0.0000 0.0000 0.0000
# 3 34.3470 34.3470 94.5570 0.0000 0.0000 0.0000
# 4 0.0000 0.0000 0.0000 16.6395 0.0000 0.0000
# 5 0.0000 0.0000 0.0000 0.0000 16.6395 0.0000
# 6 0.0000 0.0000 0.0000 0.0000 0.0000 17.4675
#
#
#
# Elastic Compliance Matrix: (Units=1/GPa)
#
#
# Indices 1 2 3 4 5 6 
#
# 1 0.017897 -0.008612 -0.003373 0.000000 0.000000 0.000000
# 2 -0.008612 0.017897 -0.003373 0.000000 0.000000 0.000000
# 3 -0.003373 -0.003373 0.013026 0.000000 0.000000 0.000000
# 4 0.000000 0.000000 0.000000 0.060098 0.000000 0.000000
# 5 0.000000 0.000000 0.000000 0.000000 0.060098 0.000000
# 6 0.000000 0.000000 0.000000 0.000000 0.000000 0.057249
#
#
# Mechanical properties :
#
#
# Convention : Reuss Voigt Hill
#
# Bulk Modulus (GPa) = 55.23316 55.25010 55.24163
# Shear Modulus (GPa) = 19.01019 20.06743 19.53881
#
# Velocity S-wave (km/s) = 3.34376 3.43549 3.38993
# Velocity P-wave (km/s) = 6.88424 6.94491 6.91464
#
# Compressibility (1/GPa) = 0.01810507
#
# Stress axis : x y z
#
# Youngs Moduli (GPa) = 55.87376 55.87376 76.77054
#
# Poissons Ratio (x) = 0.48121 0.25892
# Poissons Ratio (y) = 0.48121 0.25892
# Poissons Ratio (z) = 0.18844 0.18844
#
# Static dielectric constant tensor:
#      x y z
#    x 3.297390 0.000000 0.000000 
#    y 0.000000 3.297390 0.000000 
#    z 0.000000 0.000000 3.134310 
# 
# 
# High freq. dielectric constant tensor:
#      x y z
#    x 1.649720 0.000000 0.000000 
#    y 0.000000 1.649720 0.000000 
#    z 0.000000 0.000000 1.650130 
# 
# From -- ./inp_files/2604.got.cif
#   From: 2010.03.12/outbox.cif.g09.slc.cpg/sg129_2_cif.got.tgz:2604.got - 2010.04.06 17:19:44.
