data_PCOD8315599
_publ_section_title
;
Structure prediction by ZEFSAII (Michael W. Deem and Ramdas Pophale) SiO2 
 PCOD8315599
Probable space group: P 4/N C C
;
_chemical_formula_sum "Si O2"
_cell_formula_units_Z 96
_cell_length_a 25.419968
_cell_length_b 25.419968
_cell_length_c 9.802382
_cell_angle_alpha 90.000000
_cell_angle_beta 90.000000
_cell_angle_gamma 90.000000
_cell_volume 6334.051965
_symmetry_space_group_name_H-M "P 4/N C C"
_symmetry_group_IT_number 130
_symmetry_cell_setting 'tetragonal'
loop_
_space_group_symop_operation_xyz
x,y,z
1/2-y,x,z
1/2-x,1/2-y,z
y,1/2-x,z
1/2+x,-y,1/2-z
-x,1/2+y,1/2-z
1/2+y,1/2+x,1/2-z
-y,-x,1/2-z
-x,-y,-z
1/2+y,-x,-z
1/2+x,1/2+y,-z
-y,1/2+x,-z
1/2-x,y,1/2+z
x,1/2-y,1/2+z
1/2-y,1/2-x,1/2+z
y,x,1/2+z
loop_
_atom_site_type_symbol
_atom_site_label
_atom_site_fract_x
_atom_site_fract_y
_atom_site_fract_z
Si Si1 0.432346 0.982578 0.366857
Si Si2 0.026000 0.565626 0.618073
Si Si3 0.062925 0.140730 0.953129
Si Si4 0.860809 0.569233 0.723650
Si Si5 0.248185 0.098539 0.352758
Si Si6 0.732648 0.665894 0.895793
O O1 0.440003 0.940003 0.250000
O O2 0.431152 0.949065 0.504330
O O3 0.480239 0.023128 0.371399
O O4 0.379004 0.013438 0.336775
O O5 0.063472 0.563472 0.750000
O O6 0.995542 0.620653 0.589724
O O7 0.108497 0.114939 0.859101
O O8 0.063697 0.203842 0.928872
O O9 0.074221 0.127712 0.113209
O O10 0.798716 0.566191 0.695997
O O11 0.270977 0.143259 0.452686
O O12 0.221106 0.122946 0.218963
O O13 0.790895 0.688184 0.875210
#
# Coordination Sequence:
#
# PCOD8315599 Si02
#       6
#    16  16  16  16  16  16
#     4   9  16  30  50  71  94 113 144 186 235 286
#     4   9  18  30  50  75  94 116 144 190 236 290
#     4  11  23  36  51  70  94 122 159 199 246 293
#     4  11  23  35  52  70  91 125 156 200 247 290
#     4  12  24  35  49  65  93 121 159 204 248 293
#     4  11  22  36  50  63  80 116 165 214 254 283
#
# _framework density 15.156174999999999
#
# number of rings (size 3 to 8) (size 9 to 14) (size 15 to 20)
#    0.000    1.500    3.333    3.000    9.333    1.333 
#    0.000    0.000    0.000    0.000    0.000    0.000 
#    0.000    0.000    0.000    0.000    0.000    5.000 
#
# Total GULP energy -1189803.625524 kJ/mol
# GULP energy per Si atom -12393.787766 kJ/mol
# Density = 1.512168 g / cm^3
# Si number density = 15.156175 Si / 1000 Ang^3
#
#
#
# Elastic Constant Matrix: (Units=GPa)
#
#
# Indices 1 2 3 4 5 6 
#
# 1 53.9642 33.3559 34.8281 0.0000 0.0000 0.0000
# 2 33.3559 53.9642 34.8281 0.0000 0.0000 0.0000
# 3 34.8281 34.8281 111.4655 0.0000 0.0000 0.0000
# 4 0.0000 0.0000 0.0000 22.8349 0.0000 0.0000
# 5 0.0000 0.0000 0.0000 0.0000 22.8349 0.0000
# 6 0.0000 0.0000 0.0000 0.0000 0.0000 -30.2380
#
#
#
# Elastic Compliance Matrix: (Units=1/GPa)
#
#
# Indices 1 2 3 4 5 6 
#
# 1 0.031889 -0.016635 -0.004766 0.000000 0.000000 0.000000
# 2 -0.016635 0.031889 -0.004766 0.000000 0.000000 0.000000
# 3 -0.004766 -0.004766 0.011950 0.000000 0.000000 0.000000
# 4 0.000000 0.000000 0.000000 0.043793 0.000000 0.000000
# 5 0.000000 0.000000 0.000000 0.000000 0.043793 0.000000
# 6 0.000000 0.000000 0.000000 0.000000 0.000000 -0.033071
#
#
# Mechanical properties :
#
#
# Convention : Reuss Voigt Hill
#
# Bulk Modulus (GPa) = 42.74739 47.26867 45.00803
# Shear Modulus (GPa) = 26.26396 10.84517 18.55457
#
# Velocity S-wave (km/s) = 4.16731 2.67790 3.50269
# Velocity P-wave (km/s) = 7.17086 6.38882 6.79110
#
# Compressibility (1/GPa) = 0.02339324
#
# Stress axis : x y z
#
# Youngs Moduli (GPa) = 31.35863 31.35863 83.68276
#
# Poissons Ratio (x) = 0.52165 0.39886
# Poissons Ratio (y) = 0.52165 0.39886
# Poissons Ratio (z) = 0.14946 0.14946
#
# Static dielectric constant tensor:
#      x y z
#    x 2.826760 0.000000 0.000000 
#    y 0.000000 2.826760 0.000000 
#    z 0.000000 0.000000 3.301970 
# 
# 
# High freq. dielectric constant tensor:
#      x y z
#    x 1.543610 0.000000 0.000000 
#    y 0.000000 1.543610 0.000000 
#    z 0.000000 0.000000 1.610920 
# 
# From -- ./inp_files/996.got.cif
#   From: 2010.03.12/outbox.cif.g09.slc.cpg/sg130_1_cif.got.tgz:996.got - 2010.04.06 17:30:23.
