data_PCOD8315960
_publ_section_title
;
Structure prediction by ZEFSAII (Michael W. Deem and Ramdas Pophale) SiO2 
 PCOD8315960
Probable space group: P 42/M M C
;
_chemical_formula_sum "Si O2"
_cell_formula_units_Z 120
_cell_length_a 14.658663
_cell_length_b 14.658663
_cell_length_c 30.149036
_cell_angle_alpha 90.000000
_cell_angle_beta 90.000000
_cell_angle_gamma 90.000000
_cell_volume 6478.316348
_symmetry_space_group_name_H-M "P 42/M M C"
_symmetry_group_IT_number 131
_symmetry_cell_setting 'tetragonal'
loop_
_space_group_symop_operation_xyz
x,y,z
-x,-y,z
-y,x,1/2+z
y,-x,1/2+z
-x,y,-z
x,-y,-z
y,x,1/2-z
-y,-x,1/2-z
-x,-y,-z
x,y,-z
y,-x,1/2-z
-y,x,1/2-z
x,-y,z
-x,y,z
-y,-x,1/2+z
y,x,1/2+z
loop_
_atom_site_type_symbol
_atom_site_label
_atom_site_fract_x
_atom_site_fract_y
_atom_site_fract_z
Si Si1 0.399792 0.721854 0.718818
Si Si2 0.781869 0.607972 0.876653
Si Si3 0.099726 0.242479 0.846502
Si Si4 0.711704 0.673792 0.551140
Si Si5 0.398601 0.500000 0.552443
Si Si6 0.896643 0.607191 0.586330
Si Si7 0.749711 0.897011 0.840180
Si Si8 0.899014 0.319291 0.754280
O O1 0.330354 0.669647 0.750000
O O2 0.500000 0.682108 0.727568
O O3 0.377130 0.714505 0.666010
O O4 0.398619 0.828006 0.733079
O O5 0.793187 0.500000 0.887566
O O6 0.877971 0.655144 0.864091
O O7 0.752305 0.667974 0.918930
O O8 0.174615 0.168688 0.862335
O O9 0.098412 0.243882 0.793076
O O10 0.000000 0.214445 0.864834
O O11 0.691453 0.697313 0.500000
O O12 0.656699 0.586716 0.568874
O O13 0.820493 0.655457 0.555429
O O14 0.500000 0.500000 0.573695
O O15 0.405750 0.500000 0.500000
O O16 0.875943 0.500000 0.590884
O O17 0.888309 0.653598 0.634335
O O18 0.000000 0.622244 0.567066
O O19 0.731820 0.866017 0.790020
O O20 0.787662 0.000000 0.842703
O O21 0.000000 0.362403 0.747154
#
# Coordination Sequence:
#
# PCOD8315960 Si02
#       8
#    16  16  16  16   8  16  16  16
#     4  10  21  36  53  74 106 146 185 226 266 315
#     4  10  21  38  56  78 108 140 182 232 280 324
#     4  10  19  33  55  80 108 144 183 224 273 325
#     4  11  21  36  58  81 107 143 180 223 279 334
#     4   9  18  32  51  79 109 135 174 222 267 321
#     4  10  21  36  55  82 114 147 181 218 266 325
#     4  10  19  33  52  78 115 148 181 223 264 319
#     4   9  18  32  52  77 106 142 181 224 272 317
#
# _framework density 18.523332
#
# number of rings (size 3 to 8) (size 9 to 14) (size 15 to 20)
#    0.000    2.067    2.000    2.400    0.000    2.533 
#    1.200    4.667    0.000    2.800    0.000    0.933 
#    0.000    2.133    0.000    0.000    0.000    0.000 
#
# Total GULP energy -1486977.764063 kJ/mol
# GULP energy per Si atom -12391.481367 kJ/mol
# Density = 1.848117 g / cm^3
# Si number density = 18.523332 Si / 1000 Ang^3
#
#
#
# Elastic Constant Matrix: (Units=GPa)
#
#
# Indices 1 2 3 4 5 6 
#
# 1 87.5959 32.0308 39.4586 0.0000 0.0000 0.0000
# 2 32.0308 87.5952 39.4581 0.0000 0.0000 0.0000
# 3 39.4586 39.4581 74.4485 0.0000 0.0000 0.0000
# 4 0.0000 0.0000 0.0000 19.1178 0.0000 0.0000
# 5 0.0000 0.0000 0.0000 0.0000 19.1179 0.0000
# 6 0.0000 0.0000 0.0000 0.0000 0.0000 20.1662
#
#
#
# Elastic Compliance Matrix: (Units=1/GPa)
#
#
# Indices 1 2 3 4 5 6 
#
# 1 0.015425 -0.002572 -0.006813 0.000000 0.000000 0.000000
# 2 -0.002572 0.015425 -0.006812 0.000000 0.000000 0.000000
# 3 -0.006813 -0.006812 0.020653 0.000000 0.000000 0.000000
# 4 0.000000 0.000000 0.000000 0.052307 0.000000 0.000000
# 5 0.000000 0.000000 0.000000 0.000000 0.052307 0.000000
# 6 0.000000 0.000000 0.000000 0.000000 0.000000 0.049588
#
#
# Mechanical properties :
#
#
# Convention : Reuss Voigt Hill
#
# Bulk Modulus (GPa) = 52.32707 52.39275 52.35991
# Shear Modulus (GPa) = 20.45242 20.92651 20.68947
#
# Velocity S-wave (km/s) = 3.32647 3.36480 3.34569
# Velocity P-wave (km/s) = 6.56235 6.59106 6.57672
#
# Compressibility (1/GPa) = 0.01911057
#
# Stress axis : x y z
#
# Youngs Moduli (GPa) = 64.82879 64.82863 48.41803
#
# Poissons Ratio (x) = 0.16672 0.32985
# Poissons Ratio (y) = 0.16672 0.32984
# Poissons Ratio (z) = 0.44165 0.44164
#
# Static dielectric constant tensor:
#      x y z
#    x 3.420810 0.000000 0.000000 
#    y 0.000000 3.420810 0.000000 
#    z 0.000000 0.000000 3.210040 
# 
# 
# High freq. dielectric constant tensor:
#      x y z
#    x 1.712570 0.000000 0.000000 
#    y 0.000000 1.712570 0.000000 
#    z 0.000000 0.000000 1.698360 
# 
# From -- ./inp_files/13965.got.cif
#   From: 2010.03.12/outbox.cif.g09.slc.cpg/sg131_7_cif.got.tgz:13965.got - 2010.04.06 17:36:35.
