data_PCOD8315753
_publ_section_title
;
Structure prediction by ZEFSAII (Michael W. Deem and Ramdas Pophale) SiO2 
 PCOD8315753
Probable space group: P 42/M M C
;
_chemical_formula_sum "Si O2"
_cell_formula_units_Z 112
_cell_length_a 14.212184
_cell_length_b 14.212184
_cell_length_c 31.610518
_cell_angle_alpha 90.000000
_cell_angle_beta 90.000000
_cell_angle_gamma 90.000000
_cell_volume 6384.887591
_symmetry_space_group_name_H-M "P 42/M M C"
_symmetry_group_IT_number 131
_symmetry_cell_setting 'tetragonal'
loop_
_space_group_symop_operation_xyz
x,y,z
-x,-y,z
-y,x,1/2+z
y,-x,1/2+z
-x,y,-z
x,-y,-z
y,x,1/2-z
-y,-x,1/2-z
-x,-y,-z
x,y,-z
y,-x,1/2-z
-y,x,1/2-z
x,-y,z
-x,y,z
-y,-x,1/2+z
y,x,1/2+z
loop_
_atom_site_type_symbol
_atom_site_label
_atom_site_fract_x
_atom_site_fract_y
_atom_site_fract_z
Si Si1 0.204856 0.784927 0.295778
Si Si2 0.792421 0.392252 0.582642
Si Si3 0.891198 0.226163 0.453492
Si Si4 0.694592 0.393620 0.209860
Si Si5 0.601394 0.389864 0.620042
Si Si6 0.890518 0.393882 0.328354
Si Si7 0.890181 0.890818 0.372440
O O1 0.173125 0.826876 0.250000
O O2 0.318988 0.780192 0.295383
O O3 0.165912 0.678243 0.298967
O O4 0.168419 0.849679 0.333450
O O5 0.790235 0.500000 0.566337
O O6 0.835598 0.324861 0.547218
O O7 0.688181 0.350852 0.592592
O O8 0.857609 0.382698 0.623661
O O9 0.873700 0.180418 0.500000
O O10 0.856754 0.156226 0.416425
O O11 0.000000 0.249234 0.446986
O O12 0.630139 0.369862 0.250000
O O13 0.735025 0.500000 0.213545
O O14 0.628792 0.382586 0.169194
O O15 0.601346 0.500000 0.613563
O O16 0.500000 0.347569 0.604888
O O17 0.870958 0.500000 0.312087
O O18 0.000000 0.368250 0.326561
O O19 0.000000 0.872361 0.363735
O O20 0.867078 0.000000 0.376383
#
# Coordination Sequence:
#
# PCOD8315753 Si02
#       7
#    16  16  16  16  16  16  16
#     4  11  22  34  52  75 105 139 177 221 262 308
#     4  10  18  30  50  75 106 141 173 206 252 309
#     4  10  20  34  54  80 108 135 166 209 262 319
#     4  10  19  29  44  68 100 137 176 220 266 309
#     4   9  16  26  42  65  95 133 175 212 247 292
#     4  10  19  32  52  74 100 138 178 212 255 315
#     4  10  21  38  58  78 102 132 170 217 268 322
#
# _framework density 17.541421
#
# number of rings (size 3 to 8) (size 9 to 14) (size 15 to 20)
#    0.000    2.000    2.857    1.286    0.000    5.571 
#    0.000    2.857    0.000    0.857    0.000    2.000 
#    0.000    0.000    0.000    6.000    0.000    0.286 
#
# Total GULP energy -1388218.747313 kJ/mol
# GULP energy per Si atom -12394.810244 kJ/mol
# Density = 1.750150 g / cm^3
# Si number density = 17.541421 Si / 1000 Ang^3
#
#
#
# Elastic Constant Matrix: (Units=GPa)
#
#
# Indices 1 2 3 4 5 6 
#
# 1 87.1697 39.7478 46.9597 0.0000 0.0000 0.0000
# 2 39.7478 87.1691 46.9596 0.0000 0.0000 0.0000
# 3 46.9597 46.9596 108.0999 0.0000 0.0000 0.0000
# 4 0.0000 0.0000 0.0000 20.3489 0.0000 0.0000
# 5 0.0000 0.0000 0.0000 0.0000 20.3490 0.0000
# 6 0.0000 0.0000 0.0000 0.0000 0.0000 19.2780
#
#
#
# Elastic Compliance Matrix: (Units=1/GPa)
#
#
# Indices 1 2 3 4 5 6 
#
# 1 0.016350 -0.004738 -0.005044 0.000000 0.000000 0.000000
# 2 -0.004738 0.016350 -0.005044 0.000000 0.000000 0.000000
# 3 -0.005044 -0.005044 0.013633 0.000000 0.000000 0.000000
# 4 0.000000 0.000000 0.000000 0.049143 0.000000 0.000000
# 5 0.000000 0.000000 0.000000 0.000000 0.049143 0.000000
# 6 0.000000 0.000000 0.000000 0.000000 0.000000 0.051873
#
#
# Mechanical properties :
#
#
# Convention : Reuss Voigt Hill
#
# Bulk Modulus (GPa) = 59.95245 61.08588 60.51916
# Shear Modulus (GPa) = 21.57930 21.91328 21.74629
#
# Velocity S-wave (km/s) = 3.51121 3.53828 3.52477
# Velocity P-wave (km/s) = 7.11969 7.18275 7.15129
#
# Compressibility (1/GPa) = 0.01667989
#
# Stress axis : x y z
#
# Youngs Moduli (GPa) = 61.16338 61.16291 73.34955
#
# Poissons Ratio (x) = 0.28977 0.37000
# Poissons Ratio (y) = 0.28977 0.37000
# Poissons Ratio (z) = 0.30853 0.30853
#
# Static dielectric constant tensor:
#      x y z
#    x 3.401250 0.000000 0.000000 
#    y 0.000000 3.401250 0.000000 
#    z 0.000000 0.000000 3.167830 
# 
# 
# High freq. dielectric constant tensor:
#      x y z
#    x 1.667090 0.000000 0.000000 
#    y 0.000000 1.667090 0.000000 
#    z 0.000000 0.000000 1.665990 
# 
# From -- ./inp_files/13815.got.cif
#   From: 2010.03.12/outbox.cif.g09.slc.cpg/sg131_7_cif.got.tgz:13815.got - 2010.04.06 17:36:35.
