data_PCOD8315400
_publ_section_title
;
Structure prediction by ZEFSAII (Michael W. Deem and Ramdas Pophale) SiO2 
 PCOD8315400
Probable space group: P 4/N M M
;
_chemical_formula_sum "Si O2"
_cell_formula_units_Z 64
_cell_length_a 13.255875
_cell_length_b 13.255875
_cell_length_c 20.331244
_cell_angle_alpha 90.000000
_cell_angle_beta 90.000000
_cell_angle_gamma 90.000000
_cell_volume 3572.570047
_symmetry_space_group_name_H-M "P 4/N M M"
_symmetry_group_IT_number 129
_symmetry_cell_setting 'tetragonal'
loop_
_space_group_symop_operation_xyz
x,y,z
1/2-y,x,z
1/2-x,1/2-y,z
y,1/2-x,z
1/2+x,-y,-z
-x,1/2+y,-z
1/2+y,1/2+x,-z
-y,-x,-z
-x,-y,-z
1/2+y,-x,-z
1/2+x,1/2+y,-z
-y,1/2+x,-z
1/2-x,y,z
x,1/2-y,z
1/2-y,1/2-x,z
y,x,z
loop_
_atom_site_type_symbol
_atom_site_label
_atom_site_fract_x
_atom_site_fract_y
_atom_site_fract_z
Si Si1 0.632801 0.468187 0.682594
Si Si2 0.033073 0.632382 0.438946
Si Si3 0.970419 0.366825 0.798716
Si Si4 0.136527 0.973427 0.947347
O O1 0.750000 0.491854 0.673197
O O2 0.574264 0.574264 0.677767
O O3 0.594124 0.391933 0.627064
O O4 0.615280 0.414578 0.752672
O O5 0.103424 0.603424 0.500000
O O6 0.006642 0.750000 0.441303
O O7 0.927754 0.572247 0.441658
O O8 0.987593 0.250000 0.781742
O O9 0.932807 0.383033 0.873547
O O10 0.077060 0.422941 0.786534
O O11 0.250000 0.010471 0.955148
O O12 0.114417 0.885584 0.000000
O O13 0.070110 0.070110 0.964415
#
# Coordination Sequence:
#
# PCOD8315400 Si02
#       4
#    16  16  16  16
#     4  10  21  36  53  74 100 130 166 206 246 291
#     4  10  21  36  54  78 106 135 169 207 247 293
#     4   9  18  32  50  73  99 127 160 198 242 292
#     4   9  18  32  49  70  97 127 160 200 243 288
#
# _framework density 17.914273999999999
#
# number of rings (size 3 to 8) (size 9 to 14) (size 15 to 20)
#    0.000    2.500    0.000    1.500    0.000    5.500 
#    0.000    5.000    0.000    9.000    0.000    7.000 
#    0.000    0.000    0.000    0.000    0.000    0.000 
#
# Total GULP energy -793682.154809 kJ/mol
# GULP energy per Si atom -12401.283669 kJ/mol
# Density = 1.787350 g / cm^3
# Si number density = 17.914274 Si / 1000 Ang^3
#
#
#
# Elastic Constant Matrix: (Units=GPa)
#
#
# Indices 1 2 3 4 5 6 
#
# 1 117.9942 49.5344 50.1746 0.0000 0.0000 0.0000
# 2 49.5344 117.9989 50.1746 0.0000 0.0000 0.0000
# 3 50.1746 50.1746 108.8357 0.0000 0.0000 0.0000
# 4 0.0000 0.0000 0.0000 23.2723 0.0000 0.0000
# 5 0.0000 0.0000 0.0000 0.0000 23.2721 0.0000
# 6 0.0000 0.0000 0.0000 0.0000 0.0000 11.3632
#
#
#
# Elastic Compliance Matrix: (Units=1/GPa)
#
#
# Indices 1 2 3 4 5 6 
#
# 1 0.011427 -0.003180 -0.003802 0.000000 0.000000 0.000000
# 2 -0.003180 0.011426 -0.003801 0.000000 0.000000 0.000000
# 3 -0.003802 -0.003801 0.012693 0.000000 0.000000 0.000000
# 4 0.000000 0.000000 0.000000 0.042970 0.000000 0.000000
# 5 0.000000 0.000000 0.000000 0.000000 0.042970 0.000000
# 6 0.000000 0.000000 0.000000 0.000000 0.000000 0.088003
#
#
# Mechanical properties :
#
#
# Convention : Reuss Voigt Hill
#
# Bulk Modulus (GPa) = 71.53435 71.62179 71.57807
# Shear Modulus (GPa) = 21.21204 24.57788 22.89496
#
# Velocity S-wave (km/s) = 3.44479 3.70803 3.57883
# Velocity P-wave (km/s) = 7.47263 7.64197 7.55778
#
# Compressibility (1/GPa) = 0.01397930
#
# Stress axis : x y z
#
# Youngs Moduli (GPa) = 87.51468 87.51896 78.78169
#
# Poissons Ratio (x) = 0.27833 0.29950
# Poissons Ratio (y) = 0.27832 0.29948
# Poissons Ratio (z) = 0.33270 0.33270
#
# Static dielectric constant tensor:
#      x y z
#    x 3.178800 0.000000 0.000000 
#    y 0.000000 3.178800 0.000000 
#    z 0.000000 0.000000 3.628050 
# 
# 
# High freq. dielectric constant tensor:
#      x y z
#    x 1.684490 0.000000 0.000000 
#    y 0.000000 1.684480 0.000000 
#    z 0.000000 0.000000 1.713170 
# 
# From -- ./inp_files/5373.got.cif
#   From: 2010.03.12/outbox.cif.g09.slc.cpg/sg129_3_cif.got.tgz:5373.got - 2010.04.06 17:19:44.
