data_PCOD8315508
_publ_section_title
;
Structure prediction by ZEFSAII (Michael W. Deem and Ramdas Pophale) SiO2 
 PCOD8315508
Probable space group: P 4/N C C
;
_chemical_formula_sum "Si O2"
_cell_formula_units_Z 112
_cell_length_a 14.300755
_cell_length_b 14.300755
_cell_length_c 27.669157
_cell_angle_alpha 90.000000
_cell_angle_beta 90.000000
_cell_angle_gamma 90.000000
_cell_volume 5658.663391
_symmetry_space_group_name_H-M "P 4/N C C"
_symmetry_group_IT_number 130
_symmetry_cell_setting 'tetragonal'
loop_
_space_group_symop_operation_xyz
x,y,z
1/2-y,x,z
1/2-x,1/2-y,z
y,1/2-x,z
1/2+x,-y,1/2-z
-x,1/2+y,1/2-z
1/2+y,1/2+x,1/2-z
-y,-x,1/2-z
-x,-y,-z
1/2+y,-x,-z
1/2+x,1/2+y,-z
-y,1/2+x,-z
1/2-x,y,1/2+z
x,1/2-y,1/2+z
1/2-y,1/2-x,1/2+z
y,x,1/2+z
loop_
_atom_site_type_symbol
_atom_site_label
_atom_site_fract_x
_atom_site_fract_y
_atom_site_fract_z
Si Si1 0.562963 0.340419 0.105308
Si Si2 0.223733 0.401834 0.272891
Si Si3 0.897218 0.705964 0.049747
Si Si4 0.440984 0.593343 0.506500
Si Si5 0.173711 0.673981 0.917968
Si Si6 0.293409 0.523531 0.862493
Si Si7 0.605649 0.702962 0.834640
O O1 0.603219 0.236057 0.113799
O O2 0.610416 0.419281 0.138328
O O3 0.457642 0.334490 0.122242
O O4 0.575960 0.368695 0.049654
O O5 0.144201 0.324626 0.281781
O O6 0.222077 0.491180 0.307849
O O7 0.202507 0.439923 0.218891
O O8 0.865316 0.812089 0.039035
O O9 0.929304 0.698410 0.105439
O O10 0.986977 0.678720 0.017116
O O11 0.500000 0.500000 0.500000
O O12 0.378888 0.620341 0.460802
O O13 0.250000 0.750000 0.937828
O O14 0.214565 0.593590 0.883312
O O15 0.691312 0.634594 0.841731
#
# Coordination Sequence:
#
# PCOD8315508 Si02
#       7
#    16  16  16  16  16  16  16
#     4  10  24  38  60  87 120 163 200 255 301 357
#     4   9  18  36  66  93 120 158 195 242 310 375
#     4  10  21  37  56  84 123 155 194 258 316 357
#     4  11  25  38  61  88 118 161 220 260 296 367
#     4  10  24  41  62  82 121 170 207 243 308 374
#     4  10  20  37  60  91 119 152 201 248 303 360
#     4   9  20  42  64  86 120 162 201 243 309 379
#
# _framework density 19.792659
#
# number of rings (size 3 to 8) (size 9 to 14) (size 15 to 20)
#    0.000    2.143    0.000    2.571   10.000    2.857 
#    0.000    0.714    0.000    2.571    0.000    0.000 
#    0.000    0.000    0.000    0.000    0.000    0.000 
#
# Total GULP energy -1388041.299417 kJ/mol
# GULP energy per Si atom -12393.225888 kJ/mol
# Density = 1.974761 g / cm^3
# Si number density = 19.792659 Si / 1000 Ang^3
#
#
#
# Elastic Constant Matrix: (Units=GPa)
#
#
# Indices 1 2 3 4 5 6 
#
# 1 87.4869 35.6999 39.1895 0.0000 0.0000 0.0000
# 2 35.6999 87.4869 39.1895 0.0000 0.0000 0.0000
# 3 39.1895 39.1895 59.4609 0.0000 0.0000 0.0000
# 4 0.0000 0.0000 0.0000 29.8434 0.0000 0.0000
# 5 0.0000 0.0000 0.0000 0.0000 29.8434 0.0000
# 6 0.0000 0.0000 0.0000 0.0000 0.0000 24.9490
#
#
#
# Elastic Compliance Matrix: (Units=1/GPa)
#
#
# Indices 1 2 3 4 5 6 
#
# 1 0.016645 -0.002665 -0.009214 0.000000 0.000000 0.000000
# 2 -0.002665 0.016645 -0.009214 0.000000 0.000000 0.000000
# 3 -0.009214 -0.009214 0.028964 0.000000 0.000000 0.000000
# 4 0.000000 0.000000 0.000000 0.033508 0.000000 0.000000
# 5 0.000000 0.000000 0.000000 0.000000 0.033508 0.000000
# 6 0.000000 0.000000 0.000000 0.000000 0.000000 0.040082
#
#
# Mechanical properties :
#
#
# Convention : Reuss Voigt Hill
#
# Bulk Modulus (GPa) = 49.83166 51.39915 50.61540
# Shear Modulus (GPa) = 22.91188 24.95089 23.93138
#
# Velocity S-wave (km/s) = 3.40604 3.55436 3.48099
# Velocity P-wave (km/s) = 6.37962 6.54751 6.46411
#
# Compressibility (1/GPa) = 0.02006757
#
# Stress axis : x y z
#
# Youngs Moduli (GPa) = 60.07768 60.07768 34.52615
#
# Poissons Ratio (x) = 0.16009 0.31813
# Poissons Ratio (y) = 0.16009 0.31813
# Poissons Ratio (z) = 0.55357 0.55357
#
# Static dielectric constant tensor:
#      x y z
#    x 3.762350 0.000000 0.000000 
#    y 0.000000 3.762350 0.000000 
#    z 0.000000 0.000000 3.401650 
# 
# 
# High freq. dielectric constant tensor:
#      x y z
#    x 1.779730 0.000000 0.000000 
#    y 0.000000 1.779730 0.000000 
#    z 0.000000 0.000000 1.752620 
# 
# From -- ./inp_files/4309.got.cif
#   From: 2010.03.12/outbox.cif.g09.slc.cpg/sg130_3_cif.got.tgz:4309.got - 2010.04.06 17:30:23.
