data_PCOD8315639
_publ_section_title
;
Structure prediction by ZEFSAII (Michael W. Deem and Ramdas Pophale) SiO2 
 PCOD8315639
Probable space group: P 42/M M C
;
_chemical_formula_sum "Si O2"
_cell_formula_units_Z 96
_cell_length_a 17.955951
_cell_length_b 17.955951
_cell_length_c 18.535805
_cell_angle_alpha 90.000000
_cell_angle_beta 90.000000
_cell_angle_gamma 90.000000
_cell_volume 5976.243373
_symmetry_space_group_name_H-M "P 42/M M C"
_symmetry_group_IT_number 131
_symmetry_cell_setting 'tetragonal'
loop_
_space_group_symop_operation_xyz
x,y,z
-x,-y,z
-y,x,1/2+z
y,-x,1/2+z
-x,y,-z
x,-y,-z
y,x,1/2-z
-y,-x,1/2-z
-x,-y,-z
x,y,-z
y,-x,1/2-z
-y,x,1/2-z
x,-y,z
-x,y,z
-y,-x,1/2+z
y,x,1/2+z
loop_
_atom_site_type_symbol
_atom_site_label
_atom_site_fract_x
_atom_site_fract_y
_atom_site_fract_z
Si Si1 0.584757 0.635663 0.826335
Si Si2 0.283340 0.391722 0.079837
Si Si3 0.232223 0.223164 0.079536
Si Si4 0.670620 0.778071 0.794893
Si Si5 0.707332 0.917451 0.416694
Si Si6 0.582846 0.146865 0.325305
O O1 0.595591 0.595591 0.750000
O O2 0.500000 0.628788 0.851669
O O3 0.635348 0.594751 0.886209
O O4 0.606365 0.722851 0.822632
O O5 0.265699 0.305106 0.075572
O O6 0.224062 0.429850 0.132448
O O7 0.280648 0.427513 0.000000
O O8 0.283037 0.181440 0.139621
O O9 0.145301 0.231083 0.104563
O O10 0.237986 0.184713 0.000000
O O11 0.730345 0.730345 0.750000
O O12 0.630332 0.841181 0.747878
O O13 0.685911 0.904975 0.500000
O O14 0.630096 0.910641 0.373194
O O15 0.741038 0.000000 0.403279
O O16 0.500000 0.114669 0.308337
#
# Coordination Sequence:
#
# PCOD8315639 Si02
#       6
#    16  16  16  16  16  16
#     4  10  18  28  39  51  66  86 117 162 213 252
#     4   9  17  28  39  52  67  89 124 161 199 247
#     4   8  14  26  43  60  80 105 132 167 207 246
#     4  10  15  27  43  59  72  97 135 169 202 246
#     4   9  17  28  41  60  86 114 143 173 209 256
#     4  11  19  28  42  58  77 105 140 176 209 246
#
# _framework density 16.063603000000001
#
# number of rings (size 3 to 8) (size 9 to 14) (size 15 to 20)
#    0.000    2.500    6.667    2.000    0.000    2.167 
#    0.000    0.833    0.000    1.500    0.000    2.333 
#    0.000    0.667    0.000    1.500    0.000    6.833 
#
# Total GULP energy -1189435.912782 kJ/mol
# GULP energy per Si atom -12389.957425 kJ/mol
# Density = 1.602704 g / cm^3
# Si number density = 16.063603 Si / 1000 Ang^3
#
#
#
# Elastic Constant Matrix: (Units=GPa)
#
#
# Indices 1 2 3 4 5 6 
#
# 1 51.5443 7.4219 28.2270 0.0000 0.0000 0.0000
# 2 7.4219 51.5443 28.2270 0.0000 0.0000 0.0000
# 3 28.2270 28.2270 89.8687 0.0000 0.0000 0.0000
# 4 0.0000 0.0000 0.0000 6.4496 0.0000 0.0000
# 5 0.0000 0.0000 0.0000 0.0000 6.4496 0.0000
# 6 0.0000 0.0000 0.0000 0.0000 0.0000 7.7665
#
#
#
# Elastic Compliance Matrix: (Units=1/GPa)
#
#
# Indices 1 2 3 4 5 6 
#
# 1 0.023458 0.000794 -0.007617 0.000000 0.000000 0.000000
# 2 0.000794 0.023458 -0.007617 0.000000 0.000000 0.000000
# 3 -0.007617 -0.007617 0.015912 0.000000 0.000000 0.000000
# 4 0.000000 0.000000 0.000000 0.155049 0.000000 0.000000
# 5 0.000000 0.000000 0.000000 0.000000 0.155049 0.000000
# 6 0.000000 0.000000 0.000000 0.000000 0.000000 0.128759
#
#
# Mechanical properties :
#
#
# Convention : Reuss Voigt Hill
#
# Bulk Modulus (GPa) = 29.45802 35.63432 32.54617
# Shear Modulus (GPa) = 9.22710 12.73855 10.98282
#
# Velocity S-wave (km/s) = 2.39929 2.81909 2.61762
# Velocity P-wave (km/s) = 5.10427 5.72956 5.42593
#
# Compressibility (1/GPa) = 0.03394661
#
# Stress axis : x y z
#
# Youngs Moduli (GPa) = 42.62961 42.62961 62.84434
#
# Poissons Ratio (x) = -0.03383 0.47870
# Poissons Ratio (y) = -0.03383 0.47870
# Poissons Ratio (z) = 0.32472 0.32472
#
# Static dielectric constant tensor:
#      x y z
#    x 2.765310 0.000000 0.000000 
#    y 0.000000 2.765310 0.000000 
#    z 0.000000 0.000000 3.535810 
# 
# 
# High freq. dielectric constant tensor:
#      x y z
#    x 1.574120 0.000000 0.000000 
#    y 0.000000 1.574120 0.000000 
#    z 0.000000 0.000000 1.620540 
# 
# From -- ./inp_files/9928.got.cif
#   From: 2010.03.12/outbox.cif.g09.slc.cpg/sg131_5_cif.got.tgz:9928.got - 2010.04.06 17:36:35.
