data_PCOD8315824
_publ_section_title
;
Structure prediction by ZEFSAII (Michael W. Deem and Ramdas Pophale) SiO2 
 PCOD8315824
Probable space group: P 42/M M C
;
_chemical_formula_sum "Si O2"
_cell_formula_units_Z 72
_cell_length_a 14.759837
_cell_length_b 14.759837
_cell_length_c 18.250665
_cell_angle_alpha 90.000000
_cell_angle_beta 90.000000
_cell_angle_gamma 90.000000
_cell_volume 3975.958258
_symmetry_space_group_name_H-M "P 42/M M C"
_symmetry_group_IT_number 131
_symmetry_cell_setting 'tetragonal'
loop_
_space_group_symop_operation_xyz
x,y,z
-x,-y,z
-y,x,1/2+z
y,-x,1/2+z
-x,y,-z
x,-y,-z
y,x,1/2-z
-y,-x,1/2-z
-x,-y,-z
x,y,-z
y,-x,1/2-z
-y,x,1/2-z
x,-y,z
-x,y,z
-y,-x,1/2+z
y,x,1/2+z
loop_
_atom_site_type_symbol
_atom_site_label
_atom_site_fract_x
_atom_site_fract_y
_atom_site_fract_z
Si Si1 0.100927 0.900284 0.913016
Si Si2 0.326972 0.391895 0.171844
Si Si3 0.751678 0.759981 0.912650
Si Si4 0.500000 0.605791 0.920743
Si Si5 0.899515 0.601127 0.586798
O O1 0.162163 0.817618 0.885466
O O2 0.000000 0.882710 0.883248
O O3 0.135023 0.000000 0.885850
O O4 0.102562 0.901134 0.000000
O O5 0.350954 0.350954 0.250000
O O6 0.306213 0.500000 0.174841
O O7 0.246216 0.335320 0.132483
O O8 0.411571 0.365805 0.121977
O O9 0.666756 0.820435 0.885499
O O10 0.751913 0.740780 0.000000
O O11 0.500000 0.500000 0.932819
O O12 0.500000 0.655482 0.000000
O O13 0.903491 0.605663 0.500000
O O14 0.875201 0.500000 0.614003
O O15 0.000000 0.628859 0.616515
#
# Coordination Sequence:
#
# PCOD8315824 Si02
#       5
#    16  16  16   8  16
#     4   8  14  27  50  81 113 139 166 210 268 319
#     4  11  22  36  51  68  99 140 175 216 270 317
#     4  10  19  29  49  78 103 130 172 220 257 306
#     4   9  18  32  52  72  91 125 175 220 250 292
#     4   8  14  24  38  62  99 134 159 194 249 304
#
# _framework density 18.108841000000002
#
# number of rings (size 3 to 8) (size 9 to 14) (size 15 to 20)
#    0.000    2.778    1.111    2.667    1.556    4.000 
#    0.000    0.000    0.000    3.333    0.000    4.667 
#    0.000    0.000    0.000    0.000    0.000    0.000 
#
# Total GULP energy -891961.589115 kJ/mol
# GULP energy per Si atom -12388.355404 kJ/mol
# Density = 1.806762 g / cm^3
# Si number density = 18.108841 Si / 1000 Ang^3
#
#
#
# Elastic Constant Matrix: (Units=GPa)
#
#
# Indices 1 2 3 4 5 6 
#
# 1 103.3815 65.4836 31.0499 0.0000 0.0000 0.0000
# 2 65.4836 103.3815 31.0499 0.0000 0.0000 0.0000
# 3 31.0499 31.0499 70.8095 0.0000 0.0000 0.0000
# 4 0.0000 0.0000 0.0000 10.1417 0.0000 0.0000
# 5 0.0000 0.0000 0.0000 0.0000 10.1417 0.0000
# 6 0.0000 0.0000 0.0000 0.0000 0.0000 28.4151
#
#
#
# Elastic Compliance Matrix: (Units=1/GPa)
#
#
# Indices 1 2 3 4 5 6 
#
# 1 0.016724 -0.009663 -0.003096 0.000000 0.000000 0.000000
# 2 -0.009663 0.016724 -0.003096 0.000000 0.000000 0.000000
# 3 -0.003096 -0.003096 0.016838 0.000000 0.000000 0.000000
# 4 0.000000 0.000000 0.000000 0.098603 0.000000 0.000000
# 5 0.000000 0.000000 0.000000 0.000000 0.098603 0.000000
# 6 0.000000 0.000000 0.000000 0.000000 0.000000 0.035193
#
#
# Mechanical properties :
#
#
# Convention : Reuss Voigt Hill
#
# Bulk Modulus (GPa) = 53.83732 59.19325 56.51528
# Shear Modulus (GPa) = 15.59652 19.73898 17.66775
#
# Velocity S-wave (km/s) = 2.93792 3.30512 3.12692
# Velocity P-wave (km/s) = 6.42673 6.87921 6.65682
#
# Compressibility (1/GPa) = 0.01857448
#
# Stress axis : x y z
#
# Youngs Moduli (GPa) = 59.79588 59.79588 59.39091
#
# Poissons Ratio (x) = 0.57782 0.18387
# Poissons Ratio (y) = 0.57782 0.18387
# Poissons Ratio (z) = 0.18513 0.18513
#
# Static dielectric constant tensor:
#      x y z
#    x 3.562020 0.000000 0.000000 
#    y 0.000000 3.562020 0.000000 
#    z 0.000000 0.000000 3.002480 
# 
# 
# High freq. dielectric constant tensor:
#      x y z
#    x 1.697620 0.000000 0.000000 
#    y 0.000000 1.697620 0.000000 
#    z 0.000000 0.000000 1.649750 
# 
# From -- ./inp_files/7543.got.cif
#   From: 2010.03.12/outbox.cif.g09.slc.cpg/sg131_4_cif.got.tgz:7543.got - 2010.04.06 17:36:35.
