data_PCOD8315485
_publ_section_title
;
Structure prediction by ZEFSAII (Michael W. Deem and Ramdas Pophale) SiO2 
 PCOD8315485
Probable space group: P 4/N C C
;
_chemical_formula_sum "Si O2"
_cell_formula_units_Z 56
_cell_length_a 22.147746
_cell_length_b 22.147746
_cell_length_c 5.294323
_cell_angle_alpha 90.000000
_cell_angle_beta 90.000000
_cell_angle_gamma 90.000000
_cell_volume 2596.985363
_symmetry_space_group_name_H-M "P 4/N C C"
_symmetry_group_IT_number 130
_symmetry_cell_setting 'tetragonal'
loop_
_space_group_symop_operation_xyz
x,y,z
1/2-y,x,z
1/2-x,1/2-y,z
y,1/2-x,z
1/2+x,-y,1/2-z
-x,1/2+y,1/2-z
1/2+y,1/2+x,1/2-z
-y,-x,1/2-z
-x,-y,-z
1/2+y,-x,-z
1/2+x,1/2+y,-z
-y,1/2+x,-z
1/2-x,y,1/2+z
x,1/2-y,1/2+z
1/2-y,1/2-x,1/2+z
y,x,1/2+z
loop_
_atom_site_type_symbol
_atom_site_label
_atom_site_fract_x
_atom_site_fract_y
_atom_site_fract_z
Si Si1 0.034540 0.410920 0.498656
Si Si2 0.721601 0.073731 0.419029
Si Si3 0.588867 0.088867 0.250000
Si Si4 0.772221 0.560381 0.969605
O O1 0.050347 0.434102 0.777540
O O2 0.054817 0.342289 0.472644
O O3 0.962870 0.416107 0.461936
O O4 0.746986 0.104588 0.674058
O O5 0.650248 0.083120 0.407631
O O6 0.738055 0.003051 0.416919
O O7 0.759742 0.595343 0.704628
#
# Coordination Sequence:
#
# PCOD8315485 Si02
#       4
#    16  16   8  16
#     4  12  26  39  60 101 140 164 204 269 337 399
#     4  10  22  39  64  86 113 175 226 257 305 390
#     4  12  24  42  68  91 134 176 214 265 340 398
#     4  10  19  41  63  82 122 180 214 247 301 397
#
# _framework density 21.563464
#
# number of rings (size 3 to 8) (size 9 to 14) (size 15 to 20)
#    0.000    1.143    5.714    2.571    4.000    3.429 
#    0.000    0.000    0.000    2.571    0.000    0.000 
#    0.000   40.000    0.000    0.000    0.000    0.000 
#
# Total GULP energy -694113.945025 kJ/mol
# GULP energy per Si atom -12394.891875 kJ/mol
# Density = 2.151438 g / cm^3
# Si number density = 21.563464 Si / 1000 Ang^3
#
#
#
# Elastic Constant Matrix: (Units=GPa)
#
#
# Indices 1 2 3 4 5 6 
#
# 1 76.0158 41.9585 29.5648 0.0000 0.0000 0.0000
# 2 41.9585 76.0158 29.5648 0.0000 0.0000 0.0000
# 3 29.5648 29.5648 179.7363 0.0000 0.0000 0.0000
# 4 0.0000 0.0000 0.0000 2.2248 0.0000 0.0000
# 5 0.0000 0.0000 0.0000 0.0000 2.2248 0.0000
# 6 0.0000 0.0000 0.0000 0.0000 0.0000 -1.8900
#
#
#
# Elastic Compliance Matrix: (Units=1/GPa)
#
#
# Indices 1 2 3 4 5 6 
#
# 1 0.019300 -0.010062 -0.001520 0.000000 0.000000 0.000000
# 2 -0.010062 0.019300 -0.001520 0.000000 0.000000 0.000000
# 3 -0.001520 -0.001520 0.006064 0.000000 0.000000 0.000000
# 4 0.000000 0.000000 0.000000 0.449475 0.000000 0.000000
# 5 0.000000 0.000000 0.000000 0.000000 0.449475 0.000000
# 6 0.000000 0.000000 0.000000 0.000000 0.000000 -0.529094
#
#
# Mechanical properties :
#
#
# Convention : Reuss Voigt Hill
#
# Bulk Modulus (GPa) = 54.16695 59.32710 56.74703
# Shear Modulus (GPa) = 11.18876 15.89059 13.53967
#
# Velocity S-wave (km/s) = 2.28036 2.71758 2.50851
# Velocity P-wave (km/s) = 5.66636 6.11715 5.89606
#
# Compressibility (1/GPa) = 0.01846144
#
# Stress axis : x y z
#
# Youngs Moduli (GPa) = 51.81313 51.81313 164.91829
#
# Poissons Ratio (x) = 0.52135 0.25060
# Poissons Ratio (y) = 0.52135 0.25060
# Poissons Ratio (z) = 0.07873 0.07873
#
# Static dielectric constant tensor:
#      x y z
#    x 3.707820 0.000000 0.000000 
#    y 0.000000 3.707820 0.000000 
#    z 0.000000 0.000000 5.412380 
# 
# 
# High freq. dielectric constant tensor:
#      x y z
#    x 1.812480 0.000000 0.000000 
#    y 0.000000 1.812480 0.000000 
#    z 0.000000 0.000000 1.886400 
# 
# From -- ./inp_files/135.got.cif
#   From: 2010.03.12/outbox.cif.g09.slc.cpg/sg130_1_cif.got.tgz:135.got - 2010.04.06 17:30:23.
