data_PCOD8315010
_publ_section_title
;
Structure prediction by ZEFSAII (Michael W. Deem and Ramdas Pophale) SiO2 
 PCOD8315010
Probable space group: P 4/N M M
;
_chemical_formula_sum "Si O2"
_cell_formula_units_Z 80
_cell_length_a 14.006318
_cell_length_b 14.006318
_cell_length_c 25.465683
_cell_angle_alpha 90.000000
_cell_angle_beta 90.000000
_cell_angle_gamma 90.000000
_cell_volume 4995.779866
_symmetry_space_group_name_H-M "P 4/N M M"
_symmetry_group_IT_number 129
_symmetry_cell_setting 'tetragonal'
loop_
_space_group_symop_operation_xyz
x,y,z
1/2-y,x,z
1/2-x,1/2-y,z
y,1/2-x,z
1/2+x,-y,-z
-x,1/2+y,-z
1/2+y,1/2+x,-z
-y,-x,-z
-x,-y,-z
1/2+y,-x,-z
1/2+x,1/2+y,-z
-y,1/2+x,-z
1/2-x,y,z
x,1/2-y,z
1/2-y,1/2-x,z
y,x,z
loop_
_atom_site_type_symbol
_atom_site_label
_atom_site_fract_x
_atom_site_fract_y
_atom_site_fract_z
Si Si1 0.355907 0.637062 0.251487
Si Si2 0.013199 0.640807 0.344633
Si Si3 0.136725 0.856018 0.942162
Si Si4 0.515325 0.140055 0.535463
Si Si5 0.136839 0.983371 0.845991
O O1 0.250000 0.591432 0.247679
O O2 0.346948 0.750000 0.249365
O O3 0.402917 0.604187 0.306440
O O4 0.419931 0.602161 0.203054
O O5 0.986813 0.750000 0.332235
O O6 0.048351 0.627669 0.404311
O O7 0.917448 0.582553 0.333340
O O8 0.250000 0.848380 0.939972
O O9 0.093972 0.750000 0.931358
O O10 0.100732 0.929186 0.898191
O O11 0.106160 0.893840 0.000000
O O12 0.601562 0.101562 0.500000
O O13 0.494925 0.250000 0.521587
O O14 0.418220 0.081781 0.524048
O O15 0.250000 0.001495 0.845656
O O16 0.085787 0.085787 0.843221
#
# Coordination Sequence:
#
# PCOD8315010 Si02
#       5
#    16  16  16  16  16
#     4   9  17  29  44  61  82 108 139 176 214 249
#     4   9  17  29  45  66  92 119 145 174 211 259
#     4   8  14  26  44  64  85 109 139 177 217 252
#     4   9  18  31  46  66  92 121 154 190 226 268
#     4  10  19  29  42  61  86 115 144 174 210 255
#
# _framework density 16.013515999999999
#
# number of rings (size 3 to 8) (size 9 to 14) (size 15 to 20)
#    0.000    3.000    0.000    1.800    0.000    4.400 
#    0.000    4.000    0.000    3.600    0.000    0.000 
#    0.000   18.800    0.000    0.000    0.000    0.000 
#
# Total GULP energy -991731.558699 kJ/mol
# GULP energy per Si atom -12396.644484 kJ/mol
# Density = 1.597707 g / cm^3
# Si number density = 16.013516 Si / 1000 Ang^3
#
#
#
# Elastic Constant Matrix: (Units=GPa)
#
#
# Indices 1 2 3 4 5 6 
#
# 1 79.3082 41.9196 51.9002 0.0000 0.0000 0.0000
# 2 41.9196 79.3082 51.9002 0.0000 0.0000 0.0000
# 3 51.9002 51.9002 112.5151 0.0000 0.0000 0.0000
# 4 0.0000 0.0000 0.0000 21.5559 0.0000 0.0000
# 5 0.0000 0.0000 0.0000 0.0000 21.5559 0.0000
# 6 0.0000 0.0000 0.0000 0.0000 0.0000 16.2626
#
#
#
# Elastic Compliance Matrix: (Units=1/GPa)
#
#
# Indices 1 2 3 4 5 6 
#
# 1 0.020190 -0.006556 -0.006289 0.000000 0.000000 0.000000
# 2 -0.006556 0.020190 -0.006289 0.000000 0.000000 0.000000
# 3 -0.006289 -0.006289 0.014689 0.000000 0.000000 0.000000
# 4 0.000000 0.000000 0.000000 0.046391 0.000000 0.000000
# 5 0.000000 0.000000 0.000000 0.000000 0.046391 0.000000
# 6 0.000000 0.000000 0.000000 0.000000 0.000000 0.061491
#
#
# Mechanical properties :
#
#
# Convention : Reuss Voigt Hill
#
# Bulk Modulus (GPa) = 59.51872 62.50796 61.01334
# Shear Modulus (GPa) = 19.74643 20.23566 19.99105
#
# Velocity S-wave (km/s) = 3.51538 3.55866 3.53708
# Velocity P-wave (km/s) = 7.32978 7.48362 7.40710
#
# Compressibility (1/GPa) = 0.01680144
#
# Stress axis : x y z
#
# Youngs Moduli (GPa) = 49.52961 49.52961 68.07587
#
# Poissons Ratio (x) = 0.32473 0.42812
# Poissons Ratio (y) = 0.32473 0.42812
# Poissons Ratio (z) = 0.31149 0.31149
#
# Static dielectric constant tensor:
#      x y z
#    x 2.882520 0.000000 0.000000 
#    y 0.000000 2.882520 0.000000 
#    z 0.000000 0.000000 3.372650 
# 
# 
# High freq. dielectric constant tensor:
#      x y z
#    x 1.589440 0.000000 0.000000 
#    y 0.000000 1.589440 0.000000 
#    z 0.000000 0.000000 1.633250 
# 
# From -- ./inp_files/6327.got.cif
#   From: 2010.03.12/outbox.cif.g09.slc.cpg/sg129_4_cif.got.tgz:6327.got - 2010.04.06 17:19:44.
