data_PCOD8315768
_publ_section_title
;
Structure prediction by ZEFSAII (Michael W. Deem and Ramdas Pophale) SiO2 
 PCOD8315768
Probable space group: P 42/M M C
;
_chemical_formula_sum "Si O2"
_cell_formula_units_Z 48
_cell_length_a 12.651880
_cell_length_b 12.651880
_cell_length_c 19.254401
_cell_angle_alpha 90.000000
_cell_angle_beta 90.000000
_cell_angle_gamma 90.000000
_cell_volume 3082.053268
_symmetry_space_group_name_H-M "P 42/M M C"
_symmetry_group_IT_number 131
_symmetry_cell_setting 'tetragonal'
loop_
_space_group_symop_operation_xyz
x,y,z
-x,-y,z
-y,x,1/2+z
y,-x,1/2+z
-x,y,-z
x,-y,-z
y,x,1/2-z
-y,-x,1/2-z
-x,-y,-z
x,y,-z
y,-x,1/2-z
-y,x,1/2-z
x,-y,z
-x,y,z
-y,-x,1/2+z
y,x,1/2+z
loop_
_atom_site_type_symbol
_atom_site_label
_atom_site_fract_x
_atom_site_fract_y
_atom_site_fract_z
Si Si1 0.687131 0.621308 0.675217
Si Si2 0.117187 0.768655 0.688353
Si Si3 0.500000 0.373929 0.579077
Si Si4 0.876075 0.000000 0.923126
O O1 0.633962 0.633962 0.750000
O O2 0.709667 0.500000 0.659188
O O3 0.800377 0.676924 0.671651
O O4 0.605345 0.668400 0.618139
O O5 0.157056 0.842945 0.750000
O O6 0.104861 0.838488 0.618411
O O7 0.000000 0.722302 0.708294
O O8 0.500000 0.500000 0.582362
O O9 0.500000 0.331973 0.500000
O O10 0.000000 0.000000 0.928537
O O11 0.825401 0.000000 0.000000
#
# Coordination Sequence:
#
# PCOD8315768 Si02
#       4
#    16  16   8   8
#     4  10  18  31  51  71  99 132 166 205 246 288
#     4   9  19  31  50  74  97 129 165 203 247 293
#     4   9  18  30  48  72  95 131 168 201 242 289
#     4   9  18  32  51  73  97 127 159 200 249 295
#
# _framework density 15.574033
#
# number of rings (size 3 to 8) (size 9 to 14) (size 15 to 20)
#    1.000    1.667    1.667    1.000    0.000    2.000 
#    0.000    0.000    0.000    1.000    0.000    0.000 
#    0.000   10.667    0.000    0.000    0.000    0.000 
#
# Total GULP energy -594757.598562 kJ/mol
# GULP energy per Si atom -12390.783303 kJ/mol
# Density = 1.553859 g / cm^3
# Si number density = 15.574033 Si / 1000 Ang^3
#
#
#
# Elastic Constant Matrix: (Units=GPa)
#
#
# Indices 1 2 3 4 5 6 
#
# 1 91.6083 56.8101 46.6200 0.0000 0.0000 0.0000
# 2 56.8101 91.6088 46.6193 0.0000 0.0000 0.0000
# 3 46.6200 46.6193 139.5002 0.0000 0.0000 0.0000
# 4 0.0000 0.0000 0.0000 12.0947 0.0000 0.0000
# 5 0.0000 0.0000 0.0000 0.0000 12.0950 0.0000
# 6 0.0000 0.0000 0.0000 0.0000 0.0000 18.7812
#
#
#
# Elastic Compliance Matrix: (Units=1/GPa)
#
#
# Indices 1 2 3 4 5 6 
#
# 1 0.018633 -0.010104 -0.002850 0.000000 0.000000 0.000000
# 2 -0.010104 0.018632 -0.002850 0.000000 0.000000 0.000000
# 3 -0.002850 -0.002850 0.009073 0.000000 0.000000 0.000000
# 4 0.000000 0.000000 0.000000 0.082681 0.000000 0.000000
# 5 0.000000 0.000000 0.000000 0.000000 0.082679 0.000000
# 6 0.000000 0.000000 0.000000 0.000000 0.000000 0.053245
#
#
# Mechanical properties :
#
#
# Convention : Reuss Voigt Hill
#
# Bulk Modulus (GPa) = 67.89084 69.20180 68.54632
# Shear Modulus (GPa) = 16.58588 20.10538 18.34563
#
# Velocity S-wave (km/s) = 3.26693 3.59688 3.43587
# Velocity P-wave (km/s) = 7.61035 7.86007 7.73622
#
# Compressibility (1/GPa) = 0.01472953
#
# Stress axis : x y z
#
# Youngs Moduli (GPa) = 53.66927 53.66996 110.21289
#
# Poissons Ratio (x) = 0.54230 0.31412
# Poissons Ratio (y) = 0.54229 0.31410
# Poissons Ratio (z) = 0.15296 0.15295
#
# Static dielectric constant tensor:
#      x y z
#    x 2.814770 0.000000 0.000000 
#    y 0.000000 2.814770 0.000000 
#    z 0.000000 0.000000 3.189860 
# 
# 
# High freq. dielectric constant tensor:
#      x y z
#    x 1.583450 0.000000 0.000000 
#    y 0.000000 1.583450 0.000000 
#    z 0.000000 0.000000 1.604330 
# 
# From -- ./inp_files/10562.got.cif
#   From: 2010.03.12/outbox.cif.g09.slc.cpg/sg131_6_cif.got.tgz:10562.got - 2010.04.06 17:36:35.
