data_PCOD8315402
_publ_section_title
;
Structure prediction by ZEFSAII (Michael W. Deem and Ramdas Pophale) SiO2 
 PCOD8315402
Probable space group: P 4/N M M
;
_chemical_formula_sum "Si O2"
_cell_formula_units_Z 56
_cell_length_a 13.530262
_cell_length_b 13.530262
_cell_length_c 17.972059
_cell_angle_alpha 90.000000
_cell_angle_beta 90.000000
_cell_angle_gamma 90.000000
_cell_volume 3290.108713
_symmetry_space_group_name_H-M "P 4/N M M"
_symmetry_group_IT_number 129
_symmetry_cell_setting 'tetragonal'
loop_
_space_group_symop_operation_xyz
x,y,z
1/2-y,x,z
1/2-x,1/2-y,z
y,1/2-x,z
1/2+x,-y,-z
-x,1/2+y,-z
1/2+y,1/2+x,-z
-y,-x,-z
-x,-y,-z
1/2+y,-x,-z
1/2+x,1/2+y,-z
-y,1/2+x,-z
1/2-x,y,z
x,1/2-y,z
1/2-y,1/2-x,z
y,x,z
loop_
_atom_site_type_symbol
_atom_site_label
_atom_site_fract_x
_atom_site_fract_y
_atom_site_fract_z
Si Si1 0.637039 0.481274 0.139538
Si Si2 0.473623 0.634843 0.306341
Si Si3 0.135605 0.635605 0.000000
Si Si4 0.028733 0.866412 0.566894
O O1 0.750000 0.500993 0.122475
O O2 0.587589 0.587589 0.135670
O O3 0.621772 0.434683 0.221609
O O4 0.591116 0.411591 0.075438
O O5 0.491583 0.750000 0.325688
O O6 0.577209 0.577209 0.319715
O O7 0.388524 0.587989 0.357283
O O8 0.112601 0.750000 0.993256
O O9 0.098451 0.901550 0.500000
O O10 0.007058 0.750000 0.560692
O O11 0.924116 0.924116 0.564826
#
# Coordination Sequence:
#
# PCOD8315402 Si02
#       4
#    16  16   8  16
#     4   9  17  29  45  65  90 119 150 186 228 273
#     4   9  18  31  47  70  97 124 157 194 233 280
#     4   9  17  28  42  62  87 115 150 190 230 273
#     4  10  21  36  53  74  99 126 158 194 231 274
#
# _framework density 17.020714999999999
#
# number of rings (size 3 to 8) (size 9 to 14) (size 15 to 20)
#    0.000    2.714    0.000    1.286    0.000    4.000 
#    0.000    5.714    0.000    5.143    0.000    0.000 
#    0.000    6.857    0.000    0.000    0.000    0.000 
#
# Total GULP energy -694123.735316 kJ/mol
# GULP energy per Si atom -12395.066702 kJ/mol
# Density = 1.698197 g / cm^3
# Si number density = 17.020715 Si / 1000 Ang^3
#
#
#
# Elastic Constant Matrix: (Units=GPa)
#
#
# Indices 1 2 3 4 5 6 
#
# 1 95.3059 45.2883 55.9063 0.0000 0.0000 0.0000
# 2 45.2883 95.3056 55.9070 0.0000 0.0000 0.0000
# 3 55.9063 55.9070 132.8771 0.0000 0.0000 0.0000
# 4 0.0000 0.0000 0.0000 26.3897 0.0000 0.0000
# 5 0.0000 0.0000 0.0000 0.0000 26.3899 0.0000
# 6 0.0000 0.0000 0.0000 0.0000 0.0000 16.5036
#
#
#
# Elastic Compliance Matrix: (Units=1/GPa)
#
#
# Indices 1 2 3 4 5 6 
#
# 1 0.015341 -0.004652 -0.004497 0.000000 0.000000 0.000000
# 2 -0.004652 0.015341 -0.004498 0.000000 0.000000 0.000000
# 3 -0.004497 -0.004498 0.011310 0.000000 0.000000 0.000000
# 4 0.000000 0.000000 0.000000 0.037894 0.000000 0.000000
# 5 0.000000 0.000000 0.000000 0.000000 0.037893 0.000000
# 6 0.000000 0.000000 0.000000 0.000000 0.000000 0.060593
#
#
# Mechanical properties :
#
#
# Convention : Reuss Voigt Hill
#
# Bulk Modulus (GPa) = 68.03036 70.85464 69.44250
# Shear Modulus (GPa) = 23.74555 24.94911 24.34733
#
# Velocity S-wave (km/s) = 3.73915 3.83274 3.78624
# Velocity P-wave (km/s) = 7.66144 7.82978 7.74606
#
# Compressibility (1/GPa) = 0.01469932
#
# Stress axis : x y z
#
# Youngs Moduli (GPa) = 65.18413 65.18332 88.41500
#
# Poissons Ratio (x) = 0.30322 0.39764
# Poissons Ratio (y) = 0.30322 0.39765
# Poissons Ratio (z) = 0.29316 0.29317
#
# Static dielectric constant tensor:
#      x y z
#    x 3.059400 0.000000 0.000000 
#    y 0.000000 3.059400 0.000000 
#    z 0.000000 0.000000 3.878110 
# 
# 
# High freq. dielectric constant tensor:
#      x y z
#    x 1.642170 0.000000 0.000000 
#    y 0.000000 1.642170 0.000000 
#    z 0.000000 0.000000 1.679550 
# 
# From -- ./inp_files/6193.got.cif
#   From: 2010.03.12/outbox.cif.g09.slc.cpg/sg129_4_cif.got.tgz:6193.got - 2010.04.06 17:19:44.
