data_PCOD8315648
_publ_section_title
;
Structure prediction by ZEFSAII (Michael W. Deem and Ramdas Pophale) SiO2 
 PCOD8315648
Probable space group: P 42/M M C
;
_chemical_formula_sum "Si O2"
_cell_formula_units_Z 112
_cell_length_a 19.629682
_cell_length_b 19.629682
_cell_length_c 17.994315
_cell_angle_alpha 90.000000
_cell_angle_beta 90.000000
_cell_angle_gamma 90.000000
_cell_volume 6933.648908
_symmetry_space_group_name_H-M "P 42/M M C"
_symmetry_group_IT_number 131
_symmetry_cell_setting 'tetragonal'
loop_
_space_group_symop_operation_xyz
x,y,z
-x,-y,z
-y,x,1/2+z
y,-x,1/2+z
-x,y,-z
x,-y,-z
y,x,1/2-z
-y,-x,1/2-z
-x,-y,-z
x,y,-z
y,-x,1/2-z
-y,x,1/2-z
x,-y,z
-x,y,z
-y,-x,1/2+z
y,x,1/2+z
loop_
_atom_site_type_symbol
_atom_site_label
_atom_site_fract_x
_atom_site_fract_y
_atom_site_fract_z
Si Si1 0.186145 0.716215 0.793649
Si Si2 0.922499 0.252103 0.417108
Si Si3 0.192502 0.573283 0.268706
Si Si4 0.576072 0.663829 0.699330
Si Si5 0.921247 0.182361 0.265694
Si Si6 0.716532 0.682850 0.916100
Si Si7 0.182153 0.370314 0.418763
O O1 0.251723 0.748278 0.750000
O O2 0.160213 0.642258 0.764553
O O3 0.121394 0.765701 0.786494
O O4 0.211845 0.705542 0.877990
O O5 0.906616 0.222024 0.500000
O O6 0.908966 0.196161 0.353393
O O7 0.875669 0.315812 0.399308
O O8 0.000000 0.277810 0.412789
O O9 0.163664 0.500000 0.237499
O O10 0.272341 0.577016 0.254200
O O11 0.179513 0.571135 0.357203
O O12 0.601986 0.601986 0.750000
O O13 0.500000 0.646585 0.671360
O O14 0.621170 0.680111 0.627035
O O15 0.893737 0.106264 0.250000
O O16 0.000000 0.187456 0.243084
O O17 0.665741 0.745467 0.916392
O O18 0.733397 0.659187 0.000000
O O19 0.169327 0.402787 0.500000
#
# Coordination Sequence:
#
# PCOD8315648 Si02
#       7
#    16  16  16  16  16  16  16
#     4  10  16  31  49  67  92 123 161 200 242 295
#     4   9  17  29  48  73  97 125 161 192 226 283
#     4  10  17  27  44  67  93 120 152 194 238 283
#     4  10  19  32  48  67  94 126 162 204 251 300
#     4  10  19  31  51  74  98 130 163 203 245 285
#     4  10  18  29  49  72  92 120 161 207 251 294
#     4  10  16  26  44  66  92 121 152 189 234 284
#
# _framework density 16.153110000000002
#
# number of rings (size 3 to 8) (size 9 to 14) (size 15 to 20)
#    0.000    2.143    4.286    1.714    0.000    0.857 
#    0.000    0.000    0.000    3.857    0.000    5.000 
#    0.000    0.000    0.000    7.143    0.000    0.000 
#
# Total GULP energy -1387719.308553 kJ/mol
# GULP energy per Si atom -12390.350969 kJ/mol
# Density = 1.611634 g / cm^3
# Si number density = 16.153110 Si / 1000 Ang^3
#
#
#
# Elastic Constant Matrix: (Units=GPa)
#
#
# Indices 1 2 3 4 5 6 
#
# 1 80.9609 34.9432 33.1587 0.0000 0.0000 0.0000
# 2 34.9432 80.9581 33.1580 0.0000 0.0000 0.0000
# 3 33.1587 33.1580 99.0646 0.0000 0.0000 0.0000
# 4 0.0000 0.0000 0.0000 15.2852 0.0000 0.0000
# 5 0.0000 0.0000 0.0000 0.0000 15.2851 0.0000
# 6 0.0000 0.0000 0.0000 0.0000 0.0000 12.3017
#
#
#
# Elastic Compliance Matrix: (Units=1/GPa)
#
#
# Indices 1 2 3 4 5 6 
#
# 1 0.016201 -0.005530 -0.003572 0.000000 0.000000 0.000000
# 2 -0.005530 0.016202 -0.003572 0.000000 0.000000 0.000000
# 3 -0.003572 -0.003572 0.012486 0.000000 0.000000 0.000000
# 4 0.000000 0.000000 0.000000 0.065423 0.000000 0.000000
# 5 0.000000 0.000000 0.000000 0.000000 0.065423 0.000000
# 6 0.000000 0.000000 0.000000 0.000000 0.000000 0.081290
#
#
# Mechanical properties :
#
#
# Convention : Reuss Voigt Hill
#
# Bulk Modulus (GPa) = 51.17407 51.50036 51.33722
# Shear Modulus (GPa) = 17.30788 19.22264 18.26526
#
# Velocity S-wave (km/s) = 3.27691 3.45342 3.36632
# Velocity P-wave (km/s) = 6.78726 6.91761 6.85275
#
# Compressibility (1/GPa) = 0.01954114
#
# Stress axis : x y z
#
# Youngs Moduli (GPa) = 61.72342 61.72128 80.09220
#
# Poissons Ratio (x) = 0.34131 0.28609
# Poissons Ratio (y) = 0.34132 0.28609
# Poissons Ratio (z) = 0.22047 0.22047
#
# Static dielectric constant tensor:
#      x y z
#    x 3.231430 0.000000 0.000000 
#    y 0.000000 3.231410 0.000000 
#    z 0.000000 0.000000 3.299590 
# 
# 
# High freq. dielectric constant tensor:
#      x y z
#    x 1.604040 0.000000 0.000000 
#    y 0.000000 1.604040 0.000000 
#    z 0.000000 0.000000 1.619890 
# 
# From -- ./inp_files/8329.got.cif
#   From: 2010.03.12/outbox.cif.g09.slc.cpg/sg131_5_cif.got.tgz:8329.got - 2010.04.06 17:36:35.
