data_PCOD8315905
_publ_section_title
;
Structure prediction by ZEFSAII (Michael W. Deem and Ramdas Pophale) SiO2 
 PCOD8315905
Probable space group: P 42/M M C
;
_chemical_formula_sum "Si O2"
_cell_formula_units_Z 96
_cell_length_a 13.942135
_cell_length_b 13.942135
_cell_length_c 28.665994
_cell_angle_alpha 90.000000
_cell_angle_beta 90.000000
_cell_angle_gamma 90.000000
_cell_volume 5572.185591
_symmetry_space_group_name_H-M "P 42/M M C"
_symmetry_group_IT_number 131
_symmetry_cell_setting 'tetragonal'
loop_
_space_group_symop_operation_xyz
x,y,z
-x,-y,z
-y,x,1/2+z
y,-x,1/2+z
-x,y,-z
x,-y,-z
y,x,1/2-z
-y,-x,1/2-z
-x,-y,-z
x,y,-z
y,-x,1/2-z
-y,x,1/2-z
x,-y,z
-x,y,z
-y,-x,1/2+z
y,x,1/2+z
loop_
_atom_site_type_symbol
_atom_site_label
_atom_site_fract_x
_atom_site_fract_y
_atom_site_fract_z
Si Si1 0.605238 0.112754 0.301480
Si Si2 0.252026 0.888826 0.774646
Si Si3 0.388067 0.781540 0.945359
Si Si4 0.886788 0.718444 0.891616
Si Si5 0.245678 0.111149 0.882458
Si Si6 0.739296 0.605973 0.054665
O O1 0.500000 0.161286 0.305933
O O2 0.649849 0.140970 0.251559
O O3 0.677032 0.147811 0.341814
O O4 0.593275 0.000000 0.306434
O O5 0.164109 0.835892 0.750000
O O6 0.268540 0.864874 0.828678
O O7 0.228587 0.000000 0.767084
O O8 0.500000 0.782706 0.933863
O O9 0.337248 0.863344 0.914453
O O10 0.346233 0.677736 0.930237
O O11 0.368409 0.802250 0.000000
O O12 0.846028 0.825964 0.897840
O O13 0.841972 0.647942 0.930000
O O14 0.000000 0.721722 0.898446
O O15 0.219555 0.000000 0.889682
O O16 0.721681 0.500000 0.076661
O O17 0.742503 0.596143 0.000000
#
# Coordination Sequence:
#
# PCOD8315905 Si02
#       6
#    16  16  16  16  16  16
#     4   9  17  29  46  68  93 124 161 200 246 301
#     4  10  19  32  49  72 101 132 167 209 258 308
#     4   9  19  36  56  78 105 137 173 216 268 320
#     4  10  19  32  49  70 100 136 172 207 248 304
#     4  10  21  34  51  75 103 135 175 221 261 305
#     4   9  18  32  51  77 105 131 165 211 259 307
#
# _framework density 17.228428999999998
#
# number of rings (size 3 to 8) (size 9 to 14) (size 15 to 20)
#    0.000    2.500    1.667    0.500    0.000    3.500 
#    0.000    6.667    0.000    0.000    0.000    4.667 
#    0.000    0.333    0.000    0.000    0.000    0.000 
#
# Total GULP energy -1190056.789470 kJ/mol
# GULP energy per Si atom -12396.424890 kJ/mol
# Density = 1.718922 g / cm^3
# Si number density = 17.228429 Si / 1000 Ang^3
#
#
#
# Elastic Constant Matrix: (Units=GPa)
#
#
# Indices 1 2 3 4 5 6 
#
# 1 102.7277 41.0833 31.0827 0.0000 0.0000 0.0000
# 2 41.0833 102.7245 31.0818 0.0000 0.0000 0.0000
# 3 31.0827 31.0818 37.7409 0.0000 0.0000 0.0000
# 4 0.0000 0.0000 0.0000 23.5388 0.0000 0.0000
# 5 0.0000 0.0000 0.0000 0.0000 23.5388 0.0000
# 6 0.0000 0.0000 0.0000 0.0000 0.0000 13.2565
#
#
#
# Elastic Compliance Matrix: (Units=1/GPa)
#
#
# Indices 1 2 3 4 5 6 
#
# 1 0.013510 -0.002712 -0.008893 0.000000 0.000000 0.000000
# 2 -0.002712 0.013510 -0.008893 0.000000 0.000000 0.000000
# 3 -0.008893 -0.008893 0.041144 0.000000 0.000000 0.000000
# 4 0.000000 0.000000 0.000000 0.042483 0.000000 0.000000
# 5 0.000000 0.000000 0.000000 0.000000 0.042483 0.000000
# 6 0.000000 0.000000 0.000000 0.000000 0.000000 0.075435
#
#
# Mechanical properties :
#
#
# Convention : Reuss Voigt Hill
#
# Bulk Modulus (GPa) = 36.80711 49.96541 43.38626
# Shear Modulus (GPa) = 17.94583 21.39652 19.67117
#
# Velocity S-wave (km/s) = 3.23095 3.52793 3.38270
# Velocity P-wave (km/s) = 5.94384 6.75720 6.36353
#
# Compressibility (1/GPa) = 0.02716867
#
# Stress axis : x y z
#
# Youngs Moduli (GPa) = 74.01973 74.01794 24.30498
#
# Poissons Ratio (x) = 0.20077 0.21614
# Poissons Ratio (y) = 0.20077 0.21613
# Poissons Ratio (z) = 0.65823 0.65821
#
# Static dielectric constant tensor:
#      x y z
#    x 3.266590 0.000000 0.000000 
#    y 0.000000 3.266590 0.000000 
#    z 0.000000 0.000000 3.297550 
# 
# 
# High freq. dielectric constant tensor:
#      x y z
#    x 1.657970 0.000000 0.000000 
#    y 0.000000 1.657970 0.000000 
#    z 0.000000 0.000000 1.665600 
# 
# From -- ./inp_files/13739.got.cif
#   From: 2010.03.12/outbox.cif.g09.slc.cpg/sg131_7_cif.got.tgz:13739.got - 2010.04.06 17:36:35.
