data_PCOD8315656
_publ_section_title
;
Structure prediction by ZEFSAII (Michael W. Deem and Ramdas Pophale) SiO2 
 PCOD8315656
Probable space group: P 42/M M C
;
_chemical_formula_sum "Si O2"
_cell_formula_units_Z 72
_cell_length_a 19.884342
_cell_length_b 19.884342
_cell_length_c 14.573373
_cell_angle_alpha 90.000000
_cell_angle_beta 90.000000
_cell_angle_gamma 90.000000
_cell_volume 5762.123058
_symmetry_space_group_name_H-M "P 42/M M C"
_symmetry_group_IT_number 131
_symmetry_cell_setting 'tetragonal'
loop_
_space_group_symop_operation_xyz
x,y,z
-x,-y,z
-y,x,1/2+z
y,-x,1/2+z
-x,y,-z
x,-y,-z
y,x,1/2-z
-y,-x,1/2-z
-x,-y,-z
x,y,-z
y,-x,1/2-z
-y,x,1/2-z
x,-y,z
-x,y,z
-y,-x,1/2+z
y,x,1/2+z
loop_
_atom_site_type_symbol
_atom_site_label
_atom_site_fract_x
_atom_site_fract_y
_atom_site_fract_z
Si Si1 0.500000 0.424873 0.390876
Si Si2 0.575748 0.745958 0.101122
Si Si3 0.668240 0.380870 0.105257
Si Si4 0.577781 0.797666 0.292348
Si Si5 0.420139 0.926181 0.396598
O O1 0.500000 0.500000 0.348127
O O2 0.500000 0.430480 0.500000
O O3 0.564616 0.384074 0.355883
O O4 0.500000 0.714929 0.107919
O O5 0.631664 0.689805 0.115539
O O6 0.585661 0.800457 0.181807
O O7 0.585076 0.779470 0.000000
O O8 0.735655 0.380682 0.165587
O O9 0.687921 0.396313 0.000000
O O10 0.500000 0.788935 0.321967
O O11 0.608085 0.867719 0.330380
O O12 0.395783 0.910977 0.500000
O O13 0.500000 0.926866 0.392603
O O14 0.393247 0.000000 0.365329
#
# Coordination Sequence:
#
# PCOD8315656 Si02
#       5
#     8  16  16  16  16
#     4   9  16  24  34  46  62  86 112 143 182 216
#     4   9  18  29  37  44  61  90 119 145 171 199
#     4  10  17  25  36  50  66  84 111 145 180 213
#     4  10  17  25  38  51  66  82 107 138 170 213
#     4   8  14  24  38  56  73  83  91 114 163 221
#
# _framework density 12.495393999999999
#
# number of rings (size 3 to 8) (size 9 to 14) (size 15 to 20)
#    0.000    2.778    1.111    2.667    0.000    3.556 
#    0.000    0.000    0.000    0.667    0.000    4.667 
#    0.000    0.000    0.000    0.000    0.000    0.000 
#
# Total GULP energy -892282.505470 kJ/mol
# GULP energy per Si atom -12392.812576 kJ/mol
# Density = 1.246695 g / cm^3
# Si number density = 12.495394 Si / 1000 Ang^3
#
#
#
# Elastic Constant Matrix: (Units=GPa)
#
#
# Indices 1 2 3 4 5 6 
#
# 1 64.9246 15.9619 38.3286 0.0000 0.0000 0.0000
# 2 15.9619 64.9246 38.3286 0.0000 0.0000 0.0000
# 3 38.3286 38.3286 86.6684 0.0000 0.0000 0.0000
# 4 0.0000 0.0000 0.0000 12.5267 0.0000 0.0000
# 5 0.0000 0.0000 0.0000 0.0000 12.5267 0.0000
# 6 0.0000 0.0000 0.0000 0.0000 0.0000 3.6017
#
#
#
# Elastic Compliance Matrix: (Units=1/GPa)
#
#
# Indices 1 2 3 4 5 6 
#
# 1 0.020853 0.000430 -0.009412 0.000000 0.000000 0.000000
# 2 0.000430 0.020853 -0.009412 0.000000 0.000000 0.000000
# 3 -0.009412 -0.009412 0.019863 0.000000 0.000000 0.000000
# 4 0.000000 0.000000 0.000000 0.079830 0.000000 0.000000
# 5 0.000000 0.000000 0.000000 0.000000 0.079830 0.000000
# 6 0.000000 0.000000 0.000000 0.000000 0.000000 0.277645
#
#
# Mechanical properties :
#
#
# Convention : Reuss Voigt Hill
#
# Bulk Modulus (GPa) = 40.35464 44.63953 42.49709
# Shear Modulus (GPa) = 9.19245 13.99092 11.59168
#
# Velocity S-wave (km/s) = 2.71526 3.34980 3.04908
# Velocity P-wave (km/s) = 6.49584 7.12488 6.81762
#
# Compressibility (1/GPa) = 0.02478030
#
# Stress axis : x y z
#
# Youngs Moduli (GPa) = 47.95367 47.95367 50.34391
#
# Poissons Ratio (x) = -0.02061 0.47386
# Poissons Ratio (y) = -0.02061 0.47386
# Poissons Ratio (z) = 0.45136 0.45136
#
# Static dielectric constant tensor:
#      x y z
#    x 2.391530 0.000000 0.000000 
#    y 0.000000 2.391530 0.000000 
#    z 0.000000 0.000000 2.732270 
# 
# 
# High freq. dielectric constant tensor:
#      x y z
#    x 1.432550 0.000000 0.000000 
#    y 0.000000 1.432550 0.000000 
#    z 0.000000 0.000000 1.485750 
# 
# From -- ./inp_files/7722.got.cif
#   From: 2010.03.12/outbox.cif.g09.slc.cpg/sg131_4_cif.got.tgz:7722.got - 2010.04.06 17:36:35.
