data_PCOD8315409
_publ_section_title
;
Structure prediction by ZEFSAII (Michael W. Deem and Ramdas Pophale) SiO2 
 PCOD8315409
Probable space group: P 4/N M M
;
_chemical_formula_sum "Si O2"
_cell_formula_units_Z 96
_cell_length_a 24.531558
_cell_length_b 24.531558
_cell_length_c 7.579252
_cell_angle_alpha 90.000000
_cell_angle_beta 90.000000
_cell_angle_gamma 90.000000
_cell_volume 4561.173677
_symmetry_space_group_name_H-M "P 4/N M M"
_symmetry_group_IT_number 129
_symmetry_cell_setting 'tetragonal'
loop_
_space_group_symop_operation_xyz
x,y,z
1/2-y,x,z
1/2-x,1/2-y,z
y,1/2-x,z
1/2+x,-y,-z
-x,1/2+y,-z
1/2+y,1/2+x,-z
-y,-x,-z
-x,-y,-z
1/2+y,-x,-z
1/2+x,1/2+y,-z
-y,1/2+x,-z
1/2-x,y,z
x,1/2-y,z
1/2-y,1/2-x,z
y,x,z
loop_
_atom_site_type_symbol
_atom_site_label
_atom_site_fract_x
_atom_site_fract_y
_atom_site_fract_z
Si Si1 0.101051 0.311265 0.293193
Si Si2 0.599296 0.191755 0.499996
Si Si3 0.479757 0.661919 0.201328
Si Si4 0.661920 0.020243 0.798682
Si Si5 0.311265 0.398950 0.706789
Si Si6 0.458343 0.958344 0.208684
O O1 0.121821 0.250000 0.249710
O O2 0.145276 0.354725 0.217794
O O3 0.094089 0.319700 0.499991
O O4 0.042201 0.318966 0.205557
O O5 0.642033 0.142033 0.500000
O O6 0.630946 0.250000 0.499996
O O7 0.560763 0.194519 0.672443
O O8 0.560764 0.194519 0.327547
O O9 0.542201 0.681032 0.205572
O O10 0.475738 0.600758 0.274311
O O11 0.458768 0.667802 0.000005
O O12 0.600759 0.024259 0.725695
O O13 0.250000 0.378181 0.750274
O O14 0.354724 0.354724 0.782187
O O15 0.500000 0.000001 0.298570
O O16 0.461650 0.961650 0.000000
#
# Coordination Sequence:
#
# PCOD8315409 Si02
#       6
#    16  16  16  16  16  16
#     4  10  21  37  58  87 125 170 219 268 316 367
#     4  12  26  45  68  96 127 161 205 251 305 376
#     4  11  22  40  65  95 128 162 204 255 313 374
#     4  11  22  40  65  95 128 162 204 255 313 374
#     4  10  21  37  58  87 125 170 219 268 316 367
#     4   9  18  33  57  91 128 162 196 240 302 375
#
# _framework density 21.047215000000001
#
# number of rings (size 3 to 8) (size 9 to 14) (size 15 to 20)
#    0.000    1.500    3.333    2.000    0.000    5.167 
#    0.000    2.500    0.000    0.000    0.000    4.667 
#    0.000    0.000    0.000    0.000    0.000    0.000 
#
# Total GULP energy -1190020.783258 kJ/mol
# GULP energy per Si atom -12396.049826 kJ/mol
# Density = 2.099931 g / cm^3
# Si number density = 21.047215 Si / 1000 Ang^3
#
#
#
# Elastic Constant Matrix: (Units=GPa)
#
#
# Indices 1 2 3 4 5 6 
#
# 1 128.8346 51.5607 30.5290 0.0000 0.0000 0.0000
# 2 51.5607 128.8346 30.5290 0.0000 0.0000 0.0000
# 3 30.5290 30.5290 92.3311 0.0000 0.0000 0.0000
# 4 0.0000 0.0000 0.0000 4.9111 0.0000 0.0000
# 5 0.0000 0.0000 0.0000 0.0000 4.9111 0.0000
# 6 0.0000 0.0000 0.0000 0.0000 0.0000 19.2290
#
#
#
# Elastic Compliance Matrix: (Units=1/GPa)
#
#
# Indices 1 2 3 4 5 6 
#
# 1 0.009591 -0.003350 -0.002064 0.000000 0.000000 0.000000
# 2 -0.003350 0.009591 -0.002064 0.000000 0.000000 0.000000
# 3 -0.002064 -0.002064 0.012195 0.000000 0.000000 0.000000
# 4 0.000000 0.000000 0.000000 0.203621 0.000000 0.000000
# 5 0.000000 0.000000 0.000000 0.000000 0.203621 0.000000
# 6 0.000000 0.000000 0.000000 0.000000 0.000000 0.052005
#
#
# Mechanical properties :
#
#
# Convention : Reuss Voigt Hill
#
# Bulk Modulus (GPa) = 60.88734 63.91531 62.40132
# Shear Modulus (GPa) = 9.78370 21.63566 15.70968
#
# Velocity S-wave (km/s) = 2.15837 3.20966 2.73500
# Velocity P-wave (km/s) = 5.93322 6.64600 6.29970
#
# Compressibility (1/GPa) = 0.01642378
#
# Stress axis : x y z
#
# Youngs Moduli (GPa) = 104.25940 104.25940 81.99803
#
# Poissons Ratio (x) = 0.34922 0.16923
# Poissons Ratio (y) = 0.34922 0.16923
# Poissons Ratio (z) = 0.21518 0.21518
#
# Static dielectric constant tensor:
#      x y z
#    x 3.914580 0.000000 0.000000 
#    y 0.000000 3.914580 0.000000 
#    z 0.000000 0.000000 3.637950 
# 
# 
# High freq. dielectric constant tensor:
#      x y z
#    x 1.822810 0.000000 0.000000 
#    y 0.000000 1.822810 0.000000 
#    z 0.000000 0.000000 1.821800 
# 
# From -- ./inp_files/2590.got.cif
#   From: 2010.03.12/outbox.cif.g09.slc.cpg/sg129_2_cif.got.tgz:2590.got - 2010.04.06 17:19:44.
