data_PCOD8315713
_publ_section_title
;
Structure prediction by ZEFSAII (Michael W. Deem and Ramdas Pophale) SiO2 
 PCOD8315713
Probable space group: P 42/M M C
;
_chemical_formula_sum "Si O2"
_cell_formula_units_Z 64
_cell_length_a 11.923653
_cell_length_b 11.923653
_cell_length_c 30.882018
_cell_angle_alpha 90.000000
_cell_angle_beta 90.000000
_cell_angle_gamma 90.000000
_cell_volume 4390.604613
_symmetry_space_group_name_H-M "P 42/M M C"
_symmetry_group_IT_number 131
_symmetry_cell_setting 'tetragonal'
loop_
_space_group_symop_operation_xyz
x,y,z
-x,-y,z
-y,x,1/2+z
y,-x,1/2+z
-x,y,-z
x,-y,-z
y,x,1/2-z
-y,-x,1/2-z
-x,-y,-z
x,y,-z
y,-x,1/2-z
-y,x,1/2-z
x,-y,z
-x,y,z
-y,-x,1/2+z
y,x,1/2+z
loop_
_atom_site_type_symbol
_atom_site_label
_atom_site_fract_x
_atom_site_fract_y
_atom_site_fract_z
Si Si1 0.257837 0.867459 0.711918
Si Si2 0.124917 0.866881 0.373072
Si Si3 0.730846 0.866334 0.451894
Si Si4 0.500000 0.867874 0.315898
Si Si5 0.500000 0.133807 0.412827
O O1 0.199474 0.800527 0.750000
O O2 0.200748 0.829051 0.667149
O O3 0.388626 0.831840 0.710234
O O4 0.242282 0.000000 0.719897
O O5 0.177944 0.820165 0.417704
O O6 0.000000 0.816772 0.367968
O O7 0.120512 0.000000 0.374834
O O8 0.760498 0.821728 0.500000
O O9 0.608666 0.821395 0.438173
O O10 0.730275 0.000000 0.451319
O O11 0.500000 0.815928 0.364173
O O12 0.500000 0.000000 0.322018
O O13 0.500000 0.000000 0.411151
#
# Coordination Sequence:
#
# PCOD8315713 Si02
#       5
#    16  16  16   8   8
#     4  10  18  28  42  59  78 102 134 170 206 245
#     4   9  16  24  33  48  73 103 134 167 202 241
#     4   9  15  21  31  47  68  99 138 175 205 234
#     4   9  16  27  42  56  75 103 133 168 206 244
#     4   9  13  22  35  48  67  95 136 177 206 233
#
# _framework density 14.57658
#
# number of rings (size 3 to 8) (size 9 to 14) (size 15 to 20)
#    0.000    2.750    2.500    1.125    0.000    3.250 
#    0.000    2.500    0.000    0.375    0.000    0.000 
#    0.000    0.000    0.000    1.125    0.000   16.250 
#
# Total GULP energy -793235.096635 kJ/mol
# GULP energy per Si atom -12394.298385 kJ/mol
# Density = 1.454340 g / cm^3
# Si number density = 14.576580 Si / 1000 Ang^3
#
#
#
# Elastic Constant Matrix: (Units=GPa)
#
#
# Indices 1 2 3 4 5 6 
#
# 1 70.5520 20.8981 46.2359 0.0000 0.0000 0.0000
# 2 20.8981 70.5508 46.2360 0.0000 0.0000 0.0000
# 3 46.2359 46.2360 136.6249 0.0000 0.0000 0.0000
# 4 0.0000 0.0000 0.0000 4.2981 0.0000 0.0000
# 5 0.0000 0.0000 0.0000 0.0000 4.2975 0.0000
# 6 0.0000 0.0000 0.0000 0.0000 0.0000 5.8817
#
#
#
# Elastic Compliance Matrix: (Units=1/GPa)
#
#
# Indices 1 2 3 4 5 6 
#
# 1 0.018381 -0.001758 -0.005626 0.000000 0.000000 0.000000
# 2 -0.001758 0.018382 -0.005626 0.000000 0.000000 0.000000
# 3 -0.005626 -0.005626 0.011127 0.000000 0.000000 0.000000
# 4 0.000000 0.000000 0.000000 0.232663 0.000000 0.000000
# 5 0.000000 0.000000 0.000000 0.000000 0.232695 0.000000
# 6 0.000000 0.000000 0.000000 0.000000 0.000000 0.170019
#
#
# Mechanical properties :
#
#
# Convention : Reuss Voigt Hill
#
# Bulk Modulus (GPa) = 45.72186 56.05198 50.88692
# Shear Modulus (GPa) = 6.97763 13.85262 10.41513
#
# Velocity S-wave (km/s) = 2.19027 3.08609 2.67593
# Velocity P-wave (km/s) = 6.15070 7.15790 6.67333
#
# Compressibility (1/GPa) = 0.02187138
#
# Stress axis : x y z
#
# Youngs Moduli (GPa) = 54.40281 54.40157 89.87197
#
# Poissons Ratio (x) = 0.09564 0.50558
# Poissons Ratio (y) = 0.09564 0.50560
# Poissons Ratio (z) = 0.30605 0.30605
#
# Static dielectric constant tensor:
#      x y z
#    x 2.633140 0.000000 0.000000 
#    y 0.000000 2.633140 0.000000 
#    z 0.000000 0.000000 3.024620 
# 
# 
# High freq. dielectric constant tensor:
#      x y z
#    x 1.511530 0.000000 0.000000 
#    y 0.000000 1.511530 0.000000 
#    z 0.000000 0.000000 1.572870 
# 
# From -- ./inp_files/11971.got.cif
#   From: 2010.03.12/outbox.cif.g09.slc.cpg/sg131_6_cif.got.tgz:11971.got - 2010.04.06 17:36:35.
