data_PCOD8315196
_publ_section_title
;
Structure prediction by ZEFSAII (Michael W. Deem and Ramdas Pophale) SiO2 
 PCOD8315196
Probable space group: P 4/N M M
;
_chemical_formula_sum "Si O2"
_cell_formula_units_Z 112
_cell_length_a 30.796329
_cell_length_b 30.796329
_cell_length_c 6.306468
_cell_angle_alpha 90.000000
_cell_angle_beta 90.000000
_cell_angle_gamma 90.000000
_cell_volume 5981.141784
_symmetry_space_group_name_H-M "P 4/N M M"
_symmetry_group_IT_number 129
_symmetry_cell_setting 'tetragonal'
loop_
_space_group_symop_operation_xyz
x,y,z
1/2-y,x,z
1/2-x,1/2-y,z
y,1/2-x,z
1/2+x,-y,-z
-x,1/2+y,-z
1/2+y,1/2+x,-z
-y,-x,-z
-x,-y,-z
1/2+y,-x,-z
1/2+x,1/2+y,-z
-y,1/2+x,-z
1/2-x,y,z
x,1/2-y,z
1/2-y,1/2-x,z
y,x,z
loop_
_atom_site_type_symbol
_atom_site_label
_atom_site_fract_x
_atom_site_fract_y
_atom_site_fract_z
Si Si1 0.798044 0.058129 0.286365
Si Si2 0.700513 0.363193 0.595699
Si Si3 0.926512 0.643013 0.363847
Si Si4 0.355585 0.919467 0.097346
Si Si5 0.002390 0.838679 0.635179
Si Si6 0.201244 0.443476 0.022972
Si Si7 0.700558 0.631354 0.654288
O O1 0.750000 0.050799 0.195702
O O2 0.801844 0.103805 0.402472
O O3 0.807847 0.019644 0.449089
O O4 0.830039 0.056846 0.089213
O O5 0.681230 0.318771 0.500000
O O6 0.750000 0.355245 0.671749
O O7 0.672874 0.381296 0.794571
O O8 0.901589 0.598412 0.308445
O O9 0.893725 0.678047 0.461348
O O10 0.964933 0.631042 0.531438
O O11 0.947073 0.664442 0.155529
O O12 0.366851 0.957561 0.267583
O O13 0.399653 0.899653 0.000000
O O14 0.981919 0.807216 0.810684
O O15 0.250000 0.449788 0.931227
O O16 0.197413 0.396598 0.132111
O O17 0.750000 0.640696 0.588954
O O18 0.676971 0.676971 0.697554
#
# Coordination Sequence:
#
# PCOD8315196 Si02
#       7
#    16  16  16  16  16  16  16
#     4  10  20  35  55  80 112 142 174 223 275 319
#     4  10  20  35  54  78 108 145 186 222 258 304
#     4  10  20  35  53  75 107 143 177 219 273 331
#     4  11  21  36  57  79 107 142 181 220 270 324
#     4  10  22  34  53  83 108 138 176 222 273 330
#     4  10  19  33  53  79 108 138 177 222 273 328
#     4   9  18  31  48  73 105 144 187 226 264 310
#
# _framework density 18.725521000000001
#
# number of rings (size 3 to 8) (size 9 to 14) (size 15 to 20)
#    0.000    2.000    1.429    2.571    0.000    5.429 
#    0.000    0.000    0.000    0.429    0.000    6.000 
#    0.000    0.000    0.000    0.000    0.000    0.000 
#
# Total GULP energy -1388652.635682 kJ/mol
# GULP energy per Si atom -12398.684247 kJ/mol
# Density = 1.868290 g / cm^3
# Si number density = 18.725521 Si / 1000 Ang^3
#
#
#
# Elastic Constant Matrix: (Units=GPa)
#
#
# Indices 1 2 3 4 5 6 
#
# 1 97.5792 53.2916 40.4219 0.0000 0.0000 0.0000
# 2 53.2916 97.5839 40.4227 0.0000 0.0000 0.0000
# 3 40.4219 40.4227 89.8773 0.0000 0.0000 0.0000
# 4 0.0000 0.0000 0.0000 27.1991 0.0000 0.0000
# 5 0.0000 0.0000 0.0000 0.0000 27.1989 0.0000
# 6 0.0000 0.0000 0.0000 0.0000 0.0000 14.7677
#
#
#
# Elastic Compliance Matrix: (Units=1/GPa)
#
#
# Indices 1 2 3 4 5 6 
#
# 1 0.015656 -0.006923 -0.003928 0.000000 0.000000 0.000000
# 2 -0.006923 0.015655 -0.003927 0.000000 0.000000 0.000000
# 3 -0.003928 -0.003927 0.014659 0.000000 0.000000 0.000000
# 4 0.000000 0.000000 0.000000 0.036766 0.000000 0.000000
# 5 0.000000 0.000000 0.000000 0.000000 0.036766 0.000000
# 6 0.000000 0.000000 0.000000 0.000000 0.000000 0.067715
#
#
# Mechanical properties :
#
#
# Convention : Reuss Voigt Hill
#
# Bulk Modulus (GPa) = 60.92242 61.47920 61.20081
# Shear Modulus (GPa) = 22.49769 23.89341 23.19555
#
# Velocity S-wave (km/s) = 3.46995 3.57596 3.52335
# Velocity P-wave (km/s) = 6.97561 7.06775 7.02183
#
# Compressibility (1/GPa) = 0.01641432
#
# Stress axis : x y z
#
# Youngs Moduli (GPa) = 63.87349 63.87670 68.21719
#
# Poissons Ratio (x) = 0.44221 0.26793
# Poissons Ratio (y) = 0.44219 0.26792
# Poissons Ratio (z) = 0.25087 0.25087
#
# Static dielectric constant tensor:
#      x y z
#    x 3.419400 0.000000 0.000000 
#    y 0.000000 3.419400 0.000000 
#    z 0.000000 0.000000 3.492560 
# 
# 
# High freq. dielectric constant tensor:
#      x y z
#    x 1.712520 0.000000 0.000000 
#    y 0.000000 1.712520 0.000000 
#    z 0.000000 0.000000 1.736170 
# 
# From -- ./inp_files/1165.got.cif
#   From: 2010.03.12/outbox.cif.g09.slc.cpg/sg129_1_cif.got.tgz:1165.got - 2010.04.06 17:19:44.
