data_PCOD8315471
_publ_section_title
;
Structure prediction by ZEFSAII (Michael W. Deem and Ramdas Pophale) SiO2 
 PCOD8315471
Probable space group: P 4/N C C
;
_chemical_formula_sum "Si O2"
_cell_formula_units_Z 112
_cell_length_a 21.676183
_cell_length_b 21.676183
_cell_length_c 12.598848
_cell_angle_alpha 90.000000
_cell_angle_beta 90.000000
_cell_angle_gamma 90.000000
_cell_volume 5919.655784
_symmetry_space_group_name_H-M "P 4/N C C"
_symmetry_group_IT_number 130
_symmetry_cell_setting 'tetragonal'
loop_
_space_group_symop_operation_xyz
x,y,z
1/2-y,x,z
1/2-x,1/2-y,z
y,1/2-x,z
1/2+x,-y,1/2-z
-x,1/2+y,1/2-z
1/2+y,1/2+x,1/2-z
-y,-x,1/2-z
-x,-y,-z
1/2+y,-x,-z
1/2+x,1/2+y,-z
-y,1/2+x,-z
1/2-x,y,1/2+z
x,1/2-y,1/2+z
1/2-y,1/2-x,1/2+z
y,x,1/2+z
loop_
_atom_site_type_symbol
_atom_site_label
_atom_site_fract_x
_atom_site_fract_y
_atom_site_fract_z
Si Si1 0.219511 0.445282 0.675238
Si Si2 0.297422 0.339275 0.327407
Si Si3 0.023633 0.764266 0.127947
Si Si4 0.517900 0.351031 0.494823
Si Si5 0.609652 0.074345 0.136304
Si Si6 0.681962 0.920643 0.985067
Si Si7 0.038816 0.055240 0.951805
O O1 0.182925 0.391984 0.741477
O O2 0.239746 0.502528 0.749768
O O3 0.173939 0.473031 0.587192
O O4 0.282060 0.415417 0.626255
O O5 0.224339 0.332495 0.309316
O O6 0.317403 0.357006 0.447907
O O7 0.074587 0.817448 0.110014
O O8 0.048890 0.699222 0.083162
O O9 0.964468 0.776777 0.057359
O O10 0.574987 0.387430 0.546246
O O11 0.475850 0.395997 0.419975
O O12 0.604064 0.104064 0.250000
O O13 0.584528 0.002915 0.142594
O O14 0.612356 0.946527 0.967652
O O15 0.000000 0.000000 0.000000
#
# Coordination Sequence:
#
# PCOD8315471 Si02
#       7
#    16  16  16  16  16  16  16
#     4  10  20  34  54  80 105 151 194 232 284 342
#     4  10  23  36  47  72 109 151 201 246 281 327
#     4   9  19  36  54  83 112 142 184 227 283 344
#     4  10  20  35  59  84 112 149 187 232 291 342
#     4  10  18  37  60  86 117 151 189 232 291 357
#     4   9  20  34  53  71 107 146 185 234 282 328
#     4   9  20  35  54  83 115 142 186 239 289 341
#
# _framework density 18.920017999999999
#
# number of rings (size 3 to 8) (size 9 to 14) (size 15 to 20)
#    0.000    2.429    1.429    0.000    8.000    0.000 
#    5.143    1.429    0.000    0.429    0.000    1.000 
#    0.000    0.000    0.000    0.000    0.000    0.000 
#
# Total GULP energy -1387498.438642 kJ/mol
# GULP energy per Si atom -12388.378916 kJ/mol
# Density = 1.887696 g / cm^3
# Si number density = 18.920018 Si / 1000 Ang^3
#
#
#
# Elastic Constant Matrix: (Units=GPa)
#
#
# Indices 1 2 3 4 5 6 
#
# 1 97.9660 39.1436 27.0399 0.0000 0.0000 0.0000
# 2 39.1436 97.9660 27.0399 0.0000 0.0000 0.0000
# 3 27.0399 27.0399 49.4361 0.0000 0.0000 0.0000
# 4 0.0000 0.0000 0.0000 20.8452 0.0000 0.0000
# 5 0.0000 0.0000 0.0000 0.0000 20.8452 0.0000
# 6 0.0000 0.0000 0.0000 0.0000 0.0000 26.7867
#
#
#
# Elastic Compliance Matrix: (Units=1/GPa)
#
#
# Indices 1 2 3 4 5 6 
#
# 1 0.013150 -0.003850 -0.005087 0.000000 0.000000 0.000000
# 2 -0.003850 0.013150 -0.005087 0.000000 0.000000 0.000000
# 3 -0.005087 -0.005087 0.025793 0.000000 0.000000 0.000000
# 4 0.000000 0.000000 0.000000 0.047973 0.000000 0.000000
# 5 0.000000 0.000000 0.000000 0.000000 0.047973 0.000000
# 6 0.000000 0.000000 0.000000 0.000000 0.000000 0.037332
#
#
# Mechanical properties :
#
#
# Convention : Reuss Voigt Hill
#
# Bulk Modulus (GPa) = 41.58788 47.97945 44.78366
# Shear Modulus (GPa) = 22.58025 23.83839 23.20932
#
# Velocity S-wave (km/s) = 3.45839 3.55344 3.50624
# Velocity P-wave (km/s) = 6.16246 6.50000 6.33348
#
# Compressibility (1/GPa) = 0.02404547
#
# Stress axis : x y z
#
# Youngs Moduli (GPa) = 76.04541 76.04541 38.77079
#
# Poissons Ratio (x) = 0.29280 0.19721
# Poissons Ratio (y) = 0.29280 0.19721
# Poissons Ratio (z) = 0.38682 0.38682
#
# Static dielectric constant tensor:
#      x y z
#    x 3.609840 0.000000 0.000000 
#    y 0.000000 3.609840 0.000000 
#    z 0.000000 0.000000 3.449240 
# 
# 
# High freq. dielectric constant tensor:
#      x y z
#    x 1.728200 0.000000 0.000000 
#    y 0.000000 1.728200 0.000000 
#    z 0.000000 0.000000 1.714530 
# 
# From -- ./inp_files/1863.got.cif
#   From: 2010.03.12/outbox.cif.g09.slc.cpg/sg130_1_cif.got.tgz:1863.got - 2010.04.06 17:30:23.
