data_PCOD8315295
_publ_section_title
;
Structure prediction by ZEFSAII (Michael W. Deem and Ramdas Pophale) SiO2 
 PCOD8315295
Probable space group: P 4/N M M
;
_chemical_formula_sum "Si O2"
_cell_formula_units_Z 112
_cell_length_a 14.034472
_cell_length_b 14.034472
_cell_length_c 35.496996
_cell_angle_alpha 90.000000
_cell_angle_beta 90.000000
_cell_angle_gamma 90.000000
_cell_volume 6991.715666
_symmetry_space_group_name_H-M "P 4/N M M"
_symmetry_group_IT_number 129
_symmetry_cell_setting 'tetragonal'
loop_
_space_group_symop_operation_xyz
x,y,z
1/2-y,x,z
1/2-x,1/2-y,z
y,1/2-x,z
1/2+x,-y,-z
-x,1/2+y,-z
1/2+y,1/2+x,-z
-y,-x,-z
-x,-y,-z
1/2+y,-x,-z
1/2+x,1/2+y,-z
-y,1/2+x,-z
1/2-x,y,z
x,1/2-y,z
1/2-y,1/2-x,z
y,x,z
loop_
_atom_site_type_symbol
_atom_site_label
_atom_site_fract_x
_atom_site_fract_y
_atom_site_fract_z
Si Si1 0.857620 0.139621 0.102585
Si Si2 0.859917 0.013554 0.255786
Si Si3 0.141118 0.987669 0.828557
Si Si4 0.015209 0.859875 0.474637
Si Si5 0.988115 0.358875 0.611207
Si Si6 0.479285 0.863724 0.970002
Si Si7 0.636870 0.144882 0.322665
O O1 0.750000 0.108398 0.090741
O O2 0.859664 0.250000 0.111592
O O3 0.932494 0.113528 0.070229
O O4 0.891320 0.090001 0.141034
O O5 0.750000 0.990156 0.263664
O O6 0.915103 0.915103 0.261738
O O7 0.875980 0.054002 0.213490
O O8 0.899242 0.091179 0.285219
O O9 0.250000 0.016601 0.834330
O O10 0.083680 0.083680 0.835449
O O11 0.995093 0.750000 0.484660
O O12 0.918173 0.918173 0.482633
O O13 0.048646 0.871816 0.431434
O O14 0.101216 0.898785 0.500000
O O15 0.012505 0.250000 0.620377
O O16 0.085386 0.414615 0.618221
O O17 0.907734 0.398365 0.639475
O O18 0.495588 0.750000 0.976030
O O19 0.580472 0.919529 0.973186
O O20 0.403522 0.903522 0.000000
O O21 0.750000 0.151945 0.322376
O O22 0.591182 0.250000 0.322605
#
# Coordination Sequence:
#
# PCOD8315295 Si02
#       7
#    16  16  16  16  16  16  16
#     4   9  17  29  46  67  89 115 149 186 221 259
#     4   9  17  28  42  61  85 113 144 178 216 259
#     4   9  17  28  42  61  86 115 145 178 216 258
#     4   9  18  31  46  66  91 118 150 187 225 267
#     4   9  17  29  45  65  89 115 142 174 213 258
#     4  10  20  33  50  71  94 121 152 187 228 272
#     4   9  17  28  41  58  82 111 141 173 209 250
#
# _framework density 16.018957
#
# number of rings (size 3 to 8) (size 9 to 14) (size 15 to 20)
#    0.000    2.857    0.000    1.286    0.000    2.714 
#    0.000    7.143    0.000    2.571    0.000    2.000 
#    0.000    4.571    0.000   10.571    0.000    0.857 
#
# Total GULP energy -1388438.678138 kJ/mol
# GULP energy per Si atom -12396.773912 kJ/mol
# Density = 1.598250 g / cm^3
# Si number density = 16.018957 Si / 1000 Ang^3
#
#
#
# Elastic Constant Matrix: (Units=GPa)
#
#
# Indices 1 2 3 4 5 6 
#
# 1 84.7882 45.1393 58.4935 0.0000 0.0000 0.0000
# 2 45.1393 84.7889 58.4936 0.0000 0.0000 0.0000
# 3 58.4935 58.4936 115.5349 0.0000 0.0000 0.0000
# 4 0.0000 0.0000 0.0000 26.1203 0.0000 0.0000
# 5 0.0000 0.0000 0.0000 0.0000 26.1202 0.0000
# 6 0.0000 0.0000 0.0000 0.0000 0.0000 16.7210
#
#
#
# Elastic Compliance Matrix: (Units=1/GPa)
#
#
# Indices 1 2 3 4 5 6 
#
# 1 0.019683 -0.005538 -0.007161 0.000000 0.000000 0.000000
# 2 -0.005538 0.019683 -0.007161 0.000000 0.000000 0.000000
# 3 -0.007161 -0.007161 0.015907 0.000000 0.000000 0.000000
# 4 0.000000 0.000000 0.000000 0.038284 0.000000 0.000000
# 5 0.000000 0.000000 0.000000 0.000000 0.038285 0.000000
# 6 0.000000 0.000000 0.000000 0.000000 0.000000 0.059805
#
#
# Mechanical properties :
#
#
# Convention : Reuss Voigt Hill
#
# Bulk Modulus (GPa) = 64.30472 67.70719 66.00596
# Shear Modulus (GPa) = 21.13707 21.99132 21.56420
#
# Velocity S-wave (km/s) = 3.63644 3.70919 3.67300
# Velocity P-wave (km/s) = 7.60668 7.79120 7.69949
#
# Compressibility (1/GPa) = 0.01555096
#
# Stress axis : x y z
#
# Youngs Moduli (GPa) = 50.80544 50.80603 62.86729
#
# Poissons Ratio (x) = 0.28138 0.45020
# Poissons Ratio (y) = 0.28138 0.45020
# Poissons Ratio (z) = 0.36383 0.36383
#
# Static dielectric constant tensor:
#      x y z
#    x 2.961160 0.000000 0.000000 
#    y 0.000000 2.961160 0.000000 
#    z 0.000000 0.000000 3.271700 
# 
# 
# High freq. dielectric constant tensor:
#      x y z
#    x 1.599170 0.000000 0.000000 
#    y 0.000000 1.599170 0.000000 
#    z 0.000000 0.000000 1.630970 
# 
# From -- ./inp_files/7930.got.cif
#   From: 2010.03.12/outbox.cif.g09.slc.cpg/sg129_4_cif.got.tgz:7930.got - 2010.04.06 17:19:44.
