data_PCOD8315033
_publ_section_title
;
Structure prediction by ZEFSAII (Michael W. Deem and Ramdas Pophale) SiO2 
 PCOD8315033
Probable space group: P 4/N M M
;
_chemical_formula_sum "Si O2"
_cell_formula_units_Z 128
_cell_length_a 20.142782
_cell_length_b 20.142782
_cell_length_c 19.671383
_cell_angle_alpha 90.000000
_cell_angle_beta 90.000000
_cell_angle_gamma 90.000000
_cell_volume 7981.303011
_symmetry_space_group_name_H-M "P 4/N M M"
_symmetry_group_IT_number 129
_symmetry_cell_setting 'tetragonal'
loop_
_space_group_symop_operation_xyz
x,y,z
1/2-y,x,z
1/2-x,1/2-y,z
y,1/2-x,z
1/2+x,-y,-z
-x,1/2+y,-z
1/2+y,1/2+x,-z
-y,-x,-z
-x,-y,-z
1/2+y,-x,-z
1/2+x,1/2+y,-z
-y,1/2+x,-z
1/2-x,y,z
x,1/2-y,z
1/2-y,1/2-x,z
y,x,z
loop_
_atom_site_type_symbol
_atom_site_label
_atom_site_fract_x
_atom_site_fract_y
_atom_site_fract_z
Si Si1 0.906637 0.017811 0.899230
Si Si2 0.106970 0.496198 0.496881
Si Si3 0.824912 0.436591 0.239612
Si Si4 0.824350 0.077826 0.394711
Si Si5 0.886096 0.506043 0.044905
Si Si6 0.325542 0.066458 0.834170
Si Si7 0.570196 0.327852 0.222157
Si Si8 0.826874 0.442547 0.622944
O O1 0.856926 0.020618 0.834795
O O2 0.940888 0.089897 0.913059
O O3 0.958941 0.958941 0.883938
O O4 0.862049 0.005760 0.967442
O O5 0.046243 0.546243 0.500000
O O6 0.158447 0.516427 0.555744
O O7 0.142322 0.498765 0.422908
O O8 0.078417 0.421584 0.507734
O O9 0.750000 0.426870 0.213644
O O10 0.829186 0.450682 0.319253
O O11 0.854724 0.503634 0.206950
O O12 0.861862 0.369404 0.217651
O O13 0.750000 0.103115 0.410933
O O14 0.873585 0.140118 0.401897
O O15 0.953798 0.546203 0.038075
O O16 0.830180 0.546569 0.086032
O O17 0.250000 0.083630 0.815161
O O18 0.369651 0.130350 0.816689
O O19 0.584668 0.250000 0.209102
O O20 0.539978 0.339088 0.297716
O O21 0.750000 0.434313 0.607078
#
# Coordination Sequence:
#
# PCOD8315033 Si02
#       8
#    16  16  16  16  16  16  16  16
#     4   9  16  28  46  67  91 117 150 192 234 276
#     4   9  17  29  43  61  86 115 144 176 218 264
#     4   9  18  31  45  63  88 122 159 189 225 276
#     4   9  17  29  46  66  87 114 152 191 223 262
#     4   8  15  28  46  66  87 115 152 193 233 274
#     4  10  19  31  48  69  93 121 155 194 237 284
#     4  10  19  29  44  68  93 119 153 193 234 272
#     4   9  18  30  43  63  93 122 148 181 222 273
#
# _framework density 16.037481
#
# number of rings (size 3 to 8) (size 9 to 14) (size 15 to 20)
#    0.000    2.875    1.250    1.125    0.000    2.125 
#    0.000    5.000    0.000    2.250    0.000    0.000 
#    0.000    4.250    0.000    5.500    0.000    1.500 
#
# Total GULP energy -1586041.806040 kJ/mol
# GULP energy per Si atom -12390.951610 kJ/mol
# Density = 1.600098 g / cm^3
# Si number density = 16.037481 Si / 1000 Ang^3
#
#
#
# Elastic Constant Matrix: (Units=GPa)
#
#
# Indices 1 2 3 4 5 6 
#
# 1 70.7102 40.7883 40.9542 0.0000 0.0000 0.0000
# 2 40.7883 70.7102 40.9542 0.0000 0.0000 0.0000
# 3 40.9542 40.9542 94.4671 0.0000 0.0000 0.0000
# 4 0.0000 0.0000 0.0000 22.4451 0.0000 0.0000
# 5 0.0000 0.0000 0.0000 0.0000 22.4451 0.0000
# 6 0.0000 0.0000 0.0000 0.0000 0.0000 20.5292
#
#
#
# Elastic Compliance Matrix: (Units=1/GPa)
#
#
# Indices 1 2 3 4 5 6 
#
# 1 0.023290 -0.010130 -0.005705 0.000000 0.000000 0.000000
# 2 -0.010130 0.023290 -0.005705 0.000000 0.000000 0.000000
# 3 -0.005705 -0.005705 0.015532 0.000000 0.000000 0.000000
# 4 0.000000 0.000000 0.000000 0.044553 0.000000 0.000000
# 5 0.000000 0.000000 0.000000 0.000000 0.044553 0.000000
# 6 0.000000 0.000000 0.000000 0.000000 0.000000 0.048711
#
#
# Mechanical properties :
#
#
# Convention : Reuss Voigt Hill
#
# Bulk Modulus (GPa) = 52.54471 53.47563 53.01017
# Shear Modulus (GPa) = 20.05175 20.62995 20.34085
#
# Velocity S-wave (km/s) = 3.53980 3.59048 3.56523
# Velocity P-wave (km/s) = 7.03859 7.11374 7.07626
#
# Compressibility (1/GPa) = 0.01903141
#
# Stress axis : x y z
#
# Youngs Moduli (GPa) = 42.93674 42.93674 64.38163
#
# Poissons Ratio (x) = 0.43496 0.36731
# Poissons Ratio (y) = 0.43496 0.36731
# Poissons Ratio (z) = 0.24496 0.24496
#
# Static dielectric constant tensor:
#      x y z
#    x 2.896290 0.000000 0.000000 
#    y 0.000000 2.896290 0.000000 
#    z 0.000000 0.000000 3.260390 
# 
# 
# High freq. dielectric constant tensor:
#      x y z
#    x 1.590650 0.000000 0.000000 
#    y 0.000000 1.590650 0.000000 
#    z 0.000000 0.000000 1.630970 
# 
# From -- ./inp_files/6166.got.cif
#   From: 2010.03.12/outbox.cif.g09.slc.cpg/sg129_4_cif.got.tgz:6166.got - 2010.04.06 17:19:44.
