data_PCOD8315971
_publ_section_title
;
Structure prediction by ZEFSAII (Michael W. Deem and Ramdas Pophale) SiO2 
 PCOD8315971
Probable space group: P 42/M M C
;
_chemical_formula_sum "Si O2"
_cell_formula_units_Z 104
_cell_length_a 18.058374
_cell_length_b 18.058374
_cell_length_c 17.567869
_cell_angle_alpha 90.000000
_cell_angle_beta 90.000000
_cell_angle_gamma 90.000000
_cell_volume 5728.967663
_symmetry_space_group_name_H-M "P 42/M M C"
_symmetry_group_IT_number 131
_symmetry_cell_setting 'tetragonal'
loop_
_space_group_symop_operation_xyz
x,y,z
-x,-y,z
-y,x,1/2+z
y,-x,1/2+z
-x,y,-z
x,-y,-z
y,x,1/2-z
-y,-x,1/2-z
-x,-y,-z
x,y,-z
y,-x,1/2-z
-y,x,1/2-z
x,-y,z
-x,y,z
-y,-x,1/2+z
y,x,1/2+z
loop_
_atom_site_type_symbol
_atom_site_label
_atom_site_fract_x
_atom_site_fract_y
_atom_site_fract_z
Si Si1 0.086494 0.709499 0.379380
Si Si2 0.585843 0.912792 0.000000
Si Si3 0.584735 0.313536 0.800273
Si Si4 0.664658 0.702313 0.585227
Si Si5 0.709701 0.086524 0.700268
Si Si6 0.180541 0.207546 0.084851
Si Si7 0.807651 0.582156 0.184484
O O1 0.111342 0.633801 0.424501
O O2 0.104884 0.708685 0.289675
O O3 0.126470 0.782817 0.411202
O O4 0.000000 0.721806 0.393754
O O5 0.500000 0.879856 0.000000
O O6 0.576756 0.000000 0.000000
O O7 0.625847 0.374154 0.750000
O O8 0.500000 0.337047 0.807447
O O9 0.621970 0.314347 0.882734
O O10 0.593974 0.230356 0.766931
O O11 0.640957 0.689588 0.500000
O O12 0.735872 0.753019 0.597687
O O13 0.594820 0.741327 0.624796
O O14 0.779179 0.120519 0.652559
O O15 0.635214 0.123202 0.667715
O O16 0.708331 0.000000 0.683937
O O17 0.144982 0.217607 0.000000
O O18 0.839311 0.500000 0.175251
#
# Coordination Sequence:
#
# PCOD8315971 Si02
#       7
#    16   8  16  16  16  16  16
#     4  10  19  33  54  79 109 147 187 216 259 327
#     4   9  18  32  50  78 117 153 182 215 259 319
#     4   9  17  30  48  69  96 130 165 203 250 307
#     4   9  18  31  49  71  95 127 167 211 258 303
#     4  10  21  34  53  81 107 137 178 227 275 320
#     4  10  19  34  55  75 104 141 181 225 268 320
#     4   9  18  33  51  70  96 132 170 206 252 317
#
# _framework density 18.153358000000001
#
# number of rings (size 3 to 8) (size 9 to 14) (size 15 to 20)
#    0.000    2.538    0.769    1.385    0.000    4.462 
#    0.000    2.308    0.000    0.462    0.000   11.846 
#    0.000    0.000    0.000    0.000    0.000    0.000 
#
# Total GULP energy -1288741.712416 kJ/mol
# GULP energy per Si atom -12391.747235 kJ/mol
# Density = 1.811204 g / cm^3
# Si number density = 18.153358 Si / 1000 Ang^3
#
#
#
# Elastic Constant Matrix: (Units=GPa)
#
#
# Indices 1 2 3 4 5 6 
#
# 1 83.7349 36.9172 36.8742 0.0000 0.0000 0.0000
# 2 36.9172 83.7356 36.8750 0.0000 0.0000 0.0000
# 3 36.8742 36.8750 115.5244 0.0000 0.0000 0.0000
# 4 0.0000 0.0000 0.0000 18.6067 0.0000 0.0000
# 5 0.0000 0.0000 0.0000 0.0000 18.6060 0.0000
# 6 0.0000 0.0000 0.0000 0.0000 0.0000 21.3463
#
#
#
# Elastic Compliance Matrix: (Units=1/GPa)
#
#
# Indices 1 2 3 4 5 6 
#
# 1 0.015828 -0.005531 -0.003287 0.000000 0.000000 0.000000
# 2 -0.005531 0.015828 -0.003287 0.000000 0.000000 0.000000
# 3 -0.003287 -0.003287 0.010754 0.000000 0.000000 0.000000
# 4 0.000000 0.000000 0.000000 0.053744 0.000000 0.000000
# 5 0.000000 0.000000 0.000000 0.000000 0.053746 0.000000
# 6 0.000000 0.000000 0.000000 0.000000 0.000000 0.046847
#
#
# Mechanical properties :
#
#
# Convention : Reuss Voigt Hill
#
# Bulk Modulus (GPa) = 54.93963 56.03641 55.48802
# Shear Modulus (GPa) = 22.02406 23.20036 22.61221
#
# Velocity S-wave (km/s) = 3.48691 3.57882 3.53317
# Velocity P-wave (km/s) = 6.82212 6.92911 6.87582
#
# Compressibility (1/GPa) = 0.01820180
#
# Stress axis : x y z
#
# Youngs Moduli (GPa) = 63.17784 63.17797 92.98464
#
# Poissons Ratio (x) = 0.34943 0.30562
# Poissons Ratio (y) = 0.34943 0.30563
# Poissons Ratio (z) = 0.20765 0.20766
#
# Static dielectric constant tensor:
#      x y z
#    x 3.255750 0.000000 0.000000 
#    y 0.000000 3.255750 0.000000 
#    z 0.000000 0.000000 3.551600 
# 
# 
# High freq. dielectric constant tensor:
#      x y z
#    x 1.687120 0.000000 0.000000 
#    y 0.000000 1.687120 0.000000 
#    z 0.000000 0.000000 1.710100 
# 
# From -- ./inp_files/8093.got.cif
#   From: 2010.03.12/outbox.cif.g09.slc.cpg/sg131_5_cif.got.tgz:8093.got - 2010.04.06 17:36:35.
