data_PCOD8315766
_publ_section_title
;
Structure prediction by ZEFSAII (Michael W. Deem and Ramdas Pophale) SiO2 
 PCOD8315766
Probable space group: P 42/M M C
;
_chemical_formula_sum "Si O2"
_cell_formula_units_Z 88
_cell_length_a 24.963204
_cell_length_b 24.963204
_cell_length_c 8.645706
_cell_angle_alpha 90.000000
_cell_angle_beta 90.000000
_cell_angle_gamma 90.000000
_cell_volume 5387.671586
_symmetry_space_group_name_H-M "P 42/M M C"
_symmetry_group_IT_number 131
_symmetry_cell_setting 'tetragonal'
loop_
_space_group_symop_operation_xyz
x,y,z
-x,-y,z
-y,x,1/2+z
y,-x,1/2+z
-x,y,-z
x,-y,-z
y,x,1/2-z
-y,-x,1/2-z
-x,-y,-z
x,y,-z
y,-x,1/2-z
-y,x,1/2-z
x,-y,z
-x,y,z
-y,-x,1/2+z
y,x,1/2+z
loop_
_atom_site_type_symbol
_atom_site_label
_atom_site_fract_x
_atom_site_fract_y
_atom_site_fract_z
Si Si1 0.828893 0.251631 0.817319
Si Si2 0.561205 0.220611 0.683996
Si Si3 0.252247 0.666315 0.316689
Si Si4 0.500000 0.940553 0.835028
Si Si5 0.708605 0.940369 0.317199
Si Si6 0.598206 0.894696 0.318374
O O1 0.801780 0.198221 0.750000
O O2 0.801836 0.305634 0.749542
O O3 0.892719 0.249217 0.775923
O O4 0.819810 0.253488 0.000000
O O5 0.563810 0.225251 0.500000
O O6 0.500000 0.231796 0.740038
O O7 0.604558 0.260031 0.762091
O O8 0.581125 0.163173 0.746306
O O9 0.303438 0.696563 0.250000
O O10 0.251179 0.670386 0.500000
O O11 0.449022 0.933371 0.727392
O O12 0.500000 0.000000 0.891286
O O13 0.500000 0.907390 0.000000
O O14 0.703680 0.945994 0.500000
O O15 0.652434 0.919431 0.246363
O O16 0.723761 0.000000 0.249754
O O17 0.605189 0.890631 0.500000
#
# Coordination Sequence:
#
# PCOD8315766 Si02
#       6
#    16  16  16   8  16  16
#     4  10  18  31  49  69  94 120 157 198 240 291
#     4  10  19  33  51  71  96 125 158 199 242 281
#     4  11  21  33  51  72  96 125 161 200 242 289
#     4  11  23  33  39  55  85 117 155 205 250 277
#     4   9  17  29  47  68  89 116 154 199 236 276
#     4  10  18  32  49  63  82 116 163 199 231 279
#
# _framework density 16.333587000000001
#
# number of rings (size 3 to 8) (size 9 to 14) (size 15 to 20)
#    0.000    1.909    2.727    4.091    0.000    2.545 
#    0.000    0.000    0.000    3.273    0.000    0.000 
#    0.000    0.727    0.000    8.364    0.000    1.636 
#
# Total GULP energy -1090158.446922 kJ/mol
# GULP energy per Si atom -12388.164170 kJ/mol
# Density = 1.629641 g / cm^3
# Si number density = 16.333587 Si / 1000 Ang^3
#
#
#
# Elastic Constant Matrix: (Units=GPa)
#
#
# Indices 1 2 3 4 5 6 
#
# 1 117.9930 53.5422 27.9912 0.0000 0.0000 0.0000
# 2 53.5422 117.9716 28.0067 0.0000 0.0000 0.0000
# 3 27.9912 28.0067 49.0572 0.0000 0.0000 0.0000
# 4 0.0000 0.0000 0.0000 17.8009 0.0000 0.0000
# 5 0.0000 0.0000 0.0000 0.0000 17.8005 0.0000
# 6 0.0000 0.0000 0.0000 0.0000 0.0000 14.9295
#
#
#
# Elastic Compliance Matrix: (Units=1/GPa)
#
#
# Indices 1 2 3 4 5 6 
#
# 1 0.011340 -0.004177 -0.004086 0.000000 0.000000 0.000000
# 2 -0.004177 0.011344 -0.004093 0.000000 0.000000 0.000000
# 3 -0.004086 -0.004093 0.025052 0.000000 0.000000 0.000000
# 4 0.000000 0.000000 0.000000 0.056177 0.000000 0.000000
# 5 0.000000 0.000000 0.000000 0.000000 0.056178 0.000000
# 6 0.000000 0.000000 0.000000 0.000000 0.000000 0.066981
#
#
# Mechanical properties :
#
#
# Convention : Reuss Voigt Hill
#
# Bulk Modulus (GPa) = 43.43117 56.01134 49.72125
# Shear Modulus (GPa) = 19.27092 21.80496 20.53794
#
# Velocity S-wave (km/s) = 3.43860 3.65770 3.54984
# Velocity P-wave (km/s) = 6.51253 7.22530 6.87815
#
# Compressibility (1/GPa) = 0.02302494
#
# Stress axis : x y z
#
# Youngs Moduli (GPa) = 88.18690 88.15310 39.91629
#
# Poissons Ratio (x) = 0.36818 0.16309
# Poissons Ratio (y) = 0.36832 0.16338
# Poissons Ratio (z) = 0.36031 0.36082
#
# Static dielectric constant tensor:
#      x y z
#    x 3.173310 0.000000 0.000000 
#    y 0.000000 3.173300 0.000000 
#    z 0.000000 0.000000 2.906440 
# 
# 
# High freq. dielectric constant tensor:
#      x y z
#    x 1.608730 0.000000 0.000000 
#    y 0.000000 1.608730 0.000000 
#    z 0.000000 0.000000 1.620850 
# 
# From -- ./inp_files/2454.got.cif
#   From: 2010.03.12/outbox.cif.g09.slc.cpg/sg131_2_cif.got.tgz:2454.got - 2010.04.06 17:36:35.
