data_PCOD8315250
_publ_section_title
;
Structure prediction by ZEFSAII (Michael W. Deem and Ramdas Pophale) SiO2 
 PCOD8315250
Probable space group: P 4/N M M
;
_chemical_formula_sum "Si O2"
_cell_formula_units_Z 96
_cell_length_a 13.564372
_cell_length_b 13.564372
_cell_length_c 30.976863
_cell_angle_alpha 90.000000
_cell_angle_beta 90.000000
_cell_angle_gamma 90.000000
_cell_volume 5699.500793
_symmetry_space_group_name_H-M "P 4/N M M"
_symmetry_group_IT_number 129
_symmetry_cell_setting 'tetragonal'
loop_
_space_group_symop_operation_xyz
x,y,z
1/2-y,x,z
1/2-x,1/2-y,z
y,1/2-x,z
1/2+x,-y,-z
-x,1/2+y,-z
1/2+y,1/2+x,-z
-y,-x,-z
-x,-y,-z
1/2+y,-x,-z
1/2+x,1/2+y,-z
-y,1/2+x,-z
1/2-x,y,z
x,1/2-y,z
1/2-y,1/2-x,z
y,x,z
loop_
_atom_site_type_symbol
_atom_site_label
_atom_site_fract_x
_atom_site_fract_y
_atom_site_fract_z
Si Si1 0.141056 0.632003 0.953212
Si Si2 0.640753 0.133084 0.452821
Si Si3 0.516066 0.361876 0.124967
Si Si4 0.474458 0.635498 0.778360
Si Si5 0.865800 0.471573 0.294620
Si Si6 0.866755 0.025003 0.630657
O O1 0.250000 0.588539 0.947597
O O2 0.144263 0.750000 0.952249
O O3 0.081009 0.588249 0.912706
O O4 0.097804 0.597804 0.000000
O O5 0.599903 0.099903 0.500000
O O6 0.750000 0.088035 0.444244
O O7 0.649699 0.250000 0.452618
O O8 0.566061 0.098608 0.415792
O O9 0.498535 0.250000 0.112874
O O10 0.408881 0.408881 0.125183
O O11 0.564553 0.374723 0.172341
O O12 0.492467 0.750000 0.766269
O O13 0.577606 0.577606 0.771007
O O14 0.389608 0.587743 0.749146
O O15 0.750000 0.495410 0.296597
O O16 0.895703 0.400586 0.333992
O O17 0.925402 0.574599 0.296685
O O18 0.750000 0.007996 0.633801
O O19 0.920473 0.920473 0.638619
#
# Coordination Sequence:
#
# PCOD8315250 Si02
#       6
#    16  16  16  16  16  16
#     4   8  14  25  40  58  81 108 140 181 225 264
#     4   8  14  26  45  68  92 118 152 196 241 280
#     4   9  17  28  42  62  88 116 146 178 212 255
#     4   9  18  31  46  67  94 122 153 187 222 263
#     4  10  21  36  53  73  95 118 147 184 226 273
#     4  10  20  32  47  69  96 127 162 196 231 272
#
# _framework density 16.843578999999998
#
# number of rings (size 3 to 8) (size 9 to 14) (size 15 to 20)
#    0.000    3.000    0.000    2.000    0.000    4.000 
#    0.000    3.333    0.000    3.000    0.000    0.000 
#    0.000    4.333    0.000    0.333    0.000    0.167 
#
# Total GULP energy -1189677.307398 kJ/mol
# GULP energy per Si atom -12392.471952 kJ/mol
# Density = 1.680524 g / cm^3
# Si number density = 16.843579 Si / 1000 Ang^3
#
#
#
# Elastic Constant Matrix: (Units=GPa)
#
#
# Indices 1 2 3 4 5 6 
#
# 1 80.1946 36.6360 45.5313 0.0000 0.0000 0.0000
# 2 36.6360 80.1946 45.5313 0.0000 0.0000 0.0000
# 3 45.5313 45.5313 130.3876 0.0000 0.0000 0.0000
# 4 0.0000 0.0000 0.0000 23.2160 0.0000 0.0000
# 5 0.0000 0.0000 0.0000 0.0000 23.2160 0.0000
# 6 0.0000 0.0000 0.0000 0.0000 0.0000 12.8738
#
#
#
# Elastic Compliance Matrix: (Units=1/GPa)
#
#
# Indices 1 2 3 4 5 6 
#
# 1 0.017359 -0.005599 -0.004107 0.000000 0.000000 0.000000
# 2 -0.005599 0.017359 -0.004107 0.000000 0.000000 0.000000
# 3 -0.004107 -0.004107 0.010538 0.000000 0.000000 0.000000
# 4 0.000000 0.000000 0.000000 0.043074 0.000000 0.000000
# 5 0.000000 0.000000 0.000000 0.000000 0.043074 0.000000
# 6 0.000000 0.000000 0.000000 0.000000 0.000000 0.077677
#
#
# Mechanical properties :
#
#
# Convention : Reuss Voigt Hill
#
# Bulk Modulus (GPa) = 56.71693 60.68598 58.70145
# Shear Modulus (GPa) = 20.61164 22.73304 21.67234
#
# Velocity S-wave (km/s) = 3.50195 3.67775 3.59093
# Velocity P-wave (km/s) = 7.07795 7.35811 7.21939
#
# Compressibility (1/GPa) = 0.01763142
#
# Stress axis : x y z
#
# Youngs Moduli (GPa) = 57.60712 57.60712 94.89865
#
# Poissons Ratio (x) = 0.32252 0.38972
# Poissons Ratio (y) = 0.32252 0.38972
# Poissons Ratio (z) = 0.23658 0.23658
#
# Static dielectric constant tensor:
#      x y z
#    x 2.946900 0.000000 0.000000 
#    y 0.000000 2.946900 0.000000 
#    z 0.000000 0.000000 3.657020 
# 
# 
# High freq. dielectric constant tensor:
#      x y z
#    x 1.622530 0.000000 0.000000 
#    y 0.000000 1.622530 0.000000 
#    z 0.000000 0.000000 1.674070 
# 
# From -- ./inp_files/7833.got.cif
#   From: 2010.03.12/outbox.cif.g09.slc.cpg/sg129_4_cif.got.tgz:7833.got - 2010.04.06 17:19:44.
