data_PCOD8315173
_publ_section_title
;
Structure prediction by ZEFSAII (Michael W. Deem and Ramdas Pophale) SiO2 
 PCOD8315173
Probable space group: P 4/N M M
;
_chemical_formula_sum "Si O2"
_cell_formula_units_Z 128
_cell_length_a 20.265016
_cell_length_b 20.265016
_cell_length_c 18.390051
_cell_angle_alpha 90.000000
_cell_angle_beta 90.000000
_cell_angle_gamma 90.000000
_cell_volume 7552.258308
_symmetry_space_group_name_H-M "P 4/N M M"
_symmetry_group_IT_number 129
_symmetry_cell_setting 'tetragonal'
loop_
_space_group_symop_operation_xyz
x,y,z
1/2-y,x,z
1/2-x,1/2-y,z
y,1/2-x,z
1/2+x,-y,-z
-x,1/2+y,-z
1/2+y,1/2+x,-z
-y,-x,-z
-x,-y,-z
1/2+y,-x,-z
1/2+x,1/2+y,-z
-y,1/2+x,-z
1/2-x,y,z
x,1/2-y,z
1/2-y,1/2-x,z
y,x,z
loop_
_atom_site_type_symbol
_atom_site_label
_atom_site_fract_x
_atom_site_fract_y
_atom_site_fract_z
Si Si1 0.980570 0.084797 0.292497
Si Si2 0.486035 0.597576 0.548756
Si Si3 0.670062 0.069500 0.037325
Si Si4 0.076397 0.176967 0.210814
Si Si5 0.824272 0.931807 0.446486
Si Si6 0.175152 0.065969 0.044922
Si Si7 0.593707 0.484110 0.176355
Si Si8 0.825383 0.570721 0.284629
O O1 0.956353 0.111761 0.370857
O O2 0.925418 0.075868 0.230805
O O3 0.033697 0.136442 0.266347
O O4 0.012293 0.012293 0.303170
O O5 0.426124 0.573877 0.500000
O O6 0.543586 0.543586 0.553919
O O7 0.513519 0.662364 0.508312
O O8 0.750000 0.083813 0.045854
O O9 0.632995 0.052720 0.112457
O O10 0.632752 0.132752 0.000000
O O11 0.658117 0.003333 0.991558
O O12 0.076052 0.250000 0.240583
O O13 0.151528 0.151528 0.211689
O O14 0.048826 0.169630 0.129628
O O15 0.750000 0.907117 0.453421
O O16 0.868770 0.868770 0.461430
O O17 0.837082 0.961444 0.364984
O O18 0.250000 0.089689 0.025557
O O19 0.123219 0.123219 0.020731
O O20 0.529722 0.529722 0.151560
O O21 0.644396 0.528314 0.220371
O O22 0.750000 0.579838 0.265282
O O23 0.856785 0.643216 0.284858
#
# Coordination Sequence:
#
# PCOD8315173 Si02
#       8
#    16  16  16  16  16  16  16  16
#     4   9  17  28  44  66  89 115 149 191 238 281
#     4   9  16  27  43  62  86 116 152 194 237 277
#     4  11  23  37  54  75  98 126 161 202 250 302
#     4   9  17  29  44  63  90 122 154 187 222 264
#     4   9  17  28  43  65  95 132 168 198 230 270
#     4   9  18  32  50  74 103 133 165 199 236 282
#     4  10  19  32  52  75  97 121 153 195 243 293
#     4   9  17  29  45  67  97 131 165 198 230 269
#
# _framework density 16.948573
#
# number of rings (size 3 to 8) (size 9 to 14) (size 15 to 20)
#    0.000    2.625    0.000    2.250    0.000    6.125 
#    0.000    2.500    0.000    0.000    0.000    5.250 
#    0.000    0.250    0.000    5.125    0.000    2.750 
#
# Total GULP energy -1585702.669281 kJ/mol
# GULP energy per Si atom -12388.302104 kJ/mol
# Density = 1.691000 g / cm^3
# Si number density = 16.948573 Si / 1000 Ang^3
#
#
#
# Elastic Constant Matrix: (Units=GPa)
#
#
# Indices 1 2 3 4 5 6 
#
# 1 74.0498 34.3983 43.9655 0.0000 0.0000 0.0000
# 2 34.3983 74.0518 43.9667 0.0000 0.0000 0.0000
# 3 43.9655 43.9667 106.4706 0.0000 0.0000 0.0000
# 4 0.0000 0.0000 0.0000 20.6076 0.0000 0.0000
# 5 0.0000 0.0000 0.0000 0.0000 20.6076 0.0000
# 6 0.0000 0.0000 0.0000 0.0000 0.0000 17.7892
#
#
#
# Elastic Compliance Matrix: (Units=1/GPa)
#
#
# Indices 1 2 3 4 5 6 
#
# 1 0.019541 -0.005678 -0.005724 0.000000 0.000000 0.000000
# 2 -0.005678 0.019541 -0.005724 0.000000 0.000000 0.000000
# 3 -0.005724 -0.005724 0.014120 0.000000 0.000000 0.000000
# 4 0.000000 0.000000 0.000000 0.048526 0.000000 0.000000
# 5 0.000000 0.000000 0.000000 0.000000 0.048526 0.000000
# 6 0.000000 0.000000 0.000000 0.000000 0.000000 0.056214
#
#
# Mechanical properties :
#
#
# Convention : Reuss Voigt Hill
#
# Bulk Modulus (GPa) = 52.77827 55.47035 54.12431
# Shear Modulus (GPa) = 20.23992 20.61698 20.42845
#
# Velocity S-wave (km/s) = 3.45946 3.49154 3.47554
# Velocity P-wave (km/s) = 6.86768 7.00387 6.93611
#
# Compressibility (1/GPa) = 0.01894719
#
# Stress axis : x y z
#
# Youngs Moduli (GPa) = 51.17488 51.17574 70.82216
#
# Poissons Ratio (x) = 0.29060 0.40540
# Poissons Ratio (y) = 0.29059 0.40541
# Poissons Ratio (z) = 0.29294 0.29295
#
# Static dielectric constant tensor:
#      x y z
#    x 3.108290 0.000000 0.000000 
#    y 0.000000 3.108290 0.000000 
#    z 0.000000 0.000000 3.402320 
# 
# 
# High freq. dielectric constant tensor:
#      x y z
#    x 1.633860 0.000000 0.000000 
#    y 0.000000 1.633860 0.000000 
#    z 0.000000 0.000000 1.666620 
# 
# From -- ./inp_files/6099.got.cif
#   From: 2010.03.12/outbox.cif.g09.slc.cpg/sg129_4_cif.got.tgz:6099.got - 2010.04.06 17:19:44.
