data_PCOD8315697
_publ_section_title
;
Structure prediction by ZEFSAII (Michael W. Deem and Ramdas Pophale) SiO2 
 PCOD8315697
Probable space group: P 42/M M C
;
_chemical_formula_sum "Si O2"
_cell_formula_units_Z 88
_cell_length_a 16.746612
_cell_length_b 16.746612
_cell_length_c 21.057528
_cell_angle_alpha 90.000000
_cell_angle_beta 90.000000
_cell_angle_gamma 90.000000
_cell_volume 5905.562954
_symmetry_space_group_name_H-M "P 42/M M C"
_symmetry_group_IT_number 131
_symmetry_cell_setting 'tetragonal'
loop_
_space_group_symop_operation_xyz
x,y,z
-x,-y,z
-y,x,1/2+z
y,-x,1/2+z
-x,y,-z
x,-y,-z
y,x,1/2-z
-y,-x,1/2-z
-x,-y,-z
x,y,-z
y,-x,1/2-z
-y,x,1/2-z
x,-y,z
-x,y,z
-y,-x,1/2+z
y,x,1/2+z
loop_
_atom_site_type_symbol
_atom_site_label
_atom_site_fract_x
_atom_site_fract_y
_atom_site_fract_z
Si Si1 0.176606 0.092829 0.872565
Si Si2 0.328705 0.907017 0.804818
Si Si3 0.905022 0.500000 0.722883
Si Si4 0.661158 0.094685 0.570834
Si Si5 0.500000 0.904882 0.368024
Si Si6 0.229648 0.094309 0.685475
Si Si7 0.090340 0.905925 0.000000
O O1 0.273029 0.107808 0.867193
O O2 0.133982 0.141766 0.816013
O O3 0.141090 0.122281 0.939487
O O4 0.157625 0.000000 0.860331
O O5 0.418779 0.870975 0.811155
O O6 0.282531 0.871578 0.743416
O O7 0.339706 0.000000 0.791390
O O8 0.874962 0.500000 0.795411
O O9 0.000000 0.500000 0.718879
O O10 0.680410 0.127540 0.500000
O O11 0.576885 0.129459 0.595355
O O12 0.729408 0.121525 0.619495
O O13 0.655072 0.000000 0.569544
O O14 0.500000 0.000000 0.368066
O O15 0.219102 0.000000 0.691119
O O16 0.000000 0.867893 0.000000
O O17 0.081014 0.000000 0.000000
#
# Coordination Sequence:
#
# PCOD8315697 Si02
#       7
#    16  16   8  16   8  16   8
#     4  10  20  31  42  56  77 106 143 180 213 245
#     4   9  17  29  43  59  75  96 127 169 215 254
#     4   9  14  25  44  58  72  93 123 163 213 265
#     4   9  16  23  34  55  81 107 135 167 201 239
#     4   9  13  22  37  54  77 104 130 163 203 245
#     4  10  18  27  40  57  81 109 140 174 204 237
#     4   9  18  32  46  57  73 104 144 181 215 253
#
# _framework density 14.901204
#
# number of rings (size 3 to 8) (size 9 to 14) (size 15 to 20)
#    0.000    2.636    1.818    1.364    1.273    2.182 
#    0.000    0.909    0.000    7.091    0.000    3.818 
#    0.000    0.000    0.000    0.000    0.000   15.455 
#
# Total GULP energy -1090181.634006 kJ/mol
# GULP energy per Si atom -12388.427659 kJ/mol
# Density = 1.486729 g / cm^3
# Si number density = 14.901204 Si / 1000 Ang^3
#
#
#
# Elastic Constant Matrix: (Units=GPa)
#
#
# Indices 1 2 3 4 5 6 
#
# 1 72.7352 13.6948 28.6159 0.0000 0.0000 0.0000
# 2 13.6948 72.7352 28.6159 0.0000 0.0000 0.0000
# 3 28.6159 28.6159 69.5973 0.0000 0.0000 0.0000
# 4 0.0000 0.0000 0.0000 16.9976 0.0000 0.0000
# 5 0.0000 0.0000 0.0000 0.0000 16.9976 0.0000
# 6 0.0000 0.0000 0.0000 0.0000 0.0000 3.0431
#
#
#
# Elastic Compliance Matrix: (Units=1/GPa)
#
#
# Indices 1 2 3 4 5 6 
#
# 1 0.016418 -0.000519 -0.006537 0.000000 0.000000 0.000000
# 2 -0.000519 0.016418 -0.006537 0.000000 0.000000 0.000000
# 3 -0.006537 -0.006537 0.019744 0.000000 0.000000 0.000000
# 4 0.000000 0.000000 0.000000 0.058832 0.000000 0.000000
# 5 0.000000 0.000000 0.000000 0.000000 0.058832 0.000000
# 6 0.000000 0.000000 0.000000 0.000000 0.000000 0.328611
#
#
# Mechanical properties :
#
#
# Convention : Reuss Voigt Hill
#
# Bulk Modulus (GPa) = 39.38030 39.65786 39.51908
# Shear Modulus (GPa) = 9.35443 17.01706 13.18575
#
# Velocity S-wave (km/s) = 2.50824 3.38300 2.97792
# Velocity P-wave (km/s) = 5.90536 6.47544 6.19696
#
# Compressibility (1/GPa) = 0.02539341
#
# Stress axis : x y z
#
# Youngs Moduli (GPa) = 60.90837 60.90837 50.64864
#
# Poissons Ratio (x) = 0.03164 0.33109
# Poissons Ratio (y) = 0.03164 0.33109
# Poissons Ratio (z) = 0.39815 0.39815
#
# Static dielectric constant tensor:
#      x y z
#    x 2.789600 0.000000 0.000000 
#    y 0.000000 2.789600 0.000000 
#    z 0.000000 0.000000 3.002220 
# 
# 
# High freq. dielectric constant tensor:
#      x y z
#    x 1.533330 0.000000 0.000000 
#    y 0.000000 1.533330 0.000000 
#    z 0.000000 0.000000 1.570450 
# 
# From -- ./inp_files/11125.got.cif
#   From: 2010.03.12/outbox.cif.g09.slc.cpg/sg131_6_cif.got.tgz:11125.got - 2010.04.06 17:36:35.
