data_PCOD8316246
_publ_section_title
;
Structure prediction by ZEFSAII (Michael W. Deem and Ramdas Pophale) SiO2 
 PCOD8316246
Probable space group: P 42/M M C
;
_chemical_formula_sum "Si O2"
_cell_formula_units_Z 40
_cell_length_a 8.179121
_cell_length_b 8.179121
_cell_length_c 28.685925
_cell_angle_alpha 90.000000
_cell_angle_beta 90.000000
_cell_angle_gamma 90.000000
_cell_volume 1919.031594
_symmetry_space_group_name_H-M "P 42/M M C"
_symmetry_group_IT_number 131
_symmetry_cell_setting 'tetragonal'
loop_
_space_group_symop_operation_xyz
x,y,z
-x,-y,z
-y,x,1/2+z
y,-x,1/2+z
-x,y,-z
x,-y,-z
y,x,1/2-z
-y,-x,1/2-z
-x,-y,-z
x,y,-z
y,-x,1/2-z
-y,x,1/2-z
x,-y,z
-x,y,z
-y,-x,1/2+z
y,x,1/2+z
loop_
_atom_site_type_symbol
_atom_site_label
_atom_site_fract_x
_atom_site_fract_y
_atom_site_fract_z
Si Si1 0.687227 0.685809 0.606556
Si Si2 0.000000 0.809647 0.948568
Si Si3 0.815629 0.683338 0.704532
O O1 0.761400 0.500000 0.598136
O O2 0.500000 0.680926 0.592462
O O3 0.703834 0.735016 0.660956
O O4 0.766344 0.830465 0.576880
O O5 0.000000 0.000000 0.954231
O O6 0.000000 0.727209 0.000000
O O7 0.794087 0.794087 0.750000
O O8 0.773197 0.500000 0.720364
O O9 0.000000 0.700991 0.686493
#
# Coordination Sequence:
#
# PCOD8316246 Si02
#       3
#    16   8  16
#     4  10  22  41  65  91 123 163 207 260 314 371
#     4  11  25  43  65  93 125 163 207 259 317 378
#     4  10  21  36  56  84 119 160 203 248 302 365
#
# _framework density 20.843845999999999
#
# number of rings (size 3 to 8) (size 9 to 14) (size 15 to 20)
#    0.000    1.800    0.000    3.000    2.800    7.200 
#    0.000    4.000    0.000    0.000    0.000    0.000 
#    0.000    0.000    0.000    0.000    0.000    0.000 
#
# Total GULP energy -495715.730848 kJ/mol
# GULP energy per Si atom -12392.893271 kJ/mol
# Density = 2.079640 g / cm^3
# Si number density = 20.843846 Si / 1000 Ang^3
#
#
#
# Elastic Constant Matrix: (Units=GPa)
#
#
# Indices 1 2 3 4 5 6 
#
# 1 92.3718 37.2456 51.3931 0.0000 0.0000 0.0000
# 2 37.2456 92.3718 51.3931 0.0000 0.0000 0.0000
# 3 51.3931 51.3931 132.6031 0.0000 0.0000 0.0000
# 4 0.0000 0.0000 0.0000 43.3020 0.0000 0.0000
# 5 0.0000 0.0000 0.0000 0.0000 43.3020 0.0000
# 6 0.0000 0.0000 0.0000 0.0000 0.0000 30.7706
#
#
#
# Elastic Compliance Matrix: (Units=1/GPa)
#
#
# Indices 1 2 3 4 5 6 
#
# 1 0.014639 -0.003501 -0.004317 0.000000 0.000000 0.000000
# 2 -0.003501 0.014639 -0.004317 0.000000 0.000000 0.000000
# 3 -0.004317 -0.004317 0.010887 0.000000 0.000000 0.000000
# 4 0.000000 0.000000 0.000000 0.023094 0.000000 0.000000
# 5 0.000000 0.000000 0.000000 0.000000 0.023094 0.000000
# 6 0.000000 0.000000 0.000000 0.000000 0.000000 0.032499
#
#
# Mechanical properties :
#
#
# Convention : Reuss Voigt Hill
#
# Bulk Modulus (GPa) = 62.90668 66.37892 64.64280
# Shear Modulus (GPa) = 33.68816 35.29590 34.49203
#
# Velocity S-wave (km/s) = 4.02458 4.11950 4.07231
# Velocity P-wave (km/s) = 7.20013 7.38525 7.29328
#
# Compressibility (1/GPa) = 0.01589656
#
# Stress axis : x y z
#
# Youngs Moduli (GPa) = 68.30952 68.30952 91.84847
#
# Poissons Ratio (x) = 0.23915 0.39650
# Poissons Ratio (y) = 0.23915 0.39650
# Poissons Ratio (z) = 0.29488 0.29488
#
# Static dielectric constant tensor:
#      x y z
#    x 3.923880 0.000000 0.000000 
#    y 0.000000 3.923880 0.000000 
#    z 0.000000 0.000000 3.766470 
# 
# 
# High freq. dielectric constant tensor:
#      x y z
#    x 1.819240 0.000000 0.000000 
#    y 0.000000 1.819240 0.000000 
#    z 0.000000 0.000000 1.810210 
# 
# From -- ./inp_files/10353.got.cif
#   From: 2010.03.12/outbox.cif.g09.slc.cpg/sg131_6_cif.got.tgz:10353.got - 2010.04.06 17:36:35.
