data_PCOD8316726
_publ_section_title
;
Structure prediction by ZEFSAII (Michael W. Deem and Ramdas Pophale) SiO2 
 PCOD8316726
Probable space group: P 42/M C M
;
_chemical_formula_sum "Si O2"
_cell_formula_units_Z 96
_cell_length_a 15.971270
_cell_length_b 15.971270
_cell_length_c 18.922809
_cell_angle_alpha 90.000000
_cell_angle_beta 90.000000
_cell_angle_gamma 90.000000
_cell_volume 4826.857849
_symmetry_space_group_name_H-M "P 42/M C M"
_symmetry_group_IT_number 132
_symmetry_cell_setting 'tetragonal'
loop_
_space_group_symop_operation_xyz
x,y,z
-y,x,1/2+z
-x,-y,z
y,-x,1/2+z
x,-y,1/2-z
-x,y,1/2-z
y,x,-z
-y,-x,-z
-x,-y,-z
y,-x,1/2-z
x,y,-z
-y,x,1/2-z
-x,y,1/2+z
x,-y,1/2+z
-y,-x,z
y,x,z
loop_
_atom_site_type_symbol
_atom_site_label
_atom_site_fract_x
_atom_site_fract_y
_atom_site_fract_z
Si Si1 0.898780 0.694867 0.078399
Si Si2 0.806956 0.328614 0.169820
Si Si3 0.542167 0.670568 0.320929
Si Si4 0.601488 0.734929 0.919144
Si Si5 0.947837 0.579528 0.420703
Si Si6 0.906823 0.776177 0.223695
O O1 0.832316 0.621122 0.094919
O O2 0.897305 0.764294 0.139398
O O3 0.990878 0.657853 0.078035
O O4 0.878684 0.733576 0.000000
O O5 0.752054 0.247947 0.138304
O O6 0.742483 0.393779 0.202946
O O7 0.864379 0.383403 0.116202
O O8 0.864086 0.300263 0.234999
O O9 0.500000 0.637434 0.250000
O O10 0.592568 0.592568 0.355336
O O11 0.478880 0.706223 0.377338
O O12 0.682843 0.682843 0.894881
O O13 0.579769 0.717884 0.000000
O O14 0.920861 0.552165 0.500000
O O15 0.000000 0.500000 0.386178
O O16 0.862958 0.862958 0.243730
O O17 0.000000 0.783722 0.250000
#
# Coordination Sequence:
#
# PCOD8316726 Si02
#       6
#    16  16  16  16  16  16
#     4  10  20  37  61  89 119 153 196 244 297 353
#     4  10  22  39  58  85 121 160 201 248 307 374
#     4  11  23  38  57  81 113 156 203 252 304 356
#     4  10  21  37  58  85 117 156 201 249 300 352
#     4  10  20  35  58  89 123 158 200 250 301 361
#     4  11  22  39  62  88 120 154 195 242 294 358
#
# _framework density 19.888714
#
# number of rings (size 3 to 8) (size 9 to 14) (size 15 to 20)
#    0.000    1.667    1.667    3.000    0.000    6.333 
#    0.000    3.333    0.000    0.500    0.000    1.167 
#    0.000    0.000    0.000    0.000    0.000    0.000 
#
# Total GULP energy -1189572.664628 kJ/mol
# GULP energy per Si atom -12391.381923 kJ/mol
# Density = 1.984345 g / cm^3
# Si number density = 19.888714 Si / 1000 Ang^3
#
#
#
# Elastic Constant Matrix: (Units=GPa)
#
#
# Indices 1 2 3 4 5 6 
#
# 1 89.4755 42.2341 44.8066 0.0000 0.0000 0.0000
# 2 42.2341 89.4755 44.8066 0.0000 0.0000 0.0000
# 3 44.8066 44.8066 93.8464 0.0000 0.0000 0.0000
# 4 0.0000 0.0000 0.0000 26.9111 0.0000 0.0000
# 5 0.0000 0.0000 0.0000 0.0000 26.9111 0.0000
# 6 0.0000 0.0000 0.0000 0.0000 0.0000 30.3113
#
#
#
# Elastic Compliance Matrix: (Units=1/GPa)
#
#
# Indices 1 2 3 4 5 6 
#
# 1 0.016207 -0.004961 -0.005369 0.000000 0.000000 0.000000
# 2 -0.004961 0.016207 -0.005369 0.000000 0.000000 0.000000
# 3 -0.005369 -0.005369 0.015783 0.000000 0.000000 0.000000
# 4 0.000000 0.000000 0.000000 0.037159 0.000000 0.000000
# 5 0.000000 0.000000 0.000000 0.000000 0.037159 0.000000
# 6 0.000000 0.000000 0.000000 0.000000 0.000000 0.032991
#
#
# Mechanical properties :
#
#
# Convention : Reuss Voigt Hill
#
# Bulk Modulus (GPa) = 59.53381 59.61024 59.57202
# Shear Modulus (GPa) = 25.97352 26.22338 26.09845
#
# Velocity S-wave (km/s) = 3.61770 3.63506 3.62639
# Velocity P-wave (km/s) = 6.88831 6.90327 6.89580
#
# Compressibility (1/GPa) = 0.01679718
#
# Stress axis : x y z
#
# Youngs Moduli (GPa) = 61.70288 61.70288 63.36066
#
# Poissons Ratio (x) = 0.30612 0.34019
# Poissons Ratio (y) = 0.30612 0.34019
# Poissons Ratio (z) = 0.33129 0.33129
#
# Static dielectric constant tensor:
#      x y z
#    x 3.756250 0.000000 0.000000 
#    y 0.000000 3.756250 0.000000 
#    z 0.000000 0.000000 3.655640 
# 
# 
# High freq. dielectric constant tensor:
#      x y z
#    x 1.780460 0.000000 0.000000 
#    y 0.000000 1.780460 0.000000 
#    z 0.000000 0.000000 1.762880 
# 
# From -- ./inp_files/7856.got.cif
#   From: 2010.03.12/outbox.cif.g09.slc.cpg/sg132_4_cif.got.tgz:7856.got - 2010.04.06 17:53:44.
