data_PCOD8316150
_publ_section_title
;
Structure prediction by ZEFSAII (Michael W. Deem and Ramdas Pophale) SiO2 
 PCOD8316150
Probable space group: P 42/M M C
;
_chemical_formula_sum "Si O2"
_cell_formula_units_Z 112
_cell_length_a 14.188754
_cell_length_b 14.188754
_cell_length_c 27.738080
_cell_angle_alpha 90.000000
_cell_angle_beta 90.000000
_cell_angle_gamma 90.000000
_cell_volume 5584.250794
_symmetry_space_group_name_H-M "P 42/M M C"
_symmetry_group_IT_number 131
_symmetry_cell_setting 'tetragonal'
loop_
_space_group_symop_operation_xyz
x,y,z
-x,-y,z
-y,x,1/2+z
y,-x,1/2+z
-x,y,-z
x,-y,-z
y,x,1/2-z
-y,-x,1/2-z
-x,-y,-z
x,y,-z
y,-x,1/2-z
-y,x,1/2-z
x,-y,z
-x,y,z
-y,-x,1/2+z
y,x,1/2+z
loop_
_atom_site_type_symbol
_atom_site_label
_atom_site_fract_x
_atom_site_fract_y
_atom_site_fract_z
Si Si1 0.611670 0.897173 0.553112
Si Si2 0.396986 0.891618 0.790903
Si Si3 0.107041 0.705141 0.613179
Si Si4 0.106633 0.892974 0.341548
Si Si5 0.284946 0.811789 0.709689
Si Si6 0.390003 0.265666 0.944289
Si Si7 0.731666 0.387980 0.880413
O O1 0.653922 0.879238 0.500000
O O2 0.500000 0.890766 0.550390
O O3 0.650438 0.820210 0.589165
O O4 0.642890 0.000000 0.572301
O O5 0.500000 0.841979 0.793874
O O6 0.329635 0.852979 0.834199
O O7 0.355847 0.883072 0.736766
O O8 0.409914 0.000000 0.802097
O O9 0.114404 0.819319 0.613971
O O10 0.170547 0.664518 0.570448
O O11 0.000000 0.672112 0.603493
O O12 0.190082 0.868751 0.304235
O O13 0.000000 0.881337 0.318486
O O14 0.119698 0.000000 0.360386
O O15 0.265217 0.734784 0.750000
O O16 0.337606 0.749628 0.669804
O O17 0.500000 0.247962 0.936927
O O18 0.360107 0.351906 0.909234
O O19 0.366822 0.290380 0.000000
O O20 0.725239 0.500000 0.874209
#
# Coordination Sequence:
#
# PCOD8316150 Si02
#       7
#    16  16  16  16  16  16  16
#     4   8  15  30  53  81 113 148 187 234 290 352
#     4  10  20  34  54  82 118 162 208 251 300 355
#     4  10  20  40  64  89 124 164 205 255 315 376
#     4  10  21  37  60  89 124 166 207 249 303 368
#     4  12  22  37  56  84 123 162 206 260 305 362
#     4  11  24  42  65  94 123 153 200 260 322 388
#     4  11  23  40  61  86 118 161 208 256 312 373
#
# _framework density 20.056405999999999
#
# number of rings (size 3 to 8) (size 9 to 14) (size 15 to 20)
#    0.000    1.714    2.857    2.143    0.000    4.000 
#    0.000    4.286    0.000    0.429    0.000    2.000 
#    0.000    0.000    0.000    0.000    0.000    0.000 
#
# Total GULP energy -1387876.008840 kJ/mol
# GULP energy per Si atom -12391.750079 kJ/mol
# Density = 2.001076 g / cm^3
# Si number density = 20.056406 Si / 1000 Ang^3
#
#
#
# Elastic Constant Matrix: (Units=GPa)
#
#
# Indices 1 2 3 4 5 6 
#
# 1 119.9459 36.4390 42.8601 0.0000 0.0000 0.0000
# 2 36.4390 119.9463 42.8601 0.0000 0.0000 0.0000
# 3 42.8601 42.8601 99.1183 0.0000 0.0000 0.0000
# 4 0.0000 0.0000 0.0000 17.1831 0.0000 0.0000
# 5 0.0000 0.0000 0.0000 0.0000 17.1822 0.0000
# 6 0.0000 0.0000 0.0000 0.0000 0.0000 24.9706
#
#
#
# Elastic Compliance Matrix: (Units=1/GPa)
#
#
# Indices 1 2 3 4 5 6 
#
# 1 0.010178 -0.001797 -0.003624 0.000000 0.000000 0.000000
# 2 -0.001797 0.010178 -0.003624 0.000000 0.000000 0.000000
# 3 -0.003624 -0.003624 0.013223 0.000000 0.000000 0.000000
# 4 0.000000 0.000000 0.000000 0.058197 0.000000 0.000000
# 5 0.000000 0.000000 0.000000 0.000000 0.058200 0.000000
# 6 0.000000 0.000000 0.000000 0.000000 0.000000 0.040047
#
#
# Mechanical properties :
#
#
# Convention : Reuss Voigt Hill
#
# Bulk Modulus (GPa) = 64.56252 64.81431 64.68842
# Shear Modulus (GPa) = 23.44383 26.32394 24.88388
#
# Velocity S-wave (km/s) = 3.42262 3.62677 3.52617
# Velocity P-wave (km/s) = 6.91950 7.06570 6.99298
#
# Compressibility (1/GPa) = 0.01548886
#
# Stress axis : x y z
#
# Youngs Moduli (GPa) = 98.25115 98.25150 75.62522
#
# Poissons Ratio (x) = 0.17656 0.27407
# Poissons Ratio (y) = 0.17656 0.27407
# Poissons Ratio (z) = 0.35607 0.35606
#
# Static dielectric constant tensor:
#      x y z
#    x 3.780600 0.000000 0.000000 
#    y 0.000000 3.780600 0.000000 
#    z 0.000000 0.000000 3.697530 
# 
# 
# High freq. dielectric constant tensor:
#      x y z
#    x 1.782940 0.000000 0.000000 
#    y 0.000000 1.782940 0.000000 
#    z 0.000000 0.000000 1.764570 
# 
# From -- ./inp_files/12435.got.cif
#   From: 2010.03.12/outbox.cif.g09.slc.cpg/sg131_7_cif.got.tgz:12435.got - 2010.04.06 17:36:35.
