data_PCOD8316190
_publ_section_title
;
Structure prediction by ZEFSAII (Michael W. Deem and Ramdas Pophale) SiO2 
 PCOD8316190
Probable space group: P 42/M M C
;
_chemical_formula_sum "Si O2"
_cell_formula_units_Z 72
_cell_length_a 20.626678
_cell_length_b 20.626678
_cell_length_c 8.559038
_cell_angle_alpha 90.000000
_cell_angle_beta 90.000000
_cell_angle_gamma 90.000000
_cell_volume 3641.526984
_symmetry_space_group_name_H-M "P 42/M M C"
_symmetry_group_IT_number 131
_symmetry_cell_setting 'tetragonal'
loop_
_space_group_symop_operation_xyz
x,y,z
-x,-y,z
-y,x,1/2+z
y,-x,1/2+z
-x,y,-z
x,-y,-z
y,x,1/2-z
-y,-x,1/2-z
-x,-y,-z
x,y,-z
y,-x,1/2-z
-y,x,1/2-z
x,-y,z
-x,y,z
-y,-x,1/2+z
y,x,1/2+z
loop_
_atom_site_type_symbol
_atom_site_label
_atom_site_fract_x
_atom_site_fract_y
_atom_site_fract_z
Si Si1 0.674544 0.769478 0.814977
Si Si2 0.177071 0.926449 0.817286
Si Si3 0.570864 0.664253 0.183414
Si Si4 0.095068 0.320647 0.818406
Si Si5 0.424530 0.000000 0.184925
O O1 0.741950 0.741950 0.750000
O O2 0.616652 0.722563 0.764865
O O3 0.661323 0.831769 0.713438
O O4 0.678502 0.783095 0.000000
O O5 0.126224 0.873777 0.750000
O O6 0.250010 0.921129 0.751658
O O7 0.152016 0.000000 0.782944
O O8 0.181671 0.912727 0.000000
O O9 0.596616 0.596616 0.250000
O O10 0.500000 0.677777 0.253451
O O11 0.568621 0.658198 0.000000
O O12 0.060557 0.382362 0.741594
O O13 0.077852 0.317980 0.000000
O O14 0.500000 0.000000 0.248463
O O15 0.427637 0.000000 0.000000
#
# Coordination Sequence:
#
# PCOD8316190 Si02
#       5
#    16  16  16  16   8
#     4  10  20  36  58  84 116 153 198 249 301 356
#     4  11  24  42  66  94 129 171 217 265 318 377
#     4   9  19  35  54  78 109 147 191 239 294 356
#     4  12  24  40  64  92 125 161 203 254 308 369
#     4  11  25  45  67  91 122 161 204 249 303 367
#
# _framework density 19.771925
#
# number of rings (size 3 to 8) (size 9 to 14) (size 15 to 20)
#    0.000    1.444    1.111    4.333    0.000    4.889 
#    0.000    4.444    0.000    0.000    0.000    0.000 
#    0.000    0.000    0.000    0.000    0.000    0.000 
#
# Total GULP energy -892360.649819 kJ/mol
# GULP energy per Si atom -12393.897914 kJ/mol
# Density = 1.972692 g / cm^3
# Si number density = 19.771925 Si / 1000 Ang^3
#
#
#
# Elastic Constant Matrix: (Units=GPa)
#
#
# Indices 1 2 3 4 5 6 
#
# 1 153.2795 69.3498 42.4737 0.0000 0.0000 0.0000
# 2 69.3498 153.2796 42.4750 0.0000 0.0000 0.0000
# 3 42.4737 42.4750 85.8162 0.0000 0.0000 0.0000
# 4 0.0000 0.0000 0.0000 31.8525 0.0000 0.0000
# 5 0.0000 0.0000 0.0000 0.0000 31.8524 0.0000
# 6 0.0000 0.0000 0.0000 0.0000 0.0000 28.6935
#
#
#
# Elastic Compliance Matrix: (Units=1/GPa)
#
#
# Indices 1 2 3 4 5 6 
#
# 1 0.008726 -0.003189 -0.002741 0.000000 0.000000 0.000000
# 2 -0.003189 0.008726 -0.002741 0.000000 0.000000 0.000000
# 3 -0.002741 -0.002741 0.014366 0.000000 0.000000 0.000000
# 4 0.000000 0.000000 0.000000 0.031395 0.000000 0.000000
# 5 0.000000 0.000000 0.000000 0.000000 0.031395 0.000000
# 6 0.000000 0.000000 0.000000 0.000000 0.000000 0.034851
#
#
# Mechanical properties :
#
#
# Convention : Reuss Voigt Hill
#
# Bulk Modulus (GPa) = 69.07097 77.88582 73.47840
# Shear Modulus (GPa) = 32.97609 34.35148 33.66379
#
# Velocity S-wave (km/s) = 4.08833 4.17272 4.13074
# Velocity P-wave (km/s) = 7.56939 7.91790 7.74560
#
# Compressibility (1/GPa) = 0.01447786
#
# Stress axis : x y z
#
# Youngs Moduli (GPa) = 114.59859 114.59751 69.60924
#
# Poissons Ratio (x) = 0.36540 0.19078
# Poissons Ratio (y) = 0.36541 0.19079
# Poissons Ratio (z) = 0.31408 0.31410
#
# Static dielectric constant tensor:
#      x y z
#    x 3.928980 0.000000 0.000000 
#    y 0.000000 3.929010 0.000000 
#    z 0.000000 0.000000 3.651650 
# 
# 
# High freq. dielectric constant tensor:
#      x y z
#    x 1.781020 0.000000 0.000000 
#    y 0.000000 1.781020 0.000000 
#    z 0.000000 0.000000 1.776880 
# 
# From -- ./inp_files/1824.got.cif
#   From: 2010.03.12/outbox.cif.g09.slc.cpg/sg131_1_cif.got.tgz:1824.got - 2010.04.06 17:36:35.
