data_PCOD8316148
_publ_section_title
;
Structure prediction by ZEFSAII (Michael W. Deem and Ramdas Pophale) SiO2 
 PCOD8316148
Probable space group: P 42/M M C
;
_chemical_formula_sum "Si O2"
_cell_formula_units_Z 112
_cell_length_a 14.949647
_cell_length_b 14.949647
_cell_length_c 27.364480
_cell_angle_alpha 90.000000
_cell_angle_beta 90.000000
_cell_angle_gamma 90.000000
_cell_volume 6115.740871
_symmetry_space_group_name_H-M "P 42/M M C"
_symmetry_group_IT_number 131
_symmetry_cell_setting 'tetragonal'
loop_
_space_group_symop_operation_xyz
x,y,z
-x,-y,z
-y,x,1/2+z
y,-x,1/2+z
-x,y,-z
x,-y,-z
y,x,1/2-z
-y,-x,1/2-z
-x,-y,-z
x,y,-z
y,-x,1/2-z
-y,x,1/2-z
x,-y,z
-x,y,z
-y,-x,1/2+z
y,x,1/2+z
loop_
_atom_site_type_symbol
_atom_site_label
_atom_site_fract_x
_atom_site_fract_y
_atom_site_fract_z
Si Si1 0.746003 0.768992 0.556794
Si Si2 0.393989 0.901901 0.804274
Si Si3 0.100424 0.100332 0.558070
Si Si4 0.395737 0.899839 0.403831
Si Si5 0.394303 0.843205 0.700999
Si Si6 0.399677 0.250651 0.875838
Si Si7 0.642163 0.398982 0.804313
O O1 0.759737 0.749567 0.500000
O O2 0.829738 0.826075 0.578535
O O3 0.656967 0.827706 0.564197
O O4 0.734859 0.671878 0.581342
O O5 0.500000 0.893962 0.800392
O O6 0.352078 0.884552 0.750364
O O7 0.360242 0.830710 0.843675
O O8 0.363850 0.000000 0.821962
O O9 0.105151 0.100077 0.500000
O O10 0.000000 0.125766 0.575456
O O11 0.125185 0.000000 0.576952
O O12 0.500000 0.875009 0.408230
O O13 0.364401 0.897051 0.347136
O O14 0.377317 0.000000 0.423694
O O15 0.500000 0.845094 0.706418
O O16 0.360468 0.742232 0.695797
O O17 0.500000 0.230175 0.896882
O O18 0.412275 0.337199 0.841465
O O19 0.602338 0.397663 0.750000
O O20 0.637059 0.500000 0.824322
#
# Coordination Sequence:
#
# PCOD8316148 Si02
#       7
#    16  16  16  16  16  16  16
#     4  11  23  37  54  75 102 139 185 237 281 317
#     4   9  17  31  52  77 105 135 167 207 257 316
#     4   8  15  31  56  82 103 123 155 208 273 330
#     4  10  20  34  54  81 112 143 172 207 262 334
#     4   9  16  29  51  78 107 137 165 199 253 320
#     4  11  23  37  52  73 103 143 188 230 271 317
#     4  11  20  33  54  79 107 138 175 222 272 319
#
# _framework density 18.313399
#
# number of rings (size 3 to 8) (size 9 to 14) (size 15 to 20)
#    0.000    2.143    2.857    1.714    0.000    4.714 
#    0.000    0.714    0.000    0.000    0.000    6.000 
#    0.000    0.000    0.000    0.714    0.000    0.714 
#
# Total GULP energy -1388302.305995 kJ/mol
# GULP energy per Si atom -12395.556304 kJ/mol
# Density = 1.827172 g / cm^3
# Si number density = 18.313399 Si / 1000 Ang^3
#
#
#
# Elastic Constant Matrix: (Units=GPa)
#
#
# Indices 1 2 3 4 5 6 
#
# 1 96.1755 33.5588 31.2511 0.0000 0.0000 0.0000
# 2 33.5588 96.1754 31.2512 0.0000 0.0000 0.0000
# 3 31.2511 31.2512 62.5367 0.0000 0.0000 0.0000
# 4 0.0000 0.0000 0.0000 10.4399 0.0000 0.0000
# 5 0.0000 0.0000 0.0000 0.0000 10.4397 0.0000
# 6 0.0000 0.0000 0.0000 0.0000 0.0000 22.4430
#
#
#
# Elastic Compliance Matrix: (Units=1/GPa)
#
#
# Indices 1 2 3 4 5 6 
#
# 1 0.013061 -0.002909 -0.005073 0.000000 0.000000 0.000000
# 2 -0.002909 0.013061 -0.005073 0.000000 0.000000 0.000000
# 3 -0.005073 -0.005073 0.021061 0.000000 0.000000 0.000000
# 4 0.000000 0.000000 0.000000 0.095787 0.000000 0.000000
# 5 0.000000 0.000000 0.000000 0.000000 0.095788 0.000000
# 6 0.000000 0.000000 0.000000 0.000000 0.000000 0.044557
#
#
# Mechanical properties :
#
#
# Convention : Reuss Voigt Hill
#
# Bulk Modulus (GPa) = 47.45563 49.66777 48.56170
# Shear Modulus (GPa) = 15.80022 19.25294 17.52658
#
# Velocity S-wave (km/s) = 2.94048 3.24590 3.09696
# Velocity P-wave (km/s) = 6.12355 6.42088 6.27398
#
# Compressibility (1/GPa) = 0.02107231
#
# Stress axis : x y z
#
# Youngs Moduli (GPa) = 76.56255 76.56244 47.48079
#
# Poissons Ratio (x) = 0.22272 0.24089
# Poissons Ratio (y) = 0.22272 0.24089
# Poissons Ratio (z) = 0.38843 0.38843
#
# Static dielectric constant tensor:
#      x y z
#    x 3.392480 0.000000 0.000000 
#    y 0.000000 3.392480 0.000000 
#    z 0.000000 0.000000 3.142370 
# 
# 
# High freq. dielectric constant tensor:
#      x y z
#    x 1.702240 0.000000 0.000000 
#    y 0.000000 1.702240 0.000000 
#    z 0.000000 0.000000 1.680700 
# 
# From -- ./inp_files/12436.got.cif
#   From: 2010.03.12/outbox.cif.g09.slc.cpg/sg131_7_cif.got.tgz:12436.got - 2010.04.06 17:36:35.
