data_PCOD8316402
_publ_section_title
;
Structure prediction by ZEFSAII (Michael W. Deem and Ramdas Pophale) SiO2 
 PCOD8316402
Probable space group: P 42/M C M
;
_chemical_formula_sum "Si O2"
_cell_formula_units_Z 112
_cell_length_a 22.551629
_cell_length_b 22.551629
_cell_length_c 18.389867
_cell_angle_alpha 90.000000
_cell_angle_beta 90.000000
_cell_angle_gamma 90.000000
_cell_volume 9352.644458
_symmetry_space_group_name_H-M "P 42/M C M"
_symmetry_group_IT_number 132
_symmetry_cell_setting 'tetragonal'
loop_
_space_group_symop_operation_xyz
x,y,z
-y,x,1/2+z
-x,-y,z
y,-x,1/2+z
x,-y,1/2-z
-x,y,1/2-z
y,x,-z
-y,-x,-z
-x,-y,-z
y,-x,1/2-z
x,y,-z
-y,x,1/2-z
-x,y,1/2+z
x,-y,1/2+z
-y,-x,z
y,x,z
loop_
_atom_site_type_symbol
_atom_site_label
_atom_site_fract_x
_atom_site_fract_y
_atom_site_fract_z
Si Si1 0.339282 0.436841 0.784849
Si Si2 0.716304 0.381127 0.848492
Si Si3 0.546181 0.453820 0.914168
Si Si4 0.675674 0.506191 0.416244
Si Si5 0.028733 0.871357 0.174376
Si Si6 0.950371 0.950371 0.919343
Si Si7 0.106586 0.793799 0.918370
Si Si8 0.701699 0.800874 0.418752
O O1 0.355491 0.500000 0.750000
O O2 0.398965 0.398965 0.793090
O O3 0.291127 0.401789 0.735298
O O4 0.310240 0.449303 0.864800
O O5 0.662167 0.337834 0.871697
O O6 0.718668 0.438243 0.901632
O O7 0.779221 0.347954 0.860897
O O8 0.500000 0.500000 0.879108
O O9 0.529210 0.388374 0.888786
O O10 0.543082 0.456919 0.000000
O O11 0.678422 0.486024 0.500000
O O12 0.077325 0.922676 0.187294
O O13 0.055679 0.811949 0.138382
O O14 0.000000 0.852055 0.250000
O O15 0.976354 0.893836 0.122293
O O16 0.930548 0.930548 0.000000
O O17 0.000000 0.000000 0.924991
O O18 0.154696 0.845305 0.918729
O O19 0.136481 0.731070 0.894398
O O20 0.080225 0.787766 0.000000
O O21 0.674080 0.806603 0.500000
O O22 0.753751 0.753751 0.421659
#
# Coordination Sequence:
#
# PCOD8316402 Si02
#       8
#    16  16   8  16  16   8  16  16
#     4   9  18  26  30  39  56  79 103 130 163 197
#     4   9  15  24  34  44  58  74  98 133 172 212
#     4   9  16  22  28  38  51  72 103 133 160 188
#     4  10  17  24  32  42  56  76 103 133 163 198
#     4  10  16  22  31  44  68  97 126 152 167 185
#     4   9  16  22  30  42  59  92 130 154 169 184
#     4   8  14  23  33  47  66  86 110 145 183 208
#     4   8  13  21  35  50  60  74  98 134 178 214
#
# _framework density 11.975223
#
# number of rings (size 3 to 8) (size 9 to 14) (size 15 to 20)
#    0.000    3.000    1.429    2.143    1.000    3.286 
#    0.000    0.000    0.000    0.000    0.000    0.000 
#    0.000    2.286    0.286    0.000    0.000    6.429 
#
# Total GULP energy -1387733.530710 kJ/mol
# GULP energy per Si atom -12390.477953 kJ/mol
# Density = 1.194797 g / cm^3
# Si number density = 11.975223 Si / 1000 Ang^3
#
#
#
# Elastic Constant Matrix: (Units=GPa)
#
#
# Indices 1 2 3 4 5 6 
#
# 1 42.9408 35.5063 36.9686 0.0000 0.0000 0.0000
# 2 35.5063 42.9409 36.9686 0.0000 0.0000 0.0000
# 3 36.9686 36.9686 98.1435 0.0000 0.0000 0.0000
# 4 0.0000 0.0000 0.0000 13.0376 0.0000 0.0000
# 5 0.0000 0.0000 0.0000 0.0000 13.0376 0.0000
# 6 0.0000 0.0000 0.0000 0.0000 0.0000 21.5475
#
#
#
# Elastic Compliance Matrix: (Units=1/GPa)
#
#
# Indices 1 2 3 4 5 6 
#
# 1 0.077136 -0.057372 -0.007445 0.000000 0.000000 0.000000
# 2 -0.057372 0.077136 -0.007445 0.000000 0.000000 0.000000
# 3 -0.007445 -0.007445 0.015798 0.000000 0.000000 0.000000
# 4 0.000000 0.000000 0.000000 0.076701 0.000000 0.000000
# 5 0.000000 0.000000 0.000000 0.000000 0.076701 0.000000
# 6 0.000000 0.000000 0.000000 0.000000 0.000000 0.046409
#
#
# Mechanical properties :
#
#
# Convention : Reuss Voigt Hill
#
# Bulk Modulus (GPa) = 39.14342 44.76801 41.95572
# Shear Modulus (GPa) = 9.56170 14.49665 12.02917
#
# Velocity S-wave (km/s) = 2.82876 3.48308 3.17283
# Velocity P-wave (km/s) = 6.58993 7.32399 6.96663
#
# Compressibility (1/GPa) = 0.02554708
#
# Stress axis : x y z
#
# Youngs Moduli (GPa) = 12.96411 12.96412 63.30029
#
# Poissons Ratio (x) = 0.74378 0.47126
# Poissons Ratio (y) = 0.74377 0.47125
# Poissons Ratio (z) = 0.09651 0.09651
#
# Static dielectric constant tensor:
#      x y z
#    x 2.342380 0.000000 0.000000 
#    y 0.000000 2.342380 0.000000 
#    z 0.000000 0.000000 2.610810 
# 
# 
# High freq. dielectric constant tensor:
#      x y z
#    x 1.413310 0.000000 0.000000 
#    y 0.000000 1.413310 0.000000 
#    z 0.000000 0.000000 1.459470 
# 
# From -- ./inp_files/8294.got.cif
#   From: 2010.03.12/outbox.cif.g09.slc.cpg/sg132_5_cif.got.tgz:8294.got - 2010.04.06 17:53:44.
