data_PCOD8316732
_publ_section_title
;
Structure prediction by ZEFSAII (Michael W. Deem and Ramdas Pophale) SiO2 
 PCOD8316732
Probable space group: P 42/M C M
;
_chemical_formula_sum "Si O2"
_cell_formula_units_Z 84
_cell_length_a 15.571587
_cell_length_b 15.571587
_cell_length_c 19.838105
_cell_angle_alpha 90.000000
_cell_angle_beta 90.000000
_cell_angle_gamma 90.000000
_cell_volume 4810.231054
_symmetry_space_group_name_H-M "P 42/M C M"
_symmetry_group_IT_number 132
_symmetry_cell_setting 'tetragonal'
loop_
_space_group_symop_operation_xyz
x,y,z
-y,x,1/2+z
-x,-y,z
y,-x,1/2+z
x,-y,1/2-z
-x,y,1/2-z
y,x,-z
-y,-x,-z
-x,-y,-z
y,-x,1/2-z
x,y,-z
-y,x,1/2-z
-x,y,1/2+z
x,-y,1/2+z
-y,-x,z
y,x,z
loop_
_atom_site_type_symbol
_atom_site_label
_atom_site_fract_x
_atom_site_fract_y
_atom_site_fract_z
Si Si1 0.911569 0.617383 0.869258
Si Si2 0.432142 0.567859 0.849378
Si Si3 0.703698 0.500000 0.250000
Si Si4 0.392291 0.392291 0.500000
Si Si5 0.193848 0.337017 0.752067
Si Si6 0.798788 0.649080 0.000000
Si Si7 0.455015 0.209406 0.500000
Si Si8 0.896827 0.420042 0.129796
O O1 0.882004 0.677234 0.806652
O O2 0.901363 0.518286 0.844863
O O3 0.012506 0.627063 0.883438
O O4 0.858943 0.651877 0.933941
O O5 0.500000 0.500000 0.823965
O O6 0.462728 0.656066 0.815861
O O7 0.430947 0.569054 0.930767
O O8 0.755071 0.580155 0.219537
O O9 0.398502 0.292008 0.500000
O O10 0.253112 0.253112 0.747020
O O11 0.155765 0.358994 0.679573
O O12 0.724394 0.724394 0.000000
O O13 0.757461 0.554085 0.000000
O O14 0.426331 0.152041 0.560948
#
# Coordination Sequence:
#
# PCOD8316732 Si02
#       8
#    16   8   8   4  16   8   8  16
#     4  10  20  36  57  79 103 144 185 226 279 336
#     4  12  23  40  50  70  98 160 206 241 263 306
#     4  12  21  36  53  70 108 150 194 228 279 311
#     4  12  27  36  56  78 116 146 199 240 274 314
#     4  12  22  33  53  81 110 142 181 229 272 324
#     4  10  21  37  55  79 112 142 182 231 281 327
#     4  10  23  38  53  78 110 152 186 229 280 323
#     4  10  20  37  57  76 106 143 187 227 278 334
#
# _framework density 17.462778
#
# number of rings (size 3 to 8) (size 9 to 14) (size 15 to 20)
#    0.000    1.143    3.810    3.000    4.000    4.571 
#    0.000    0.000    0.000    0.000    0.000    0.000 
#    0.000   13.714    0.000    0.000    0.000    0.000 
#
# Total GULP energy -1040796.868232 kJ/mol
# GULP energy per Si atom -12390.438908 kJ/mol
# Density = 1.742303 g / cm^3
# Si number density = 17.462778 Si / 1000 Ang^3
#
#
#
# Elastic Constant Matrix: (Units=GPa)
#
#
# Indices 1 2 3 4 5 6 
#
# 1 97.5999 59.3957 40.8649 0.0000 0.0000 0.0000
# 2 59.3957 97.5999 40.8649 0.0000 0.0000 0.0000
# 3 40.8649 40.8649 115.8748 0.0000 0.0000 0.0000
# 4 0.0000 0.0000 0.0000 103.0782 0.0000 0.0000
# 5 0.0000 0.0000 0.0000 0.0000 103.0782 0.0000
# 6 0.0000 0.0000 0.0000 0.0000 0.0000 23.7603
#
#
#
# Elastic Compliance Matrix: (Units=1/GPa)
#
#
# Indices 1 2 3 4 5 6 
#
# 1 0.016989 -0.009187 -0.002751 0.000000 0.000000 0.000000
# 2 -0.009187 0.016989 -0.002751 0.000000 0.000000 0.000000
# 3 -0.002751 -0.002751 0.010571 0.000000 0.000000 0.000000
# 4 0.000000 0.000000 0.000000 0.009701 0.000000 0.000000
# 5 0.000000 0.000000 0.000000 0.000000 0.009701 0.000000
# 6 0.000000 0.000000 0.000000 0.000000 0.000000 0.042087
#
#
# Mechanical properties :
#
#
# Convention : Reuss Voigt Hill
#
# Bulk Modulus (GPa) = 65.92501 65.92507 65.92504
# Shear Modulus (GPa) = 35.59408 57.31327 46.45368
#
# Velocity S-wave (km/s) = 4.51963 5.73511 5.16326
# Velocity P-wave (km/s) = 8.06658 9.03820 8.56618
#
# Compressibility (1/GPa) = 0.01516875
#
# Stress axis : x y z
#
# Youngs Moduli (GPa) = 58.86320 58.86320 94.60103
#
# Poissons Ratio (x) = 0.54075 0.26029
# Poissons Ratio (y) = 0.54075 0.26029
# Poissons Ratio (z) = 0.16196 0.16196
#
# Static dielectric constant tensor:
#      x y z
#    x 3.218450 0.000000 0.000000 
#    y 0.000000 3.218450 0.000000 
#    z 0.000000 0.000000 3.319620 
# 
# 
# High freq. dielectric constant tensor:
#      x y z
#    x 1.655250 0.000000 0.000000 
#    y 0.000000 1.655250 0.000000 
#    z 0.000000 0.000000 1.694930 
# 
# From -- ./inp_files/7851.got.cif
#   From: 2010.03.12/outbox.cif.g09.slc.cpg/sg132_4_cif.got.tgz:7851.got - 2010.04.06 17:53:44.
