data_PCOD8316089
_publ_section_title
;
Structure prediction by ZEFSAII (Michael W. Deem and Ramdas Pophale) SiO2 
 PCOD8316089
Probable space group: P 42/M M C
;
_chemical_formula_sum "Si O2"
_cell_formula_units_Z 112
_cell_length_a 14.458748
_cell_length_b 14.458748
_cell_length_c 28.681643
_cell_angle_alpha 90.000000
_cell_angle_beta 90.000000
_cell_angle_gamma 90.000000
_cell_volume 5996.052170
_symmetry_space_group_name_H-M "P 42/M M C"
_symmetry_group_IT_number 131
_symmetry_cell_setting 'tetragonal'
loop_
_space_group_symop_operation_xyz
x,y,z
-x,-y,z
-y,x,1/2+z
y,-x,1/2+z
-x,y,-z
x,-y,-z
y,x,1/2-z
-y,-x,1/2-z
-x,-y,-z
x,y,-z
y,-x,1/2-z
-y,x,1/2-z
x,-y,z
-x,y,z
-y,-x,1/2+z
y,x,1/2+z
loop_
_atom_site_type_symbol
_atom_site_label
_atom_site_fract_x
_atom_site_fract_y
_atom_site_fract_z
Si Si1 0.680891 0.897980 0.948230
Si Si2 0.394929 0.332151 0.640635
Si Si3 0.165328 0.601492 0.205878
Si Si4 0.897481 0.798856 0.791371
Si Si5 0.398557 0.775971 0.807731
Si Si6 0.236690 0.894555 0.853270
Si Si7 0.702682 0.394930 0.447510
O O1 0.761019 0.890445 0.909395
O O2 0.609710 0.813921 0.940010
O O3 0.632263 0.000000 0.943096
O O4 0.725398 0.889554 0.000000
O O5 0.500000 0.371287 0.641087
O O6 0.392749 0.228123 0.659888
O O7 0.328597 0.393427 0.673136
O O8 0.354124 0.330503 0.588040
O O9 0.115252 0.500000 0.206781
O O10 0.095023 0.687419 0.204532
O O11 0.228334 0.613654 0.251982
O O12 0.829327 0.829327 0.750000
O O13 0.857133 0.842869 0.838598
O O14 0.000000 0.837668 0.782755
O O15 0.500000 0.815200 0.820542
O O16 0.324772 0.843465 0.831253
O O17 0.236645 0.000000 0.834595
O O18 0.676773 0.363876 0.500000
O O19 0.672502 0.500000 0.438366
#
# Coordination Sequence:
#
# PCOD8316089 Si02
#       7
#    16  16  16  16  16  16  16
#     4   9  18  33  55  79 103 138 181 224 275 331
#     4  11  21  35  54  74 103 145 189 233 280 328
#     4  10  21  38  60  81 108 146 188 232 276 322
#     4  12  23  38  59  83 115 149 183 225 275 333
#     4  11  21  35  55  79 109 145 187 230 276 327
#     4  11  22  37  57  82 114 147 182 227 277 331
#     4  10  20  33  49  73 108 145 183 231 281 332
#
# _framework density 18.678957
#
# number of rings (size 3 to 8) (size 9 to 14) (size 15 to 20)
#    0.000    1.429    4.286    1.286    0.000    3.286 
#    0.000    5.714    0.000    5.571    0.000    2.000 
#    0.000    0.000    0.000   12.286    0.000    0.143 
#
# Total GULP energy -1387917.659343 kJ/mol
# GULP energy per Si atom -12392.121958 kJ/mol
# Density = 1.863644 g / cm^3
# Si number density = 18.678957 Si / 1000 Ang^3
#
#
#
# Elastic Constant Matrix: (Units=GPa)
#
#
# Indices 1 2 3 4 5 6 
#
# 1 111.4702 33.3533 36.5861 0.0000 0.0000 0.0000
# 2 33.3533 111.4702 36.5861 0.0000 0.0000 0.0000
# 3 36.5861 36.5861 109.7848 0.0000 0.0000 0.0000
# 4 0.0000 0.0000 0.0000 18.7872 0.0000 0.0000
# 5 0.0000 0.0000 0.0000 0.0000 18.7872 0.0000
# 6 0.0000 0.0000 0.0000 0.0000 0.0000 10.4944
#
#
#
# Elastic Compliance Matrix: (Units=1/GPa)
#
#
# Indices 1 2 3 4 5 6 
#
# 1 0.010552 -0.002249 -0.002767 0.000000 0.000000 0.000000
# 2 -0.002249 0.010552 -0.002767 0.000000 0.000000 0.000000
# 3 -0.002767 -0.002767 0.010953 0.000000 0.000000 0.000000
# 4 0.000000 0.000000 0.000000 0.053228 0.000000 0.000000
# 5 0.000000 0.000000 0.000000 0.000000 0.053228 0.000000
# 6 0.000000 0.000000 0.000000 0.000000 0.000000 0.095289
#
#
# Mechanical properties :
#
#
# Convention : Reuss Voigt Hill
#
# Bulk Modulus (GPa) = 60.63936 60.64180 60.64058
# Shear Modulus (GPa) = 19.61823 24.69372 22.15597
#
# Velocity S-wave (km/s) = 3.24433 3.63989 3.44778
# Velocity P-wave (km/s) = 6.82412 7.08525 6.95591
#
# Compressibility (1/GPa) = 0.01649094
#
# Stress axis : x y z
#
# Youngs Moduli (GPa) = 94.76732 94.76732 91.29959
#
# Poissons Ratio (x) = 0.21315 0.25263
# Poissons Ratio (y) = 0.21315 0.25263
# Poissons Ratio (z) = 0.26222 0.26222
#
# Static dielectric constant tensor:
#      x y z
#    x 3.374650 0.000000 0.000000 
#    y 0.000000 3.374650 0.000000 
#    z 0.000000 0.000000 3.698070 
# 
# 
# High freq. dielectric constant tensor:
#      x y z
#    x 1.708640 0.000000 0.000000 
#    y 0.000000 1.708640 0.000000 
#    z 0.000000 0.000000 1.731100 
# 
# From -- ./inp_files/12504.got.cif
#   From: 2010.03.12/outbox.cif.g09.slc.cpg/sg131_7_cif.got.tgz:12504.got - 2010.04.06 17:36:35.
