data_PCOD8316590
_publ_section_title
;
Structure prediction by ZEFSAII (Michael W. Deem and Ramdas Pophale) SiO2 
 PCOD8316590
Probable space group: P 42/M C M
;
_chemical_formula_sum "Si O2"
_cell_formula_units_Z 112
_cell_length_a 13.504953
_cell_length_b 13.504953
_cell_length_c 31.986448
_cell_angle_alpha 90.000000
_cell_angle_beta 90.000000
_cell_angle_gamma 90.000000
_cell_volume 5833.808512
_symmetry_space_group_name_H-M "P 42/M C M"
_symmetry_group_IT_number 132
_symmetry_cell_setting 'tetragonal'
loop_
_space_group_symop_operation_xyz
x,y,z
-y,x,1/2+z
-x,-y,z
y,-x,1/2+z
x,-y,1/2-z
-x,y,1/2-z
y,x,-z
-y,-x,-z
-x,-y,-z
y,-x,1/2-z
x,y,-z
-y,x,1/2-z
-x,y,1/2+z
x,-y,1/2+z
-y,-x,z
y,x,z
loop_
_atom_site_type_symbol
_atom_site_label
_atom_site_fract_x
_atom_site_fract_y
_atom_site_fract_z
Si Si1 0.231156 0.068269 0.210107
Si Si2 0.341578 0.493712 0.297302
Si Si3 0.795697 0.633157 0.163169
Si Si4 0.841816 0.995585 0.373638
Si Si5 0.370362 0.211195 0.452389
Si Si6 0.718279 0.998502 0.045833
Si Si7 0.451941 0.100957 0.086624
O O1 0.131066 0.131066 0.218447
O O2 0.323970 0.141559 0.202271
O O3 0.253105 0.000000 0.250000
O O4 0.225013 0.000796 0.168136
O O5 0.304722 0.500000 0.250000
O O6 0.429216 0.570785 0.304173
O O7 0.383716 0.383716 0.308449
O O8 0.248533 0.524851 0.325554
O O9 0.710041 0.710041 0.151403
O O10 0.861342 0.620684 0.122445
O O11 0.884415 0.884415 0.378416
O O12 0.789052 0.030264 0.416138
O O13 0.929434 0.070566 0.365568
O O14 0.402043 0.232919 0.500000
O O15 0.306318 0.306318 0.435331
O O16 0.302092 0.114916 0.450057
O O17 0.470312 0.187610 0.426123
O O18 0.617390 0.933338 0.047944
O O19 0.766043 0.977298 0.000000
O O20 0.500000 0.000000 0.104248
#
# Coordination Sequence:
#
# PCOD8316590 Si02
#       7
#    16  16  16  16  16  16  16
#     4  10  20  36  56  76 105 147 190 231 275 326
#     4   8  15  31  54  77 101 132 174 223 275 333
#     4  10  20  36  56  79 110 146 184 227 274 332
#     4  10  20  33  51  77 108 144 186 231 275 325
#     4   9  18  33  54  79 105 139 187 236 280 333
#     4  10  19  33  53  76 107 147 185 225 279 335
#     4  10  20  35  54  78 111 145 183 224 282 334
#
# _framework density 19.198436000000001
#
# number of rings (size 3 to 8) (size 9 to 14) (size 15 to 20)
#    0.000    2.429    1.429    1.714    0.000    4.143 
#    2.571    0.714    0.000    1.286    0.000    1.000 
#    0.000    0.000    0.000    0.000    0.000    0.000 
#
# Total GULP energy -1387702.042068 kJ/mol
# GULP energy per Si atom -12390.196804 kJ/mol
# Density = 1.915474 g / cm^3
# Si number density = 19.198436 Si / 1000 Ang^3
#
#
#
# Elastic Constant Matrix: (Units=GPa)
#
#
# Indices 1 2 3 4 5 6 
#
# 1 78.9760 39.3755 42.8711 0.0000 0.0000 0.0000
# 2 39.3755 78.9760 42.8711 0.0000 0.0000 0.0000
# 3 42.8711 42.8711 122.3380 0.0000 0.0000 0.0000
# 4 0.0000 0.0000 0.0000 26.1971 0.0000 0.0000
# 5 0.0000 0.0000 0.0000 0.0000 26.1971 0.0000
# 6 0.0000 0.0000 0.0000 0.0000 0.0000 32.8517
#
#
#
# Elastic Compliance Matrix: (Units=1/GPa)
#
#
# Indices 1 2 3 4 5 6 
#
# 1 0.018288 -0.006964 -0.003968 0.000000 0.000000 0.000000
# 2 -0.006964 0.018288 -0.003968 0.000000 0.000000 0.000000
# 3 -0.003968 -0.003968 0.010955 0.000000 0.000000 0.000000
# 4 0.000000 0.000000 0.000000 0.038172 0.000000 0.000000
# 5 0.000000 0.000000 0.000000 0.000000 0.038172 0.000000
# 6 0.000000 0.000000 0.000000 0.000000 0.000000 0.030440
#
#
# Mechanical properties :
#
#
# Convention : Reuss Voigt Hill
#
# Bulk Modulus (GPa) = 56.39996 58.94726 57.67361
# Shear Modulus (GPa) = 26.31195 27.39401 26.85298
#
# Velocity S-wave (km/s) = 3.70608 3.78151 3.74399
# Velocity P-wave (km/s) = 6.91046 7.05956 6.98541
#
# Compressibility (1/GPa) = 0.01773051
#
# Stress axis : x y z
#
# Youngs Moduli (GPa) = 54.67981 54.67981 91.27910
#
# Poissons Ratio (x) = 0.38078 0.36224
# Poissons Ratio (y) = 0.38078 0.36224
# Poissons Ratio (z) = 0.21699 0.21699
#
# Static dielectric constant tensor:
#      x y z
#    x 3.637100 0.000000 0.000000 
#    y 0.000000 3.637100 0.000000 
#    z 0.000000 0.000000 3.426510 
# 
# 
# High freq. dielectric constant tensor:
#      x y z
#    x 1.733580 0.000000 0.000000 
#    y 0.000000 1.733580 0.000000 
#    z 0.000000 0.000000 1.739090 
# 
# From -- ./inp_files/10092.got.cif
#   From: 2010.03.12/outbox.cif.g09.slc.cpg/sg132_6_cif.got.tgz:10092.got - 2010.04.06 17:53:44.
