data_PCOD8316738
_publ_section_title
;
Structure prediction by ZEFSAII (Michael W. Deem and Ramdas Pophale) SiO2 
 PCOD8316738
Probable space group: P 42/M C M
;
_chemical_formula_sum "Si O2"
_cell_formula_units_Z 96
_cell_length_a 13.517017
_cell_length_b 13.517017
_cell_length_c 25.820595
_cell_angle_alpha 90.000000
_cell_angle_beta 90.000000
_cell_angle_gamma 90.000000
_cell_volume 4717.674421
_symmetry_space_group_name_H-M "P 42/M C M"
_symmetry_group_IT_number 132
_symmetry_cell_setting 'tetragonal'
loop_
_space_group_symop_operation_xyz
x,y,z
-y,x,1/2+z
-x,-y,z
y,-x,1/2+z
x,-y,1/2-z
-x,y,1/2-z
y,x,-z
-y,-x,-z
-x,-y,-z
y,-x,1/2-z
x,y,-z
-y,x,1/2-z
-x,y,1/2+z
x,-y,1/2+z
-y,-x,z
y,x,z
loop_
_atom_site_type_symbol
_atom_site_label
_atom_site_fract_x
_atom_site_fract_y
_atom_site_fract_z
Si Si1 0.028293 0.614099 0.125368
Si Si2 0.286532 0.440654 0.895676
Si Si3 0.781968 0.371161 0.059864
Si Si4 0.599684 0.758281 0.218519
Si Si5 0.859223 0.701544 0.058443
Si Si6 0.738027 0.098994 0.776549
O O1 0.108720 0.613293 0.080249
O O2 0.073673 0.669500 0.174608
O O3 0.000000 0.500000 0.138781
O O4 0.940549 0.680282 0.102022
O O5 0.397464 0.397464 0.892112
O O6 0.292771 0.555136 0.910265
O O7 0.228826 0.425521 0.841584
O O8 0.223621 0.383668 0.939216
O O9 0.739572 0.260429 0.069516
O O10 0.781852 0.398074 0.000000
O O11 0.500000 0.757337 0.250000
O O12 0.656124 0.656124 0.230396
O O13 0.667890 0.850614 0.233842
O O14 0.807498 0.807498 0.070840
O O15 0.903420 0.701931 0.000000
O O16 0.828821 0.171180 0.792602
O O17 0.781502 0.000000 0.750000
#
# Coordination Sequence:
#
# PCOD8316738 Si02
#       6
#    16  16  16  16  16  16
#     4  12  24  39  66  98 127 166 210 261 320 383
#     4  10  20  36  58  86 121 164 210 256 304 365
#     4  11  24  40  59  89 131 173 211 259 317 372
#     4  10  22  38  59  88 125 164 209 261 314 377
#     4  10  21  38  62  93 125 158 205 263 314 366
#     4  11  26  44  66  95 128 164 210 264 319 378
#
# _framework density 20.349008999999999
#
# number of rings (size 3 to 8) (size 9 to 14) (size 15 to 20)
#    0.000    1.333    1.667    3.500    2.333    6.333 
#    0.000    2.500    0.000    1.500    0.000    5.833 
#    0.000    0.000    0.000    0.000    0.000    0.000 
#
# Total GULP energy -1190278.455526 kJ/mol
# GULP energy per Si atom -12398.733912 kJ/mol
# Density = 2.030269 g / cm^3
# Si number density = 20.349009 Si / 1000 Ang^3
#
#
#
# Elastic Constant Matrix: (Units=GPa)
#
#
# Indices 1 2 3 4 5 6 
#
# 1 101.7694 55.9629 45.6556 0.0000 0.0000 0.0000
# 2 55.9629 101.7694 45.6556 0.0000 0.0000 0.0000
# 3 45.6556 45.6556 98.6312 0.0000 0.0000 0.0000
# 4 0.0000 0.0000 0.0000 36.0910 0.0000 0.0000
# 5 0.0000 0.0000 0.0000 0.0000 36.0910 0.0000
# 6 0.0000 0.0000 0.0000 0.0000 0.0000 27.7637
#
#
#
# Elastic Compliance Matrix: (Units=1/GPa)
#
#
# Indices 1 2 3 4 5 6 
#
# 1 0.015246 -0.006585 -0.004009 0.000000 0.000000 0.000000
# 2 -0.006585 0.015246 -0.004009 0.000000 0.000000 0.000000
# 3 -0.004009 -0.004009 0.013850 0.000000 0.000000 0.000000
# 4 0.000000 0.000000 0.000000 0.027708 0.000000 0.000000
# 5 0.000000 0.000000 0.000000 0.000000 0.027708 0.000000
# 6 0.000000 0.000000 0.000000 0.000000 0.000000 0.036018
#
#
# Mechanical properties :
#
#
# Convention : Reuss Voigt Hill
#
# Bulk Modulus (GPa) = 66.06894 66.30200 66.18547
# Shear Modulus (GPa) = 29.40713 30.31554 29.86134
#
# Velocity S-wave (km/s) = 3.80562 3.86395 3.83490
# Velocity P-wave (km/s) = 7.20061 7.24983 7.22526
#
# Compressibility (1/GPa) = 0.01513571
#
# Stress axis : x y z
#
# Youngs Moduli (GPa) = 65.59191 65.59191 72.20121
#
# Poissons Ratio (x) = 0.43193 0.28945
# Poissons Ratio (y) = 0.43193 0.28945
# Poissons Ratio (z) = 0.26295 0.26295
#
# Static dielectric constant tensor:
#      x y z
#    x 3.735800 0.000000 0.000000 
#    y 0.000000 3.735800 0.000000 
#    z 0.000000 0.000000 3.802530 
# 
# 
# High freq. dielectric constant tensor:
#      x y z
#    x 1.789960 0.000000 0.000000 
#    y 0.000000 1.789960 0.000000 
#    z 0.000000 0.000000 1.808590 
# 
# From -- ./inp_files/7917.got.cif
#   From: 2010.03.12/outbox.cif.g09.slc.cpg/sg132_4_cif.got.tgz:7917.got - 2010.04.06 17:53:44.
