data_PCOD8316072
_publ_section_title
;
Structure prediction by ZEFSAII (Michael W. Deem and Ramdas Pophale) SiO2 
 PCOD8316072
Probable space group: P 42/M M C
;
_chemical_formula_sum "Si O2"
_cell_formula_units_Z 112
_cell_length_a 14.096537
_cell_length_b 14.096537
_cell_length_c 30.124439
_cell_angle_alpha 90.000000
_cell_angle_beta 90.000000
_cell_angle_gamma 90.000000
_cell_volume 5986.098229
_symmetry_space_group_name_H-M "P 42/M M C"
_symmetry_group_IT_number 131
_symmetry_cell_setting 'tetragonal'
loop_
_space_group_symop_operation_xyz
x,y,z
-x,-y,z
-y,x,1/2+z
y,-x,1/2+z
-x,y,-z
x,-y,-z
y,x,1/2-z
-y,-x,1/2-z
-x,-y,-z
x,y,-z
y,-x,1/2-z
-y,x,1/2-z
x,-y,z
-x,y,z
-y,-x,1/2+z
y,x,1/2+z
loop_
_atom_site_type_symbol
_atom_site_label
_atom_site_fract_x
_atom_site_fract_y
_atom_site_fract_z
Si Si1 0.390915 0.230266 0.316397
Si Si2 0.713714 0.722945 0.449956
Si Si3 0.892781 0.286289 0.671434
Si Si4 0.196218 0.895063 0.079519
Si Si5 0.887382 0.000000 0.451015
Si Si6 0.389883 0.286816 0.136240
Si Si7 0.228269 0.228269 0.750000
Si Si8 0.611273 0.890228 0.401549
O O1 0.500000 0.228395 0.302353
O O2 0.364616 0.333298 0.335575
O O3 0.330859 0.213630 0.272200
O O4 0.366651 0.147963 0.352001
O O5 0.682986 0.694080 0.500000
O O6 0.827584 0.734440 0.448169
O O7 0.693728 0.638700 0.415123
O O8 0.663612 0.822026 0.436651
O O9 0.895941 0.211854 0.631785
O O10 0.818742 0.367833 0.655824
O O11 0.855570 0.225647 0.713593
O O12 0.000000 0.326804 0.680150
O O13 0.091493 0.851556 0.075050
O O14 0.207186 0.000000 0.058778
O O15 0.842516 0.000000 0.500000
O O16 0.000000 0.000000 0.453579
O O17 0.500000 0.306890 0.141504
O O18 0.500000 0.882457 0.411485
O O19 0.645248 0.000000 0.406018
#
# Coordination Sequence:
#
# PCOD8316072 Si02
#       8
#    16  16  16  16   8  16   8  16
#     4   9  19  36  56  77 103 132 165 212 268 318
#     4  10  20  32  50  78 106 136 173 214 261 310
#     4   9  19  36  53  72 103 141 176 212 260 308
#     4   9  18  33  49  68 100 139 172 211 257 300
#     4   9  16  26  44  70  95 125 167 213 254 292
#     4   9  19  36  55  75 102 137 175 214 259 315
#     4  10  20  34  52  82 110 134 168 220 262 314
#     4   9  19  36  55  75 102 137 174 211 255 312
#
# _framework density 18.710017000000001
#
# number of rings (size 3 to 8) (size 9 to 14) (size 15 to 20)
#    0.000    2.786    0.000    1.286    1.000    5.143 
#    1.286    0.714    0.000    0.000    0.000    8.000 
#    0.000    0.000    0.000    0.000    0.000    0.000 
#
# Total GULP energy -1387865.218170 kJ/mol
# GULP energy per Si atom -12391.653734 kJ/mol
# Density = 1.866743 g / cm^3
# Si number density = 18.710017 Si / 1000 Ang^3
#
#
#
# Elastic Constant Matrix: (Units=GPa)
#
#
# Indices 1 2 3 4 5 6 
#
# 1 62.6923 11.5487 15.0597 0.0000 0.0000 0.0000
# 2 11.5487 62.6923 15.0597 0.0000 0.0000 0.0000
# 3 15.0597 15.0597 85.3274 0.0000 0.0000 0.0000
# 4 0.0000 0.0000 0.0000 16.3811 0.0000 0.0000
# 5 0.0000 0.0000 0.0000 0.0000 16.3811 0.0000
# 6 0.0000 0.0000 0.0000 0.0000 0.0000 18.0596
#
#
#
# Elastic Compliance Matrix: (Units=1/GPa)
#
#
# Indices 1 2 3 4 5 6 
#
# 1 0.017031 -0.002522 -0.002561 0.000000 0.000000 0.000000
# 2 -0.002522 0.017031 -0.002561 0.000000 0.000000 0.000000
# 3 -0.002561 -0.002561 0.012623 0.000000 0.000000 0.000000
# 4 0.000000 0.000000 0.000000 0.061046 0.000000 0.000000
# 5 0.000000 0.000000 0.000000 0.000000 0.061046 0.000000
# 6 0.000000 0.000000 0.000000 0.000000 0.000000 0.055372
#
#
# Mechanical properties :
#
#
# Convention : Reuss Voigt Hill
#
# Bulk Modulus (GPa) = 31.84931 32.67200 32.26065
# Shear Modulus (GPa) = 20.00791 21.43398 20.72095
#
# Velocity S-wave (km/s) = 3.27367 3.38833 3.33149
# Velocity P-wave (km/s) = 5.59900 5.72782 5.66377
#
# Compressibility (1/GPa) = 0.03139786
#
# Stress axis : x y z
#
# Youngs Moduli (GPa) = 58.71771 58.71771 79.21769
#
# Poissons Ratio (x) = 0.14809 0.20285
# Poissons Ratio (y) = 0.14809 0.20285
# Poissons Ratio (z) = 0.15036 0.15036
#
# Static dielectric constant tensor:
#      x y z
#    x 3.456820 0.000000 0.000000 
#    y 0.000000 3.456820 0.000000 
#    z 0.000000 0.000000 3.471760 
# 
# 
# High freq. dielectric constant tensor:
#      x y z
#    x 1.715940 0.000000 0.000000 
#    y 0.000000 1.715940 0.000000 
#    z 0.000000 0.000000 1.726240 
# 
# From -- ./inp_files/12531.got.cif
#   From: 2010.03.12/outbox.cif.g09.slc.cpg/sg131_7_cif.got.tgz:12531.got - 2010.04.06 17:36:35.
