data_PCOD8316401
_publ_section_title
;
Structure prediction by ZEFSAII (Michael W. Deem and Ramdas Pophale) SiO2 
 PCOD8316401
Probable space group: P 42/M C M
;
_chemical_formula_sum "Si O2"
_cell_formula_units_Z 96
_cell_length_a 14.605977
_cell_length_b 14.605977
_cell_length_c 24.315368
_cell_angle_alpha 90.000000
_cell_angle_beta 90.000000
_cell_angle_gamma 90.000000
_cell_volume 5187.308434
_symmetry_space_group_name_H-M "P 42/M C M"
_symmetry_group_IT_number 132
_symmetry_cell_setting 'tetragonal'
loop_
_space_group_symop_operation_xyz
x,y,z
-y,x,1/2+z
-x,-y,z
y,-x,1/2+z
x,-y,1/2-z
-x,y,1/2-z
y,x,-z
-y,-x,-z
-x,-y,-z
y,-x,1/2-z
x,y,-z
-y,x,1/2-z
-x,y,1/2+z
x,-y,1/2+z
-y,-x,z
y,x,z
loop_
_atom_site_type_symbol
_atom_site_label
_atom_site_fract_x
_atom_site_fract_y
_atom_site_fract_z
Si Si1 0.000000 0.500000 0.663778
Si Si2 0.545324 0.853768 0.500000
Si Si3 0.362858 0.051394 0.000000
Si Si4 0.680433 0.072422 0.288977
Si Si5 0.074116 0.074116 0.559886
Si Si6 0.751830 0.395344 0.770715
Si Si7 0.002907 0.744169 0.396204
Si Si8 0.397611 0.154196 0.615269
O O1 0.980048 0.414986 0.702063
O O2 0.912576 0.515755 0.624853
O O3 0.434990 0.864270 0.500000
O O4 0.582669 0.800977 0.554932
O O5 0.587487 0.954470 0.500000
O O6 0.298104 0.058181 0.947051
O O7 0.662595 0.171385 0.262252
O O8 0.734643 0.000000 0.250000
O O9 0.736870 0.075694 0.345883
O O10 0.110878 0.110878 0.500000
O O11 0.152279 0.025481 0.594811
O O12 0.000000 0.000000 0.546471
O O13 0.746990 0.500000 0.750000
O O14 0.654695 0.345306 0.760407
O O15 0.771022 0.393015 0.836276
O O16 0.906838 0.693616 0.383835
#
# Coordination Sequence:
#
# PCOD8316401 Si02
#       8
#     8   8   8  16   8  16  16  16
#     4  10  15  29  58  86 114 143 177 220 294 356
#     4   9  16  28  49  86 125 142 162 226 310 360
#     4   9  16  29  46  87 118 143 183 225 286 348
#     4  11  18  33  58  87 113 142 184 239 295 346
#     4  11  24  42  56  70 112 172 213 228 264 338
#     4  12  25  40  59  85 116 156 199 239 292 359
#     4  10  20  32  58  84 111 151 193 244 284 335
#     4  10  19  31  57  90 118 144 178 235 302 361
#
# _framework density 18.506706999999999
#
# number of rings (size 3 to 8) (size 9 to 14) (size 15 to 20)
#    0.000    1.583    5.833    3.250    1.167    0.833 
#    0.000    0.417    0.000    0.000    0.000    0.583 
#    0.000    1.333    0.000    0.000    0.000    0.000 
#
# Total GULP energy -1189583.278763 kJ/mol
# GULP energy per Si atom -12391.492487 kJ/mol
# Density = 1.846459 g / cm^3
# Si number density = 18.506707 Si / 1000 Ang^3
#
#
#
# Elastic Constant Matrix: (Units=GPa)
#
#
# Indices 1 2 3 4 5 6 
#
# 1 65.5264 33.0118 41.1517 0.0000 0.0000 0.0000
# 2 33.0118 65.5264 41.1517 0.0000 0.0000 0.0000
# 3 41.1517 41.1517 159.8452 0.0000 0.0000 0.0000
# 4 0.0000 0.0000 0.0000 5.9837 0.0000 0.0000
# 5 0.0000 0.0000 0.0000 0.0000 5.9837 0.0000
# 6 0.0000 0.0000 0.0000 0.0000 0.0000 19.2064
#
#
#
# Elastic Compliance Matrix: (Units=1/GPa)
#
#
# Indices 1 2 3 4 5 6 
#
# 1 0.021842 -0.008914 -0.003328 0.000000 0.000000 0.000000
# 2 -0.008914 0.021842 -0.003328 0.000000 0.000000 0.000000
# 3 -0.003328 -0.003328 0.007970 0.000000 0.000000 0.000000
# 4 0.000000 0.000000 0.000000 0.167119 0.000000 0.000000
# 5 0.000000 0.000000 0.000000 0.000000 0.167119 0.000000
# 6 0.000000 0.000000 0.000000 0.000000 0.000000 0.052066
#
#
# Mechanical properties :
#
#
# Convention : Reuss Voigt Hill
#
# Bulk Modulus (GPa) = 48.74949 57.94761 53.34855
# Shear Modulus (GPa) = 10.50560 17.94029 14.22294
#
# Velocity S-wave (km/s) = 2.38516 3.11689 2.77524
# Velocity P-wave (km/s) = 5.82958 6.65830 6.25767
#
# Compressibility (1/GPa) = 0.02051303
#
# Stress axis : x y z
#
# Youngs Moduli (GPa) = 45.78355 45.78355 125.47352
#
# Poissons Ratio (x) = 0.40809 0.41762
# Poissons Ratio (y) = 0.40809 0.41762
# Poissons Ratio (z) = 0.15238 0.15238
#
# Static dielectric constant tensor:
#      x y z
#    x 3.176750 0.000000 0.000000 
#    y 0.000000 3.176750 0.000000 
#    z 0.000000 0.000000 4.166330 
# 
# 
# High freq. dielectric constant tensor:
#      x y z
#    x 1.676970 0.000000 0.000000 
#    y 0.000000 1.676970 0.000000 
#    z 0.000000 0.000000 1.747180 
# 
# From -- ./inp_files/9089.got.cif
#   From: 2010.03.12/outbox.cif.g09.slc.cpg/sg132_5_cif.got.tgz:9089.got - 2010.04.06 17:53:44.
