data_PCOD8316126
_publ_section_title
;
Structure prediction by ZEFSAII (Michael W. Deem and Ramdas Pophale) SiO2 
 PCOD8316126
Probable space group: P 42/M M C
;
_chemical_formula_sum "Si O2"
_cell_formula_units_Z 112
_cell_length_a 14.172857
_cell_length_b 14.172857
_cell_length_c 25.549402
_cell_angle_alpha 90.000000
_cell_angle_beta 90.000000
_cell_angle_gamma 90.000000
_cell_volume 5132.105200
_symmetry_space_group_name_H-M "P 42/M M C"
_symmetry_group_IT_number 131
_symmetry_cell_setting 'tetragonal'
loop_
_space_group_symop_operation_xyz
x,y,z
-x,-y,z
-y,x,1/2+z
y,-x,1/2+z
-x,y,-z
x,-y,-z
y,x,1/2-z
-y,-x,1/2-z
-x,-y,-z
x,y,-z
y,-x,1/2-z
-y,x,1/2-z
x,-y,z
-x,y,z
-y,-x,1/2+z
y,x,1/2+z
loop_
_atom_site_type_symbol
_atom_site_label
_atom_site_fract_x
_atom_site_fract_y
_atom_site_fract_z
Si Si1 0.361661 0.895308 0.158523
Si Si2 0.198938 0.702456 0.558050
Si Si3 0.605899 0.222102 0.440860
Si Si4 0.394374 0.237753 0.253015
Si Si5 0.897614 0.845966 0.696760
Si Si6 0.896852 0.111905 0.087892
Si Si7 0.609980 0.896928 0.342135
O O1 0.366001 0.851561 0.099843
O O2 0.406255 0.822477 0.199629
O O3 0.254752 0.909341 0.171826
O O4 0.410636 0.000000 0.159621
O O5 0.175208 0.663873 0.500000
O O6 0.312823 0.699012 0.567435
O O7 0.166818 0.812632 0.559428
O O8 0.611322 0.181898 0.500000
O O9 0.500000 0.263896 0.430010
O O10 0.628148 0.137184 0.401142
O O11 0.330407 0.330407 0.250000
O O12 0.500000 0.271154 0.268534
O O13 0.346846 0.174077 0.298945
O O14 0.837200 0.837200 0.750000
O O15 0.853685 0.906158 0.649026
O O16 0.000000 0.886026 0.713602
O O17 0.000000 0.132239 0.061977
O O18 0.874155 0.000000 0.086300
O O19 0.500000 0.904332 0.329750
O O20 0.656899 0.000000 0.335549
#
# Coordination Sequence:
#
# PCOD8316126 Si02
#       7
#    16  16  16  16  16  16  16
#     4  10  21  36  55  82 114 148 190 240 296 355
#     4  10  20  34  52  74 105 148 199 253 308 363
#     4   9  18  32  50  75 111 155 201 248 295 346
#     4  11  23  40  63  89 119 154 193 240 294 353
#     4   9  16  26  42  65  96 135 178 225 277 335
#     4   9  18  30  42  61  92 132 183 241 299 363
#     4   9  18  33  54  81 114 152 190 229 281 347
#
# _framework density 21.823402000000002
#
# number of rings (size 3 to 8) (size 9 to 14) (size 15 to 20)
#    0.000    2.429    0.000    3.429    0.000    5.143 
#    0.000    3.571    0.000    0.429    0.000    1.000 
#    0.000    3.714    0.000   25.714    0.000    0.286 
#
# Total GULP energy -1387536.193742 kJ/mol
# GULP energy per Si atom -12388.716016 kJ/mol
# Density = 2.177373 g / cm^3
# Si number density = 21.823402 Si / 1000 Ang^3
#
#
#
# Elastic Constant Matrix: (Units=GPa)
#
#
# Indices 1 2 3 4 5 6 
#
# 1 70.5962 29.3929 32.8765 0.0000 0.0000 0.0000
# 2 29.3929 70.5962 32.8765 0.0000 0.0000 0.0000
# 3 32.8765 32.8765 144.5404 0.0000 0.0000 0.0000
# 4 0.0000 0.0000 0.0000 18.3554 0.0000 0.0000
# 5 0.0000 0.0000 0.0000 0.0000 18.3554 0.0000
# 6 0.0000 0.0000 0.0000 0.0000 0.0000 10.4241
#
#
#
# Elastic Compliance Matrix: (Units=1/GPa)
#
#
# Indices 1 2 3 4 5 6 
#
# 1 0.018015 -0.006255 -0.002675 0.000000 0.000000 0.000000
# 2 -0.006255 0.018015 -0.002675 0.000000 0.000000 0.000000
# 3 -0.002675 -0.002675 0.008135 0.000000 0.000000 0.000000
# 4 0.000000 0.000000 0.000000 0.054480 0.000000 0.000000
# 5 0.000000 0.000000 0.000000 0.000000 0.054480 0.000000
# 6 0.000000 0.000000 0.000000 0.000000 0.000000 0.095931
#
#
# Mechanical properties :
#
#
# Convention : Reuss Voigt Hill
#
# Bulk Modulus (GPa) = 47.71917 52.89161 50.30539
# Shear Modulus (GPa) = 17.90505 22.13280 20.01892
#
# Velocity S-wave (km/s) = 2.86746 3.18807 3.03201
# Velocity P-wave (km/s) = 5.73381 6.15147 5.94631
#
# Compressibility (1/GPa) = 0.02095594
#
# Stress axis : x y z
#
# Youngs Moduli (GPa) = 55.50930 55.50930 122.92083
#
# Poissons Ratio (x) = 0.34720 0.32880
# Poissons Ratio (y) = 0.34720 0.32880
# Poissons Ratio (z) = 0.14848 0.14848
#
# Static dielectric constant tensor:
#      x y z
#    x 3.845610 0.000000 0.000000 
#    y 0.000000 3.845610 0.000000 
#    z 0.000000 0.000000 4.081250 
# 
# 
# High freq. dielectric constant tensor:
#      x y z
#    x 1.835040 0.000000 0.000000 
#    y 0.000000 1.835040 0.000000 
#    z 0.000000 0.000000 1.866000 
# 
# From -- ./inp_files/11307.got.cif
#   From: 2010.03.12/outbox.cif.g09.slc.cpg/sg131_6_cif.got.tgz:11307.got - 2010.04.06 17:36:35.
