data_PCOD8316986
_publ_section_title
;
Structure prediction by ZEFSAII (Michael W. Deem and Ramdas Pophale) SiO2 
 PCOD8316986
Probable space group: P 42/N B C
;
_chemical_formula_sum "Si O2"
_cell_formula_units_Z 112
_cell_length_a 31.247971
_cell_length_b 31.247971
_cell_length_c 5.160109
_cell_angle_alpha 90.000000
_cell_angle_beta 90.000000
_cell_angle_gamma 90.000000
_cell_volume 5038.514600
_symmetry_space_group_name_H-M "P 42/N B C"
_symmetry_group_IT_number 133
_space_group.IT_coordinate_system_code '2'
_symmetry_cell_setting 'tetragonal'
loop_
_space_group_symop_operation_xyz
x,y,z
1/2-y,x,1/2+z
1/2-x,1/2-y,z
y,1/2-x,1/2+z
x,1/2-y,-z
1/2-x,y,-z
y,x,1/2-z
1/2-y,1/2-x,1/2-z
-x,-y,-z
1/2+y,-x,1/2-z
1/2+x,1/2+y,-z
-y,1/2+x,1/2-z
-x,1/2+y,z
1/2+x,-y,z
-y,-x,1/2+z
1/2+y,1/2+x,1/2+z
loop_
_atom_site_type_symbol
_atom_site_label
_atom_site_fract_x
_atom_site_fract_y
_atom_site_fract_z
Si Si1 0.963921 0.793134 0.376154
Si Si2 0.078800 0.950062 0.390207
Si Si3 0.427060 0.330708 0.141256
Si Si4 0.919387 0.956565 0.509178
Si Si5 0.846478 0.721448 0.249233
Si Si6 0.062022 0.722849 0.740029
Si Si7 0.143004 0.620429 0.183410
O O1 0.943632 0.750000 0.500000
O O2 0.959156 0.828092 0.607892
O O3 0.012749 0.786357 0.304459
O O4 0.940332 0.802470 0.107194
O O5 0.042402 0.941528 0.608266
O O6 0.108378 0.907291 0.388646
O O7 0.100213 0.994754 0.485754
O O8 0.424837 0.379366 0.043271
O O9 0.381133 0.316428 0.244316
O O10 0.951593 0.951593 0.750000
O O11 0.945064 0.945064 0.250000
O O12 0.853069 0.750000 0.500000
O O13 0.799666 0.700335 0.250000
O O14 0.851832 0.750000 0.000000
O O15 0.080992 0.750000 0.500000
O O16 0.082847 0.675792 0.752423
O O17 0.070130 0.750000 0.000000
O O18 0.143169 0.655845 0.412904
#
# Coordination Sequence:
#
# PCOD8316986 Si02
#       7
#    16  16  16  16  16  16  16
#     4  11  23  39  64  96 129 170 216 272 339 411
#     4  10  23  40  64  89 123 178 232 290 334 390
#     4  12  25  42  70  92 137 169 223 271 344 419
#     4  12  27  44  64  94 131 179 239 293 337 385
#     4  12  27  47  73 100 130 166 211 273 344 428
#     4  11  23  39  63  99 139 175 222 284 337 395
#     4  10  22  38  64  93 134 176 235 261 344 398
#
# _framework density 22.228774000000001
#
# number of rings (size 3 to 8) (size 9 to 14) (size 15 to 20)
#    0.000    0.857    0.000    7.714    8.000    3.714 
#    0.000    0.000    0.000    0.000    0.000    0.000 
#    0.000   20.000    0.000    0.000    0.000    0.000 
#
# Total GULP energy -1387745.340700 kJ/mol
# GULP energy per Si atom -12390.583399 kJ/mol
# Density = 2.217818 g / cm^3
# Si number density = 22.228774 Si / 1000 Ang^3
#
#
#
# Elastic Constant Matrix: (Units=GPa)
#
#
# Indices 1 2 3 4 5 6 
#
# 1 94.7836 11.7682 35.8999 0.0000 0.0000 0.0000
# 2 11.7682 94.7566 35.8855 0.0000 0.0000 0.0000
# 3 35.8999 35.8855 207.1778 0.0000 0.0000 0.0000
# 4 0.0000 0.0000 0.0000 15.5490 0.0000 0.0000
# 5 0.0000 0.0000 0.0000 0.0000 15.5903 0.0000
# 6 0.0000 0.0000 0.0000 0.0000 0.0000 33.6251
#
#
#
# Elastic Compliance Matrix: (Units=1/GPa)
#
#
# Indices 1 2 3 4 5 6 
#
# 1 0.011336 -0.000711 -0.001841 0.000000 0.000000 0.000000
# 2 -0.000711 0.011339 -0.001841 0.000000 0.000000 0.000000
# 3 -0.001841 -0.001841 0.005465 0.000000 0.000000 0.000000
# 4 0.000000 0.000000 0.000000 0.064313 0.000000 0.000000
# 5 0.000000 0.000000 0.000000 0.000000 0.064142 0.000000
# 6 0.000000 0.000000 0.000000 0.000000 0.000000 0.029740
#
#
# Mechanical properties :
#
#
# Convention : Reuss Voigt Hill
#
# Bulk Modulus (GPa) = 51.66870 62.64725 57.15797
# Shear Modulus (GPa) = 24.80514 33.83049 29.31782
#
# Velocity S-wave (km/s) = 3.34414 3.90542 3.63562
# Velocity P-wave (km/s) = 6.18106 6.96997 6.58734
#
# Compressibility (1/GPa) = 0.01935408
#
# Stress axis : x y z
#
# Youngs Moduli (GPa) = 88.21499 88.19299 182.99334
#
# Poissons Ratio (x) = 0.06267 0.33693
# Poissons Ratio (y) = 0.06268 0.33687
# Poissons Ratio (z) = 0.16242 0.16235
#
# Static dielectric constant tensor:
#      x y z
#    x 3.879360 0.000000 0.000000 
#    y 0.000000 3.879360 0.000000 
#    z 0.000000 0.000000 5.012210 
# 
# 
# High freq. dielectric constant tensor:
#      x y z
#    x 1.851400 0.000000 0.000000 
#    y 0.000000 1.851400 0.000000 
#    z 0.000000 0.000000 1.916550 
# 
# From -- ./inp_files/613.got.cif
#   From: 2010.03.12/outbox.cif.g09.slc.cpg/sg133_1_cif.got.tgz:613.got - 2010.04.06 18:08:06.
