data_PCOD8316388
_publ_section_title
;
Structure prediction by ZEFSAII (Michael W. Deem and Ramdas Pophale) SiO2 
 PCOD8316388
Probable space group: P 42/M M C
;
_chemical_formula_sum "Si O2"
_cell_formula_units_Z 80
_cell_length_a 18.445519
_cell_length_b 18.445519
_cell_length_c 17.091949
_cell_angle_alpha 90.000000
_cell_angle_beta 90.000000
_cell_angle_gamma 90.000000
_cell_volume 5815.316378
_symmetry_space_group_name_H-M "P 42/M M C"
_symmetry_group_IT_number 131
_symmetry_cell_setting 'tetragonal'
loop_
_space_group_symop_operation_xyz
x,y,z
-x,-y,z
-y,x,1/2+z
y,-x,1/2+z
-x,y,-z
x,-y,-z
y,x,1/2-z
-y,-x,1/2-z
-x,-y,-z
x,y,-z
y,-x,1/2-z
-y,x,1/2-z
x,-y,z
-x,y,z
-y,-x,1/2+z
y,x,1/2+z
loop_
_atom_site_type_symbol
_atom_site_label
_atom_site_fract_x
_atom_site_fract_y
_atom_site_fract_z
Si Si1 0.913592 0.500000 0.411353
Si Si2 0.663600 0.915656 0.349935
Si Si3 0.641904 0.913319 0.822267
Si Si4 0.417497 0.913512 0.500000
Si Si5 0.081507 0.180143 0.090981
Si Si6 0.215629 0.916687 0.908888
O O1 0.884372 0.500000 0.500000
O O2 0.883561 0.428403 0.367935
O O3 0.000000 0.500000 0.410336
O O4 0.638368 0.883147 0.266580
O O5 0.619986 0.879959 0.422274
O O6 0.748847 0.902202 0.358654
O O7 0.645218 0.000000 0.350049
O O8 0.715410 0.883949 0.862916
O O9 0.643050 0.000000 0.824491
O O10 0.500000 0.888240 0.500000
O O11 0.408969 0.000000 0.500000
O O12 0.140785 0.121350 0.116489
O O13 0.000000 0.150625 0.108342
O O14 0.088272 0.200969 0.000000
O O15 0.204204 0.000000 0.887089
O O16 0.231884 0.905748 0.000000
#
# Coordination Sequence:
#
# PCOD8316388 Si02
#       6
#     8  16  16   8  16  16
#     4   9  16  26  40  55  73  95 115 140 182 232
#     4   9  16  26  38  54  74  94 118 148 185 230
#     4   9  17  26  38  55  73  92 118 152 190 230
#     4   9  16  24  38  56  75  95 113 142 184 225
#     4   9  16  27  41  54  72 100 130 162 203 242
#     4   9  17  28  40  54  73  97 129 169 206 236
#
# _framework density 13.756774999999999
#
# number of rings (size 3 to 8) (size 9 to 14) (size 15 to 20)
#    0.000    3.000    1.000    0.600    1.400    3.600 
#    0.000    2.000    0.000    0.000    0.000    5.600 
#    0.000    0.000    0.000    0.000    0.000    0.000 
#
# Total GULP energy -991613.816341 kJ/mol
# GULP energy per Si atom -12395.172704 kJ/mol
# Density = 1.372546 g / cm^3
# Si number density = 13.756775 Si / 1000 Ang^3
#
#
#
# Elastic Constant Matrix: (Units=GPa)
#
#
# Indices 1 2 3 4 5 6 
#
# 1 64.5107 31.2358 43.4891 0.0000 0.0000 0.0000
# 2 31.2358 64.5107 43.4891 0.0000 0.0000 0.0000
# 3 43.4891 43.4891 106.1999 0.0000 0.0000 0.0000
# 4 0.0000 0.0000 0.0000 14.3821 0.0000 0.0000
# 5 0.0000 0.0000 0.0000 0.0000 14.3821 0.0000
# 6 0.0000 0.0000 0.0000 0.0000 0.0000 0.6337
#
#
#
# Elastic Compliance Matrix: (Units=1/GPa)
#
#
# Indices 1 2 3 4 5 6 
#
# 1 0.023342 -0.006711 -0.006810 0.000000 0.000000 0.000000
# 2 -0.006711 0.023342 -0.006810 0.000000 0.000000 0.000000
# 3 -0.006810 -0.006810 0.014994 0.000000 0.000000 0.000000
# 4 0.000000 0.000000 0.000000 0.069531 0.000000 0.000000
# 5 0.000000 0.000000 0.000000 0.000000 0.069531 0.000000
# 6 0.000000 0.000000 0.000000 0.000000 0.000000 1.577979
#
#
# Mechanical properties :
#
#
# Convention : Reuss Voigt Hill
#
# Bulk Modulus (GPa) = 47.58675 52.40548 49.99612
# Shear Modulus (GPa) = 2.73765 13.68007 8.20886
#
# Velocity S-wave (km/s) = 1.41222 3.15687 2.44542
# Velocity P-wave (km/s) = 6.10948 7.17390 6.66298
#
# Compressibility (1/GPa) = 0.02101425
#
# Stress axis : x y z
#
# Youngs Moduli (GPa) = 42.84153 42.84153 66.69340
#
# Poissons Ratio (x) = 0.28750 0.45421
# Poissons Ratio (y) = 0.28750 0.45421
# Poissons Ratio (z) = 0.29177 0.29177
#
# Static dielectric constant tensor:
#      x y z
#    x 2.491330 0.000000 0.000000 
#    y 0.000000 2.491330 0.000000 
#    z 0.000000 0.000000 2.954070 
# 
# 
# High freq. dielectric constant tensor:
#      x y z
#    x 1.483220 0.000000 0.000000 
#    y 0.000000 1.483220 0.000000 
#    z 0.000000 0.000000 1.540780 
# 
# From -- ./inp_files/7823.got.cif
#   From: 2010.03.12/outbox.cif.g09.slc.cpg/sg131_4_cif.got.tgz:7823.got - 2010.04.06 17:36:35.
