data_PCOD8316751
_publ_section_title
;
Structure prediction by ZEFSAII (Michael W. Deem and Ramdas Pophale) SiO2 
 PCOD8316751
Probable space group: P 42/M C M
;
_chemical_formula_sum "Si O2"
_cell_formula_units_Z 56
_cell_length_a 12.036492
_cell_length_b 12.036492
_cell_length_c 19.913117
_cell_angle_alpha 90.000000
_cell_angle_beta 90.000000
_cell_angle_gamma 90.000000
_cell_volume 2884.955433
_symmetry_space_group_name_H-M "P 42/M C M"
_symmetry_group_IT_number 132
_symmetry_cell_setting 'tetragonal'
loop_
_space_group_symop_operation_xyz
x,y,z
-y,x,1/2+z
-x,-y,z
y,-x,1/2+z
x,-y,1/2-z
-x,y,1/2-z
y,x,-z
-y,-x,-z
-x,-y,-z
y,-x,1/2-z
x,y,-z
-y,x,1/2-z
-x,y,1/2+z
x,-y,1/2+z
-y,-x,z
y,x,z
loop_
_atom_site_type_symbol
_atom_site_label
_atom_site_fract_x
_atom_site_fract_y
_atom_site_fract_z
Si Si1 0.000000 0.181751 0.250000
Si Si2 0.587645 0.412356 0.579483
Si Si3 0.166500 0.483239 0.919931
Si Si4 0.021670 0.328469 0.621757
Si Si5 0.823915 0.006699 0.000000
O O1 0.038271 0.261939 0.309773
O O2 0.895719 0.104282 0.270860
O O3 0.500000 0.500000 0.610163
O O4 0.583231 0.416770 0.500000
O O5 0.710356 0.448155 0.603445
O O6 0.137352 0.610825 0.900038
O O7 0.081017 0.413441 0.874766
O O8 0.148462 0.465779 0.000000
O O9 0.982466 0.243815 0.565972
O O10 0.866312 0.133689 0.000000
O O11 0.926436 0.926436 0.000000
#
# Coordination Sequence:
#
# PCOD8316751 Si02
#       5
#     8   8  16  16   8
#     4  11  26  43  58  88 128 167 210 255 312 378
#     4   9  20  34  54  90 130 160 190 249 322 371
#     4  10  20  37  62  95 122 154 211 258 303 374
#     4  11  21  39  62  86 121 165 203 256 313 367
#     4  11  22  33  56  91 119 154 207 258 312 368
#
# _framework density 19.411044
#
# number of rings (size 3 to 8) (size 9 to 14) (size 15 to 20)
#    0.000    1.571    2.857    2.571    4.000    6.857 
#    0.000    0.000    0.000    0.000    0.000    0.000 
#    0.000    0.000    0.000    0.000    0.000    0.000 
#
# Total GULP energy -694170.691914 kJ/mol
# GULP energy per Si atom -12395.905213 kJ/mol
# Density = 1.936686 g / cm^3
# Si number density = 19.411044 Si / 1000 Ang^3
#
#
#
# Elastic Constant Matrix: (Units=GPa)
#
#
# Indices 1 2 3 4 5 6 
#
# 1 113.5815 64.9494 23.8317 0.0000 0.0000 0.0000
# 2 64.9494 113.5790 23.8314 0.0000 0.0000 0.0000
# 3 23.8317 23.8314 76.5066 0.0000 0.0000 0.0000
# 4 0.0000 0.0000 0.0000 23.8577 0.0000 0.0000
# 5 0.0000 0.0000 0.0000 0.0000 23.8544 0.0000
# 6 0.0000 0.0000 0.0000 0.0000 0.0000 33.4546
#
#
#
# Elastic Compliance Matrix: (Units=1/GPa)
#
#
# Indices 1 2 3 4 5 6 
#
# 1 0.013336 -0.007227 -0.001903 0.000000 0.000000 0.000000
# 2 -0.007227 0.013336 -0.001903 0.000000 0.000000 0.000000
# 3 -0.001903 -0.001903 0.014256 0.000000 0.000000 0.000000
# 4 0.000000 0.000000 0.000000 0.041915 0.000000 0.000000
# 5 0.000000 0.000000 0.000000 0.000000 0.041921 0.000000
# 6 0.000000 0.000000 0.000000 0.000000 0.000000 0.029891
#
#
# Mechanical properties :
#
#
# Convention : Reuss Voigt Hill
#
# Bulk Modulus (GPa) = 53.01408 58.76579 55.88994
# Shear Modulus (GPa) = 27.32094 28.97031 28.14562
#
# Velocity S-wave (km/s) = 3.75573 3.86744 3.81199
# Velocity P-wave (km/s) = 6.79543 7.09104 6.94481
#
# Compressibility (1/GPa) = 0.01886291
#
# Stress axis : x y z
#
# Youngs Moduli (GPa) = 74.98448 74.98282 70.14412
#
# Poissons Ratio (x) = 0.54189 0.13349
# Poissons Ratio (y) = 0.54190 0.13349
# Poissons Ratio (z) = 0.14270 0.14270
#
# Static dielectric constant tensor:
#      x y z
#    x 3.857130 0.000000 0.000000 
#    y 0.000000 3.857130 0.000000 
#    z 0.000000 0.000000 2.970990 
# 
# 
# High freq. dielectric constant tensor:
#      x y z
#    x 1.765730 0.000000 0.000000 
#    y 0.000000 1.765730 0.000000 
#    z 0.000000 0.000000 1.720190 
# 
# From -- ./inp_files/7358.got.cif
#   From: 2010.03.12/outbox.cif.g09.slc.cpg/sg132_4_cif.got.tgz:7358.got - 2010.04.06 17:53:44.
