data_PCOD8316429
_publ_section_title
;
Structure prediction by ZEFSAII (Michael W. Deem and Ramdas Pophale) SiO2 
 PCOD8316429
Probable space group: P 42/M C M
;
_chemical_formula_sum "Si O2"
_cell_formula_units_Z 80
_cell_length_a 12.602355
_cell_length_b 12.602355
_cell_length_c 28.625002
_cell_angle_alpha 90.000000
_cell_angle_beta 90.000000
_cell_angle_gamma 90.000000
_cell_volume 4546.204256
_symmetry_space_group_name_H-M "P 42/M C M"
_symmetry_group_IT_number 132
_symmetry_cell_setting 'tetragonal'
loop_
_space_group_symop_operation_xyz
x,y,z
-y,x,1/2+z
-x,-y,z
y,-x,1/2+z
x,-y,1/2-z
-x,y,1/2-z
y,x,-z
-y,-x,-z
-x,-y,-z
y,-x,1/2-z
x,y,-z
-y,x,1/2-z
-x,y,1/2+z
x,-y,1/2+z
-y,-x,z
y,x,z
loop_
_atom_site_type_symbol
_atom_site_label
_atom_site_fract_x
_atom_site_fract_y
_atom_site_fract_z
Si Si1 0.298633 0.876802 0.858748
Si Si2 0.201083 0.634954 0.552100
Si Si3 0.873991 0.502589 0.802598
Si Si4 0.572225 0.101617 0.052545
Si Si5 0.287479 0.116608 0.855009
O O1 0.199257 0.800744 0.850813
O O2 0.398989 0.831817 0.829844
O O3 0.329087 0.882279 0.913371
O O4 0.265672 0.994423 0.841332
O O5 0.157152 0.662935 0.500000
O O6 0.320862 0.679139 0.558704
O O7 0.202199 0.507519 0.557832
O O8 0.123825 0.691782 0.589329
O O9 0.828933 0.500000 0.750000
O O10 0.835896 0.609903 0.828138
O O11 0.000000 0.500000 0.803211
O O12 0.500000 0.000000 0.066750
O O13 0.616641 0.090731 0.000000
O O14 0.185498 0.185498 0.839960
#
# Coordination Sequence:
#
# PCOD8316429 Si02
#       5
#    16  16  16  16  16
#     4  11  21  33  49  77 113 139 167 211 264 314
#     4   9  16  27  49  76  98 126 170 219 256 292
#     4   9  18  35  56  75  95 126 173 221 259 299
#     4  10  17  30  51  72 100 139 184 224 255 296
#     4  10  19  33  54  77 103 138 178 212 248 303
#
# _framework density 17.597097999999999
#
# number of rings (size 3 to 8) (size 9 to 14) (size 15 to 20)
#    0.000    2.200    4.000    0.600    0.000    1.600 
#    0.000    0.000    0.000    2.400    0.000   14.000 
#    0.000    0.000    0.000    0.000    0.000    0.000 
#
# Total GULP energy -991521.418767 kJ/mol
# GULP energy per Si atom -12394.017735 kJ/mol
# Density = 1.755705 g / cm^3
# Si number density = 17.597098 Si / 1000 Ang^3
#
#
#
# Elastic Constant Matrix: (Units=GPa)
#
#
# Indices 1 2 3 4 5 6 
#
# 1 87.9156 56.2098 33.0935 0.0000 0.0000 0.0000
# 2 56.2098 87.9156 33.0935 0.0000 0.0000 0.0000
# 3 33.0935 33.0935 100.3730 0.0000 0.0000 0.0000
# 4 0.0000 0.0000 0.0000 14.6884 0.0000 0.0000
# 5 0.0000 0.0000 0.0000 0.0000 14.6884 0.0000
# 6 0.0000 0.0000 0.0000 0.0000 0.0000 27.0467
#
#
#
# Elastic Compliance Matrix: (Units=1/GPa)
#
#
# Indices 1 2 3 4 5 6 
#
# 1 0.019858 -0.011682 -0.002696 0.000000 0.000000 0.000000
# 2 -0.011682 0.019858 -0.002696 0.000000 0.000000 0.000000
# 3 -0.002696 -0.002696 0.011740 0.000000 0.000000 0.000000
# 4 0.000000 0.000000 0.000000 0.068081 0.000000 0.000000
# 5 0.000000 0.000000 0.000000 0.000000 0.068081 0.000000
# 6 0.000000 0.000000 0.000000 0.000000 0.000000 0.036973
#
#
# Mechanical properties :
#
#
# Convention : Reuss Voigt Hill
#
# Bulk Modulus (GPa) = 57.76983 57.88864 57.82923
# Shear Modulus (GPa) = 18.90295 21.53850 20.22073
#
# Velocity S-wave (km/s) = 3.28107 3.50234 3.39351
# Velocity P-wave (km/s) = 6.87418 7.02305 6.94901
#
# Compressibility (1/GPa) = 0.01731007
#
# Stress axis : x y z
#
# Youngs Moduli (GPa) = 50.35701 50.35701 85.17536
#
# Poissons Ratio (x) = 0.58826 0.22962
# Poissons Ratio (y) = 0.58826 0.22962
# Poissons Ratio (z) = 0.13575 0.13575
#
# Static dielectric constant tensor:
#      x y z
#    x 3.156290 0.000000 0.000000 
#    y 0.000000 3.156290 0.000000 
#    z 0.000000 0.000000 3.454600 
# 
# 
# High freq. dielectric constant tensor:
#      x y z
#    x 1.651240 0.000000 0.000000 
#    y 0.000000 1.651240 0.000000 
#    z 0.000000 0.000000 1.690130 
# 
# From -- ./inp_files/10624.got.cif
#   From: 2010.03.12/outbox.cif.g09.slc.cpg/sg132_6_cif.got.tgz:10624.got - 2010.04.06 17:53:44.
