data_PCOD8316280
_publ_section_title
;
Structure prediction by ZEFSAII (Michael W. Deem and Ramdas Pophale) SiO2 
 PCOD8316280
Probable space group: P 42/M M C
;
_chemical_formula_sum "Si O2"
_cell_formula_units_Z 112
_cell_length_a 14.312253
_cell_length_b 14.312253
_cell_length_c 30.846405
_cell_angle_alpha 90.000000
_cell_angle_beta 90.000000
_cell_angle_gamma 90.000000
_cell_volume 6318.595674
_symmetry_space_group_name_H-M "P 42/M M C"
_symmetry_group_IT_number 131
_symmetry_cell_setting 'tetragonal'
loop_
_space_group_symop_operation_xyz
x,y,z
-x,-y,z
-y,x,1/2+z
y,-x,1/2+z
-x,y,-z
x,-y,-z
y,x,1/2-z
-y,-x,1/2-z
-x,-y,-z
x,y,-z
y,-x,1/2-z
-y,x,1/2-z
x,-y,z
-x,y,z
-y,-x,1/2+z
y,x,1/2+z
loop_
_atom_site_type_symbol
_atom_site_label
_atom_site_fract_x
_atom_site_fract_y
_atom_site_fract_z
Si Si1 0.389376 0.891733 0.839589
Si Si2 0.602296 0.890247 0.257288
Si Si3 0.610437 0.606225 0.298486
Si Si4 0.899514 0.108837 0.704174
Si Si5 0.716147 0.297490 0.375901
Si Si6 0.606117 0.391492 0.450236
Si Si7 0.718760 0.892380 0.341428
O O1 0.500000 0.875764 0.846109
O O2 0.359712 0.861431 0.790408
O O3 0.330028 0.824352 0.871409
O O4 0.364094 0.000000 0.849411
O O5 0.500000 0.844062 0.265527
O O6 0.669178 0.862702 0.296653
O O7 0.589248 0.000000 0.255927
O O8 0.640021 0.640021 0.250000
O O9 0.643040 0.500000 0.305406
O O10 0.500000 0.614210 0.303939
O O11 0.659458 0.667288 0.334567
O O12 0.855425 0.144576 0.750000
O O13 0.829100 0.124232 0.664992
O O14 0.000000 0.156595 0.692849
O O15 0.913934 0.000000 0.712198
O O16 0.677560 0.334628 0.421027
O O17 0.697809 0.184754 0.378100
O O18 0.631970 0.371780 0.500000
O O19 0.616937 0.500000 0.439118
O O20 0.500000 0.359752 0.440618
O O21 0.694960 0.000000 0.355347
#
# Coordination Sequence:
#
# PCOD8316280 Si02
#       7
#    16  16  16  16  16  16  16
#     4   9  19  33  47  68 100 135 173 215 252 298
#     4   8  16  31  44  55  85 136 181 211 243 288
#     4   9  19  33  46  68 104 134 158 199 254 310
#     4   8  15  28  44  60  83 123 176 230 272 296
#     4  12  22  30  53  78  99 133 179 213 252 311
#     4   9  19  38  63  88 109 126 153 204 269 329
#     4  10  22  33  43  65 100 138 179 222 258 295
#
# _framework density 17.725456999999999
#
# number of rings (size 3 to 8) (size 9 to 14) (size 15 to 20)
#    0.000    2.714    0.000    3.857    4.000    2.857 
#    0.000    0.000    0.000    0.857    0.000    3.000 
#    0.000    0.000    0.000    4.857    0.000    0.143 
#
# Total GULP energy -1387653.567047 kJ/mol
# GULP energy per Si atom -12389.763991 kJ/mol
# Density = 1.768511 g / cm^3
# Si number density = 17.725457 Si / 1000 Ang^3
#
#
#
# Elastic Constant Matrix: (Units=GPa)
#
#
# Indices 1 2 3 4 5 6 
#
# 1 71.0253 38.5796 42.3087 0.0000 0.0000 0.0000
# 2 38.5796 71.0250 42.3087 0.0000 0.0000 0.0000
# 3 42.3087 42.3087 70.8292 0.0000 0.0000 0.0000
# 4 0.0000 0.0000 0.0000 21.9420 0.0000 0.0000
# 5 0.0000 0.0000 0.0000 0.0000 21.9421 0.0000
# 6 0.0000 0.0000 0.0000 0.0000 0.0000 14.1530
#
#
#
# Elastic Compliance Matrix: (Units=1/GPa)
#
#
# Indices 1 2 3 4 5 6 
#
# 1 0.023876 -0.006944 -0.010114 0.000000 0.000000 0.000000
# 2 -0.006944 0.023877 -0.010114 0.000000 0.000000 0.000000
# 3 -0.010114 -0.010114 0.026201 0.000000 0.000000 0.000000
# 4 0.000000 0.000000 0.000000 0.045575 0.000000 0.000000
# 5 0.000000 0.000000 0.000000 0.000000 0.045575 0.000000
# 6 0.000000 0.000000 0.000000 0.000000 0.000000 0.070656
#
#
# Mechanical properties :
#
#
# Convention : Reuss Voigt Hill
#
# Bulk Modulus (GPa) = 50.99658 51.03040 51.01349
# Shear Modulus (GPa) = 16.85537 17.58624 17.22081
#
# Velocity S-wave (km/s) = 3.08703 3.15325 3.12032
# Velocity P-wave (km/s) = 6.44508 6.48916 6.46716
#
# Compressibility (1/GPa) = 0.01960916
#
# Stress axis : x y z
#
# Youngs Moduli (GPa) = 41.88240 41.88218 38.16584
#
# Poissons Ratio (x) = 0.29085 0.38601
# Poissons Ratio (y) = 0.29085 0.38601
# Poissons Ratio (z) = 0.42360 0.42360
#
# Static dielectric constant tensor:
#      x y z
#    x 3.458480 0.000000 0.000000 
#    y 0.000000 3.458480 0.000000 
#    z 0.000000 0.000000 2.851630 
# 
# 
# High freq. dielectric constant tensor:
#      x y z
#    x 1.690930 0.000000 0.000000 
#    y 0.000000 1.690930 0.000000 
#    z 0.000000 0.000000 1.618290 
# 
# From -- ./inp_files/12472.got.cif
#   From: 2010.03.12/outbox.cif.g09.slc.cpg/sg131_7_cif.got.tgz:12472.got - 2010.04.06 17:36:35.
