data_PCOD8316652
_publ_section_title
;
Structure prediction by ZEFSAII (Michael W. Deem and Ramdas Pophale) SiO2 
 PCOD8316652
Probable space group: P 42/M C M
;
_chemical_formula_sum "Si O2"
_cell_formula_units_Z 72
_cell_length_a 11.166519
_cell_length_b 11.166519
_cell_length_c 31.645851
_cell_angle_alpha 90.000000
_cell_angle_beta 90.000000
_cell_angle_gamma 90.000000
_cell_volume 3945.957446
_symmetry_space_group_name_H-M "P 42/M C M"
_symmetry_group_IT_number 132
_symmetry_cell_setting 'tetragonal'
loop_
_space_group_symop_operation_xyz
x,y,z
-y,x,1/2+z
-x,-y,z
y,-x,1/2+z
x,-y,1/2-z
-x,y,1/2-z
y,x,-z
-y,-x,-z
-x,-y,-z
y,-x,1/2-z
x,y,-z
-y,x,1/2-z
-x,y,1/2+z
x,-y,1/2+z
-y,-x,z
y,x,z
loop_
_atom_site_type_symbol
_atom_site_label
_atom_site_fract_x
_atom_site_fract_y
_atom_site_fract_z
Si Si1 0.500000 0.691733 0.750000
Si Si2 0.640622 0.828485 0.105578
Si Si3 0.912222 0.723975 0.392099
Si Si4 0.752053 0.563322 0.549014
Si Si5 0.454264 0.122348 0.678573
O O1 0.608942 0.608942 0.766482
O O2 0.550479 0.771246 0.711985
O O3 0.735211 0.735211 0.123407
O O4 0.572174 0.769161 0.065599
O O5 0.547252 0.851408 0.141941
O O6 0.714353 0.949069 0.094414
O O7 0.860359 0.860359 0.392705
O O8 0.844435 0.647284 0.426956
O O9 0.891663 0.674130 0.344279
O O10 0.785270 0.564468 0.500000
O O11 0.616972 0.616972 0.556195
O O12 0.500000 0.000000 0.701147
#
# Coordination Sequence:
#
# PCOD8316652 Si02
#       5
#     8  16  16  16  16
#     4  11  21  30  46  74 103 125 148 188 242 291
#     4  10  20  32  48  72 100 126 154 195 244 288
#     4   9  18  33  52  71  93 125 163 200 236 278
#     4   9  18  33  52  71  92 124 165 201 233 278
#     4   9  18  34  52  68  91 126 165 196 226 274
#
# _framework density 18.246524000000001
#
# number of rings (size 3 to 8) (size 9 to 14) (size 15 to 20)
#    0.000    2.556    0.000    3.667    0.000    4.000 
#    0.000    1.111    0.000    0.000    0.000    4.667 
#    0.000   16.000    0.000    0.000    0.000    0.000 
#
# Total GULP energy -892238.036873 kJ/mol
# GULP energy per Si atom -12392.194957 kJ/mol
# Density = 1.820499 g / cm^3
# Si number density = 18.246524 Si / 1000 Ang^3
#
#
#
# Elastic Constant Matrix: (Units=GPa)
#
#
# Indices 1 2 3 4 5 6 
#
# 1 60.9571 37.7058 10.8700 0.0000 0.0000 0.0000
# 2 37.7058 60.9571 10.8700 0.0000 0.0000 0.0000
# 3 10.8700 10.8700 61.5216 0.0000 0.0000 0.0000
# 4 0.0000 0.0000 0.0000 1.5874 0.0000 0.0000
# 5 0.0000 0.0000 0.0000 0.0000 1.5874 0.0000
# 6 0.0000 0.0000 0.0000 0.0000 0.0000 29.7289
#
#
#
# Elastic Compliance Matrix: (Units=1/GPa)
#
#
# Indices 1 2 3 4 5 6 
#
# 1 0.026777 -0.016231 -0.001863 0.000000 0.000000 0.000000
# 2 -0.016231 0.026777 -0.001863 0.000000 0.000000 0.000000
# 3 -0.001863 -0.001863 0.016913 0.000000 0.000000 0.000000
# 4 0.000000 0.000000 0.000000 0.629955 0.000000 0.000000
# 5 0.000000 0.000000 0.000000 0.000000 0.629955 0.000000
# 6 0.000000 0.000000 0.000000 0.000000 0.000000 0.033637
#
#
# Mechanical properties :
#
#
# Convention : Reuss Voigt Hill
#
# Bulk Modulus (GPa) = 32.73136 33.59192 33.16164
# Shear Modulus (GPa) = 3.53578 14.84676 9.19127
#
# Velocity S-wave (km/s) = 1.39355 2.85560 2.24682
# Velocity P-wave (km/s) = 4.53505 5.41503 4.99446
#
# Compressibility (1/GPa) = 0.03055174
#
# Stress axis : x y z
#
# Youngs Moduli (GPa) = 37.34523 37.34523 59.12643
#
# Poissons Ratio (x) = 0.60615 0.11017
# Poissons Ratio (y) = 0.60615 0.11017
# Poissons Ratio (z) = 0.06959 0.06959
#
# Static dielectric constant tensor:
#      x y z
#    x 4.060480 0.000000 0.000000 
#    y 0.000000 4.060480 0.000000 
#    z 0.000000 0.000000 3.221440 
# 
# 
# High freq. dielectric constant tensor:
#      x y z
#    x 1.703600 0.000000 0.000000 
#    y 0.000000 1.703600 0.000000 
#    z 0.000000 0.000000 1.694290 
# 
# From -- ./inp_files/10506.got.cif
#   From: 2010.03.12/outbox.cif.g09.slc.cpg/sg132_6_cif.got.tgz:10506.got - 2010.04.06 17:53:44.
