data_PCOD8316470
_publ_section_title
;
Structure prediction by ZEFSAII (Michael W. Deem and Ramdas Pophale) SiO2 
 PCOD8316470
Probable space group: P 42/M C M
;
_chemical_formula_sum "Si O2"
_cell_formula_units_Z 128
_cell_length_a 20.511726
_cell_length_b 20.511726
_cell_length_c 18.802108
_cell_angle_alpha 90.000000
_cell_angle_beta 90.000000
_cell_angle_gamma 90.000000
_cell_volume 7910.627887
_symmetry_space_group_name_H-M "P 42/M C M"
_symmetry_group_IT_number 132
_symmetry_cell_setting 'tetragonal'
loop_
_space_group_symop_operation_xyz
x,y,z
-y,x,1/2+z
-x,-y,z
y,-x,1/2+z
x,-y,1/2-z
-x,y,1/2-z
y,x,-z
-y,-x,-z
-x,-y,-z
y,-x,1/2-z
x,y,-z
-y,x,1/2-z
-x,y,1/2+z
x,-y,1/2+z
-y,-x,z
y,x,z
loop_
_atom_site_type_symbol
_atom_site_label
_atom_site_fract_x
_atom_site_fract_y
_atom_site_fract_z
Si Si1 0.696715 0.588114 0.079653
Si Si2 0.075814 0.184637 0.327082
Si Si3 0.335965 0.226105 0.813848
Si Si4 0.269172 0.159197 0.578956
Si Si5 0.343191 0.552796 0.916493
Si Si6 0.769191 0.875084 0.814605
Si Si7 0.248104 0.356934 0.658269
Si Si8 0.952819 0.153730 0.417691
O O1 0.644725 0.644725 0.083306
O O2 0.759118 0.608206 0.127444
O O3 0.657673 0.523231 0.104891
O O4 0.723607 0.577985 0.000000
O O5 0.126618 0.126618 0.323672
O O6 0.096812 0.242135 0.379913
O O7 0.070986 0.218525 0.248376
O O8 0.011222 0.152479 0.360715
O O9 0.279512 0.279512 0.820557
O O10 0.304412 0.153448 0.820957
O O11 0.373412 0.230122 0.739085
O O12 0.287123 0.136561 0.500000
O O13 0.215659 0.215659 0.578334
O O14 0.335298 0.183247 0.616538
O O15 0.409862 0.590139 0.891129
O O16 0.279241 0.580697 0.878656
O O17 0.335242 0.563456 0.000000
O O18 0.814221 0.814221 0.793341
O O19 0.788272 0.904939 0.891335
O O20 0.297749 0.297749 0.655270
O O21 0.974161 0.166160 0.500000
O O22 0.915431 0.084570 0.412066
#
# Coordination Sequence:
#
# PCOD8316470 Si02
#       8
#    16  16  16  16  16  16  16  16
#     4   9  18  30  43  62  88 122 165 202 228 263
#     4  10  18  30  47  66  89 120 155 190 229 272
#     4   9  16  28  46  64  83 109 148 197 243 278
#     4   9  15  23  39  63  87 111 142 182 227 275
#     4   9  17  28  42  62  92 128 159 189 227 270
#     4   9  17  31  48  64  84 114 152 195 239 279
#     4   9  15  25  41  62  86 113 145 182 230 284
#     4  10  21  33  44  63  92 126 161 191 220 262
#
# _framework density 16.180764
#
# number of rings (size 3 to 8) (size 9 to 14) (size 15 to 20)
#    0.000    2.750    1.250    1.125    0.000    3.750 
#    0.000    4.375    0.000    2.250    0.000    3.500 
#    0.000    1.000    0.750    5.250    1.750    0.500 
#
# Total GULP energy -1585875.499237 kJ/mol
# GULP energy per Si atom -12389.652338 kJ/mol
# Density = 1.614394 g / cm^3
# Si number density = 16.180764 Si / 1000 Ang^3
#
#
#
# Elastic Constant Matrix: (Units=GPa)
#
#
# Indices 1 2 3 4 5 6 
#
# 1 36.0003 31.9908 30.9840 0.0000 0.0000 0.0000
# 2 31.9908 36.0003 30.9840 0.0000 0.0000 0.0000
# 3 30.9840 30.9840 83.6978 0.0000 0.0000 0.0000
# 4 0.0000 0.0000 0.0000 23.0183 0.0000 0.0000
# 5 0.0000 0.0000 0.0000 0.0000 23.0183 0.0000
# 6 0.0000 0.0000 0.0000 0.0000 0.0000 15.1454
#
#
#
# Elastic Compliance Matrix: (Units=1/GPa)
#
#
# Indices 1 2 3 4 5 6 
#
# 1 0.135801 -0.113604 -0.008217 0.000000 0.000000 0.000000
# 2 -0.113604 0.135801 -0.008217 0.000000 0.000000 0.000000
# 3 -0.008217 -0.008217 0.018031 0.000000 0.000000 0.000000
# 4 0.000000 0.000000 0.000000 0.043444 0.000000 0.000000
# 5 0.000000 0.000000 0.000000 0.000000 0.043444 0.000000
# 6 0.000000 0.000000 0.000000 0.000000 0.000000 0.066027
#
#
# Mechanical properties :
#
#
# Convention : Reuss Voigt Hill
#
# Bulk Modulus (GPa) = 33.83279 38.17955 36.00617
# Shear Modulus (GPa) = 7.01777 16.35235 11.68506
#
# Velocity S-wave (km/s) = 2.08483 3.18245 2.69021
# Velocity P-wave (km/s) = 5.17204 6.09515 5.65247
#
# Compressibility (1/GPa) = 0.02955712
#
# Stress axis : x y z
#
# Youngs Moduli (GPa) = 7.36372 7.36372 55.45856
#
# Poissons Ratio (x) = 0.83655 0.45571
# Poissons Ratio (y) = 0.83655 0.45571
# Poissons Ratio (z) = 0.06051 0.06051
#
# Static dielectric constant tensor:
#      x y z
#    x 2.910340 0.000000 0.000000 
#    y 0.000000 2.910340 0.000000 
#    z 0.000000 0.000000 3.312950 
# 
# 
# High freq. dielectric constant tensor:
#      x y z
#    x 1.588330 0.000000 0.000000 
#    y 0.000000 1.588330 0.000000 
#    z 0.000000 0.000000 1.636040 
# 
# From -- ./inp_files/6887.got.cif
#   From: 2010.03.12/outbox.cif.g09.slc.cpg/sg132_4_cif.got.tgz:6887.got - 2010.04.06 17:53:44.
