data_PCOD8316457
_publ_section_title
;
Structure prediction by ZEFSAII (Michael W. Deem and Ramdas Pophale) SiO2 
 PCOD8316457
Probable space group: P 42/M C M
;
_chemical_formula_sum "Si O2"
_cell_formula_units_Z 112
_cell_length_a 19.644158
_cell_length_b 19.644158
_cell_length_c 17.986953
_cell_angle_alpha 90.000000
_cell_angle_beta 90.000000
_cell_angle_gamma 90.000000
_cell_volume 6941.038238
_symmetry_space_group_name_H-M "P 42/M C M"
_symmetry_group_IT_number 132
_symmetry_cell_setting 'tetragonal'
loop_
_space_group_symop_operation_xyz
x,y,z
-y,x,1/2+z
-x,-y,z
y,-x,1/2+z
x,-y,1/2-z
-x,y,1/2-z
y,x,-z
-y,-x,-z
-x,-y,-z
y,-x,1/2-z
x,y,-z
-y,x,1/2-z
-x,y,1/2+z
x,-y,1/2+z
-y,-x,z
y,x,z
loop_
_atom_site_type_symbol
_atom_site_label
_atom_site_fract_x
_atom_site_fract_y
_atom_site_fract_z
Si Si1 0.360007 0.071896 0.839094
Si Si2 0.690989 0.199971 0.588345
Si Si3 0.103157 0.501562 0.416385
Si Si4 0.313817 0.795143 0.085784
Si Si5 0.683646 0.421007 0.088965
Si Si6 0.747278 0.448881 0.417151
Si Si7 0.636198 0.079591 0.168160
O O1 0.306582 0.124686 0.876490
O O2 0.430992 0.070660 0.882343
O O3 0.372456 0.095411 0.754967
O O4 0.330397 0.995229 0.843601
O O5 0.682826 0.191966 0.500000
O O6 0.758984 0.241017 0.610056
O O7 0.624611 0.240736 0.621642
O O8 0.075303 0.492130 0.500000
O O9 0.184150 0.507309 0.417721
O O10 0.081140 0.438006 0.367628
O O11 0.240464 0.759537 0.095624
O O12 0.372434 0.744835 0.116541
O O13 0.313765 0.864819 0.132266
O O14 0.327556 0.813373 0.000000
O O15 0.611514 0.388487 0.115442
O O16 0.692656 0.498684 0.120727
O O17 0.686543 0.422787 0.000000
O O18 0.721693 0.432567 0.500000
#
# Coordination Sequence:
#
# PCOD8316457 Si02
#       7
#    16  16  16  16  16  16  16
#     4  10  22  32  42  64  92 121 157 188 225 275
#     4   9  18  33  50  64  82 114 160 206 234 262
#     4  10  18  29  45  64  88 122 158 189 222 264
#     4   9  17  28  44  67  91 118 152 184 221 272
#     4   8  12  20  36  59  86 112 142 182 222 264
#     4   8  13  23  40  62  83 109 146 185 228 266
#     4  11  20  31  44  63  95 126 147 184 230 274
#
# _framework density 16.135914
#
# number of rings (size 3 to 8) (size 9 to 14) (size 15 to 20)
#    0.000    2.714    1.429    3.429    0.000    4.571 
#    0.000    0.000    0.000    0.429    0.000    3.000 
#    0.000    0.571    0.000    6.286    0.000    4.571 
#
# Total GULP energy -1387680.697687 kJ/mol
# GULP energy per Si atom -12390.006229 kJ/mol
# Density = 1.609919 g / cm^3
# Si number density = 16.135914 Si / 1000 Ang^3
#
#
#
# Elastic Constant Matrix: (Units=GPa)
#
#
# Indices 1 2 3 4 5 6 
#
# 1 61.1329 31.1123 21.1507 0.0000 0.0000 0.0000
# 2 31.1123 61.1329 21.1507 0.0000 0.0000 0.0000
# 3 21.1507 21.1507 58.9577 0.0000 0.0000 0.0000
# 4 0.0000 0.0000 0.0000 17.8540 0.0000 0.0000
# 5 0.0000 0.0000 0.0000 0.0000 17.8540 0.0000
# 6 0.0000 0.0000 0.0000 0.0000 0.0000 14.5828
#
#
#
# Elastic Compliance Matrix: (Units=1/GPa)
#
#
# Indices 1 2 3 4 5 6 
#
# 1 0.023143 -0.010168 -0.004655 0.000000 0.000000 0.000000
# 2 -0.010168 0.023143 -0.004655 0.000000 0.000000 0.000000
# 3 -0.004655 -0.004655 0.020301 0.000000 0.000000 0.000000
# 4 0.000000 0.000000 0.000000 0.056010 0.000000 0.000000
# 5 0.000000 0.000000 0.000000 0.000000 0.056010 0.000000
# 6 0.000000 0.000000 0.000000 0.000000 0.000000 0.068574
#
#
# Mechanical properties :
#
#
# Convention : Reuss Voigt Hill
#
# Bulk Modulus (GPa) = 36.18942 36.45013 36.31977
# Shear Modulus (GPa) = 16.92933 17.24549 17.08741
#
# Velocity S-wave (km/s) = 3.24260 3.27274 3.25771
# Velocity P-wave (km/s) = 6.04118 6.07615 6.05869
#
# Compressibility (1/GPa) = 0.02763239
#
# Stress axis : x y z
#
# Youngs Moduli (GPa) = 43.20992 43.20992 49.25850
#
# Poissons Ratio (x) = 0.43934 0.22929
# Poissons Ratio (y) = 0.43934 0.22929
# Poissons Ratio (z) = 0.20113 0.20113
#
# Static dielectric constant tensor:
#      x y z
#    x 3.038980 0.000000 0.000000 
#    y 0.000000 3.038980 0.000000 
#    z 0.000000 0.000000 2.869960 
# 
# 
# High freq. dielectric constant tensor:
#      x y z
#    x 1.599120 0.000000 0.000000 
#    y 0.000000 1.599120 0.000000 
#    z 0.000000 0.000000 1.598680 
# 
# From -- ./inp_files/6790.got.cif
#   From: 2010.03.12/outbox.cif.g09.slc.cpg/sg132_4_cif.got.tgz:6790.got - 2010.04.06 17:53:44.
