data_PCOD8316558
_publ_section_title
;
Structure prediction by ZEFSAII (Michael W. Deem and Ramdas Pophale) SiO2 
 PCOD8316558
Probable space group: P 42/M C M
;
_chemical_formula_sum "Si O2"
_cell_formula_units_Z 120
_cell_length_a 27.848266
_cell_length_b 27.848266
_cell_length_c 9.312634
_cell_angle_alpha 90.000000
_cell_angle_beta 90.000000
_cell_angle_gamma 90.000000
_cell_volume 7222.189043
_symmetry_space_group_name_H-M "P 42/M C M"
_symmetry_group_IT_number 132
_symmetry_cell_setting 'tetragonal'
loop_
_space_group_symop_operation_xyz
x,y,z
-y,x,1/2+z
-x,-y,z
y,-x,1/2+z
x,-y,1/2-z
-x,y,1/2-z
y,x,-z
-y,-x,-z
-x,-y,-z
y,-x,1/2-z
x,y,-z
-y,x,1/2-z
-x,y,1/2+z
x,-y,1/2+z
-y,-x,z
y,x,z
loop_
_atom_site_type_symbol
_atom_site_label
_atom_site_fract_x
_atom_site_fract_y
_atom_site_fract_z
Si Si1 0.320471 0.953511 0.835438
Si Si2 0.868988 0.566203 0.844088
Si Si3 0.955801 0.565224 0.659664
Si Si4 0.584683 0.725194 0.661935
Si Si5 0.209510 0.500000 0.250000
Si Si6 0.764777 0.315288 0.831563
Si Si7 0.323960 0.858232 0.669301
Si Si8 0.547263 0.373497 0.166063
O O1 0.377602 0.956415 0.838630
O O2 0.304110 0.906038 0.748455
O O3 0.300099 0.000000 0.750000
O O4 0.300830 0.952548 0.000000
O O5 0.906630 0.545956 0.728801
O O6 0.823498 0.531110 0.856471
O O7 0.852301 0.619408 0.800543
O O8 0.894321 0.568784 0.000000
O O9 0.958791 0.544377 0.500000
O O10 0.000000 0.544304 0.750000
O O11 0.599682 0.713588 0.500000
O O12 0.538150 0.759312 0.661985
O O13 0.632783 0.747632 0.731508
O O14 0.570152 0.674828 0.735729
O O15 0.723297 0.276704 0.803065
O O16 0.811860 0.299175 0.742355
O O17 0.778306 0.318417 0.000000
O O18 0.311669 0.860888 0.500000
O O19 0.500000 0.388384 0.250000
O O20 0.583838 0.416163 0.187137
O O21 0.534079 0.364748 0.000000
#
# Coordination Sequence:
#
# PCOD8316558 Si02
#       8
#    16  16  16  16   8  16  16  16
#     4   9  16  27  45  70  96 125 160 196 236 280
#     4  10  21  33  47  70  95 118 149 188 228 275
#     4   9  17  30  49  68  90 121 153 188 228 271
#     4  10  20  35  55  74  95 122 152 185 226 277
#     4  12  20  34  53  72  91 120 148 188 230 278
#     4  10  20  35  54  74  96 124 158 194 234 284
#     4  10  19  32  48  69  98 127 156 193 237 284
#     4  10  21  38  59  81 103 125 148 175 211 260
#
# _framework density 16.615461
#
# number of rings (size 3 to 8) (size 9 to 14) (size 15 to 20)
#    0.000    2.133    2.000    2.000    0.000    7.067 
#    0.000    1.667    0.000    3.200    0.000    0.000 
#    0.000    0.000    0.000    0.000    0.000    0.000 
#
# Total GULP energy -1487649.755689 kJ/mol
# GULP energy per Si atom -12397.081297 kJ/mol
# Density = 1.657764 g / cm^3
# Si number density = 16.615461 Si / 1000 Ang^3
#
#
#
# Elastic Constant Matrix: (Units=GPa)
#
#
# Indices 1 2 3 4 5 6 
#
# 1 82.7948 33.8179 39.8598 0.0000 0.0000 0.0000
# 2 33.8179 82.7948 39.8598 0.0000 0.0000 0.0000
# 3 39.8598 39.8598 98.3195 0.0000 0.0000 0.0000
# 4 0.0000 0.0000 0.0000 20.0955 0.0000 0.0000
# 5 0.0000 0.0000 0.0000 0.0000 20.0955 0.0000
# 6 0.0000 0.0000 0.0000 0.0000 0.0000 6.4706
#
#
#
# Elastic Compliance Matrix: (Units=1/GPa)
#
#
# Indices 1 2 3 4 5 6 
#
# 1 0.016141 -0.004277 -0.004810 0.000000 0.000000 0.000000
# 2 -0.004277 0.016141 -0.004810 0.000000 0.000000 0.000000
# 3 -0.004810 -0.004810 0.014071 0.000000 0.000000 0.000000
# 4 0.000000 0.000000 0.000000 0.049762 0.000000 0.000000
# 5 0.000000 0.000000 0.000000 0.000000 0.049762 0.000000
# 6 0.000000 0.000000 0.000000 0.000000 0.000000 0.154546
#
#
# Mechanical properties :
#
#
# Convention : Reuss Voigt Hill
#
# Bulk Modulus (GPa) = 53.88183 54.55380 54.21781
# Shear Modulus (GPa) = 14.95211 19.35711 17.15461
#
# Velocity S-wave (km/s) = 3.00307 3.41692 3.21666
# Velocity P-wave (km/s) = 6.67261 6.96215 6.81892
#
# Compressibility (1/GPa) = 0.01855913
#
# Stress axis : x y z
#
# Youngs Moduli (GPa) = 61.95580 61.95580 71.07027
#
# Poissons Ratio (x) = 0.26500 0.34181
# Poissons Ratio (y) = 0.26500 0.34181
# Poissons Ratio (z) = 0.29798 0.29798
#
# Static dielectric constant tensor:
#      x y z
#    x 2.937480 0.000000 0.000000 
#    y 0.000000 2.937480 0.000000 
#    z 0.000000 0.000000 3.155040 
# 
# 
# High freq. dielectric constant tensor:
#      x y z
#    x 1.612040 0.000000 0.000000 
#    y 0.000000 1.612040 0.000000 
#    z 0.000000 0.000000 1.640330 
# 
# From -- ./inp_files/2073.got.cif
#   From: 2010.03.12/outbox.cif.g09.slc.cpg/sg132_2_cif.got.tgz:2073.got - 2010.04.06 17:53:44.
