data_PCOD8316961
_publ_section_title
;
Structure prediction by ZEFSAII (Michael W. Deem and Ramdas Pophale) SiO2 
 PCOD8316961
Probable space group: P 42/N B C
;
_chemical_formula_sum "Si O2"
_cell_formula_units_Z 108
_cell_length_a 14.053297
_cell_length_b 14.053297
_cell_length_c 24.615655
_cell_angle_alpha 90.000000
_cell_angle_beta 90.000000
_cell_angle_gamma 90.000000
_cell_volume 4861.472638
_symmetry_space_group_name_H-M "P 42/N B C"
_symmetry_group_IT_number 133
_space_group.IT_coordinate_system_code '2'
_symmetry_cell_setting 'tetragonal'
loop_
_space_group_symop_operation_xyz
x,y,z
1/2-y,x,1/2+z
1/2-x,1/2-y,z
y,1/2-x,1/2+z
x,1/2-y,-z
1/2-x,y,-z
y,x,1/2-z
1/2-y,1/2-x,1/2-z
-x,-y,-z
1/2+y,-x,1/2-z
1/2+x,1/2+y,-z
-y,1/2+x,1/2-z
-x,1/2+y,z
1/2+x,-y,z
-y,-x,1/2+z
1/2+y,1/2+x,1/2+z
loop_
_atom_site_type_symbol
_atom_site_label
_atom_site_fract_x
_atom_site_fract_y
_atom_site_fract_z
Si Si1 0.750000 0.250000 0.250000
Si Si2 0.036809 0.931098 0.580162
Si Si3 0.368595 0.110191 0.366718
Si Si4 0.121827 0.653616 0.021744
Si Si5 0.226978 0.534688 0.105636
Si Si6 0.102359 0.874953 0.802739
Si Si7 0.932565 0.567436 0.750000
Si Si8 0.828004 0.533186 0.394055
O O1 0.720516 0.153944 0.281757
O O2 0.087945 0.934136 0.521693
O O3 0.062161 0.836418 0.613471
O O4 0.921808 0.924654 0.576946
O O5 0.066776 0.021634 0.614529
O O6 0.420697 0.203705 0.392067
O O7 0.372446 0.107401 0.301237
O O8 0.260533 0.106744 0.389245
O O9 0.197831 0.582257 0.048355
O O10 0.052430 0.701261 0.066406
O O11 0.172120 0.750000 0.000000
O O12 0.173919 0.580003 0.155119
O O13 0.082504 0.953686 0.756544
O O14 0.004378 0.846986 0.832832
#
# Coordination Sequence:
#
# PCOD8316961 Si02
#       8
#     4  16  16  16  16  16   8  16
#     4  12  24  32  60 100 126 168 216 292 332 408
#     4  12  23  41  67  90 131 172 213 272 326 395
#     4  11  23  44  65  92 132 169 220 273 328 397
#     4  11  22  41  66  98 129 172 215 266 332 399
#     4  10  25  41  61  96 128 169 216 270 324 395
#     4  10  23  38  60  93 128 160 221 266 343 395
#     4  10  20  44  64  89 129 176 212 274 336 410
#     4  11  23  42  65  94 126 176 214 270 334 394
#
# _framework density 22.215491
#
# number of rings (size 3 to 8) (size 9 to 14) (size 15 to 20)
#    0.000    1.185    5.926    1.778    4.148    1.778 
#    0.000    0.000    0.000    5.333    0.000    0.000 
#    0.000    0.000    0.000    0.000    0.000    0.000 
#
# Total GULP energy -1338435.014208 kJ/mol
# GULP energy per Si atom -12392.916798 kJ/mol
# Density = 2.216493 g / cm^3
# Si number density = 22.215491 Si / 1000 Ang^3
#
#
#
# Elastic Constant Matrix: (Units=GPa)
#
#
# Indices 1 2 3 4 5 6 
#
# 1 83.7081 -10.4354 24.5543 0.0000 0.0000 0.0000
# 2 -10.4354 83.7073 24.5542 0.0000 0.0000 0.0000
# 3 24.5543 24.5542 80.4595 0.0000 0.0000 0.0000
# 4 0.0000 0.0000 0.0000 13.6850 0.0000 0.0000
# 5 0.0000 0.0000 0.0000 0.0000 13.6849 0.0000
# 6 0.0000 0.0000 0.0000 0.0000 0.0000 15.9527
#
#
#
# Elastic Compliance Matrix: (Units=1/GPa)
#
#
# Indices 1 2 3 4 5 6 
#
# 1 0.013889 0.003267 -0.005236 0.000000 0.000000 0.000000
# 2 0.003267 0.013890 -0.005236 0.000000 0.000000 0.000000
# 3 -0.005236 -0.005236 0.015624 0.000000 0.000000 0.000000
# 4 0.000000 0.000000 0.000000 0.073072 0.000000 0.000000
# 5 0.000000 0.000000 0.000000 0.000000 0.073073 0.000000
# 6 0.000000 0.000000 0.000000 0.000000 0.000000 0.062685
#
#
# Mechanical properties :
#
#
# Convention : Reuss Voigt Hill
#
# Bulk Modulus (GPa) = 34.48910 36.13569 35.31239
# Shear Modulus (GPa) = 18.09577 22.61133 20.35355
#
# Velocity S-wave (km/s) = 2.85714 3.19379 3.03014
# Velocity P-wave (km/s) = 5.14226 5.46824 5.30775
#
# Compressibility (1/GPa) = 0.02899467
#
# Stress axis : x y z
#
# Youngs Moduli (GPa) = 71.99708 71.99648 64.00276
#
# Poissons Ratio (x) = -0.23524 0.33511
# Poissons Ratio (y) = -0.23524 0.33511
# Poissons Ratio (z) = 0.37697 0.37696
#
# Static dielectric constant tensor:
#      x y z
#    x 4.298200 0.000000 0.000000 
#    y 0.000000 4.298200 0.000000 
#    z 0.000000 0.000000 4.122520 
# 
# 
# High freq. dielectric constant tensor:
#      x y z
#    x 1.869630 0.000000 0.000000 
#    y 0.000000 1.869630 0.000000 
#    z 0.000000 0.000000 1.872830 
# 
# From -- ./inp_files/7298.got.cif
#   From: 2010.03.12/outbox.cif.g09.slc.cpg/sg133_4_cif.got.tgz:7298.got - 2010.04.06 18:08:06.
