data_PCOD8316666
_publ_section_title
;
Structure prediction by ZEFSAII (Michael W. Deem and Ramdas Pophale) SiO2 
 PCOD8316666
Probable space group: P 42/M C M
;
_chemical_formula_sum "Si O2"
_cell_formula_units_Z 112
_cell_length_a 15.225068
_cell_length_b 15.225068
_cell_length_c 25.604277
_cell_angle_alpha 90.000000
_cell_angle_beta 90.000000
_cell_angle_gamma 90.000000
_cell_volume 5935.140428
_symmetry_space_group_name_H-M "P 42/M C M"
_symmetry_group_IT_number 132
_symmetry_cell_setting 'tetragonal'
loop_
_space_group_symop_operation_xyz
x,y,z
-y,x,1/2+z
-x,-y,z
y,-x,1/2+z
x,-y,1/2-z
-x,y,1/2-z
y,x,-z
-y,-x,-z
-x,-y,-z
y,-x,1/2-z
x,y,-z
-y,x,1/2-z
-x,y,1/2+z
x,-y,1/2+z
-y,-x,z
y,x,z
loop_
_atom_site_type_symbol
_atom_site_label
_atom_site_fract_x
_atom_site_fract_y
_atom_site_fract_z
Si Si1 0.388392 0.247825 0.124681
Si Si2 0.137783 0.276278 0.798572
Si Si3 0.860739 0.004555 0.443543
Si Si4 0.817798 0.675616 0.684985
Si Si5 0.430122 0.923819 0.561919
Si Si6 0.709009 0.983986 0.372616
Si Si7 0.534458 0.676930 0.307705
O O1 0.309674 0.309674 0.099426
O O2 0.351010 0.195934 0.174216
O O3 0.435280 0.176191 0.085762
O O4 0.459764 0.315345 0.148246
O O5 0.180978 0.180978 0.809074
O O6 0.133823 0.295095 0.737466
O O7 0.039406 0.279714 0.819851
O O8 0.811088 0.006453 0.500000
O O9 0.897036 0.102965 0.430752
O O10 0.803467 0.966096 0.396814
O O11 0.942808 0.942808 0.448727
O O12 0.749094 0.749094 0.666191
O O13 0.770099 0.583850 0.694060
O O14 0.891800 0.662613 0.640598
O O15 0.432927 0.912925 0.500000
O O16 0.338659 0.961537 0.582045
O O17 0.500000 0.000000 0.579953
O O18 0.500000 0.655106 0.250000
O O19 0.598553 0.598553 0.325500
#
# Coordination Sequence:
#
# PCOD8316666 Si02
#       7
#    16  16  16  16  16  16  16
#     4  10  20  36  57  83 114 143 180 233 285 331
#     4   9  18  32  48  71 106 144 180 224 269 321
#     4   9  18  32  49  72 102 132 170 228 285 326
#     4  10  20  33  49  74 111 148 181 223 275 331
#     4  10  22  39  57  78 108 145 185 230 280 333
#     4  11  19  31  53  76 101 139 187 225 271 332
#     4  11  21  35  57  82 111 146 182 223 276 339
#
# _framework density 18.870657999999999
#
# number of rings (size 3 to 8) (size 9 to 14) (size 15 to 20)
#    0.000    2.000    1.429    3.429    0.000    1.857 
#    0.000    0.000    0.000    0.429    0.000   11.000 
#    0.000    0.000    0.000    0.000    0.000    0.000 
#
# Total GULP energy -1387743.460840 kJ/mol
# GULP energy per Si atom -12390.566615 kJ/mol
# Density = 1.882771 g / cm^3
# Si number density = 18.870658 Si / 1000 Ang^3
#
#
#
# Elastic Constant Matrix: (Units=GPa)
#
#
# Indices 1 2 3 4 5 6 
#
# 1 77.3759 35.6325 28.6738 0.0000 0.0000 0.0000
# 2 35.6325 77.3759 28.6738 0.0000 0.0000 0.0000
# 3 28.6738 28.6738 58.9972 0.0000 0.0000 0.0000
# 4 0.0000 0.0000 0.0000 24.2210 0.0000 0.0000
# 5 0.0000 0.0000 0.0000 0.0000 24.2210 0.0000
# 6 0.0000 0.0000 0.0000 0.0000 0.0000 27.1964
#
#
#
# Elastic Compliance Matrix: (Units=1/GPa)
#
#
# Indices 1 2 3 4 5 6 
#
# 1 0.017851 -0.006105 -0.005709 0.000000 0.000000 0.000000
# 2 -0.006105 0.017851 -0.005709 0.000000 0.000000 0.000000
# 3 -0.005709 -0.005709 0.022499 0.000000 0.000000 0.000000
# 4 0.000000 0.000000 0.000000 0.041287 0.000000 0.000000
# 5 0.000000 0.000000 0.000000 0.000000 0.041287 0.000000
# 6 0.000000 0.000000 0.000000 0.000000 0.000000 0.036770
#
#
# Mechanical properties :
#
#
# Convention : Reuss Voigt Hill
#
# Bulk Modulus (GPa) = 43.18552 44.41213 43.79883
# Shear Modulus (GPa) = 22.69561 23.17894 22.93727
#
# Velocity S-wave (km/s) = 3.47175 3.50852 3.49018
# Velocity P-wave (km/s) = 6.24543 6.32448 6.28508
#
# Compressibility (1/GPa) = 0.02315591
#
# Stress axis : x y z
#
# Youngs Moduli (GPa) = 56.01972 56.01972 44.44632
#
# Poissons Ratio (x) = 0.34200 0.25373
# Poissons Ratio (y) = 0.34200 0.25373
# Poissons Ratio (z) = 0.31980 0.31980
#
# Static dielectric constant tensor:
#      x y z
#    x 3.493390 0.000000 0.000000 
#    y 0.000000 3.493390 0.000000 
#    z 0.000000 0.000000 3.258990 
# 
# 
# High freq. dielectric constant tensor:
#      x y z
#    x 1.733040 0.000000 0.000000 
#    y 0.000000 1.733040 0.000000 
#    z 0.000000 0.000000 1.714160 
# 
# From -- ./inp_files/9099.got.cif
#   From: 2010.03.12/outbox.cif.g09.slc.cpg/sg132_5_cif.got.tgz:9099.got - 2010.04.06 17:53:44.
