data_PCOD8316869
_publ_section_title
;
Structure prediction by ZEFSAII (Michael W. Deem and Ramdas Pophale) SiO2 
 PCOD8316869
Probable space group: P 42/M C M
;
_chemical_formula_sum "Si O2"
_cell_formula_units_Z 112
_cell_length_a 22.812586
_cell_length_b 22.812586
_cell_length_c 19.431729
_cell_angle_alpha 90.000000
_cell_angle_beta 90.000000
_cell_angle_gamma 90.000000
_cell_volume 10112.545370
_symmetry_space_group_name_H-M "P 42/M C M"
_symmetry_group_IT_number 132
_symmetry_cell_setting 'tetragonal'
loop_
_space_group_symop_operation_xyz
x,y,z
-y,x,1/2+z
-x,-y,z
y,-x,1/2+z
x,-y,1/2-z
-x,y,1/2-z
y,x,-z
-y,-x,-z
-x,-y,-z
y,-x,1/2-z
x,y,-z
-y,x,1/2-z
-x,y,1/2+z
x,-y,1/2+z
-y,-x,z
y,x,z
loop_
_atom_site_type_symbol
_atom_site_label
_atom_site_fract_x
_atom_site_fract_y
_atom_site_fract_z
Si Si1 0.930427 0.266038 0.077045
Si Si2 0.500000 0.070015 0.172022
Si Si3 0.930426 0.266037 0.422955
Si Si4 0.067197 0.838306 0.329649
Si Si5 0.396000 0.930259 0.922630
Si Si6 0.161695 0.932803 0.829648
Si Si7 0.069742 0.396000 0.922630
O O1 0.907592 0.330922 0.098111
O O2 0.906131 0.216857 0.128820
O O3 0.000000 0.266407 0.080497
O O4 0.909157 0.250704 0.000000
O O5 0.500000 0.094319 0.250000
O O6 0.557237 0.094535 0.132181
O O7 0.442763 0.094535 0.132181
O O8 0.500000 0.000000 0.172295
O O9 0.909156 0.250704 0.500000
O O10 0.906130 0.216854 0.371182
O O11 0.907591 0.330922 0.401888
O O12 0.103830 0.896171 0.348326
O O13 0.072722 0.821854 0.250001
O O14 1.000000 0.851564 0.350171
O O15 0.397321 0.000000 0.921571
O O16 0.411861 0.908795 0.000000
O O17 0.103832 0.896169 0.848325
O O18 0.091206 0.411860 0.000000
#
# Coordination Sequence:
#
# PCOD8316869 Si02
#       7
#    16  16  16  16  16  16  16
#     4   8  14  24  36  47  57  71  91 112 134 162
#     4   9  15  19  25  41  61  77  93 111 127 143
#     4   8  14  24  36  47  57  71  91 112 134 162
#     4   9  17  27  37  48  60  73  89 111 142 180
#     4   8  13  21  31  41  55  75  94 109 127 152
#     4   9  17  27  37  48  60  73  89 111 142 180
#     4   8  13  21  31  41  55  75  94 109 127 152
#
# _framework density 11.075352000000001
#
# number of rings (size 3 to 8) (size 9 to 14) (size 15 to 20)
#    0.000    3.571    0.000    2.143    0.000    3.714 
#    0.000    7.143    0.000    0.000    0.000    4.000 
#    0.000    0.000    0.000    0.000    0.000    0.000 
#
# Total GULP energy -1387826.256679 kJ/mol
# GULP energy per Si atom -12391.305863 kJ/mol
# Density = 1.105014 g / cm^3
# Si number density = 11.075352 Si / 1000 Ang^3
#
#
#
# Elastic Constant Matrix: (Units=GPa)
#
#
# Indices 1 2 3 4 5 6 
#
# 1 52.0891 23.8044 38.5905 0.0000 0.0000 0.0000
# 2 23.8044 52.0891 38.5905 0.0000 0.0000 0.0000
# 3 38.5905 38.5905 74.7604 0.0000 0.0000 0.0000
# 4 0.0000 0.0000 0.0000 15.6100 0.0000 0.0000
# 5 0.0000 0.0000 0.0000 0.0000 15.6100 0.0000
# 6 0.0000 0.0000 0.0000 0.0000 0.0000 0.3913
#
#
#
# Elastic Compliance Matrix: (Units=1/GPa)
#
#
# Indices 1 2 3 4 5 6 
#
# 1 0.031546 -0.003809 -0.014317 0.000000 0.000000 0.000000
# 2 -0.003809 0.031546 -0.014317 0.000000 0.000000 0.000000
# 3 -0.014317 -0.014317 0.028157 0.000000 0.000000 0.000000
# 4 0.000000 0.000000 0.000000 0.064062 0.000000 0.000000
# 5 0.000000 0.000000 0.000000 0.000000 0.064062 0.000000
# 6 0.000000 0.000000 0.000000 0.000000 0.000000 2.555467
#
#
# Mechanical properties :
#
#
# Convention : Reuss Voigt Hill
#
# Bulk Modulus (GPa) = 37.93508 42.32327 40.12918
# Shear Modulus (GPa) = 1.75530 11.51912 6.63721
#
# Velocity S-wave (km/s) = 1.26028 3.22851 2.45067
# Velocity P-wave (km/s) = 6.03688 7.22458 6.65727
#
# Compressibility (1/GPa) = 0.02636082
#
# Stress axis : x y z
#
# Youngs Moduli (GPa) = 31.69999 31.69999 35.51517
#
# Poissons Ratio (x) = 0.12075 0.50848
# Poissons Ratio (y) = 0.12075 0.50848
# Poissons Ratio (z) = 0.45386 0.45386
#
# Static dielectric constant tensor:
#      x y z
#    x 2.253460 0.000000 0.000000 
#    y 0.000000 2.253460 0.000000 
#    z 0.000000 0.000000 2.547530 
# 
# 
# High freq. dielectric constant tensor:
#      x y z
#    x 1.379960 0.000000 0.000000 
#    y 0.000000 1.379960 0.000000 
#    z 0.000000 0.000000 1.429010 
# 
# From -- ./inp_files/8246.got.cif
#   From: 2010.03.12/outbox.cif.g09.slc.cpg/sg132_5_cif.got.tgz:8246.got - 2010.04.06 17:53:44.
