data_PCOD8316899
_publ_section_title
;
Structure prediction by ZEFSAII (Michael W. Deem and Ramdas Pophale) SiO2 
 PCOD8316899
Probable space group: P 42/N B C
;
_chemical_formula_sum "Si O2"
_cell_formula_units_Z 120
_cell_length_a 17.509865
_cell_length_b 17.509865
_cell_length_c 20.030623
_cell_angle_alpha 90.000000
_cell_angle_beta 90.000000
_cell_angle_gamma 90.000000
_cell_volume 6141.296316
_symmetry_space_group_name_H-M "P 42/N B C"
_symmetry_group_IT_number 133
_space_group.IT_coordinate_system_code '2'
_symmetry_cell_setting 'tetragonal'
loop_
_space_group_symop_operation_xyz
x,y,z
1/2-y,x,1/2+z
1/2-x,1/2-y,z
y,1/2-x,1/2+z
x,1/2-y,-z
1/2-x,y,-z
y,x,1/2-z
1/2-y,1/2-x,1/2-z
-x,-y,-z
1/2+y,-x,1/2-z
1/2+x,1/2+y,-z
-y,1/2+x,1/2-z
-x,1/2+y,z
1/2+x,-y,z
-y,-x,1/2+z
1/2+y,1/2+x,1/2+z
loop_
_atom_site_type_symbol
_atom_site_label
_atom_site_fract_x
_atom_site_fract_y
_atom_site_fract_z
Si Si1 0.917992 0.917992 0.250000
Si Si2 0.941895 0.825346 0.835341
Si Si3 0.326462 0.460955 0.185990
Si Si4 0.549467 0.331492 0.976304
Si Si5 0.202967 0.114480 0.557715
Si Si6 0.561571 0.451024 0.592099
Si Si7 0.827022 0.943215 0.129739
Si Si8 0.449929 0.932046 0.857919
O O1 0.843430 0.914330 0.204591
O O2 0.990993 0.916949 0.201422
O O3 0.874735 0.886169 0.829699
O O4 0.961279 0.794484 0.761543
O O5 0.912642 0.754241 0.879568
O O6 0.018040 0.866876 0.863913
O O7 0.261462 0.464440 0.129498
O O8 0.374065 0.538245 0.176889
O O9 0.458438 0.326722 0.983478
O O10 0.568943 0.354469 0.899434
O O11 0.586576 0.250000 0.000000
O O12 0.574546 0.402724 0.021801
O O13 0.250000 0.161432 0.500000
O O14 0.127223 0.159587 0.579316
O O15 0.520608 0.374702 0.618496
O O16 0.495399 0.515769 0.590362
#
# Coordination Sequence:
#
# PCOD8316899 Si02
#       8
#     8  16  16  16  16  16  16  16
#     4  10  18  34  56  87 108 143 192 246 266 326
#     4  10  20  39  57  82 116 153 190 230 279 350
#     4  10  22  36  56  81 121 155 179 226 297 343
#     4  11  20  34  60  86 102 146 194 239 283 329
#     4  11  21  36  58  83 111 147 198 234 278 337
#     4  10  19  34  58  83 109 140 192 243 278 325
#     4  11  22  34  55  85 115 148 188 232 285 337
#     4  10  20  35  55  83 114 144 187 240 288 332
#
# _framework density 19.539849
#
# number of rings (size 3 to 8) (size 9 to 14) (size 15 to 20)
#    0.000    1.600    5.333    3.600    0.000    0.533 
#    0.000    4.667    0.000    1.600    0.000    0.000 
#    0.000    0.000    0.000    0.000    0.000    0.000 
#
# Total GULP energy -1486816.740173 kJ/mol
# GULP energy per Si atom -12390.139501 kJ/mol
# Density = 1.949538 g / cm^3
# Si number density = 19.539849 Si / 1000 Ang^3
#
#
#
# Elastic Constant Matrix: (Units=GPa)
#
#
# Indices 1 2 3 4 5 6 
#
# 1 59.0618 12.9013 22.1520 0.0000 0.0000 0.0000
# 2 12.9013 59.0618 22.1520 0.0000 0.0000 0.0000
# 3 22.1520 22.1520 87.1901 0.0000 0.0000 0.0000
# 4 0.0000 0.0000 0.0000 19.6349 0.0000 0.0000
# 5 0.0000 0.0000 0.0000 0.0000 19.6349 0.0000
# 6 0.0000 0.0000 0.0000 0.0000 0.0000 5.4801
#
#
#
# Elastic Compliance Matrix: (Units=1/GPa)
#
#
# Indices 1 2 3 4 5 6 
#
# 1 0.019068 -0.002595 -0.004185 0.000000 0.000000 0.000000
# 2 -0.002595 0.019068 -0.004185 0.000000 0.000000 0.000000
# 3 -0.004185 -0.004185 0.013596 0.000000 0.000000 0.000000
# 4 0.000000 0.000000 0.000000 0.050930 0.000000 0.000000
# 5 0.000000 0.000000 0.000000 0.000000 0.050930 0.000000
# 6 0.000000 0.000000 0.000000 0.000000 0.000000 0.182477
#
#
# Mechanical properties :
#
#
# Convention : Reuss Voigt Hill
#
# Bulk Modulus (GPa) = 33.55652 35.52493 34.54072
# Shear Modulus (GPa) = 13.58941 18.82386 16.20664
#
# Velocity S-wave (km/s) = 2.64004 3.10717 2.88308
# Velocity P-wave (km/s) = 5.14818 5.57610 5.36641
#
# Compressibility (1/GPa) = 0.02980047
#
# Stress axis : x y z
#
# Youngs Moduli (GPa) = 52.44372 52.44372 73.55225
#
# Poissons Ratio (x) = 0.13612 0.30782
# Poissons Ratio (y) = 0.13612 0.30782
# Poissons Ratio (z) = 0.21948 0.21948
#
# Static dielectric constant tensor:
#      x y z
#    x 3.453700 0.000000 0.000000 
#    y 0.000000 3.453700 0.000000 
#    z 0.000000 0.000000 3.807070 
# 
# 
# High freq. dielectric constant tensor:
#      x y z
#    x 1.738260 0.000000 0.000000 
#    y 0.000000 1.738260 0.000000 
#    z 0.000000 0.000000 1.774100 
# 
# From -- ./inp_files/6767.got.cif
#   From: 2010.03.12/outbox.cif.g09.slc.cpg/sg133_4_cif.got.tgz:6767.got - 2010.04.06 18:08:06.
