data_PCOD8316983
_publ_section_title
;
Structure prediction by ZEFSAII (Michael W. Deem and Ramdas Pophale) SiO2 
 PCOD8316983
Probable space group: P 42/N B C
;
_chemical_formula_sum "Si O2"
_cell_formula_units_Z 116
_cell_length_a 17.620248
_cell_length_b 17.620248
_cell_length_c 17.436315
_cell_angle_alpha 90.000000
_cell_angle_beta 90.000000
_cell_angle_gamma 90.000000
_cell_volume 5413.507461
_symmetry_space_group_name_H-M "P 42/N B C"
_symmetry_group_IT_number 133
_space_group.IT_coordinate_system_code '2'
_symmetry_cell_setting 'tetragonal'
loop_
_space_group_symop_operation_xyz
x,y,z
1/2-y,x,1/2+z
1/2-x,1/2-y,z
y,1/2-x,1/2+z
x,1/2-y,-z
1/2-x,y,-z
y,x,1/2-z
1/2-y,1/2-x,1/2-z
-x,-y,-z
1/2+y,-x,1/2-z
1/2+x,1/2+y,-z
-y,1/2+x,1/2-z
-x,1/2+y,z
1/2+x,-y,z
-y,-x,1/2+z
1/2+y,1/2+x,1/2+z
loop_
_atom_site_type_symbol
_atom_site_label
_atom_site_fract_x
_atom_site_fract_y
_atom_site_fract_z
Si Si1 0.913942 0.895392 0.415609
Si Si2 0.030064 0.527631 0.824987
Si Si3 0.250000 0.750000 0.250000
Si Si4 0.626519 0.162149 0.657475
Si Si5 0.381588 0.437067 0.421819
Si Si6 0.663231 0.403793 0.504538
Si Si7 0.293221 0.950388 0.077123
Si Si8 0.746083 0.664965 0.408898
O O1 0.918405 0.889933 0.508234
O O2 0.833124 0.870748 0.381441
O O3 0.978993 0.838308 0.386648
O O4 0.929122 0.981260 0.389420
O O5 0.103886 0.574278 0.794676
O O6 0.050504 0.444593 0.857535
O O7 0.979006 0.520994 0.750000
O O8 0.312648 0.704978 0.198718
O O9 0.634882 0.111560 0.581023
O O10 0.577227 0.236692 0.642752
O O11 0.347006 0.511660 0.462827
O O12 0.314918 0.388646 0.380429
O O13 0.750000 0.380292 0.500000
O O14 0.620244 0.348587 0.562635
O O15 0.250000 0.975164 0.000000
O O16 0.750000 0.750000 0.374504
O O17 0.750000 0.667515 0.500000
#
# Coordination Sequence:
#
# PCOD8316983 Si02
#       8
#    16  16   4  16  16  16  16  16
#     4  11  21  41  68  96 130 169 214 276 328 392
#     4  12  27  44  65  95 131 175 228 273 333 405
#     4  12  28  48  66  88 148 184 216 274 356 416
#     4  11  26  44  63  96 128 181 221 271 334 412
#     4  11  21  41  67  99 131 173 217 279 337 395
#     4  11  20  37  68  99 131 164 228 280 334 392
#     4  10  22  36  63  98 126 165 217 280 331 387
#     4   9  21  36  64 104 135 166 212 272 339 396
#
# _framework density 21.427882
#
# number of rings (size 3 to 8) (size 9 to 14) (size 15 to 20)
#    0.000    1.241    2.759    4.138    7.724    3.034 
#    0.000    0.000    0.000    0.000    0.000    0.000 
#    0.000    0.000    0.000    0.000    0.000    0.000 
#
# Total GULP energy -1438116.423905 kJ/mol
# GULP energy per Si atom -12397.555378 kJ/mol
# Density = 2.137911 g / cm^3
# Si number density = 21.427882 Si / 1000 Ang^3
#
#
#
# Elastic Constant Matrix: (Units=GPa)
#
#
# Indices 1 2 3 4 5 6 
#
# 1 150.8748 80.9415 18.8748 0.0000 0.0000 0.0000
# 2 80.9415 150.8748 18.8748 0.0000 0.0000 0.0000
# 3 18.8748 18.8748 33.0335 0.0000 0.0000 0.0000
# 4 0.0000 0.0000 0.0000 13.5720 0.0000 0.0000
# 5 0.0000 0.0000 0.0000 0.0000 13.5720 0.0000
# 6 0.0000 0.0000 0.0000 0.0000 0.0000 32.4481
#
#
#
# Elastic Compliance Matrix: (Units=1/GPa)
#
#
# Indices 1 2 3 4 5 6 
#
# 1 0.009528 -0.004772 -0.002718 0.000000 0.000000 0.000000
# 2 -0.004772 0.009528 -0.002718 0.000000 0.000000 0.000000
# 3 -0.002718 -0.002718 0.033378 0.000000 0.000000 0.000000
# 4 0.000000 0.000000 0.000000 0.073681 0.000000 0.000000
# 5 0.000000 0.000000 0.000000 0.000000 0.073681 0.000000
# 6 0.000000 0.000000 0.000000 0.000000 0.000000 0.030818
#
#
# Mechanical properties :
#
#
# Convention : Reuss Voigt Hill
#
# Bulk Modulus (GPa) = 31.23056 63.57393 47.40224
# Shear Modulus (GPa) = 19.10578 26.32458 22.71518
#
# Velocity S-wave (km/s) = 2.98926 3.50883 3.25941
# Velocity P-wave (km/s) = 5.14982 6.79331 6.02784
#
# Compressibility (1/GPa) = 0.03201992
#
# Stress axis : x y z
#
# Youngs Moduli (GPa) = 104.95569 104.95569 29.95983
#
# Poissons Ratio (x) = 0.50080 0.08142
# Poissons Ratio (y) = 0.50080 0.08142
# Poissons Ratio (z) = 0.28524 0.28524
#
# Static dielectric constant tensor:
#      x y z
#    x 4.043540 0.000000 0.000000 
#    y 0.000000 4.043540 0.000000 
#    z 0.000000 0.000000 3.508420 
# 
# 
# High freq. dielectric constant tensor:
#      x y z
#    x 1.855880 0.000000 0.000000 
#    y 0.000000 1.855880 0.000000 
#    z 0.000000 0.000000 1.794570 
# 
# From -- ./inp_files/5649.got.cif
#   From: 2010.03.12/outbox.cif.g09.slc.cpg/sg133_3_cif.got.tgz:5649.got - 2010.04.06 18:08:06.
