data_PCOD8316547
_publ_section_title
;
Structure prediction by ZEFSAII (Michael W. Deem and Ramdas Pophale) SiO2 
 PCOD8316547
Probable space group: P 42/M C M
;
_chemical_formula_sum "Si O2"
_cell_formula_units_Z 42
_cell_length_a 14.859531
_cell_length_b 14.859531
_cell_length_c 9.753991
_cell_angle_alpha 90.000000
_cell_angle_beta 90.000000
_cell_angle_gamma 90.000000
_cell_volume 2153.736435
_symmetry_space_group_name_H-M "P 42/M C M"
_symmetry_group_IT_number 132
_symmetry_cell_setting 'tetragonal'
loop_
_space_group_symop_operation_xyz
x,y,z
-y,x,1/2+z
-x,-y,z
y,-x,1/2+z
x,-y,1/2-z
-x,y,1/2-z
y,x,-z
-y,-x,-z
-x,-y,-z
y,-x,1/2-z
x,y,-z
-y,x,1/2-z
-x,y,1/2+z
x,-y,1/2+z
-y,-x,z
y,x,z
loop_
_atom_site_type_symbol
_atom_site_label
_atom_site_fract_x
_atom_site_fract_y
_atom_site_fract_z
Si Si1 0.000000 0.000000 0.250000
Si Si2 0.669373 0.081878 0.660290
Si Si3 0.138570 0.861431 0.654495
Si Si4 0.270747 0.417154 0.843009
O O1 0.937757 0.937757 0.155504
O O2 0.672539 0.054481 0.500000
O O3 0.768964 0.103544 0.721701
O O4 0.605882 0.167041 0.685140
O O5 0.629574 0.000000 0.750000
O O6 0.164415 0.835586 0.500000
O O7 0.301576 0.500000 0.750000
O O8 0.330477 0.330477 0.805650
O O9 0.285440 0.445492 0.000000
#
# Coordination Sequence:
#
# PCOD8316547 Si02
#       4
#     2  16   8  16
#     4  12  18  28  52  82 112 144 202 240 290 324
#     4  10  20  37  58  82 115 155 193 233 285 342
#     4  10  19  31  49  76 112 150 188 232 282 334
#     4  10  22  41  64  87 117 154 192 240 298 356
#
# _framework density 19.500992
#
# number of rings (size 3 to 8) (size 9 to 14) (size 15 to 20)
#    0.000    1.905    3.810    0.286    0.000    3.429 
#    0.000    6.667    0.000    0.000    0.000    0.000 
#    0.000    0.000    0.000    0.000    0.000    0.000 
#
# Total GULP energy -520852.302696 kJ/mol
# GULP energy per Si atom -12401.245302 kJ/mol
# Density = 1.945661 g / cm^3
# Si number density = 19.500992 Si / 1000 Ang^3
#
#
#
# Elastic Constant Matrix: (Units=GPa)
#
#
# Indices 1 2 3 4 5 6 
#
# 1 94.7105 24.8086 50.8569 0.0000 0.0000 0.0000
# 2 24.8086 94.7107 50.8570 0.0000 0.0000 0.0000
# 3 50.8569 50.8570 79.7500 0.0000 0.0000 0.0000
# 4 0.0000 0.0000 0.0000 32.1127 0.0000 0.0000
# 5 0.0000 0.0000 0.0000 0.0000 32.1126 0.0000
# 6 0.0000 0.0000 0.0000 0.0000 0.0000 16.0791
#
#
#
# Elastic Compliance Matrix: (Units=1/GPa)
#
#
# Indices 1 2 3 4 5 6 
#
# 1 0.016301 0.001995 -0.011668 0.000000 0.000000 0.000000
# 2 0.001995 0.016301 -0.011668 0.000000 0.000000 0.000000
# 3 -0.011668 -0.011668 0.027420 0.000000 0.000000 0.000000
# 4 0.000000 0.000000 0.000000 0.031140 0.000000 0.000000
# 5 0.000000 0.000000 0.000000 0.000000 0.031140 0.000000
# 6 0.000000 0.000000 0.000000 0.000000 0.000000 0.062192
#
#
# Mechanical properties :
#
#
# Convention : Reuss Voigt Hill
#
# Bulk Modulus (GPa) = 57.66260 58.02402 57.84331
# Shear Modulus (GPa) = 21.46324 25.57080 23.51702
#
# Velocity S-wave (km/s) = 3.32116 3.62506 3.47643
# Velocity P-wave (km/s) = 6.65884 6.88043 6.77054
#
# Compressibility (1/GPa) = 0.01734226
#
# Stress axis : x y z
#
# Youngs Moduli (GPa) = 61.34574 61.34571 36.46936
#
# Poissons Ratio (x) = -0.12240 0.42551
# Poissons Ratio (y) = -0.12240 0.42551
# Poissons Ratio (z) = 0.71576 0.71576
#
# Static dielectric constant tensor:
#      x y z
#    x 3.484790 0.000000 0.000000 
#    y 0.000000 3.484790 0.000000 
#    z 0.000000 0.000000 3.294480 
# 
# 
# High freq. dielectric constant tensor:
#      x y z
#    x 1.761140 0.000000 0.000000 
#    y 0.000000 1.761140 0.000000 
#    z 0.000000 0.000000 1.735980 
# 
# From -- ./inp_files/558.got.cif
#   From: 2010.03.12/outbox.cif.g09.slc.cpg/sg132_1_cif.got.tgz:558.got - 2010.04.06 17:53:44.
