data_PCOD8316901
_publ_section_title
;
Structure prediction by ZEFSAII (Michael W. Deem and Ramdas Pophale) SiO2 
 PCOD8316901
Probable space group: P 42/N B C
;
_chemical_formula_sum "Si O2"
_cell_formula_units_Z 112
_cell_length_a 14.841031
_cell_length_b 14.841031
_cell_length_c 28.428114
_cell_angle_alpha 90.000000
_cell_angle_beta 90.000000
_cell_angle_gamma 90.000000
_cell_volume 6261.468395
_symmetry_space_group_name_H-M "P 42/N B C"
_symmetry_group_IT_number 133
_space_group.IT_coordinate_system_code '2'
_symmetry_cell_setting 'tetragonal'
loop_
_space_group_symop_operation_xyz
x,y,z
1/2-y,x,1/2+z
1/2-x,1/2-y,z
y,1/2-x,1/2+z
x,1/2-y,-z
1/2-x,y,-z
y,x,1/2-z
1/2-y,1/2-x,1/2-z
-x,-y,-z
1/2+y,-x,1/2-z
1/2+x,1/2+y,-z
-y,1/2+x,1/2-z
-x,1/2+y,z
1/2+x,-y,z
-y,-x,1/2+z
1/2+y,1/2+x,1/2+z
loop_
_atom_site_type_symbol
_atom_site_label
_atom_site_fract_x
_atom_site_fract_y
_atom_site_fract_z
Si Si1 0.842311 0.356418 0.756268
Si Si2 0.752374 0.150030 0.916696
Si Si3 0.141493 0.942432 0.450779
Si Si4 0.346197 0.946985 0.445058
Si Si5 0.481580 0.790804 0.662305
Si Si6 0.508860 0.976960 0.622656
Si Si7 0.389037 0.478780 0.206116
O O1 0.863728 0.253231 0.770599
O O2 0.842101 0.414495 0.802930
O O3 0.917450 0.394068 0.721466
O O4 0.750000 0.250000 0.893883
O O5 0.665779 0.132503 0.949156
O O6 0.839893 0.140310 0.948762
O O7 0.762315 0.077594 0.875428
O O8 0.242078 0.972291 0.435921
O O9 0.121595 0.980329 0.503325
O O10 0.071268 0.984908 0.414857
O O11 0.400740 0.988497 0.401810
O O12 0.543277 0.713666 0.687609
O O13 0.534563 0.874496 0.638651
O O14 0.471685 0.037221 0.665387
O O15 0.412597 0.412597 0.250000
#
# Coordination Sequence:
#
# PCOD8316901 Si02
#       7
#    16  16  16  16  16  16  16
#     4   9  19  31  52  80 108 139 170 219 279 337
#     4   9  17  28  51  83 117 139 168 215 282 341
#     4   9  20  33  54  84 113 143 182 221 273 337
#     4  10  18  35  55  80 114 149 175 221 279 329
#     4  10  20  33  50  80 112 139 187 223 268 332
#     4  11  21  35  55  84 108 144 185 227 271 328
#     4  11  21  36  52  78 110 147 180 227 278 323
#
# _framework density 17.887179
#
# number of rings (size 3 to 8) (size 9 to 14) (size 15 to 20)
#    0.000    2.143    2.857    0.857    4.000    2.857 
#    0.000    0.000    0.000    0.857    3.714    2.000 
#    0.000    0.000    0.000    0.000    0.000    0.000 
#
# Total GULP energy -1388055.563653 kJ/mol
# GULP energy per Si atom -12393.353247 kJ/mol
# Density = 1.784647 g / cm^3
# Si number density = 17.887179 Si / 1000 Ang^3
#
#
#
# Elastic Constant Matrix: (Units=GPa)
#
#
# Indices 1 2 3 4 5 6 
#
# 1 67.3836 30.2131 32.8305 0.0000 0.0000 0.0000
# 2 30.2131 67.3836 32.8305 0.0000 0.0000 0.0000
# 3 32.8305 32.8305 88.5418 0.0000 0.0000 0.0000
# 4 0.0000 0.0000 0.0000 23.3981 0.0000 0.0000
# 5 0.0000 0.0000 0.0000 0.0000 23.3981 0.0000
# 6 0.0000 0.0000 0.0000 0.0000 0.0000 26.3307
#
#
#
# Elastic Compliance Matrix: (Units=1/GPa)
#
#
# Indices 1 2 3 4 5 6 
#
# 1 0.020277 -0.006626 -0.005062 0.000000 0.000000 0.000000
# 2 -0.006626 0.020277 -0.005062 0.000000 0.000000 0.000000
# 3 -0.005062 -0.005062 0.015048 0.000000 0.000000 0.000000
# 4 0.000000 0.000000 0.000000 0.042739 0.000000 0.000000
# 5 0.000000 0.000000 0.000000 0.000000 0.042739 0.000000
# 6 0.000000 0.000000 0.000000 0.000000 0.000000 0.037978
#
#
# Mechanical properties :
#
#
# Convention : Reuss Voigt Hill
#
# Bulk Modulus (GPa) = 45.24123 46.11748 45.67936
# Shear Modulus (GPa) = 22.73496 23.12102 22.92799
#
# Velocity S-wave (km/s) = 3.56900 3.59918 3.58412
# Velocity P-wave (km/s) = 6.50624 6.56586 6.53612
#
# Compressibility (1/GPa) = 0.02210373
#
# Stress axis : x y z
#
# Youngs Moduli (GPa) = 49.31584 49.31584 66.45402
#
# Poissons Ratio (x) = 0.32675 0.33639
# Poissons Ratio (y) = 0.32675 0.33639
# Poissons Ratio (z) = 0.24964 0.24964
#
# Static dielectric constant tensor:
#      x y z
#    x 3.229000 0.000000 0.000000 
#    y 0.000000 3.229000 0.000000 
#    z 0.000000 0.000000 3.454150 
# 
# 
# High freq. dielectric constant tensor:
#      x y z
#    x 1.674380 0.000000 0.000000 
#    y 0.000000 1.674380 0.000000 
#    z 0.000000 0.000000 1.703100 
# 
# From -- ./inp_files/7651.got.cif
#   From: 2010.03.12/outbox.cif.g09.slc.cpg/sg133_4_cif.got.tgz:7651.got - 2010.04.06 18:08:06.
