data_PCOD8316377
_publ_section_title
;
Structure prediction by ZEFSAII (Michael W. Deem and Ramdas Pophale) SiO2 
 PCOD8316377
Probable space group: P 42/M M C
;
_chemical_formula_sum "Si O2"
_cell_formula_units_Z 88
_cell_length_a 18.564681
_cell_length_b 18.564681
_cell_length_c 19.912995
_cell_angle_alpha 90.000000
_cell_angle_beta 90.000000
_cell_angle_gamma 90.000000
_cell_volume 6862.961567
_symmetry_space_group_name_H-M "P 42/M M C"
_symmetry_group_IT_number 131
_symmetry_cell_setting 'tetragonal'
loop_
_space_group_symop_operation_xyz
x,y,z
-x,-y,z
-y,x,1/2+z
y,-x,1/2+z
-x,y,-z
x,-y,-z
y,x,1/2-z
-y,-x,1/2-z
-x,-y,-z
x,y,-z
y,-x,1/2-z
-y,x,1/2-z
x,-y,z
-x,y,z
-y,-x,1/2+z
y,x,1/2+z
loop_
_atom_site_type_symbol
_atom_site_label
_atom_site_fract_x
_atom_site_fract_y
_atom_site_fract_z
Si Si1 0.920534 0.585465 0.818490
Si Si2 0.210697 0.584827 0.422187
Si Si3 0.500000 0.415710 0.422765
Si Si4 0.583413 0.194887 0.423968
Si Si5 0.585532 0.080394 0.168185
Si Si6 0.357117 0.651839 0.577545
O O1 0.921405 0.500000 0.821822
O O2 0.864896 0.614819 0.873585
O O3 0.898803 0.610815 0.743558
O O4 0.000000 0.615267 0.836219
O O5 0.198525 0.603899 0.500000
O O6 0.221083 0.500000 0.411131
O O7 0.140732 0.615149 0.382869
O O8 0.281653 0.624092 0.391471
O O9 0.500000 0.500000 0.416067
O O10 0.500000 0.388608 0.500000
O O11 0.426978 0.385805 0.387982
O O12 0.590039 0.165778 0.500000
O O13 0.500000 0.215632 0.408796
O O14 0.634943 0.263030 0.413105
O O15 0.500000 0.078971 0.164740
O O16 0.614271 0.000000 0.149044
O O17 0.355443 0.628256 0.500000
#
# Coordination Sequence:
#
# PCOD8316377 Si02
#       6
#    16  16   8  16  16  16
#     4   8  14  24  37  51  66  84 107 136 171 213
#     4   9  16  24  35  51  69  88 115 151 182 210
#     4   9  14  20  32  46  63  91 123 153 185 214
#     4   9  15  23  35  50  69  90 113 142 175 209
#     4   8  14  25  38  50  66  85 106 137 178 222
#     4   9  15  23  32  47  70  92 116 149 184 211
#
# _framework density 12.822452
#
# number of rings (size 3 to 8) (size 9 to 14) (size 15 to 20)
#    0.000    3.364    0.909    1.636    0.000    2.909 
#    0.000    4.545    0.000    0.000    0.000    0.000 
#    0.000    0.000    0.000    0.000    0.000    0.909 
#
# Total GULP energy -1090438.504948 kJ/mol
# GULP energy per Si atom -12391.346647 kJ/mol
# Density = 1.279327 g / cm^3
# Si number density = 12.822452 Si / 1000 Ang^3
#
#
#
# Elastic Constant Matrix: (Units=GPa)
#
#
# Indices 1 2 3 4 5 6 
#
# 1 69.3890 32.9751 37.0417 0.0000 0.0000 0.0000
# 2 32.9751 69.3890 37.0417 0.0000 0.0000 0.0000
# 3 37.0417 37.0417 55.0381 0.0000 0.0000 0.0000
# 4 0.0000 0.0000 0.0000 10.0967 0.0000 0.0000
# 5 0.0000 0.0000 0.0000 0.0000 10.0967 0.0000
# 6 0.0000 0.0000 0.0000 0.0000 0.0000 5.5732
#
#
#
# Elastic Compliance Matrix: (Units=1/GPa)
#
#
# Indices 1 2 3 4 5 6 
#
# 1 0.023254 -0.004208 -0.012818 0.000000 0.000000 0.000000
# 2 -0.004208 0.023254 -0.012818 0.000000 0.000000 0.000000
# 3 -0.012818 -0.012818 0.035423 0.000000 0.000000 0.000000
# 4 0.000000 0.000000 0.000000 0.099042 0.000000 0.000000
# 5 0.000000 0.000000 0.000000 0.000000 0.099042 0.000000
# 6 0.000000 0.000000 0.000000 0.000000 0.000000 0.179431
#
#
# Mechanical properties :
#
#
# Convention : Reuss Voigt Hill
#
# Bulk Modulus (GPa) = 44.96022 45.32590 45.14306
# Shear Modulus (GPa) = 9.49579 10.93718 10.21648
#
# Velocity S-wave (km/s) = 2.72427 2.92373 2.82577
# Velocity P-wave (km/s) = 6.71084 6.84275 6.77712
#
# Compressibility (1/GPa) = 0.02224189
#
# Stress axis : x y z
#
# Youngs Moduli (GPa) = 43.00340 43.00340 28.23020
#
# Poissons Ratio (x) = 0.18096 0.36186
# Poissons Ratio (y) = 0.18096 0.36186
# Poissons Ratio (z) = 0.55123 0.55123
#
# Static dielectric constant tensor:
#      x y z
#    x 2.545260 0.000000 0.000000 
#    y 0.000000 2.545260 0.000000 
#    z 0.000000 0.000000 2.555910 
# 
# 
# High freq. dielectric constant tensor:
#      x y z
#    x 1.461170 0.000000 0.000000 
#    y 0.000000 1.461170 0.000000 
#    z 0.000000 0.000000 1.468830 
# 
# From -- ./inp_files/11064.got.cif
#   From: 2010.03.12/outbox.cif.g09.slc.cpg/sg131_6_cif.got.tgz:11064.got - 2010.04.06 17:36:35.
