data_PCOD8316312
_publ_section_title
;
Structure prediction by ZEFSAII (Michael W. Deem and Ramdas Pophale) SiO2 
 PCOD8316312
Probable space group: P 42/M M C
;
_chemical_formula_sum "Si O2"
_cell_formula_units_Z 48
_cell_length_a 10.263267
_cell_length_b 10.263267
_cell_length_c 24.943347
_cell_angle_alpha 90.000000
_cell_angle_beta 90.000000
_cell_angle_gamma 90.000000
_cell_volume 2627.398714
_symmetry_space_group_name_H-M "P 42/M M C"
_symmetry_group_IT_number 131
_symmetry_cell_setting 'tetragonal'
loop_
_space_group_symop_operation_xyz
x,y,z
-x,-y,z
-y,x,1/2+z
y,-x,1/2+z
-x,y,-z
x,-y,-z
y,x,1/2-z
-y,-x,1/2-z
-x,-y,-z
x,y,-z
y,-x,1/2-z
-y,x,1/2-z
x,-y,z
-x,y,z
-y,-x,1/2+z
y,x,1/2+z
loop_
_atom_site_type_symbol
_atom_site_label
_atom_site_fract_x
_atom_site_fract_y
_atom_site_fract_z
Si Si1 0.500000 0.733053 0.668310
Si Si2 0.000000 0.000000 0.750000
Si Si3 0.732887 0.000000 0.187068
Si Si4 0.500000 0.500000 0.750000
Si Si5 0.144353 0.654003 0.500000
Si Si6 0.000000 0.500000 0.769857
Si Si7 0.655113 0.238698 0.885367
O O1 0.500000 0.630260 0.715963
O O2 0.500000 0.875843 0.692219
O O3 0.375524 0.714018 0.631244
O O4 0.000000 0.124592 0.711882
O O5 0.628610 0.000000 0.234303
O O6 0.716627 0.872925 0.150976
O O7 0.131118 0.500000 0.500000
O O8 0.219832 0.699109 0.553140
O O9 0.000000 0.716124 0.500000
O O10 0.500000 0.236220 0.878142
#
# Coordination Sequence:
#
# PCOD8316312 Si02
#       7
#     8   2   8   2   8   4  16
#     4  12  24  37  59  88 123 154 194 243 298 347
#     4  12  28  40  56  90 124 164 200 244 288 342
#     4  12  22  41  61  82 119 158 204 239 284 349
#     4  12  20  40  56  86 124 156 196 244 288 354
#     4   9  18  33  61  90 113 145 195 246 293 345
#     4  12  24  40  60  88 118 166 202 236 292 356
#     4  11  20  38  62  90 118 150 194 248 297 351
#
# _framework density 18.269019
#
# number of rings (size 3 to 8) (size 9 to 14) (size 15 to 20)
#    0.000    0.833    5.000    4.000    0.000    0.667 
#    0.000    2.500    0.000    6.000    0.000    0.000 
#    0.000    0.000    0.000    0.000    0.000    0.000 
#
# Total GULP energy -595376.802222 kJ/mol
# GULP energy per Si atom -12403.683380 kJ/mol
# Density = 1.822744 g / cm^3
# Si number density = 18.269019 Si / 1000 Ang^3
#
#
#
# Elastic Constant Matrix: (Units=GPa)
#
#
# Indices 1 2 3 4 5 6 
#
# 1 158.9801 53.5808 92.8050 0.0000 0.0000 0.0000
# 2 53.5808 158.9801 92.8050 0.0000 0.0000 0.0000
# 3 92.8050 92.8050 177.0153 0.0000 0.0000 0.0000
# 4 0.0000 0.0000 0.0000 774.6076 0.0000 0.0000
# 5 0.0000 0.0000 0.0000 0.0000 774.6076 0.0000
# 6 0.0000 0.0000 0.0000 0.0000 0.0000 -38.2452
#
#
#
# Elastic Compliance Matrix: (Units=1/GPa)
#
#
# Indices 1 2 3 4 5 6 
#
# 1 0.009082 -0.000405 -0.004549 0.000000 0.000000 0.000000
# 2 -0.000405 0.009082 -0.004549 0.000000 0.000000 0.000000
# 3 -0.004549 -0.004549 0.010419 0.000000 0.000000 0.000000
# 4 0.000000 0.000000 0.000000 0.001291 0.000000 0.000000
# 5 0.000000 0.000000 0.000000 0.000000 0.001291 0.000000
# 6 0.000000 0.000000 0.000000 0.000000 0.000000 -0.026147
#
#
# Mechanical properties :
#
#
# Convention : Reuss Voigt Hill
#
# Bulk Modulus (GPa) = 104.42153 108.15078 106.28616
# Shear Modulus (GPa) = 183.70300 319.24633 251.47467
#
# Velocity S-wave (km/s) = 10.03856 13.23355 11.74520
# Velocity P-wave (km/s) = 13.84360 17.11227 15.56398
#
# Compressibility (1/GPa) = 0.00957657
#
# Stress axis : x y z
#
# Youngs Moduli (GPa) = 110.10466 110.10466 95.97715
#
# Poissons Ratio (x) = 0.04464 0.43660
# Poissons Ratio (y) = 0.04464 0.43660
# Poissons Ratio (z) = 0.50087 0.50087
#
# Static dielectric constant tensor:
#      x y z
#    x 3.401320 0.000000 0.000000 
#    y 0.000000 3.401320 0.000000 
#    z 0.000000 0.000000 14.607560 
# 
# 
# High freq. dielectric constant tensor:
#      x y z
#    x 1.705630 0.000000 0.000000 
#    y 0.000000 1.705630 0.000000 
#    z 0.000000 0.000000 1.723570 
# 
# From -- ./inp_files/13075.got.cif
#   From: 2010.03.12/outbox.cif.g09.slc.cpg/sg131_7_cif.got.tgz:13075.got - 2010.04.06 17:36:35.
