data_PCOD8316156
_publ_section_title
;
Structure prediction by ZEFSAII (Michael W. Deem and Ramdas Pophale) SiO2 
 PCOD8316156
Probable space group: P 42/M M C
;
_chemical_formula_sum "Si O2"
_cell_formula_units_Z 112
_cell_length_a 14.507826
_cell_length_b 14.507826
_cell_length_c 25.862622
_cell_angle_alpha 90.000000
_cell_angle_beta 90.000000
_cell_angle_gamma 90.000000
_cell_volume 5443.487485
_symmetry_space_group_name_H-M "P 42/M M C"
_symmetry_group_IT_number 131
_symmetry_cell_setting 'tetragonal'
loop_
_space_group_symop_operation_xyz
x,y,z
-x,-y,z
-y,x,1/2+z
y,-x,1/2+z
-x,y,-z
x,-y,-z
y,x,1/2-z
-y,-x,1/2-z
-x,-y,-z
x,y,-z
y,-x,1/2-z
-y,x,1/2-z
x,-y,z
-x,y,z
-y,-x,1/2+z
y,x,1/2+z
loop_
_atom_site_type_symbol
_atom_site_label
_atom_site_fract_x
_atom_site_fract_y
_atom_site_fract_z
Si Si1 0.390508 0.104465 0.556999
Si Si2 0.106958 0.607222 0.256039
Si Si3 0.392767 0.791514 0.656534
Si Si4 0.284616 0.891311 0.142273
Si Si5 0.109316 0.101449 0.692249
Si Si6 0.395749 0.215922 0.941191
Si Si7 0.398539 0.603580 0.883591
O O1 0.353857 0.136292 0.500000
O O2 0.500000 0.110319 0.556622
O O3 0.349870 0.168667 0.602906
O O4 0.358574 0.000000 0.567889
O O5 0.129514 0.500000 0.263395
O O6 0.162036 0.651741 0.207367
O O7 0.139251 0.656544 0.308116
O O8 0.000000 0.625092 0.244845
O O9 0.500000 0.817338 0.657755
O O10 0.375536 0.681119 0.658622
O O11 0.178979 0.857668 0.151352
O O12 0.323552 0.840402 0.092613
O O13 0.291328 0.000000 0.132884
O O14 0.135473 0.135473 0.750000
O O15 0.000000 0.094193 0.690206
O O16 0.151923 0.000000 0.679318
O O17 0.500000 0.181186 0.929843
O O18 0.389310 0.325337 0.930703
O O19 0.368413 0.197883 0.000000
O O20 0.384528 0.500000 0.906025
O O21 0.500000 0.612816 0.857139
#
# Coordination Sequence:
#
# PCOD8316156 Si02
#       7
#    16  16  16  16  16  16  16
#     4   8  13  21  35  59  92 128 166 208 254 308
#     4   9  17  29  47  76 114 149 180 217 264 322
#     4   9  16  27  46  71  99 135 176 216 263 318
#     4  10  20  34  56  86 116 145 177 217 270 328
#     4   8  15  30  53  82 115 148 182 218 255 303
#     4  10  22  39  58  80 105 137 181 231 281 333
#     4   9  19  36  56  78 104 137 183 235 280 322
#
# _framework density 20.575044999999999
#
# number of rings (size 3 to 8) (size 9 to 14) (size 15 to 20)
#    0.000    3.000    0.000    1.714    0.000    4.857 
#    0.000    3.571    0.000    3.857    0.000    8.000 
#    0.000    0.000    0.000    0.000    0.000    0.000 
#
# Total GULP energy -1388052.061624 kJ/mol
# GULP energy per Si atom -12393.321979 kJ/mol
# Density = 2.052822 g / cm^3
# Si number density = 20.575045 Si / 1000 Ang^3
#
#
#
# Elastic Constant Matrix: (Units=GPa)
#
#
# Indices 1 2 3 4 5 6 
#
# 1 88.9472 40.6625 62.4989 0.0000 0.0000 0.0000
# 2 40.6625 88.9472 62.4989 0.0000 0.0000 0.0000
# 3 62.4989 62.4989 137.2910 0.0000 0.0000 0.0000
# 4 0.0000 0.0000 0.0000 21.0510 0.0000 0.0000
# 5 0.0000 0.0000 0.0000 0.0000 21.0510 0.0000
# 6 0.0000 0.0000 0.0000 0.0000 0.0000 16.1630
#
#
#
# Elastic Compliance Matrix: (Units=1/GPa)
#
#
# Indices 1 2 3 4 5 6 
#
# 1 0.017232 -0.003478 -0.006261 0.000000 0.000000 0.000000
# 2 -0.003478 0.017232 -0.006261 0.000000 0.000000 0.000000
# 3 -0.006261 -0.006261 0.012984 0.000000 0.000000 0.000000
# 4 0.000000 0.000000 0.000000 0.047504 0.000000 0.000000
# 5 0.000000 0.000000 0.000000 0.000000 0.047504 0.000000
# 6 0.000000 0.000000 0.000000 0.000000 0.000000 0.061870
#
#
# Mechanical properties :
#
#
# Convention : Reuss Voigt Hill
#
# Bulk Modulus (GPa) = 64.73590 71.83402 68.28496
# Shear Modulus (GPa) = 20.70600 21.62135 21.16368
#
# Velocity S-wave (km/s) = 3.17577 3.24520 3.21067
# Velocity P-wave (km/s) = 6.70663 7.00220 6.85601
#
# Compressibility (1/GPa) = 0.01544738
#
# Stress axis : x y z
#
# Youngs Moduli (GPa) = 58.03103 58.03103 77.01596
#
# Poissons Ratio (x) = 0.20185 0.48221
# Poissons Ratio (y) = 0.20185 0.48221
# Poissons Ratio (z) = 0.36334 0.36334
#
# Static dielectric constant tensor:
#      x y z
#    x 3.805400 0.000000 0.000000 
#    y 0.000000 3.805400 0.000000 
#    z 0.000000 0.000000 3.625910 
# 
# 
# High freq. dielectric constant tensor:
#      x y z
#    x 1.796570 0.000000 0.000000 
#    y 0.000000 1.796570 0.000000 
#    z 0.000000 0.000000 1.778570 
# 
# From -- ./inp_files/11284.got.cif
#   From: 2010.03.12/outbox.cif.g09.slc.cpg/sg131_6_cif.got.tgz:11284.got - 2010.04.06 17:36:35.
