data_PCOD8316355
_publ_section_title
;
Structure prediction by ZEFSAII (Michael W. Deem and Ramdas Pophale) SiO2 
 PCOD8316355
Probable space group: P 42/M M C
;
_chemical_formula_sum "Si O2"
_cell_formula_units_Z 58
_cell_length_a 11.846913
_cell_length_b 11.846913
_cell_length_c 22.344471
_cell_angle_alpha 90.000000
_cell_angle_beta 90.000000
_cell_angle_gamma 90.000000
_cell_volume 3136.031928
_symmetry_space_group_name_H-M "P 42/M M C"
_symmetry_group_IT_number 131
_symmetry_cell_setting 'tetragonal'
loop_
_space_group_symop_operation_xyz
x,y,z
-x,-y,z
-y,x,1/2+z
y,-x,1/2+z
-x,y,-z
x,-y,-z
y,x,1/2-z
-y,-x,1/2-z
-x,-y,-z
x,y,-z
y,-x,1/2-z
-y,x,1/2-z
x,-y,z
-x,y,z
-y,-x,1/2+z
y,x,1/2+z
loop_
_atom_site_type_symbol
_atom_site_label
_atom_site_fract_x
_atom_site_fract_y
_atom_site_fract_z
Si Si1 0.367136 0.373646 0.816165
Si Si2 0.000000 0.000000 0.250000
Si Si3 0.000000 0.236638 0.308030
Si Si4 0.866651 0.871407 0.000000
Si Si5 0.773182 0.204496 0.375974
Si Si6 0.000000 0.638692 0.185795
O O1 0.328838 0.328838 0.750000
O O2 0.322326 0.500000 0.823091
O O3 0.500000 0.368125 0.821452
O O4 0.315136 0.303858 0.870914
O O5 0.000000 0.107625 0.290494
O O6 0.888071 0.246918 0.346412
O O7 0.000000 0.330946 0.256106
O O8 0.826973 0.798798 0.056264
O O9 0.000000 0.879539 0.000000
O O10 0.817860 0.000000 0.000000
O O11 0.701303 0.107046 0.343208
O O12 0.000000 0.500000 0.177311
#
# Coordination Sequence:
#
# PCOD8316355 Si02
#       6
#    16   2   8   8  16   8
#     4   9  19  38  64  91 122 162 202 245 304 368
#     4  12  20  36  52  90 116 148 196 236 294 372
#     4  12  22  35  62  88 123 152 199 254 313 367
#     4  11  24  42  63  84 119 169 210 250 299 360
#     4  12  22  39  60  89 120 160 204 252 304 363
#     4  12  24  37  57  93 129 156 190 249 319 371
#
# _framework density 18.494710999999999
#
# number of rings (size 3 to 8) (size 9 to 14) (size 15 to 20)
#    0.000    0.966    5.517    3.310    0.000    3.310 
#    0.000    4.138    0.000    2.483    0.000    0.000 
#    0.000    0.000    0.000    0.000    0.000    0.000 
#
# Total GULP energy -718622.355096 kJ/mol
# GULP energy per Si atom -12390.040605 kJ/mol
# Density = 1.845262 g / cm^3
# Si number density = 18.494711 Si / 1000 Ang^3
#
#
#
# Elastic Constant Matrix: (Units=GPa)
#
#
# Indices 1 2 3 4 5 6 
#
# 1 90.3511 49.4713 53.5837 0.0000 0.0000 0.0000
# 2 49.4713 90.3511 53.5837 0.0000 0.0000 0.0000
# 3 53.5837 53.5837 131.3556 0.0000 0.0000 0.0000
# 4 0.0000 0.0000 0.0000 20.3119 0.0000 0.0000
# 5 0.0000 0.0000 0.0000 0.0000 20.3119 0.0000
# 6 0.0000 0.0000 0.0000 0.0000 0.0000 34.5286
#
#
#
# Elastic Compliance Matrix: (Units=1/GPa)
#
#
# Indices 1 2 3 4 5 6 
#
# 1 0.017434 -0.007028 -0.004245 0.000000 0.000000 0.000000
# 2 -0.007028 0.017434 -0.004245 0.000000 0.000000 0.000000
# 3 -0.004245 -0.004245 0.011076 0.000000 0.000000 0.000000
# 4 0.000000 0.000000 0.000000 0.049232 0.000000 0.000000
# 5 0.000000 0.000000 0.000000 0.000000 0.049232 0.000000
# 6 0.000000 0.000000 0.000000 0.000000 0.000000 0.028961
#
#
# Mechanical properties :
#
#
# Convention : Reuss Voigt Hill
#
# Bulk Modulus (GPa) = 67.07817 69.48171 68.27994
# Shear Modulus (GPa) = 23.88078 25.39176 24.63627
#
# Velocity S-wave (km/s) = 3.59726 3.70931 3.65371
# Velocity P-wave (km/s) = 7.32129 7.48300 7.40259
#
# Compressibility (1/GPa) = 0.01490798
#
# Stress axis : x y z
#
# Youngs Moduli (GPa) = 57.36048 57.36048 90.28612
#
# Poissons Ratio (x) = 0.40315 0.38323
# Poissons Ratio (y) = 0.40315 0.38323
# Poissons Ratio (z) = 0.24347 0.24347
#
# Static dielectric constant tensor:
#      x y z
#    x 3.550330 0.000000 0.000000 
#    y 0.000000 3.550330 0.000000 
#    z 0.000000 0.000000 3.313050 
# 
# 
# High freq. dielectric constant tensor:
#      x y z
#    x 1.728290 0.000000 0.000000 
#    y 0.000000 1.728290 0.000000 
#    z 0.000000 0.000000 1.696280 
# 
# From -- ./inp_files/9237.got.cif
#   From: 2010.03.12/outbox.cif.g09.slc.cpg/sg131_5_cif.got.tgz:9237.got - 2010.04.06 17:36:35.
