data_PCOD8316326
_publ_section_title
;
Structure prediction by ZEFSAII (Michael W. Deem and Ramdas Pophale) SiO2 
 PCOD8316326
Probable space group: P 42/M M C
;
_chemical_formula_sum "Si O2"
_cell_formula_units_Z 96
_cell_length_a 18.438898
_cell_length_b 18.438898
_cell_length_c 20.632964
_cell_angle_alpha 90.000000
_cell_angle_beta 90.000000
_cell_angle_gamma 90.000000
_cell_volume 7015.062493
_symmetry_space_group_name_H-M "P 42/M M C"
_symmetry_group_IT_number 131
_symmetry_cell_setting 'tetragonal'
loop_
_space_group_symop_operation_xyz
x,y,z
-x,-y,z
-y,x,1/2+z
y,-x,1/2+z
-x,y,-z
x,-y,-z
y,x,1/2-z
-y,-x,1/2-z
-x,-y,-z
x,y,-z
y,-x,1/2-z
-y,x,1/2-z
x,-y,z
-x,y,z
-y,-x,1/2+z
y,x,1/2+z
loop_
_atom_site_type_symbol
_atom_site_label
_atom_site_fract_x
_atom_site_fract_y
_atom_site_fract_z
Si Si1 0.913722 0.418753 0.571595
Si Si2 0.913614 0.672858 0.310027
Si Si3 0.913435 0.418027 0.188044
Si Si4 0.913877 0.677583 0.928715
Si Si5 0.084713 0.158014 0.074661
Si Si6 0.914399 0.837087 0.690892
O O1 0.886876 0.394907 0.500000
O O2 0.886181 0.500000 0.587496
O O3 0.881934 0.363221 0.624443
O O4 0.000000 0.418141 0.573882
O O5 0.883986 0.626434 0.249573
O O6 0.885231 0.754830 0.305561
O O7 0.000000 0.671400 0.310659
O O8 0.883367 0.500000 0.190430
O O9 0.882551 0.378753 0.123674
O O10 0.000000 0.418273 0.187515
O O11 0.891286 0.759466 0.910451
O O12 0.000000 0.673836 0.930173
O O13 0.883460 0.656832 0.000000
O O14 0.129504 0.105737 0.121450
O O15 0.000000 0.147281 0.089252
O O16 0.101851 0.137826 0.000000
O O17 0.880714 0.880714 0.750000
O O18 0.000000 0.840055 0.699047
#
# Coordination Sequence:
#
# PCOD8316326 Si02
#       6
#    16  16  16  16  16  16
#     4   8  13  22  37  55  73  91 107 124 155 206
#     4   9  17  27  37  50  69  90 111 139 176 217
#     4   9  15  22  35  54  73  91 109 129 157 202
#     4   8  14  25  39  53  70  90 109 133 171 219
#     4   9  18  32  46  56  68  89 117 152 198 245
#     4  11  22  32  42  54  68  89 120 160 202 239
#
# _framework density 13.684839999999999
#
# number of rings (size 3 to 8) (size 9 to 14) (size 15 to 20)
#    0.000    3.000    0.000    3.500    0.000    7.167 
#    0.000    4.167    0.000    0.000    0.000    0.000 
#    0.000    0.000    0.000    0.000    0.000    0.000 
#
# Total GULP energy -1189920.916186 kJ/mol
# GULP energy per Si atom -12395.009544 kJ/mol
# Density = 1.365369 g / cm^3
# Si number density = 13.684840 Si / 1000 Ang^3
#
#
#
# Elastic Constant Matrix: (Units=GPa)
#
#
# Indices 1 2 3 4 5 6 
#
# 1 59.3615 20.6971 43.4542 0.0000 0.0000 0.0000
# 2 20.6971 59.3615 43.4542 0.0000 0.0000 0.0000
# 3 43.4542 43.4542 116.7147 0.0000 0.0000 0.0000
# 4 0.0000 0.0000 0.0000 19.9660 0.0000 0.0000
# 5 0.0000 0.0000 0.0000 0.0000 19.9660 0.0000
# 6 0.0000 0.0000 0.0000 0.0000 0.0000 -0.1063
#
#
#
# Elastic Compliance Matrix: (Units=1/GPa)
#
#
# Indices 1 2 3 4 5 6 
#
# 1 0.023414 -0.002450 -0.007805 0.000000 0.000000 0.000000
# 2 -0.002450 0.023414 -0.007805 0.000000 0.000000 0.000000
# 3 -0.007805 -0.007805 0.014380 0.000000 0.000000 0.000000
# 4 0.000000 0.000000 0.000000 0.050085 0.000000 0.000000
# 5 0.000000 0.000000 0.000000 0.000000 0.050085 0.000000
# 6 0.000000 0.000000 0.000000 0.000000 0.000000 -9.406631
#
#
# Mechanical properties :
#
#
# Convention : Reuss Voigt Hill
#
# Bulk Modulus (GPa) = 39.86134 50.07208 44.96671
# Shear Modulus (GPa) = -0.54343 16.48728 7.97192
#
# Velocity S-wave (km/s) = -0.63085 3.47477 2.41620
# Velocity P-wave (km/s) = 5.35357 7.26413 6.38076
#
# Compressibility (1/GPa) = 0.02508696
#
# Stress axis : x y z
#
# Youngs Moduli (GPa) = 42.71017 42.71017 69.54260
#
# Poissons Ratio (x) = 0.10464 0.54278
# Poissons Ratio (y) = 0.10464 0.54278
# Poissons Ratio (z) = 0.33335 0.33335
#
# Static dielectric constant tensor:
#      x y z
#    x 2.487420 0.000000 0.000000 
#    y 0.000000 2.487420 0.000000 
#    z 0.000000 0.000000 3.061540 
# 
# 
# High freq. dielectric constant tensor:
#      x y z
#    x 1.478140 0.000000 0.000000 
#    y 0.000000 1.478140 0.000000 
#    z 0.000000 0.000000 1.546210 
# 
# From -- ./inp_files/9893.got.cif
#   From: 2010.03.12/outbox.cif.g09.slc.cpg/sg131_5_cif.got.tgz:9893.got - 2010.04.06 17:36:35.
