data_PCOD8316587
_publ_section_title
;
Structure prediction by ZEFSAII (Michael W. Deem and Ramdas Pophale) SiO2 
 PCOD8316587
Probable space group: P 42/M C M
;
_chemical_formula_sum "Si O2"
_cell_formula_units_Z 112
_cell_length_a 28.472693
_cell_length_b 28.472693
_cell_length_c 9.472951
_cell_angle_alpha 90.000000
_cell_angle_beta 90.000000
_cell_angle_gamma 90.000000
_cell_volume 7679.666875
_symmetry_space_group_name_H-M "P 42/M C M"
_symmetry_group_IT_number 132
_symmetry_cell_setting 'tetragonal'
loop_
_space_group_symop_operation_xyz
x,y,z
-y,x,1/2+z
-x,-y,z
y,-x,1/2+z
x,-y,1/2-z
-x,y,1/2-z
y,x,-z
-y,-x,-z
-x,-y,-z
y,-x,1/2-z
x,y,-z
-y,x,1/2-z
-x,y,1/2+z
x,-y,1/2+z
-y,-x,z
y,x,z
loop_
_atom_site_type_symbol
_atom_site_label
_atom_site_fract_x
_atom_site_fract_y
_atom_site_fract_z
Si Si1 0.858731 0.681495 0.155275
Si Si2 0.380394 0.619607 0.832349
Si Si3 0.271505 0.614728 0.165012
Si Si4 0.450425 0.450425 0.823037
Si Si5 0.360540 0.954153 0.665577
Si Si6 0.808877 0.581293 0.842985
Si Si7 0.293206 0.218360 0.343460
Si Si8 0.543631 0.906123 0.833839
O O1 0.912399 0.675494 0.205777
O O2 0.831699 0.632431 0.154577
O O3 0.829415 0.714987 0.257299
O O4 0.858268 0.703888 0.000000
O O5 0.391527 0.673896 0.793887
O O6 0.412321 0.587680 0.729490
O O7 0.389754 0.610247 0.000000
O O8 0.237492 0.577580 0.244699
O O9 0.254228 0.666623 0.211593
O O10 0.265341 0.606130 0.000000
O O11 0.435939 0.500000 0.750000
O O12 0.452788 0.452788 0.000000
O O13 0.358840 0.964857 0.500000
O O14 0.412140 0.937424 0.711788
O O15 0.345049 0.000000 0.750000
O O16 0.851253 0.548403 0.788414
O O17 0.792714 0.566842 0.000000
O O18 0.307459 0.202892 0.500000
O O19 0.243682 0.243682 0.338217
O O20 0.500000 0.927865 0.750000
O O21 0.535387 0.909668 0.000000
#
# Coordination Sequence:
#
# PCOD8316587 Si02
#       8
#    16   8  16   8  16  16  16  16
#     4   8  15  27  40  55  77 105 135 168 204 242
#     4  10  19  33  52  76 103 122 136 160 190 222
#     4   9  16  27  44  66  93 119 138 158 187 221
#     4  11  23  42  65  82  92 106 128 154 186 224
#     4   9  18  31  44  58  77 100 131 173 218 257
#     4   8  15  28  42  56  79 108 135 163 193 230
#     4   9  15  24  39  62  90 117 142 166 194 234
#     4   9  18  31  44  58  77 101 130 168 210 252
#
# _framework density 14.583966999999999
#
# number of rings (size 3 to 8) (size 9 to 14) (size 15 to 20)
#    0.000    3.071    0.714    2.571    0.000    2.857 
#    0.000    5.000    0.000    1.714    0.000    0.000 
#    0.000    0.000    0.000    0.000    0.000    0.000 
#
# Total GULP energy -1387572.236038 kJ/mol
# GULP energy per Si atom -12389.037822 kJ/mol
# Density = 1.455077 g / cm^3
# Si number density = 14.583967 Si / 1000 Ang^3
#
#
#
# Elastic Constant Matrix: (Units=GPa)
#
#
# Indices 1 2 3 4 5 6 
#
# 1 66.0484 27.4683 37.5546 0.0000 0.0000 0.0000
# 2 27.4683 66.0484 37.5546 0.0000 0.0000 0.0000
# 3 37.5546 37.5546 56.4845 0.0000 0.0000 0.0000
# 4 0.0000 0.0000 0.0000 22.7123 0.0000 0.0000
# 5 0.0000 0.0000 0.0000 0.0000 22.7123 0.0000
# 6 0.0000 0.0000 0.0000 0.0000 0.0000 9.0294
#
#
#
# Elastic Compliance Matrix: (Units=1/GPa)
#
#
# Indices 1 2 3 4 5 6 
#
# 1 0.024433 -0.001487 -0.015257 0.000000 0.000000 0.000000
# 2 -0.001487 0.024433 -0.015256 0.000000 0.000000 0.000000
# 3 -0.015257 -0.015256 0.037991 0.000000 0.000000 0.000000
# 4 0.000000 0.000000 0.000000 0.044029 0.000000 0.000000
# 5 0.000000 0.000000 0.000000 0.000000 0.044029 0.000000
# 6 0.000000 0.000000 0.000000 0.000000 0.000000 0.110750
#
#
# Mechanical properties :
#
#
# Convention : Reuss Voigt Hill
#
# Bulk Modulus (GPa) = 43.74738 43.74846 43.74792
# Shear Modulus (GPa) = 13.99446 16.62438 15.30942
#
# Velocity S-wave (km/s) = 3.10107 3.37992 3.24349
# Velocity P-wave (km/s) = 6.54860 6.73012 6.63998
#
# Compressibility (1/GPa) = 0.02285851
#
# Stress axis : x y z
#
# Youngs Moduli (GPa) = 40.92749 40.92756 26.32200
#
# Poissons Ratio (x) = 0.06085 0.40158
# Poissons Ratio (y) = 0.06085 0.40158
# Poissons Ratio (z) = 0.62441 0.62441
#
# Static dielectric constant tensor:
#      x y z
#    x 2.720080 0.000000 0.000000 
#    y 0.000000 2.720080 0.000000 
#    z 0.000000 0.000000 3.012190 
# 
# 
# High freq. dielectric constant tensor:
#      x y z
#    x 1.528440 0.000000 0.000000 
#    y 0.000000 1.528440 0.000000 
#    z 0.000000 0.000000 1.560570 
# 
# From -- ./inp_files/2171.got.cif
#   From: 2010.03.12/outbox.cif.g09.slc.cpg/sg132_2_cif.got.tgz:2171.got - 2010.04.06 17:53:44.
