data_PCOD8316942
_publ_section_title
;
Structure prediction by ZEFSAII (Michael W. Deem and Ramdas Pophale) SiO2 
 PCOD8316942
Probable space group: P 42/N B C
;
_chemical_formula_sum "Si O2"
_cell_formula_units_Z 128
_cell_length_a 17.548787
_cell_length_b 17.548787
_cell_length_c 20.237527
_cell_angle_alpha 90.000000
_cell_angle_beta 90.000000
_cell_angle_gamma 90.000000
_cell_volume 6232.347301
_symmetry_space_group_name_H-M "P 42/N B C"
_symmetry_group_IT_number 133
_space_group.IT_coordinate_system_code '2'
_symmetry_cell_setting 'tetragonal'
loop_
_space_group_symop_operation_xyz
x,y,z
1/2-y,x,1/2+z
1/2-x,1/2-y,z
y,1/2-x,1/2+z
x,1/2-y,-z
1/2-x,y,-z
y,x,1/2-z
1/2-y,1/2-x,1/2-z
-x,-y,-z
1/2+y,-x,1/2-z
1/2+x,1/2+y,-z
-y,1/2+x,1/2-z
-x,1/2+y,z
1/2+x,-y,z
-y,-x,1/2+z
1/2+y,1/2+x,1/2+z
loop_
_atom_site_type_symbol
_atom_site_label
_atom_site_fract_x
_atom_site_fract_y
_atom_site_fract_z
Si Si1 0.397818 0.937413 0.867031
Si Si2 0.961832 0.558310 0.048284
Si Si3 0.285454 0.415488 0.614798
Si Si4 0.322056 0.403080 0.963140
Si Si5 0.868602 0.990523 0.267232
Si Si6 0.674202 0.447849 0.478160
Si Si7 0.692696 0.820864 0.176049
Si Si8 0.759205 0.984853 0.147439
O O1 0.431995 0.895121 0.803387
O O2 0.400176 0.882252 0.931433
O O3 0.447939 0.014939 0.881568
O O4 0.310201 0.955727 0.851937
O O5 0.879390 0.577932 0.021155
O O6 0.000000 0.500000 0.000000
O O7 0.018042 0.631801 0.044089
O O8 0.341345 0.350399 0.588887
O O9 0.315582 0.440234 0.686190
O O10 0.286562 0.483360 0.562854
O O11 0.201255 0.379383 0.627991
O O12 0.302206 0.482121 0.923540
O O13 0.250000 0.367003 0.000000
O O14 0.943981 0.943981 0.250000
O O15 0.819298 0.011216 0.202810
O O16 0.750000 0.399677 0.500000
O O17 0.750000 0.750000 0.175125
O O18 0.663466 0.836535 0.250000
O O19 0.730310 0.898300 0.152654
#
# Coordination Sequence:
#
# PCOD8316942 Si02
#       8
#    16  16  16  16  16  16  16  16
#     4  10  23  40  61  94 124 161 221 271 312 388
#     4   9  19  36  57  88 126 156 202 252 307 379
#     4  10  20  35  55  86 129 171 207 250 305 387
#     4  11  20  34  58  89 125 167 200 240 308 375
#     4  11  21  41  64  87 123 169 214 257 327 370
#     4   9  20  37  61  87 129 174 208 261 324 379
#     4  11  20  32  52  86 129 172 206 244 304 382
#     4  12  23  37  64  91 130 169 209 268 316 388
#
# _framework density 20.538008999999999
#
# number of rings (size 3 to 8) (size 9 to 14) (size 15 to 20)
#    0.000    1.625    5.000    0.750    1.750    0.500 
#    0.000    0.625    0.000    0.375    3.250    0.000 
#    0.000    0.000    0.000    0.000    0.000    0.000 
#
# Total GULP energy -1586071.666991 kJ/mol
# GULP energy per Si atom -12391.184898 kJ/mol
# Density = 2.049126 g / cm^3
# Si number density = 20.538009 Si / 1000 Ang^3
#
#
#
# Elastic Constant Matrix: (Units=GPa)
#
#
# Indices 1 2 3 4 5 6 
#
# 1 81.8972 35.6678 21.1190 0.0000 0.0000 0.0000
# 2 35.6678 81.8971 21.1190 0.0000 0.0000 0.0000
# 3 21.1190 21.1190 67.1630 0.0000 0.0000 0.0000
# 4 0.0000 0.0000 0.0000 21.8974 0.0000 0.0000
# 5 0.0000 0.0000 0.0000 0.0000 21.8974 0.0000
# 6 0.0000 0.0000 0.0000 0.0000 0.0000 31.3150
#
#
#
# Elastic Compliance Matrix: (Units=1/GPa)
#
#
# Indices 1 2 3 4 5 6 
#
# 1 0.015610 -0.006021 -0.003015 0.000000 0.000000 0.000000
# 2 -0.006021 0.015610 -0.003015 0.000000 0.000000 0.000000
# 3 -0.003015 -0.003015 0.016785 0.000000 0.000000 0.000000
# 4 0.000000 0.000000 0.000000 0.045667 0.000000 0.000000
# 5 0.000000 0.000000 0.000000 0.000000 0.045668 0.000000
# 6 0.000000 0.000000 0.000000 0.000000 0.000000 0.031934
#
#
# Mechanical properties :
#
#
# Convention : Reuss Voigt Hill
#
# Bulk Modulus (GPa) = 41.83610 42.97431 42.40520
# Shear Modulus (GPa) = 24.58873 25.22541 24.90707
#
# Velocity S-wave (km/s) = 3.46386 3.50841 3.48621
# Velocity P-wave (km/s) = 6.03424 6.11406 6.07428
#
# Compressibility (1/GPa) = 0.02390280
#
# Stress axis : x y z
#
# Youngs Moduli (GPa) = 64.06050 64.06041 59.57552
#
# Poissons Ratio (x) = 0.38571 0.17964
# Poissons Ratio (y) = 0.38571 0.17964
# Poissons Ratio (z) = 0.19316 0.19316
#
# Static dielectric constant tensor:
#      x y z
#    x 3.685160 0.000000 0.000000 
#    y 0.000000 3.685160 0.000000 
#    z 0.000000 0.000000 4.531640 
# 
# 
# High freq. dielectric constant tensor:
#      x y z
#    x 1.783670 0.000000 0.000000 
#    y 0.000000 1.783670 0.000000 
#    z 0.000000 0.000000 1.807880 
# 
# From -- ./inp_files/7404.got.cif
#   From: 2010.03.12/outbox.cif.g09.slc.cpg/sg133_4_cif.got.tgz:7404.got - 2010.04.06 18:08:06.
