data_PCOD8316613
_publ_section_title
;
Structure prediction by ZEFSAII (Michael W. Deem and Ramdas Pophale) SiO2 
 PCOD8316613
Probable space group: P 42/M C M
;
_chemical_formula_sum "Si O2"
_cell_formula_units_Z 84
_cell_length_a 15.552737
_cell_length_b 15.552737
_cell_length_c 20.612262
_cell_angle_alpha 90.000000
_cell_angle_beta 90.000000
_cell_angle_gamma 90.000000
_cell_volume 4985.851167
_symmetry_space_group_name_H-M "P 42/M C M"
_symmetry_group_IT_number 132
_symmetry_cell_setting 'tetragonal'
loop_
_space_group_symop_operation_xyz
x,y,z
-y,x,1/2+z
-x,-y,z
y,-x,1/2+z
x,-y,1/2-z
-x,y,1/2-z
y,x,-z
-y,-x,-z
-x,-y,-z
y,-x,1/2-z
x,y,-z
-y,x,1/2-z
-x,y,1/2+z
x,-y,1/2+z
-y,-x,z
y,x,z
loop_
_atom_site_type_symbol
_atom_site_label
_atom_site_fract_x
_atom_site_fract_y
_atom_site_fract_z
Si Si1 0.000000 0.000000 0.635598
Si Si2 0.123153 0.876848 0.699099
Si Si3 0.898489 0.511710 0.323853
Si Si4 0.000000 0.252350 0.750000
Si Si5 0.865252 0.865252 0.423314
Si Si6 0.112469 0.624742 0.428622
Si Si7 0.197887 0.197887 0.928208
Si Si8 0.682207 0.938825 0.377733
O O1 0.062827 0.062827 0.593922
O O2 0.947647 0.052354 0.687942
O O3 0.198525 0.912672 0.743679
O O4 0.146486 0.853515 0.625666
O O5 0.861739 0.500000 0.250000
O O6 0.860067 0.440441 0.372020
O O7 0.874401 0.603622 0.358527
O O8 0.000000 0.500000 0.323102
O O9 0.005119 0.309993 0.687286
O O10 0.858826 0.858826 0.500000
O O11 0.770375 0.890493 0.396769
O O12 0.125676 0.582730 0.500000
O O13 0.179415 0.702001 0.419629
O O14 0.012314 0.656398 0.429183
O O15 0.166640 0.166640 0.000000
#
# Coordination Sequence:
#
# PCOD8316613 Si02
#       8
#     4   8  16   8   8  16   8  16
#     4  12  21  39  42  64  92 141 187 230 248 286
#     4  12  22  32  49  62  94 131 176 223 258 293
#     4   9  19  34  51  72  98 126 165 214 266 314
#     4  12  20  33  47  66  90 130 176 214 263 299
#     4  12  24  36  49  69 100 140 183 224 261 300
#     4  10  19  34  54  74  96 130 169 211 260 310
#     4  10  20  34  51  74  96 121 164 214 265 308
#     4  11  21  34  48  71  99 132 171 215 258 313
#
# _framework density 16.847674999999999
#
# number of rings (size 3 to 8) (size 9 to 14) (size 15 to 20)
#    0.000    1.333    3.810    4.143    0.000    6.476 
#    0.000    0.000    0.000    0.000    0.000    0.000 
#    0.000    0.762    0.000    6.000    0.000    1.429 
#
# Total GULP energy -1040675.178540 kJ/mol
# GULP energy per Si atom -12388.990221 kJ/mol
# Density = 1.680933 g / cm^3
# Si number density = 16.847675 Si / 1000 Ang^3
#
#
#
# Elastic Constant Matrix: (Units=GPa)
#
#
# Indices 1 2 3 4 5 6 
#
# 1 58.7308 49.0142 31.4734 0.0000 0.0000 0.0000
# 2 49.0142 58.7308 31.4734 0.0000 0.0000 0.0000
# 3 31.4734 31.4734 110.9697 0.0000 0.0000 0.0000
# 4 0.0000 0.0000 0.0000 19.4320 0.0000 0.0000
# 5 0.0000 0.0000 0.0000 0.0000 19.4320 0.0000
# 6 0.0000 0.0000 0.0000 0.0000 0.0000 11.9591
#
#
#
# Elastic Compliance Matrix: (Units=1/GPa)
#
#
# Indices 1 2 3 4 5 6 
#
# 1 0.057021 -0.045896 -0.003155 0.000000 0.000000 0.000000
# 2 -0.045896 0.057021 -0.003155 0.000000 0.000000 0.000000
# 3 -0.003155 -0.003155 0.010801 0.000000 0.000000 0.000000
# 4 0.000000 0.000000 0.000000 0.051462 0.000000 0.000000
# 5 0.000000 0.000000 0.000000 0.000000 0.051462 0.000000
# 6 0.000000 0.000000 0.000000 0.000000 0.000000 0.083619
#
#
# Mechanical properties :
#
#
# Convention : Reuss Voigt Hill
#
# Bulk Modulus (GPa) = 48.94860 50.26145 49.60502
# Shear Modulus (GPa) = 11.83132 17.92930 14.88031
#
# Velocity S-wave (km/s) = 2.65288 3.26575 2.97514
# Velocity P-wave (km/s) = 6.20487 6.64212 6.42721
#
# Compressibility (1/GPa) = 0.02042959
#
# Stress axis : x y z
#
# Youngs Moduli (GPa) = 17.53750 17.53750 92.58236
#
# Poissons Ratio (x) = 0.80490 0.29211
# Poissons Ratio (y) = 0.80490 0.29211
# Poissons Ratio (z) = 0.05533 0.05533
#
# Static dielectric constant tensor:
#      x y z
#    x 3.112470 0.000000 0.000000 
#    y 0.000000 3.112470 0.000000 
#    z 0.000000 0.000000 3.477500 
# 
# 
# High freq. dielectric constant tensor:
#      x y z
#    x 1.618080 0.000000 0.000000 
#    y 0.000000 1.618080 0.000000 
#    z 0.000000 0.000000 1.679070 
# 
# From -- ./inp_files/7849.got.cif
#   From: 2010.03.12/outbox.cif.g09.slc.cpg/sg132_4_cif.got.tgz:7849.got - 2010.04.06 17:53:44.
