data_PCOD8316199
_publ_section_title
;
Structure prediction by ZEFSAII (Michael W. Deem and Ramdas Pophale) SiO2 
 PCOD8316199
Probable space group: P 42/M M C
;
_chemical_formula_sum "Si O2"
_cell_formula_units_Z 48
_cell_length_a 7.889670
_cell_length_b 7.889670
_cell_length_c 37.022176
_cell_angle_alpha 90.000000
_cell_angle_beta 90.000000
_cell_angle_gamma 90.000000
_cell_volume 2304.515417
_symmetry_space_group_name_H-M "P 42/M M C"
_symmetry_group_IT_number 131
_symmetry_cell_setting 'tetragonal'
loop_
_space_group_symop_operation_xyz
x,y,z
-x,-y,z
-y,x,1/2+z
y,-x,1/2+z
-x,y,-z
x,-y,-z
y,x,1/2-z
-y,-x,1/2-z
-x,-y,-z
x,y,-z
y,-x,1/2-z
-y,x,1/2-z
x,-y,z
-x,y,z
-y,-x,1/2+z
y,x,1/2+z
loop_
_atom_site_type_symbol
_atom_site_label
_atom_site_fract_x
_atom_site_fract_y
_atom_site_fract_z
Si Si1 0.188429 0.500000 0.911221
Si Si2 0.699383 0.809033 0.958877
Si Si3 0.699084 0.188421 0.212052
Si Si4 0.500000 0.692280 0.332955
O O1 0.212539 0.330580 0.934389
O O2 0.305820 0.500000 0.876231
O O3 0.000000 0.500000 0.895918
O O4 0.500000 0.782215 0.956108
O O5 0.748190 0.000000 0.946155
O O6 0.759939 0.782247 0.000000
O O7 0.792767 0.207234 0.250000
O O8 0.500000 0.213206 0.218716
O O9 0.773138 0.327870 0.183763
O O10 0.737213 0.000000 0.196525
O O11 0.500000 0.500000 0.320510
#
# Coordination Sequence:
#
# PCOD8316199 Si02
#       4
#     8  16  16   8
#     4  12  25  37  54  85 126 164 194 242 304 362
#     4   9  19  38  64  89 113 150 204 257 300 355
#     4  10  20  36  62  89 113 145 188 241 298 355
#     4  10  22  39  59  82 118 159 200 244 290 346
#
# _framework density 20.828673999999999
#
# number of rings (size 3 to 8) (size 9 to 14) (size 15 to 20)
#    0.000    2.000    1.667    3.000    0.000    6.333 
#    0.000    5.000    0.000    0.000    0.000    0.000 
#    0.000    0.000    0.000    0.000    0.000    0.000 
#
# Total GULP energy -595040.245174 kJ/mol
# GULP energy per Si atom -12396.671774 kJ/mol
# Density = 2.078127 g / cm^3
# Si number density = 20.828674 Si / 1000 Ang^3
#
#
#
# Elastic Constant Matrix: (Units=GPa)
#
#
# Indices 1 2 3 4 5 6 
#
# 1 105.5649 41.1402 44.0293 0.0000 0.0000 0.0000
# 2 41.1402 105.5652 44.0299 0.0000 0.0000 0.0000
# 3 44.0293 44.0299 109.2298 0.0000 0.0000 0.0000
# 4 0.0000 0.0000 0.0000 10.8983 0.0000 0.0000
# 5 0.0000 0.0000 0.0000 0.0000 10.8983 0.0000
# 6 0.0000 0.0000 0.0000 0.0000 0.0000 11.1880
#
#
#
# Elastic Compliance Matrix: (Units=1/GPa)
#
#
# Indices 1 2 3 4 5 6 
#
# 1 0.012257 -0.003265 -0.003625 0.000000 0.000000 0.000000
# 2 -0.003265 0.012257 -0.003625 0.000000 0.000000 0.000000
# 3 -0.003625 -0.003625 0.012077 0.000000 0.000000 0.000000
# 4 0.000000 0.000000 0.000000 0.091757 0.000000 0.000000
# 5 0.000000 0.000000 0.000000 0.000000 0.091758 0.000000
# 6 0.000000 0.000000 0.000000 0.000000 0.000000 0.089382
#
#
# Mechanical properties :
#
#
# Convention : Reuss Voigt Hill
#
# Bulk Modulus (GPa) = 64.25602 64.30651 64.28127
# Shear Modulus (GPa) = 14.89410 19.34096 17.11753
#
# Velocity S-wave (km/s) = 2.67699 3.05056 2.86986
# Velocity P-wave (km/s) = 6.36175 6.58399 6.47382
#
# Compressibility (1/GPa) = 0.01556274
#
# Stress axis : x y z
#
# Youngs Moduli (GPa) = 81.58615 81.58593 82.80123
#
# Poissons Ratio (x) = 0.26637 0.30012
# Poissons Ratio (y) = 0.26637 0.30013
# Poissons Ratio (z) = 0.29571 0.29572
#
# Static dielectric constant tensor:
#      x y z
#    x 3.898910 0.000000 0.000000 
#    y 0.000000 3.898920 0.000000 
#    z 0.000000 0.000000 3.485850 
# 
# 
# High freq. dielectric constant tensor:
#      x y z
#    x 1.816040 0.000000 0.000000 
#    y 0.000000 1.816040 0.000000 
#    z 0.000000 0.000000 1.797080 
# 
# From -- ./inp_files/12928.got.cif
#   From: 2010.03.12/outbox.cif.g09.slc.cpg/sg131_7_cif.got.tgz:12928.got - 2010.04.06 17:36:35.
