data_PCOD8316968
_publ_section_title
;
Structure prediction by ZEFSAII (Michael W. Deem and Ramdas Pophale) SiO2 
 PCOD8316968
Probable space group: P 42/N B C
;
_chemical_formula_sum "Si O2"
_cell_formula_units_Z 56
_cell_length_a 23.279156
_cell_length_b 23.279156
_cell_length_c 5.094335
_cell_angle_alpha 90.000000
_cell_angle_beta 90.000000
_cell_angle_gamma 90.000000
_cell_volume 2760.717459
_symmetry_space_group_name_H-M "P 42/N B C"
_symmetry_group_IT_number 133
_space_group.IT_coordinate_system_code '2'
_symmetry_cell_setting 'tetragonal'
loop_
_space_group_symop_operation_xyz
x,y,z
1/2-y,x,1/2+z
1/2-x,1/2-y,z
y,1/2-x,1/2+z
x,1/2-y,-z
1/2-x,y,-z
y,x,1/2-z
1/2-y,1/2-x,1/2-z
-x,-y,-z
1/2+y,-x,1/2-z
1/2+x,1/2+y,-z
-y,1/2+x,1/2-z
-x,1/2+y,z
1/2+x,-y,z
-y,-x,1/2+z
1/2+y,1/2+x,1/2+z
loop_
_atom_site_type_symbol
_atom_site_label
_atom_site_fract_x
_atom_site_fract_y
_atom_site_fract_z
Si Si1 0.084996 0.415005 0.250000
Si Si2 0.683043 0.370767 0.041133
Si Si3 0.362265 0.186460 0.008829
Si Si4 0.537588 0.410728 0.509225
O O1 0.140459 0.413723 0.444036
O O2 0.090893 0.470652 0.069706
O O3 0.672225 0.341215 0.320956
O O4 0.651646 0.432708 0.033801
O O5 0.750000 0.382140 0.000000
O O6 0.327171 0.172830 0.750000
O O7 0.389494 0.250000 0.000000
O O8 0.317282 0.182719 0.250000
O O9 0.544869 0.433030 0.212488
#
# Coordination Sequence:
#
# PCOD8316968 Si02
#       4
#     8  16  16  16
#     4  10  24  38  65  86 122 154 208 242 301 364
#     4  10  21  38  58  87 120 155 198 244 298 357
#     4  10  23  40  60  87 120 154 199 249 300 356
#     4  10  22  39  61  87 119 158 198 247 299 353
#
# _framework density 20.284582
#
# number of rings (size 3 to 8) (size 9 to 14) (size 15 to 20)
#    0.857    1.143    0.000    2.571    4.000    3.429 
#    5.143    0.000    0.000    0.000    0.000    0.000 
#    0.000    0.000    0.000    0.000    0.000    0.000 
#
# Total GULP energy -694197.994811 kJ/mol
# GULP energy per Si atom -12396.392764 kJ/mol
# Density = 2.023841 g / cm^3
# Si number density = 20.284582 Si / 1000 Ang^3
#
#
#
# Elastic Constant Matrix: (Units=GPa)
#
#
# Indices 1 2 3 4 5 6 
#
# 1 116.6553 67.5047 12.1180 0.0000 0.0000 0.0000
# 2 67.5047 116.6495 12.1139 0.0000 0.0000 0.0000
# 3 12.1180 12.1139 95.3623 0.0000 0.0000 0.0000
# 4 0.0000 0.0000 0.0000 -25.4609 0.0000 0.0000
# 5 0.0000 0.0000 0.0000 0.0000 -25.4745 0.0000
# 6 0.0000 0.0000 0.0000 0.0000 0.0000 13.1956
#
#
#
# Elastic Compliance Matrix: (Units=1/GPa)
#
#
# Indices 1 2 3 4 5 6 
#
# 1 0.012934 -0.007412 -0.000702 0.000000 0.000000 0.000000
# 2 -0.007412 0.012935 -0.000701 0.000000 0.000000 0.000000
# 3 -0.000702 -0.000701 0.010665 0.000000 0.000000 0.000000
# 4 0.000000 0.000000 0.000000 -0.039276 0.000000 0.000000
# 5 0.000000 0.000000 0.000000 0.000000 -0.039255 0.000000
# 6 0.000000 0.000000 0.000000 0.000000 0.000000 0.075783
#
#
# Mechanical properties :
#
#
# Convention : Reuss Voigt Hill
#
# Bulk Modulus (GPa) = 52.90167 56.90449 54.90308
# Shear Modulus (GPa) = 86.62846 8.24741 47.43793
#
# Velocity S-wave (km/s) = 6.54211 2.01858 4.84117
# Velocity P-wave (km/s) = 9.12152 5.79197 7.64032
#
# Compressibility (1/GPa) = 0.01890299
#
# Stress axis : x y z
#
# Youngs Moduli (GPa) = 77.31325 77.31010 93.76801
#
# Poissons Ratio (x) = 0.57304 0.06583
# Poissons Ratio (y) = 0.57306 0.06575
# Poissons Ratio (z) = 0.05428 0.05421
#
# Static dielectric constant tensor:
#      x y z
#    x 4.870310 0.000000 0.000000 
#    y 0.000000 4.869670 0.000000 
#    z 0.000000 0.000000 3.851440 
# 
# 
# High freq. dielectric constant tensor:
#      x y z
#    x 1.781110 0.000000 0.000000 
#    y 0.000000 1.781110 0.000000 
#    z 0.000000 0.000000 1.812990 
# 
# From -- ./inp_files/329.got.cif
#   From: 2010.03.12/outbox.cif.g09.slc.cpg/sg133_1_cif.got.tgz:329.got - 2010.04.06 18:08:06.
