data_PCOD8316320
_publ_section_title
;
Structure prediction by ZEFSAII (Michael W. Deem and Ramdas Pophale) SiO2 
 PCOD8316320
Probable space group: P 42/M M C
;
_chemical_formula_sum "Si O2"
_cell_formula_units_Z 48
_cell_length_a 12.112812
_cell_length_b 12.112812
_cell_length_c 18.468238
_cell_angle_alpha 90.000000
_cell_angle_beta 90.000000
_cell_angle_gamma 90.000000
_cell_volume 2709.663842
_symmetry_space_group_name_H-M "P 42/M M C"
_symmetry_group_IT_number 131
_symmetry_cell_setting 'tetragonal'
loop_
_space_group_symop_operation_xyz
x,y,z
-x,-y,z
-y,x,1/2+z
y,-x,1/2+z
-x,y,-z
x,-y,-z
y,x,1/2-z
-y,-x,1/2-z
-x,-y,-z
x,y,-z
y,-x,1/2-z
-y,x,1/2-z
x,-y,z
-x,y,z
-y,-x,1/2+z
y,x,1/2+z
loop_
_atom_site_type_symbol
_atom_site_label
_atom_site_fract_x
_atom_site_fract_y
_atom_site_fract_z
Si Si1 0.630745 0.500000 0.419680
Si Si2 0.631083 0.706267 0.673997
Si Si3 0.000000 0.120236 0.414604
Si Si4 0.868656 0.239046 0.082780
O O1 0.500000 0.500000 0.424630
O O2 0.683052 0.500000 0.500000
O O3 0.671432 0.392236 0.377673
O O4 0.692166 0.692166 0.750000
O O5 0.500000 0.706376 0.685905
O O6 0.669278 0.819313 0.636267
O O7 0.883412 0.179107 0.394209
O O8 0.000000 0.102890 0.500000
O O9 0.000000 0.000000 0.377070
O O10 0.000000 0.240595 0.091171
O O11 0.835513 0.267309 0.000000
#
# Coordination Sequence:
#
# PCOD8316320 Si02
#       4
#     8  16   8  16
#     4   9  18  32  54  77  95 130 183 224 257 314
#     4  11  21  35  53  74 108 146 177 223 276 318
#     4   7  12  28  54  79 103 133 168 210 258 308
#     4   9  18  34  58  85 110 138 176 222 269 321
#
# _framework density 17.714373999999999
#
# number of rings (size 3 to 8) (size 9 to 14) (size 15 to 20)
#    0.000    2.667    1.667    3.000    0.000    2.667 
#    3.000    1.667    0.000    1.000    0.000    4.667 
#    0.000    0.000    0.000    0.000    0.000    0.000 
#
# Total GULP energy -594760.276784 kJ/mol
# GULP energy per Si atom -12390.839100 kJ/mol
# Density = 1.767406 g / cm^3
# Si number density = 17.714374 Si / 1000 Ang^3
#
#
#
# Elastic Constant Matrix: (Units=GPa)
#
#
# Indices 1 2 3 4 5 6 
#
# 1 57.0884 29.7888 39.7638 0.0000 0.0000 0.0000
# 2 29.7888 57.0884 39.7638 0.0000 0.0000 0.0000
# 3 39.7638 39.7638 119.7037 0.0000 0.0000 0.0000
# 4 0.0000 0.0000 0.0000 20.2644 0.0000 0.0000
# 5 0.0000 0.0000 0.0000 0.0000 20.2644 0.0000
# 6 0.0000 0.0000 0.0000 0.0000 0.0000 19.2795
#
#
#
# Elastic Compliance Matrix: (Units=1/GPa)
#
#
# Indices 1 2 3 4 5 6 
#
# 1 0.026585 -0.010045 -0.005494 0.000000 0.000000 0.000000
# 2 -0.010045 0.026585 -0.005494 0.000000 0.000000 0.000000
# 3 -0.005494 -0.005494 0.012004 0.000000 0.000000 0.000000
# 4 0.000000 0.000000 0.000000 0.049348 0.000000 0.000000
# 5 0.000000 0.000000 0.000000 0.000000 0.049348 0.000000
# 6 0.000000 0.000000 0.000000 0.000000 0.000000 0.051869
#
#
# Mechanical properties :
#
#
# Convention : Reuss Voigt Hill
#
# Bulk Modulus (GPa) = 43.27711 50.27926 46.77819
# Shear Modulus (GPa) = 18.83175 20.26593 19.54884
#
# Velocity S-wave (km/s) = 3.26402 3.38603 3.32559
# Velocity P-wave (km/s) = 6.22002 6.61301 6.41952
#
# Compressibility (1/GPa) = 0.02310690
#
# Stress axis : x y z
#
# Youngs Moduli (GPa) = 37.61478 37.61478 83.30389
#
# Poissons Ratio (x) = 0.37785 0.45770
# Poissons Ratio (y) = 0.37785 0.45770
# Poissons Ratio (z) = 0.20667 0.20667
#
# Static dielectric constant tensor:
#      x y z
#    x 3.207760 0.000000 0.000000 
#    y 0.000000 3.207760 0.000000 
#    z 0.000000 0.000000 3.222350 
# 
# 
# High freq. dielectric constant tensor:
#      x y z
#    x 1.668900 0.000000 0.000000 
#    y 0.000000 1.668900 0.000000 
#    z 0.000000 0.000000 1.677190 
# 
# From -- ./inp_files/7037.got.cif
#   From: 2010.03.12/outbox.cif.g09.slc.cpg/sg131_4_cif.got.tgz:7037.got - 2010.04.06 17:36:35.
