data_PCOD8316375
_publ_section_title
;
Structure prediction by ZEFSAII (Michael W. Deem and Ramdas Pophale) SiO2 
 PCOD8316375
Probable space group: P 42/M M C
;
_chemical_formula_sum "Si O2"
_cell_formula_units_Z 56
_cell_length_a 13.586714
_cell_length_b 13.586714
_cell_length_c 21.926282
_cell_angle_alpha 90.000000
_cell_angle_beta 90.000000
_cell_angle_gamma 90.000000
_cell_volume 4047.565287
_symmetry_space_group_name_H-M "P 42/M M C"
_symmetry_group_IT_number 131
_symmetry_cell_setting 'tetragonal'
loop_
_space_group_symop_operation_xyz
x,y,z
-x,-y,z
-y,x,1/2+z
y,-x,1/2+z
-x,y,-z
x,-y,-z
y,x,1/2-z
-y,-x,1/2-z
-x,-y,-z
x,y,-z
y,-x,1/2-z
-y,x,1/2-z
x,-y,z
-x,y,z
-y,-x,1/2+z
y,x,1/2+z
loop_
_atom_site_type_symbol
_atom_site_label
_atom_site_fract_x
_atom_site_fract_y
_atom_site_fract_z
Si Si1 0.116244 0.607845 0.243002
Si Si2 0.611286 0.117190 0.500000
Si Si3 0.200546 0.114120 0.809635
Si Si4 0.883111 0.285523 0.877637
O O1 0.161799 0.500000 0.257790
O O2 0.145836 0.686729 0.294622
O O3 0.153528 0.643613 0.176810
O O4 0.000000 0.600222 0.239753
O O5 0.500000 0.158910 0.500000
O O6 0.669026 0.156235 0.559311
O O7 0.607600 0.000000 0.500000
O O8 0.133499 0.133499 0.750000
O O9 0.163798 0.177569 0.867228
O O10 0.192569 0.000000 0.827615
O O11 0.000000 0.273864 0.878128
#
# Coordination Sequence:
#
# PCOD8316375 Si02
#       4
#    16   8  16  16
#     4   8  13  22  36  53  72  93 118 151 187 215
#     4   9  16  26  39  53  72  99 127 157 191 218
#     4   9  16  24  35  52  75 102 127 149 176 216
#     4   9  16  24  35  53  76 100 126 152 177 213
#
# _framework density 13.835478
#
# number of rings (size 3 to 8) (size 9 to 14) (size 15 to 20)
#    0.000    3.286    0.000    3.429    0.000    5.429 
#    0.000    0.714    0.000    2.571    0.000    1.000 
#    0.000   73.714    0.000    0.000    0.000    0.000 
#
# Total GULP energy -694011.009977 kJ/mol
# GULP energy per Si atom -12393.053750 kJ/mol
# Density = 1.380399 g / cm^3
# Si number density = 13.835478 Si / 1000 Ang^3
#
#
#
# Elastic Constant Matrix: (Units=GPa)
#
#
# Indices 1 2 3 4 5 6 
#
# 1 76.5922 28.6715 36.3748 0.0000 0.0000 0.0000
# 2 28.6715 76.5922 36.3748 0.0000 0.0000 0.0000
# 3 36.3748 36.3748 74.3789 0.0000 0.0000 0.0000
# 4 0.0000 0.0000 0.0000 14.7829 0.0000 0.0000
# 5 0.0000 0.0000 0.0000 0.0000 14.7829 0.0000
# 6 0.0000 0.0000 0.0000 0.0000 0.0000 3.1114
#
#
#
# Elastic Compliance Matrix: (Units=1/GPa)
#
#
# Indices 1 2 3 4 5 6 
#
# 1 0.017609 -0.003259 -0.007018 0.000000 0.000000 0.000000
# 2 -0.003259 0.017609 -0.007018 0.000000 0.000000 0.000000
# 3 -0.007018 -0.007018 0.020309 0.000000 0.000000 0.000000
# 4 0.000000 0.000000 0.000000 0.067646 0.000000 0.000000
# 5 0.000000 0.000000 0.000000 0.000000 0.067646 0.000000
# 6 0.000000 0.000000 0.000000 0.000000 0.000000 0.321398
#
#
# Mechanical properties :
#
#
# Convention : Reuss Voigt Hill
#
# Bulk Modulus (GPa) = 47.76113 47.82285 47.79199
# Shear Modulus (GPa) = 9.02878 14.94493 11.98685
#
# Velocity S-wave (km/s) = 2.55734 3.29019 2.94664
# Velocity P-wave (km/s) = 6.58147 7.00530 6.79669
#
# Compressibility (1/GPa) = 0.02093753
#
# Stress axis : x y z
#
# Youngs Moduli (GPa) = 56.78919 56.78919 49.23963
#
# Poissons Ratio (x) = 0.18507 0.34556
# Poissons Ratio (y) = 0.18507 0.34556
# Poissons Ratio (z) = 0.39854 0.39854
#
# Static dielectric constant tensor:
#      x y z
#    x 2.790510 0.000000 0.000000 
#    y 0.000000 2.790510 0.000000 
#    z 0.000000 0.000000 2.640530 
# 
# 
# High freq. dielectric constant tensor:
#      x y z
#    x 1.506660 0.000000 0.000000 
#    y 0.000000 1.506660 0.000000 
#    z 0.000000 0.000000 1.505330 
# 
# From -- ./inp_files/7195.got.cif
#   From: 2010.03.12/outbox.cif.g09.slc.cpg/sg131_4_cif.got.tgz:7195.got - 2010.04.06 17:36:35.
