data_PCOD8316739
_publ_section_title
;
Structure prediction by ZEFSAII (Michael W. Deem and Ramdas Pophale) SiO2 
 PCOD8316739
Probable space group: P 42/M C M
;
_chemical_formula_sum "Si O2"
_cell_formula_units_Z 80
_cell_length_a 11.785072
_cell_length_b 11.785072
_cell_length_c 28.688871
_cell_angle_alpha 90.000000
_cell_angle_beta 90.000000
_cell_angle_gamma 90.000000
_cell_volume 3984.537679
_symmetry_space_group_name_H-M "P 42/M C M"
_symmetry_group_IT_number 132
_symmetry_cell_setting 'tetragonal'
loop_
_space_group_symop_operation_xyz
x,y,z
-y,x,1/2+z
-x,-y,z
y,-x,1/2+z
x,-y,1/2-z
-x,y,1/2-z
y,x,-z
-y,-x,-z
-x,-y,-z
y,-x,1/2-z
x,y,-z
-y,x,1/2-z
-x,y,1/2+z
x,-y,1/2+z
-y,-x,z
y,x,z
loop_
_atom_site_type_symbol
_atom_site_label
_atom_site_fract_x
_atom_site_fract_y
_atom_site_fract_z
Si Si1 0.181190 0.473889 0.107264
Si Si2 0.091966 0.908035 0.945183
Si Si3 0.420038 0.765217 0.707258
Si Si4 0.944709 0.763378 0.797275
Si Si5 0.407040 0.407040 0.054788
Si Si6 0.028279 0.313952 0.391248
O O1 0.219518 0.491635 0.160403
O O2 0.287115 0.449105 0.074413
O O3 0.121466 0.592310 0.095044
O O4 0.096877 0.366662 0.101826
O O5 0.212082 0.949524 0.926129
O O6 0.103495 0.896506 0.000000
O O7 0.000000 0.000000 0.929939
O O8 0.500000 0.737694 0.750000
O O9 0.340747 0.659254 0.698278
O O10 0.349750 0.878572 0.718068
O O11 0.859119 0.859119 0.817193
O O12 0.000000 0.811019 0.750000
O O13 0.035604 0.732644 0.837791
O O14 0.500000 0.500000 0.068339
O O15 0.393000 0.393000 0.000000
#
# Coordination Sequence:
#
# PCOD8316739 Si02
#       6
#    16   8  16  16   8  16
#     4  10  22  44  68  95 126 170 215 265 325 383
#     4  11  26  44  66  96 129 167 213 267 327 384
#     4  10  20  36  58  87 126 166 211 254 310 378
#     4  10  21  36  58  89 126 168 212 255 310 378
#     4  11  26  44  68  96 127 167 211 269 327 386
#     4  10  23  42  69  94 128 169 214 269 321 380
#
# _framework density 20.077611000000001
#
# number of rings (size 3 to 8) (size 9 to 14) (size 15 to 20)
#    0.000    1.800    1.000    1.800    5.600    4.800 
#    0.000    2.000    0.000    0.000    0.000    0.000 
#    0.000    0.000    0.000    0.000    0.000    0.000 
#
# Total GULP energy -992090.700061 kJ/mol
# GULP energy per Si atom -12401.133751 kJ/mol
# Density = 2.003191 g / cm^3
# Si number density = 20.077611 Si / 1000 Ang^3
#
#
#
# Elastic Constant Matrix: (Units=GPa)
#
#
# Indices 1 2 3 4 5 6 
#
# 1 114.3301 51.5766 58.2201 0.0000 0.0000 0.0000
# 2 51.5766 114.3300 58.2198 0.0000 0.0000 0.0000
# 3 58.2201 58.2198 93.9624 0.0000 0.0000 0.0000
# 4 0.0000 0.0000 0.0000 30.0942 0.0000 0.0000
# 5 0.0000 0.0000 0.0000 0.0000 30.0943 0.0000
# 6 0.0000 0.0000 0.0000 0.0000 0.0000 24.4443
#
#
#
# Elastic Compliance Matrix: (Units=1/GPa)
#
#
# Indices 1 2 3 4 5 6 
#
# 1 0.013300 -0.002635 -0.006609 0.000000 0.000000 0.000000
# 2 -0.002635 0.013300 -0.006608 0.000000 0.000000 0.000000
# 3 -0.006609 -0.006608 0.018832 0.000000 0.000000 0.000000
# 4 0.000000 0.000000 0.000000 0.033229 0.000000 0.000000
# 5 0.000000 0.000000 0.000000 0.000000 0.033229 0.000000
# 6 0.000000 0.000000 0.000000 0.000000 0.000000 0.040909
#
#
# Mechanical properties :
#
#
# Convention : Reuss Voigt Hill
#
# Bulk Modulus (GPa) = 72.83789 73.18395 73.01092
# Shear Modulus (GPa) = 26.44380 27.23363 26.83872
#
# Velocity S-wave (km/s) = 3.63310 3.68695 3.66012
# Velocity P-wave (km/s) = 7.34548 7.39287 7.36921
#
# Compressibility (1/GPa) = 0.01372912
#
# Stress axis : x y z
#
# Youngs Moduli (GPa) = 75.18515 75.18536 53.10136
#
# Poissons Ratio (x) = 0.19811 0.35092
# Poissons Ratio (y) = 0.19810 0.35092
# Poissons Ratio (z) = 0.49686 0.49686
#
# Static dielectric constant tensor:
#      x y z
#    x 3.740080 0.000000 0.000000 
#    y 0.000000 3.740070 0.000000 
#    z 0.000000 0.000000 3.569550 
# 
# 
# High freq. dielectric constant tensor:
#      x y z
#    x 1.789100 0.000000 0.000000 
#    y 0.000000 1.789100 0.000000 
#    z 0.000000 0.000000 1.780470 
# 
# From -- ./inp_files/10678.got.cif
#   From: 2010.03.12/outbox.cif.g09.slc.cpg/sg132_6_cif.got.tgz:10678.got - 2010.04.06 17:53:44.
