data_PCOD8316706
_publ_section_title
;
Structure prediction by ZEFSAII (Michael W. Deem and Ramdas Pophale) SiO2 
 PCOD8316706
Probable space group: P 42/M C M
;
_chemical_formula_sum "Si O2"
_cell_formula_units_Z 64
_cell_length_a 19.770009
_cell_length_b 19.770009
_cell_length_c 8.395351
_cell_angle_alpha 90.000000
_cell_angle_beta 90.000000
_cell_angle_gamma 90.000000
_cell_volume 3281.350272
_symmetry_space_group_name_H-M "P 42/M C M"
_symmetry_group_IT_number 132
_symmetry_cell_setting 'tetragonal'
loop_
_space_group_symop_operation_xyz
x,y,z
-y,x,1/2+z
-x,-y,z
y,-x,1/2+z
x,-y,1/2-z
-x,y,1/2-z
y,x,-z
-y,-x,-z
-x,-y,-z
y,-x,1/2-z
x,y,-z
-y,x,1/2-z
-x,y,1/2+z
x,-y,1/2+z
-y,-x,z
y,x,z
loop_
_atom_site_type_symbol
_atom_site_label
_atom_site_fract_x
_atom_site_fract_y
_atom_site_fract_z
Si Si1 0.243257 0.068140 0.183693
Si Si2 0.571311 0.780197 0.313283
Si Si3 0.609651 0.931490 0.310304
Si Si4 0.203037 0.203037 0.321801
Si Si5 0.697537 0.697537 0.818603
O O1 0.323172 0.065093 0.205592
O O2 0.214815 0.124767 0.298591
O O3 0.209119 0.000000 0.250000
O O4 0.224396 0.080703 0.000000
O O5 0.500000 0.752241 0.250000
O O6 0.572541 0.777146 0.500000
O O7 0.577367 0.859269 0.259207
O O8 0.629429 0.728510 0.256608
O O9 0.622397 0.933925 0.500000
O O10 0.568916 0.000000 0.250000
O O11 0.224963 0.224963 0.500000
O O12 0.245364 0.245364 0.194165
O O13 0.681377 0.681377 0.000000
#
# Coordination Sequence:
#
# PCOD8316706 Si02
#       5
#    16  16  16   8   8
#     4  11  21  34  54  82 115 153 196 243 297 351
#     4  11  24  41  62  88 122 160 200 247 299 352
#     4  10  20  34  54  81 119 161 200 243 289 344
#     4  12  22  36  58  85 116 153 198 248 298 347
#     4  12  24  40  64  91 118 153 198 246 298 353
#
# _framework density 19.504166000000001
#
# number of rings (size 3 to 8) (size 9 to 14) (size 15 to 20)
#    0.000    1.000    2.500    7.500    0.000    3.500 
#    0.000    2.500    0.000    0.750    0.000    5.250 
#    0.000    0.000    0.000    0.000    0.000    0.000 
#
# Total GULP energy -793065.182524 kJ/mol
# GULP energy per Si atom -12391.643477 kJ/mol
# Density = 1.945977 g / cm^3
# Si number density = 19.504166 Si / 1000 Ang^3
#
#
#
# Elastic Constant Matrix: (Units=GPa)
#
#
# Indices 1 2 3 4 5 6 
#
# 1 119.9321 60.7784 25.7092 0.0000 0.0000 0.0000
# 2 60.7784 119.9321 25.7092 0.0000 0.0000 0.0000
# 3 25.7092 25.7092 93.8761 0.0000 0.0000 0.0000
# 4 0.0000 0.0000 0.0000 31.4889 0.0000 0.0000
# 5 0.0000 0.0000 0.0000 0.0000 31.4889 0.0000
# 6 0.0000 0.0000 0.0000 0.0000 0.0000 18.3420
#
#
#
# Elastic Compliance Matrix: (Units=1/GPa)
#
#
# Indices 1 2 3 4 5 6 
#
# 1 0.011453 -0.005452 -0.001644 0.000000 0.000000 0.000000
# 2 -0.005452 0.011453 -0.001644 0.000000 0.000000 0.000000
# 3 -0.001644 -0.001644 0.011553 0.000000 0.000000 0.000000
# 4 0.000000 0.000000 0.000000 0.031757 0.000000 0.000000
# 5 0.000000 0.000000 0.000000 0.000000 0.031757 0.000000
# 6 0.000000 0.000000 0.000000 0.000000 0.000000 0.054520
#
#
# Mechanical properties :
#
#
# Convention : Reuss Voigt Hill
#
# Bulk Modulus (GPa) = 58.88910 62.01487 60.45198
# Shear Modulus (GPa) = 28.46868 31.03350 29.75109
#
# Velocity S-wave (km/s) = 3.82464 3.99321 3.90984
# Velocity P-wave (km/s) = 7.05425 7.28874 7.17246
#
# Compressibility (1/GPa) = 0.01698107
#
# Stress axis : x y z
#
# Youngs Moduli (GPa) = 87.31155 87.31155 86.56089
#
# Poissons Ratio (x) = 0.47601 0.14227
# Poissons Ratio (y) = 0.47601 0.14227
# Poissons Ratio (z) = 0.14350 0.14350
#
# Static dielectric constant tensor:
#      x y z
#    x 3.406830 0.000000 0.000000 
#    y 0.000000 3.406830 0.000000 
#    z 0.000000 0.000000 3.562790 
# 
# 
# High freq. dielectric constant tensor:
#      x y z
#    x 1.747580 0.000000 0.000000 
#    y 0.000000 1.747580 0.000000 
#    z 0.000000 0.000000 1.774510 
# 
# From -- ./inp_files/1288.got.cif
#   From: 2010.03.12/outbox.cif.g09.slc.cpg/sg132_1_cif.got.tgz:1288.got - 2010.04.06 17:53:44.
