data_PCOD8316419
_publ_section_title
;
Structure prediction by ZEFSAII (Michael W. Deem and Ramdas Pophale) SiO2 
 PCOD8316419
Probable space group: P 42/M C M
;
_chemical_formula_sum "Si O2"
_cell_formula_units_Z 128
_cell_length_a 17.612050
_cell_length_b 17.612050
_cell_length_c 26.388194
_cell_angle_alpha 90.000000
_cell_angle_beta 90.000000
_cell_angle_gamma 90.000000
_cell_volume 8185.203621
_symmetry_space_group_name_H-M "P 42/M C M"
_symmetry_group_IT_number 132
_symmetry_cell_setting 'tetragonal'
loop_
_space_group_symop_operation_xyz
x,y,z
-y,x,1/2+z
-x,-y,z
y,-x,1/2+z
x,-y,1/2-z
-x,y,1/2-z
y,x,-z
-y,-x,-z
-x,-y,-z
y,-x,1/2-z
x,y,-z
-y,x,1/2-z
-x,y,1/2+z
x,-y,1/2+z
-y,-x,z
y,x,z
loop_
_atom_site_type_symbol
_atom_site_label
_atom_site_fract_x
_atom_site_fract_y
_atom_site_fract_z
Si Si1 0.521523 0.770265 0.557048
Si Si2 0.621139 0.501443 0.114924
Si Si3 0.306818 0.180844 0.443987
Si Si4 0.868395 0.492553 0.352948
Si Si5 0.548144 0.274965 0.294879
Si Si6 0.809180 0.690070 0.246182
Si Si7 0.958551 0.365885 0.699717
Si Si8 0.895816 0.336005 0.846116
O O1 0.492994 0.783911 0.500000
O O2 0.511655 0.682471 0.571195
O O3 0.610140 0.785697 0.563876
O O4 0.473846 0.827742 0.593003
O O5 0.577890 0.422111 0.129696
O O6 0.559451 0.559451 0.092777
O O7 0.662023 0.543750 0.161710
O O8 0.298798 0.142775 0.500000
O O9 0.248952 0.248952 0.438049
O O10 0.292184 0.120755 0.398816
O O11 0.803270 0.493145 0.310408
O O12 0.932761 0.431840 0.338837
O O13 0.906733 0.574307 0.355017
O O14 0.500000 0.311793 0.250000
O O15 0.632320 0.254348 0.275426
O O16 0.774068 0.774068 0.240363
O O17 0.886263 0.685441 0.213827
O O18 0.828523 0.677420 0.305562
O O19 0.000000 0.400936 0.750000
O O20 0.020631 0.310406 0.673097
#
# Coordination Sequence:
#
# PCOD8316419 Si02
#       8
#    16  16  16  16  16  16  16  16
#     4   9  18  32  47  60  79 109 150 193 234 276
#     4  10  21  32  41  57  80 109 151 202 249 284
#     4   9  17  29  45  64  87 113 140 177 224 270
#     4   9  17  29  44  65  88 111 145 182 222 266
#     4  10  18  31  43  61  84 114 150 185 228 276
#     4  10  19  29  44  65  89 120 152 182 214 258
#     4   9  19  29  45  65  93 121 147 178 217 261
#     4  10  17  28  44  67  89 115 148 181 215 265
#
# _framework density 15.637973000000001
#
# number of rings (size 3 to 8) (size 9 to 14) (size 15 to 20)
#    0.000    2.500    1.250    1.500    0.000    3.500 
#    0.000    1.875    0.000    3.000    0.000    0.000 
#    0.000   31.250    0.000    1.375    0.000    0.000 
#
# Total GULP energy -1586186.469178 kJ/mol
# GULP energy per Si atom -12392.081790 kJ/mol
# Density = 1.560238 g / cm^3
# Si number density = 15.637973 Si / 1000 Ang^3
#
#
#
# Elastic Constant Matrix: (Units=GPa)
#
#
# Indices 1 2 3 4 5 6 
#
# 1 65.7211 32.5854 38.0032 0.0000 0.0000 0.0000
# 2 32.5854 65.7211 38.0032 0.0000 0.0000 0.0000
# 3 38.0032 38.0032 113.7116 0.0000 0.0000 0.0000
# 4 0.0000 0.0000 0.0000 14.6712 0.0000 0.0000
# 5 0.0000 0.0000 0.0000 0.0000 14.6712 0.0000
# 6 0.0000 0.0000 0.0000 0.0000 0.0000 14.0971
#
#
#
# Elastic Compliance Matrix: (Units=1/GPa)
#
#
# Indices 1 2 3 4 5 6 
#
# 1 0.021948 -0.008231 -0.004584 0.000000 0.000000 0.000000
# 2 -0.008231 0.021948 -0.004584 0.000000 0.000000 0.000000
# 3 -0.004584 -0.004584 0.011858 0.000000 0.000000 0.000000
# 4 0.000000 0.000000 0.000000 0.068161 0.000000 0.000000
# 5 0.000000 0.000000 0.000000 0.000000 0.068161 0.000000
# 6 0.000000 0.000000 0.000000 0.000000 0.000000 0.070937
#
#
# Mechanical properties :
#
#
# Convention : Reuss Voigt Hill
#
# Bulk Modulus (GPa) = 47.72192 51.37083 49.54638
# Shear Modulus (GPa) = 16.40440 17.79201 17.09820
#
# Velocity S-wave (km/s) = 3.24236 3.37671 3.31021
# Velocity P-wave (km/s) = 6.67833 6.93716 6.80898
#
# Compressibility (1/GPa) = 0.02095473
#
# Stress axis : x y z
#
# Youngs Moduli (GPa) = 45.56281 45.56281 84.32906
#
# Poissons Ratio (x) = 0.37504 0.38658
# Poissons Ratio (y) = 0.37504 0.38658
# Poissons Ratio (z) = 0.20887 0.20887
#
# Static dielectric constant tensor:
#      x y z
#    x 2.852030 0.000000 0.000000 
#    y 0.000000 2.852030 0.000000 
#    z 0.000000 0.000000 3.196600 
# 
# 
# High freq. dielectric constant tensor:
#      x y z
#    x 1.576720 0.000000 0.000000 
#    y 0.000000 1.576720 0.000000 
#    z 0.000000 0.000000 1.602990 
# 
# From -- ./inp_files/9337.got.cif
#   From: 2010.03.12/outbox.cif.g09.slc.cpg/sg132_5_cif.got.tgz:9337.got - 2010.04.06 17:53:44.
