data_PCOD8316324
_publ_section_title
;
Structure prediction by ZEFSAII (Michael W. Deem and Ramdas Pophale) SiO2 
 PCOD8316324
Probable space group: P 42/M M C
;
_chemical_formula_sum "Si O2"
_cell_formula_units_Z 56
_cell_length_a 17.762879
_cell_length_b 17.762879
_cell_length_c 8.626257
_cell_angle_alpha 90.000000
_cell_angle_beta 90.000000
_cell_angle_gamma 90.000000
_cell_volume 2721.755490
_symmetry_space_group_name_H-M "P 42/M M C"
_symmetry_group_IT_number 131
_symmetry_cell_setting 'tetragonal'
loop_
_space_group_symop_operation_xyz
x,y,z
-x,-y,z
-y,x,1/2+z
y,-x,1/2+z
-x,y,-z
x,-y,-z
y,x,1/2-z
-y,-x,1/2-z
-x,-y,-z
x,y,-z
y,-x,1/2-z
-y,x,1/2-z
x,-y,z
-x,y,z
-y,-x,1/2+z
y,x,1/2+z
loop_
_atom_site_type_symbol
_atom_site_label
_atom_site_fract_x
_atom_site_fract_y
_atom_site_fract_z
Si Si1 0.336786 0.849767 0.316337
Si Si2 0.000000 0.583699 0.184326
Si Si3 0.298492 0.413307 0.316759
Si Si4 0.807785 0.085746 0.816783
O O1 0.341867 0.842204 0.500000
O O2 0.377428 0.924720 0.251972
O O3 0.374785 0.777159 0.243087
O O4 0.251160 0.857364 0.262372
O O5 0.000000 0.500000 0.250636
O O6 0.000000 0.585635 0.000000
O O7 0.371538 0.371538 0.250000
O O8 0.300244 0.406864 0.500000
O O9 0.300674 0.500000 0.261484
O O10 0.888966 0.111035 0.750000
O O11 0.792562 0.000000 0.764886
O O12 0.805141 0.094201 0.000000
#
# Coordination Sequence:
#
# PCOD8316324 Si02
#       4
#    16   8  16  16
#     4  11  21  38  64  93 128 165 207 256 307 371
#     4   9  18  32  55  89 124 159 198 243 297 358
#     4  11  25  44  66  94 128 167 212 262 318 377
#     4  11  24  41  62  88 122 162 207 258 311 369
#
# _framework density 20.574956
#
# number of rings (size 3 to 8) (size 9 to 14) (size 15 to 20)
#    0.000    1.286    1.429    4.286    0.000    5.714 
#    0.000    2.857    0.000    3.429    0.000    0.000 
#    0.000    0.000    0.000    0.000    0.000    0.000 
#
# Total GULP energy -694572.821292 kJ/mol
# GULP energy per Si atom -12403.086094 kJ/mol
# Density = 2.052813 g / cm^3
# Si number density = 20.574956 Si / 1000 Ang^3
#
#
#
# Elastic Constant Matrix: (Units=GPa)
#
#
# Indices 1 2 3 4 5 6 
#
# 1 129.7724 83.6817 36.4697 0.0000 0.0000 0.0000
# 2 83.6817 129.7833 36.4694 0.0000 0.0000 0.0000
# 3 36.4697 36.4694 55.5408 0.0000 0.0000 0.0000
# 4 0.0000 0.0000 0.0000 30.8885 0.0000 0.0000
# 5 0.0000 0.0000 0.0000 0.0000 30.8881 0.0000
# 6 0.0000 0.0000 0.0000 0.0000 0.0000 35.0059
#
#
#
# Elastic Compliance Matrix: (Units=1/GPa)
#
#
# Indices 1 2 3 4 5 6 
#
# 1 0.013868 -0.007827 -0.003967 0.000000 0.000000 0.000000
# 2 -0.007827 0.013866 -0.003965 0.000000 0.000000 0.000000
# 3 -0.003967 -0.003965 0.023213 0.000000 0.000000 0.000000
# 4 0.000000 0.000000 0.000000 0.032375 0.000000 0.000000
# 5 0.000000 0.000000 0.000000 0.000000 0.032375 0.000000
# 6 0.000000 0.000000 0.000000 0.000000 0.000000 0.028567
#
#
# Mechanical properties :
#
#
# Convention : Reuss Voigt Hill
#
# Bulk Modulus (GPa) = 51.46929 69.81535 60.64232
# Shear Modulus (GPa) = 27.43379 29.92153 28.67766
#
# Velocity S-wave (km/s) = 3.65548 3.81763 3.73743
# Velocity P-wave (km/s) = 6.54878 7.31014 6.93991
#
# Compressibility (1/GPa) = 0.01942906
#
# Stress axis : x y z
#
# Youngs Moduli (GPa) = 72.11056 72.11829 43.07913
#
# Poissons Ratio (x) = 0.56447 0.17087
# Poissons Ratio (y) = 0.56441 0.17083
# Poissons Ratio (z) = 0.28603 0.28598
#
# Static dielectric constant tensor:
#      x y z
#    x 3.950970 0.000000 0.000000 
#    y 0.000000 3.950960 0.000000 
#    z 0.000000 0.000000 3.587080 
# 
# 
# High freq. dielectric constant tensor:
#      x y z
#    x 1.817480 0.000000 0.000000 
#    y 0.000000 1.817480 0.000000 
#    z 0.000000 0.000000 1.800610 
# 
# From -- ./inp_files/1194.got.cif
#   From: 2010.03.12/outbox.cif.g09.slc.cpg/sg131_1_cif.got.tgz:1194.got - 2010.04.06 17:36:35.
