data_PCOD8316408
_publ_section_title
;
Structure prediction by ZEFSAII (Michael W. Deem and Ramdas Pophale) SiO2 
 PCOD8316408
Probable space group: P 42/M C M
;
_chemical_formula_sum "Si O2"
_cell_formula_units_Z 96
_cell_length_a 19.240913
_cell_length_b 19.240913
_cell_length_c 18.475555
_cell_angle_alpha 90.000000
_cell_angle_beta 90.000000
_cell_angle_gamma 90.000000
_cell_volume 6839.885712
_symmetry_space_group_name_H-M "P 42/M C M"
_symmetry_group_IT_number 132
_symmetry_cell_setting 'tetragonal'
loop_
_space_group_symop_operation_xyz
x,y,z
-y,x,1/2+z
-x,-y,z
y,-x,1/2+z
x,-y,1/2-z
-x,y,1/2-z
y,x,-z
-y,-x,-z
-x,-y,-z
y,-x,1/2-z
x,y,-z
-y,x,1/2-z
-x,y,1/2+z
x,-y,1/2+z
-y,-x,z
y,x,z
loop_
_atom_site_type_symbol
_atom_site_label
_atom_site_fract_x
_atom_site_fract_y
_atom_site_fract_z
Si Si1 0.641892 0.071129 0.664235
Si Si2 0.380446 0.090245 0.672712
Si Si3 0.846229 0.735127 0.581916
Si Si4 0.918140 0.509991 0.919863
Si Si5 0.941713 0.832870 0.658205
Si Si6 0.908614 0.796784 0.182785
O O1 0.613616 0.097711 0.741359
O O2 0.588088 0.101374 0.605468
O O3 0.719484 0.099849 0.650260
O O4 0.645062 0.987872 0.656051
O O5 0.327185 0.145371 0.638431
O O6 0.454438 0.110194 0.637723
O O7 0.851199 0.706772 0.500000
O O8 0.772033 0.772033 0.596251
O O9 0.907667 0.791609 0.591818
O O10 0.000000 0.500000 0.922756
O O11 0.886158 0.498281 0.000000
O O12 0.911456 0.911456 0.662564
O O13 0.919704 0.790849 0.730928
O O14 0.024514 0.836027 0.648808
O O15 0.840232 0.840232 0.162106
#
# Coordination Sequence:
#
# PCOD8316408 Si02
#       6
#    16  16  16  16  16  16
#     4  10  17  27  41  59  78 103 129 166 199 237
#     4  10  16  28  43  58  78 100 130 160 200 244
#     4  10  18  26  40  60  80 102 127 162 209 254
#     4   9  18  28  40  59  78  99 125 158 201 243
#     4   9  16  28  40  55  77  99 132 174 212 248
#     4  10  17  27  42  59  76 102 136 170 210 244
#
# _framework density 14.035322000000001
#
# number of rings (size 3 to 8) (size 9 to 14) (size 15 to 20)
#    0.000    2.333    3.333    2.000    0.000    3.000 
#    0.000    1.667    0.000    2.000    0.000    2.333 
#    0.000    0.000    0.000    0.000    0.000    0.833 
#
# Total GULP energy -1189979.272768 kJ/mol
# GULP energy per Si atom -12395.617425 kJ/mol
# Density = 1.400338 g / cm^3
# Si number density = 14.035322 Si / 1000 Ang^3
#
#
#
# Elastic Constant Matrix: (Units=GPa)
#
#
# Indices 1 2 3 4 5 6 
#
# 1 74.9737 31.3466 24.9377 0.0000 0.0000 0.0000
# 2 31.3466 74.9737 24.9377 0.0000 0.0000 0.0000
# 3 24.9377 24.9377 55.3175 0.0000 0.0000 0.0000
# 4 0.0000 0.0000 0.0000 12.8090 0.0000 0.0000
# 5 0.0000 0.0000 0.0000 0.0000 12.8090 0.0000
# 6 0.0000 0.0000 0.0000 0.0000 0.0000 8.1028
#
#
#
# Elastic Compliance Matrix: (Units=1/GPa)
#
#
# Indices 1 2 3 4 5 6 
#
# 1 0.017425 -0.005497 -0.005377 0.000000 0.000000 0.000000
# 2 -0.005497 0.017425 -0.005377 0.000000 0.000000 0.000000
# 3 -0.005377 -0.005377 0.022926 0.000000 0.000000 0.000000
# 4 0.000000 0.000000 0.000000 0.078070 0.000000 0.000000
# 5 0.000000 0.000000 0.000000 0.000000 0.078070 0.000000
# 6 0.000000 0.000000 0.000000 0.000000 0.000000 0.123413
#
#
# Mechanical properties :
#
#
# Convention : Reuss Voigt Hill
#
# Bulk Modulus (GPa) = 39.56842 40.85657 40.21250
# Shear Modulus (GPa) = 13.21858 15.01371 14.11615
#
# Velocity S-wave (km/s) = 3.07222 3.27419 3.17481
# Velocity P-wave (km/s) = 6.39046 6.59293 6.49248
#
# Compressibility (1/GPa) = 0.02527268
#
# Stress axis : x y z
#
# Youngs Moduli (GPa) = 57.38946 57.38946 43.61904
#
# Poissons Ratio (x) = 0.31546 0.23455
# Poissons Ratio (y) = 0.31546 0.23455
# Poissons Ratio (z) = 0.30860 0.30860
#
# Static dielectric constant tensor:
#      x y z
#    x 2.594650 0.000000 0.000000 
#    y 0.000000 2.594650 0.000000 
#    z 0.000000 0.000000 2.816650 
# 
# 
# High freq. dielectric constant tensor:
#      x y z
#    x 1.504480 0.000000 0.000000 
#    y 0.000000 1.504480 0.000000 
#    z 0.000000 0.000000 1.532670 
# 
# From -- ./inp_files/5026.got.cif
#   From: 2010.03.12/outbox.cif.g09.slc.cpg/sg132_3_cif.got.tgz:5026.got - 2010.04.06 17:53:44.
