data_PCOD8316582
_publ_section_title
;
Structure prediction by ZEFSAII (Michael W. Deem and Ramdas Pophale) SiO2 
 PCOD8316582
Probable space group: P 42/M C M
;
_chemical_formula_sum "Si O2"
_cell_formula_units_Z 96
_cell_length_a 24.230086
_cell_length_b 24.230086
_cell_length_c 8.734535
_cell_angle_alpha 90.000000
_cell_angle_beta 90.000000
_cell_angle_gamma 90.000000
_cell_volume 5128.019885
_symmetry_space_group_name_H-M "P 42/M C M"
_symmetry_group_IT_number 132
_symmetry_cell_setting 'tetragonal'
loop_
_space_group_symop_operation_xyz
x,y,z
-y,x,1/2+z
-x,-y,z
y,-x,1/2+z
x,-y,1/2-z
-x,y,1/2-z
y,x,-z
-y,-x,-z
-x,-y,-z
y,-x,1/2-z
x,y,-z
-y,x,1/2-z
-x,y,1/2+z
x,-y,1/2+z
-y,-x,z
y,x,z
loop_
_atom_site_type_symbol
_atom_site_label
_atom_site_fract_x
_atom_site_fract_y
_atom_site_fract_z
Si Si1 0.943181 0.440571 0.181269
Si Si2 0.732137 0.357196 0.181071
Si Si3 0.261822 0.941915 0.181207
Si Si4 0.856491 0.350482 0.180837
Si Si5 0.054880 0.854080 0.676081
Si Si6 0.350104 0.439930 0.180050
O O1 0.931571 0.500000 0.250000
O O2 0.890457 0.404557 0.230191
O O3 0.000000 0.415568 0.250000
O O4 0.950058 0.443649 0.000000
O O5 0.697503 0.302498 0.226736
O O6 0.794314 0.351131 0.248322
O O7 0.704969 0.411458 0.254470
O O8 0.732575 0.365765 0.000000
O O9 0.298450 0.891192 0.243794
O O10 0.200141 0.928278 0.231935
O O11 0.282519 0.000000 0.250000
O O12 0.266327 0.946655 0.000000
O O13 0.851737 0.346340 0.000000
O O14 0.043554 0.838857 0.500000
O O15 0.103318 0.896683 0.696052
O O16 0.000000 0.880295 0.750000
O O17 0.358493 0.500000 0.250000
O O18 0.403315 0.403315 0.224927
O O19 0.343310 0.445391 0.000000
#
# Coordination Sequence:
#
# PCOD8316582 Si02
#       6
#    16  16  16  16  16  16
#     4  10  19  33  50  71 102 133 167 209 254 301
#     4   9  18  35  56  76 103 138 174 213 257 302
#     4  10  19  33  53  76 103 135 172 214 261 309
#     4   9  19  33  52  78 103 133 175 216 252 302
#     4  10  21  36  53  75 103 133 167 209 258 311
#     4  10  21  37  57  82 111 141 174 212 255 302
#
# _framework density 18.720676999999998
#
# number of rings (size 3 to 8) (size 9 to 14) (size 15 to 20)
#    0.000    2.333    0.000    4.000    0.000    4.000 
#    0.000   10.833    0.000    2.000    0.000    0.000 
#    0.000    0.000    0.000    0.000    0.000    0.000 
#
# Total GULP energy -1190268.432624 kJ/mol
# GULP energy per Si atom -12398.629506 kJ/mol
# Density = 1.867807 g / cm^3
# Si number density = 18.720677 Si / 1000 Ang^3
#
#
#
# Elastic Constant Matrix: (Units=GPa)
#
#
# Indices 1 2 3 4 5 6 
#
# 1 138.7895 74.2324 40.9316 0.0000 0.0000 0.0000
# 2 74.2324 138.7895 40.9316 0.0000 0.0000 0.0000
# 3 40.9316 40.9316 69.8171 0.0000 0.0000 0.0000
# 4 0.0000 0.0000 0.0000 20.4119 0.0000 0.0000
# 5 0.0000 0.0000 0.0000 0.0000 20.4119 0.0000
# 6 0.0000 0.0000 0.0000 0.0000 0.0000 27.0266
#
#
#
# Elastic Compliance Matrix: (Units=1/GPa)
#
#
# Indices 1 2 3 4 5 6 
#
# 1 0.010775 -0.004715 -0.003553 0.000000 0.000000 0.000000
# 2 -0.004715 0.010775 -0.003553 0.000000 0.000000 0.000000
# 3 -0.003553 -0.003553 0.018489 0.000000 0.000000 0.000000
# 4 0.000000 0.000000 0.000000 0.048991 0.000000 0.000000
# 5 0.000000 0.000000 0.000000 0.000000 0.048991 0.000000
# 6 0.000000 0.000000 0.000000 0.000000 0.000000 0.037001
#
#
# Mechanical properties :
#
#
# Convention : Reuss Voigt Hill
#
# Bulk Modulus (GPa) = 60.98449 73.28747 67.13598
# Shear Modulus (GPa) = 24.49445 26.32343 25.40894
#
# Velocity S-wave (km/s) = 3.62113 3.75389 3.68811
# Velocity P-wave (km/s) = 7.08027 7.61720 7.35364
#
# Compressibility (1/GPa) = 0.01639761
#
# Stress axis : x y z
#
# Youngs Moduli (GPa) = 92.80851 92.80851 54.08734
#
# Poissons Ratio (x) = 0.43762 0.19215
# Poissons Ratio (y) = 0.43762 0.19215
# Poissons Ratio (z) = 0.32971 0.32971
#
# Static dielectric constant tensor:
#      x y z
#    x 3.655810 0.000000 0.000000 
#    y 0.000000 3.655810 0.000000 
#    z 0.000000 0.000000 3.399790 
# 
# 
# High freq. dielectric constant tensor:
#      x y z
#    x 1.731410 0.000000 0.000000 
#    y 0.000000 1.731410 0.000000 
#    z 0.000000 0.000000 1.720740 
# 
# From -- ./inp_files/1791.got.cif
#   From: 2010.03.12/outbox.cif.g09.slc.cpg/sg132_1_cif.got.tgz:1791.got - 2010.04.06 17:53:44.
