data_PCOD8316893
_publ_section_title
;
Structure prediction by ZEFSAII (Michael W. Deem and Ramdas Pophale) SiO2 
 PCOD8316893
Probable space group: P 42/N B C
;
_chemical_formula_sum "Si O2"
_cell_formula_units_Z 96
_cell_length_a 24.933314
_cell_length_b 24.933314
_cell_length_c 9.141726
_cell_angle_alpha 90.000000
_cell_angle_beta 90.000000
_cell_angle_gamma 90.000000
_cell_volume 5683.138146
_symmetry_space_group_name_H-M "P 42/N B C"
_symmetry_group_IT_number 133
_space_group.IT_coordinate_system_code '2'
_symmetry_cell_setting 'tetragonal'
loop_
_space_group_symop_operation_xyz
x,y,z
1/2-y,x,1/2+z
1/2-x,1/2-y,z
y,1/2-x,1/2+z
x,1/2-y,-z
1/2-x,y,-z
y,x,1/2-z
1/2-y,1/2-x,1/2-z
-x,-y,-z
1/2+y,-x,1/2-z
1/2+x,1/2+y,-z
-y,1/2+x,1/2-z
-x,1/2+y,z
1/2+x,-y,z
-y,-x,1/2+z
1/2+y,1/2+x,1/2+z
loop_
_atom_site_type_symbol
_atom_site_label
_atom_site_fract_x
_atom_site_fract_y
_atom_site_fract_z
Si Si1 0.191506 0.099320 0.471785
Si Si2 0.501370 0.920377 0.674772
Si Si3 0.805530 0.885865 0.043037
Si Si4 0.808491 0.532204 0.200340
Si Si5 0.576820 0.001702 0.173357
Si Si6 0.468631 0.192882 0.231839
O O1 0.250000 0.124456 0.500000
O O2 0.148253 0.142868 0.513334
O O3 0.183731 0.083885 0.303924
O O4 0.184564 0.042722 0.559618
O O5 0.555127 0.944874 0.750000
O O6 0.500758 0.933267 0.501635
O O7 0.450270 0.946052 0.755737
O O8 0.497803 0.856508 0.702295
O O9 0.808332 0.943314 0.961261
O O10 0.750000 0.855276 0.000000
O O11 0.804682 0.906556 0.209488
O O12 0.859903 0.493154 0.211201
O O13 0.751066 0.502996 0.236026
O O14 0.551096 0.948905 0.250000
#
# Coordination Sequence:
#
# PCOD8316893 Si02
#       6
#    16  16  16  16  16  16
#     4  10  20  31  45  67  91 125 166 208 250 286
#     4  11  22  34  52  75 103 130 163 205 251 303
#     4  10  18  31  47  65  89 123 166 206 250 290
#     4  10  21  34  50  69  94 129 166 204 247 297
#     4  11  22  34  52  75 103 130 163 205 251 303
#     4  10  21  34  50  69  94 129 166 204 247 297
#
# _framework density 16.892074999999998
#
# number of rings (size 3 to 8) (size 9 to 14) (size 15 to 20)
#    0.000    1.667    1.667    5.000    4.667    0.333 
#    0.000    0.000    0.000    6.000    0.000    0.000 
#    0.000    0.667    0.000    3.000    0.000    0.000 
#
# Total GULP energy -1189541.217188 kJ/mol
# GULP energy per Si atom -12391.054346 kJ/mol
# Density = 1.685363 g / cm^3
# Si number density = 16.892075 Si / 1000 Ang^3
#
#
#
# Elastic Constant Matrix: (Units=GPa)
#
#
# Indices 1 2 3 4 5 6 
#
# 1 96.4952 41.9826 24.2440 0.0000 0.0000 0.0000
# 2 41.9826 96.4972 24.2439 0.0000 0.0000 0.0000
# 3 24.2440 24.2439 70.7507 0.0000 0.0000 0.0000
# 4 0.0000 0.0000 0.0000 19.0818 0.0000 0.0000
# 5 0.0000 0.0000 0.0000 0.0000 19.0815 0.0000
# 6 0.0000 0.0000 0.0000 0.0000 0.0000 21.0748
#
#
#
# Elastic Compliance Matrix: (Units=1/GPa)
#
#
# Indices 1 2 3 4 5 6 
#
# 1 0.013275 -0.005069 -0.002812 0.000000 0.000000 0.000000
# 2 -0.005069 0.013275 -0.002812 0.000000 0.000000 0.000000
# 3 -0.002812 -0.002812 0.016061 0.000000 0.000000 0.000000
# 4 0.000000 0.000000 0.000000 0.052406 0.000000 0.000000
# 5 0.000000 0.000000 0.000000 0.000000 0.052407 0.000000
# 6 0.000000 0.000000 0.000000 0.000000 0.000000 0.047450
#
#
# Mechanical properties :
#
#
# Convention : Reuss Voigt Hill
#
# Bulk Modulus (GPa) = 47.11328 49.40936 48.26132
# Shear Modulus (GPa) = 22.38789 23.39911 22.89350
#
# Velocity S-wave (km/s) = 3.64448 3.72588 3.68541
# Velocity P-wave (km/s) = 6.75729 6.91543 6.83682
#
# Compressibility (1/GPa) = 0.02122544
#
# Stress axis : x y z
#
# Youngs Moduli (GPa) = 75.32881 75.33058 62.26176
#
# Poissons Ratio (x) = 0.38186 0.17508
# Poissons Ratio (y) = 0.38185 0.17507
# Poissons Ratio (z) = 0.21182 0.21182
#
# Static dielectric constant tensor:
#      x y z
#    x 3.025500 0.000000 0.000000 
#    y 0.000000 3.025500 0.000000 
#    z 0.000000 0.000000 3.511890 
# 
# 
# High freq. dielectric constant tensor:
#      x y z
#    x 1.616920 0.000000 0.000000 
#    y 0.000000 1.616920 0.000000 
#    z 0.000000 0.000000 1.686410 
# 
# From -- ./inp_files/2006.got.cif
#   From: 2010.03.12/outbox.cif.g09.slc.cpg/sg133_2_cif.got.tgz:2006.got - 2010.04.06 18:08:06.
