data_PCOD8316477
_publ_section_title
;
Structure prediction by ZEFSAII (Michael W. Deem and Ramdas Pophale) SiO2 
 PCOD8316477
Probable space group: P 42/M C M
;
_chemical_formula_sum "Si O2"
_cell_formula_units_Z 64
_cell_length_a 12.425417
_cell_length_b 12.425417
_cell_length_c 23.857787
_cell_angle_alpha 90.000000
_cell_angle_beta 90.000000
_cell_angle_gamma 90.000000
_cell_volume 3683.427297
_symmetry_space_group_name_H-M "P 42/M C M"
_symmetry_group_IT_number 132
_symmetry_cell_setting 'tetragonal'
loop_
_space_group_symop_operation_xyz
x,y,z
-y,x,1/2+z
-x,-y,z
y,-x,1/2+z
x,-y,1/2-z
-x,y,1/2-z
y,x,-z
-y,-x,-z
-x,-y,-z
y,-x,1/2-z
x,y,-z
-y,x,1/2-z
-x,y,1/2+z
x,-y,1/2+z
-y,-x,z
y,x,z
loop_
_atom_site_type_symbol
_atom_site_label
_atom_site_fract_x
_atom_site_fract_y
_atom_site_fract_z
Si Si1 0.499080 0.871958 0.313304
Si Si2 0.876531 0.302450 0.884866
Si Si3 0.424053 0.105811 0.500000
Si Si4 0.192647 0.360918 0.000000
Si Si5 0.880703 0.707399 0.880781
O O1 0.500000 0.827638 0.250000
O O2 0.605500 0.828105 0.344366
O O3 0.392494 0.832174 0.345460
O O4 0.500000 0.000000 0.315398
O O5 0.801156 0.198845 0.882648
O O6 0.885418 0.348210 0.947004
O O7 0.995739 0.267834 0.864689
O O8 0.509761 0.204205 0.500000
O O9 0.500000 0.000000 0.500000
O O10 0.125889 0.319593 0.053484
O O11 0.313013 0.313013 0.000000
O O12 0.812374 0.812374 0.865019
#
# Coordination Sequence:
#
# PCOD8316477 Si02
#       5
#    16  16   8   8  16
#     4   9  18  34  54  74  97 134 185 226 253 298
#     4  11  21  32  51  82 112 138 171 217 270 316
#     4  12  17  34  55  74 107 143 184 221 255 306
#     4  10  18  30  54  78  99 131 176 218 255 304
#     4  10  19  33  54  78 106 142 177 212 257 316
#
# _framework density 17.375122999999999
#
# number of rings (size 3 to 8) (size 9 to 14) (size 15 to 20)
#    0.000    1.750    5.000    1.125    0.000    1.500 
#    0.000    0.000    0.000    7.500    0.000    8.750 
#    0.000    0.000    0.000    0.000    0.000    0.000 
#
# Total GULP energy -793499.013126 kJ/mol
# GULP energy per Si atom -12398.422080 kJ/mol
# Density = 1.733558 g / cm^3
# Si number density = 17.375123 Si / 1000 Ang^3
#
#
#
# Elastic Constant Matrix: (Units=GPa)
#
#
# Indices 1 2 3 4 5 6 
#
# 1 101.7574 65.3703 35.6226 0.0000 0.0000 0.0000
# 2 65.3703 101.7574 35.6226 0.0000 0.0000 0.0000
# 3 35.6226 35.6226 120.9197 0.0000 0.0000 0.0000
# 4 0.0000 0.0000 0.0000 10.8195 0.0000 0.0000
# 5 0.0000 0.0000 0.0000 0.0000 10.8195 0.0000
# 6 0.0000 0.0000 0.0000 0.0000 0.0000 21.1265
#
#
#
# Elastic Compliance Matrix: (Units=1/GPa)
#
#
# Indices 1 2 3 4 5 6 
#
# 1 0.017163 -0.010320 -0.002016 0.000000 0.000000 0.000000
# 2 -0.010320 0.017163 -0.002016 0.000000 0.000000 0.000000
# 3 -0.002016 -0.002016 0.009458 0.000000 0.000000 0.000000
# 4 0.000000 0.000000 0.000000 0.092426 0.000000 0.000000
# 5 0.000000 0.000000 0.000000 0.000000 0.092426 0.000000
# 6 0.000000 0.000000 0.000000 0.000000 0.000000 0.047334
#
#
# Mechanical properties :
#
#
# Convention : Reuss Voigt Hill
#
# Bulk Modulus (GPa) = 66.31384 66.40728 66.36056
# Shear Modulus (GPa) = 16.14479 21.07436 18.60957
#
# Velocity S-wave (km/s) = 3.05157 3.48646 3.27624
# Velocity P-wave (km/s) = 7.11793 7.38308 7.25172
#
# Compressibility (1/GPa) = 0.01507981
#
# Stress axis : x y z
#
# Youngs Moduli (GPa) = 58.26636 58.26636 105.73400
#
# Poissons Ratio (x) = 0.60129 0.21315
# Poissons Ratio (y) = 0.60129 0.21315
# Poissons Ratio (z) = 0.11746 0.11746
#
# Static dielectric constant tensor:
#      x y z
#    x 3.211730 0.000000 0.000000 
#    y 0.000000 3.211730 0.000000 
#    z 0.000000 0.000000 3.392030 
# 
# 
# High freq. dielectric constant tensor:
#      x y z
#    x 1.652790 0.000000 0.000000 
#    y 0.000000 1.652790 0.000000 
#    z 0.000000 0.000000 1.679340 
# 
# From -- ./inp_files/8744.got.cif
#   From: 2010.03.12/outbox.cif.g09.slc.cpg/sg132_5_cif.got.tgz:8744.got - 2010.04.06 17:53:44.
