data_PCOD8316378
_publ_section_title
;
Structure prediction by ZEFSAII (Michael W. Deem and Ramdas Pophale) SiO2 
 PCOD8316378
Probable space group: P 42/M M C
;
_chemical_formula_sum "Si O2"
_cell_formula_units_Z 64
_cell_length_a 9.691962
_cell_length_b 9.691962
_cell_length_c 41.163877
_cell_angle_alpha 90.000000
_cell_angle_beta 90.000000
_cell_angle_gamma 90.000000
_cell_volume 3866.692867
_symmetry_space_group_name_H-M "P 42/M M C"
_symmetry_group_IT_number 131
_symmetry_cell_setting 'tetragonal'
loop_
_space_group_symop_operation_xyz
x,y,z
-x,-y,z
-y,x,1/2+z
y,-x,1/2+z
-x,y,-z
x,-y,-z
y,x,1/2-z
-y,-x,1/2-z
-x,-y,-z
x,y,-z
y,-x,1/2-z
-y,x,1/2-z
x,-y,z
-x,y,z
-y,-x,1/2+z
y,x,1/2+z
loop_
_atom_site_type_symbol
_atom_site_label
_atom_site_fract_x
_atom_site_fract_y
_atom_site_fract_z
Si Si1 0.160160 0.339904 0.344332
Si Si2 0.153528 0.835998 0.785575
Si Si3 0.663823 0.845308 0.535849
Si Si4 0.339725 0.339974 0.094359
O O1 0.182851 0.500000 0.336582
O O2 0.217478 0.256228 0.313377
O O3 0.250128 0.292279 0.374972
O O4 0.000000 0.307135 0.351569
O O5 0.209998 0.790003 0.750000
O O6 0.000000 0.775903 0.792151
O O7 0.146938 0.000000 0.785678
O O8 0.718560 0.801237 0.500000
O O9 0.500000 0.840440 0.535547
O O10 0.719650 0.741472 0.563188
O O11 0.714792 0.000000 0.544029
O O12 0.304747 0.500000 0.101366
O O13 0.500000 0.319130 0.086829
#
# Coordination Sequence:
#
# PCOD8316378 Si02
#       4
#    16  16  16  16
#     4   9  17  29  44  61  83 111 139 166 200 243
#     4   8  14  26  44  63  81 103 134 170 203 236
#     4   8  14  25  41  61  84 108 134 167 207 245
#     4   9  17  28  42  61  84 108 135 168 202 237
#
# _framework density 16.551611999999999
#
# number of rings (size 3 to 8) (size 9 to 14) (size 15 to 20)
#    0.000    3.500    0.000    1.500    0.000    1.500 
#    0.000    3.750    0.000    2.250    0.000    5.250 
#    0.000    0.000    0.000    0.000    0.000    0.000 
#
# Total GULP energy -793227.062168 kJ/mol
# GULP energy per Si atom -12394.172846 kJ/mol
# Density = 1.651394 g / cm^3
# Si number density = 16.551612 Si / 1000 Ang^3
#
#
#
# Elastic Constant Matrix: (Units=GPa)
#
#
# Indices 1 2 3 4 5 6 
#
# 1 50.1126 28.0159 67.1745 0.0000 0.0000 0.0000
# 2 28.0159 50.1128 67.1745 0.0000 0.0000 0.0000
# 3 67.1745 67.1745 187.7138 0.0000 0.0000 0.0000
# 4 0.0000 0.0000 0.0000 29.9969 0.0000 0.0000
# 5 0.0000 0.0000 0.0000 0.0000 29.9969 0.0000
# 6 0.0000 0.0000 0.0000 0.0000 0.0000 12.1859
#
#
#
# Elastic Compliance Matrix: (Units=1/GPa)
#
#
# Indices 1 2 3 4 5 6 
#
# 1 0.039266 -0.005989 -0.011908 0.000000 0.000000 0.000000
# 2 -0.005989 0.039266 -0.011908 0.000000 0.000000 0.000000
# 3 -0.011908 -0.011908 0.013850 0.000000 0.000000 0.000000
# 4 0.000000 0.000000 0.000000 0.033337 0.000000 0.000000
# 5 0.000000 0.000000 0.000000 0.000000 0.033337 0.000000
# 6 0.000000 0.000000 0.000000 0.000000 0.000000 0.082062
#
#
# Mechanical properties :
#
#
# Convention : Reuss Voigt Hill
#
# Bulk Modulus (GPa) = 30.51524 68.07433 49.29479
# Shear Modulus (GPa) = 16.04347 22.80756 19.42551
#
# Velocity S-wave (km/s) = 3.11673 3.71612 3.42955
# Velocity P-wave (km/s) = 5.60611 7.72208 6.74756
#
# Compressibility (1/GPa) = 0.03277051
#
# Stress axis : x y z
#
# Youngs Moduli (GPa) = 25.46718 25.46732 72.20136
#
# Poissons Ratio (x) = 0.15253 0.85980
# Poissons Ratio (y) = 0.15253 0.85979
# Poissons Ratio (z) = 0.30327 0.30327
#
# Static dielectric constant tensor:
#      x y z
#    x 2.954700 0.000000 0.000000 
#    y 0.000000 2.954700 0.000000 
#    z 0.000000 0.000000 3.531490 
# 
# 
# High freq. dielectric constant tensor:
#      x y z
#    x 1.608950 0.000000 0.000000 
#    y 0.000000 1.608950 0.000000 
#    z 0.000000 0.000000 1.649340 
# 
# From -- ./inp_files/10776.got.cif
#   From: 2010.03.12/outbox.cif.g09.slc.cpg/sg131_6_cif.got.tgz:10776.got - 2010.04.06 17:36:35.
