data_PCOD8316418
_publ_section_title
;
Structure prediction by ZEFSAII (Michael W. Deem and Ramdas Pophale) SiO2 
 PCOD8316418
Probable space group: P 42/M C M
;
_chemical_formula_sum "Si O2"
_cell_formula_units_Z 112
_cell_length_a 19.778359
_cell_length_b 19.778359
_cell_length_c 18.857667
_cell_angle_alpha 90.000000
_cell_angle_beta 90.000000
_cell_angle_gamma 90.000000
_cell_volume 7376.807891
_symmetry_space_group_name_H-M "P 42/M C M"
_symmetry_group_IT_number 132
_symmetry_cell_setting 'tetragonal'
loop_
_space_group_symop_operation_xyz
x,y,z
-y,x,1/2+z
-x,-y,z
y,-x,1/2+z
x,-y,1/2-z
-x,y,1/2-z
y,x,-z
-y,-x,-z
-x,-y,-z
y,-x,1/2-z
x,y,-z
-y,x,1/2-z
-x,y,1/2+z
x,-y,1/2+z
-y,-x,z
y,x,z
loop_
_atom_site_type_symbol
_atom_site_label
_atom_site_fract_x
_atom_site_fract_y
_atom_site_fract_z
Si Si1 0.245342 0.050842 0.419997
Si Si2 0.193169 0.913512 0.417503
Si Si3 0.000834 0.605165 0.081166
Si Si4 0.425902 0.872343 0.169800
Si Si5 0.712475 0.182151 0.332531
Si Si6 0.282336 0.176174 0.668028
Si Si7 0.869062 0.426582 0.332254
O O1 0.234634 0.077580 0.500000
O O2 0.315013 0.010288 0.412638
O O3 0.241751 0.114938 0.368736
O O4 0.189375 0.993805 0.399113
O O5 0.210445 0.904549 0.500000
O O6 0.121490 0.878511 0.398010
O O7 0.254141 0.878072 0.376266
O O8 0.061134 0.568674 0.122449
O O9 0.931032 0.582532 0.115212
O O10 0.002071 0.580742 0.000000
O O11 0.362218 0.824930 0.146226
O O12 0.498738 0.835180 0.158595
O O13 0.417152 0.894741 0.251436
O O14 0.745660 0.254341 0.352986
O O15 0.726349 0.164754 0.250987
O O16 0.632059 0.186136 0.348608
O O17 0.247414 0.247414 0.644973
#
# Coordination Sequence:
#
# PCOD8316418 Si02
#       7
#    16  16  16  16  16  16  16
#     4   9  17  28  42  61  80 105 139 168 203 244
#     4   9  16  27  42  60  83 107 133 166 202 245
#     4  10  18  27  39  59  85 111 138 166 192 229
#     4   9  19  29  40  58  80 109 139 163 199 244
#     4   9  17  28  43  62  81 105 137 167 200 240
#     4   9  18  31  44  58  78 103 137 177 206 237
#     4  10  17  28  42  57  83 111 133 163 201 240
#
# _framework density 15.182717999999999
#
# number of rings (size 3 to 8) (size 9 to 14) (size 15 to 20)
#    0.000    2.714    1.429    0.857    0.000    3.143 
#    0.000    0.000    0.000    0.429    0.000    2.000 
#    0.000    4.000    0.000    8.143    0.000    0.000 
#
# Total GULP energy -1387743.971831 kJ/mol
# GULP energy per Si atom -12390.571177 kJ/mol
# Density = 1.514816 g / cm^3
# Si number density = 15.182718 Si / 1000 Ang^3
#
#
#
# Elastic Constant Matrix: (Units=GPa)
#
#
# Indices 1 2 3 4 5 6 
#
# 1 87.3901 56.3216 28.6826 0.0000 0.0000 0.0000
# 2 56.3216 87.3901 28.6826 0.0000 0.0000 0.0000
# 3 28.6826 28.6826 45.8694 0.0000 0.0000 0.0000
# 4 0.0000 0.0000 0.0000 13.8257 0.0000 0.0000
# 5 0.0000 0.0000 0.0000 0.0000 13.8257 0.0000
# 6 0.0000 0.0000 0.0000 0.0000 0.0000 14.0255
#
#
#
# Elastic Compliance Matrix: (Units=1/GPa)
#
#
# Indices 1 2 3 4 5 6 
#
# 1 0.020730 -0.011457 -0.005798 0.000000 0.000000 0.000000
# 2 -0.011457 0.020730 -0.005798 0.000000 0.000000 0.000000
# 3 -0.005798 -0.005798 0.029053 0.000000 0.000000 0.000000
# 4 0.000000 0.000000 0.000000 0.072329 0.000000 0.000000
# 5 0.000000 0.000000 0.000000 0.000000 0.072329 0.000000
# 6 0.000000 0.000000 0.000000 0.000000 0.000000 0.071299
#
#
# Mechanical properties :
#
#
# Convention : Reuss Voigt Hill
#
# Bulk Modulus (GPa) = 40.97565 49.78034 45.37799
# Shear Modulus (GPa) = 14.67513 15.46623 15.07068
#
# Velocity S-wave (km/s) = 3.11234 3.19513 3.15401
# Velocity P-wave (km/s) = 6.32159 6.81693 6.57392
#
# Compressibility (1/GPa) = 0.02440474
#
# Stress axis : x y z
#
# Youngs Moduli (GPa) = 48.23946 48.23946 34.42022
#
# Poissons Ratio (x) = 0.55268 0.19958
# Poissons Ratio (y) = 0.55268 0.19958
# Poissons Ratio (z) = 0.27971 0.27971
#
# Static dielectric constant tensor:
#      x y z
#    x 3.008630 0.000000 0.000000 
#    y 0.000000 3.008630 0.000000 
#    z 0.000000 0.000000 2.997130 
# 
# 
# High freq. dielectric constant tensor:
#      x y z
#    x 1.559380 0.000000 0.000000 
#    y 0.000000 1.559380 0.000000 
#    z 0.000000 0.000000 1.587280 
# 
# From -- ./inp_files/6791.got.cif
#   From: 2010.03.12/outbox.cif.g09.slc.cpg/sg132_4_cif.got.tgz:6791.got - 2010.04.06 17:53:44.
