data_PCOD8316661
_publ_section_title
;
Structure prediction by ZEFSAII (Michael W. Deem and Ramdas Pophale) SiO2 
 PCOD8316661
Probable space group: P 42/M C M
;
_chemical_formula_sum "Si O2"
_cell_formula_units_Z 128
_cell_length_a 19.982516
_cell_length_b 19.982516
_cell_length_c 18.993893
_cell_angle_alpha 90.000000
_cell_angle_beta 90.000000
_cell_angle_gamma 90.000000
_cell_volume 7584.279437
_symmetry_space_group_name_H-M "P 42/M C M"
_symmetry_group_IT_number 132
_symmetry_cell_setting 'tetragonal'
loop_
_space_group_symop_operation_xyz
x,y,z
-y,x,1/2+z
-x,-y,z
y,-x,1/2+z
x,-y,1/2-z
-x,y,1/2-z
y,x,-z
-y,-x,-z
-x,-y,-z
y,-x,1/2-z
x,y,-z
-y,x,1/2-z
-x,y,1/2+z
x,-y,1/2+z
-y,-x,z
y,x,z
loop_
_atom_site_type_symbol
_atom_site_label
_atom_site_fract_x
_atom_site_fract_y
_atom_site_fract_z
Si Si1 0.838098 0.725765 0.079867
Si Si2 0.955941 0.156088 0.182451
Si Si3 0.777603 0.664964 0.649507
Si Si4 0.939975 0.831491 0.075540
Si Si5 0.454152 0.341781 0.182040
Si Si6 0.872131 0.759779 0.420677
Si Si7 0.653663 0.233995 0.694337
Si Si8 0.680786 0.569220 0.419348
O O1 0.778576 0.778576 0.085541
O O2 0.909253 0.760148 0.101966
O O3 0.822146 0.665305 0.134041
O O4 0.842753 0.697737 0.000000
O O5 0.900951 0.099050 0.201450
O O6 0.925104 0.219744 0.140511
O O7 0.000000 0.178243 0.250000
O O8 0.010697 0.129144 0.127683
O O9 0.720732 0.720732 0.646152
O O10 0.840216 0.689037 0.602371
O O11 0.801957 0.653813 0.729537
O O12 0.747604 0.596101 0.619109
O O13 0.875882 0.875882 0.063281
O O14 0.976618 0.821663 0.000000
O O15 0.500000 0.350486 0.250000
O O16 0.402838 0.402838 0.178606
O O17 0.416809 0.270648 0.183457
O O18 0.499202 0.342965 0.112588
O O19 0.902711 0.752127 0.500000
O O20 0.816864 0.816864 0.422396
O O21 0.711912 0.288089 0.692008
O O22 0.698787 0.557479 0.500000
O O23 0.621066 0.621066 0.409161
#
# Coordination Sequence:
#
# PCOD8316661 Si02
#       8
#    16  16  16  16  16  16  16  16
#     4   8  15  28  46  68  91 116 151 196 245 293
#     4  11  23  34  45  66  98 133 168 204 238 275
#     4   9  16  29  49  71  90 115 153 203 259 303
#     4   9  18  32  49  66  89 127 166 196 232 280
#     4  11  21  33  46  65  94 134 174 203 235 282
#     4   9  18  32  50  70  91 119 158 206 256 300
#     4   9  17  28  47  68  90 119 155 198 248 298
#     4  10  20  33  48  67  94 128 168 210 247 287
#
# _framework density 16.877013999999999
#
# number of rings (size 3 to 8) (size 9 to 14) (size 15 to 20)
#    0.000    2.500    1.250    2.250    1.750    4.750 
#    0.000    2.500    0.000    0.000    0.000    0.000 
#    0.000    1.000    1.000    5.250    1.000    0.500 
#
# Total GULP energy -1585854.836797 kJ/mol
# GULP energy per Si atom -12389.490912 kJ/mol
# Density = 1.683860 g / cm^3
# Si number density = 16.877014 Si / 1000 Ang^3
#
#
#
# Elastic Constant Matrix: (Units=GPa)
#
#
# Indices 1 2 3 4 5 6 
#
# 1 33.0807 28.6927 27.9591 0.0000 0.0000 0.0000
# 2 28.6927 33.0807 27.9591 0.0000 0.0000 0.0000
# 3 27.9591 27.9591 104.1043 0.0000 0.0000 0.0000
# 4 0.0000 0.0000 0.0000 23.7311 0.0000 0.0000
# 5 0.0000 0.0000 0.0000 0.0000 23.7311 0.0000
# 6 0.0000 0.0000 0.0000 0.0000 0.0000 16.2750
#
#
#
# Elastic Compliance Matrix: (Units=1/GPa)
#
#
# Indices 1 2 3 4 5 6 
#
# 1 0.124641 -0.103253 -0.005744 0.000000 0.000000 0.000000
# 2 -0.103253 0.124641 -0.005744 0.000000 0.000000 0.000000
# 3 -0.005744 -0.005744 0.012691 0.000000 0.000000 0.000000
# 4 0.000000 0.000000 0.000000 0.042139 0.000000 0.000000
# 5 0.000000 0.000000 0.000000 0.000000 0.042139 0.000000
# 6 0.000000 0.000000 0.000000 0.000000 0.000000 0.061444
#
#
# Mechanical properties :
#
#
# Convention : Reuss Voigt Hill
#
# Bulk Modulus (GPa) = 30.77830 37.72085 34.24958
# Shear Modulus (GPa) = 7.71598 18.45776 13.08687
#
# Velocity S-wave (km/s) = 2.14052 3.31064 2.78767
# Velocity P-wave (km/s) = 4.93817 6.08381 5.54068
#
# Compressibility (1/GPa) = 0.03249042
#
# Stress axis : x y z
#
# Youngs Moduli (GPa) = 8.02307 8.02307 78.79527
#
# Poissons Ratio (x) = 0.82840 0.45261
# Poissons Ratio (y) = 0.82840 0.45261
# Poissons Ratio (z) = 0.04609 0.04609
#
# Static dielectric constant tensor:
#      x y z
#    x 3.054000 0.000000 0.000000 
#    y 0.000000 3.054000 0.000000 
#    z 0.000000 0.000000 3.471080 
# 
# 
# High freq. dielectric constant tensor:
#      x y z
#    x 1.616560 0.000000 0.000000 
#    y 0.000000 1.616560 0.000000 
#    z 0.000000 0.000000 1.670710 
# 
# From -- ./inp_files/6840.got.cif
#   From: 2010.03.12/outbox.cif.g09.slc.cpg/sg132_4_cif.got.tgz:6840.got - 2010.04.06 17:53:44.
