data_PCOD8316505
_publ_section_title
;
Structure prediction by ZEFSAII (Michael W. Deem and Ramdas Pophale) SiO2 
 PCOD8316505
Probable space group: P 42/M C M
;
_chemical_formula_sum "Si O2"
_cell_formula_units_Z 88
_cell_length_a 14.755670
_cell_length_b 14.755670
_cell_length_c 23.861559
_cell_angle_alpha 90.000000
_cell_angle_beta 90.000000
_cell_angle_gamma 90.000000
_cell_volume 5195.372401
_symmetry_space_group_name_H-M "P 42/M C M"
_symmetry_group_IT_number 132
_symmetry_cell_setting 'tetragonal'
loop_
_space_group_symop_operation_xyz
x,y,z
-y,x,1/2+z
-x,-y,z
y,-x,1/2+z
x,-y,1/2-z
-x,y,1/2-z
y,x,-z
-y,-x,-z
-x,-y,-z
y,-x,1/2-z
x,y,-z
-y,x,1/2-z
-x,y,1/2+z
x,-y,1/2+z
-y,-x,z
y,x,z
loop_
_atom_site_type_symbol
_atom_site_label
_atom_site_fract_x
_atom_site_fract_y
_atom_site_fract_z
Si Si1 0.047220 0.807106 0.689913
Si Si2 0.677674 0.823943 0.755876
Si Si3 0.500000 0.271175 0.250000
Si Si4 0.728875 0.880452 0.359864
Si Si5 0.498969 0.356125 0.133639
Si Si6 0.614056 0.232894 0.936468
O O1 0.102391 0.897610 0.672408
O O2 0.116179 0.722835 0.695609
O O3 0.000000 0.826712 0.750000
O O4 0.978223 0.779723 0.639611
O O5 0.732945 0.732945 0.744583
O O6 0.578025 0.794517 0.773342
O O7 0.673419 0.879638 0.698102
O O8 0.525637 0.333905 0.197666
O O9 0.806790 0.806790 0.361328
O O10 0.655955 0.859258 0.408938
O O11 0.563473 0.436528 0.113356
O O12 0.394466 0.394466 0.128076
O O13 0.522468 0.268215 0.095042
O O14 0.689641 0.310360 0.932746
O O15 0.587717 0.209491 0.000000
#
# Coordination Sequence:
#
# PCOD8316505 Si02
#       6
#    16  16   8  16  16  16
#     4   9  17  28  44  67  94 121 152 190 237 297
#     4   9  17  28  42  63  94 128 154 186 231 284
#     4  12  18  27  45  66  96 128 154 186 236 300
#     4   9  16  29  46  65  92 121 153 191 237 291
#     4  10  19  28  42  66  93 123 160 200 240 283
#     4   9  17  30  47  65  90 127 164 196 239 292
#
# _framework density 16.93815
#
# number of rings (size 3 to 8) (size 9 to 14) (size 15 to 20)
#    0.000    2.545    1.818    3.273    0.000    2.364 
#    0.000    5.909    0.000    0.545    0.000    5.091 
#    0.000    1.455    0.000    0.000    0.000    0.000 
#
# Total GULP energy -1090228.812453 kJ/mol
# GULP energy per Si atom -12388.963778 kJ/mol
# Density = 1.689960 g / cm^3
# Si number density = 16.938150 Si / 1000 Ang^3
#
#
#
# Elastic Constant Matrix: (Units=GPa)
#
#
# Indices 1 2 3 4 5 6 
#
# 1 77.9289 41.7776 30.3521 0.0000 0.0000 0.0000
# 2 41.7776 77.9289 30.3521 0.0000 0.0000 0.0000
# 3 30.3521 30.3521 90.2283 0.0000 0.0000 0.0000
# 4 0.0000 0.0000 0.0000 15.2108 0.0000 0.0000
# 5 0.0000 0.0000 0.0000 0.0000 15.2108 0.0000
# 6 0.0000 0.0000 0.0000 0.0000 0.0000 31.6952
#
#
#
# Elastic Compliance Matrix: (Units=1/GPa)
#
#
# Indices 1 2 3 4 5 6 
#
# 1 0.018867 -0.008795 -0.003388 0.000000 0.000000 0.000000
# 2 -0.008795 0.018867 -0.003388 0.000000 0.000000 0.000000
# 3 -0.003388 -0.003388 0.013362 0.000000 0.000000 0.000000
# 4 0.000000 0.000000 0.000000 0.065743 0.000000 0.000000
# 5 0.000000 0.000000 0.000000 0.000000 0.065743 0.000000
# 6 0.000000 0.000000 0.000000 0.000000 0.000000 0.031551
#
#
# Mechanical properties :
#
#
# Convention : Reuss Voigt Hill
#
# Bulk Modulus (GPa) = 50.11569 50.11664 50.11617
# Shear Modulus (GPa) = 19.84714 21.99696 20.92205
#
# Velocity S-wave (km/s) = 3.42679 3.60761 3.51836
# Velocity P-wave (km/s) = 6.73118 6.85605 6.79390
#
# Compressibility (1/GPa) = 0.01995383
#
# Stress axis : x y z
#
# Youngs Moduli (GPa) = 53.00339 53.00339 74.83646
#
# Poissons Ratio (x) = 0.46616 0.25355
# Poissons Ratio (y) = 0.46616 0.25355
# Poissons Ratio (z) = 0.17958 0.17958
#
# Static dielectric constant tensor:
#      x y z
#    x 3.199800 0.000000 0.000000 
#    y 0.000000 3.199800 0.000000 
#    z 0.000000 0.000000 2.930490 
# 
# 
# High freq. dielectric constant tensor:
#      x y z
#    x 1.639680 0.000000 0.000000 
#    y 0.000000 1.639680 0.000000 
#    z 0.000000 0.000000 1.609550 
# 
# From -- ./inp_files/8971.got.cif
#   From: 2010.03.12/outbox.cif.g09.slc.cpg/sg132_5_cif.got.tgz:8971.got - 2010.04.06 17:53:44.
