data_PCOD8316265
_publ_section_title
;
Structure prediction by ZEFSAII (Michael W. Deem and Ramdas Pophale) SiO2 
 PCOD8316265
Probable space group: P 42/M M C
;
_chemical_formula_sum "Si O2"
_cell_formula_units_Z 96
_cell_length_a 24.042934
_cell_length_b 24.042934
_cell_length_c 8.993729
_cell_angle_alpha 90.000000
_cell_angle_beta 90.000000
_cell_angle_gamma 90.000000
_cell_volume 5198.939047
_symmetry_space_group_name_H-M "P 42/M M C"
_symmetry_group_IT_number 131
_symmetry_cell_setting 'tetragonal'
loop_
_space_group_symop_operation_xyz
x,y,z
-x,-y,z
-y,x,1/2+z
y,-x,1/2+z
-x,y,-z
x,-y,-z
y,x,1/2-z
-y,-x,1/2-z
-x,-y,-z
x,y,-z
y,-x,1/2-z
-y,x,1/2-z
x,-y,z
-x,y,z
-y,-x,1/2+z
y,x,1/2+z
loop_
_atom_site_type_symbol
_atom_site_label
_atom_site_fract_x
_atom_site_fract_y
_atom_site_fract_z
Si Si1 0.354080 0.858735 0.823924
Si Si2 0.563874 0.644013 0.167959
Si Si3 0.561183 0.766472 0.176987
Si Si4 0.152771 0.765191 0.175930
Si Si5 0.936808 0.856409 0.825793
Si Si6 0.065561 0.437620 0.831909
O O1 0.390040 0.806325 0.766424
O O2 0.295512 0.857862 0.741255
O O3 0.390447 0.912066 0.779002
O O4 0.343967 0.858598 0.000000
O O5 0.598075 0.598075 0.250000
O O6 0.500000 0.626693 0.179129
O O7 0.573576 0.704902 0.239736
O O8 0.584817 0.645245 0.000000
O O9 0.500000 0.786493 0.233664
O O10 0.559672 0.764647 0.000000
O O11 0.207355 0.792646 0.250000
O O12 0.098547 0.801729 0.216808
O O13 0.162364 0.761539 0.000000
O O14 0.910921 0.910921 0.750000
O O15 0.000000 0.847737 0.769476
O O16 0.935095 0.867083 0.000000
O O17 0.083699 0.500000 0.780956
O O18 0.000000 0.432786 0.826691
O O19 0.086804 0.426511 0.000000
#
# Coordination Sequence:
#
# PCOD8316265 Si02
#       6
#    16  16  16  16  16  16
#     4  11  21  33  54  82 107 135 175 220 267 322
#     4   9  18  33  51  70  95 127 161 198 244 299
#     4   8  16  32  51  71  98 131 165 206 257 307
#     4  10  21  38  56  75 105 143 180 219 262 310
#     4   9  19  36  57  80 106 138 173 208 250 299
#     4   9  19  36  55  76 107 145 181 220 267 315
#
# _framework density 18.465306000000002
#
# number of rings (size 3 to 8) (size 9 to 14) (size 15 to 20)
#    0.000    2.667    0.000    3.000    0.000    4.333 
#    0.000    7.500    0.000    2.000    0.000    0.000 
#    0.000    0.000    0.000    0.000    0.000    0.000 
#
# Total GULP energy -1190096.092349 kJ/mol
# GULP energy per Si atom -12396.834295 kJ/mol
# Density = 1.842328 g / cm^3
# Si number density = 18.465306 Si / 1000 Ang^3
#
#
#
# Elastic Constant Matrix: (Units=GPa)
#
#
# Indices 1 2 3 4 5 6 
#
# 1 106.8935 68.0732 44.4473 0.0000 0.0000 0.0000
# 2 68.0732 106.8992 44.4487 0.0000 0.0000 0.0000
# 3 44.4473 44.4487 60.1630 0.0000 0.0000 0.0000
# 4 0.0000 0.0000 0.0000 28.4257 0.0000 0.0000
# 5 0.0000 0.0000 0.0000 0.0000 28.4255 0.0000
# 6 0.0000 0.0000 0.0000 0.0000 0.0000 43.1348
#
#
#
# Elastic Compliance Matrix: (Units=1/GPa)
#
#
# Indices 1 2 3 4 5 6 
#
# 1 0.017454 -0.008304 -0.006760 0.000000 0.000000 0.000000
# 2 -0.008304 0.017453 -0.006760 0.000000 0.000000 0.000000
# 3 -0.006760 -0.006760 0.026610 0.000000 0.000000 0.000000
# 4 0.000000 0.000000 0.000000 0.035179 0.000000 0.000000
# 5 0.000000 0.000000 0.000000 0.000000 0.035180 0.000000
# 6 0.000000 0.000000 0.000000 0.000000 0.000000 0.023183
#
#
# Mechanical properties :
#
#
# Convention : Reuss Voigt Hill
#
# Bulk Modulus (GPa) = 55.95951 65.32157 60.64054
# Shear Modulus (GPa) = 24.43040 27.79629 26.11335
#
# Velocity S-wave (km/s) = 3.64131 3.88406 3.76464
# Velocity P-wave (km/s) = 6.93180 7.45431 7.19780
#
# Compressibility (1/GPa) = 0.01787006
#
# Stress axis : x y z
#
# Youngs Moduli (GPa) = 57.29282 57.29572 37.58049
#
# Poissons Ratio (x) = 0.47579 0.25403
# Poissons Ratio (y) = 0.47577 0.25403
# Poissons Ratio (z) = 0.38728 0.38730
#
# Static dielectric constant tensor:
#      x y z
#    x 3.521420 0.000000 0.000000 
#    y 0.000000 3.521420 0.000000 
#    z 0.000000 0.000000 3.323020 
# 
# 
# High freq. dielectric constant tensor:
#      x y z
#    x 1.719990 0.000000 0.000000 
#    y 0.000000 1.719990 0.000000 
#    z 0.000000 0.000000 1.701280 
# 
# From -- ./inp_files/2288.got.cif
#   From: 2010.03.12/outbox.cif.g09.slc.cpg/sg131_2_cif.got.tgz:2288.got - 2010.04.06 17:36:35.
