data_PCOD8316502
_publ_section_title
;
Structure prediction by ZEFSAII (Michael W. Deem and Ramdas Pophale) SiO2 
 PCOD8316502
Probable space group: P 42/M C M
;
_chemical_formula_sum "Si O2"
_cell_formula_units_Z 80
_cell_length_a 19.224045
_cell_length_b 19.224045
_cell_length_c 14.464558
_cell_angle_alpha 90.000000
_cell_angle_beta 90.000000
_cell_angle_gamma 90.000000
_cell_volume 5345.578555
_symmetry_space_group_name_H-M "P 42/M C M"
_symmetry_group_IT_number 132
_symmetry_cell_setting 'tetragonal'
loop_
_space_group_symop_operation_xyz
x,y,z
-y,x,1/2+z
-x,-y,z
y,-x,1/2+z
x,-y,1/2-z
-x,y,1/2-z
y,x,-z
-y,-x,-z
-x,-y,-z
y,-x,1/2-z
x,y,-z
-y,x,1/2-z
-x,y,1/2+z
x,-y,1/2+z
-y,-x,z
y,x,z
loop_
_atom_site_type_symbol
_atom_site_label
_atom_site_fract_x
_atom_site_fract_y
_atom_site_fract_z
Si Si1 0.723118 0.833128 0.751539
Si Si2 0.804624 0.086000 0.892926
Si Si3 0.000015 0.395523 0.394442
Si Si4 0.885995 0.575357 0.248791
Si Si5 0.943745 0.757630 0.896864
O O1 0.754768 0.754768 0.754376
O O2 0.742813 0.872037 0.657301
O O3 0.639208 0.831329 0.764466
O O4 0.760436 0.877014 0.832401
O O5 0.878744 0.121257 0.870613
O O6 0.811290 0.004411 0.864498
O O7 0.784367 0.091096 0.000000
O O8 0.002639 0.423410 0.500000
O O9 0.937765 0.432310 0.338583
O O10 0.985362 0.314242 0.391165
O O11 0.072530 0.410988 0.343632
O O12 0.846936 0.500000 0.250000
O O13 0.916840 0.773337 0.000000
#
# Coordination Sequence:
#
# PCOD8316502 Si02
#       5
#    16  16  16  16  16
#     4  10  19  30  43  58  80 109 138 168 206 248
#     4   9  16  26  42  62  81 104 136 172 207 243
#     4   9  16  27  42  61  86 112 134 159 193 238
#     4  10  19  28  40  61  85 107 136 168 197 239
#     4   9  16  27  43  60  80 107 139 171 202 239
#
# _framework density 14.965638
#
# number of rings (size 3 to 8) (size 9 to 14) (size 15 to 20)
#    0.000    2.600    2.000    1.800    0.000    2.000 
#    0.000    0.000    0.000    0.600    0.000    5.600 
#    0.000    0.400    0.000    0.000    0.000    0.000 
#
# Total GULP energy -991207.124094 kJ/mol
# GULP energy per Si atom -12390.089051 kJ/mol
# Density = 1.493158 g / cm^3
# Si number density = 14.965638 Si / 1000 Ang^3
#
#
#
# Elastic Constant Matrix: (Units=GPa)
#
#
# Indices 1 2 3 4 5 6 
#
# 1 67.6205 37.4686 18.9695 0.0000 0.0000 0.0000
# 2 37.4686 67.6205 18.9695 0.0000 0.0000 0.0000
# 3 18.9695 18.9695 77.9053 0.0000 0.0000 0.0000
# 4 0.0000 0.0000 0.0000 9.7051 0.0000 0.0000
# 5 0.0000 0.0000 0.0000 0.0000 9.7051 0.0000
# 6 0.0000 0.0000 0.0000 0.0000 0.0000 9.0477
#
#
#
# Elastic Compliance Matrix: (Units=1/GPa)
#
#
# Indices 1 2 3 4 5 6 
#
# 1 0.021799 -0.011366 -0.002540 0.000000 0.000000 0.000000
# 2 -0.011366 0.021799 -0.002540 0.000000 0.000000 0.000000
# 3 -0.002540 -0.002540 0.014073 0.000000 0.000000 0.000000
# 4 0.000000 0.000000 0.000000 0.103039 0.000000 0.000000
# 5 0.000000 0.000000 0.000000 0.000000 0.103039 0.000000
# 6 0.000000 0.000000 0.000000 0.000000 0.000000 0.110526
#
#
# Mechanical properties :
#
#
# Convention : Reuss Voigt Hill
#
# Bulk Modulus (GPa) = 40.35914 40.44018 40.39966
# Shear Modulus (GPa) = 12.03579 14.87415 13.45497
#
# Velocity S-wave (km/s) = 2.83897 3.15602 3.00168
# Velocity P-wave (km/s) = 6.14595 6.35305 6.25036
#
# Compressibility (1/GPa) = 0.02477753
#
# Stress axis : x y z
#
# Youngs Moduli (GPa) = 45.87335 45.87335 71.05698
#
# Poissons Ratio (x) = 0.52141 0.18051
# Poissons Ratio (y) = 0.52141 0.18051
# Poissons Ratio (z) = 0.11653 0.11653
#
# Static dielectric constant tensor:
#      x y z
#    x 2.762140 0.000000 0.000000 
#    y 0.000000 2.762140 0.000000 
#    z 0.000000 0.000000 3.177870 
# 
# 
# High freq. dielectric constant tensor:
#      x y z
#    x 1.537970 0.000000 0.000000 
#    y 0.000000 1.537970 0.000000 
#    z 0.000000 0.000000 1.589850 
# 
# From -- ./inp_files/4867.got.cif
#   From: 2010.03.12/outbox.cif.g09.slc.cpg/sg132_3_cif.got.tgz:4867.got - 2010.04.06 17:53:44.
