data_PCOD8316062
_publ_section_title
;
Structure prediction by ZEFSAII (Michael W. Deem and Ramdas Pophale) SiO2 
 PCOD8316062
Probable space group: P 42/M M C
;
_chemical_formula_sum "Si O2"
_cell_formula_units_Z 96
_cell_length_a 23.675591
_cell_length_b 23.675591
_cell_length_c 9.517140
_cell_angle_alpha 90.000000
_cell_angle_beta 90.000000
_cell_angle_gamma 90.000000
_cell_volume 5334.676833
_symmetry_space_group_name_H-M "P 42/M M C"
_symmetry_group_IT_number 131
_symmetry_cell_setting 'tetragonal'
loop_
_space_group_symop_operation_xyz
x,y,z
-x,-y,z
-y,x,1/2+z
y,-x,1/2+z
-x,y,-z
x,-y,-z
y,x,1/2-z
-y,-x,1/2-z
-x,-y,-z
x,y,-z
y,-x,1/2-z
-y,x,1/2-z
x,-y,z
-x,y,z
-y,-x,1/2+z
y,x,1/2+z
loop_
_atom_site_type_symbol
_atom_site_label
_atom_site_fract_x
_atom_site_fract_y
_atom_site_fract_z
Si Si1 0.870788 0.565811 0.662817
Si Si2 0.119667 0.119667 0.250000
Si Si3 0.567007 0.641953 0.340347
Si Si4 0.743730 0.432982 0.654899
Si Si5 0.065505 0.765775 0.664493
Si Si6 0.064638 0.938060 0.000000
Si Si7 0.343413 0.066602 0.659899
O O1 0.886396 0.577022 0.500000
O O2 0.878697 0.500000 0.698850
O O3 0.806855 0.586197 0.693898
O O4 0.910580 0.600676 0.765444
O O5 0.184489 0.107873 0.210539
O O6 0.101633 0.078813 0.372571
O O7 0.589594 0.589594 0.250000
O O8 0.589217 0.638841 0.500000
O O9 0.500000 0.638895 0.335527
O O10 0.590087 0.699958 0.270753
O O11 0.727078 0.409679 0.500000
O O12 0.742055 0.500000 0.650271
O O13 0.073679 0.752858 0.500000
O O14 0.085420 0.711599 0.752839
O O15 0.000000 0.781387 0.696517
O O16 0.000000 0.952740 0.000000
O O17 0.096592 0.000000 0.000000
O O18 0.338984 0.089560 0.500000
O O19 0.348798 0.000000 0.659975
#
# Coordination Sequence:
#
# PCOD8316062 Si02
#       7
#    16   8  16  16  16   8  16
#     4   9  18  34  58  86 113 143 176 213 265 323
#     4  12  22  35  56  80 106 142 186 226 274 332
#     4  10  20  32  48  72 102 137 178 218 262 311
#     4   8  15  30  52  76 102 133 170 211 255 308
#     4  10  21  38  57  77 104 143 188 227 269 325
#     4  11  22  34  50  78 114 142 172 224 284 334
#     4  10  22  37  55  81 112 146 182 222 266 315
#
# _framework density 17.995466
#
# number of rings (size 3 to 8) (size 9 to 14) (size 15 to 20)
#    0.000    2.250    0.833    3.500    1.167    4.167 
#    0.000    4.167    1.833    0.000    0.000    0.000 
#    0.000    0.000    0.000    0.000    0.000    0.000 
#
# Total GULP energy -1190085.012497 kJ/mol
# GULP energy per Si atom -12396.718880 kJ/mol
# Density = 1.795451 g / cm^3
# Si number density = 17.995466 Si / 1000 Ang^3
#
#
#
# Elastic Constant Matrix: (Units=GPa)
#
#
# Indices 1 2 3 4 5 6 
#
# 1 68.3266 35.8050 51.5264 0.0000 0.0000 0.0000
# 2 35.8050 68.3266 51.5264 0.0000 0.0000 0.0000
# 3 51.5264 51.5264 148.5556 0.0000 0.0000 0.0000
# 4 0.0000 0.0000 0.0000 35.6742 0.0000 0.0000
# 5 0.0000 0.0000 0.0000 0.0000 35.6742 0.0000
# 6 0.0000 0.0000 0.0000 0.0000 0.0000 16.1915
#
#
#
# Elastic Compliance Matrix: (Units=1/GPa)
#
#
# Indices 1 2 3 4 5 6 
#
# 1 0.022686 -0.008063 -0.005072 0.000000 0.000000 0.000000
# 2 -0.008063 0.022686 -0.005072 0.000000 0.000000 0.000000
# 3 -0.005072 -0.005072 0.010250 0.000000 0.000000 0.000000
# 4 0.000000 0.000000 0.000000 0.028031 0.000000 0.000000
# 5 0.000000 0.000000 0.000000 0.000000 0.028031 0.000000
# 6 0.000000 0.000000 0.000000 0.000000 0.000000 0.061761
#
#
# Mechanical properties :
#
#
# Convention : Reuss Voigt Hill
#
# Bulk Modulus (GPa) = 52.06279 62.54712 57.30496
# Shear Modulus (GPa) = 23.12025 27.26473 25.19249
#
# Velocity S-wave (km/s) = 3.58827 3.89664 3.74563
# Velocity P-wave (km/s) = 6.79422 7.42143 7.11474
#
# Compressibility (1/GPa) = 0.01920758
#
# Stress axis : x y z
#
# Youngs Moduli (GPa) = 44.08075 44.08075 97.56309
#
# Poissons Ratio (x) = 0.35543 0.49482
# Poissons Ratio (y) = 0.35543 0.49482
# Poissons Ratio (z) = 0.22357 0.22357
#
# Static dielectric constant tensor:
#      x y z
#    x 3.220240 0.000000 0.000000 
#    y 0.000000 3.220240 0.000000 
#    z 0.000000 0.000000 3.636840 
# 
# 
# High freq. dielectric constant tensor:
#      x y z
#    x 1.680830 0.000000 0.000000 
#    y 0.000000 1.680830 0.000000 
#    z 0.000000 0.000000 1.711500 
# 
# From -- ./inp_files/2356.got.cif
#   From: 2010.03.12/outbox.cif.g09.slc.cpg/sg131_2_cif.got.tgz:2356.got - 2010.04.06 17:36:35.
