data_PCOD8316805
_publ_section_title
;
Structure prediction by ZEFSAII (Michael W. Deem and Ramdas Pophale) SiO2 
 PCOD8316805
Probable space group: P 42/M C M
;
_chemical_formula_sum "Si O2"
_cell_formula_units_Z 56
_cell_length_a 12.531592
_cell_length_b 12.531592
_cell_length_c 17.444305
_cell_angle_alpha 90.000000
_cell_angle_beta 90.000000
_cell_angle_gamma 90.000000
_cell_volume 2739.467579
_symmetry_space_group_name_H-M "P 42/M C M"
_symmetry_group_IT_number 132
_symmetry_cell_setting 'tetragonal'
loop_
_space_group_symop_operation_xyz
x,y,z
-y,x,1/2+z
-x,-y,z
y,-x,1/2+z
x,-y,1/2-z
-x,y,1/2-z
y,x,-z
-y,-x,-z
-x,-y,-z
y,-x,1/2-z
x,y,-z
-y,x,1/2-z
-x,y,1/2+z
x,-y,1/2+z
-y,-x,z
y,x,z
loop_
_atom_site_type_symbol
_atom_site_label
_atom_site_fract_x
_atom_site_fract_y
_atom_site_fract_z
Si Si1 0.983511 0.313798 0.088393
Si Si2 0.802093 0.632094 0.827936
Si Si3 0.223324 0.396014 0.347371
Si Si4 0.083785 0.916216 0.091222
O O1 0.877596 0.385171 0.096084
O O2 0.951551 0.198529 0.122504
O O3 0.080865 0.361697 0.136099
O O4 0.018695 0.308410 0.000000
O O5 0.727632 0.727632 0.859326
O O6 0.814699 0.639582 0.736747
O O7 0.744409 0.520503 0.849724
O O8 0.323919 0.323919 0.374599
O O9 0.086585 0.913416 0.000000
O O10 0.000000 0.000000 0.124101
#
# Coordination Sequence:
#
# PCOD8316805 Si02
#       4
#    16  16  16   8
#     4  11  21  36  58  84 116 152 191 233 284 344
#     4  10  22  38  59  85 114 151 192 239 287 336
#     4  10  21  39  60  83 115 151 192 238 286 341
#     4   9  18  32  52  78 109 145 182 226 275 326
#
# _framework density 20.441928999999998
#
# number of rings (size 3 to 8) (size 9 to 14) (size 15 to 20)
#    0.000    1.857    1.429    2.571    0.000    6.857 
#    0.000    2.857    0.000    0.000    0.000    4.000 
#    0.000    0.000    0.000    0.000    0.000    0.000 
#
# Total GULP energy -694462.208812 kJ/mol
# GULP energy per Si atom -12401.110872 kJ/mol
# Density = 2.039540 g / cm^3
# Si number density = 20.441929 Si / 1000 Ang^3
#
#
#
# Elastic Constant Matrix: (Units=GPa)
#
#
# Indices 1 2 3 4 5 6 
#
# 1 107.6359 37.0757 15.8679 0.0000 0.0000 0.0000
# 2 37.0757 107.6360 15.8680 0.0000 0.0000 0.0000
# 3 15.8679 15.8680 33.5798 0.0000 0.0000 0.0000
# 4 0.0000 0.0000 0.0000 21.0407 0.0000 0.0000
# 5 0.0000 0.0000 0.0000 0.0000 21.0407 0.0000
# 6 0.0000 0.0000 0.0000 0.0000 0.0000 30.3048
#
#
#
# Elastic Compliance Matrix: (Units=1/GPa)
#
#
# Indices 1 2 3 4 5 6 
#
# 1 0.010941 -0.003232 -0.003643 0.000000 0.000000 0.000000
# 2 -0.003232 0.010941 -0.003643 0.000000 0.000000 0.000000
# 3 -0.003643 -0.003643 0.033223 0.000000 0.000000 0.000000
# 4 0.000000 0.000000 0.000000 0.047527 0.000000 0.000000
# 5 0.000000 0.000000 0.000000 0.000000 0.047527 0.000000
# 6 0.000000 0.000000 0.000000 0.000000 0.000000 0.032998
#
#
# Mechanical properties :
#
#
# Convention : Reuss Voigt Hill
#
# Bulk Modulus (GPa) = 29.35188 42.94164 36.14676
# Shear Modulus (GPa) = 23.19675 26.47992 24.83834
#
# Velocity S-wave (km/s) = 3.37228 3.60303 3.48956
# Velocity P-wave (km/s) = 5.43625 6.19366 5.82727
#
# Compressibility (1/GPa) = 0.03406937
#
# Stress axis : x y z
#
# Youngs Moduli (GPa) = 91.40148 91.40151 30.09988
#
# Poissons Ratio (x) = 0.29537 0.10965
# Poissons Ratio (y) = 0.29537 0.10965
# Poissons Ratio (z) = 0.33297 0.33297
#
# Static dielectric constant tensor:
#      x y z
#    x 3.773140 0.000000 0.000000 
#    y 0.000000 3.773140 0.000000 
#    z 0.000000 0.000000 3.393640 
# 
# 
# High freq. dielectric constant tensor:
#      x y z
#    x 1.804310 0.000000 0.000000 
#    y 0.000000 1.804310 0.000000 
#    z 0.000000 0.000000 1.773620 
# 
# From -- ./inp_files/7316.got.cif
#   From: 2010.03.12/outbox.cif.g09.slc.cpg/sg132_4_cif.got.tgz:7316.got - 2010.04.06 17:53:44.
