data_PCOD8316487
_publ_section_title
;
Structure prediction by ZEFSAII (Michael W. Deem and Ramdas Pophale) SiO2 
 PCOD8316487
Probable space group: P 42/M C M
;
_chemical_formula_sum "Si O2"
_cell_formula_units_Z 80
_cell_length_a 11.447466
_cell_length_b 11.447466
_cell_length_c 28.561693
_cell_angle_alpha 90.000000
_cell_angle_beta 90.000000
_cell_angle_gamma 90.000000
_cell_volume 3742.852145
_symmetry_space_group_name_H-M "P 42/M C M"
_symmetry_group_IT_number 132
_symmetry_cell_setting 'tetragonal'
loop_
_space_group_symop_operation_xyz
x,y,z
-y,x,1/2+z
-x,-y,z
y,-x,1/2+z
x,-y,1/2-z
-x,y,1/2-z
y,x,-z
-y,-x,-z
-x,-y,-z
y,-x,1/2-z
x,y,-z
-y,x,1/2-z
-x,y,1/2+z
x,-y,1/2+z
-y,-x,z
y,x,z
loop_
_atom_site_type_symbol
_atom_site_label
_atom_site_fract_x
_atom_site_fract_y
_atom_site_fract_z
Si Si1 0.596327 0.899260 0.553573
Si Si2 0.235240 0.051330 0.699346
Si Si3 0.863577 0.528260 0.697744
Si Si4 0.759098 0.062828 0.396545
Si Si5 0.751484 0.567698 0.109242
O O1 0.623169 0.869335 0.500000
O O2 0.548392 0.780429 0.578400
O O3 0.500000 0.000000 0.559362
O O4 0.718327 0.943606 0.577349
O O5 0.107987 0.107987 0.700253
O O6 0.333393 0.148750 0.688357
O O7 0.267169 0.000000 0.750000
O O8 0.236503 0.952793 0.659583
O O9 0.824117 0.500000 0.750000
O O10 0.777086 0.459348 0.663561
O O11 0.000000 0.500000 0.687407
O O12 0.887253 0.112748 0.412665
O O13 0.667280 0.162558 0.409210
O O14 0.617936 0.617936 0.104005
#
# Coordination Sequence:
#
# PCOD8316487 Si02
#       5
#    16  16  16  16  16
#     4   9  17  31  52  80 115 148 188 246 298 343
#     4  12  23  35  54  82 115 152 192 235 287 349
#     4  11  18  34  56  75 109 149 192 237 283 347
#     4  10  19  32  51  77 113 152 189 232 291 357
#     4  10  18  31  55  82 110 147 191 240 296 353
#
# _framework density 21.374075000000001
#
# number of rings (size 3 to 8) (size 9 to 14) (size 15 to 20)
#    0.000    1.600    6.000    1.200    0.000    4.600 
#    0.000    4.000    0.000    1.200    0.000    2.800 
#    0.000    1.600    0.000    0.000    0.000    0.000 
#
# Total GULP energy -991212.946090 kJ/mol
# GULP energy per Si atom -12390.161826 kJ/mol
# Density = 2.132543 g / cm^3
# Si number density = 21.374075 Si / 1000 Ang^3
#
#
#
# Elastic Constant Matrix: (Units=GPa)
#
#
# Indices 1 2 3 4 5 6 
#
# 1 67.6642 61.2819 44.2520 0.0000 0.0000 0.0000
# 2 61.2819 67.6642 44.2520 0.0000 0.0000 0.0000
# 3 44.2520 44.2520 147.5221 0.0000 0.0000 0.0000
# 4 0.0000 0.0000 0.0000 6.6383 0.0000 0.0000
# 5 0.0000 0.0000 0.0000 0.0000 6.6383 0.0000
# 6 0.0000 0.0000 0.0000 0.0000 0.0000 47.0170
#
#
#
# Elastic Compliance Matrix: (Units=1/GPa)
#
#
# Indices 1 2 3 4 5 6 
#
# 1 0.083224 -0.073458 -0.002929 0.000000 0.000000 0.000000
# 2 -0.073458 0.083224 -0.002929 0.000000 0.000000 0.000000
# 3 -0.002929 -0.002929 0.008536 0.000000 0.000000 0.000000
# 4 0.000000 0.000000 0.000000 0.150642 0.000000 0.000000
# 5 0.000000 0.000000 0.000000 0.000000 0.150642 0.000000
# 6 0.000000 0.000000 0.000000 0.000000 0.000000 0.021269
#
#
# Mechanical properties :
#
#
# Convention : Reuss Voigt Hill
#
# Bulk Modulus (GPa) = 61.16195 64.71358 62.93777
# Shear Modulus (GPa) = 7.55722 20.92969 14.24346
#
# Velocity S-wave (km/s) = 1.88238 3.13263 2.58425
# Velocity P-wave (km/s) = 5.77941 6.58991 6.19792
#
# Compressibility (1/GPa) = 0.01635003
#
# Stress axis : x y z
#
# Youngs Moduli (GPa) = 12.01582 12.01582 117.14909
#
# Poissons Ratio (x) = 0.88266 0.34318
# Poissons Ratio (y) = 0.88266 0.34318
# Poissons Ratio (z) = 0.03520 0.03520
#
# Static dielectric constant tensor:
#      x y z
#    x 3.839070 0.000000 0.000000 
#    y 0.000000 3.839070 0.000000 
#    z 0.000000 0.000000 3.759460 
# 
# 
# High freq. dielectric constant tensor:
#      x y z
#    x 1.810590 0.000000 0.000000 
#    y 0.000000 1.810590 0.000000 
#    z 0.000000 0.000000 1.832670 
# 
# From -- ./inp_files/10585.got.cif
#   From: 2010.03.12/outbox.cif.g09.slc.cpg/sg132_6_cif.got.tgz:10585.got - 2010.04.06 17:53:44.
