data_PCOD8316249
_publ_section_title
;
Structure prediction by ZEFSAII (Michael W. Deem and Ramdas Pophale) SiO2 
 PCOD8316249
Probable space group: P 42/M M C
;
_chemical_formula_sum "Si O2"
_cell_formula_units_Z 64
_cell_length_a 13.872522
_cell_length_b 13.872522
_cell_length_c 15.620653
_cell_angle_alpha 90.000000
_cell_angle_beta 90.000000
_cell_angle_gamma 90.000000
_cell_volume 3006.145725
_symmetry_space_group_name_H-M "P 42/M M C"
_symmetry_group_IT_number 131
_symmetry_cell_setting 'tetragonal'
loop_
_space_group_symop_operation_xyz
x,y,z
-x,-y,z
-y,x,1/2+z
y,-x,1/2+z
-x,y,-z
x,-y,-z
y,x,1/2-z
-y,-x,1/2-z
-x,-y,-z
x,y,-z
y,-x,1/2-z
-y,x,1/2-z
x,-y,z
-x,y,z
-y,-x,1/2+z
y,x,1/2+z
loop_
_atom_site_type_symbol
_atom_site_label
_atom_site_fract_x
_atom_site_fract_y
_atom_site_fract_z
Si Si1 0.113023 0.305934 0.404401
Si Si2 0.104383 0.887756 0.847230
Si Si3 0.387162 0.231885 0.248506
Si Si4 0.107940 0.386055 0.905731
O O1 0.130100 0.346445 0.500000
O O2 0.149649 0.193976 0.403668
O O3 0.172646 0.370811 0.338636
O O4 0.000000 0.311334 0.379344
O O5 0.134172 0.865829 0.750000
O O6 0.000000 0.839220 0.871040
O O7 0.090830 0.000000 0.861489
O O8 0.334522 0.334522 0.250000
O O9 0.500000 0.252510 0.258778
O O10 0.343126 0.172958 0.329517
O O11 0.106454 0.500000 0.896656
O O12 0.000000 0.345762 0.894388
O O13 0.148307 0.356950 0.000000
#
# Coordination Sequence:
#
# PCOD8316249 Si02
#       4
#    16  16  16  16
#     4  10  21  36  57  89 126 162 199 235 279 349
#     4   8  14  27  49  77 113 159 204 241 278 325
#     4  11  24  41  61  84 113 151 196 248 301 351
#     4   8  15  32  61  92 114 133 167 224 294 357
#
# _framework density 21.289719000000002
#
# number of rings (size 3 to 8) (size 9 to 14) (size 15 to 20)
#    0.000    2.750    0.000    3.000    0.000    3.750 
#    0.000    5.000    0.000    0.000    0.000    5.250 
#    0.000    0.000    0.000    0.000    0.000    0.500 
#
# Total GULP energy -793116.057669 kJ/mol
# GULP energy per Si atom -12392.438401 kJ/mol
# Density = 2.124126 g / cm^3
# Si number density = 21.289719 Si / 1000 Ang^3
#
#
#
# Elastic Constant Matrix: (Units=GPa)
#
#
# Indices 1 2 3 4 5 6 
#
# 1 81.4231 28.4744 52.2938 0.0000 0.0000 0.0000
# 2 28.4744 81.4234 52.2935 0.0000 0.0000 0.0000
# 3 52.2938 52.2935 134.6316 0.0000 0.0000 0.0000
# 4 0.0000 0.0000 0.0000 25.1891 0.0000 0.0000
# 5 0.0000 0.0000 0.0000 0.0000 25.1891 0.0000
# 6 0.0000 0.0000 0.0000 0.0000 0.0000 17.3303
#
#
#
# Elastic Compliance Matrix: (Units=1/GPa)
#
#
# Indices 1 2 3 4 5 6 
#
# 1 0.016661 -0.002225 -0.005607 0.000000 0.000000 0.000000
# 2 -0.002225 0.016661 -0.005607 0.000000 0.000000 0.000000
# 3 -0.005607 -0.005607 0.011783 0.000000 0.000000 0.000000
# 4 0.000000 0.000000 0.000000 0.039700 0.000000 0.000000
# 5 0.000000 0.000000 0.000000 0.000000 0.039700 0.000000
# 6 0.000000 0.000000 0.000000 0.000000 0.000000 0.057702
#
#
# Mechanical properties :
#
#
# Convention : Reuss Voigt Hill
#
# Bulk Modulus (GPa) = 54.86588 62.62239 58.74413
# Shear Modulus (GPa) = 23.23842 24.50281 23.87061
#
# Velocity S-wave (km/s) = 3.30742 3.39620 3.35211
# Velocity P-wave (km/s) = 6.35707 6.69755 6.52953
#
# Compressibility (1/GPa) = 0.01822626
#
# Stress axis : x y z
#
# Youngs Moduli (GPa) = 60.02087 60.02131 84.86479
#
# Poissons Ratio (x) = 0.13357 0.47584
# Poissons Ratio (y) = 0.13357 0.47584
# Poissons Ratio (z) = 0.33654 0.33654
#
# Static dielectric constant tensor:
#      x y z
#    x 3.385870 0.000000 0.000000 
#    y 0.000000 3.385840 0.000000 
#    z 0.000000 0.000000 4.052540 
# 
# 
# High freq. dielectric constant tensor:
#      x y z
#    x 1.816560 0.000000 0.000000 
#    y 0.000000 1.816560 0.000000 
#    z 0.000000 0.000000 1.838640 
# 
# From -- ./inp_files/5434.got.cif
#   From: 2010.03.12/outbox.cif.g09.slc.cpg/sg131_3_cif.got.tgz:5434.got - 2010.04.06 17:36:35.
