data_PCOD8316737
_publ_section_title
;
Structure prediction by ZEFSAII (Michael W. Deem and Ramdas Pophale) SiO2 
 PCOD8316737
Probable space group: P 42/M C M
;
_chemical_formula_sum "Si O2"
_cell_formula_units_Z 80
_cell_length_a 13.735792
_cell_length_b 13.735792
_cell_length_c 21.779733
_cell_angle_alpha 90.000000
_cell_angle_beta 90.000000
_cell_angle_gamma 90.000000
_cell_volume 4109.225390
_symmetry_space_group_name_H-M "P 42/M C M"
_symmetry_group_IT_number 132
_symmetry_cell_setting 'tetragonal'
loop_
_space_group_symop_operation_xyz
x,y,z
-y,x,1/2+z
-x,-y,z
y,-x,1/2+z
x,-y,1/2-z
-x,y,1/2-z
y,x,-z
-y,-x,-z
-x,-y,-z
y,-x,1/2-z
x,y,-z
-y,x,1/2-z
-x,y,1/2+z
x,-y,1/2+z
-y,-x,z
y,x,z
loop_
_atom_site_type_symbol
_atom_site_label
_atom_site_fract_x
_atom_site_fract_y
_atom_site_fract_z
Si Si1 0.605914 0.018084 0.568903
Si Si2 0.151678 0.301799 0.623969
Si Si3 0.297431 0.545932 0.071767
Si Si4 0.791418 0.363979 0.374179
Si Si5 0.883248 0.725113 0.758575
O O1 0.604356 0.979402 0.500000
O O2 0.628485 0.132040 0.570625
O O3 0.500000 0.000000 0.599825
O O4 0.691317 0.960974 0.604773
O O5 0.194879 0.194879 0.608305
O O6 0.208577 0.381953 0.584749
O O7 0.160231 0.321465 0.696469
O O8 0.399817 0.600184 0.086633
O O9 0.283498 0.454785 0.118340
O O10 0.295241 0.514254 0.000000
O O11 0.734567 0.265433 0.383987
O O12 0.852576 0.354863 0.310296
O O13 0.829984 0.829984 0.770932
O O14 0.000000 0.740231 0.750000
#
# Coordination Sequence:
#
# PCOD8316737 Si02
#       5
#    16  16  16  16  16
#     4  11  21  35  57  86 116 151 194 242 296 349
#     4  10  20  36  58  84 113 148 197 246 290 348
#     4  10  21  38  59  84 119 163 202 236 286 353
#     4  11  23  38  57  87 122 153 194 247 297 347
#     4  10  21  38  59  84 114 152 196 244 299 353
#
# _framework density 19.468388999999998
#
# number of rings (size 3 to 8) (size 9 to 14) (size 15 to 20)
#    0.000    1.600    4.000    1.200    0.000    4.200 
#    0.000    3.000    0.000    0.600    0.000    7.000 
#    0.000    0.000    0.000    0.000    0.000    0.000 
#
# Total GULP energy -991278.022608 kJ/mol
# GULP energy per Si atom -12390.975283 kJ/mol
# Density = 1.942408 g / cm^3
# Si number density = 19.468389 Si / 1000 Ang^3
#
#
#
# Elastic Constant Matrix: (Units=GPa)
#
#
# Indices 1 2 3 4 5 6 
#
# 1 105.8650 55.1249 45.3029 0.0000 0.0000 0.0000
# 2 55.1249 105.8650 45.3029 0.0000 0.0000 0.0000
# 3 45.3029 45.3029 82.9434 0.0000 0.0000 0.0000
# 4 0.0000 0.0000 0.0000 26.4075 0.0000 0.0000
# 5 0.0000 0.0000 0.0000 0.0000 26.4075 0.0000
# 6 0.0000 0.0000 0.0000 0.0000 0.0000 29.3737
#
#
#
# Elastic Compliance Matrix: (Units=1/GPa)
#
#
# Indices 1 2 3 4 5 6 
#
# 1 0.014338 -0.005370 -0.004898 0.000000 0.000000 0.000000
# 2 -0.005370 0.014338 -0.004898 0.000000 0.000000 0.000000
# 3 -0.004898 -0.004898 0.017407 0.000000 0.000000 0.000000
# 4 0.000000 0.000000 0.000000 0.037868 0.000000 0.000000
# 5 0.000000 0.000000 0.000000 0.000000 0.037868 0.000000
# 6 0.000000 0.000000 0.000000 0.000000 0.000000 0.034044
#
#
# Mechanical properties :
#
#
# Convention : Reuss Voigt Hill
#
# Bulk Modulus (GPa) = 63.49046 65.12609 64.30827
# Shear Modulus (GPa) = 26.11676 26.36728 26.24202
#
# Velocity S-wave (km/s) = 3.66662 3.68416 3.67540
# Velocity P-wave (km/s) = 7.11395 7.18486 7.14949
#
# Compressibility (1/GPa) = 0.01575040
#
# Stress axis : x y z
#
# Youngs Moduli (GPa) = 69.74300 69.74300 57.44679
#
# Poissons Ratio (x) = 0.37451 0.28140
# Poissons Ratio (y) = 0.37451 0.28140
# Poissons Ratio (z) = 0.34163 0.34163
#
# Static dielectric constant tensor:
#      x y z
#    x 3.622100 0.000000 0.000000 
#    y 0.000000 3.622100 0.000000 
#    z 0.000000 0.000000 3.577690 
# 
# 
# High freq. dielectric constant tensor:
#      x y z
#    x 1.751290 0.000000 0.000000 
#    y 0.000000 1.751290 0.000000 
#    z 0.000000 0.000000 1.758310 
# 
# From -- ./inp_files/7619.got.cif
#   From: 2010.03.12/outbox.cif.g09.slc.cpg/sg132_4_cif.got.tgz:7619.got - 2010.04.06 17:53:44.
