data_PCOD8316537
_publ_section_title
;
Structure prediction by ZEFSAII (Michael W. Deem and Ramdas Pophale) SiO2 
 PCOD8316537
Probable space group: P 42/M C M
;
_chemical_formula_sum "Si O2"
_cell_formula_units_Z 104
_cell_length_a 16.906037
_cell_length_b 16.906037
_cell_length_c 20.001345
_cell_angle_alpha 90.000000
_cell_angle_beta 90.000000
_cell_angle_gamma 90.000000
_cell_volume 5716.666161
_symmetry_space_group_name_H-M "P 42/M C M"
_symmetry_group_IT_number 132
_symmetry_cell_setting 'tetragonal'
loop_
_space_group_symop_operation_xyz
x,y,z
-y,x,1/2+z
-x,-y,z
y,-x,1/2+z
x,-y,1/2-z
-x,y,1/2-z
y,x,-z
-y,-x,-z
-x,-y,-z
y,-x,1/2-z
x,y,-z
-y,x,1/2-z
-x,y,1/2+z
x,-y,1/2+z
-y,-x,z
y,x,z
loop_
_atom_site_type_symbol
_atom_site_label
_atom_site_fract_x
_atom_site_fract_y
_atom_site_fract_z
Si Si1 0.368404 0.087796 0.573639
Si Si2 0.108295 0.235629 0.178673
Si Si3 0.124074 0.000000 0.250000
Si Si4 0.088710 0.365840 0.077313
Si Si5 0.175763 0.694238 0.804849
Si Si6 0.305137 0.437382 0.309000
Si Si7 0.491994 0.211453 0.924955
O O1 0.326577 0.086963 0.500000
O O2 0.309696 0.118810 0.630787
O O3 0.440217 0.147221 0.570512
O O4 0.400979 0.999399 0.590037
O O5 0.189594 0.189594 0.168455
O O6 0.090477 0.280837 0.111150
O O7 0.118892 0.295508 0.241063
O O8 0.034517 0.177358 0.190624
O O9 0.069867 0.069867 0.281064
O O10 0.160991 0.418953 0.105701
O O11 0.105468 0.353908 0.000000
O O12 0.229383 0.770617 0.816663
O O13 0.229367 0.616743 0.792353
O O14 0.320614 0.500000 0.250000
O O15 0.383497 0.383497 0.319510
O O16 0.285382 0.485761 0.377175
O O17 0.475290 0.244921 0.000000
#
# Coordination Sequence:
#
# PCOD8316537 Si02
#       7
#    16  16   8  16  16  16  16
#     4   9  17  29  47  72 100 130 163 199 244 297
#     4  10  19  31  48  68  93 125 163 206 245 287
#     4   9  18  32  50  70  91 122 164 206 247 288
#     4  10  19  31  48  70  98 131 164 200 245 293
#     4   9  18  31  48  72 100 131 167 207 251 297
#     4  10  20  34  53  76 102 131 163 202 249 298
#     4   9  18  33  52  74 101 131 163 199 239 291
#
# _framework density 18.192421
#
# number of rings (size 3 to 8) (size 9 to 14) (size 15 to 20)
#    0.000    2.538    0.000    2.308    0.000    2.923 
#    0.000    3.077    0.000    5.538    0.000    3.231 
#    0.000    0.000    0.000    0.000    0.000    0.000 
#
# Total GULP energy -1288929.410449 kJ/mol
# GULP energy per Si atom -12393.552024 kJ/mol
# Density = 1.815101 g / cm^3
# Si number density = 18.192421 Si / 1000 Ang^3
#
#
#
# Elastic Constant Matrix: (Units=GPa)
#
#
# Indices 1 2 3 4 5 6 
#
# 1 70.0225 32.4127 38.6872 0.0000 0.0000 0.0000
# 2 32.4127 70.0225 38.6872 0.0000 0.0000 0.0000
# 3 38.6872 38.6872 68.7346 0.0000 0.0000 0.0000
# 4 0.0000 0.0000 0.0000 25.9390 0.0000 0.0000
# 5 0.0000 0.0000 0.0000 0.0000 25.9390 0.0000
# 6 0.0000 0.0000 0.0000 0.0000 0.0000 17.9814
#
#
#
# Elastic Compliance Matrix: (Units=1/GPa)
#
#
# Indices 1 2 3 4 5 6 
#
# 1 0.021786 -0.004803 -0.009558 0.000000 0.000000 0.000000
# 2 -0.004803 0.021786 -0.009558 0.000000 0.000000 0.000000
# 3 -0.009558 -0.009558 0.025309 0.000000 0.000000 0.000000
# 4 0.000000 0.000000 0.000000 0.038552 0.000000 0.000000
# 5 0.000000 0.000000 0.000000 0.000000 0.038552 0.000000
# 6 0.000000 0.000000 0.000000 0.000000 0.000000 0.055613
#
#
# Mechanical properties :
#
#
# Convention : Reuss Voigt Hill
#
# Bulk Modulus (GPa) = 47.52998 47.59487 47.56242
# Shear Modulus (GPa) = 19.49698 20.57140 20.03419
#
# Velocity S-wave (km/s) = 3.27725 3.36634 3.32209
# Velocity P-wave (km/s) = 6.36423 6.42871 6.39655
#
# Compressibility (1/GPa) = 0.02103935
#
# Stress axis : x y z
#
# Youngs Moduli (GPa) = 45.90207 45.90207 39.51229
#
# Poissons Ratio (x) = 0.22048 0.37767
# Poissons Ratio (y) = 0.22048 0.37767
# Poissons Ratio (z) = 0.43875 0.43875
#
# Static dielectric constant tensor:
#      x y z
#    x 3.396770 0.000000 0.000000 
#    y 0.000000 3.396770 0.000000 
#    z 0.000000 0.000000 3.612150 
# 
# 
# High freq. dielectric constant tensor:
#      x y z
#    x 1.698330 0.000000 0.000000 
#    y 0.000000 1.698330 0.000000 
#    z 0.000000 0.000000 1.697320 
# 
# From -- ./inp_files/6553.got.cif
#   From: 2010.03.12/outbox.cif.g09.slc.cpg/sg132_4_cif.got.tgz:6553.got - 2010.04.06 17:53:44.
