data_PCOD8316178
_publ_section_title
;
Structure prediction by ZEFSAII (Michael W. Deem and Ramdas Pophale) SiO2 
 PCOD8316178
Probable space group: P 42/M M C
;
_chemical_formula_sum "Si O2"
_cell_formula_units_Z 80
_cell_length_a 12.074324
_cell_length_b 12.074324
_cell_length_c 28.883461
_cell_angle_alpha 90.000000
_cell_angle_beta 90.000000
_cell_angle_gamma 90.000000
_cell_volume 4210.899562
_symmetry_space_group_name_H-M "P 42/M M C"
_symmetry_group_IT_number 131
_symmetry_cell_setting 'tetragonal'
loop_
_space_group_symop_operation_xyz
x,y,z
-x,-y,z
-y,x,1/2+z
y,-x,1/2+z
-x,y,-z
x,-y,-z
y,x,1/2-z
-y,-x,1/2-z
-x,-y,-z
x,y,-z
y,-x,1/2-z
-y,x,1/2-z
x,-y,z
-x,y,z
-y,-x,1/2+z
y,x,1/2+z
loop_
_atom_site_type_symbol
_atom_site_label
_atom_site_fract_x
_atom_site_fract_y
_atom_site_fract_z
Si Si1 0.125751 0.125751 0.750000
Si Si2 0.276886 0.000000 0.447263
Si Si3 0.246817 0.779958 0.926943
Si Si4 0.266433 0.222875 0.323281
Si Si5 0.625988 0.374013 0.250000
Si Si6 0.000000 0.376019 0.148568
Si Si7 0.631919 0.368799 0.500000
Si Si8 0.000000 0.621715 0.446976
O O1 0.154077 0.204183 0.706185
O O2 0.000000 0.147119 0.764329
O O3 0.208296 0.885056 0.439276
O O4 0.371209 0.000000 0.407862
O O5 0.324269 0.000000 0.500000
O O6 0.271667 0.757041 0.873475
O O7 0.306940 0.682054 0.955303
O O8 0.304325 0.895008 0.936160
O O9 0.345677 0.305028 0.295716
O O10 0.322722 0.105169 0.328149
O O11 0.500000 0.351325 0.236459
O O12 0.000000 0.500000 0.164478
O O13 0.500000 0.352229 0.500000
O O14 0.662710 0.500000 0.500000
O O15 0.000000 0.500000 0.421478
O O16 0.000000 0.593184 0.500000
#
# Coordination Sequence:
#
# PCOD8316178 Si02
#       8
#     8   8  16  16   8   8   8   8
#     4  10  20  38  64  86 114 154 196 244 302 370
#     4  10  20  38  56  87 122 163 199 241 295 357
#     4  11  23  40  61  92 127 158 203 247 307 365
#     4  10  22  39  60  89 121 153 197 247 302 361
#     4  10  22  40  62  86 114 154 198 246 304 356
#     4  10  20  35  57  87 120 158 198 241 296 352
#     4  11  24  42  64  89 122 168 217 257 293 352
#     4  11  22  39  64  87 121 167 203 250 299 351
#
# _framework density 18.998314000000001
#
# number of rings (size 3 to 8) (size 9 to 14) (size 15 to 20)
#    0.000    1.600    3.000    1.200    1.400    6.200 
#    0.000    3.000    0.000    0.000    0.000    0.000 
#    0.000    0.000    0.000    0.000    0.000    0.000 
#
# Total GULP energy -991508.442483 kJ/mol
# GULP energy per Si atom -12393.855531 kJ/mol
# Density = 1.895507 g / cm^3
# Si number density = 18.998314 Si / 1000 Ang^3
#
#
#
# Elastic Constant Matrix: (Units=GPa)
#
#
# Indices 1 2 3 4 5 6 
#
# 1 127.9842 62.2249 45.2965 0.0000 0.0000 0.0000
# 2 62.2249 127.9848 45.2963 0.0000 0.0000 0.0000
# 3 45.2965 45.2963 148.0256 0.0000 0.0000 0.0000
# 4 0.0000 0.0000 0.0000 22.3151 0.0000 0.0000
# 5 0.0000 0.0000 0.0000 0.0000 22.3163 0.0000
# 6 0.0000 0.0000 0.0000 0.0000 0.0000 30.9192
#
#
#
# Elastic Compliance Matrix: (Units=1/GPa)
#
#
# Indices 1 2 3 4 5 6 
#
# 1 0.010681 -0.004526 -0.001883 0.000000 0.000000 0.000000
# 2 -0.004526 0.010681 -0.001883 0.000000 0.000000 0.000000
# 3 -0.001883 -0.001883 0.007908 0.000000 0.000000 0.000000
# 4 0.000000 0.000000 0.000000 0.044813 0.000000 0.000000
# 5 0.000000 0.000000 0.000000 0.000000 0.044810 0.000000
# 6 0.000000 0.000000 0.000000 0.000000 0.000000 0.032342
#
#
# Mechanical properties :
#
#
# Convention : Reuss Voigt Hill
#
# Bulk Modulus (GPa) = 78.84071 78.84777 78.84424
# Shear Modulus (GPa) = 29.06162 31.85525 30.45843
#
# Velocity S-wave (km/s) = 3.91537 4.09924 4.00836
# Velocity P-wave (km/s) = 7.87585 7.99986 7.93810
#
# Compressibility (1/GPa) = 0.01268380
#
# Stress axis : x y z
#
# Youngs Moduli (GPa) = 93.62732 93.62793 126.45187
#
# Poissons Ratio (x) = 0.42379 0.23814
# Poissons Ratio (y) = 0.42378 0.23814
# Poissons Ratio (z) = 0.17632 0.17632
#
# Static dielectric constant tensor:
#      x y z
#    x 3.633040 0.000000 0.000000 
#    y 0.000000 3.633040 0.000000 
#    z 0.000000 0.000000 -0.366600 
# 
# 
# High freq. dielectric constant tensor:
#      x y z
#    x 1.742240 0.000000 0.000000 
#    y 0.000000 1.742240 0.000000 
#    z 0.000000 0.000000 1.746330 
# 
# From -- ./inp_files/13523.got.cif
#   From: 2010.03.12/outbox.cif.g09.slc.cpg/sg131_7_cif.got.tgz:13523.got - 2010.04.06 17:36:35.
