data_PCOD8316815
_publ_section_title
;
Structure prediction by ZEFSAII (Michael W. Deem and Ramdas Pophale) SiO2 
 PCOD8316815
Probable space group: P 42/M C M
;
_chemical_formula_sum "Si O2"
_cell_formula_units_Z 88
_cell_length_a 12.555128
_cell_length_b 12.555128
_cell_length_c 28.007993
_cell_angle_alpha 90.000000
_cell_angle_beta 90.000000
_cell_angle_gamma 90.000000
_cell_volume 4414.934641
_symmetry_space_group_name_H-M "P 42/M C M"
_symmetry_group_IT_number 132
_symmetry_cell_setting 'tetragonal'
loop_
_space_group_symop_operation_xyz
x,y,z
-y,x,1/2+z
-x,-y,z
y,-x,1/2+z
x,-y,1/2-z
-x,y,1/2-z
y,x,-z
-y,-x,-z
-x,-y,-z
y,-x,1/2-z
x,y,-z
-y,x,1/2-z
-x,y,1/2+z
x,-y,1/2+z
-y,-x,z
y,x,z
loop_
_atom_site_type_symbol
_atom_site_label
_atom_site_fract_x
_atom_site_fract_y
_atom_site_fract_z
Si Si1 0.763146 0.936512 0.203950
Si Si2 0.297398 0.014686 0.896517
Si Si3 0.234775 0.595380 0.285747
Si Si4 0.198730 0.624789 0.944239
Si Si5 0.763545 0.587958 0.894086
Si Si6 0.917085 0.917085 0.056123
O O1 0.851098 0.851098 0.187421
O O2 0.654498 0.877980 0.217819
O O3 0.805099 0.000000 0.250000
O O4 0.741117 0.010240 0.157803
O O5 0.355930 0.910616 0.916052
O O6 0.376854 0.114192 0.898532
O O7 0.199280 0.047322 0.928940
O O8 0.228868 0.500000 0.250000
O O9 0.327617 0.672384 0.267648
O O10 0.258694 0.555938 0.339332
O O11 0.278374 0.721627 0.933777
O O12 0.254140 0.515481 0.926853
O O13 0.172844 0.615057 0.000000
O O14 0.682576 0.682576 0.910000
O O15 0.921373 0.921373 0.000000
O O16 0.000000 0.000000 0.079046
#
# Coordination Sequence:
#
# PCOD8316815 Si02
#       6
#    16  16  16  16  16   8
#     4  10  22  39  58  88 125 163 203 250 307 375
#     4  11  21  43  64  90 128 165 213 263 314 376
#     4   9  20  38  60  87 121 157 202 254 304 363
#     4  11  26  44  63  93 131 168 211 263 320 381
#     4  10  22  43  67  93 125 164 214 265 317 381
#     4  11  22  36  62  94 125 165 209 259 318 370
#
# _framework density 19.932345000000002
#
# number of rings (size 3 to 8) (size 9 to 14) (size 15 to 20)
#    0.000    1.727    1.818    2.727    2.545    7.273 
#    0.000    2.727    0.000    0.000    0.000    0.000 
#    0.000    0.000    0.000    0.000    0.000    0.000 
#
# Total GULP energy -1091333.191908 kJ/mol
# GULP energy per Si atom -12401.513544 kJ/mol
# Density = 1.988698 g / cm^3
# Si number density = 19.932345 Si / 1000 Ang^3
#
#
#
# Elastic Constant Matrix: (Units=GPa)
#
#
# Indices 1 2 3 4 5 6 
#
# 1 100.3582 36.3009 51.5109 0.0000 0.0000 0.0000
# 2 36.3009 100.3582 51.5109 0.0000 0.0000 0.0000
# 3 51.5109 51.5109 111.6976 0.0000 0.0000 0.0000
# 4 0.0000 0.0000 0.0000 38.6214 0.0000 0.0000
# 5 0.0000 0.0000 0.0000 0.0000 38.6214 0.0000
# 6 0.0000 0.0000 0.0000 0.0000 0.0000 20.4580
#
#
#
# Elastic Compliance Matrix: (Units=1/GPa)
#
#
# Indices 1 2 3 4 5 6 
#
# 1 0.013414 -0.002197 -0.005173 0.000000 0.000000 0.000000
# 2 -0.002197 0.013414 -0.005173 0.000000 0.000000 0.000000
# 3 -0.005173 -0.005173 0.013724 0.000000 0.000000 0.000000
# 4 0.000000 0.000000 0.000000 0.025892 0.000000 0.000000
# 5 0.000000 0.000000 0.000000 0.000000 0.025892 0.000000
# 6 0.000000 0.000000 0.000000 0.000000 0.000000 0.048881
#
#
# Mechanical properties :
#
#
# Convention : Reuss Voigt Hill
#
# Bulk Modulus (GPa) = 64.65621 65.67327 65.16474
# Shear Modulus (GPa) = 29.16154 31.07955 30.12055
#
# Velocity S-wave (km/s) = 3.82910 3.95302 3.89155
# Velocity P-wave (km/s) = 7.21510 7.33858 7.27710
#
# Compressibility (1/GPa) = 0.01546642
#
# Stress axis : x y z
#
# Youngs Moduli (GPa) = 74.54842 74.54842 72.86556
#
# Poissons Ratio (x) = 0.16378 0.37693
# Poissons Ratio (y) = 0.16378 0.37693
# Poissons Ratio (z) = 0.38564 0.38564
#
# Static dielectric constant tensor:
#      x y z
#    x 3.418910 0.000000 0.000000 
#    y 0.000000 3.418910 0.000000 
#    z 0.000000 0.000000 3.681630 
# 
# 
# High freq. dielectric constant tensor:
#      x y z
#    x 1.777660 0.000000 0.000000 
#    y 0.000000 1.777660 0.000000 
#    z 0.000000 0.000000 1.785830 
# 
# From -- ./inp_files/10764.got.cif
#   From: 2010.03.12/outbox.cif.g09.slc.cpg/sg132_6_cif.got.tgz:10764.got - 2010.04.06 17:53:44.
