data_PCOD8316107
_publ_section_title
;
Structure prediction by ZEFSAII (Michael W. Deem and Ramdas Pophale) SiO2 
 PCOD8316107
Probable space group: P 42/M M C
;
_chemical_formula_sum "Si O2"
_cell_formula_units_Z 112
_cell_length_a 14.478202
_cell_length_b 14.478202
_cell_length_c 29.217026
_cell_angle_alpha 90.000000
_cell_angle_beta 90.000000
_cell_angle_gamma 90.000000
_cell_volume 6124.424290
_symmetry_space_group_name_H-M "P 42/M M C"
_symmetry_group_IT_number 131
_symmetry_cell_setting 'tetragonal'
loop_
_space_group_symop_operation_xyz
x,y,z
-x,-y,z
-y,x,1/2+z
y,-x,1/2+z
-x,y,-z
x,-y,-z
y,x,1/2-z
-y,-x,1/2-z
-x,-y,-z
x,y,-z
y,-x,1/2-z
-y,x,1/2-z
x,-y,z
-x,y,z
-y,-x,1/2+z
y,x,1/2+z
loop_
_atom_site_type_symbol
_atom_site_label
_atom_site_fract_x
_atom_site_fract_y
_atom_site_fract_z
Si Si1 0.705025 0.101806 0.552562
Si Si2 0.144400 0.098678 0.051829
Si Si3 0.637929 0.896198 0.948497
Si Si4 0.392770 0.750582 0.229105
Si Si5 0.260349 0.602429 0.375657
Si Si6 0.607871 0.230771 0.383631
Si Si7 0.103335 0.391501 0.801455
O O1 0.717714 0.128686 0.500000
O O2 0.807906 0.106512 0.576048
O O3 0.629524 0.171758 0.571542
O O4 0.664060 0.000000 0.559705
O O5 0.253247 0.105206 0.053199
O O6 0.113316 0.000000 0.075078
O O7 0.107624 0.096233 0.000000
O O8 0.601272 0.826171 0.910174
O O9 0.601519 0.000000 0.937671
O O10 0.605113 0.867263 0.000000
O O11 0.333336 0.666665 0.250000
O O12 0.500000 0.725042 0.238287
O O13 0.372309 0.770283 0.175961
O O14 0.366903 0.847148 0.253704
O O15 0.303968 0.500000 0.376275
O O16 0.340057 0.672758 0.389852
O O17 0.500000 0.252386 0.378988
O O18 0.646969 0.169985 0.341424
O O19 0.093026 0.500000 0.808384
O O20 0.000000 0.346915 0.803115
#
# Coordination Sequence:
#
# PCOD8316107 Si02
#       7
#    16  16  16  16  16  16  16
#     4  10  20  33  52  79 107 137 178 227 277 327
#     4   8  14  27  49  75 102 134 172 214 265 327
#     4   9  18  35  58  81 110 150 189 226 278 344
#     4  10  20  35  55  82 112 142 178 224 277 329
#     4  11  23  36  56  85 113 143 185 234 281 335
#     4  11  22  37  55  74 104 146 188 230 275 329
#     4   9  18  34  56  79 103 136 177 220 269 326
#
# _framework density 18.287434000000001
#
# number of rings (size 3 to 8) (size 9 to 14) (size 15 to 20)
#    0.000    2.286    2.857    1.286    0.000    3.000 
#    0.000    5.714    0.000    0.000    0.000    2.000 
#    0.000    1.429    0.000    0.000    0.000    0.000 
#
# Total GULP energy -1387687.244111 kJ/mol
# GULP energy per Si atom -12390.064680 kJ/mol
# Density = 1.824581 g / cm^3
# Si number density = 18.287434 Si / 1000 Ang^3
#
#
#
# Elastic Constant Matrix: (Units=GPa)
#
#
# Indices 1 2 3 4 5 6 
#
# 1 93.1679 40.5188 46.2797 0.0000 0.0000 0.0000
# 2 40.5188 93.1688 46.2798 0.0000 0.0000 0.0000
# 3 46.2797 46.2798 95.1574 0.0000 0.0000 0.0000
# 4 0.0000 0.0000 0.0000 22.1444 0.0000 0.0000
# 5 0.0000 0.0000 0.0000 0.0000 22.1442 0.0000
# 6 0.0000 0.0000 0.0000 0.0000 0.0000 9.5604
#
#
#
# Elastic Compliance Matrix: (Units=1/GPa)
#
#
# Indices 1 2 3 4 5 6 
#
# 1 0.015136 -0.003858 -0.005485 0.000000 0.000000 0.000000
# 2 -0.003858 0.015135 -0.005485 0.000000 0.000000 0.000000
# 3 -0.005485 -0.005485 0.015844 0.000000 0.000000 0.000000
# 4 0.000000 0.000000 0.000000 0.045158 0.000000 0.000000
# 5 0.000000 0.000000 0.000000 0.000000 0.045159 0.000000
# 6 0.000000 0.000000 0.000000 0.000000 0.000000 0.104598
#
#
# Mechanical properties :
#
#
# Convention : Reuss Voigt Hill
#
# Bulk Modulus (GPa) = 60.75399 60.85009 60.80204
# Shear Modulus (GPa) = 18.10467 20.66419 19.38443
#
# Velocity S-wave (km/s) = 3.14985 3.36514 3.25928
# Velocity P-wave (km/s) = 6.82075 6.96028 6.89086
#
# Compressibility (1/GPa) = 0.01645982
#
# Stress axis : x y z
#
# Youngs Moduli (GPa) = 66.06905 66.06987 63.11523
#
# Poissons Ratio (x) = 0.25489 0.34618
# Poissons Ratio (y) = 0.25489 0.34618
# Poissons Ratio (z) = 0.36238 0.36238
#
# Static dielectric constant tensor:
#      x y z
#    x 3.456430 0.000000 0.000000 
#    y 0.000000 3.456430 0.000000 
#    z 0.000000 0.000000 3.345520 
# 
# 
# High freq. dielectric constant tensor:
#      x y z
#    x 1.705470 0.000000 0.000000 
#    y 0.000000 1.705470 0.000000 
#    z 0.000000 0.000000 1.687540 
# 
# From -- ./inp_files/13858.got.cif
#   From: 2010.03.12/outbox.cif.g09.slc.cpg/sg131_7_cif.got.tgz:13858.got - 2010.04.06 17:36:35.
