data_PCOD8316542
_publ_section_title
;
Structure prediction by ZEFSAII (Michael W. Deem and Ramdas Pophale) SiO2 
 PCOD8316542
Probable space group: P 42/M C M
;
_chemical_formula_sum "Si O2"
_cell_formula_units_Z 112
_cell_length_a 19.868506
_cell_length_b 19.868506
_cell_length_c 16.356133
_cell_angle_alpha 90.000000
_cell_angle_beta 90.000000
_cell_angle_gamma 90.000000
_cell_volume 6456.706674
_symmetry_space_group_name_H-M "P 42/M C M"
_symmetry_group_IT_number 132
_symmetry_cell_setting 'tetragonal'
loop_
_space_group_symop_operation_xyz
x,y,z
-y,x,1/2+z
-x,-y,z
y,-x,1/2+z
x,-y,1/2-z
-x,y,1/2-z
y,x,-z
-y,-x,-z
-x,-y,-z
y,-x,1/2-z
x,y,-z
-y,x,1/2-z
-x,y,1/2+z
x,-y,1/2+z
-y,-x,z
y,x,z
loop_
_atom_site_type_symbol
_atom_site_label
_atom_site_fract_x
_atom_site_fract_y
_atom_site_fract_z
Si Si1 0.259744 0.842640 0.654975
Si Si2 0.357527 0.748294 0.741647
Si Si3 0.632602 0.931337 0.090812
Si Si4 0.395787 0.196520 0.407894
Si Si5 0.697026 0.932585 0.404593
Si Si6 0.832031 0.467480 0.333838
Si Si7 0.181209 0.927121 0.219569
O O1 0.212761 0.787240 0.609989
O O2 0.303550 0.806693 0.725547
O O3 0.304937 0.879245 0.587656
O O4 0.214758 0.896875 0.700169
O O5 0.325268 0.674733 0.721603
O O6 0.376398 0.749329 0.838213
O O7 0.421556 0.764891 0.682884
O O8 0.573610 0.898315 0.142592
O O9 0.656369 0.002212 0.128882
O O10 0.605419 0.942960 0.000000
O O11 0.381552 0.223849 0.500000
O O12 0.352111 0.130178 0.390938
O O13 0.475859 0.182618 0.401577
O O14 0.715601 0.941721 0.500000
O O15 0.766472 0.926633 0.355591
O O16 0.854886 0.500000 0.250000
O O17 0.116366 0.883635 0.192005
O O18 0.156952 0.000000 0.250000
#
# Coordination Sequence:
#
# PCOD8316542 Si02
#       7
#    16  16  16  16  16  16  16
#     4   9  17  30  49  71  92 122 164 216 264 301
#     4   9  17  31  49  71  98 129 171 210 242 287
#     4  10  19  32  49  69  98 132 171 211 250 310
#     4  10  19  31  48  72 105 136 164 202 251 304
#     4  10  21  34  50  74 101 131 168 211 258 313
#     4   9  19  33  48  71 102 139 170 203 250 295
#     4  11  21  35  55  74  98 129 171 222 272 325
#
# _framework density 17.346305000000001
#
# number of rings (size 3 to 8) (size 9 to 14) (size 15 to 20)
#    0.000    2.286    2.857    0.429    0.000    1.571 
#    0.000    5.714    0.000    1.714    0.000    1.000 
#    0.000   23.143    0.000   11.571    0.000    0.429 
#
# Total GULP energy -1387941.609978 kJ/mol
# GULP energy per Si atom -12392.335803 kJ/mol
# Density = 1.730682 g / cm^3
# Si number density = 17.346305 Si / 1000 Ang^3
#
#
#
# Elastic Constant Matrix: (Units=GPa)
#
#
# Indices 1 2 3 4 5 6 
#
# 1 88.7772 45.1140 25.4017 0.0000 0.0000 0.0000
# 2 45.1140 88.7772 25.4017 0.0000 0.0000 0.0000
# 3 25.4017 25.4017 51.8485 0.0000 0.0000 0.0000
# 4 0.0000 0.0000 0.0000 20.4060 0.0000 0.0000
# 5 0.0000 0.0000 0.0000 0.0000 20.4060 0.0000
# 6 0.0000 0.0000 0.0000 0.0000 0.0000 25.1966
#
#
#
# Elastic Compliance Matrix: (Units=1/GPa)
#
#
# Indices 1 2 3 4 5 6 
#
# 1 0.016038 -0.006864 -0.004495 0.000000 0.000000 0.000000
# 2 -0.006864 0.016038 -0.004495 0.000000 0.000000 0.000000
# 3 -0.004495 -0.004495 0.023691 0.000000 0.000000 0.000000
# 4 0.000000 0.000000 0.000000 0.049005 0.000000 0.000000
# 5 0.000000 0.000000 0.000000 0.000000 0.049005 0.000000
# 6 0.000000 0.000000 0.000000 0.000000 0.000000 0.039688
#
#
# Mechanical properties :
#
#
# Convention : Reuss Voigt Hill
#
# Bulk Modulus (GPa) = 41.56131 46.80420 44.18275
# Shear Modulus (GPa) = 21.44143 22.10074 21.77109
#
# Velocity S-wave (km/s) = 3.51961 3.57331 3.54656
# Velocity P-wave (km/s) = 6.36621 6.63819 6.50362
#
# Compressibility (1/GPa) = 0.02406084
#
# Stress axis : x y z
#
# Youngs Moduli (GPa) = 62.35048 62.35048 42.21007
#
# Poissons Ratio (x) = 0.42798 0.18972
# Poissons Ratio (y) = 0.42798 0.18972
# Poissons Ratio (z) = 0.28024 0.28024
#
# Static dielectric constant tensor:
#      x y z
#    x 3.310180 0.000000 0.000000 
#    y 0.000000 3.310180 0.000000 
#    z 0.000000 0.000000 3.105440 
# 
# 
# High freq. dielectric constant tensor:
#      x y z
#    x 1.657700 0.000000 0.000000 
#    y 0.000000 1.657700 0.000000 
#    z 0.000000 0.000000 1.663940 
# 
# From -- ./inp_files/6762.got.cif
#   From: 2010.03.12/outbox.cif.g09.slc.cpg/sg132_4_cif.got.tgz:6762.got - 2010.04.06 17:53:44.
