data_PCOD8316592
_publ_section_title
;
Structure prediction by ZEFSAII (Michael W. Deem and Ramdas Pophale) SiO2 
 PCOD8316592
Probable space group: P 42/M C M
;
_chemical_formula_sum "Si O2"
_cell_formula_units_Z 96
_cell_length_a 24.362521
_cell_length_b 24.362521
_cell_length_c 8.949831
_cell_angle_alpha 90.000000
_cell_angle_beta 90.000000
_cell_angle_gamma 90.000000
_cell_volume 5312.014937
_symmetry_space_group_name_H-M "P 42/M C M"
_symmetry_group_IT_number 132
_symmetry_cell_setting 'tetragonal'
loop_
_space_group_symop_operation_xyz
x,y,z
-y,x,1/2+z
-x,-y,z
y,-x,1/2+z
x,-y,1/2-z
-x,y,1/2-z
y,x,-z
-y,-x,-z
-x,-y,-z
y,-x,1/2-z
x,y,-z
-y,x,1/2-z
-x,y,1/2+z
x,-y,1/2+z
-y,-x,z
y,x,z
loop_
_atom_site_type_symbol
_atom_site_label
_atom_site_fract_x
_atom_site_fract_y
_atom_site_fract_z
Si Si1 0.265052 0.852830 0.324095
Si Si2 0.444322 0.784239 0.823538
Si Si3 0.058293 0.941708 0.178672
Si Si4 0.448184 0.908188 0.168684
Si Si5 0.054103 0.329878 0.327601
Si Si6 0.149441 0.850560 0.176608
Si Si7 0.336539 0.249793 0.829332
O O1 0.254577 0.857170 0.500000
O O2 0.309526 0.895642 0.268903
O O3 0.208273 0.866954 0.242553
O O4 0.289946 0.793951 0.279073
O O5 0.500000 0.760157 0.750000
O O6 0.435933 0.847064 0.768926
O O7 0.391039 0.750925 0.770051
O O8 0.448692 0.778066 0.000000
O O9 0.103904 0.896097 0.220805
O O10 0.000000 0.923440 0.250000
O O11 0.052119 0.947882 0.000000
O O12 0.500000 0.935935 0.250000
O O13 0.395622 0.946787 0.185733
O O14 0.466731 0.901760 0.000000
O O15 0.057956 0.310707 0.500000
O O16 0.000000 0.305808 0.250000
O O17 0.154208 0.845793 0.000000
O O18 0.309922 0.309922 0.811137
O O19 0.353287 0.237578 0.000000
#
# Coordination Sequence:
#
# PCOD8316592 Si02
#       7
#    16  16   8  16  16   8  16
#     4  11  22  38  58  82 110 145 184 226 277 332
#     4  10  19  33  53  80 110 147 187 230 280 329
#     4  10  22  41  66  92 114 140 172 216 272 333
#     4   9  19  33  51  73  99 133 180 230 280 330
#     4  11  23  39  54  75 104 141 184 231 283 334
#     4  11  24  40  61  88 118 148 180 220 269 329
#     4  10  20  35  55  82 113 146 186 229 278 332
#
# _framework density 18.072239
#
# number of rings (size 3 to 8) (size 9 to 14) (size 15 to 20)
#    0.000    1.750    2.500    2.250    0.000    5.333 
#    0.000    3.333    0.000    0.000    0.000    0.000 
#    0.000    0.333    0.000    3.500    0.000    1.500 
#
# Total GULP energy -1190372.715434 kJ/mol
# GULP energy per Si atom -12399.715786 kJ/mol
# Density = 1.803111 g / cm^3
# Si number density = 18.072239 Si / 1000 Ang^3
#
#
#
# Elastic Constant Matrix: (Units=GPa)
#
#
# Indices 1 2 3 4 5 6 
#
# 1 84.5067 30.3387 48.9562 0.0000 0.0000 0.0000
# 2 30.3387 84.5066 48.9558 0.0000 0.0000 0.0000
# 3 48.9562 48.9558 83.8755 0.0000 0.0000 0.0000
# 4 0.0000 0.0000 0.0000 30.1804 0.0000 0.0000
# 5 0.0000 0.0000 0.0000 0.0000 30.1805 0.0000
# 6 0.0000 0.0000 0.0000 0.0000 0.0000 17.5888
#
#
#
# Elastic Compliance Matrix: (Units=1/GPa)
#
#
# Indices 1 2 3 4 5 6 
#
# 1 0.017897 -0.000565 -0.010116 0.000000 0.000000 0.000000
# 2 -0.000565 0.017896 -0.010116 0.000000 0.000000 0.000000
# 3 -0.010116 -0.010116 0.023732 0.000000 0.000000 0.000000
# 4 0.000000 0.000000 0.000000 0.033134 0.000000 0.000000
# 5 0.000000 0.000000 0.000000 0.000000 0.033134 0.000000
# 6 0.000000 0.000000 0.000000 0.000000 0.000000 0.056854
#
#
# Mechanical properties :
#
#
# Convention : Reuss Voigt Hill
#
# Bulk Modulus (GPa) = 55.77042 56.59889 56.18465
# Shear Modulus (GPa) = 21.71853 23.89915 22.80884
#
# Velocity S-wave (km/s) = 3.47040 3.64046 3.55645
# Velocity P-wave (km/s) = 6.85456 7.00405 6.92971
#
# Compressibility (1/GPa) = 0.01793065
#
# Stress axis : x y z
#
# Youngs Moduli (GPa) = 55.87644 55.87688 42.13782
#
# Poissons Ratio (x) = 0.03154 0.42628
# Poissons Ratio (y) = 0.03154 0.42627
# Poissons Ratio (z) = 0.56527 0.56526
#
# Static dielectric constant tensor:
#      x y z
#    x 3.167900 0.000000 0.000000 
#    y 0.000000 3.167900 0.000000 
#    z 0.000000 0.000000 3.376300 
# 
# 
# High freq. dielectric constant tensor:
#      x y z
#    x 1.686890 0.000000 0.000000 
#    y 0.000000 1.686890 0.000000 
#    z 0.000000 0.000000 1.710260 
# 
# From -- ./inp_files/1854.got.cif
#   From: 2010.03.12/outbox.cif.g09.slc.cpg/sg132_1_cif.got.tgz:1854.got - 2010.04.06 17:53:44.
