data_PCOD8316005
_publ_section_title
;
Structure prediction by ZEFSAII (Michael W. Deem and Ramdas Pophale) SiO2 
 PCOD8316005
Probable space group: P 42/M M C
;
_chemical_formula_sum "Si O2"
_cell_formula_units_Z 96
_cell_length_a 15.691663
_cell_length_b 15.691663
_cell_length_c 19.139684
_cell_angle_alpha 90.000000
_cell_angle_beta 90.000000
_cell_angle_gamma 90.000000
_cell_volume 4712.731619
_symmetry_space_group_name_H-M "P 42/M M C"
_symmetry_group_IT_number 131
_symmetry_cell_setting 'tetragonal'
loop_
_space_group_symop_operation_xyz
x,y,z
-x,-y,z
-y,x,1/2+z
y,-x,1/2+z
-x,y,-z
x,-y,-z
y,x,1/2-z
-y,-x,1/2-z
-x,-y,-z
x,y,-z
y,-x,1/2-z
-y,x,1/2-z
x,-y,z
-x,y,z
-y,-x,1/2+z
y,x,1/2+z
loop_
_atom_site_type_symbol
_atom_site_label
_atom_site_fract_x
_atom_site_fract_y
_atom_site_fract_z
Si Si1 0.353032 0.740622 0.922823
Si Si2 0.399853 0.096139 0.160223
Si Si3 0.902849 0.908560 0.082742
Si Si4 0.645060 0.405539 0.176958
Si Si5 0.597764 0.155786 0.687759
Si Si6 0.730763 0.157198 0.422674
O O1 0.357301 0.835242 0.890843
O O2 0.394870 0.667003 0.874172
O O3 0.256156 0.712872 0.930901
O O4 0.396056 0.741030 0.000000
O O5 0.500000 0.107922 0.152199
O O6 0.373055 0.113243 0.239931
O O7 0.371716 0.000000 0.139090
O O8 0.854812 0.824976 0.111686
O O9 0.000000 0.901046 0.106654
O O10 0.865755 0.000000 0.111112
O O11 0.894525 0.909252 0.000000
O O12 0.595612 0.404389 0.250000
O O13 0.633239 0.500000 0.143396
O O14 0.743563 0.387518 0.194280
O O15 0.500000 0.132977 0.669619
O O16 0.658390 0.116957 0.627254
O O17 0.725040 0.113980 0.500000
#
# Coordination Sequence:
#
# PCOD8316005 Si02
#       6
#    16  16  16  16  16  16
#     4  10  21  36  55  82 114 145 182 235 289 335
#     4  10  21  37  56  77 103 142 191 234 278 336
#     4   8  14  26  44  66  97 139 182 222 267 322
#     4  10  19  34  58  83 111 150 190 229 279 344
#     4   9  18  33  53  75 105 145 185 231 285 341
#     4   9  18  30  49  79 111 142 179 227 280 339
#
# _framework density 20.370350999999999
#
# number of rings (size 3 to 8) (size 9 to 14) (size 15 to 20)
#    0.000    2.667    1.667    0.500    0.000    2.833 
#    0.000    5.833    0.000    0.000    0.000    7.000 
#    0.000    4.000    0.000    0.167    0.000    0.000 
#
# Total GULP energy -1189636.336381 kJ/mol
# GULP energy per Si atom -12392.045171 kJ/mol
# Density = 2.032399 g / cm^3
# Si number density = 20.370351 Si / 1000 Ang^3
#
#
#
# Elastic Constant Matrix: (Units=GPa)
#
#
# Indices 1 2 3 4 5 6 
#
# 1 87.4077 18.0184 46.3178 0.0000 0.0000 0.0000
# 2 18.0184 87.4069 46.3171 0.0000 0.0000 0.0000
# 3 46.3178 46.3171 121.4815 0.0000 0.0000 0.0000
# 4 0.0000 0.0000 0.0000 11.2923 0.0000 0.0000
# 5 0.0000 0.0000 0.0000 0.0000 11.2923 0.0000
# 6 0.0000 0.0000 0.0000 0.0000 0.0000 20.5276
#
#
#
# Elastic Compliance Matrix: (Units=1/GPa)
#
#
# Indices 1 2 3 4 5 6 
#
# 1 0.014338 -0.000074 -0.005438 0.000000 0.000000 0.000000
# 2 -0.000074 0.014338 -0.005438 0.000000 0.000000 0.000000
# 3 -0.005438 -0.005438 0.012379 0.000000 0.000000 0.000000
# 4 0.000000 0.000000 0.000000 0.088556 0.000000 0.000000
# 5 0.000000 0.000000 0.000000 0.000000 0.088556 0.000000
# 6 0.000000 0.000000 0.000000 0.000000 0.000000 0.048715
#
#
# Mechanical properties :
#
#
# Convention : Reuss Voigt Hill
#
# Bulk Modulus (GPa) = 52.21136 57.51142 54.86139
# Shear Modulus (GPa) = 16.93959 20.99863 18.96911
#
# Velocity S-wave (km/s) = 2.88684 3.21416 3.05489
# Velocity P-wave (km/s) = 6.06618 6.48603 6.27961
#
# Compressibility (1/GPa) = 0.01915292
#
# Stress axis : x y z
#
# Youngs Moduli (GPa) = 69.74602 69.74582 80.78347
#
# Poissons Ratio (x) = 0.00514 0.43934
# Poissons Ratio (y) = 0.00514 0.43933
# Poissons Ratio (z) = 0.37931 0.37931
#
# Static dielectric constant tensor:
#      x y z
#    x 3.567230 0.000000 0.000000 
#    y 0.000000 3.567230 0.000000 
#    z 0.000000 0.000000 3.719090 
# 
# 
# High freq. dielectric constant tensor:
#      x y z
#    x 1.788880 0.000000 0.000000 
#    y 0.000000 1.788880 0.000000 
#    z 0.000000 0.000000 1.770340 
# 
# From -- ./inp_files/9766.got.cif
#   From: 2010.03.12/outbox.cif.g09.slc.cpg/sg131_5_cif.got.tgz:9766.got - 2010.04.06 17:36:35.
