data_PCOD8316752
_publ_section_title
;
Structure prediction by ZEFSAII (Michael W. Deem and Ramdas Pophale) SiO2 
 PCOD8316752
Probable space group: P 42/M C M
;
_chemical_formula_sum "Si O2"
_cell_formula_units_Z 58
_cell_length_a 17.198365
_cell_length_b 17.198365
_cell_length_c 10.058047
_cell_angle_alpha 90.000000
_cell_angle_beta 90.000000
_cell_angle_gamma 90.000000
_cell_volume 2975.006947
_symmetry_space_group_name_H-M "P 42/M C M"
_symmetry_group_IT_number 132
_symmetry_cell_setting 'tetragonal'
loop_
_space_group_symop_operation_xyz
x,y,z
-y,x,1/2+z
-x,-y,z
y,-x,1/2+z
x,-y,1/2-z
-x,y,1/2-z
y,x,-z
-y,-x,-z
-x,-y,-z
y,-x,1/2-z
x,y,-z
-y,x,1/2-z
-x,y,1/2+z
x,-y,1/2+z
-y,-x,z
y,x,z
loop_
_atom_site_type_symbol
_atom_site_label
_atom_site_fract_x
_atom_site_fract_y
_atom_site_fract_z
Si Si1 0.733952 0.607484 0.000000
Si Si2 0.586889 0.190422 0.228526
Si Si3 0.310169 0.563861 0.000000
Si Si4 0.122048 0.877953 0.151954
Si Si5 0.000000 0.000000 0.750000
Si Si6 0.288244 0.932634 0.846845
O O1 0.788569 0.617686 0.126860
O O2 0.678077 0.678077 0.000000
O O3 0.682102 0.529193 0.000000
O O4 0.500000 0.155670 0.250000
O O5 0.587240 0.265541 0.134006
O O6 0.644765 0.131220 0.158206
O O7 0.394321 0.605680 0.000000
O O8 0.096351 0.794969 0.212780
O O9 0.138867 0.861134 0.000000
O O10 0.055817 0.944184 0.164214
O O11 0.317427 0.000000 0.750000
O O12 0.279548 0.960991 0.000000
#
# Coordination Sequence:
#
# PCOD8316752 Si02
#       6
#     8  16   8   8   2  16
#     4  10  22  37  57  91 127 157 205 255 309 357
#     4  10  22  40  60  88 123 162 203 252 307 362
#     4  10  20  37  63  87 117 167 207 247 307 363
#     4  10  23  39  63  90 121 161 195 245 307 368
#     4  12  18  44  60  90 136 148 190 256 322 356
#     4  11  24  42  63  92 119 157 208 247 299 369
#
# _framework density 19.495754000000002
#
# number of rings (size 3 to 8) (size 9 to 14) (size 15 to 20)
#    0.000    1.655    2.759    1.034    5.793    0.828 
#    0.000    2.069    0.000    4.966    0.000    0.000 
#    0.000    0.000    0.000    0.000    0.000    0.000 
#
# Total GULP energy -719052.943954 kJ/mol
# GULP energy per Si atom -12397.464551 kJ/mol
# Density = 1.945138 g / cm^3
# Si number density = 19.495754 Si / 1000 Ang^3
#
#
#
# Elastic Constant Matrix: (Units=GPa)
#
#
# Indices 1 2 3 4 5 6 
#
# 1 77.1905 32.7742 13.2825 0.0000 0.0000 0.0000
# 2 32.7742 77.1922 13.2826 0.0000 0.0000 0.0000
# 3 13.2825 13.2826 115.6066 0.0000 0.0000 0.0000
# 4 0.0000 0.0000 0.0000 25.4078 0.0000 0.0000
# 5 0.0000 0.0000 0.0000 0.0000 25.4074 0.0000
# 6 0.0000 0.0000 0.0000 0.0000 0.0000 30.5558
#
#
#
# Elastic Compliance Matrix: (Units=1/GPa)
#
#
# Indices 1 2 3 4 5 6 
#
# 1 0.015934 -0.006580 -0.001075 0.000000 0.000000 0.000000
# 2 -0.006580 0.015933 -0.001075 0.000000 0.000000 0.000000
# 3 -0.001075 -0.001075 0.008897 0.000000 0.000000 0.000000
# 4 0.000000 0.000000 0.000000 0.039358 0.000000 0.000000
# 5 0.000000 0.000000 0.000000 0.000000 0.039359 0.000000
# 6 0.000000 0.000000 0.000000 0.000000 0.000000 0.032727
#
#
# Mechanical properties :
#
#
# Convention : Reuss Voigt Hill
#
# Bulk Modulus (GPa) = 42.90908 43.18535 43.04721
# Shear Modulus (GPa) = 28.17929 30.31753 29.24841
#
# Velocity S-wave (km/s) = 3.80597 3.94773 3.87750
# Velocity P-wave (km/s) = 6.43204 6.55581 6.49422
#
# Compressibility (1/GPa) = 0.02330509
#
# Stress axis : x y z
#
# Youngs Moduli (GPa) = 62.75974 62.76116 112.39789
#
# Poissons Ratio (x) = 0.41298 0.12079
# Poissons Ratio (y) = 0.41297 0.12079
# Poissons Ratio (z) = 0.06745 0.06745
#
# Static dielectric constant tensor:
#      x y z
#    x 3.513780 0.000000 0.000000 
#    y 0.000000 3.513770 0.000000 
#    z 0.000000 0.000000 3.594950 
# 
# 
# High freq. dielectric constant tensor:
#      x y z
#    x 1.753790 0.000000 0.000000 
#    y 0.000000 1.753790 0.000000 
#    z 0.000000 0.000000 1.769760 
# 
# From -- ./inp_files/1053.got.cif
#   From: 2010.03.12/outbox.cif.g09.slc.cpg/sg132_1_cif.got.tgz:1053.got - 2010.04.06 17:53:44.
