data_PCOD8316868
_publ_section_title
;
Structure prediction by ZEFSAII (Michael W. Deem and Ramdas Pophale) SiO2 
 PCOD8316868
Probable space group: P 42/M C M
;
_chemical_formula_sum "Si O2"
_cell_formula_units_Z 112
_cell_length_a 23.243684
_cell_length_b 23.243684
_cell_length_c 18.545819
_cell_angle_alpha 90.000000
_cell_angle_beta 90.000000
_cell_angle_gamma 90.000000
_cell_volume 10019.728227
_symmetry_space_group_name_H-M "P 42/M C M"
_symmetry_group_IT_number 132
_symmetry_cell_setting 'tetragonal'
loop_
_space_group_symop_operation_xyz
x,y,z
-y,x,1/2+z
-x,-y,z
y,-x,1/2+z
x,-y,1/2-z
-x,y,1/2-z
y,x,-z
-y,-x,-z
-x,-y,-z
y,-x,1/2-z
x,y,-z
-y,x,1/2-z
-x,y,1/2+z
x,-y,1/2+z
-y,-x,z
y,x,z
loop_
_atom_site_type_symbol
_atom_site_label
_atom_site_fract_x
_atom_site_fract_y
_atom_site_fract_z
Si Si1 0.110121 0.568637 0.081220
Si Si2 0.568316 0.782312 0.330220
Si Si3 0.564233 0.655247 0.163989
Si Si4 0.568637 0.889879 0.918780
Si Si5 0.568316 0.217688 0.330221
Si Si6 0.655247 0.435767 0.836010
Si Si7 0.431453 0.000000 0.331589
O O1 0.168821 0.592852 0.116659
O O2 0.110262 0.500000 0.080889
O O3 0.056228 0.591895 0.127134
O O4 0.105531 0.592525 0.000000
O O5 0.500000 0.786434 0.325653
O O6 0.593908 0.792309 0.250000
O O7 0.585073 0.718969 0.360140
O O8 0.607994 0.607994 0.131776
O O9 0.585074 0.718969 0.139859
O O10 0.563321 0.653166 0.249999
O O11 0.500000 0.642005 0.134448
O O12 0.592852 0.831179 0.883342
O O13 0.591895 0.943772 0.872866
O O14 0.592525 0.894469 0.000000
O O15 0.607995 0.392006 0.868223
O O16 0.500000 0.000000 0.330913
O O17 0.407558 0.000000 0.250000
#
# Coordination Sequence:
#
# PCOD8316868 Si02
#       7
#    16  16  16  16  16  16  16
#     4   9  15  21  29  41  56  72  90 110 128 147
#     4   8  13  21  31  41  54  72  91 109 132 164
#     4   8  13  20  30  44  59  73  90 114 145 181
#     4   9  15  21  29  41  56  72  90 110 128 147
#     4   8  13  21  31  41  54  72  91 109 132 164
#     4   8  13  20  30  44  59  73  90 114 145 181
#     4   9  15  21  29  41  57  75  91 105 123 147
#
# _framework density 11.177948000000001
#
# number of rings (size 3 to 8) (size 9 to 14) (size 15 to 20)
#    0.000    3.571    0.000    3.000    0.000    5.429 
#    0.000    1.429    0.000    0.857    0.000    0.000 
#    0.000    0.000    0.000   11.143    0.000   11.429 
#
# Total GULP energy -1387858.793747 kJ/mol
# GULP energy per Si atom -12391.596373 kJ/mol
# Density = 1.115251 g / cm^3
# Si number density = 11.177948 Si / 1000 Ang^3
#
#
#
# Elastic Constant Matrix: (Units=GPa)
#
#
# Indices 1 2 3 4 5 6 
#
# 1 61.4229 31.9999 30.0140 0.0000 0.0000 0.0000
# 2 31.9999 61.4229 30.0140 0.0000 0.0000 0.0000
# 3 30.0140 30.0140 68.0948 0.0000 0.0000 0.0000
# 4 0.0000 0.0000 0.0000 5.5171 0.0000 0.0000
# 5 0.0000 0.0000 0.0000 0.0000 5.5171 0.0000
# 6 0.0000 0.0000 0.0000 0.0000 0.0000 0.4027
#
#
#
# Elastic Compliance Matrix: (Units=1/GPa)
#
#
# Indices 1 2 3 4 5 6 
#
# 1 0.024460 -0.009527 -0.006582 0.000000 0.000000 0.000000
# 2 -0.009527 0.024460 -0.006582 0.000000 0.000000 0.000000
# 3 -0.006582 -0.006582 0.020488 0.000000 0.000000 0.000000
# 4 0.000000 0.000000 0.000000 0.181256 0.000000 0.000000
# 5 0.000000 0.000000 0.000000 0.000000 0.181256 0.000000
# 6 0.000000 0.000000 0.000000 0.000000 0.000000 2.483530
#
#
# Mechanical properties :
#
#
# Convention : Reuss Voigt Hill
#
# Bulk Modulus (GPa) = 41.62171 41.66625 41.64398
# Shear Modulus (GPa) = 1.68416 8.88154 5.28285
#
# Velocity S-wave (km/s) = 1.22880 2.82185 2.17633
# Velocity P-wave (km/s) = 6.27134 6.92629 6.60693
#
# Compressibility (1/GPa) = 0.02402592
#
# Stress axis : x y z
#
# Youngs Moduli (GPa) = 40.88276 40.88276 48.80963
#
# Poissons Ratio (x) = 0.38948 0.32127
# Poissons Ratio (y) = 0.38948 0.32127
# Poissons Ratio (z) = 0.26910 0.26910
#
# Static dielectric constant tensor:
#      x y z
#    x 2.293250 0.000000 0.000000 
#    y 0.000000 2.293250 0.000000 
#    z 0.000000 0.000000 2.397980 
# 
# 
# High freq. dielectric constant tensor:
#      x y z
#    x 1.385190 0.000000 0.000000 
#    y 0.000000 1.385190 0.000000 
#    z 0.000000 0.000000 1.415710 
# 
# From -- ./inp_files/8251.got.cif
#   From: 2010.03.12/outbox.cif.g09.slc.cpg/sg132_5_cif.got.tgz:8251.got - 2010.04.06 17:53:44.
