data_PCOD8316449
_publ_section_title
;
Structure prediction by ZEFSAII (Michael W. Deem and Ramdas Pophale) SiO2 
 PCOD8316449
Probable space group: P 42/M C M
;
_chemical_formula_sum "Si O2"
_cell_formula_units_Z 88
_cell_length_a 19.768351
_cell_length_b 19.768351
_cell_length_c 14.665553
_cell_angle_alpha 90.000000
_cell_angle_beta 90.000000
_cell_angle_gamma 90.000000
_cell_volume 5731.117745
_symmetry_space_group_name_H-M "P 42/M C M"
_symmetry_group_IT_number 132
_symmetry_cell_setting 'tetragonal'
loop_
_space_group_symop_operation_xyz
x,y,z
-y,x,1/2+z
-x,-y,z
y,-x,1/2+z
x,-y,1/2-z
-x,y,1/2-z
y,x,-z
-y,-x,-z
-x,-y,-z
y,-x,1/2-z
x,y,-z
-y,x,1/2-z
-x,y,1/2+z
x,-y,1/2+z
-y,-x,z
y,x,z
loop_
_atom_site_type_symbol
_atom_site_label
_atom_site_fract_x
_atom_site_fract_y
_atom_site_fract_z
Si Si1 0.841329 0.271681 0.603496
Si Si2 0.246497 0.358088 0.779874
Si Si3 0.551538 0.342193 0.605447
Si Si4 0.706348 0.593734 0.601074
Si Si5 0.054666 0.167251 0.826453
Si Si6 0.108603 0.004047 0.500000
O O1 0.860713 0.295016 0.500000
O O2 0.778333 0.221668 0.594868
O O3 0.822542 0.335478 0.668901
O O4 0.903018 0.234497 0.653294
O O5 0.292350 0.292350 0.768796
O O6 0.281256 0.413955 0.841772
O O7 0.236296 0.390946 0.678263
O O8 0.565596 0.328619 0.500000
O O9 0.585207 0.414794 0.633764
O O10 0.471908 0.338892 0.627461
O O11 0.739871 0.585217 0.500000
O O12 0.655263 0.655263 0.599565
O O13 0.103786 0.103786 0.802602
O O14 0.008033 0.153922 0.912825
O O15 0.000000 0.182018 0.750000
O O16 0.047046 0.952955 0.500000
O O17 0.080693 0.080693 0.500000
#
# Coordination Sequence:
#
# PCOD8316449 Si02
#       6
#    16  16  16  16  16   8
#     4   9  16  28  45  62  80 106 142 183 219 247
#     4   9  16  26  41  57  76 106 144 183 220 253
#     4   9  16  25  38  59  84 109 143 184 220 258
#     4   9  17  27  38  54  81 117 149 177 216 267
#     4  10  18  28  43  64  90 118 146 173 203 242
#     4   9  16  26  40  60  88 120 148 169 191 229
#
# _framework density 15.35477
#
# number of rings (size 3 to 8) (size 9 to 14) (size 15 to 20)
#    0.000    2.818    0.909    1.636    0.000    3.455 
#    0.000    1.818    2.000    3.273    0.000    0.000 
#    0.000    2.909    0.000   10.909    0.000    1.091 
#
# Total GULP energy -1090181.081433 kJ/mol
# GULP energy per Si atom -12388.421380 kJ/mol
# Density = 1.531982 g / cm^3
# Si number density = 15.354770 Si / 1000 Ang^3
#
#
#
# Elastic Constant Matrix: (Units=GPa)
#
#
# Indices 1 2 3 4 5 6 
#
# 1 38.1614 25.5954 45.0511 0.0000 0.0000 0.0000
# 2 25.5954 38.1614 45.0511 0.0000 0.0000 0.0000
# 3 45.0511 45.0511 115.7325 0.0000 0.0000 0.0000
# 4 0.0000 0.0000 0.0000 26.0656 0.0000 0.0000
# 5 0.0000 0.0000 0.0000 0.0000 26.0649 0.0000
# 6 0.0000 0.0000 0.0000 0.0000 0.0000 17.6337
#
#
#
# Elastic Compliance Matrix: (Units=1/GPa)
#
#
# Indices 1 2 3 4 5 6 
#
# 1 0.057222 -0.022358 -0.013571 0.000000 0.000000 0.000000
# 2 -0.022358 0.057222 -0.013572 0.000000 0.000000 0.000000
# 3 -0.013571 -0.013572 0.019207 0.000000 0.000000 0.000000
# 4 0.000000 0.000000 0.000000 0.038365 0.000000 0.000000
# 5 0.000000 0.000000 0.000000 0.000000 0.038366 0.000000
# 6 0.000000 0.000000 0.000000 0.000000 0.000000 0.056710
#
#
# Mechanical properties :
#
#
# Convention : Reuss Voigt Hill
#
# Bulk Modulus (GPa) = 28.86112 47.05003 37.95558
# Shear Modulus (GPa) = 13.24006 19.04334 16.14170
#
# Velocity S-wave (km/s) = 2.93964 3.52550 3.24582
# Velocity P-wave (km/s) = 5.50990 6.87610 6.23056
#
# Compressibility (1/GPa) = 0.03464869
#
# Stress axis : x y z
#
# Youngs Moduli (GPa) = 17.47585 17.47582 52.06559
#
# Poissons Ratio (x) = 0.39072 0.70661
# Poissons Ratio (y) = 0.39072 0.70661
# Poissons Ratio (z) = 0.23717 0.23717
#
# Static dielectric constant tensor:
#      x y z
#    x 2.776590 0.000000 0.000000 
#    y 0.000000 2.776590 0.000000 
#    z 0.000000 0.000000 3.497280 
# 
# 
# High freq. dielectric constant tensor:
#      x y z
#    x 1.548130 0.000000 0.000000 
#    y 0.000000 1.548130 0.000000 
#    z 0.000000 0.000000 1.610420 
# 
# From -- ./inp_files/4962.got.cif
#   From: 2010.03.12/outbox.cif.g09.slc.cpg/sg132_3_cif.got.tgz:4962.got - 2010.04.06 17:53:44.
