data_PCOD8316980
_publ_section_title
;
Structure prediction by ZEFSAII (Michael W. Deem and Ramdas Pophale) SiO2 
 PCOD8316980
Probable space group: P 42/N B C
;
_chemical_formula_sum "Si O2"
_cell_formula_units_Z 92
_cell_length_a 24.965571
_cell_length_b 24.965571
_cell_length_c 8.510785
_cell_angle_alpha 90.000000
_cell_angle_beta 90.000000
_cell_angle_gamma 90.000000
_cell_volume 5304.599822
_symmetry_space_group_name_H-M "P 42/N B C"
_symmetry_group_IT_number 133
_space_group.IT_coordinate_system_code '2'
_symmetry_cell_setting 'tetragonal'
loop_
_space_group_symop_operation_xyz
x,y,z
1/2-y,x,1/2+z
1/2-x,1/2-y,z
y,1/2-x,1/2+z
x,1/2-y,-z
1/2-x,y,-z
y,x,1/2-z
1/2-y,1/2-x,1/2-z
-x,-y,-z
1/2+y,-x,1/2-z
1/2+x,1/2+y,-z
-y,1/2+x,1/2-z
-x,1/2+y,z
1/2+x,-y,z
-y,-x,1/2+z
1/2+y,1/2+x,1/2+z
loop_
_atom_site_type_symbol
_atom_site_label
_atom_site_fract_x
_atom_site_fract_y
_atom_site_fract_z
Si Si1 0.854160 0.375223 0.099724
Si Si2 0.461317 0.689475 0.813002
Si Si3 0.250000 0.663008 0.000000
Si Si4 0.250000 0.750000 0.750000
Si Si5 0.411593 0.008853 0.808450
Si Si6 0.947786 0.310491 0.170629
Si Si7 0.957556 0.409879 0.385111
O O1 0.836303 0.403874 0.262915
O O2 0.883193 0.319463 0.147887
O O3 0.803655 0.371616 0.981050
O O4 0.898220 0.409949 0.008961
O O5 0.506093 0.652663 0.726517
O O6 0.460251 0.751813 0.755791
O O7 0.473294 0.686694 0.997380
O O8 0.263185 0.698006 0.150911
O O9 0.443551 0.961172 0.718887
O O10 0.434399 0.065602 0.750000
O O11 0.421572 0.007195 0.997381
O O12 0.971411 0.357871 0.278809
#
# Coordination Sequence:
#
# PCOD8316980 Si02
#       7
#    16  16   8   4  16  16  16
#     4  11  21  34  50  65  93 124 170 216 255 307
#     4  10  22  34  51  74  96 132 171 208 266 305
#     4  11  26  36  46  60  88 126 168 216 268 293
#     4  10  28  38  36  58  84 114 180 202 260 306
#     4  11  21  36  54  75 100 126 169 218 258 314
#     4  11  20  34  54  70  99 129 165 221 253 309
#     4  11  20  35  52  77  94 125 172 210 267 304
#
# _framework density 17.343437999999999
#
# number of rings (size 3 to 8) (size 9 to 14) (size 15 to 20)
#    0.000    1.217    5.217    1.565    7.304    3.478 
#    0.000    0.000    0.000    0.000    0.000    0.000 
#    0.000    0.000    0.000    0.000    0.000   56.522 
#
# Total GULP energy -1139971.684788 kJ/mol
# GULP energy per Si atom -12390.996574 kJ/mol
# Density = 1.730396 g / cm^3
# Si number density = 17.343438 Si / 1000 Ang^3
#
#
#
# Elastic Constant Matrix: (Units=GPa)
#
#
# Indices 1 2 3 4 5 6 
#
# 1 56.0206 31.6637 10.7895 0.0000 0.0000 0.0000
# 2 31.6637 56.0161 10.7879 0.0000 0.0000 0.0000
# 3 10.7895 10.7879 74.3044 0.0000 0.0000 0.0000
# 4 0.0000 0.0000 0.0000 16.4329 0.0000 0.0000
# 5 0.0000 0.0000 0.0000 0.0000 16.4332 0.0000
# 6 0.0000 0.0000 0.0000 0.0000 0.0000 23.5277
#
#
#
# Elastic Compliance Matrix: (Units=1/GPa)
#
#
# Indices 1 2 3 4 5 6 
#
# 1 0.026443 -0.014616 -0.001718 0.000000 0.000000 0.000000
# 2 -0.014616 0.026445 -0.001717 0.000000 0.000000 0.000000
# 3 -0.001718 -0.001717 0.013957 0.000000 0.000000 0.000000
# 4 0.000000 0.000000 0.000000 0.060853 0.000000 0.000000
# 5 0.000000 0.000000 0.000000 0.000000 0.060852 0.000000
# 6 0.000000 0.000000 0.000000 0.000000 0.000000 0.042503
#
#
# Mechanical properties :
#
#
# Convention : Reuss Voigt Hill
#
# Bulk Modulus (GPa) = 32.52820 32.53591 32.53206
# Shear Modulus (GPa) = 18.02436 20.15209 19.08823
#
# Velocity S-wave (km/s) = 3.22725 3.41243 3.32113
# Velocity P-wave (km/s) = 5.71690 5.85890 5.78834
#
# Compressibility (1/GPa) = 0.03074256
#
# Stress axis : x y z
#
# Youngs Moduli (GPa) = 37.81761 37.81484 71.64944
#
# Poissons Ratio (x) = 0.55271 0.12306
# Poissons Ratio (y) = 0.55275 0.12302
# Poissons Ratio (z) = 0.06496 0.06493
#
# Static dielectric constant tensor:
#      x y z
#    x 3.103320 0.000000 0.000000 
#    y 0.000000 3.103330 0.000000 
#    z 0.000000 0.000000 3.554910 
# 
# 
# High freq. dielectric constant tensor:
#      x y z
#    x 1.625770 0.000000 0.000000 
#    y 0.000000 1.625770 0.000000 
#    z 0.000000 0.000000 1.700170 
# 
# From -- ./inp_files/2042.got.cif
#   From: 2010.03.12/outbox.cif.g09.slc.cpg/sg133_2_cif.got.tgz:2042.got - 2010.04.06 18:08:06.
