data_PCOD8316697
_publ_section_title
;
Structure prediction by ZEFSAII (Michael W. Deem and Ramdas Pophale) SiO2 
 PCOD8316697
Probable space group: P 42/M C M
;
_chemical_formula_sum "Si O2"
_cell_formula_units_Z 88
_cell_length_a 12.264526
_cell_length_b 12.264526
_cell_length_c 32.756938
_cell_angle_alpha 90.000000
_cell_angle_beta 90.000000
_cell_angle_gamma 90.000000
_cell_volume 4927.252689
_symmetry_space_group_name_H-M "P 42/M C M"
_symmetry_group_IT_number 132
_symmetry_cell_setting 'tetragonal'
loop_
_space_group_symop_operation_xyz
x,y,z
-y,x,1/2+z
-x,-y,z
y,-x,1/2+z
x,-y,1/2-z
-x,y,1/2-z
y,x,-z
-y,-x,-z
-x,-y,-z
y,-x,1/2-z
x,y,-z
-y,x,1/2-z
-x,y,1/2+z
x,-y,1/2+z
-y,-x,z
y,x,z
loop_
_atom_site_type_symbol
_atom_site_label
_atom_site_fract_x
_atom_site_fract_y
_atom_site_fract_z
Si Si1 0.509626 0.125709 0.317988
Si Si2 0.808147 0.368656 0.454436
Si Si3 0.789610 0.618085 0.544978
Si Si4 0.313074 0.500000 0.250000
Si Si5 0.130045 0.696601 0.873642
Si Si6 0.892235 0.714527 0.127181
O O1 0.498414 0.227205 0.287225
O O2 0.417491 0.141997 0.351435
O O3 0.623351 0.143208 0.340690
O O4 0.500000 0.000000 0.299683
O O5 0.859996 0.354381 0.500000
O O6 0.695620 0.304381 0.450906
O O7 0.777007 0.491972 0.445171
O O8 0.890303 0.327676 0.419622
O O9 0.841400 0.637114 0.500000
O O10 0.668469 0.668469 0.547412
O O11 0.866308 0.676660 0.577793
O O12 0.391649 0.608352 0.250081
O O13 0.224096 0.775905 0.857608
O O14 0.014961 0.752449 0.863686
O O15 0.817935 0.817935 0.134644
#
# Coordination Sequence:
#
# PCOD8316697 Si02
#       6
#    16  16  16   8  16  16
#     4  10  20  37  59  81 104 134 172 212 249 296
#     4   9  17  29  46  70 101 137 177 218 257 300
#     4   9  17  29  46  70 101 137 177 218 257 300
#     4  11  23  38  58  84 113 139 162 196 250 315
#     4  10  20  34  52  75 104 137 174 215 257 301
#     4  10  20  34  52  75 104 137 174 215 257 301
#
# _framework density 17.859852
#
# number of rings (size 3 to 8) (size 9 to 14) (size 15 to 20)
#    0.000    2.273    1.818    1.364    0.000    1.455 
#    0.000    3.636    0.000    0.000    0.000    5.091 
#    0.000   13.091    0.000    0.000    0.000    0.000 
#
# Total GULP energy -1090284.642794 kJ/mol
# GULP energy per Si atom -12389.598214 kJ/mol
# Density = 1.781920 g / cm^3
# Si number density = 17.859852 Si / 1000 Ang^3
#
#
#
# Elastic Constant Matrix: (Units=GPa)
#
#
# Indices 1 2 3 4 5 6 
#
# 1 73.3479 18.8931 20.0583 0.0000 0.0000 0.0000
# 2 18.8931 73.3479 20.0583 0.0000 0.0000 0.0000
# 3 20.0583 20.0583 65.6150 0.0000 0.0000 0.0000
# 4 0.0000 0.0000 0.0000 23.6395 0.0000 0.0000
# 5 0.0000 0.0000 0.0000 0.0000 23.6395 0.0000
# 6 0.0000 0.0000 0.0000 0.0000 0.0000 21.1312
#
#
#
# Elastic Compliance Matrix: (Units=1/GPa)
#
#
# Indices 1 2 3 4 5 6 
#
# 1 0.015434 -0.002930 -0.003822 0.000000 0.000000 0.000000
# 2 -0.002930 0.015434 -0.003822 0.000000 0.000000 0.000000
# 3 -0.003822 -0.003822 0.017577 0.000000 0.000000 0.000000
# 4 0.000000 0.000000 0.000000 0.042302 0.000000 0.000000
# 5 0.000000 0.000000 0.000000 0.000000 0.042302 0.000000
# 6 0.000000 0.000000 0.000000 0.000000 0.000000 0.047323
#
#
# Mechanical properties :
#
#
# Convention : Reuss Voigt Hill
#
# Bulk Modulus (GPa) = 36.63644 36.70336 36.66990
# Shear Modulus (GPa) = 23.73940 23.90210 23.82075
#
# Velocity S-wave (km/s) = 3.64978 3.66227 3.65603
# Velocity P-wave (km/s) = 6.19024 6.20309 6.19667
#
# Compressibility (1/GPa) = 0.02729523
#
# Stress axis : x y z
#
# Youngs Moduli (GPa) = 64.79334 64.79334 56.89141
#
# Poissons Ratio (x) = 0.18986 0.21746
# Poissons Ratio (y) = 0.18986 0.21746
# Poissons Ratio (z) = 0.24766 0.24766
#
# Static dielectric constant tensor:
#      x y z
#    x 3.310390 0.000000 0.000000 
#    y 0.000000 3.310390 0.000000 
#    z 0.000000 0.000000 3.415090 
# 
# 
# High freq. dielectric constant tensor:
#      x y z
#    x 1.688370 0.000000 0.000000 
#    y 0.000000 1.688370 0.000000 
#    z 0.000000 0.000000 1.690230 
# 
# From -- ./inp_files/10768.got.cif
#   From: 2010.03.12/outbox.cif.g09.slc.cpg/sg132_6_cif.got.tgz:10768.got - 2010.04.06 17:53:44.
