data_PCOD8316430
_publ_section_title
;
Structure prediction by ZEFSAII (Michael W. Deem and Ramdas Pophale) SiO2 
 PCOD8316430
Probable space group: P 42/M C M
;
_chemical_formula_sum "Si O2"
_cell_formula_units_Z 112
_cell_length_a 14.808635
_cell_length_b 14.808635
_cell_length_c 28.638958
_cell_angle_alpha 90.000000
_cell_angle_beta 90.000000
_cell_angle_gamma 90.000000
_cell_volume 6280.399499
_symmetry_space_group_name_H-M "P 42/M C M"
_symmetry_group_IT_number 132
_symmetry_cell_setting 'tetragonal'
loop_
_space_group_symop_operation_xyz
x,y,z
-y,x,1/2+z
-x,-y,z
y,-x,1/2+z
x,-y,1/2-z
-x,y,1/2-z
y,x,-z
-y,-x,-z
-x,-y,-z
y,-x,1/2-z
x,y,-z
-y,x,1/2-z
-x,y,1/2+z
x,-y,1/2+z
-y,-x,z
y,x,z
loop_
_atom_site_type_symbol
_atom_site_label
_atom_site_fract_x
_atom_site_fract_y
_atom_site_fract_z
Si Si1 0.674330 0.464523 0.701603
Si Si2 0.182855 0.182855 0.448062
Si Si3 0.558390 0.225122 0.121213
Si Si4 0.926308 0.298980 0.882497
Si Si5 0.222560 0.077088 0.285042
Si Si6 0.177738 0.678217 0.709762
Si Si7 0.069920 0.425713 0.135328
Si Si8 0.665779 0.334222 0.948167
O O1 0.632813 0.500000 0.750000
O O2 0.596180 0.403821 0.676835
O O3 0.710318 0.539796 0.665651
O O4 0.756750 0.404236 0.718892
O O5 0.152542 0.152542 0.500000
O O6 0.223198 0.095323 0.421257
O O7 0.258456 0.258456 0.452041
O O8 0.647338 0.165739 0.130094
O O9 0.473314 0.157257 0.111142
O O10 0.577894 0.292173 0.077834
O O11 0.961638 0.255951 0.834326
O O12 0.007222 0.366039 0.900427
O O13 0.138217 0.138217 0.297297
O O14 0.302189 0.131942 0.259406
O O15 0.188742 0.000000 0.250000
O O16 0.232929 0.767072 0.691454
O O17 0.101986 0.645759 0.673737
O O18 0.000000 0.500000 0.157057
O O19 0.635415 0.364586 0.000000
#
# Coordination Sequence:
#
# PCOD8316430 Si02
#       8
#    16   8  16  16  16  16  16   8
#     4  10  20  32  45  64  94 130 167 206 249 299
#     4   9  18  32  52  77 101 133 175 210 259 320
#     4   9  19  32  50  72  97 130 166 214 256 306
#     4  10  17  31  50  72 102 132 165 209 259 300
#     4  11  20  30  46  69 100 138 171 202 238 298
#     4   9  18  31  45  65  97 134 171 199 239 303
#     4   9  17  30  48  74 102 128 166 212 258 299
#     4   9  18  34  55  74  97 133 172 211 265 324
#
# _framework density 17.833259999999999
#
# number of rings (size 3 to 8) (size 9 to 14) (size 15 to 20)
#    0.000    2.429    2.143    0.857    1.000    0.286 
#    0.000    2.857    0.000    5.143    0.000    0.000 
#    0.000    5.714    0.000    0.000    0.000    0.000 
#
# Total GULP energy -1387497.349954 kJ/mol
# GULP energy per Si atom -12388.369196 kJ/mol
# Density = 1.779267 g / cm^3
# Si number density = 17.833260 Si / 1000 Ang^3
#
#
#
# Elastic Constant Matrix: (Units=GPa)
#
#
# Indices 1 2 3 4 5 6 
#
# 1 67.1453 34.5389 40.4209 0.0000 0.0000 0.0000
# 2 34.5389 67.1453 40.4209 0.0000 0.0000 0.0000
# 3 40.4209 40.4209 105.5528 0.0000 0.0000 0.0000
# 4 0.0000 0.0000 0.0000 15.4752 0.0000 0.0000
# 5 0.0000 0.0000 0.0000 0.0000 15.4752 0.0000
# 6 0.0000 0.0000 0.0000 0.0000 0.0000 25.8251
#
#
#
# Elastic Compliance Matrix: (Units=1/GPa)
#
#
# Indices 1 2 3 4 5 6 
#
# 1 0.022404 -0.008265 -0.005414 0.000000 0.000000 0.000000
# 2 -0.008265 0.022404 -0.005414 0.000000 0.000000 0.000000
# 3 -0.005414 -0.005414 0.013621 0.000000 0.000000 0.000000
# 4 0.000000 0.000000 0.000000 0.064620 0.000000 0.000000
# 5 0.000000 0.000000 0.000000 0.000000 0.064620 0.000000
# 6 0.000000 0.000000 0.000000 0.000000 0.000000 0.038722
#
#
# Mechanical properties :
#
#
# Convention : Reuss Voigt Hill
#
# Bulk Modulus (GPa) = 49.40467 52.28941 50.84704
# Shear Modulus (GPa) = 18.42810 19.65260 19.04035
#
# Velocity S-wave (km/s) = 3.21807 3.32327 3.27109
# Velocity P-wave (km/s) = 6.44762 6.64157 6.54531
#
# Compressibility (1/GPa) = 0.02024100
#
# Stress axis : x y z
#
# Youngs Moduli (GPa) = 44.63503 44.63503 73.41705
#
# Poissons Ratio (x) = 0.36890 0.39751
# Poissons Ratio (y) = 0.36890 0.39751
# Poissons Ratio (z) = 0.24167 0.24167
#
# Static dielectric constant tensor:
#      x y z
#    x 3.386520 0.000000 0.000000 
#    y 0.000000 3.386520 0.000000 
#    z 0.000000 0.000000 3.094060 
# 
# 
# High freq. dielectric constant tensor:
#      x y z
#    x 1.689260 0.000000 0.000000 
#    y 0.000000 1.689260 0.000000 
#    z 0.000000 0.000000 1.643730 
# 
# From -- ./inp_files/10106.got.cif
#   From: 2010.03.12/outbox.cif.g09.slc.cpg/sg132_6_cif.got.tgz:10106.got - 2010.04.06 17:53:44.
