data_PCOD8316760
_publ_section_title
;
Structure prediction by ZEFSAII (Michael W. Deem and Ramdas Pophale) SiO2 
 PCOD8316760
Probable space group: P 42/M C M
;
_chemical_formula_sum "Si O2"
_cell_formula_units_Z 112
_cell_length_a 13.650377
_cell_length_b 13.650377
_cell_length_c 35.096497
_cell_angle_alpha 90.000000
_cell_angle_beta 90.000000
_cell_angle_gamma 90.000000
_cell_volume 6539.628284
_symmetry_space_group_name_H-M "P 42/M C M"
_symmetry_group_IT_number 132
_symmetry_cell_setting 'tetragonal'
loop_
_space_group_symop_operation_xyz
x,y,z
-y,x,1/2+z
-x,-y,z
y,-x,1/2+z
x,-y,1/2-z
-x,y,1/2-z
y,x,-z
-y,-x,-z
-x,-y,-z
y,-x,1/2-z
x,y,-z
-y,x,1/2-z
-x,y,1/2+z
x,-y,1/2+z
-y,-x,z
y,x,z
loop_
_atom_site_type_symbol
_atom_site_label
_atom_site_fract_x
_atom_site_fract_y
_atom_site_fract_z
Si Si1 0.606837 0.048195 0.398814
Si Si2 0.146927 0.301736 0.401845
Si Si3 0.115871 0.280219 0.827367
Si Si4 0.272409 0.574022 0.042438
Si Si5 0.365918 0.785851 0.456657
Si Si6 0.883873 0.391037 0.747865
Si Si7 0.889603 0.263490 0.818577
O O1 0.643693 0.111121 0.362613
O O2 0.603214 0.117205 0.434966
O O3 0.500000 0.000000 0.390282
O O4 0.689170 0.968129 0.411100
O O5 0.195949 0.195949 0.412658
O O6 0.200757 0.387605 0.424556
O O7 0.151560 0.318499 0.356242
O O8 0.188700 0.188700 0.835861
O O9 0.154210 0.339288 0.790605
O O10 0.005780 0.243326 0.819061
O O11 0.378784 0.621217 0.048056
O O12 0.287223 0.458194 0.046208
O O13 0.230053 0.600040 0.000000
O O14 0.344357 0.815953 0.500000
O O15 0.271452 0.728549 0.439685
O O16 0.838183 0.500000 0.750000
O O17 0.849641 0.328978 0.784109
O O18 0.000000 0.398243 0.750000
O O19 0.844393 0.155608 0.814947
#
# Coordination Sequence:
#
# PCOD8316760 Si02
#       7
#    16  16  16  16  16  16  16
#     4  11  21  33  54  77 102 137 175 214 258 310
#     4   9  18  32  50  74 101 131 169 215 257 301
#     4  10  21  33  49  74 106 134 166 211 264 308
#     4   9  17  30  49  74 103 133 168 211 261 315
#     4  10  21  35  51  75 106 138 172 214 265 315
#     4   9  18  29  48  71  99 131 167 209 252 301
#     4   9  18  32  50  71  99 134 176 212 253 308
#
# _framework density 17.126355
#
# number of rings (size 3 to 8) (size 9 to 14) (size 15 to 20)
#    0.000    2.429    1.429    0.857    6.000    1.429 
#    0.000    1.429    0.000    3.857    0.000    1.000 
#    0.000    5.714    0.000    0.000    0.000    0.143 
#
# Total GULP energy -1387713.217573 kJ/mol
# GULP energy per Si atom -12390.296585 kJ/mol
# Density = 1.708737 g / cm^3
# Si number density = 17.126355 Si / 1000 Ang^3
#
#
#
# Elastic Constant Matrix: (Units=GPa)
#
#
# Indices 1 2 3 4 5 6 
#
# 1 78.1445 47.4129 46.6914 0.0000 0.0000 0.0000
# 2 47.4129 78.1445 46.6914 0.0000 0.0000 0.0000
# 3 46.6914 46.6914 91.1276 0.0000 0.0000 0.0000
# 4 0.0000 0.0000 0.0000 25.8217 0.0000 0.0000
# 5 0.0000 0.0000 0.0000 0.0000 25.8217 0.0000
# 6 0.0000 0.0000 0.0000 0.0000 0.0000 22.8345
#
#
#
# Elastic Compliance Matrix: (Units=1/GPa)
#
#
# Indices 1 2 3 4 5 6 
#
# 1 0.022704 -0.009836 -0.006593 0.000000 0.000000 0.000000
# 2 -0.009836 0.022704 -0.006593 0.000000 0.000000 0.000000
# 3 -0.006593 -0.006593 0.017730 0.000000 0.000000 0.000000
# 4 0.000000 0.000000 0.000000 0.038727 0.000000 0.000000
# 5 0.000000 0.000000 0.000000 0.000000 0.038727 0.000000
# 6 0.000000 0.000000 0.000000 0.000000 0.000000 0.043793
#
#
# Mechanical properties :
#
#
# Convention : Reuss Voigt Hill
#
# Bulk Modulus (GPa) = 58.50264 58.77865 58.64064
# Shear Modulus (GPa) = 21.17491 22.00364 21.58927
#
# Velocity S-wave (km/s) = 3.52005 3.58827 3.55433
# Velocity P-wave (km/s) = 7.12423 7.18072 7.15253
#
# Compressibility (1/GPa) = 0.01709325
#
# Stress axis : x y z
#
# Youngs Moduli (GPa) = 44.04505 44.04505 56.40115
#
# Poissons Ratio (x) = 0.43322 0.37187
# Poissons Ratio (y) = 0.43322 0.37187
# Poissons Ratio (z) = 0.29040 0.29040
#
# Static dielectric constant tensor:
#      x y z
#    x 3.176620 0.000000 0.000000 
#    y 0.000000 3.176620 0.000000 
#    z 0.000000 0.000000 3.372060 
# 
# 
# High freq. dielectric constant tensor:
#      x y z
#    x 1.645660 0.000000 0.000000 
#    y 0.000000 1.645660 0.000000 
#    z 0.000000 0.000000 1.672030 
# 
# From -- ./inp_files/10987.got.cif
#   From: 2010.03.12/outbox.cif.g09.slc.cpg/sg132_6_cif.got.tgz:10987.got - 2010.04.06 17:53:44.
