data_PCOD8316348
_publ_section_title
;
Structure prediction by ZEFSAII (Michael W. Deem and Ramdas Pophale) SiO2 
 PCOD8316348
Probable space group: P 42/M M C
;
_chemical_formula_sum "Si O2"
_cell_formula_units_Z 56
_cell_length_a 17.670473
_cell_length_b 17.670473
_cell_length_c 8.682992
_cell_angle_alpha 90.000000
_cell_angle_beta 90.000000
_cell_angle_gamma 90.000000
_cell_volume 2711.226186
_symmetry_space_group_name_H-M "P 42/M M C"
_symmetry_group_IT_number 131
_symmetry_cell_setting 'tetragonal'
loop_
_space_group_symop_operation_xyz
x,y,z
-x,-y,z
-y,x,1/2+z
y,-x,1/2+z
-x,y,-z
x,-y,-z
y,x,1/2-z
-y,-x,1/2-z
-x,-y,-z
x,y,-z
y,-x,1/2-z
-y,x,1/2-z
x,-y,z
-x,y,z
-y,-x,1/2+z
y,x,1/2+z
loop_
_atom_site_type_symbol
_atom_site_label
_atom_site_fract_x
_atom_site_fract_y
_atom_site_fract_z
Si Si1 0.586493 0.305795 0.318661
Si Si2 0.088132 0.500000 0.829171
Si Si3 0.157340 0.354145 0.317844
Si Si4 0.088218 0.202886 0.180673
O O1 0.614081 0.385920 0.250000
O O2 0.595322 0.307180 0.500000
O O3 0.500000 0.291190 0.268356
O O4 0.640134 0.241629 0.248004
O O5 0.109777 0.573976 0.735640
O O6 0.000000 0.500000 0.853786
O O7 0.127492 0.500000 0.000000
O O8 0.160621 0.351400 0.500000
O O9 0.118103 0.279015 0.257331
O O10 0.130525 0.130525 0.250000
O O11 0.000000 0.193286 0.218198
O O12 0.103911 0.207854 0.000000
#
# Coordination Sequence:
#
# PCOD8316348 Si02
#       4
#    16   8  16  16
#     4  11  24  42  65  91 126 169 214 266 322 381
#     4  11  23  39  61  91 130 171 210 257 317 383
#     4  12  24  40  65  96 131 169 215 267 320 385
#     4  11  25  45  69  97 132 174 219 271 330 391
#
# _framework density 20.654862000000001
#
# number of rings (size 3 to 8) (size 9 to 14) (size 15 to 20)
#    0.000    0.714    1.429    6.429    0.000    9.143 
#    0.000    2.857    0.000    0.000    0.000    0.000 
#    0.000    0.000    0.000    0.000    0.000    0.000 
#
# Total GULP energy -694736.560759 kJ/mol
# GULP energy per Si atom -12406.010014 kJ/mol
# Density = 2.060785 g / cm^3
# Si number density = 20.654862 Si / 1000 Ang^3
#
#
#
# Elastic Constant Matrix: (Units=GPa)
#
#
# Indices 1 2 3 4 5 6 
#
# 1 102.0236 82.6982 66.7977 0.0000 0.0000 0.0000
# 2 82.6982 102.0123 66.8043 0.0000 0.0000 0.0000
# 3 66.7977 66.8043 148.6302 0.0000 0.0000 0.0000
# 4 0.0000 0.0000 0.0000 34.6213 0.0000 0.0000
# 5 0.0000 0.0000 0.0000 0.0000 34.6210 0.0000
# 6 0.0000 0.0000 0.0000 0.0000 0.0000 128.5317
#
#
#
# Elastic Compliance Matrix: (Units=1/GPa)
#
#
# Indices 1 2 3 4 5 6 
#
# 1 0.029887 -0.021870 -0.003602 0.000000 0.000000 0.000000
# 2 -0.021870 0.029895 -0.003608 0.000000 0.000000 0.000000
# 3 -0.003602 -0.003608 0.009969 0.000000 0.000000 0.000000
# 4 0.000000 0.000000 0.000000 0.028884 0.000000 0.000000
# 5 0.000000 0.000000 0.000000 0.000000 0.028884 0.000000
# 6 0.000000 0.000000 0.000000 0.000000 0.000000 0.007780
#
#
# Mechanical properties :
#
#
# Convention : Reuss Voigt Hill
#
# Bulk Modulus (GPa) = 86.27568 87.25182 86.76375
# Shear Modulus (GPa) = 25.33928 48.64586 36.99257
#
# Velocity S-wave (km/s) = 3.50636 4.85828 4.23660
# Velocity P-wave (km/s) = 7.63241 8.59098 8.12584
#
# Compressibility (1/GPa) = 0.01159075
#
# Stress axis : x y z
#
# Youngs Moduli (GPa) = 33.45903 33.45097 100.31415
#
# Poissons Ratio (x) = 0.73156 0.36136
# Poissons Ratio (y) = 0.73174 0.36192
# Poissons Ratio (z) = 0.12053 0.12069
#
# Static dielectric constant tensor:
#      x y z
#    x 3.958800 0.000000 0.000000 
#    y 0.000000 3.958810 0.000000 
#    z 0.000000 0.000000 3.991660 
# 
# 
# High freq. dielectric constant tensor:
#      x y z
#    x 1.819850 0.000000 0.000000 
#    y 0.000000 1.819850 0.000000 
#    z 0.000000 0.000000 1.826610 
# 
# From -- ./inp_files/1201.got.cif
#   From: 2010.03.12/outbox.cif.g09.slc.cpg/sg131_1_cif.got.tgz:1201.got - 2010.04.06 17:36:35.
