data_PCOD8316615
_publ_section_title
;
Structure prediction by ZEFSAII (Michael W. Deem and Ramdas Pophale) SiO2 
 PCOD8316615
Probable space group: P 42/M C M
;
_chemical_formula_sum "Si O2"
_cell_formula_units_Z 128
_cell_length_a 20.134788
_cell_length_b 20.134788
_cell_length_c 18.138891
_cell_angle_alpha 90.000000
_cell_angle_beta 90.000000
_cell_angle_gamma 90.000000
_cell_volume 7353.682137
_symmetry_space_group_name_H-M "P 42/M C M"
_symmetry_group_IT_number 132
_symmetry_cell_setting 'tetragonal'
loop_
_space_group_symop_operation_xyz
x,y,z
-y,x,1/2+z
-x,-y,z
y,-x,1/2+z
x,-y,1/2-z
-x,y,1/2-z
y,x,-z
-y,-x,-z
-x,-y,-z
y,-x,1/2-z
x,y,-z
-y,x,1/2-z
-x,y,1/2+z
x,-y,1/2+z
-y,-x,z
y,x,z
loop_
_atom_site_type_symbol
_atom_site_label
_atom_site_fract_x
_atom_site_fract_y
_atom_site_fract_z
Si Si1 0.802335 0.905243 0.082517
Si Si2 0.991183 0.397079 0.167717
Si Si3 0.578698 0.125135 0.586373
Si Si4 0.749487 0.854704 0.418799
Si Si5 0.229177 0.666465 0.183797
Si Si6 0.540748 0.850686 0.674639
Si Si7 0.295247 0.191154 0.842987
Si Si8 0.017498 0.243799 0.331150
O O1 0.877069 0.877069 0.084402
O O2 0.756809 0.866385 0.140199
O O3 0.802648 0.980798 0.108977
O O4 0.772533 0.899158 0.000000
O O5 0.915105 0.415867 0.148013
O O6 0.005922 0.319400 0.161067
O O7 0.000000 0.423488 0.250000
O O8 0.049771 0.428472 0.118155
O O9 0.586577 0.119088 0.500000
O O10 0.511373 0.163107 0.609209
O O11 0.636950 0.172760 0.616152
O O12 0.727553 0.883098 0.500000
O O13 0.819461 0.819461 0.428965
O O14 0.694535 0.802874 0.390793
O O15 0.760170 0.906479 0.353213
O O16 0.306820 0.693181 0.186964
O O17 0.215653 0.586993 0.182600
O O18 0.190598 0.693782 0.255466
O O19 0.500000 0.863420 0.750000
O O20 0.262343 0.262343 0.868381
O O21 0.000000 0.216653 0.250000
#
# Coordination Sequence:
#
# PCOD8316615 Si02
#       8
#    16  16  16  16  16  16  16  16
#     4  10  20  33  50  74 105 137 170 220 280 328
#     4  11  21  35  51  73 107 151 183 215 259 311
#     4  12  25  36  52  80 111 147 190 227 266 325
#     4  10  21  36  54  77 105 136 177 234 287 327
#     4  10  20  37  59  80 102 139 187 226 269 322
#     4  12  22  37  56  74 110 154 181 217 266 320
#     4  10  19  34  55  77 104 140 180 224 270 318
#     4  11  21  33  54  76 101 135 183 225 270 324
#
# _framework density 17.406245999999999
#
# number of rings (size 3 to 8) (size 9 to 14) (size 15 to 20)
#    0.000    1.250    5.000    1.875    0.000    4.250 
#    0.000    0.000    0.000    0.375    0.000    2.625 
#    0.000    1.750    0.000    1.125    0.000    0.000 
#
# Total GULP energy -1585858.444593 kJ/mol
# GULP energy per Si atom -12389.519098 kJ/mol
# Density = 1.736663 g / cm^3
# Si number density = 17.406246 Si / 1000 Ang^3
#
#
#
# Elastic Constant Matrix: (Units=GPa)
#
#
# Indices 1 2 3 4 5 6 
#
# 1 67.5038 39.2078 24.3135 0.0000 0.0000 0.0000
# 2 39.2078 67.5038 24.3135 0.0000 0.0000 0.0000
# 3 24.3135 24.3135 97.9542 0.0000 0.0000 0.0000
# 4 0.0000 0.0000 0.0000 19.2701 0.0000 0.0000
# 5 0.0000 0.0000 0.0000 0.0000 19.2701 0.0000
# 6 0.0000 0.0000 0.0000 0.0000 0.0000 25.9271
#
#
#
# Elastic Compliance Matrix: (Units=1/GPa)
#
#
# Indices 1 2 3 4 5 6 
#
# 1 0.022953 -0.012387 -0.002623 0.000000 0.000000 0.000000
# 2 -0.012387 0.022953 -0.002623 0.000000 0.000000 0.000000
# 3 -0.002623 -0.002623 0.011511 0.000000 0.000000 0.000000
# 4 0.000000 0.000000 0.000000 0.051894 0.000000 0.000000
# 5 0.000000 0.000000 0.000000 0.000000 0.051894 0.000000
# 6 0.000000 0.000000 0.000000 0.000000 0.000000 0.038570
#
#
# Mechanical properties :
#
#
# Convention : Reuss Voigt Hill
#
# Bulk Modulus (GPa) = 45.14161 45.40347 45.27254
# Shear Modulus (GPa) = 20.62500 22.56861 21.59681
#
# Velocity S-wave (km/s) = 3.44600 3.60471 3.52625
# Velocity P-wave (km/s) = 6.46712 6.59291 6.53032
#
# Compressibility (1/GPa) = 0.02215251
#
# Stress axis : x y z
#
# Youngs Moduli (GPa) = 43.56643 43.56643 86.87485
#
# Poissons Ratio (x) = 0.53967 0.22784
# Poissons Ratio (y) = 0.53967 0.22784
# Poissons Ratio (z) = 0.11426 0.11426
#
# Static dielectric constant tensor:
#      x y z
#    x 3.253890 0.000000 0.000000 
#    y 0.000000 3.253890 0.000000 
#    z 0.000000 0.000000 3.457870 
# 
# 
# High freq. dielectric constant tensor:
#      x y z
#    x 1.648460 0.000000 0.000000 
#    y 0.000000 1.648460 0.000000 
#    z 0.000000 0.000000 1.683030 
# 
# From -- ./inp_files/6842.got.cif
#   From: 2010.03.12/outbox.cif.g09.slc.cpg/sg132_4_cif.got.tgz:6842.got - 2010.04.06 17:53:44.
