data_PCOD8316407
_publ_section_title
;
Structure prediction by ZEFSAII (Michael W. Deem and Ramdas Pophale) SiO2 
 PCOD8316407
Probable space group: P 42/M C M
;
_chemical_formula_sum "Si O2"
_cell_formula_units_Z 128
_cell_length_a 19.412334
_cell_length_b 19.412334
_cell_length_c 23.840006
_cell_angle_alpha 90.000000
_cell_angle_beta 90.000000
_cell_angle_gamma 90.000000
_cell_volume 8983.837139
_symmetry_space_group_name_H-M "P 42/M C M"
_symmetry_group_IT_number 132
_symmetry_cell_setting 'tetragonal'
loop_
_space_group_symop_operation_xyz
x,y,z
-y,x,1/2+z
-x,-y,z
y,-x,1/2+z
x,-y,1/2-z
-x,y,1/2-z
y,x,-z
-y,-x,-z
-x,-y,-z
y,-x,1/2-z
x,y,-z
-y,x,1/2-z
-x,y,1/2+z
x,-y,1/2+z
-y,-x,z
y,x,z
loop_
_atom_site_type_symbol
_atom_site_label
_atom_site_fract_x
_atom_site_fract_y
_atom_site_fract_z
Si Si1 0.422892 0.314210 0.757478
Si Si2 0.596744 0.297487 0.387594
Si Si3 0.419072 0.010754 0.936991
Si Si4 0.159907 0.421592 0.749286
Si Si5 0.538725 0.645173 0.433827
Si Si6 0.146587 0.432314 0.125359
Si Si7 0.646999 0.242209 0.064978
Si Si8 0.595184 0.880300 0.632757
O O1 0.500000 0.343417 0.750000
O O2 0.369172 0.369172 0.731163
O O3 0.407007 0.301015 0.821510
O O4 0.414713 0.239522 0.728698
O O5 0.669740 0.330261 0.408139
O O6 0.537266 0.347005 0.410468
O O7 0.588283 0.217963 0.406162
O O8 0.388019 0.953460 0.895511
O O9 0.500000 0.000000 0.940068
O O10 0.400648 0.085211 0.911435
O O11 0.387988 0.004984 0.000000
O O12 0.136397 0.500000 0.750000
O O13 0.144744 0.395770 0.812742
O O14 0.116390 0.384715 0.699359
O O15 0.535959 0.645712 0.500000
O O16 0.573225 0.573225 0.413094
O O17 0.586297 0.708045 0.413244
O O18 0.141739 0.515093 0.127384
O O19 0.720652 0.279349 0.073113
O O20 0.644663 0.173484 0.101639
O O21 0.635472 0.222682 0.000000
#
# Coordination Sequence:
#
# PCOD8316407 Si02
#       8
#    16  16  16  16  16  16  16  16
#     4   9  18  29  39  53  73  98 133 173 210 248
#     4  10  19  31  43  55  73 101 134 170 209 244
#     4   9  18  28  42  62  78  97 122 153 199 244
#     4   8  16  27  39  55  73  98 125 155 200 242
#     4   9  18  30  41  54  72  96 129 169 211 248
#     4   9  17  30  41  56  80 101 126 165 201 240
#     4   9  17  27  40  59  80 103 129 159 199 243
#     4  10  16  27  44  60  78  99 127 160 196 243
#
# _framework density 14.247809999999999
#
# number of rings (size 3 to 8) (size 9 to 14) (size 15 to 20)
#    0.000    2.875    1.250    1.875    0.000    3.125 
#    0.000    4.375    0.000    0.000    0.000    0.000 
#    0.000    0.000    0.000    0.000    0.000    0.625 
#
# Total GULP energy -1586073.333200 kJ/mol
# GULP energy per Si atom -12391.197916 kJ/mol
# Density = 1.421538 g / cm^3
# Si number density = 14.247810 Si / 1000 Ang^3
#
#
#
# Elastic Constant Matrix: (Units=GPa)
#
#
# Indices 1 2 3 4 5 6 
#
# 1 65.0415 28.2250 28.7449 0.0000 0.0000 0.0000
# 2 28.2250 65.0415 28.7449 0.0000 0.0000 0.0000
# 3 28.7449 28.7449 61.6498 0.0000 0.0000 0.0000
# 4 0.0000 0.0000 0.0000 18.4461 0.0000 0.0000
# 5 0.0000 0.0000 0.0000 0.0000 18.4461 0.0000
# 6 0.0000 0.0000 0.0000 0.0000 0.0000 7.5306
#
#
#
# Elastic Compliance Matrix: (Units=1/GPa)
#
#
# Indices 1 2 3 4 5 6 
#
# 1 0.021104 -0.006058 -0.007016 0.000000 0.000000 0.000000
# 2 -0.006058 0.021104 -0.007016 0.000000 0.000000 0.000000
# 3 -0.007016 -0.007016 0.022763 0.000000 0.000000 0.000000
# 4 0.000000 0.000000 0.000000 0.054212 0.000000 0.000000
# 5 0.000000 0.000000 0.000000 0.000000 0.054212 0.000000
# 6 0.000000 0.000000 0.000000 0.000000 0.000000 0.132791
#
#
# Mechanical properties :
#
#
# Convention : Reuss Voigt Hill
#
# Bulk Modulus (GPa) = 40.33335 40.35139 40.34237
# Shear Modulus (GPa) = 14.09929 15.95244 15.02587
#
# Velocity S-wave (km/s) = 3.14917 3.34973 3.25100
# Velocity P-wave (km/s) = 6.44926 6.58358 6.51677
#
# Compressibility (1/GPa) = 0.02479338
#
# Stress axis : x y z
#
# Youngs Moduli (GPa) = 47.38432 47.38432 43.93130
#
# Poissons Ratio (x) = 0.28704 0.30820
# Poissons Ratio (y) = 0.28704 0.30820
# Poissons Ratio (z) = 0.33243 0.33243
#
# Static dielectric constant tensor:
#      x y z
#    x 2.666600 0.000000 0.000000 
#    y 0.000000 2.666600 0.000000 
#    z 0.000000 0.000000 2.930310 
# 
# 
# High freq. dielectric constant tensor:
#      x y z
#    x 1.504750 0.000000 0.000000 
#    y 0.000000 1.504750 0.000000 
#    z 0.000000 0.000000 1.556270 
# 
# From -- ./inp_files/9396.got.cif
#   From: 2010.03.12/outbox.cif.g09.slc.cpg/sg132_5_cif.got.tgz:9396.got - 2010.04.06 17:53:44.
