data_PCOD8316862
_publ_section_title
;
Structure prediction by ZEFSAII (Michael W. Deem and Ramdas Pophale) SiO2 
 PCOD8316862
Probable space group: P 42/M C M
;
_chemical_formula_sum "Si O2"
_cell_formula_units_Z 42
_cell_length_a 15.212372
_cell_length_b 15.212372
_cell_length_c 8.153399
_cell_angle_alpha 90.000000
_cell_angle_beta 90.000000
_cell_angle_gamma 90.000000
_cell_volume 1886.829118
_symmetry_space_group_name_H-M "P 42/M C M"
_symmetry_group_IT_number 132
_symmetry_cell_setting 'tetragonal'
loop_
_space_group_symop_operation_xyz
x,y,z
-y,x,1/2+z
-x,-y,z
y,-x,1/2+z
x,-y,1/2-z
-x,y,1/2-z
y,x,-z
-y,-x,-z
-x,-y,-z
y,-x,1/2-z
x,y,-z
-y,x,1/2-z
-x,y,1/2+z
x,-y,1/2+z
-y,-x,z
y,x,z
loop_
_atom_site_type_symbol
_atom_site_label
_atom_site_fract_x
_atom_site_fract_y
_atom_site_fract_z
Si Si1 0.130737 0.869264 0.811550
Si Si2 0.320814 0.907268 0.689767
Si Si3 0.000000 0.000000 0.250000
Si Si4 0.405552 0.263550 0.693378
O O1 0.232946 0.887318 0.790336
O O2 0.071779 0.928222 0.682587
O O3 0.104162 0.895839 0.000000
O O4 0.297335 0.911050 0.500000
O O5 0.390987 0.831032 0.723487
O O6 0.361057 0.000000 0.750000
O O7 0.500000 0.299596 0.750000
O O8 0.401411 0.252957 0.500000
O O9 0.332318 0.332318 0.755929
#
# Coordination Sequence:
#
# PCOD8316862 Si02
#       4
#     8  16   2  16
#     4  12  24  39  60  91 132 177 228 279 336 395
#     4  12  25  42  67  97 135 180 228 278 338 403
#     4  12  26  36  64  94 138 176 234 288 334 396
#     4  11  25  46  73 103 139 178 225 283 345 413
#
# _framework density 22.259568000000002
#
# number of rings (size 3 to 8) (size 9 to 14) (size 15 to 20)
#    0.000    0.381    3.810    5.429    0.000    4.952 
#    0.000    5.714    0.000    0.000    0.000    0.000 
#    0.000    0.000    0.000    0.000    0.000    0.000 
#
# Total GULP energy -520537.554821 kJ/mol
# GULP energy per Si atom -12393.751305 kJ/mol
# Density = 2.220890 g / cm^3
# Si number density = 22.259568 Si / 1000 Ang^3
#
#
#
# Elastic Constant Matrix: (Units=GPa)
#
#
# Indices 1 2 3 4 5 6 
#
# 1 134.2193 51.6002 27.3197 0.0000 0.0000 0.0000
# 2 51.6002 134.2191 27.3194 0.0000 0.0000 0.0000
# 3 27.3197 27.3194 108.3653 0.0000 0.0000 0.0000
# 4 0.0000 0.0000 0.0000 26.3901 0.0000 0.0000
# 5 0.0000 0.0000 0.0000 0.0000 26.3900 0.0000
# 6 0.0000 0.0000 0.0000 0.0000 0.0000 13.5734
#
#
#
# Elastic Compliance Matrix: (Units=1/GPa)
#
#
# Indices 1 2 3 4 5 6 
#
# 1 0.008958 -0.003146 -0.001465 0.000000 0.000000 0.000000
# 2 -0.003146 0.008958 -0.001465 0.000000 0.000000 0.000000
# 3 -0.001465 -0.001465 0.009967 0.000000 0.000000 0.000000
# 4 0.000000 0.000000 0.000000 0.037893 0.000000 0.000000
# 5 0.000000 0.000000 0.000000 0.000000 0.037893 0.000000
# 6 0.000000 0.000000 0.000000 0.000000 0.000000 0.073673
#
#
# Mechanical properties :
#
#
# Convention : Reuss Voigt Hill
#
# Bulk Modulus (GPa) = 63.57127 65.47582 64.52355
# Shear Modulus (GPa) = 25.67540 31.30832 28.49186
#
# Velocity S-wave (km/s) = 3.39994 3.75442 3.58157
# Velocity P-wave (km/s) = 6.63580 6.94786 6.79362
#
# Compressibility (1/GPa) = 0.01573038
#
# Stress axis : x y z
#
# Youngs Moduli (GPa) = 111.63085 111.63076 100.33221
#
# Poissons Ratio (x) = 0.35115 0.14702
# Poissons Ratio (y) = 0.35115 0.14702
# Poissons Ratio (z) = 0.16358 0.16358
#
# Static dielectric constant tensor:
#      x y z
#    x 4.162890 0.000000 0.000000 
#    y 0.000000 4.162890 0.000000 
#    z 0.000000 0.000000 3.922910 
# 
# 
# High freq. dielectric constant tensor:
#      x y z
#    x 1.882500 0.000000 0.000000 
#    y 0.000000 1.882500 0.000000 
#    z 0.000000 0.000000 1.872930 
# 
# From -- ./inp_files/575.got.cif
#   From: 2010.03.12/outbox.cif.g09.slc.cpg/sg132_1_cif.got.tgz:575.got - 2010.04.06 17:53:44.
