data_PCOD8316162
_publ_section_title
;
Structure prediction by ZEFSAII (Michael W. Deem and Ramdas Pophale) SiO2 
 PCOD8316162
Probable space group: P 42/M M C
;
_chemical_formula_sum "Si O2"
_cell_formula_units_Z 72
_cell_length_a 14.509536
_cell_length_b 14.509536
_cell_length_c 18.961225
_cell_angle_alpha 90.000000
_cell_angle_beta 90.000000
_cell_angle_gamma 90.000000
_cell_volume 3991.842894
_symmetry_space_group_name_H-M "P 42/M M C"
_symmetry_group_IT_number 131
_symmetry_cell_setting 'tetragonal'
loop_
_space_group_symop_operation_xyz
x,y,z
-x,-y,z
-y,x,1/2+z
y,-x,1/2+z
-x,y,-z
x,-y,-z
y,x,1/2-z
-y,-x,1/2-z
-x,-y,-z
x,y,-z
y,-x,1/2-z
-y,x,1/2-z
x,-y,z
-x,y,z
-y,-x,1/2+z
y,x,1/2+z
loop_
_atom_site_type_symbol
_atom_site_label
_atom_site_fract_x
_atom_site_fract_y
_atom_site_fract_z
Si Si1 0.395054 0.896997 0.301407
Si Si2 0.391706 0.729679 0.203812
Si Si3 0.396566 0.000000 0.083413
Si Si4 0.816001 0.296072 0.581729
Si Si5 0.898619 0.751112 0.919866
O O1 0.500000 0.879299 0.323549
O O2 0.364035 0.824403 0.242739
O O3 0.337563 0.882841 0.372098
O O4 0.380990 0.000000 0.269971
O O5 0.356170 0.643831 0.250000
O O6 0.500000 0.717964 0.191871
O O7 0.340807 0.733461 0.127869
O O8 0.341131 0.910667 0.108706
O O9 0.500000 0.000000 0.116707
O O10 0.404397 0.000000 0.000000
O O11 0.796166 0.319457 0.500000
O O12 0.822731 0.185134 0.593733
O O13 0.000000 0.796673 0.904606
O O14 0.894358 0.715677 0.000000
#
# Coordination Sequence:
#
# PCOD8316162 Si02
#       5
#    16  16   8  16  16
#     4   9  18  32  51  77 105 132 168 215 266 318
#     4  11  22  36  54  77 105 139 180 222 272 323
#     4   9  18  32  51  77 105 135 177 227 271 312
#     4  10  20  35  54  78 107 140 176 218 269 322
#     4   9  17  31  52  77 106 139 174 212 257 315
#
# _framework density 18.036783
#
# number of rings (size 3 to 8) (size 9 to 14) (size 15 to 20)
#    0.000    2.333    2.222    0.667    1.556    2.000 
#    0.000    2.778    0.000    4.000    0.000    1.556 
#    0.000    0.000    0.000    0.000    0.000    0.000 
#
# Total GULP energy -892493.097936 kJ/mol
# GULP energy per Si atom -12395.737471 kJ/mol
# Density = 1.799573 g / cm^3
# Si number density = 18.036783 Si / 1000 Ang^3
#
#
#
# Elastic Constant Matrix: (Units=GPa)
#
#
# Indices 1 2 3 4 5 6 
#
# 1 101.8186 48.5623 38.9890 0.0000 0.0000 0.0000
# 2 48.5623 101.8208 38.9895 0.0000 0.0000 0.0000
# 3 38.9890 38.9895 68.8058 0.0000 0.0000 0.0000
# 4 0.0000 0.0000 0.0000 23.1752 0.0000 0.0000
# 5 0.0000 0.0000 0.0000 0.0000 23.1749 0.0000
# 6 0.0000 0.0000 0.0000 0.0000 0.0000 32.0940
#
#
#
# Elastic Compliance Matrix: (Units=1/GPa)
#
#
# Indices 1 2 3 4 5 6 
#
# 1 0.014097 -0.004680 -0.005336 0.000000 0.000000 0.000000
# 2 -0.004680 0.014097 -0.005336 0.000000 0.000000 0.000000
# 3 -0.005336 -0.005336 0.020581 0.000000 0.000000 0.000000
# 4 0.000000 0.000000 0.000000 0.043150 0.000000 0.000000
# 5 0.000000 0.000000 0.000000 0.000000 0.043150 0.000000
# 6 0.000000 0.000000 0.000000 0.000000 0.000000 0.031158
#
#
# Mechanical properties :
#
#
# Convention : Reuss Voigt Hill
#
# Bulk Modulus (GPa) = 55.33943 58.39187 56.86565
# Shear Modulus (GPa) = 24.63537 25.41577 25.02557
#
# Velocity S-wave (km/s) = 3.69974 3.75788 3.72892
# Velocity P-wave (km/s) = 6.99991 7.16051 7.08067
#
# Compressibility (1/GPa) = 0.01807030
#
# Stress axis : x y z
#
# Youngs Moduli (GPa) = 70.93793 70.93938 48.58849
#
# Poissons Ratio (x) = 0.33200 0.25927
# Poissons Ratio (y) = 0.33199 0.25927
# Poissons Ratio (z) = 0.37853 0.37853
#
# Static dielectric constant tensor:
#      x y z
#    x 3.374140 0.000000 0.000000 
#    y 0.000000 3.374140 0.000000 
#    z 0.000000 0.000000 3.339310 
# 
# 
# High freq. dielectric constant tensor:
#      x y z
#    x 1.687720 0.000000 0.000000 
#    y 0.000000 1.687720 0.000000 
#    z 0.000000 0.000000 1.704210 
# 
# From -- ./inp_files/7516.got.cif
#   From: 2010.03.12/outbox.cif.g09.slc.cpg/sg131_4_cif.got.tgz:7516.got - 2010.04.06 17:36:35.
