data_PCOD8316962
_publ_section_title
;
Structure prediction by ZEFSAII (Michael W. Deem and Ramdas Pophale) SiO2 
 PCOD8316962
Probable space group: P 42/N B C
;
_chemical_formula_sum "Si O2"
_cell_formula_units_Z 44
_cell_length_a 14.941220
_cell_length_b 14.941220
_cell_length_c 9.502947
_cell_angle_alpha 90.000000
_cell_angle_beta 90.000000
_cell_angle_gamma 90.000000
_cell_volume 2121.438412
_symmetry_space_group_name_H-M "P 42/N B C"
_symmetry_group_IT_number 133
_space_group.IT_coordinate_system_code '2'
_symmetry_cell_setting 'tetragonal'
loop_
_space_group_symop_operation_xyz
x,y,z
1/2-y,x,1/2+z
1/2-x,1/2-y,z
y,1/2-x,1/2+z
x,1/2-y,-z
1/2-x,y,-z
y,x,1/2-z
1/2-y,1/2-x,1/2-z
-x,-y,-z
1/2+y,-x,1/2-z
1/2+x,1/2+y,-z
-y,1/2+x,1/2-z
-x,1/2+y,z
1/2+x,-y,z
-y,-x,1/2+z
1/2+y,1/2+x,1/2+z
loop_
_atom_site_type_symbol
_atom_site_label
_atom_site_fract_x
_atom_site_fract_y
_atom_site_fract_z
Si Si1 0.095487 0.960023 0.284092
Si Si2 0.849785 0.650216 0.250000
Si Si3 0.750000 0.750000 0.500000
Si Si4 0.849508 0.146053 0.968694
O O1 0.092628 0.923209 0.441785
O O2 0.126369 0.875289 0.191819
O O3 0.165738 0.042526 0.261019
O O4 0.995004 0.995004 0.250000
O O5 0.812238 0.692154 0.395033
O O6 0.858806 0.250000 0.000000
O O7 0.750000 0.111575 0.000000
#
# Coordination Sequence:
#
# PCOD8316962 Si02
#       4
#    16   8   4  16
#     4  10  23  39  63  98 123 174 215 273 331 390
#     4   9  24  38  72  92 136 166 221 274 330 408
#     4  10  20  50  60 106 124 182 216 270 356 378
#     4  11  23  42  66  94 133 175 224 274 326 391
#
# _framework density 20.740644
#
# number of rings (size 3 to 8) (size 9 to 14) (size 15 to 20)
#    1.091    0.727    0.000    3.273    5.091    2.909 
#    0.000    0.000    0.000    0.000    0.000    0.000 
#    0.000    0.000    0.000    0.000    0.000    0.000 
#
# Total GULP energy -545275.481910 kJ/mol
# GULP energy per Si atom -12392.624589 kJ/mol
# Density = 2.069344 g / cm^3
# Si number density = 20.740644 Si / 1000 Ang^3
#
#
#
# Elastic Constant Matrix: (Units=GPa)
#
#
# Indices 1 2 3 4 5 6 
#
# 1 98.7111 22.1815 26.3772 0.0000 0.0000 0.0000
# 2 22.1815 98.7096 26.3770 0.0000 0.0000 0.0000
# 3 26.3772 26.3770 100.6955 0.0000 0.0000 0.0000
# 4 0.0000 0.0000 0.0000 96.3145 0.0000 0.0000
# 5 0.0000 0.0000 0.0000 0.0000 96.3171 0.0000
# 6 0.0000 0.0000 0.0000 0.0000 0.0000 12.0406
#
#
#
# Elastic Compliance Matrix: (Units=1/GPa)
#
#
# Indices 1 2 3 4 5 6 
#
# 1 0.011203 -0.001864 -0.002446 0.000000 0.000000 0.000000
# 2 -0.001864 0.011203 -0.002446 0.000000 0.000000 0.000000
# 3 -0.002446 -0.002446 0.011213 0.000000 0.000000 0.000000
# 4 0.000000 0.000000 0.000000 0.010383 0.000000 0.000000
# 5 0.000000 0.000000 0.000000 0.000000 0.010382 0.000000
# 6 0.000000 0.000000 0.000000 0.000000 0.000000 0.083053
#
#
# Mechanical properties :
#
#
# Convention : Reuss Voigt Hill
#
# Bulk Modulus (GPa) = 49.73723 49.77640 49.75682
# Shear Modulus (GPa) = 31.71545 55.81313 43.76429
#
# Velocity S-wave (km/s) = 3.91467 5.19312 4.59854
# Velocity P-wave (km/s) = 6.66824 7.74658 7.22755
#
# Compressibility (1/GPa) = 0.02010566
#
# Stress axis : x y z
#
# Youngs Moduli (GPa) = 89.26091 89.25957 89.18520
#
# Poissons Ratio (x) = 0.16636 0.21819
# Poissons Ratio (y) = 0.16636 0.21819
# Poissons Ratio (z) = 0.21837 0.21837
#
# Static dielectric constant tensor:
#      x y z
#    x 3.609450 0.000000 0.000000 
#    y 0.000000 3.609470 0.000000 
#    z 0.000000 0.000000 3.290650 
# 
# 
# High freq. dielectric constant tensor:
#      x y z
#    x 1.804600 0.000000 0.000000 
#    y 0.000000 1.804600 0.000000 
#    z 0.000000 0.000000 1.824940 
# 
# From -- ./inp_files/2543.got.cif
#   From: 2010.03.12/outbox.cif.g09.slc.cpg/sg133_2_cif.got.tgz:2543.got - 2010.04.06 18:08:06.
