data_PCOD8316673
_publ_section_title
;
Structure prediction by ZEFSAII (Michael W. Deem and Ramdas Pophale) SiO2 
 PCOD8316673
Probable space group: P 42/M C M
;
_chemical_formula_sum "Si O2"
_cell_formula_units_Z 80
_cell_length_a 12.741547
_cell_length_b 12.741547
_cell_length_c 26.607552
_cell_angle_alpha 90.000000
_cell_angle_beta 90.000000
_cell_angle_gamma 90.000000
_cell_volume 4319.656775
_symmetry_space_group_name_H-M "P 42/M C M"
_symmetry_group_IT_number 132
_symmetry_cell_setting 'tetragonal'
loop_
_space_group_symop_operation_xyz
x,y,z
-y,x,1/2+z
-x,-y,z
y,-x,1/2+z
x,-y,1/2-z
-x,y,1/2-z
y,x,-z
-y,-x,-z
-x,-y,-z
y,-x,1/2-z
x,y,-z
-y,x,1/2-z
-x,y,1/2+z
x,-y,1/2+z
-y,-x,z
y,x,z
loop_
_atom_site_type_symbol
_atom_site_label
_atom_site_fract_x
_atom_site_fract_y
_atom_site_fract_z
Si Si1 0.722679 0.106260 0.440560
Si Si2 0.879511 0.511984 0.118349
Si Si3 0.416549 0.754919 0.286653
Si Si4 0.896586 0.723799 0.723049
Si Si5 0.111799 0.713845 0.107131
O O1 0.715526 0.105532 0.500000
O O2 0.809740 0.190261 0.421881
O O3 0.608835 0.136592 0.419323
O O4 0.756281 0.990703 0.421713
O O5 0.799960 0.527347 0.164253
O O6 0.851485 0.402700 0.089150
O O7 0.000000 0.500000 0.136698
O O8 0.500000 0.696773 0.250000
O O9 0.326237 0.673764 0.302766
O O10 0.374677 0.852047 0.253645
O O11 0.818210 0.818210 0.726256
O O12 0.918675 0.696537 0.665325
O O13 0.000000 0.763998 0.750000
O O14 0.205159 0.794842 0.097588
#
# Coordination Sequence:
#
# PCOD8316673 Si02
#       5
#    16  16  16  16  16
#     4  10  22  40  60  83 110 142 184 234 286 337
#     4  10  20  35  59  84 111 147 188 231 275 325
#     4  11  22  34  53  80 111 148 188 223 266 319
#     4  10  20  33  50  76 111 147 184 225 269 322
#     4  10  21  36  55  82 114 146 183 229 281 338
#
# _framework density 18.519991000000001
#
# number of rings (size 3 to 8) (size 9 to 14) (size 15 to 20)
#    0.000    1.800    2.000    3.000    0.000    7.200 
#    0.000    3.000    0.000    1.800    0.000    1.400 
#    0.000    0.000    0.000    0.000    0.000    0.000 
#
# Total GULP energy -991785.419649 kJ/mol
# GULP energy per Si atom -12397.317746 kJ/mol
# Density = 1.847784 g / cm^3
# Si number density = 18.519991 Si / 1000 Ang^3
#
#
#
# Elastic Constant Matrix: (Units=GPa)
#
#
# Indices 1 2 3 4 5 6 
#
# 1 107.9863 60.2773 47.5196 0.0000 0.0000 0.0000
# 2 60.2773 107.9863 47.5196 0.0000 0.0000 0.0000
# 3 47.5196 47.5196 54.2340 0.0000 0.0000 0.0000
# 4 0.0000 0.0000 0.0000 26.7132 0.0000 0.0000
# 5 0.0000 0.0000 0.0000 0.0000 26.7132 0.0000
# 6 0.0000 0.0000 0.0000 0.0000 0.0000 133.2284
#
#
#
# Elastic Compliance Matrix: (Units=1/GPa)
#
#
# Indices 1 2 3 4 5 6 
#
# 1 0.016363 -0.004597 -0.010309 0.000000 0.000000 0.000000
# 2 -0.004597 0.016363 -0.010309 0.000000 0.000000 0.000000
# 3 -0.010309 -0.010309 0.036505 0.000000 0.000000 0.000000
# 4 0.000000 0.000000 0.000000 0.037435 0.000000 0.000000
# 5 0.000000 0.000000 0.000000 0.000000 0.037435 0.000000
# 6 0.000000 0.000000 0.000000 0.000000 0.000000 0.007506
#
#
# Mechanical properties :
#
#
# Convention : Reuss Voigt Hill
#
# Bulk Modulus (GPa) = 53.19347 64.53775 58.86561
# Shear Modulus (GPa) = 24.00336 44.99031 34.49684
#
# Velocity S-wave (km/s) = 3.60401 4.93412 4.32056
# Velocity P-wave (km/s) = 6.78993 8.20878 7.53283
#
# Compressibility (1/GPa) = 0.01879930
#
# Stress axis : x y z
#
# Youngs Moduli (GPa) = 61.11279 61.11279 27.39383
#
# Poissons Ratio (x) = 0.28095 0.28241
# Poissons Ratio (y) = 0.28095 0.28241
# Poissons Ratio (z) = 0.63003 0.63003
#
# Static dielectric constant tensor:
#      x y z
#    x 3.514350 0.000000 0.000000 
#    y 0.000000 3.514350 0.000000 
#    z 0.000000 0.000000 3.369400 
# 
# 
# High freq. dielectric constant tensor:
#      x y z
#    x 1.721900 0.000000 0.000000 
#    y 0.000000 1.721900 0.000000 
#    z 0.000000 0.000000 1.708410 
# 
# From -- ./inp_files/10647.got.cif
#   From: 2010.03.12/outbox.cif.g09.slc.cpg/sg132_6_cif.got.tgz:10647.got - 2010.04.06 17:53:44.
