data_PCOD8316024
_publ_section_title
;
Structure prediction by ZEFSAII (Michael W. Deem and Ramdas Pophale) SiO2 
 PCOD8316024
Probable space group: P 42/M M C
;
_chemical_formula_sum "Si O2"
_cell_formula_units_Z 88
_cell_length_a 16.877643
_cell_length_b 16.877643
_cell_length_c 17.332264
_cell_angle_alpha 90.000000
_cell_angle_beta 90.000000
_cell_angle_gamma 90.000000
_cell_volume 4937.179171
_symmetry_space_group_name_H-M "P 42/M M C"
_symmetry_group_IT_number 131
_symmetry_cell_setting 'tetragonal'
loop_
_space_group_symop_operation_xyz
x,y,z
-x,-y,z
-y,x,1/2+z
y,-x,1/2+z
-x,y,-z
x,-y,-z
y,x,1/2-z
-y,-x,1/2-z
-x,-y,-z
x,y,-z
y,-x,1/2-z
-y,x,1/2-z
x,-y,z
-x,y,z
-y,-x,1/2+z
y,x,1/2+z
loop_
_atom_site_type_symbol
_atom_site_label
_atom_site_fract_x
_atom_site_fract_y
_atom_site_fract_z
Si Si1 0.720483 0.591331 0.233982
Si Si2 0.093733 0.828731 0.323832
Si Si3 0.913823 0.780960 0.089537
Si Si4 0.909864 0.406609 0.500000
Si Si5 0.675318 0.772645 0.411402
Si Si6 0.179182 0.327267 0.639639
O O1 0.641681 0.641681 0.250000
O O2 0.698923 0.500000 0.245774
O O3 0.749434 0.604303 0.145841
O O4 0.790364 0.615918 0.292218
O O5 0.124237 0.875764 0.250000
O O6 0.133976 0.873147 0.395899
O O7 0.122753 0.738095 0.320667
O O8 0.000000 0.833337 0.332081
O O9 0.857993 0.708687 0.116671
O O10 0.000000 0.774259 0.131361
O O11 0.926595 0.773802 0.000000
O O12 0.904221 0.500000 0.500000
O O13 0.869474 0.376352 0.422397
O O14 0.000000 0.376213 0.500000
O O15 0.644721 0.773759 0.500000
O O16 0.746679 0.710498 0.404687
#
# Coordination Sequence:
#
# PCOD8316024 Si02
#       6
#    16  16  16   8  16  16
#     4  10  21  36  58  83 110 141 173 216 269 331
#     4  11  22  33  49  72 102 142 185 229 270 312
#     4   9  18  32  50  73 102 138 180 224 268 313
#     4  11  22  34  54  82 108 134 172 227 284 328
#     4   9  17  33  57  82 105 142 186 220 259 316
#     4  10  19  37  54  76 104 143 185 218 266 326
#
# _framework density 17.823943
#
# number of rings (size 3 to 8) (size 9 to 14) (size 15 to 20)
#    0.000    2.091    0.909    4.364    1.273    2.182 
#    0.000    1.818    0.000    2.727    0.000    5.091 
#    0.000    0.000    0.000    0.000    0.000    0.000 
#
# Total GULP energy -1090927.578224 kJ/mol
# GULP energy per Si atom -12396.904298 kJ/mol
# Density = 1.778338 g / cm^3
# Si number density = 17.823943 Si / 1000 Ang^3
#
#
#
# Elastic Constant Matrix: (Units=GPa)
#
#
# Indices 1 2 3 4 5 6 
#
# 1 106.0997 48.7801 39.1198 0.0000 0.0000 0.0000
# 2 48.7801 106.0990 39.1199 0.0000 0.0000 0.0000
# 3 39.1198 39.1199 81.0684 0.0000 0.0000 0.0000
# 4 0.0000 0.0000 0.0000 23.5765 0.0000 0.0000
# 5 0.0000 0.0000 0.0000 0.0000 23.5764 0.0000
# 6 0.0000 0.0000 0.0000 0.0000 0.0000 17.5934
#
#
#
# Elastic Compliance Matrix: (Units=1/GPa)
#
#
# Indices 1 2 3 4 5 6 
#
# 1 0.012992 -0.004454 -0.004120 0.000000 0.000000 0.000000
# 2 -0.004454 0.012992 -0.004120 0.000000 0.000000 0.000000
# 3 -0.004120 -0.004120 0.016311 0.000000 0.000000 0.000000
# 4 0.000000 0.000000 0.000000 0.042415 0.000000 0.000000
# 5 0.000000 0.000000 0.000000 0.000000 0.042415 0.000000
# 6 0.000000 0.000000 0.000000 0.000000 0.000000 0.056839
#
#
# Mechanical properties :
#
#
# Convention : Reuss Voigt Hill
#
# Bulk Modulus (GPa) = 59.14595 60.81186 59.97890
# Shear Modulus (GPa) = 23.25697 24.03243 23.64470
#
# Velocity S-wave (km/s) = 3.61614 3.67594 3.64616
# Velocity P-wave (km/s) = 7.11975 7.22557 7.17285
#
# Compressibility (1/GPa) = 0.01690733
#
# Stress axis : x y z
#
# Youngs Moduli (GPa) = 76.97069 76.96993 61.30648
#
# Poissons Ratio (x) = 0.34283 0.25258
# Poissons Ratio (y) = 0.34284 0.25259
# Poissons Ratio (z) = 0.31712 0.31712
#
# Static dielectric constant tensor:
#      x y z
#    x 3.446020 0.000000 0.000000 
#    y 0.000000 3.446020 0.000000 
#    z 0.000000 0.000000 3.436970 
# 
# 
# High freq. dielectric constant tensor:
#      x y z
#    x 1.679720 0.000000 0.000000 
#    y 0.000000 1.679720 0.000000 
#    z 0.000000 0.000000 1.700320 
# 
# From -- ./inp_files/9544.got.cif
#   From: 2010.03.12/outbox.cif.g09.slc.cpg/sg131_5_cif.got.tgz:9544.got - 2010.04.06 17:36:35.
