data_PCOD8316272
_publ_section_title
;
Structure prediction by ZEFSAII (Michael W. Deem and Ramdas Pophale) SiO2 
 PCOD8316272
Probable space group: P 42/M M C
;
_chemical_formula_sum "Si O2"
_cell_formula_units_Z 84
_cell_length_a 14.880390
_cell_length_b 14.880390
_cell_length_c 18.875018
_cell_angle_alpha 90.000000
_cell_angle_beta 90.000000
_cell_angle_gamma 90.000000
_cell_volume 4179.419859
_symmetry_space_group_name_H-M "P 42/M M C"
_symmetry_group_IT_number 131
_symmetry_cell_setting 'tetragonal'
loop_
_space_group_symop_operation_xyz
x,y,z
-x,-y,z
-y,x,1/2+z
y,-x,1/2+z
-x,y,-z
x,-y,-z
y,x,1/2-z
-y,-x,1/2-z
-x,-y,-z
x,y,-z
y,-x,1/2-z
-y,x,1/2-z
x,-y,z
-x,y,z
-y,-x,1/2+z
y,x,1/2+z
loop_
_atom_site_type_symbol
_atom_site_label
_atom_site_fract_x
_atom_site_fract_y
_atom_site_fract_z
Si Si1 0.320687 0.401880 0.309732
Si Si2 0.000000 0.604254 0.624121
Si Si3 0.319442 0.901291 0.605234
Si Si4 0.869523 0.397018 0.250755
Si Si5 0.752015 0.000000 0.000000
Si Si6 0.599764 0.718608 0.578621
Si Si7 0.103339 0.161561 0.000000
O O1 0.398502 0.398502 0.250000
O O2 0.317542 0.500000 0.345221
O O3 0.234730 0.380240 0.261974
O O4 0.328029 0.330661 0.372750
O O5 0.085961 0.620651 0.673462
O O6 0.000000 0.500000 0.594129
O O7 0.000000 0.682553 0.565617
O O8 0.325211 0.901445 0.691346
O O9 0.387069 0.825680 0.577397
O O10 0.220746 0.881989 0.571804
O O11 0.349796 0.000000 0.578205
O O12 0.890076 0.500000 0.225933
O O13 0.819328 0.914546 0.000000
O O14 0.611169 0.680038 0.500000
O O15 0.500000 0.697913 0.607477
O O16 0.000000 0.122965 0.000000
#
# Coordination Sequence:
#
# PCOD8316272 Si02
#       7
#    16   8  16  16   4  16   8
#     4  11  23  38  59  85 120 169 216 260 307 365
#     4  10  23  41  65 103 135 167 218 262 322 397
#     4  11  21  39  65  92 124 158 199 256 318 384
#     4  10  21  38  61  93 130 165 205 263 321 377
#     4  12  26  44  72  92 130 182 210 268 330 360
#     4  11  24  39  58  87 124 162 209 259 309 375
#     4  10  25  45  68  98 126 166 221 261 317 396
#
# _framework density 20.098482000000001
#
# number of rings (size 3 to 8) (size 9 to 14) (size 15 to 20)
#    0.000    1.333    3.810    1.429    2.667    2.857 
#    0.000    1.905    0.000    0.000    2.476    0.000 
#    0.000    0.000    0.000    0.000    0.000    0.000 
#
# Total GULP energy -1040650.082345 kJ/mol
# GULP energy per Si atom -12388.691456 kJ/mol
# Density = 2.005274 g / cm^3
# Si number density = 20.098482 Si / 1000 Ang^3
#
#
#
# Elastic Constant Matrix: (Units=GPa)
#
#
# Indices 1 2 3 4 5 6 
#
# 1 103.3653 59.4472 62.6249 0.0000 0.0000 0.0000
# 2 59.4472 103.3653 62.6249 0.0000 0.0000 0.0000
# 3 62.6249 62.6249 117.6701 0.0000 0.0000 0.0000
# 4 0.0000 0.0000 0.0000 26.0243 0.0000 0.0000
# 5 0.0000 0.0000 0.0000 0.0000 26.0243 0.0000
# 6 0.0000 0.0000 0.0000 0.0000 0.0000 30.7811
#
#
#
# Elastic Compliance Matrix: (Units=1/GPa)
#
#
# Indices 1 2 3 4 5 6 
#
# 1 0.016585 -0.006185 -0.005535 0.000000 0.000000 0.000000
# 2 -0.006185 0.016585 -0.005535 0.000000 0.000000 0.000000
# 3 -0.005535 -0.005535 0.014390 0.000000 0.000000 0.000000
# 4 0.000000 0.000000 0.000000 0.038426 0.000000 0.000000
# 5 0.000000 0.000000 0.000000 0.000000 0.038426 0.000000
# 6 0.000000 0.000000 0.000000 0.000000 0.000000 0.032487
#
#
# Mechanical properties :
#
#
# Convention : Reuss Voigt Hill
#
# Bulk Modulus (GPa) = 76.62833 77.08832 76.85833
# Shear Modulus (GPa) = 25.54178 25.87953 25.71065
#
# Velocity S-wave (km/s) = 3.56874 3.59226 3.58052
# Velocity P-wave (km/s) = 7.42902 7.45951 7.44428
#
# Compressibility (1/GPa) = 0.01305000
#
# Stress axis : x y z
#
# Youngs Moduli (GPa) = 60.29599 60.29599 69.49339
#
# Poissons Ratio (x) = 0.37292 0.38464
# Poissons Ratio (y) = 0.37292 0.38464
# Poissons Ratio (z) = 0.33374 0.33374
#
# Static dielectric constant tensor:
#      x y z
#    x 3.652030 0.000000 0.000000 
#    y 0.000000 3.652030 0.000000 
#    z 0.000000 0.000000 3.669850 
# 
# 
# High freq. dielectric constant tensor:
#      x y z
#    x 1.778280 0.000000 0.000000 
#    y 0.000000 1.778280 0.000000 
#    z 0.000000 0.000000 1.789970 
# 
# From -- ./inp_files/9637.got.cif
#   From: 2010.03.12/outbox.cif.g09.slc.cpg/sg131_5_cif.got.tgz:9637.got - 2010.04.06 17:36:35.
