data_PCOD8316300
_publ_section_title
;
Structure prediction by ZEFSAII (Michael W. Deem and Ramdas Pophale) SiO2 
 PCOD8316300
Probable space group: P 42/M M C
;
_chemical_formula_sum "Si O2"
_cell_formula_units_Z 72
_cell_length_a 11.841666
_cell_length_b 11.841666
_cell_length_c 27.805213
_cell_angle_alpha 90.000000
_cell_angle_beta 90.000000
_cell_angle_gamma 90.000000
_cell_volume 3898.987485
_symmetry_space_group_name_H-M "P 42/M M C"
_symmetry_group_IT_number 131
_symmetry_cell_setting 'tetragonal'
loop_
_space_group_symop_operation_xyz
x,y,z
-x,-y,z
-y,x,1/2+z
y,-x,1/2+z
-x,y,-z
x,-y,-z
y,x,1/2-z
-y,-x,1/2-z
-x,-y,-z
x,y,-z
y,-x,1/2-z
-y,x,1/2-z
x,-y,z
-x,y,z
-y,-x,1/2+z
y,x,1/2+z
loop_
_atom_site_type_symbol
_atom_site_label
_atom_site_fract_x
_atom_site_fract_y
_atom_site_fract_z
Si Si1 0.801590 0.287670 0.878485
Si Si2 0.876190 0.500000 0.713298
Si Si3 0.000000 0.364959 0.943711
Si Si4 0.500000 0.125930 0.325849
Si Si5 0.368669 0.627006 0.053831
Si Si6 0.249947 0.135466 0.796291
O O1 0.894745 0.302401 0.919504
O O2 0.805346 0.390256 0.841075
O O3 0.683900 0.288487 0.907258
O O4 0.811882 0.174726 0.845797
O O5 0.887676 0.500000 0.769857
O O6 0.818221 0.619727 0.699127
O O7 0.000000 0.500000 0.689362
O O8 0.000000 0.500000 0.935628
O O9 0.000000 0.336623 0.000000
O O10 0.500000 0.000000 0.349633
O O11 0.318332 0.500000 0.059817
O O12 0.500000 0.624407 0.063649
O O13 0.341955 0.670164 0.000000
O O14 0.188582 0.188582 0.750000
O O15 0.244705 0.000000 0.791448
#
# Coordination Sequence:
#
# PCOD8316300 Si02
#       6
#    16   8   8   8  16  16
#     4  12  20  34  57  83 119 149 190 241 294 345
#     4   9  20  40  58  76 112 150 197 238 279 337
#     4  11  22  36  61  95 121 151 202 253 297 348
#     4  11  18  32  55  84 110 153 190 235 295 341
#     4   9  18  32  51  79 114 149 185 231 292 352
#     4  11  25  40  60  86 115 153 197 239 284 345
#
# _framework density 18.466332999999999
#
# number of rings (size 3 to 8) (size 9 to 14) (size 15 to 20)
#    0.000    1.444    5.556    1.333    3.111    2.000 
#    0.000    0.000    0.000    5.000    0.000    1.556 
#    0.000    0.000    0.000    0.000    0.000    0.000 
#
# Total GULP energy -892161.973004 kJ/mol
# GULP energy per Si atom -12391.138514 kJ/mol
# Density = 1.842430 g / cm^3
# Si number density = 18.466333 Si / 1000 Ang^3
#
#
#
# Elastic Constant Matrix: (Units=GPa)
#
#
# Indices 1 2 3 4 5 6 
#
# 1 81.2472 33.8353 47.1276 0.0000 0.0000 0.0000
# 2 33.8353 81.2472 47.1276 0.0000 0.0000 0.0000
# 3 47.1276 47.1276 120.3416 0.0000 0.0000 0.0000
# 4 0.0000 0.0000 0.0000 -9.7557 0.0000 0.0000
# 5 0.0000 0.0000 0.0000 0.0000 -9.7557 0.0000
# 6 0.0000 0.0000 0.0000 0.0000 0.0000 14.8029
#
#
#
# Elastic Compliance Matrix: (Units=1/GPa)
#
#
# Indices 1 2 3 4 5 6 
#
# 1 0.016942 -0.004150 -0.005010 0.000000 0.000000 0.000000
# 2 -0.004150 0.016942 -0.005010 0.000000 0.000000 0.000000
# 3 -0.005010 -0.005010 0.012233 0.000000 0.000000 0.000000
# 4 0.000000 0.000000 0.000000 -0.102504 0.000000 0.000000
# 5 0.000000 0.000000 0.000000 0.000000 -0.102504 0.000000
# 6 0.000000 0.000000 0.000000 0.000000 0.000000 0.067554
#
#
# Mechanical properties :
#
#
# Convention : Reuss Voigt Hill
#
# Bulk Modulus (GPa) = 56.24452 59.89078 58.06765
# Shear Modulus (GPa) = -87.60898 9.37467 -39.11716
#
# Velocity S-wave (km/s) = -6.89533 2.25558 -4.60749
# Velocity P-wave (km/s) = 5.73324 6.26788 1.79113
#
# Compressibility (1/GPa) = 0.01777951
#
# Stress axis : x y z
#
# Youngs Moduli (GPa) = 59.02444 59.02444 81.74300
#
# Poissons Ratio (x) = 0.24493 0.40951
# Poissons Ratio (y) = 0.24493 0.40951
# Poissons Ratio (z) = 0.29570 0.29570
#
# Static dielectric constant tensor:
#      x y z
#    x 3.402180 0.000000 0.000000 
#    y 0.000000 3.402180 0.000000 
#    z 0.000000 0.000000 3.442600 
# 
# 
# High freq. dielectric constant tensor:
#      x y z
#    x 1.697080 0.000000 0.000000 
#    y 0.000000 1.697080 0.000000 
#    z 0.000000 0.000000 1.727950 
# 
# From -- ./inp_files/12151.got.cif
#   From: 2010.03.12/outbox.cif.g09.slc.cpg/sg131_7_cif.got.tgz:12151.got - 2010.04.06 17:36:35.
