data_PCOD8316159
_publ_section_title
;
Structure prediction by ZEFSAII (Michael W. Deem and Ramdas Pophale) SiO2 
 PCOD8316159
Probable space group: P 42/M M C
;
_chemical_formula_sum "Si O2"
_cell_formula_units_Z 104
_cell_length_a 26.581506
_cell_length_b 26.581506
_cell_length_c 8.670561
_cell_angle_alpha 90.000000
_cell_angle_beta 90.000000
_cell_angle_gamma 90.000000
_cell_volume 6126.414308
_symmetry_space_group_name_H-M "P 42/M M C"
_symmetry_group_IT_number 131
_symmetry_cell_setting 'tetragonal'
loop_
_space_group_symop_operation_xyz
x,y,z
-x,-y,z
-y,x,1/2+z
y,-x,1/2+z
-x,y,-z
x,-y,-z
y,x,1/2-z
-y,-x,1/2-z
-x,-y,-z
x,y,-z
y,-x,1/2-z
-y,x,1/2-z
x,-y,z
-x,y,z
-y,-x,1/2+z
y,x,1/2+z
loop_
_atom_site_type_symbol
_atom_site_label
_atom_site_fract_x
_atom_site_fract_y
_atom_site_fract_z
Si Si1 0.873841 0.584129 0.818628
Si Si2 0.057950 0.132740 0.318097
Si Si3 0.866670 0.791131 0.817942
Si Si4 0.341107 0.265857 0.179038
Si Si5 0.154580 0.686494 0.682197
Si Si6 0.940610 0.500000 0.678744
Si Si7 0.555068 0.228208 0.177614
O O1 0.876796 0.637704 0.732999
O O2 0.919281 0.549925 0.759089
O O3 0.821178 0.556944 0.782300
O O4 0.879107 0.592354 0.000000
O O5 0.082138 0.082138 0.250000
O O6 0.066311 0.133700 0.500000
O O7 0.083792 0.181641 0.245464
O O8 0.000000 0.133431 0.271112
O O9 0.816407 0.816407 0.750000
O O10 0.869720 0.733536 0.767993
O O11 0.864947 0.796040 0.000000
O O12 0.313487 0.313487 0.250000
O O13 0.318848 0.212641 0.237054
O O14 0.400709 0.267419 0.223095
O O15 0.332425 0.270668 0.000000
O O16 0.150454 0.693698 0.500000
O O17 0.924840 0.500000 0.500000
O O18 0.000000 0.500000 0.701300
O O19 0.500000 0.253679 0.198958
O O20 0.563812 0.211189 0.000000
#
# Coordination Sequence:
#
# PCOD8316159 Si02
#       7
#    16  16  16  16  16   8  16
#     4  11  21  33  52  78 102 124 162 213 261 302
#     4  10  21  37  57  80 105 134 167 203 247 300
#     4  11  21  34  54  79 107 138 172 209 250 300
#     4   9  18  29  44  69  98 132 165 202 248 294
#     4  10  20  35  53  73 101 137 174 207 248 303
#     4  11  23  39  57  73  95 131 169 207 256 309
#     4   9  17  31  50  68  94 133 173 205 244 303
#
# _framework density 16.975671999999999
#
# number of rings (size 3 to 8) (size 9 to 14) (size 15 to 20)
#    0.000    1.923    0.769    6.231    0.000    6.308 
#    0.000    1.538    0.000    4.615    0.000    0.000 
#    0.000    0.308    0.000    3.846    0.000    0.000 
#
# Total GULP energy -1289629.066588 kJ/mol
# GULP energy per Si atom -12400.279486 kJ/mol
# Density = 1.693703 g / cm^3
# Si number density = 16.975672 Si / 1000 Ang^3
#
#
#
# Elastic Constant Matrix: (Units=GPa)
#
#
# Indices 1 2 3 4 5 6 
#
# 1 120.6476 58.9602 36.6581 0.0000 0.0000 0.0000
# 2 58.9602 120.6476 36.6581 0.0000 0.0000 0.0000
# 3 36.6581 36.6581 75.0228 0.0000 0.0000 0.0000
# 4 0.0000 0.0000 0.0000 26.9999 0.0000 0.0000
# 5 0.0000 0.0000 0.0000 0.0000 26.9999 0.0000
# 6 0.0000 0.0000 0.0000 0.0000 0.0000 22.2385
#
#
#
# Elastic Compliance Matrix: (Units=1/GPa)
#
#
# Indices 1 2 3 4 5 6 
#
# 1 0.011583 -0.004628 -0.003398 0.000000 0.000000 0.000000
# 2 -0.004628 0.011583 -0.003398 0.000000 0.000000 0.000000
# 3 -0.003398 -0.003398 0.016650 0.000000 0.000000 0.000000
# 4 0.000000 0.000000 0.000000 0.037037 0.000000 0.000000
# 5 0.000000 0.000000 0.000000 0.000000 0.037037 0.000000
# 6 0.000000 0.000000 0.000000 0.000000 0.000000 0.044967
#
#
# Mechanical properties :
#
#
# Convention : Reuss Voigt Hill
#
# Bulk Modulus (GPa) = 58.93883 64.54118 61.74000
# Shear Modulus (GPa) = 26.68626 27.51709 27.10168
#
# Velocity S-wave (km/s) = 3.96918 4.03050 3.99996
# Velocity P-wave (km/s) = 7.47000 7.73060 7.60142
#
# Compressibility (1/GPa) = 0.01696674
#
# Stress axis : x y z
#
# Youngs Moduli (GPa) = 86.33475 86.33475 60.05891
#
# Poissons Ratio (x) = 0.39955 0.20410
# Poissons Ratio (y) = 0.39955 0.20410
# Poissons Ratio (z) = 0.29339 0.29339
#
# Static dielectric constant tensor:
#      x y z
#    x 3.214270 0.000000 0.000000 
#    y 0.000000 3.214270 0.000000 
#    z 0.000000 0.000000 3.246820 
# 
# 
# High freq. dielectric constant tensor:
#      x y z
#    x 1.643200 0.000000 0.000000 
#    y 0.000000 1.643200 0.000000 
#    z 0.000000 0.000000 1.667190 
# 
# From -- ./inp_files/2567.got.cif
#   From: 2010.03.12/outbox.cif.g09.slc.cpg/sg131_2_cif.got.tgz:2567.got - 2010.04.06 17:36:35.
