data_PCOD8316133
_publ_section_title
;
Structure prediction by ZEFSAII (Michael W. Deem and Ramdas Pophale) SiO2 
 PCOD8316133
Probable space group: P 42/M M C
;
_chemical_formula_sum "Si O2"
_cell_formula_units_Z 80
_cell_length_a 15.138612
_cell_length_b 15.138612
_cell_length_c 19.202609
_cell_angle_alpha 90.000000
_cell_angle_beta 90.000000
_cell_angle_gamma 90.000000
_cell_volume 4400.807331
_symmetry_space_group_name_H-M "P 42/M M C"
_symmetry_group_IT_number 131
_symmetry_cell_setting 'tetragonal'
loop_
_space_group_symop_operation_xyz
x,y,z
-x,-y,z
-y,x,1/2+z
y,-x,1/2+z
-x,y,-z
x,-y,-z
y,x,1/2-z
-y,-x,1/2-z
-x,-y,-z
x,y,-z
y,-x,1/2-z
-y,x,1/2-z
x,-y,z
-x,y,z
-y,-x,1/2+z
y,x,1/2+z
loop_
_atom_site_type_symbol
_atom_site_label
_atom_site_fract_x
_atom_site_fract_y
_atom_site_fract_z
Si Si1 0.401348 0.813519 0.422348
Si Si2 0.101414 0.749584 0.580306
Si Si3 0.398893 0.900308 0.189364
Si Si4 0.264555 0.599696 0.780924
Si Si5 0.223371 0.904395 0.580612
O O1 0.390243 0.772057 0.500000
O O2 0.500000 0.855391 0.413939
O O3 0.388622 0.737074 0.364672
O O4 0.327841 0.887916 0.409804
O O5 0.125710 0.730252 0.500000
O O6 0.121438 0.660494 0.622328
O O7 0.162864 0.826976 0.613276
O O8 0.000000 0.779648 0.588087
O O9 0.500000 0.889944 0.165004
O O10 0.375833 0.832605 0.251395
O O11 0.380501 0.000000 0.216639
O O12 0.338238 0.661762 0.750000
O O13 0.289818 0.500000 0.760203
O O14 0.198062 0.908705 0.500000
O O15 0.202129 0.000000 0.615124
#
# Coordination Sequence:
#
# PCOD8316133 Si02
#       5
#    16  16  16  16  16
#     4   9  18  32  50  72  97 126 161 201 243 284
#     4   9  17  29  46  68  95 129 167 205 245 291
#     4   9  18  32  49  70  95 122 157 203 252 298
#     4  10  20  34  53  75 100 131 163 196 238 287
#     4   9  17  28  43  66  96 128 162 201 243 286
#
# _framework density 18.178481999999999
#
# number of rings (size 3 to 8) (size 9 to 14) (size 15 to 20)
#    0.000    2.800    0.000    1.200    0.000    2.200 
#    0.000    8.000    0.000    1.800    0.000    2.800 
#    0.000    4.800    0.000    0.200    0.000    0.400 
#
# Total GULP energy -991484.699874 kJ/mol
# GULP energy per Si atom -12393.558748 kJ/mol
# Density = 1.813711 g / cm^3
# Si number density = 18.178482 Si / 1000 Ang^3
#
#
#
# Elastic Constant Matrix: (Units=GPa)
#
#
# Indices 1 2 3 4 5 6 
#
# 1 105.6964 70.1084 51.9215 0.0000 0.0000 0.0000
# 2 70.1084 105.6991 51.9211 0.0000 0.0000 0.0000
# 3 51.9215 51.9211 87.9074 0.0000 0.0000 0.0000
# 4 0.0000 0.0000 0.0000 18.2571 0.0000 0.0000
# 5 0.0000 0.0000 0.0000 0.0000 18.2575 0.0000
# 6 0.0000 0.0000 0.0000 0.0000 0.0000 25.8805
#
#
#
# Elastic Compliance Matrix: (Units=1/GPa)
#
#
# Indices 1 2 3 4 5 6 
#
# 1 0.018417 -0.009681 -0.005160 0.000000 0.000000 0.000000
# 2 -0.009681 0.018417 -0.005159 0.000000 0.000000 0.000000
# 3 -0.005160 -0.005159 0.017471 0.000000 0.000000 0.000000
# 4 0.000000 0.000000 0.000000 0.054773 0.000000 0.000000
# 5 0.000000 0.000000 0.000000 0.000000 0.054772 0.000000
# 6 0.000000 0.000000 0.000000 0.000000 0.000000 0.038639
#
#
# Mechanical properties :
#
#
# Convention : Reuss Voigt Hill
#
# Bulk Modulus (GPa) = 69.91326 71.91165 70.91245
# Shear Modulus (GPa) = 20.22181 20.83581 20.52881
#
# Velocity S-wave (km/s) = 3.33889 3.38920 3.36414
# Velocity P-wave (km/s) = 7.30802 7.41351 7.36095
#
# Compressibility (1/GPa) = 0.01430344
#
# Stress axis : x y z
#
# Youngs Moduli (GPa) = 54.29657 54.29892 57.23924
#
# Poissons Ratio (x) = 0.52568 0.29535
# Poissons Ratio (y) = 0.52566 0.29532
# Poissons Ratio (z) = 0.28017 0.28015
#
# Static dielectric constant tensor:
#      x y z
#    x 3.414580 0.000000 0.000000 
#    y 0.000000 3.414580 0.000000 
#    z 0.000000 0.000000 3.306730 
# 
# 
# High freq. dielectric constant tensor:
#      x y z
#    x 1.698010 0.000000 0.000000 
#    y 0.000000 1.698010 0.000000 
#    z 0.000000 0.000000 1.689160 
# 
# From -- ./inp_files/9375.got.cif
#   From: 2010.03.12/outbox.cif.g09.slc.cpg/sg131_5_cif.got.tgz:9375.got - 2010.04.06 17:36:35.
