data_PCOD8316223
_publ_section_title
;
Structure prediction by ZEFSAII (Michael W. Deem and Ramdas Pophale) SiO2 
 PCOD8316223
Probable space group: P 42/M M C
;
_chemical_formula_sum "Si O2"
_cell_formula_units_Z 112
_cell_length_a 14.399790
_cell_length_b 14.399790
_cell_length_c 29.511878
_cell_angle_alpha 90.000000
_cell_angle_beta 90.000000
_cell_angle_gamma 90.000000
_cell_volume 6119.404536
_symmetry_space_group_name_H-M "P 42/M M C"
_symmetry_group_IT_number 131
_symmetry_cell_setting 'tetragonal'
loop_
_space_group_symop_operation_xyz
x,y,z
-x,-y,z
-y,x,1/2+z
y,-x,1/2+z
-x,y,-z
x,-y,-z
y,x,1/2-z
-y,-x,1/2-z
-x,-y,-z
x,y,-z
y,-x,1/2-z
-y,x,1/2-z
x,-y,z
-x,y,z
-y,-x,1/2+z
y,x,1/2+z
loop_
_atom_site_type_symbol
_atom_site_label
_atom_site_fract_x
_atom_site_fract_y
_atom_site_fract_z
Si Si1 0.610141 0.602578 0.450257
Si Si2 0.108552 0.238507 0.223001
Si Si3 0.202309 0.889244 0.947965
Si Si4 0.258148 0.608146 0.775415
Si Si5 0.241569 0.895186 0.381171
Si Si6 0.896912 0.402381 0.446364
Si Si7 0.394028 0.750324 0.619920
O O1 0.644354 0.637032 0.500000
O O2 0.650312 0.500000 0.441273
O O3 0.500000 0.599565 0.449114
O O4 0.648182 0.668774 0.411113
O O5 0.152161 0.152161 0.250000
O O6 0.163195 0.334526 0.234930
O O7 0.121213 0.211034 0.170582
O O8 0.000000 0.251859 0.235777
O O9 0.129291 0.843038 0.914355
O O10 0.304673 0.850283 0.931939
O O11 0.197465 0.000000 0.942663
O O12 0.180432 0.861374 0.000000
O O13 0.345699 0.654302 0.750000
O O14 0.245571 0.500000 0.760551
O O15 0.281776 0.614617 0.828373
O O16 0.335197 0.840457 0.392049
O O17 0.269445 0.000000 0.390097
O O18 0.905159 0.398740 0.500000
O O19 0.845626 0.500000 0.431558
O O20 0.000000 0.405266 0.425506
O O21 0.500000 0.773672 0.607234
#
# Coordination Sequence:
#
# PCOD8316223 Si02
#       7
#    16  16  16  16  16  16  16
#     4   8  14  26  45  68  94 126 164 204 244 285
#     4   9  19  36  56  77 100 127 164 212 262 307
#     4   9  18  32  49  70  99 134 166 200 250 307
#     4   9  18  32  51  78 109 137 166 201 245 303
#     4  10  21  35  51  73  98 126 165 208 247 292
#     4   7  10  20  41  66  89 116 153 193 229 271
#     4   9  18  33  52  73  99 131 164 202 249 294
#
# _framework density 18.302434999999999
#
# number of rings (size 3 to 8) (size 9 to 14) (size 15 to 20)
#    0.000    3.286    0.000    1.714    0.000    3.143 
#    0.000    7.143    0.000    5.143    0.000    9.000 
#    0.000    0.000    0.000    0.000    0.000    0.000 
#
# Total GULP energy -1387530.313739 kJ/mol
# GULP energy per Si atom -12388.663516 kJ/mol
# Density = 1.826078 g / cm^3
# Si number density = 18.302435 Si / 1000 Ang^3
#
#
#
# Elastic Constant Matrix: (Units=GPa)
#
#
# Indices 1 2 3 4 5 6 
#
# 1 111.2306 52.7938 56.4371 0.0000 0.0000 0.0000
# 2 52.7938 111.2313 56.4373 0.0000 0.0000 0.0000
# 3 56.4371 56.4373 74.8035 0.0000 0.0000 0.0000
# 4 0.0000 0.0000 0.0000 24.5363 0.0000 0.0000
# 5 0.0000 0.0000 0.0000 0.0000 24.5362 0.0000
# 6 0.0000 0.0000 0.0000 0.0000 0.0000 10.9751
#
#
#
# Elastic Compliance Matrix: (Units=1/GPa)
#
#
# Indices 1 2 3 4 5 6 
#
# 1 0.014896 -0.002216 -0.009567 0.000000 0.000000 0.000000
# 2 -0.002216 0.014896 -0.009567 0.000000 0.000000 0.000000
# 3 -0.009567 -0.009567 0.027804 0.000000 0.000000 0.000000
# 4 0.000000 0.000000 0.000000 0.040756 0.000000 0.000000
# 5 0.000000 0.000000 0.000000 0.000000 0.040756 0.000000
# 6 0.000000 0.000000 0.000000 0.000000 0.000000 0.091115
#
#
# Mechanical properties :
#
#
# Convention : Reuss Voigt Hill
#
# Bulk Modulus (GPa) = 67.12689 69.84464 68.48576
# Shear Modulus (GPa) = 17.99280 20.78267 19.38774
#
# Velocity S-wave (km/s) = 3.13882 3.37339 3.25822
# Velocity P-wave (km/s) = 7.06345 7.30871 7.18713
#
# Compressibility (1/GPa) = 0.01489716
#
# Stress axis : x y z
#
# Youngs Moduli (GPa) = 67.13086 67.13137 35.96596
#
# Poissons Ratio (x) = 0.14877 0.34408
# Poissons Ratio (y) = 0.14877 0.34408
# Poissons Ratio (z) = 0.64223 0.64223
#
# Static dielectric constant tensor:
#      x y z
#    x 3.478970 0.000000 0.000000 
#    y 0.000000 3.478970 0.000000 
#    z 0.000000 0.000000 3.303970 
# 
# 
# High freq. dielectric constant tensor:
#      x y z
#    x 1.707260 0.000000 0.000000 
#    y 0.000000 1.707260 0.000000 
#    z 0.000000 0.000000 1.687590 
# 
# From -- ./inp_files/12465.got.cif
#   From: 2010.03.12/outbox.cif.g09.slc.cpg/sg131_7_cif.got.tgz:12465.got - 2010.04.06 17:36:35.
