data_PCOD8316013
_publ_section_title
;
Structure prediction by ZEFSAII (Michael W. Deem and Ramdas Pophale) SiO2 
 PCOD8316013
Probable space group: P 42/M M C
;
_chemical_formula_sum "Si O2"
_cell_formula_units_Z 72
_cell_length_a 12.103952
_cell_length_b 12.103952
_cell_length_c 27.278637
_cell_angle_alpha 90.000000
_cell_angle_beta 90.000000
_cell_angle_gamma 90.000000
_cell_volume 3996.474554
_symmetry_space_group_name_H-M "P 42/M M C"
_symmetry_group_IT_number 131
_symmetry_cell_setting 'tetragonal'
loop_
_space_group_symop_operation_xyz
x,y,z
-x,-y,z
-y,x,1/2+z
y,-x,1/2+z
-x,y,-z
x,-y,-z
y,x,1/2-z
-y,-x,1/2-z
-x,-y,-z
x,y,-z
y,-x,1/2-z
-y,x,1/2-z
x,-y,z
-x,y,z
-y,-x,1/2+z
y,x,1/2+z
loop_
_atom_site_type_symbol
_atom_site_label
_atom_site_fract_x
_atom_site_fract_y
_atom_site_fract_z
Si Si1 0.125778 0.740057 0.555246
Si Si2 0.798671 0.500000 0.555909
Si Si3 0.500000 0.374033 0.137194
Si Si4 0.285978 0.369267 0.799935
Si Si5 0.868303 0.705275 0.881297
Si Si6 0.500000 0.130784 0.554451
O O1 0.172156 0.761742 0.500000
O O2 0.131600 0.609884 0.568358
O O3 0.185980 0.815304 0.595414
O O4 0.000000 0.777707 0.557870
O O5 0.761357 0.500000 0.500000
O O6 0.687267 0.500000 0.586151
O O7 0.500000 0.500000 0.122280
O O8 0.607559 0.342692 0.167755
O O9 0.301347 0.301347 0.750000
O O10 0.273615 0.500000 0.789483
O O11 0.177915 0.320636 0.827051
O O12 0.827940 0.606624 0.916470
O O13 0.000000 0.717204 0.877983
O O14 0.500000 0.182848 0.500000
O O15 0.500000 0.000000 0.551160
#
# Coordination Sequence:
#
# PCOD8316013 Si02
#       6
#    16   8   8  16  16   8
#     4  10  21  37  58  84 117 160 204 241 280 337
#     4  10  19  35  57  85 121 156 192 236 288 344
#     4  10  20  33  56  89 116 148 184 229 293 356
#     4  11  21  37  61  86 114 149 192 243 295 352
#     4  11  22  37  58  85 119 156 195 240 293 347
#     4   9  18  33  54  82 117 155 191 228 279 347
#
# _framework density 18.015878000000001
#
# number of rings (size 3 to 8) (size 9 to 14) (size 15 to 20)
#    0.000    1.667    4.444    1.000    0.000    3.333 
#    0.000    2.222    0.000    0.000    0.000    0.000 
#    0.000    0.000    0.000    0.000    0.000    0.000 
#
# Total GULP energy -892822.064383 kJ/mol
# GULP energy per Si atom -12400.306450 kJ/mol
# Density = 1.797487 g / cm^3
# Si number density = 18.015878 Si / 1000 Ang^3
#
#
#
# Elastic Constant Matrix: (Units=GPa)
#
#
# Indices 1 2 3 4 5 6 
#
# 1 93.4342 37.6666 54.2056 0.0000 0.0000 0.0000
# 2 37.6666 93.4342 54.2056 0.0000 0.0000 0.0000
# 3 54.2056 54.2056 120.3628 0.0000 0.0000 0.0000
# 4 0.0000 0.0000 0.0000 28.0224 0.0000 0.0000
# 5 0.0000 0.0000 0.0000 0.0000 28.0224 0.0000
# 6 0.0000 0.0000 0.0000 0.0000 0.0000 18.6950
#
#
#
# Elastic Compliance Matrix: (Units=1/GPa)
#
#
# Indices 1 2 3 4 5 6 
#
# 1 0.015043 -0.002889 -0.005474 0.000000 0.000000 0.000000
# 2 -0.002889 0.015043 -0.005474 0.000000 0.000000 0.000000
# 3 -0.005474 -0.005474 0.013238 0.000000 0.000000 0.000000
# 4 0.000000 0.000000 0.000000 0.035686 0.000000 0.000000
# 5 0.000000 0.000000 0.000000 0.000000 0.035686 0.000000
# 6 0.000000 0.000000 0.000000 0.000000 0.000000 0.053490
#
#
# Mechanical properties :
#
#
# Convention : Reuss Voigt Hill
#
# Bulk Modulus (GPa) = 63.88977 66.59855 65.24416
# Shear Modulus (GPa) = 24.86638 25.69151 25.27894
#
# Velocity S-wave (km/s) = 3.71920 3.78040 3.74993
# Velocity P-wave (km/s) = 7.34733 7.49013 7.41908
#
# Compressibility (1/GPa) = 0.01565196
#
# Stress axis : x y z
#
# Youngs Moduli (GPa) = 66.47718 66.47718 75.53860
#
# Poissons Ratio (x) = 0.19204 0.41346
# Poissons Ratio (y) = 0.19204 0.41346
# Poissons Ratio (z) = 0.36387 0.36387
#
# Static dielectric constant tensor:
#      x y z
#    x 3.245970 0.000000 0.000000 
#    y 0.000000 3.245970 0.000000 
#    z 0.000000 0.000000 3.341350 
# 
# 
# High freq. dielectric constant tensor:
#      x y z
#    x 1.691710 0.000000 0.000000 
#    y 0.000000 1.691710 0.000000 
#    z 0.000000 0.000000 1.692800 
# 
# From -- ./inp_files/12177.got.cif
#   From: 2010.03.12/outbox.cif.g09.slc.cpg/sg131_7_cif.got.tgz:12177.got - 2010.04.06 17:36:35.
