data_PCOD8316781
_publ_section_title
;
Structure prediction by ZEFSAII (Michael W. Deem and Ramdas Pophale) SiO2 
 PCOD8316781
Probable space group: P 42/M C M
;
_chemical_formula_sum "Si O2"
_cell_formula_units_Z 112
_cell_length_a 15.541736
_cell_length_b 15.541736
_cell_length_c 22.818178
_cell_angle_alpha 90.000000
_cell_angle_beta 90.000000
_cell_angle_gamma 90.000000
_cell_volume 5511.629535
_symmetry_space_group_name_H-M "P 42/M C M"
_symmetry_group_IT_number 132
_symmetry_cell_setting 'tetragonal'
loop_
_space_group_symop_operation_xyz
x,y,z
-y,x,1/2+z
-x,-y,z
y,-x,1/2+z
x,-y,1/2-z
-x,y,1/2-z
y,x,-z
-y,-x,-z
-x,-y,-z
y,-x,1/2-z
x,y,-z
-y,x,1/2-z
-x,y,1/2+z
x,-y,1/2+z
-y,-x,z
y,x,z
loop_
_atom_site_type_symbol
_atom_site_label
_atom_site_fract_x
_atom_site_fract_y
_atom_site_fract_z
Si Si1 0.001407 0.138547 0.682057
Si Si2 0.685016 0.042898 0.358379
Si Si3 0.834793 0.601656 0.064994
Si Si4 0.323857 0.815288 0.732589
Si Si5 0.088915 0.421018 0.567390
Si Si6 0.697864 0.439009 0.345471
Si Si7 0.760375 0.622356 0.354346
O O1 0.919453 0.080548 0.666825
O O2 0.002054 0.222396 0.641300
O O3 0.000000 0.164776 0.750000
O O4 0.088523 0.088523 0.666936
O O5 0.683776 0.124621 0.402130
O O6 0.669842 0.087864 0.294297
O O7 0.614817 0.975651 0.382749
O O8 0.907739 0.525319 0.068039
O O9 0.743525 0.577621 0.092384
O O10 0.814502 0.630014 0.000000
O O11 0.228507 0.771494 0.724871
O O12 0.394886 0.753382 0.704984
O O13 0.348545 0.822852 0.800949
O O14 0.070149 0.389031 0.500000
O O15 0.184197 0.393790 0.587508
O O16 0.600967 0.399034 0.346235
O O17 0.700407 0.541280 0.335095
O O18 0.698395 0.698395 0.372025
#
# Coordination Sequence:
#
# PCOD8316781 Si02
#       7
#    16  16  16  16  16  16  16
#     4   9  20  38  57  79 110 144 177 220 272 325
#     4  11  20  32  60  87 107 142 188 232 275 345
#     4   9  19  37  57  80 113 148 184 235 292 337
#     4   9  19  34  53  83 118 145 179 233 289 336
#     4  10  22  38  56  80 113 151 191 238 289 339
#     4   9  18  34  55  81 114 150 191 237 281 333
#     4  10  21  36  55  79 114 157 193 235 287 336
#
# _framework density 20.32067
#
# number of rings (size 3 to 8) (size 9 to 14) (size 15 to 20)
#    0.000    2.429    0.000    2.143    2.000    3.143 
#    0.000    0.000    3.143    9.000    0.000    8.000 
#    0.000    0.000    0.000    0.000    0.000    0.000 
#
# Total GULP energy -1387714.130122 kJ/mol
# GULP energy per Si atom -12390.304733 kJ/mol
# Density = 2.027442 g / cm^3
# Si number density = 20.320670 Si / 1000 Ang^3
#
#
#
# Elastic Constant Matrix: (Units=GPa)
#
#
# Indices 1 2 3 4 5 6 
#
# 1 83.0517 36.6035 38.8663 0.0000 0.0000 0.0000
# 2 36.6035 83.0517 38.8663 0.0000 0.0000 0.0000
# 3 38.8663 38.8663 74.2195 0.0000 0.0000 0.0000
# 4 0.0000 0.0000 0.0000 23.7211 0.0000 0.0000
# 5 0.0000 0.0000 0.0000 0.0000 23.7211 0.0000
# 6 0.0000 0.0000 0.0000 0.0000 0.0000 28.9460
#
#
#
# Elastic Compliance Matrix: (Units=1/GPa)
#
#
# Indices 1 2 3 4 5 6 
#
# 1 0.017098 -0.004432 -0.006633 0.000000 0.000000 0.000000
# 2 -0.004432 0.017098 -0.006633 0.000000 0.000000 0.000000
# 3 -0.006633 -0.006633 0.020420 0.000000 0.000000 0.000000
# 4 0.000000 0.000000 0.000000 0.042157 0.000000 0.000000
# 5 0.000000 0.000000 0.000000 0.000000 0.042157 0.000000
# 6 0.000000 0.000000 0.000000 0.000000 0.000000 0.034547
#
#
# Mechanical properties :
#
#
# Convention : Reuss Voigt Hill
#
# Bulk Modulus (GPa) = 52.02540 52.11055 52.06798
# Shear Modulus (GPa) = 23.22573 23.67674 23.45123
#
# Velocity S-wave (km/s) = 3.38444 3.41714 3.40083
# Velocity P-wave (km/s) = 6.39768 6.42409 6.41090
#
# Compressibility (1/GPa) = 0.01922138
#
# Stress axis : x y z
#
# Youngs Moduli (GPa) = 58.48681 58.48681 48.97049
#
# Poissons Ratio (x) = 0.25919 0.32482
# Poissons Ratio (y) = 0.25919 0.32482
# Poissons Ratio (z) = 0.38794 0.38794
#
# Static dielectric constant tensor:
#      x y z
#    x 3.636100 0.000000 0.000000 
#    y 0.000000 3.636100 0.000000 
#    z 0.000000 0.000000 3.593160 
# 
# 
# High freq. dielectric constant tensor:
#      x y z
#    x 1.788010 0.000000 0.000000 
#    y 0.000000 1.788010 0.000000 
#    z 0.000000 0.000000 1.780120 
# 
# From -- ./inp_files/9112.got.cif
#   From: 2010.03.12/outbox.cif.g09.slc.cpg/sg132_5_cif.got.tgz:9112.got - 2010.04.06 17:53:44.
