data_PCOD8316829
_publ_section_title
;
Structure prediction by ZEFSAII (Michael W. Deem and Ramdas Pophale) SiO2 
 PCOD8316829
Probable space group: P 42/M C M
;
_chemical_formula_sum "Si O2"
_cell_formula_units_Z 80
_cell_length_a 11.541724
_cell_length_b 11.541724
_cell_length_c 28.282980
_cell_angle_alpha 90.000000
_cell_angle_beta 90.000000
_cell_angle_gamma 90.000000
_cell_volume 3767.615161
_symmetry_space_group_name_H-M "P 42/M C M"
_symmetry_group_IT_number 132
_symmetry_cell_setting 'tetragonal'
loop_
_space_group_symop_operation_xyz
x,y,z
-y,x,1/2+z
-x,-y,z
y,-x,1/2+z
x,-y,1/2-z
-x,y,1/2-z
y,x,-z
-y,-x,-z
-x,-y,-z
y,-x,1/2-z
x,y,-z
-y,x,1/2-z
-x,y,1/2+z
x,-y,1/2+z
-y,-x,z
y,x,z
loop_
_atom_site_type_symbol
_atom_site_label
_atom_site_fract_x
_atom_site_fract_y
_atom_site_fract_z
Si Si1 0.651280 0.839702 0.552097
Si Si2 0.237798 0.054081 0.699841
Si Si3 0.864561 0.526277 0.697118
Si Si4 0.764343 0.056450 0.397141
Si Si5 0.760236 0.574792 0.107913
O O1 0.616319 0.887487 0.500000
O O2 0.729362 0.729362 0.545856
O O3 0.538958 0.790753 0.578421
O O4 0.727970 0.936174 0.579003
O O5 0.113852 0.113852 0.704260
O O6 0.336471 0.148508 0.686728
O O7 0.274626 0.000000 0.750000
O O8 0.230158 0.956756 0.659633
O O9 0.824613 0.500000 0.750000
O O10 0.780778 0.453639 0.663066
O O11 0.000000 0.500000 0.687254
O O12 0.890024 0.109977 0.413483
O O13 0.668557 0.149541 0.410693
O O14 0.629673 0.629673 0.101718
#
# Coordination Sequence:
#
# PCOD8316829 Si02
#       5
#    16  16  16  16  16
#     4  11  25  45  68  94 127 168 214 269 331 392
#     4  12  23  36  59  92 130 172 213 258 316 384
#     4  11  19  37  62  88 127 171 218 262 316 382
#     4  11  23  40  64  96 131 167 212 266 323 388
#     4  11  23  41  67  95 127 167 217 272 324 383
#
# _framework density 21.233592999999999
#
# number of rings (size 3 to 8) (size 9 to 14) (size 15 to 20)
#    0.000    0.800    6.000    1.800    0.000    7.800 
#    0.000    4.000    0.000    0.000    0.000    1.400 
#    0.000    0.000    0.000    0.000    0.000    0.000 
#
# Total GULP energy -991381.340248 kJ/mol
# GULP energy per Si atom -12392.266753 kJ/mol
# Density = 2.118526 g / cm^3
# Si number density = 21.233593 Si / 1000 Ang^3
#
#
#
# Elastic Constant Matrix: (Units=GPa)
#
#
# Indices 1 2 3 4 5 6 
#
# 1 86.8647 74.3755 45.4655 0.0000 0.0000 0.0000
# 2 74.3755 86.8647 45.4655 0.0000 0.0000 0.0000
# 3 45.4655 45.4655 127.6238 0.0000 0.0000 0.0000
# 4 0.0000 0.0000 0.0000 16.4743 0.0000 0.0000
# 5 0.0000 0.0000 0.0000 0.0000 16.4743 0.0000
# 6 0.0000 0.0000 0.0000 0.0000 0.0000 37.9729
#
#
#
# Elastic Compliance Matrix: (Units=1/GPa)
#
#
# Indices 1 2 3 4 5 6 
#
# 1 0.043915 -0.036154 -0.002765 0.000000 0.000000 0.000000
# 2 -0.036154 0.043915 -0.002765 0.000000 0.000000 0.000000
# 3 -0.002765 -0.002765 0.009805 0.000000 0.000000 0.000000
# 4 0.000000 0.000000 0.000000 0.060701 0.000000 0.000000
# 5 0.000000 0.000000 0.000000 0.000000 0.060701 0.000000
# 6 0.000000 0.000000 0.000000 0.000000 0.000000 0.026335
#
#
# Mechanical properties :
#
#
# Convention : Reuss Voigt Hill
#
# Bulk Modulus (GPa) = 70.08550 70.21848 70.15199
# Shear Modulus (GPa) = 14.99272 23.25409 19.12341
#
# Velocity S-wave (km/s) = 2.66011 3.31290 3.00429
# Velocity P-wave (km/s) = 6.52023 6.91195 6.71895
#
# Compressibility (1/GPa) = 0.01426829
#
# Stress axis : x y z
#
# Youngs Moduli (GPa) = 22.77119 22.77119 101.98361
#
# Poissons Ratio (x) = 0.82327 0.28197
# Poissons Ratio (y) = 0.82327 0.28197
# Poissons Ratio (z) = 0.06296 0.06296
#
# Static dielectric constant tensor:
#      x y z
#    x 3.955790 0.000000 0.000000 
#    y 0.000000 3.955790 0.000000 
#    z 0.000000 0.000000 4.067570 
# 
# 
# High freq. dielectric constant tensor:
#      x y z
#    x 1.828680 0.000000 0.000000 
#    y 0.000000 1.828680 0.000000 
#    z 0.000000 0.000000 1.831110 
# 
# From -- ./inp_files/10610.got.cif
#   From: 2010.03.12/outbox.cif.g09.slc.cpg/sg132_6_cif.got.tgz:10610.got - 2010.04.06 17:53:44.
