data_PCOD8316338
_publ_section_title
;
Structure prediction by ZEFSAII (Michael W. Deem and Ramdas Pophale) SiO2 
 PCOD8316338
Probable space group: P 42/M M C
;
_chemical_formula_sum "Si O2"
_cell_formula_units_Z 34
_cell_length_a 14.430550
_cell_length_b 14.430550
_cell_length_c 8.853479
_cell_angle_alpha 90.000000
_cell_angle_beta 90.000000
_cell_angle_gamma 90.000000
_cell_volume 1843.655313
_symmetry_space_group_name_H-M "P 42/M M C"
_symmetry_group_IT_number 131
_symmetry_cell_setting 'tetragonal'
loop_
_space_group_symop_operation_xyz
x,y,z
-x,-y,z
-y,x,1/2+z
y,-x,1/2+z
-x,y,-z
x,-y,-z
y,x,1/2-z
-y,-x,1/2-z
-x,-y,-z
x,y,-z
y,-x,1/2-z
-y,x,1/2-z
x,-y,z
-x,y,z
-y,-x,1/2+z
y,x,1/2+z
loop_
_atom_site_type_symbol
_atom_site_label
_atom_site_fract_x
_atom_site_fract_y
_atom_site_fract_z
Si Si1 0.302517 0.829258 0.679462
Si Si2 0.204415 0.000000 0.831421
Si Si3 0.000000 0.000000 0.750000
Si Si4 0.103574 0.500000 0.821145
O O1 0.267436 0.732565 0.750000
O O2 0.293563 0.827031 0.500000
O O3 0.238252 0.910914 0.740580
O O4 0.408483 0.842569 0.733485
O O5 0.093291 0.000000 0.849526
O O6 0.246786 0.000000 0.000000
O O7 0.000000 0.500000 0.751640
O O8 0.095484 0.500000 0.000000
#
# Coordination Sequence:
#
# PCOD8316338 Si02
#       4
#    16   8   2   8
#     4  11  22  38  59  83 114 148 191 237 288 339
#     4  12  24  36  53  79 113 156 196 229 272 329
#     4  12  26  36  52  74 122 160 194 208 266 332
#     4   9  18  36  60  83 110 153 193 232 284 346
#
# _framework density 18.441625999999999
#
# number of rings (size 3 to 8) (size 9 to 14) (size 15 to 20)
#    0.000    1.176    4.706    2.471    0.000    1.882 
#    0.000    5.882    0.000    0.706    0.000    4.941 
#    0.000    0.000    0.000    0.000    0.000    0.000 
#
# Total GULP energy -421577.314681 kJ/mol
# GULP energy per Si atom -12399.332785 kJ/mol
# Density = 1.839965 g / cm^3
# Si number density = 18.441626 Si / 1000 Ang^3
#
#
#
# Elastic Constant Matrix: (Units=GPa)
#
#
# Indices 1 2 3 4 5 6 
#
# 1 155.2877 78.0376 38.7343 0.0000 0.0000 0.0000
# 2 78.0376 155.2903 38.7335 0.0000 0.0000 0.0000
# 3 38.7343 38.7335 88.1968 0.0000 0.0000 0.0000
# 4 0.0000 0.0000 0.0000 11.6263 0.0000 0.0000
# 5 0.0000 0.0000 0.0000 0.0000 11.6284 0.0000
# 6 0.0000 0.0000 0.0000 0.0000 0.0000 20.8019
#
#
#
# Elastic Compliance Matrix: (Units=1/GPa)
#
#
# Indices 1 2 3 4 5 6 
#
# 1 0.008981 -0.003964 -0.002204 0.000000 0.000000 0.000000
# 2 -0.003964 0.008981 -0.002203 0.000000 0.000000 0.000000
# 3 -0.002204 -0.002203 0.013274 0.000000 0.000000 0.000000
# 4 0.000000 0.000000 0.000000 0.086012 0.000000 0.000000
# 5 0.000000 0.000000 0.000000 0.000000 0.085997 0.000000
# 6 0.000000 0.000000 0.000000 0.000000 0.000000 0.048072
#
#
# Mechanical properties :
#
#
# Convention : Reuss Voigt Hill
#
# Bulk Modulus (GPa) = 68.99172 78.86507 73.92839
# Shear Modulus (GPa) = 18.32241 25.02928 21.67584
#
# Velocity S-wave (km/s) = 3.15546 3.68804 3.43209
# Velocity P-wave (km/s) = 7.12517 7.80980 7.47533
#
# Compressibility (1/GPa) = 0.01449449
#
# Stress axis : x y z
#
# Youngs Moduli (GPa) = 111.34362 111.34628 75.33657
#
# Poissons Ratio (x) = 0.44134 0.16601
# Poissons Ratio (y) = 0.44133 0.16600
# Poissons Ratio (z) = 0.24536 0.24534
#
# Static dielectric constant tensor:
#      x y z
#    x 3.642290 0.000000 0.000000 
#    y 0.000000 3.642300 0.000000 
#    z 0.000000 0.000000 3.240720 
# 
# 
# High freq. dielectric constant tensor:
#      x y z
#    x 1.709260 0.000000 0.000000 
#    y 0.000000 1.709260 0.000000 
#    z 0.000000 0.000000 1.706980 
# 
# From -- ./inp_files/538.got.cif
#   From: 2010.03.12/outbox.cif.g09.slc.cpg/sg131_1_cif.got.tgz:538.got - 2010.04.06 17:36:35.
