data_PCOD8316841
_publ_section_title
;
Structure prediction by ZEFSAII (Michael W. Deem and Ramdas Pophale) SiO2 
 PCOD8316841
Probable space group: P 42/M C M
;
_chemical_formula_sum "Si O2"
_cell_formula_units_Z 96
_cell_length_a 26.186429
_cell_length_b 26.186429
_cell_length_c 8.991562
_cell_angle_alpha 90.000000
_cell_angle_beta 90.000000
_cell_angle_gamma 90.000000
_cell_volume 6165.775392
_symmetry_space_group_name_H-M "P 42/M C M"
_symmetry_group_IT_number 132
_symmetry_cell_setting 'tetragonal'
loop_
_space_group_symop_operation_xyz
x,y,z
-y,x,1/2+z
-x,-y,z
y,-x,1/2+z
x,-y,1/2-z
-x,y,1/2-z
y,x,-z
-y,-x,-z
-x,-y,-z
y,-x,1/2-z
x,y,-z
-y,x,1/2-z
-x,y,1/2+z
x,-y,1/2+z
-y,-x,z
y,x,z
loop_
_atom_site_type_symbol
_atom_site_label
_atom_site_fract_x
_atom_site_fract_y
_atom_site_fract_z
Si Si1 0.350639 0.180240 0.662766
Si Si2 0.550874 0.185633 0.334071
Si Si3 0.759977 0.156319 0.824493
Si Si4 0.749719 0.949326 0.176614
Si Si5 0.549594 0.936020 0.166410
Si Si6 0.645857 0.061670 0.836097
O O1 0.351534 0.206881 0.500000
O O2 0.395721 0.205721 0.760979
O O3 0.293036 0.182865 0.732457
O O4 0.363089 0.121224 0.643678
O O5 0.500000 0.205680 0.250000
O O6 0.548888 0.208215 0.500000
O O7 0.551294 0.124937 0.337558
O O8 0.806022 0.193979 0.788054
O O9 0.773050 0.103109 0.742557
O O10 0.754098 0.144658 0.000000
O O11 0.690454 0.951180 0.220701
O O12 0.776150 0.000000 0.250000
O O13 0.757278 0.950161 0.000000
O O14 0.500000 0.956070 0.250000
O O15 0.595575 0.960704 0.259999
O O16 0.550886 0.957940 0.000000
O O17 0.656527 0.037575 0.000000
#
# Coordination Sequence:
#
# PCOD8316841 Si02
#       6
#    16  16  16  16  16  16
#     4   8  14  24  38  56  79 106 135 167 205 249
#     4   9  15  21  31  48  72 101 134 172 211 249
#     4   9  18  33  51  70  93 119 144 172 210 255
#     4  11  21  33  49  68  89 112 139 169 202 243
#     4   9  15  22  33  51  73  99 131 168 209 250
#     4   9  16  27  41  57  77 102 133 169 208 248
#
# _framework density 15.569818
#
# number of rings (size 3 to 8) (size 9 to 14) (size 15 to 20)
#    0.000    2.833    0.000    4.000    0.000    8.333 
#    0.000    0.000    0.000    0.500    0.000    3.500 
#    0.000    0.333    0.000    3.500    0.000    1.500 
#
# Total GULP energy -1189452.928970 kJ/mol
# GULP energy per Si atom -12390.134677 kJ/mol
# Density = 1.553438 g / cm^3
# Si number density = 15.569818 Si / 1000 Ang^3
#
#
#
# Elastic Constant Matrix: (Units=GPa)
#
#
# Indices 1 2 3 4 5 6 
#
# 1 67.4182 36.1899 37.2052 0.0000 0.0000 0.0000
# 2 36.1899 67.4182 37.2052 0.0000 0.0000 0.0000
# 3 37.2052 37.2052 113.3258 0.0000 0.0000 0.0000
# 4 0.0000 0.0000 0.0000 15.2958 0.0000 0.0000
# 5 0.0000 0.0000 0.0000 0.0000 15.2958 0.0000
# 6 0.0000 0.0000 0.0000 0.0000 0.0000 -0.0139
#
#
#
# Elastic Compliance Matrix: (Units=1/GPa)
#
#
# Indices 1 2 3 4 5 6 
#
# 1 0.022326 -0.009696 -0.004146 0.000000 0.000000 0.000000
# 2 -0.009696 0.022326 -0.004146 0.000000 0.000000 0.000000
# 3 -0.004146 -0.004146 0.011547 0.000000 0.000000 0.000000
# 4 0.000000 0.000000 0.000000 0.065377 0.000000 0.000000
# 5 0.000000 0.000000 0.000000 0.000000 0.065377 0.000000
# 6 0.000000 0.000000 0.000000 0.000000 0.000000-71.728920
#
#
# Mechanical properties :
#
#
# Convention : Reuss Voigt Hill
#
# Bulk Modulus (GPa) = 49.45476 52.15142 50.80309
# Shear Modulus (GPa) = -0.06993 15.28634 7.60820
#
# Velocity S-wave (km/s) = -0.21216 3.13676 2.21294
# Velocity P-wave (km/s) = 5.63668 6.83278 6.26335
#
# Compressibility (1/GPa) = 0.02022050
#
# Stress axis : x y z
#
# Youngs Moduli (GPa) = 44.79098 44.79098 86.60535
#
# Poissons Ratio (x) = 0.43431 0.35910
# Poissons Ratio (y) = 0.43431 0.35910
# Poissons Ratio (z) = 0.18572 0.18572
#
# Static dielectric constant tensor:
#      x y z
#    x 2.775110 0.000000 0.000000 
#    y 0.000000 2.775110 0.000000 
#    z 0.000000 0.000000 3.407110 
# 
# 
# High freq. dielectric constant tensor:
#      x y z
#    x 1.554850 0.000000 0.000000 
#    y 0.000000 1.554850 0.000000 
#    z 0.000000 0.000000 1.611820 
# 
# From -- ./inp_files/1904.got.cif
#   From: 2010.03.12/outbox.cif.g09.slc.cpg/sg132_1_cif.got.tgz:1904.got - 2010.04.06 17:53:44.
