data_PCOD8316881
_publ_section_title
;
Structure prediction by ZEFSAII (Michael W. Deem and Ramdas Pophale) SiO2 
 PCOD8316881
Probable space group: P 42/M C M
;
_chemical_formula_sum "Si O2"
_cell_formula_units_Z 96
_cell_length_a 30.000000
_cell_length_b 30.000000
_cell_length_c 9.000000
_cell_angle_alpha 90.000000
_cell_angle_beta 90.000000
_cell_angle_gamma 90.000000
_cell_volume 8100.000000
_symmetry_space_group_name_H-M "P 42/M C M"
_symmetry_group_IT_number 132
_symmetry_cell_setting 'tetragonal'
loop_
_space_group_symop_operation_xyz
x,y,z
-y,x,1/2+z
-x,-y,z
y,-x,1/2+z
x,-y,1/2-z
-x,y,1/2-z
y,x,-z
-y,-x,-z
-x,-y,-z
y,-x,1/2-z
x,y,-z
-y,x,1/2-z
-x,y,1/2+z
x,-y,1/2+z
-y,-x,z
y,x,z
loop_
_atom_site_type_symbol
_atom_site_label
_atom_site_fract_x
_atom_site_fract_y
_atom_site_fract_z
Si Si1 0.888372 0.624794 0.826752
Si Si2 0.706528 0.955045 0.169183
Si Si3 0.826283 0.173718 0.668472
Si Si4 0.751309 0.751309 0.171134
Si Si5 0.818310 0.686839 0.671303
Si Si6 0.110482 0.234693 0.668357
Si Si7 0.549153 0.951224 0.316910
O O1 0.922872 0.664726 0.818702
O O2 0.841442 0.643309 0.752949
O O3 0.911713 0.583070 0.738575
O O4 0.879153 0.611628 0.000000
O O5 0.749749 0.934008 0.247853
O O6 0.692381 0.000000 0.250000
O O7 0.719219 0.965139 0.000000
O O8 0.838525 0.161476 0.500000
O O9 0.788738 0.211263 0.674089
O O10 0.870490 0.190973 0.750762
O O11 0.706482 0.772594 0.250340
O O12 0.739113 0.739113 0.000000
O O13 0.806972 0.673787 0.500000
O O14 0.853649 0.726200 0.674275
O O15 0.098379 0.222152 0.500000
O O16 0.500000 0.940008 0.250000
O O17 0.548488 0.952743 0.500000
O O18 0.563653 0.000000 0.250000
#
# Coordination Sequence:
#
# PCOD8316881 Si02
#       7
#    16  16   8   8  16  16  16
#     4  10  19  30  42  56  72  90 113 141 173 209
#     4  10  19  28  38  51  68  88 109 133 161 192
#     4   9  15  23  35  49  65  83 105 130 154 179
#     4   9  15  23  35  51  71  93 113 135 162 192
#     4   9  16  25  37  53  71  91 113 137 164 196
#     4   9  16  25  36  49  65  84 107 131 155 182
#     4  11  21  33  46  58  71  88 112 144 183 225
#
# _framework density 11.851851999999999
#
# number of rings (size 3 to 8) (size 9 to 14) (size 15 to 20)
#    0.000    2.333    0.000    5.000    0.000    9.333 
#    0.000    0.000    0.000    0.000    0.000    0.000 
#    0.000    0.000    0.000    0.000    0.000    0.417 
#
# Total GULP energy -1189376.866923 kJ/mol
# GULP energy per Si atom -12389.342364 kJ/mol
# Density = 1.182488 g / cm^3
# Si number density = 11.851852 Si / 1000 Ang^3
#
#
#
# Elastic Constant Matrix: (Units=GPa)
#
#
# Indices 1 2 3 4 5 6 
#
# 1 44.6694 27.8041 30.2103 0.0000 0.0000 0.0000
# 2 27.8041 44.6694 30.2103 0.0000 0.0000 0.0000
# 3 30.2103 30.2103 127.5316 0.0000 0.0000 0.0000
# 4 0.0000 0.0000 0.0000 22.2532 0.0000 0.0000
# 5 0.0000 0.0000 0.0000 0.0000 22.2532 0.0000
# 6 0.0000 0.0000 0.0000 0.0000 0.0000 26.2280
#
#
#
# Elastic Compliance Matrix: (Units=1/GPa)
#
#
# Indices 1 2 3 4 5 6 
#
# 1 0.038244 -0.021050 -0.004073 0.000000 0.000000 0.000000
# 2 -0.021050 0.038244 -0.004073 0.000000 0.000000 0.000000
# 3 -0.004073 -0.004073 0.009771 0.000000 0.000000 0.000000
# 4 0.000000 0.000000 0.000000 0.044937 0.000000 0.000000
# 5 0.000000 0.000000 0.000000 0.000000 0.044937 0.000000
# 6 0.000000 0.000000 0.000000 0.000000 0.000000 0.038127
#
#
# Mechanical properties :
#
#
# Convention : Reuss Voigt Hill
#
# Bulk Modulus (GPa) = 35.88532 43.70219 39.79376
# Shear Modulus (GPa) = 17.73426 22.72325 20.22876
#
# Velocity S-wave (km/s) = 3.87244 4.38342 4.13583
# Velocity P-wave (km/s) = 7.09495 7.91031 7.51370
#
# Compressibility (1/GPa) = 0.02786655
#
# Stress axis : x y z
#
# Youngs Moduli (GPa) = 26.14819 26.14821 102.34553
#
# Poissons Ratio (x) = 0.55042 0.41685
# Poissons Ratio (y) = 0.55041 0.41684
# Poissons Ratio (z) = 0.10650 0.10650
#
# Static dielectric constant tensor:
#      x y z
#    x 2.454710 0.000000 0.000000 
#    y 0.000000 2.454710 0.000000 
#    z 0.000000 0.000000 2.924300 
# 
# 
# High freq. dielectric constant tensor:
#      x y z
#    x 1.421260 0.000000 0.000000 
#    y 0.000000 1.421260 0.000000 
#    z 0.000000 0.000000 1.483780 
# 
# From -- ./inp_files/2131.got.cif
#   From: 2010.03.12/outbox.ucp.g09.slc.cvg/sg132_2_cif.got.tgz:2131.got - 2010.05.04 20:28:14.
