data_PCOD8316219
_publ_section_title
;
Structure prediction by ZEFSAII (Michael W. Deem and Ramdas Pophale) SiO2 
 PCOD8316219
Probable space group: P 42/M M C
;
_chemical_formula_sum "Si O2"
_cell_formula_units_Z 120
_cell_length_a 21.344946
_cell_length_b 21.344946
_cell_length_c 14.844432
_cell_angle_alpha 90.000000
_cell_angle_beta 90.000000
_cell_angle_gamma 90.000000
_cell_volume 6763.222970
_symmetry_space_group_name_H-M "P 42/M M C"
_symmetry_group_IT_number 131
_symmetry_cell_setting 'tetragonal'
loop_
_space_group_symop_operation_xyz
x,y,z
-x,-y,z
-y,x,1/2+z
y,-x,1/2+z
-x,y,-z
x,-y,-z
y,x,1/2-z
-y,-x,1/2-z
-x,-y,-z
x,y,-z
y,-x,1/2-z
-y,x,1/2-z
x,-y,z
-x,y,z
-y,-x,1/2+z
y,x,1/2+z
loop_
_atom_site_type_symbol
_atom_site_label
_atom_site_fract_x
_atom_site_fract_y
_atom_site_fract_z
Si Si1 0.764511 0.355971 0.600429
Si Si2 0.108010 0.712306 0.601145
Si Si3 0.126958 0.256262 0.894967
Si Si4 0.329859 0.251750 0.603341
Si Si5 0.427181 0.195523 0.731190
Si Si6 0.356168 0.930721 0.270514
Si Si7 0.000000 0.070180 0.607625
Si Si8 0.852555 0.117529 0.893005
O O1 0.757686 0.384730 0.500000
O O2 0.818958 0.304456 0.601954
O O3 0.701600 0.318446 0.628420
O O4 0.780535 0.412165 0.668104
O O5 0.080163 0.705576 0.500000
O O6 0.069875 0.667266 0.667358
O O7 0.102430 0.782459 0.639294
O O8 0.197330 0.279778 0.877333
O O9 0.079045 0.298347 0.838462
O O10 0.122898 0.184894 0.858114
O O11 0.108579 0.261083 0.000000
O O12 0.351273 0.250978 0.500000
O O13 0.391365 0.241288 0.662855
O O14 0.500000 0.202377 0.712296
O O15 0.408314 0.122908 0.715432
O O16 0.384895 0.000000 0.288763
O O17 0.937364 0.103254 0.644842
O O18 0.000000 0.072094 0.500000
O O19 0.000000 0.000000 0.645071
O O20 0.852142 0.120428 0.000000
#
# Coordination Sequence:
#
# PCOD8316219 Si02
#       8
#    16  16  16  16  16  16   8  16
#     4   9  16  30  53  78 102 126 159 207 255 299
#     4   9  17  30  50  74  94 113 149 206 268 310
#     4   9  17  31  51  73  94 117 153 209 268 310
#     4   9  16  30  53  79 103 125 161 211 260 302
#     4  10  21  34  49  72 106 144 174 203 247 303
#     4  10  22  34  47  71  95 128 176 216 250 293
#     4   9  18  28  38  60  90 122 158 188 236 321
#     4   9  16  28  47  67  89 120 153 196 255 314
#
# _framework density 17.743020999999999
#
# number of rings (size 3 to 8) (size 9 to 14) (size 15 to 20)
#    0.000    2.733    1.333    0.400    0.933    2.400 
#    0.000    1.333    0.000    0.000    0.000    7.467 
#    0.000    4.267    0.000   11.733    0.000    0.000 
#
# Total GULP energy -1487680.485895 kJ/mol
# GULP energy per Si atom -12397.337382 kJ/mol
# Density = 1.770264 g / cm^3
# Si number density = 17.743021 Si / 1000 Ang^3
#
#
#
# Elastic Constant Matrix: (Units=GPa)
#
#
# Indices 1 2 3 4 5 6 
#
# 1 98.1749 25.8985 20.2722 0.0000 0.0000 0.0000
# 2 25.8985 98.1749 20.2722 0.0000 0.0000 0.0000
# 3 20.2722 20.2722 49.2422 0.0000 0.0000 0.0000
# 4 0.0000 0.0000 0.0000 15.5753 0.0000 0.0000
# 5 0.0000 0.0000 0.0000 0.0000 15.5753 0.0000
# 6 0.0000 0.0000 0.0000 0.0000 0.0000 14.1202
#
#
#
# Elastic Compliance Matrix: (Units=1/GPa)
#
#
# Indices 1 2 3 4 5 6 
#
# 1 0.011574 -0.002262 -0.003834 0.000000 0.000000 0.000000
# 2 -0.002262 0.011574 -0.003834 0.000000 0.000000 0.000000
# 3 -0.003834 -0.003834 0.023464 0.000000 0.000000 0.000000
# 4 0.000000 0.000000 0.000000 0.064204 0.000000 0.000000
# 5 0.000000 0.000000 0.000000 0.000000 0.064204 0.000000
# 6 0.000000 0.000000 0.000000 0.000000 0.000000 0.070821
#
#
# Mechanical properties :
#
#
# Convention : Reuss Voigt Hill
#
# Bulk Modulus (GPa) = 37.37724 42.05308 39.71516
# Shear Modulus (GPa) = 18.20709 20.99744 19.60226
#
# Velocity S-wave (km/s) = 3.20684 3.44382 3.32744
# Velocity P-wave (km/s) = 5.90113 6.29014 6.09874
#
# Compressibility (1/GPa) = 0.02675425
#
# Stress axis : x y z
#
# Youngs Moduli (GPa) = 86.39938 86.39938 42.61769
#
# Poissons Ratio (x) = 0.19540 0.16339
# Poissons Ratio (y) = 0.19540 0.16339
# Poissons Ratio (z) = 0.33124 0.33124
#
# Static dielectric constant tensor:
#      x y z
#    x 3.033240 0.000000 0.000000 
#    y 0.000000 3.033240 0.000000 
#    z 0.000000 0.000000 3.390570 
# 
# 
# High freq. dielectric constant tensor:
#      x y z
#    x 1.656820 0.000000 0.000000 
#    y 0.000000 1.656820 0.000000 
#    z 0.000000 0.000000 1.691050 
# 
# From -- ./inp_files/6344.got.cif
#   From: 2010.03.12/outbox.cif.g09.slc.cpg/sg131_4_cif.got.tgz:6344.got - 2010.04.06 17:36:35.
