data_PCOD8316057
_publ_section_title
;
Structure prediction by ZEFSAII (Michael W. Deem and Ramdas Pophale) SiO2 
 PCOD8316057
Probable space group: P 42/M M C
;
_chemical_formula_sum "Si O2"
_cell_formula_units_Z 96
_cell_length_a 24.772311
_cell_length_b 24.772311
_cell_length_c 9.129643
_cell_angle_alpha 90.000000
_cell_angle_beta 90.000000
_cell_angle_gamma 90.000000
_cell_volume 5602.564212
_symmetry_space_group_name_H-M "P 42/M M C"
_symmetry_group_IT_number 131
_symmetry_cell_setting 'tetragonal'
loop_
_space_group_symop_operation_xyz
x,y,z
-x,-y,z
-y,x,1/2+z
y,-x,1/2+z
-x,y,-z
x,-y,-z
y,x,1/2-z
-y,-x,1/2-z
-x,-y,-z
x,y,-z
y,-x,1/2-z
-y,x,1/2-z
x,-y,z
-x,y,z
-y,-x,1/2+z
y,x,1/2+z
loop_
_atom_site_type_symbol
_atom_site_label
_atom_site_fract_x
_atom_site_fract_y
_atom_site_fract_z
Si Si1 0.864807 0.437235 0.670842
Si Si2 0.358955 0.436594 0.830994
Si Si3 0.435908 0.744684 0.162110
Si Si4 0.646687 0.063148 0.329738
Si Si5 0.247023 0.064170 0.834413
Si Si6 0.063748 0.859234 0.830635
O O1 0.876299 0.426307 0.500000
O O2 0.871980 0.500000 0.707823
O O3 0.804288 0.417027 0.712244
O O4 0.907047 0.405851 0.770226
O O5 0.408177 0.408177 0.750000
O O6 0.365082 0.500000 0.801809
O O7 0.301368 0.414784 0.771936
O O8 0.362078 0.421778 0.000000
O O9 0.500000 0.745192 0.156757
O O10 0.413254 0.731645 0.000000
O O11 0.654800 0.075696 0.500000
O O12 0.699091 0.085435 0.244574
O O13 0.638191 0.000000 0.300954
O O14 0.195404 0.085482 0.744951
O O15 0.246901 0.000000 0.833969
O O16 0.245065 0.086785 0.000000
O O17 0.089882 0.910119 0.750000
O O18 0.000000 0.865215 0.812343
O O19 0.080846 0.858223 0.000000
#
# Coordination Sequence:
#
# PCOD8316057 Si02
#       6
#    16  16  16  16  16  16
#     4   9  18  32  50  72  97 127 162 198 239 287
#     4  10  20  32  48  71  97 126 159 194 234 280
#     4   8  15  30  50  69  91 121 158 198 236 277
#     4  10  20  32  47  70 100 131 162 198 241 287
#     4   9  17  31  51  71  92 123 164 204 240 283
#     4  10  20  33  50  73 101 131 163 200 241 286
#
# _framework density 17.135010999999999
#
# number of rings (size 3 to 8) (size 9 to 14) (size 15 to 20)
#    0.000    2.667    0.000    3.000    0.000    6.667 
#    0.000    5.000    0.000    1.000    0.000    2.333 
#    0.000    0.000    0.000    0.000    0.000    0.000 
#
# Total GULP energy -1190331.756365 kJ/mol
# GULP energy per Si atom -12399.289129 kJ/mol
# Density = 1.709601 g / cm^3
# Si number density = 17.135011 Si / 1000 Ang^3
#
#
#
# Elastic Constant Matrix: (Units=GPa)
#
#
# Indices 1 2 3 4 5 6 
#
# 1 67.4377 43.0950 60.7160 0.0000 0.0000 0.0000
# 2 43.0950 67.4298 60.7151 0.0000 0.0000 0.0000
# 3 60.7160 60.7151 140.8175 0.0000 0.0000 0.0000
# 4 0.0000 0.0000 0.0000 30.7979 0.0000 0.0000
# 5 0.0000 0.0000 0.0000 0.0000 30.7981 0.0000
# 6 0.0000 0.0000 0.0000 0.0000 0.0000 3.5381
#
#
#
# Elastic Compliance Matrix: (Units=1/GPa)
#
#
# Indices 1 2 3 4 5 6 
#
# 1 0.029136 -0.011948 -0.007411 0.000000 0.000000 0.000000
# 2 -0.011948 0.029141 -0.007413 0.000000 0.000000 0.000000
# 3 -0.007411 -0.007413 0.013493 0.000000 0.000000 0.000000
# 4 0.000000 0.000000 0.000000 0.032470 0.000000 0.000000
# 5 0.000000 0.000000 0.000000 0.000000 0.032470 0.000000
# 6 0.000000 0.000000 0.000000 0.000000 0.000000 0.282634
#
#
# Mechanical properties :
#
#
# Convention : Reuss Voigt Hill
#
# Bulk Modulus (GPa) = 54.86631 67.19303 61.02967
# Shear Modulus (GPa) = 10.43923 20.43742 15.43832
#
# Velocity S-wave (km/s) = 2.47094 3.45734 3.00489
# Velocity P-wave (km/s) = 6.34273 7.43213 6.90894
#
# Compressibility (1/GPa) = 0.01822612
#
# Stress axis : x y z
#
# Youngs Moduli (GPa) = 34.32180 34.31585 74.11297
#
# Poissons Ratio (x) = 0.41001 0.54925
# Poissons Ratio (y) = 0.41008 0.54939
# Poissons Ratio (z) = 0.25436 0.25438
#
# Static dielectric constant tensor:
#      x y z
#    x 3.092700 0.000000 0.000000 
#    y 0.000000 3.092710 0.000000 
#    z 0.000000 0.000000 3.375570 
# 
# 
# High freq. dielectric constant tensor:
#      x y z
#    x 1.643420 0.000000 0.000000 
#    y 0.000000 1.643420 0.000000 
#    z 0.000000 0.000000 1.674010 
# 
# From -- ./inp_files/2203.got.cif
#   From: 2010.03.12/outbox.cif.g09.slc.cpg/sg131_2_cif.got.tgz:2203.got - 2010.04.06 17:36:35.
