data_PCOD8316949
_publ_section_title
;
Structure prediction by ZEFSAII (Michael W. Deem and Ramdas Pophale) SiO2 
 PCOD8316949
Probable space group: P 42/N B C
;
_chemical_formula_sum "Si O2"
_cell_formula_units_Z 80
_cell_length_a 23.898066
_cell_length_b 23.898066
_cell_length_c 7.633874
_cell_angle_alpha 90.000000
_cell_angle_beta 90.000000
_cell_angle_gamma 90.000000
_cell_volume 4359.839481
_symmetry_space_group_name_H-M "P 42/N B C"
_symmetry_group_IT_number 133
_space_group.IT_coordinate_system_code '2'
_symmetry_cell_setting 'tetragonal'
loop_
_space_group_symop_operation_xyz
x,y,z
1/2-y,x,1/2+z
1/2-x,1/2-y,z
y,1/2-x,1/2+z
x,1/2-y,-z
1/2-x,y,-z
y,x,1/2-z
1/2-y,1/2-x,1/2-z
-x,-y,-z
1/2+y,-x,1/2-z
1/2+x,1/2+y,-z
-y,1/2+x,1/2-z
-x,1/2+y,z
1/2+x,-y,z
-y,-x,1/2+z
1/2+y,1/2+x,1/2+z
loop_
_atom_site_type_symbol
_atom_site_label
_atom_site_fract_x
_atom_site_fract_y
_atom_site_fract_z
Si Si1 0.436393 0.063608 0.250000
Si Si2 0.632699 0.579827 0.582516
Si Si3 0.517929 0.238227 0.303958
Si Si4 0.616257 0.453315 0.129740
Si Si5 0.750000 0.568010 0.500000
Si Si6 0.958942 0.357439 0.763005
O O1 0.407960 0.090728 0.420157
O O2 0.502690 0.076516 0.265850
O O3 0.612034 0.612034 0.750000
O O4 0.694674 0.604221 0.540340
O O5 0.636461 0.513677 0.618005
O O6 0.494658 0.250000 0.500000
O O7 0.550266 0.179184 0.292994
O O8 0.466846 0.233802 0.172173
O O9 0.557301 0.291267 0.249776
O O10 0.591193 0.391124 0.145821
O O11 0.616974 0.471335 0.927673
#
# Coordination Sequence:
#
# PCOD8316949 Si02
#       6
#     8  16  16  16   8  16
#     4  12  22  34  56  82 117 148 178 223 288 332
#     4  11  22  37  54  87 115 145 187 227 278 341
#     4   9  20  37  53  76 109 149 193 224 269 334
#     4  11  21  35  54  81 115 147 186 230 281 336
#     4  10  20  36  60  76 111 149 184 224 276 332
#     4  10  22  35  54  80 114 150 182 231 279 334
#
# _framework density 18.349298000000001
#
# number of rings (size 3 to 8) (size 9 to 14) (size 15 to 20)
#    0.000    1.600    4.000    1.200    4.200    1.600 
#    0.000    0.000    0.000    0.600    0.000    6.300 
#    0.000    0.000    0.000    0.000    0.000    0.000 
#
# Total GULP energy -991671.512518 kJ/mol
# GULP energy per Si atom -12395.893906 kJ/mol
# Density = 1.830753 g / cm^3
# Si number density = 18.349298 Si / 1000 Ang^3
#
#
#
# Elastic Constant Matrix: (Units=GPa)
#
#
# Indices 1 2 3 4 5 6 
#
# 1 96.8491 45.5197 26.4199 0.0000 0.0000 0.0000
# 2 45.5197 96.8481 26.4200 0.0000 0.0000 0.0000
# 3 26.4199 26.4200 87.8325 0.0000 0.0000 0.0000
# 4 0.0000 0.0000 0.0000 21.8718 0.0000 0.0000
# 5 0.0000 0.0000 0.0000 0.0000 21.8719 0.0000
# 6 0.0000 0.0000 0.0000 0.0000 0.0000 7.6697
#
#
#
# Elastic Compliance Matrix: (Units=1/GPa)
#
#
# Indices 1 2 3 4 5 6 
#
# 1 0.013694 -0.005788 -0.002378 0.000000 0.000000 0.000000
# 2 -0.005788 0.013695 -0.002378 0.000000 0.000000 0.000000
# 3 -0.002378 -0.002378 0.012816 0.000000 0.000000 0.000000
# 4 0.000000 0.000000 0.000000 0.045721 0.000000 0.000000
# 5 0.000000 0.000000 0.000000 0.000000 0.045721 0.000000
# 6 0.000000 0.000000 0.000000 0.000000 0.000000 0.130383
#
#
# Mechanical properties :
#
#
# Convention : Reuss Voigt Hill
#
# Bulk Modulus (GPa) = 52.31153 53.13877 52.72515
# Shear Modulus (GPa) = 17.27169 22.49402 19.88285
#
# Velocity S-wave (km/s) = 3.07134 3.50505 3.29534
# Velocity P-wave (km/s) = 6.41468 6.73817 6.57842
#
# Compressibility (1/GPa) = 0.01911624
#
# Stress axis : x y z
#
# Youngs Moduli (GPa) = 73.02256 73.02167 78.02674
#
# Poissons Ratio (x) = 0.42263 0.18557
# Poissons Ratio (y) = 0.42263 0.18558
# Poissons Ratio (z) = 0.17367 0.17367
#
# Static dielectric constant tensor:
#      x y z
#    x 3.419620 0.000000 0.000000 
#    y 0.000000 3.419630 0.000000 
#    z 0.000000 0.000000 3.654330 
# 
# 
# High freq. dielectric constant tensor:
#      x y z
#    x 1.686080 0.000000 0.000000 
#    y 0.000000 1.686080 0.000000 
#    z 0.000000 0.000000 1.741830 
# 
# From -- ./inp_files/1827.got.cif
#   From: 2010.03.12/outbox.cif.g09.slc.cpg/sg133_1_cif.got.tgz:1827.got - 2010.04.06 18:08:06.
