data_PCOD8316472
_publ_section_title
;
Structure prediction by ZEFSAII (Michael W. Deem and Ramdas Pophale) SiO2 
 PCOD8316472
Probable space group: P 42/M C M
;
_chemical_formula_sum "Si O2"
_cell_formula_units_Z 128
_cell_length_a 20.008965
_cell_length_b 20.008965
_cell_length_c 18.808142
_cell_angle_alpha 90.000000
_cell_angle_beta 90.000000
_cell_angle_gamma 90.000000
_cell_volume 7530.002911
_symmetry_space_group_name_H-M "P 42/M C M"
_symmetry_group_IT_number 132
_symmetry_cell_setting 'tetragonal'
loop_
_space_group_symop_operation_xyz
x,y,z
-y,x,1/2+z
-x,-y,z
y,-x,1/2+z
x,-y,1/2-z
-x,y,1/2-z
y,x,-z
-y,-x,-z
-x,-y,-z
y,-x,1/2-z
x,y,-z
-y,x,1/2-z
-x,y,1/2+z
x,-y,1/2+z
-y,-x,z
y,x,z
loop_
_atom_site_type_symbol
_atom_site_label
_atom_site_fract_x
_atom_site_fract_y
_atom_site_fract_z
Si Si1 0.719175 0.167924 0.420807
Si Si2 0.746288 0.634903 0.827830
Si Si3 0.036473 0.145757 0.417321
Si Si4 0.307569 0.584447 0.077355
Si Si5 0.878902 0.770277 0.322673
Si Si6 0.083981 0.805784 0.673636
Si Si7 0.776670 0.336504 0.824077
Si Si8 0.638298 0.472217 0.329336
O O1 0.702343 0.143458 0.500000
O O2 0.776780 0.223221 0.421800
O O3 0.651141 0.198279 0.387519
O O4 0.743050 0.103219 0.376280
O O5 0.695696 0.695696 0.823531
O O6 0.782013 0.628071 0.752142
O O7 0.706758 0.567420 0.844318
O O8 0.014740 0.153458 0.500000
O O9 0.074823 0.074823 0.406170
O O10 0.085213 0.206433 0.395196
O O11 0.974875 0.150670 0.362682
O O12 0.347819 0.652182 0.066644
O O13 0.240077 0.603962 0.120361
O O14 0.357521 0.533795 0.117240
O O15 0.287253 0.555236 0.000000
O O16 0.815615 0.815615 0.304554
O O17 0.929254 0.777054 0.254049
O O18 0.849821 0.696230 0.337626
O O19 0.146332 0.853669 0.679177
O O20 0.718174 0.281826 0.826244
O O21 0.633593 0.500000 0.250000
O O22 0.573419 0.426582 0.345372
#
# Coordination Sequence:
#
# PCOD8316472 Si02
#       8
#    16  16  16  16  16  16  16  16
#     4   9  16  26  43  68  92 114 147 193 246 299
#     4   9  16  28  46  66  87 115 151 195 244 294
#     4  10  21  33  43  63  97 133 169 203 233 276
#     4  10  21  34  47  67  95 128 168 207 240 282
#     4   9  17  30  50  69  87 115 157 205 251 291
#     4  10  18  30  48  68  92 128 167 202 241 285
#     4   9  15  29  50  68  86 112 151 201 252 295
#     4  11  21  32  48  67  93 131 172 204 236 282
#
# _framework density 16.998664999999999
#
# number of rings (size 3 to 8) (size 9 to 14) (size 15 to 20)
#    0.000    2.375    2.500    1.125    0.000    3.125 
#    0.000    5.000    0.000    2.250    0.000    0.000 
#    0.000    1.000    1.500    3.500    1.250    0.375 
#
# Total GULP energy -1585873.454981 kJ/mol
# GULP energy per Si atom -12389.636367 kJ/mol
# Density = 1.695998 g / cm^3
# Si number density = 16.998665 Si / 1000 Ang^3
#
#
#
# Elastic Constant Matrix: (Units=GPa)
#
#
# Indices 1 2 3 4 5 6 
#
# 1 31.0040 27.7783 15.7912 0.0000 0.0000 0.0000
# 2 27.7783 31.0040 15.7912 0.0000 0.0000 0.0000
# 3 15.7912 15.7912 91.3781 0.0000 0.0000 0.0000
# 4 0.0000 0.0000 0.0000 19.2410 0.0000 0.0000
# 5 0.0000 0.0000 0.0000 0.0000 19.2410 0.0000
# 6 0.0000 0.0000 0.0000 0.0000 0.0000 26.4343
#
#
#
# Elastic Compliance Matrix: (Units=1/GPa)
#
#
# Indices 1 2 3 4 5 6 
#
# 1 0.164380 -0.145627 -0.003241 0.000000 0.000000 0.000000
# 2 -0.145627 0.164380 -0.003241 0.000000 0.000000 0.000000
# 3 -0.003241 -0.003241 0.012064 0.000000 0.000000 0.000000
# 4 0.000000 0.000000 0.000000 0.051972 0.000000 0.000000
# 5 0.000000 0.000000 0.000000 0.000000 0.051972 0.000000
# 6 0.000000 0.000000 0.000000 0.000000 0.000000 0.037830
#
#
# Mechanical properties :
#
#
# Convention : Reuss Voigt Hill
#
# Bulk Modulus (GPa) = 27.31731 30.23417 28.77574
# Shear Modulus (GPa) = 6.25768 19.25160 12.75464
#
# Velocity S-wave (km/s) = 1.92075 3.36897 2.74219
# Velocity P-wave (km/s) = 4.58521 5.74091 5.19530
#
# Compressibility (1/GPa) = 0.03660682
#
# Stress axis : x y z
#
# Youngs Moduli (GPa) = 6.08346 6.08346 82.89387
#
# Poissons Ratio (x) = 0.88592 0.26864
# Poissons Ratio (y) = 0.88592 0.26864
# Poissons Ratio (z) = 0.01972 0.01972
#
# Static dielectric constant tensor:
#      x y z
#    x 3.019340 0.000000 0.000000 
#    y 0.000000 3.019340 0.000000 
#    z 0.000000 0.000000 3.483510 
# 
# 
# High freq. dielectric constant tensor:
#      x y z
#    x 1.620360 0.000000 0.000000 
#    y 0.000000 1.620360 0.000000 
#    z 0.000000 0.000000 1.669020 
# 
# From -- ./inp_files/6893.got.cif
#   From: 2010.03.12/outbox.cif.g09.slc.cpg/sg132_4_cif.got.tgz:6893.got - 2010.04.06 17:53:44.
