data_PCOD8316279
_publ_section_title
;
Structure prediction by ZEFSAII (Michael W. Deem and Ramdas Pophale) SiO2 
 PCOD8316279
Probable space group: P 42/M M C
;
_chemical_formula_sum "Si O2"
_cell_formula_units_Z 76
_cell_length_a 11.026522
_cell_length_b 11.026522
_cell_length_c 31.134502
_cell_angle_alpha 90.000000
_cell_angle_beta 90.000000
_cell_angle_gamma 90.000000
_cell_volume 3785.463126
_symmetry_space_group_name_H-M "P 42/M M C"
_symmetry_group_IT_number 131
_symmetry_cell_setting 'tetragonal'
loop_
_space_group_symop_operation_xyz
x,y,z
-x,-y,z
-y,x,1/2+z
y,-x,1/2+z
-x,y,-z
x,-y,-z
y,x,1/2-z
-y,-x,1/2-z
-x,-y,-z
x,y,-z
y,-x,1/2-z
-y,x,1/2-z
x,-y,z
-x,y,z
-y,-x,1/2+z
y,x,1/2+z
loop_
_atom_site_type_symbol
_atom_site_label
_atom_site_fract_x
_atom_site_fract_y
_atom_site_fract_z
Si Si1 0.139279 0.000000 0.302874
Si Si2 0.254463 0.500000 0.050855
Si Si3 0.859082 0.359476 0.325786
Si Si4 0.737673 0.759381 0.912062
Si Si5 0.500000 0.000000 0.407289
Si Si6 0.630233 0.000000 0.950084
Si Si7 0.781119 0.218882 0.750000
Si Si8 0.756800 0.000000 0.391833
O O1 0.208814 0.116066 0.285800
O O2 0.146211 0.000000 0.353932
O O3 0.000000 0.000000 0.288083
O O4 0.309958 0.626141 0.071522
O O5 0.112679 0.500000 0.060279
O O6 0.281414 0.500000 0.000000
O O7 0.856927 0.500000 0.336304
O O8 0.777692 0.292409 0.361631
O O9 0.796906 0.340209 0.278610
O O10 0.000000 0.311334 0.326011
O O11 0.881107 0.772050 0.920665
O O12 0.689675 0.873529 0.937905
O O13 0.615973 0.000000 0.375520
O O14 0.500000 0.000000 0.926746
O O15 0.616228 0.000000 0.000000
#
# Coordination Sequence:
#
# PCOD8316279 Si02
#       8
#     8   8  16  16   4   8   8   8
#     4  12  20  31  54  87 122 152 187 247 308 360
#     4  10  21  40  65  94 127 165 214 264 316 387
#     4  11  23  41  62  88 122 165 211 254 316 383
#     4  11  22  40  65  93 125 168 207 258 323 386
#     4   8  19  40  56  90 124 174 196 244 318 384
#     4  11  24  42  63  90 124 164 209 260 318 378
#     4  12  21  38  58  87 118 156 200 254 308 365
#     4  10  22  35  60  91 126 158 205 249 313 384
#
# _framework density 20.076805
#
# number of rings (size 3 to 8) (size 9 to 14) (size 15 to 20)
#    0.000    1.158    5.263    1.421    1.474    0.000 
#    3.789    4.211    0.000    3.789    0.000    0.000 
#    0.000    0.000    0.000    0.000    0.000    0.000 
#
# Total GULP energy -941557.436316 kJ/mol
# GULP energy per Si atom -12388.913636 kJ/mol
# Density = 2.003111 g / cm^3
# Si number density = 20.076805 Si / 1000 Ang^3
#
#
#
# Elastic Constant Matrix: (Units=GPa)
#
#
# Indices 1 2 3 4 5 6 
#
# 1 116.9759 46.9132 38.5672 0.0000 0.0000 0.0000
# 2 46.9132 116.9757 38.5675 0.0000 0.0000 0.0000
# 3 38.5672 38.5675 103.2376 0.0000 0.0000 0.0000
# 4 0.0000 0.0000 0.0000 39.8457 0.0000 0.0000
# 5 0.0000 0.0000 0.0000 0.0000 39.8306 0.0000
# 6 0.0000 0.0000 0.0000 0.0000 0.0000 0.6638
#
#
#
# Elastic Compliance Matrix: (Units=1/GPa)
#
#
# Indices 1 2 3 4 5 6 
#
# 1 0.010838 -0.003435 -0.002766 0.000000 0.000000 0.000000
# 2 -0.003435 0.010838 -0.002766 0.000000 0.000000 0.000000
# 3 -0.002766 -0.002766 0.011753 0.000000 0.000000 0.000000
# 4 0.000000 0.000000 0.000000 0.025097 0.000000 0.000000
# 5 0.000000 0.000000 0.000000 0.000000 0.025106 0.000000
# 6 0.000000 0.000000 0.000000 0.000000 0.000000 1.506525
#
#
# Mechanical properties :
#
#
# Convention : Reuss Voigt Hill
#
# Bulk Modulus (GPa) = 64.53015 65.03168 64.78091
# Shear Modulus (GPa) = 3.09932 30.27744 16.68838
#
# Velocity S-wave (km/s) = 1.24382 3.88761 2.88623
# Velocity P-wave (km/s) = 5.85442 7.25349 6.59118
#
# Compressibility (1/GPa) = 0.01549663
#
# Stress axis : x y z
#
# Youngs Moduli (GPa) = 92.26663 92.26627 85.08580
#
# Poissons Ratio (x) = 0.31691 0.23532
# Poissons Ratio (y) = 0.31692 0.23533
# Poissons Ratio (z) = 0.25518 0.25519
#
# Static dielectric constant tensor:
#      x y z
#    x 3.297180 0.000000 0.000000 
#    y 0.000000 3.295670 0.000000 
#    z 0.000000 0.000000 3.541450 
# 
# 
# High freq. dielectric constant tensor:
#      x y z
#    x 1.781320 0.000000 0.000000 
#    y 0.000000 1.781320 0.000000 
#    z 0.000000 0.000000 1.779250 
# 
# From -- ./inp_files/13533.got.cif
#   From: 2010.03.12/outbox.cif.g09.slc.cpg/sg131_7_cif.got.tgz:13533.got - 2010.04.06 17:36:35.
