data_PCOD8316717
_publ_section_title
;
Structure prediction by ZEFSAII (Michael W. Deem and Ramdas Pophale) SiO2 
 PCOD8316717
Probable space group: P 42/M C M
;
_chemical_formula_sum "Si O2"
_cell_formula_units_Z 96
_cell_length_a 23.627623
_cell_length_b 23.627623
_cell_length_c 8.655723
_cell_angle_alpha 90.000000
_cell_angle_beta 90.000000
_cell_angle_gamma 90.000000
_cell_volume 4832.183467
_symmetry_space_group_name_H-M "P 42/M C M"
_symmetry_group_IT_number 132
_symmetry_cell_setting 'tetragonal'
loop_
_space_group_symop_operation_xyz
x,y,z
-y,x,1/2+z
-x,-y,z
y,-x,1/2+z
x,-y,1/2-z
-x,y,1/2-z
y,x,-z
-y,-x,-z
-x,-y,-z
y,-x,1/2-z
x,y,-z
-y,x,1/2-z
-x,y,1/2+z
x,-y,1/2+z
-y,-x,z
y,x,z
loop_
_atom_site_type_symbol
_atom_site_label
_atom_site_fract_x
_atom_site_fract_y
_atom_site_fract_z
Si Si1 0.822268 0.734749 0.326042
Si Si2 0.057209 0.422506 0.176894
Si Si3 0.654061 0.563388 0.680771
Si Si4 0.288409 0.941456 0.324910
Si Si5 0.554809 0.831295 0.678470
Si Si6 0.754812 0.638601 0.179115
O O1 0.828426 0.710919 0.500000
O O2 0.799379 0.799379 0.325056
O O3 0.884399 0.735400 0.251923
O O4 0.771461 0.699870 0.242933
O O5 0.059987 0.355420 0.188195
O O6 0.102135 0.450011 0.293892
O O7 0.000000 0.445924 0.250000
O O8 0.065872 0.442774 0.000000
O O9 0.655552 0.500000 0.750000
O O10 0.663951 0.556457 0.500000
O O11 0.593524 0.593524 0.716805
O O12 0.702893 0.605790 0.740629
O O13 0.267383 0.941375 0.500000
O O14 0.265203 0.000000 0.250000
O O15 0.500000 0.799964 0.750000
O O16 0.562766 0.815056 0.500000
O O17 0.605708 0.812482 0.787119
O O18 0.740067 0.643222 0.000000
#
# Coordination Sequence:
#
# PCOD8316717 Si02
#       6
#    16  16  16  16  16  16
#     4  11  23  38  59  89 124 160 200 245 292 344
#     4  10  20  35  54  78 106 142 188 237 288 341
#     4  11  25  45  68  93 120 150 186 231 287 352
#     4  10  20  35  58  84 117 157 199 244 292 347
#     4  12  24  38  56  77 107 145 189 241 290 343
#     4  12  24  40  61  87 118 153 192 235 288 348
#
# _framework density 19.866795
#
# number of rings (size 3 to 8) (size 9 to 14) (size 15 to 20)
#    0.000    1.000    1.667    6.000    0.000    6.500 
#    0.000    2.500    0.000    0.000    0.000    0.000 
#    0.000    0.333    0.000    3.500    0.000    1.500 
#
# Total GULP energy -1189675.090185 kJ/mol
# GULP energy per Si atom -12392.448856 kJ/mol
# Density = 1.982158 g / cm^3
# Si number density = 19.866795 Si / 1000 Ang^3
#
#
#
# Elastic Constant Matrix: (Units=GPa)
#
#
# Indices 1 2 3 4 5 6 
#
# 1 89.4947 58.5456 48.6129 0.0000 0.0000 0.0000
# 2 58.5456 89.4947 48.6129 0.0000 0.0000 0.0000
# 3 48.6129 48.6129 151.3633 0.0000 0.0000 0.0000
# 4 0.0000 0.0000 0.0000 21.2125 0.0000 0.0000
# 5 0.0000 0.0000 0.0000 0.0000 21.2125 0.0000
# 6 0.0000 0.0000 0.0000 0.0000 0.0000 9.6537
#
#
#
# Elastic Compliance Matrix: (Units=1/GPa)
#
#
# Indices 1 2 3 4 5 6 
#
# 1 0.020436 -0.011875 -0.002749 0.000000 0.000000 0.000000
# 2 -0.011875 0.020436 -0.002749 0.000000 0.000000 0.000000
# 3 -0.002749 -0.002749 0.008373 0.000000 0.000000 0.000000
# 4 0.000000 0.000000 0.000000 0.047142 0.000000 0.000000
# 5 0.000000 0.000000 0.000000 0.000000 0.047142 0.000000
# 6 0.000000 0.000000 0.000000 0.000000 0.000000 0.103587
#
#
# Mechanical properties :
#
#
# Convention : Reuss Voigt Hill
#
# Bulk Modulus (GPa) = 68.98316 71.32172 70.15244
# Shear Modulus (GPa) = 17.44010 22.05450 19.74730
#
# Velocity S-wave (km/s) = 2.96607 3.33546 3.15617
# Velocity P-wave (km/s) = 6.82117 7.12823 6.97639
#
# Compressibility (1/GPa) = 0.01449629
#
# Stress axis : x y z
#
# Youngs Moduli (GPa) = 48.93369 48.93369 119.43665
#
# Poissons Ratio (x) = 0.58110 0.32838
# Poissons Ratio (y) = 0.58110 0.32838
# Poissons Ratio (z) = 0.13454 0.13454
#
# Static dielectric constant tensor:
#      x y z
#    x 3.653450 0.000000 0.000000 
#    y 0.000000 3.653450 0.000000 
#    z 0.000000 0.000000 3.756880 
# 
# 
# High freq. dielectric constant tensor:
#      x y z
#    x 1.766130 0.000000 0.000000 
#    y 0.000000 1.766130 0.000000 
#    z 0.000000 0.000000 1.789780 
# 
# From -- ./inp_files/1798.got.cif
#   From: 2010.03.12/outbox.cif.g09.slc.cpg/sg132_1_cif.got.tgz:1798.got - 2010.04.06 17:53:44.
