data_PCOD8316192
_publ_section_title
;
Structure prediction by ZEFSAII (Michael W. Deem and Ramdas Pophale) SiO2 
 PCOD8316192
Probable space group: P 42/M M C
;
_chemical_formula_sum "Si O2"
_cell_formula_units_Z 72
_cell_length_a 21.421864
_cell_length_b 21.421864
_cell_length_c 7.915390
_cell_angle_alpha 90.000000
_cell_angle_beta 90.000000
_cell_angle_gamma 90.000000
_cell_volume 3632.342846
_symmetry_space_group_name_H-M "P 42/M M C"
_symmetry_group_IT_number 131
_symmetry_cell_setting 'tetragonal'
loop_
_space_group_symop_operation_xyz
x,y,z
-x,-y,z
-y,x,1/2+z
y,-x,1/2+z
-x,y,-z
x,-y,-z
y,x,1/2-z
-y,-x,1/2-z
-x,-y,-z
x,y,-z
y,-x,1/2-z
-y,x,1/2-z
x,-y,z
-x,y,z
-y,-x,1/2+z
y,x,1/2+z
loop_
_atom_site_type_symbol
_atom_site_label
_atom_site_fract_x
_atom_site_fract_y
_atom_site_fract_z
Si Si1 0.927612 0.568706 0.500000
Si Si2 0.668539 0.766013 0.199440
Si Si3 0.902851 0.000000 0.191446
Si Si4 0.900842 0.341679 0.807754
Si Si5 0.569237 0.333509 0.198968
Si Si6 0.000000 0.239333 0.804188
O O1 0.894871 0.500000 0.500000
O O2 0.909986 0.603285 0.326885
O O3 0.000000 0.558797 0.500000
O O4 0.730703 0.730703 0.250000
O O5 0.673800 0.828310 0.307495
O O6 0.609013 0.725813 0.263315
O O7 0.664672 0.780242 0.000000
O O8 0.935973 0.064028 0.250000
O O9 0.828384 0.000000 0.219309
O O10 0.916970 0.000000 0.000000
O O11 0.939607 0.280325 0.751090
O O12 0.920686 0.361494 0.000000
O O13 0.601896 0.398105 0.250000
O O14 0.500000 0.331015 0.279872
O O15 0.564884 0.330614 0.000000
O O16 0.000000 0.224866 0.000000
#
# Coordination Sequence:
#
# PCOD8316192 Si02
#       6
#     8  16   8  16  16   8
#     4  11  24  42  66  92 124 164 209 257 317 382
#     4  10  20  36  58  86 120 159 200 251 305 364
#     4  11  23  40  65  92 131 171 212 263 314 368
#     4  11  23  41  64  92 127 164 208 260 314 373
#     4   9  19  35  54  78 109 146 188 237 294 354
#     4  10  23  41  64  91 125 163 208 255 305 369
#
# _framework density 19.821916999999999
#
# number of rings (size 3 to 8) (size 9 to 14) (size 15 to 20)
#    0.000    1.778    2.222    2.000    1.556    3.778 
#    0.000    2.222    0.000    0.000    0.000    0.000 
#    0.000    0.000    0.000    0.000    0.000    0.000 
#
# Total GULP energy -892408.098852 kJ/mol
# GULP energy per Si atom -12394.556929 kJ/mol
# Density = 1.977680 g / cm^3
# Si number density = 19.821917 Si / 1000 Ang^3
#
#
#
# Elastic Constant Matrix: (Units=GPa)
#
#
# Indices 1 2 3 4 5 6 
#
# 1 150.8690 72.5831 35.1153 0.0000 0.0000 0.0000
# 2 72.5831 150.8618 35.1202 0.0000 0.0000 0.0000
# 3 35.1153 35.1202 95.5635 0.0000 0.0000 0.0000
# 4 0.0000 0.0000 0.0000 28.8806 0.0000 0.0000
# 5 0.0000 0.0000 0.0000 0.0000 28.8814 0.0000
# 6 0.0000 0.0000 0.0000 0.0000 0.0000 10.2418
#
#
#
# Elastic Compliance Matrix: (Units=1/GPa)
#
#
# Indices 1 2 3 4 5 6 
#
# 1 0.008917 -0.003857 -0.001859 0.000000 0.000000 0.000000
# 2 -0.003857 0.008917 -0.001860 0.000000 0.000000 0.000000
# 3 -0.001859 -0.001860 0.011831 0.000000 0.000000 0.000000
# 4 0.000000 0.000000 0.000000 0.034625 0.000000 0.000000
# 5 0.000000 0.000000 0.000000 0.000000 0.034624 0.000000
# 6 0.000000 0.000000 0.000000 0.000000 0.000000 0.097639
#
#
# Mechanical properties :
#
#
# Convention : Reuss Voigt Hill
#
# Bulk Modulus (GPa) = 68.90441 75.88129 72.39285
# Shear Modulus (GPa) = 23.09009 30.56580 26.82795
#
# Velocity S-wave (km/s) = 3.41673 3.93112 3.68292
# Velocity P-wave (km/s) = 7.09948 7.67916 7.39500
#
# Compressibility (1/GPa) = 0.01451286
#
# Stress axis : x y z
#
# Youngs Moduli (GPa) = 112.14951 112.14076 84.52507
#
# Poissons Ratio (x) = 0.43256 0.15712
# Poissons Ratio (y) = 0.43259 0.15720
# Poissons Ratio (z) = 0.20848 0.20856
#
# Static dielectric constant tensor:
#      x y z
#    x 3.924970 0.000000 0.000000 
#    y 0.000000 3.924970 0.000000 
#    z 0.000000 0.000000 3.621100 
# 
# 
# High freq. dielectric constant tensor:
#      x y z
#    x 1.774860 0.000000 0.000000 
#    y 0.000000 1.774860 0.000000 
#    z 0.000000 0.000000 1.778410 
# 
# From -- ./inp_files/1899.got.cif
#   From: 2010.03.12/outbox.cif.g09.slc.cpg/sg131_1_cif.got.tgz:1899.got - 2010.04.06 17:36:35.
