data_PCOD8316475
_publ_section_title
;
Structure prediction by ZEFSAII (Michael W. Deem and Ramdas Pophale) SiO2 
 PCOD8316475
Probable space group: P 42/M C M
;
_chemical_formula_sum "Si O2"
_cell_formula_units_Z 120
_cell_length_a 15.215525
_cell_length_b 15.215525
_cell_length_c 27.955274
_cell_angle_alpha 90.000000
_cell_angle_beta 90.000000
_cell_angle_gamma 90.000000
_cell_volume 6471.987014
_symmetry_space_group_name_H-M "P 42/M C M"
_symmetry_group_IT_number 132
_symmetry_cell_setting 'tetragonal'
loop_
_space_group_symop_operation_xyz
x,y,z
-y,x,1/2+z
-x,-y,z
y,-x,1/2+z
x,-y,1/2-z
-x,y,1/2-z
y,x,-z
-y,-x,-z
-x,-y,-z
y,-x,1/2-z
x,y,-z
-y,x,1/2-z
-x,y,1/2+z
x,-y,1/2+z
-y,-x,z
y,x,z
loop_
_atom_site_type_symbol
_atom_site_label
_atom_site_fract_x
_atom_site_fract_y
_atom_site_fract_z
Si Si1 0.220577 0.921362 0.782932
Si Si2 0.324123 0.816982 0.948723
Si Si3 0.432309 0.432309 0.944988
Si Si4 0.499821 0.246667 0.422009
Si Si5 0.352432 0.048157 0.634159
Si Si6 0.417502 0.064246 0.053107
Si Si7 0.354247 0.210870 0.760955
Si Si8 0.821066 0.519813 0.678033
O O1 0.138723 0.861278 0.800327
O O2 0.272429 0.961456 0.828568
O O3 0.284921 0.865210 0.749489
O O4 0.184145 0.000000 0.750000
O O5 0.234234 0.765767 0.945159
O O6 0.406053 0.749920 0.948212
O O7 0.326898 0.879073 0.903962
O O8 0.327319 0.868113 0.000000
O O9 0.500000 0.500000 0.918597
O O10 0.332672 0.446587 0.931715
O O11 0.446611 0.446611 0.000000
O O12 0.554732 0.164188 0.441078
O O13 0.484272 0.244468 0.365717
O O14 0.441531 0.082471 0.661696
O O15 0.361883 0.960577 0.601212
O O16 0.500000 0.000000 0.054355
O O17 0.371740 0.054959 0.000000
O O18 0.301481 0.301481 0.774472
O O19 0.420244 0.172218 0.801455
O O20 0.413568 0.226987 0.714216
#
# Coordination Sequence:
#
# PCOD8316475 Si02
#       8
#    16  16   8  16  16  16  16  16
#     4  10  22  38  58  82 107 139 173 222 276 339
#     4  10  18  30  51  77 108 145 185 228 275 329
#     4  11  24  40  54  74 108 154 201 245 281 323
#     4  11  22  34  53  77 110 146 195 239 283 340
#     4  10  20  34  54  80 112 140 179 222 277 342
#     4  11  20  33  54  82 116 151 185 230 288 344
#     4   9  19  36  54  72 107 139 181 231 276 327
#     4   9  19  33  51  79 101 143 183 227 280 331
#
# _framework density 18.541446000000001
#
# number of rings (size 3 to 8) (size 9 to 14) (size 15 to 20)
#    0.000    1.933    2.667    2.400    2.800    4.933 
#    0.000    0.667    0.000    0.800    0.000    0.000 
#    0.000    0.000    0.000    4.267    0.000    0.000 
#
# Total GULP energy -1486621.348787 kJ/mol
# GULP energy per Si atom -12388.511240 kJ/mol
# Density = 1.849925 g / cm^3
# Si number density = 18.541446 Si / 1000 Ang^3
#
#
#
# Elastic Constant Matrix: (Units=GPa)
#
#
# Indices 1 2 3 4 5 6 
#
# 1 77.8163 35.1241 29.5010 0.0000 0.0000 0.0000
# 2 35.1241 77.8163 29.5010 0.0000 0.0000 0.0000
# 3 29.5010 29.5010 109.2446 0.0000 0.0000 0.0000
# 4 0.0000 0.0000 0.0000 18.6864 0.0000 0.0000
# 5 0.0000 0.0000 0.0000 0.0000 18.6864 0.0000
# 6 0.0000 0.0000 0.0000 0.0000 0.0000 15.6225
#
#
#
# Elastic Compliance Matrix: (Units=1/GPa)
#
#
# Indices 1 2 3 4 5 6 
#
# 1 0.016866 -0.006557 -0.002784 0.000000 0.000000 0.000000
# 2 -0.006557 0.016866 -0.002784 0.000000 0.000000 0.000000
# 3 -0.002784 -0.002784 0.010657 0.000000 0.000000 0.000000
# 4 0.000000 0.000000 0.000000 0.053515 0.000000 0.000000
# 5 0.000000 0.000000 0.000000 0.000000 0.053515 0.000000
# 6 0.000000 0.000000 0.000000 0.000000 0.000000 0.064010
#
#
# Mechanical properties :
#
#
# Convention : Reuss Voigt Hill
#
# Bulk Modulus (GPa) = 49.65436 50.34772 50.00104
# Shear Modulus (GPa) = 20.29280 21.98243 21.13761
#
# Velocity S-wave (km/s) = 3.31185 3.44697 3.38008
# Velocity P-wave (km/s) = 6.43916 6.56165 6.50069
#
# Compressibility (1/GPa) = 0.02013922
#
# Stress axis : x y z
#
# Youngs Moduli (GPa) = 59.29084 59.29084 93.83273
#
# Poissons Ratio (x) = 0.38880 0.26121
# Poissons Ratio (y) = 0.38880 0.26121
# Poissons Ratio (z) = 0.16505 0.16505
#
# Static dielectric constant tensor:
#      x y z
#    x 3.286100 0.000000 0.000000 
#    y 0.000000 3.286100 0.000000 
#    z 0.000000 0.000000 3.844930 
# 
# 
# High freq. dielectric constant tensor:
#      x y z
#    x 1.696510 0.000000 0.000000 
#    y 0.000000 1.696510 0.000000 
#    z 0.000000 0.000000 1.739410 
# 
# From -- ./inp_files/11109.got.cif
#   From: 2010.03.12/outbox.cif.g09.slc.cpg/sg132_6_cif.got.tgz:11109.got - 2010.04.06 17:53:44.
