data_PCOD8316085
_publ_section_title
;
Structure prediction by ZEFSAII (Michael W. Deem and Ramdas Pophale) SiO2 
 PCOD8316085
Probable space group: P 42/M M C
;
_chemical_formula_sum "Si O2"
_cell_formula_units_Z 48
_cell_length_a 9.134727
_cell_length_b 9.134727
_cell_length_c 31.537268
_cell_angle_alpha 90.000000
_cell_angle_beta 90.000000
_cell_angle_gamma 90.000000
_cell_volume 2631.571740
_symmetry_space_group_name_H-M "P 42/M M C"
_symmetry_group_IT_number 131
_symmetry_cell_setting 'tetragonal'
loop_
_space_group_symop_operation_xyz
x,y,z
-x,-y,z
-y,x,1/2+z
y,-x,1/2+z
-x,y,-z
x,-y,-z
y,x,1/2-z
-y,-x,1/2-z
-x,-y,-z
x,y,-z
y,-x,1/2-z
-y,x,1/2-z
x,-y,z
-x,y,z
-y,-x,1/2+z
y,x,1/2+z
loop_
_atom_site_type_symbol
_atom_site_label
_atom_site_fract_x
_atom_site_fract_y
_atom_site_fract_z
Si Si1 0.665395 0.174123 0.000000
Si Si2 0.170225 0.829061 0.083129
Si Si3 0.668879 0.674227 0.841548
Si Si4 0.330085 0.330085 0.250000
O O1 0.747188 0.233138 0.041739
O O2 0.500000 0.234458 0.000000
O O3 0.669158 0.000000 0.000000
O O4 0.228174 0.746272 0.124001
O O5 0.000000 0.796099 0.077082
O O6 0.201575 0.000000 0.089245
O O7 0.680911 0.500000 0.844498
O O8 0.500000 0.722454 0.848492
O O9 0.730782 0.729850 0.795182
O O10 0.297807 0.500000 0.251974
#
# Coordination Sequence:
#
# PCOD8316085 Si02
#       4
#     8  16  16   8
#     4   9  17  31  52  73  92 121 164 208 244 283
#     4  10  20  33  49  71 100 131 160 194 241 294
#     4   9  17  31  52  75  97 124 161 203 243 284
#     4   7  12  26  48  71  94 122 158 199 240 281
#
# _framework density 18.240051999999999
#
# number of rings (size 3 to 8) (size 9 to 14) (size 15 to 20)
#    0.000    3.000    0.000    3.500    0.000    4.667 
#    0.000    2.500    0.000   13.000    0.000    0.000 
#    0.000    0.000    0.000    0.000    0.000    0.000 
#
# Total GULP energy -594707.729475 kJ/mol
# GULP energy per Si atom -12389.744364 kJ/mol
# Density = 1.819854 g / cm^3
# Si number density = 18.240052 Si / 1000 Ang^3
#
#
#
# Elastic Constant Matrix: (Units=GPa)
#
#
# Indices 1 2 3 4 5 6 
#
# 1 53.6141 26.6898 50.4009 0.0000 0.0000 0.0000
# 2 26.6898 53.6141 50.4009 0.0000 0.0000 0.0000
# 3 50.4009 50.4009 194.5449 0.0000 0.0000 0.0000
# 4 0.0000 0.0000 0.0000 -27.3097 0.0000 0.0000
# 5 0.0000 0.0000 0.0000 0.0000 -27.3097 0.0000
# 6 0.0000 0.0000 0.0000 0.0000 0.0000 23.9956
#
#
#
# Elastic Compliance Matrix: (Units=1/GPa)
#
#
# Indices 1 2 3 4 5 6 
#
# 1 0.027798 -0.009344 -0.004781 0.000000 0.000000 0.000000
# 2 -0.009344 0.027798 -0.004781 0.000000 0.000000 0.000000
# 3 -0.004781 -0.004781 0.007617 0.000000 0.000000 0.000000
# 4 0.000000 0.000000 0.000000 -0.036617 0.000000 0.000000
# 5 0.000000 0.000000 0.000000 0.000000 -0.036617 0.000000
# 6 0.000000 0.000000 0.000000 0.000000 0.000000 0.041674
#
#
# Mechanical properties :
#
#
# Convention : Reuss Voigt Hill
#
# Bulk Modulus (GPa) = 39.36747 61.86183 50.61465
# Shear Modulus (GPa) = 64.15960 5.49400 34.82680
#
# Velocity S-wave (km/s) = 5.93730 1.73741 4.37436
# Velocity P-wave (km/s) = 8.28443 6.16553 7.30225
#
# Compressibility (1/GPa) = 0.02540168
#
# Stress axis : x y z
#
# Youngs Moduli (GPa) = 35.97443 35.97443 131.27898
#
# Poissons Ratio (x) = 0.33613 0.62763
# Poissons Ratio (y) = 0.33613 0.62763
# Poissons Ratio (z) = 0.17199 0.17199
#
# Static dielectric constant tensor:
#      x y z
#    x 3.078940 0.000000 0.000000 
#    y 0.000000 3.078940 0.000000 
#    z 0.000000 0.000000 3.866230 
# 
# 
# High freq. dielectric constant tensor:
#      x y z
#    x 1.675520 0.000000 0.000000 
#    y 0.000000 1.675520 0.000000 
#    z 0.000000 0.000000 1.736770 
# 
# From -- ./inp_files/12860.got.cif
#   From: 2010.03.12/outbox.cif.g09.slc.cpg/sg131_7_cif.got.tgz:12860.got - 2010.04.06 17:36:35.
