data_PCOD8316174
_publ_section_title
;
Structure prediction by ZEFSAII (Michael W. Deem and Ramdas Pophale) SiO2 
 PCOD8316174
Probable space group: P 42/M M C
;
_chemical_formula_sum "Si O2"
_cell_formula_units_Z 72
_cell_length_a 18.931973
_cell_length_b 18.931973
_cell_length_c 10.237756
_cell_angle_alpha 90.000000
_cell_angle_beta 90.000000
_cell_angle_gamma 90.000000
_cell_volume 3669.412428
_symmetry_space_group_name_H-M "P 42/M M C"
_symmetry_group_IT_number 131
_symmetry_cell_setting 'tetragonal'
loop_
_space_group_symop_operation_xyz
x,y,z
-x,-y,z
-y,x,1/2+z
y,-x,1/2+z
-x,y,-z
x,-y,-z
y,x,1/2-z
-y,-x,1/2-z
-x,-y,-z
x,y,-z
y,-x,1/2-z
-y,x,1/2-z
x,-y,z
-x,y,z
-y,-x,1/2+z
y,x,1/2+z
loop_
_atom_site_type_symbol
_atom_site_label
_atom_site_fract_x
_atom_site_fract_y
_atom_site_fract_z
Si Si1 0.420473 0.179487 0.272800
Si Si2 0.918717 0.834258 0.351225
Si Si3 0.416372 0.078461 0.500000
Si Si4 0.279752 0.196932 0.853807
Si Si5 0.578885 0.663341 0.645316
O O1 0.500000 0.163413 0.219054
O O2 0.392086 0.119194 0.370399
O O3 0.363558 0.181863 0.156191
O O4 0.420979 0.252455 0.350894
O O5 0.894515 0.894515 0.250000
O O6 0.907395 0.861506 0.500000
O O7 0.874984 0.762767 0.325958
O O8 0.000000 0.816080 0.324554
O O9 0.500000 0.075345 0.500000
O O10 0.382978 0.000000 0.500000
O O11 0.256760 0.256760 0.750000
O O12 0.264409 0.225179 0.000000
O O13 0.632363 0.632363 0.750000
O O14 0.602685 0.639648 0.500000
O O15 0.500000 0.635005 0.674991
#
# Coordination Sequence:
#
# PCOD8316174 Si02
#       5
#    16  16   8  16  16
#     4  10  20  35  57  82 113 148 191 241 290 344
#     4   9  19  37  58  81 113 149 183 222 271 327
#     4   9  18  34  56  82 111 145 184 232 291 352
#     4  10  22  37  57  82 115 153 191 235 286 342
#     4  10  21  37  56  79 111 151 192 239 293 346
#
# _framework density 19.621670000000002
#
# number of rings (size 3 to 8) (size 9 to 14) (size 15 to 20)
#    0.000    2.333    1.111    0.667    1.556    5.333 
#    0.000    4.444    0.000    0.000    0.000    6.222 
#    0.000    0.000    0.000    0.000    0.000    0.000 
#
# Total GULP energy -892638.400809 kJ/mol
# GULP energy per Si atom -12397.755567 kJ/mol
# Density = 1.957701 g / cm^3
# Si number density = 19.621670 Si / 1000 Ang^3
#
#
#
# Elastic Constant Matrix: (Units=GPa)
#
#
# Indices 1 2 3 4 5 6 
#
# 1 106.3797 27.2364 50.4335 0.0000 0.0000 0.0000
# 2 27.2364 106.3797 50.4335 0.0000 0.0000 0.0000
# 3 50.4335 50.4335 115.1826 0.0000 0.0000 0.0000
# 4 0.0000 0.0000 0.0000 27.7924 0.0000 0.0000
# 5 0.0000 0.0000 0.0000 0.0000 27.7924 0.0000
# 6 0.0000 0.0000 0.0000 0.0000 0.0000 17.5063
#
#
#
# Elastic Compliance Matrix: (Units=1/GPa)
#
#
# Indices 1 2 3 4 5 6 
#
# 1 0.011907 -0.000728 -0.004895 0.000000 0.000000 0.000000
# 2 -0.000728 0.011907 -0.004895 0.000000 0.000000 0.000000
# 3 -0.004895 -0.004895 0.012968 0.000000 0.000000 0.000000
# 4 0.000000 0.000000 0.000000 0.035981 0.000000 0.000000
# 5 0.000000 0.000000 0.000000 0.000000 0.035981 0.000000
# 6 0.000000 0.000000 0.000000 0.000000 0.000000 0.057122
#
#
# Mechanical properties :
#
#
# Convention : Reuss Voigt Hill
#
# Bulk Modulus (GPa) = 63.50289 64.90541 64.20415
# Shear Modulus (GPa) = 26.02103 27.94080 26.98092
#
# Velocity S-wave (km/s) = 3.64557 3.77766 3.71220
# Velocity P-wave (km/s) = 7.08196 7.22342 7.15304
#
# Compressibility (1/GPa) = 0.01574731
#
# Stress axis : x y z
#
# Youngs Moduli (GPa) = 83.98199 83.98199 77.11034
#
# Poissons Ratio (x) = 0.06114 0.37745
# Poissons Ratio (y) = 0.06114 0.37745
# Poissons Ratio (z) = 0.41109 0.41109
#
# Static dielectric constant tensor:
#      x y z
#    x 3.619110 0.000000 0.000000 
#    y 0.000000 3.619110 0.000000 
#    z 0.000000 0.000000 3.497130 
# 
# 
# High freq. dielectric constant tensor:
#      x y z
#    x 1.757980 0.000000 0.000000 
#    y 0.000000 1.757980 0.000000 
#    z 0.000000 0.000000 1.758180 
# 
# From -- ./inp_files/1769.got.cif
#   From: 2010.03.12/outbox.cif.g09.slc.cpg/sg131_1_cif.got.tgz:1769.got - 2010.04.06 17:36:35.
