data_PCOD8316282
_publ_section_title
;
Structure prediction by ZEFSAII (Michael W. Deem and Ramdas Pophale) SiO2 
 PCOD8316282
Probable space group: P 42/M M C
;
_chemical_formula_sum "Si O2"
_cell_formula_units_Z 80
_cell_length_a 16.828955
_cell_length_b 16.828955
_cell_length_c 14.265645
_cell_angle_alpha 90.000000
_cell_angle_beta 90.000000
_cell_angle_gamma 90.000000
_cell_volume 4040.226480
_symmetry_space_group_name_H-M "P 42/M M C"
_symmetry_group_IT_number 131
_symmetry_cell_setting 'tetragonal'
loop_
_space_group_symop_operation_xyz
x,y,z
-x,-y,z
-y,x,1/2+z
y,-x,1/2+z
-x,y,-z
x,-y,-z
y,x,1/2-z
-y,-x,1/2-z
-x,-y,-z
x,y,-z
y,-x,1/2-z
-y,x,1/2-z
x,-y,z
-x,y,z
-y,-x,1/2+z
y,x,1/2+z
loop_
_atom_site_type_symbol
_atom_site_label
_atom_site_fract_x
_atom_site_fract_y
_atom_site_fract_z
Si Si1 0.658963 0.000000 0.110957
Si Si2 0.588141 0.286276 0.266954
Si Si3 0.275583 0.780302 0.394045
Si Si4 0.160861 0.911987 0.387878
Si Si5 0.374326 0.175406 0.893126
Si Si6 0.164242 0.000000 0.887778
O O1 0.615949 0.082966 0.140901
O O2 0.747035 0.000000 0.152962
O O3 0.665970 0.000000 0.000000
O O4 0.626950 0.373051 0.250000
O O5 0.500000 0.298960 0.310258
O O6 0.646024 0.238496 0.335540
O O7 0.575804 0.234643 0.172494
O O8 0.305323 0.789035 0.500000
O O9 0.236647 0.860765 0.354269
O O10 0.204420 0.716655 0.386358
O O11 0.156868 0.910050 0.500000
O O12 0.078079 0.878912 0.347218
O O13 0.174035 0.000000 0.348298
O O14 0.405448 0.183735 0.000000
O O15 0.162514 0.000000 0.000000
#
# Coordination Sequence:
#
# PCOD8316282 Si02
#       6
#     8  16  16  16  16   8
#     4   9  14  25  49  77 104 137 177 216 258 307
#     4  10  22  39  59  83 106 130 168 214 269 333
#     4   9  17  32  53  76 106 144 182 216 255 310
#     4   9  15  23  40  70 107 146 187 227 263 297
#     4   9  17  32  55  80 107 139 174 214 262 315
#     4   9  13  20  39  71 108 141 179 227 267 301
#
# _framework density 19.800868999999999
#
# number of rings (size 3 to 8) (size 9 to 14) (size 15 to 20)
#    0.000    2.800    2.000    0.300    0.000    2.200 
#    1.800    0.500    0.000    1.800    0.000    8.400 
#    0.000    0.000    0.000    0.000    0.000    0.000 
#
# Total GULP energy -991435.435627 kJ/mol
# GULP energy per Si atom -12392.942945 kJ/mol
# Density = 1.975580 g / cm^3
# Si number density = 19.800869 Si / 1000 Ang^3
#
#
#
# Elastic Constant Matrix: (Units=GPa)
#
#
# Indices 1 2 3 4 5 6 
#
# 1 136.6794 48.2647 25.7033 0.0000 0.0000 0.0000
# 2 48.2647 136.6779 25.7030 0.0000 0.0000 0.0000
# 3 25.7033 25.7030 44.4716 0.0000 0.0000 0.0000
# 4 0.0000 0.0000 0.0000 15.3303 0.0000 0.0000
# 5 0.0000 0.0000 0.0000 0.0000 15.3308 0.0000
# 6 0.0000 0.0000 0.0000 0.0000 0.0000 10.7727
#
#
#
# Elastic Compliance Matrix: (Units=1/GPa)
#
#
# Indices 1 2 3 4 5 6 
#
# 1 0.008876 -0.002434 -0.003723 0.000000 0.000000 0.000000
# 2 -0.002434 0.008876 -0.003723 0.000000 0.000000 0.000000
# 3 -0.003723 -0.003723 0.026790 0.000000 0.000000 0.000000
# 4 0.000000 0.000000 0.000000 0.065230 0.000000 0.000000
# 5 0.000000 0.000000 0.000000 0.000000 0.065228 0.000000
# 6 0.000000 0.000000 0.000000 0.000000 0.000000 0.092827
#
#
# Mechanical properties :
#
#
# Convention : Reuss Voigt Hill
#
# Bulk Modulus (GPa) = 40.35342 57.46341 48.90842
# Shear Modulus (GPa) = 16.90046 22.83063 19.86555
#
# Velocity S-wave (km/s) = 2.92468 3.39929 3.17087
# Velocity P-wave (km/s) = 5.64171 6.67012 6.17735
#
# Compressibility (1/GPa) = 0.02478105
#
# Stress axis : x y z
#
# Youngs Moduli (GPa) = 112.66143 112.66039 37.32722
#
# Poissons Ratio (x) = 0.27424 0.13898
# Poissons Ratio (y) = 0.27424 0.13898
# Poissons Ratio (z) = 0.41947 0.41946
#
# Static dielectric constant tensor:
#      x y z
#    x 3.499620 0.000000 0.000000 
#    y 0.000000 3.499620 0.000000 
#    z 0.000000 0.000000 3.462560 
# 
# 
# High freq. dielectric constant tensor:
#      x y z
#    x 1.758960 0.000000 0.000000 
#    y 0.000000 1.758960 0.000000 
#    z 0.000000 0.000000 1.753160 
# 
# From -- ./inp_files/5799.got.cif
#   From: 2010.03.12/outbox.cif.g09.slc.cpg/sg131_3_cif.got.tgz:5799.got - 2010.04.06 17:36:35.
