data_PCOD8316143
_publ_section_title
;
Structure prediction by ZEFSAII (Michael W. Deem and Ramdas Pophale) SiO2 
 PCOD8316143
Probable space group: P 42/M M C
;
_chemical_formula_sum "Si O2"
_cell_formula_units_Z 88
_cell_length_a 18.106864
_cell_length_b 18.106864
_cell_length_c 14.067638
_cell_angle_alpha 90.000000
_cell_angle_beta 90.000000
_cell_angle_gamma 90.000000
_cell_volume 4612.195030
_symmetry_space_group_name_H-M "P 42/M M C"
_symmetry_group_IT_number 131
_symmetry_cell_setting 'tetragonal'
loop_
_space_group_symop_operation_xyz
x,y,z
-x,-y,z
-y,x,1/2+z
y,-x,1/2+z
-x,y,-z
x,-y,-z
y,x,1/2-z
-y,-x,1/2-z
-x,-y,-z
x,y,-z
y,-x,1/2-z
-y,x,1/2-z
x,-y,z
-x,y,z
-y,-x,1/2+z
y,x,1/2+z
loop_
_atom_site_type_symbol
_atom_site_label
_atom_site_fract_x
_atom_site_fract_y
_atom_site_fract_z
Si Si1 0.732954 0.580379 0.897543
Si Si2 0.583805 0.203407 0.110723
Si Si3 0.812947 0.693693 0.768648
Si Si4 0.915250 0.084751 0.750000
Si Si5 0.418487 0.376074 0.145131
Si Si6 0.913618 0.213022 0.892185
O O1 0.750898 0.500000 0.852883
O O2 0.758677 0.642498 0.827461
O O3 0.645279 0.587732 0.917901
O O4 0.772426 0.587738 0.000000
O O5 0.500000 0.173534 0.129506
O O6 0.646786 0.161874 0.174852
O O7 0.588585 0.288197 0.140101
O O8 0.604456 0.192260 0.000000
O O9 0.769030 0.769030 0.750000
O O10 0.882765 0.717374 0.832155
O O11 0.894514 0.135622 0.840240
O O12 0.000000 0.097862 0.718317
O O13 0.405855 0.405855 0.250000
O O14 0.500000 0.399639 0.108742
O O15 0.000000 0.225930 0.896998
O O16 0.880935 0.210696 0.000000
#
# Coordination Sequence:
#
# PCOD8316143 Si02
#       6
#    16  16  16   8  16  16
#     4  11  22  34  49  72 104 144 192 241 289 340
#     4  10  20  34  54  78 106 142 185 236 294 351
#     4  12  21  35  57  84 110 147 186 237 283 333
#     4   9  18  36  62  94 130 164 194 217 250 314
#     4  11  20  31  46  66  99 141 182 226 282 344
#     4  10  22  40  61  89 124 158 189 222 268 326
#
# _framework density 19.079853
#
# number of rings (size 3 to 8) (size 9 to 14) (size 15 to 20)
#    0.000    1.364    4.545    2.182    0.000    3.455 
#    0.000    2.727    0.000    2.727    0.000    7.636 
#    0.000    0.000    0.000    0.000    0.000    0.000 
#
# Total GULP energy -1090446.589458 kJ/mol
# GULP energy per Si atom -12391.438517 kJ/mol
# Density = 1.903643 g / cm^3
# Si number density = 19.079853 Si / 1000 Ang^3
#
#
#
# Elastic Constant Matrix: (Units=GPa)
#
#
# Indices 1 2 3 4 5 6 
#
# 1 56.3723 33.8433 47.3131 0.0000 0.0000 0.0000
# 2 33.8433 56.3714 47.3133 0.0000 0.0000 0.0000
# 3 47.3131 47.3133 132.1326 0.0000 0.0000 0.0000
# 4 0.0000 0.0000 0.0000 27.5474 0.0000 0.0000
# 5 0.0000 0.0000 0.0000 0.0000 27.5473 0.0000
# 6 0.0000 0.0000 0.0000 0.0000 0.0000 17.8053
#
#
#
# Elastic Compliance Matrix: (Units=1/GPa)
#
#
# Indices 1 2 3 4 5 6 
#
# 1 0.031070 -0.013318 -0.006356 0.000000 0.000000 0.000000
# 2 -0.013318 0.031070 -0.006357 0.000000 0.000000 0.000000
# 3 -0.006356 -0.006357 0.012120 0.000000 0.000000 0.000000
# 4 0.000000 0.000000 0.000000 0.036301 0.000000 0.000000
# 5 0.000000 0.000000 0.000000 0.000000 0.036301 0.000000
# 6 0.000000 0.000000 0.000000 0.000000 0.000000 0.056163
#
#
# Mechanical properties :
#
#
# Convention : Reuss Voigt Hill
#
# Bulk Modulus (GPa) = 45.04868 55.75728 50.40298
# Shear Modulus (GPa) = 19.04853 22.34043 20.69448
#
# Velocity S-wave (km/s) = 3.16311 3.42554 3.29694
# Velocity P-wave (km/s) = 6.08294 6.70316 6.40057
#
# Compressibility (1/GPa) = 0.02219821
#
# Stress axis : x y z
#
# Youngs Moduli (GPa) = 32.18575 32.18489 82.50589
#
# Poissons Ratio (x) = 0.42864 0.52443
# Poissons Ratio (y) = 0.42865 0.52446
# Poissons Ratio (z) = 0.20458 0.20459
#
# Static dielectric constant tensor:
#      x y z
#    x 3.409270 0.000000 0.000000 
#    y 0.000000 3.409290 0.000000 
#    z 0.000000 0.000000 3.823910 
# 
# 
# High freq. dielectric constant tensor:
#      x y z
#    x 1.716720 0.000000 0.000000 
#    y 0.000000 1.716720 0.000000 
#    z 0.000000 0.000000 1.759460 
# 
# From -- ./inp_files/5921.got.cif
#   From: 2010.03.12/outbox.cif.g09.slc.cpg/sg131_3_cif.got.tgz:5921.got - 2010.04.06 17:36:35.
