data_PCOD8316098
_publ_section_title
;
Structure prediction by ZEFSAII (Michael W. Deem and Ramdas Pophale) SiO2 
 PCOD8316098
Probable space group: P 42/M M C
;
_chemical_formula_sum "Si O2"
_cell_formula_units_Z 120
_cell_length_a 27.485793
_cell_length_b 27.485793
_cell_length_c 8.828895
_cell_angle_alpha 90.000000
_cell_angle_beta 90.000000
_cell_angle_gamma 90.000000
_cell_volume 6669.954860
_symmetry_space_group_name_H-M "P 42/M M C"
_symmetry_group_IT_number 131
_symmetry_cell_setting 'tetragonal'
loop_
_space_group_symop_operation_xyz
x,y,z
-x,-y,z
-y,x,1/2+z
y,-x,1/2+z
-x,y,-z
x,-y,-z
y,x,1/2-z
-y,-x,1/2-z
-x,-y,-z
x,y,-z
y,-x,1/2-z
-y,x,1/2-z
x,-y,z
-x,y,z
-y,-x,1/2+z
y,x,1/2+z
loop_
_atom_site_type_symbol
_atom_site_label
_atom_site_fract_x
_atom_site_fract_y
_atom_site_fract_z
Si Si1 0.944258 0.227474 0.177015
Si Si2 0.443394 0.229517 0.677266
Si Si3 0.632309 0.298150 0.170608
Si Si4 0.128687 0.055996 0.177334
Si Si5 0.120864 0.316759 0.178096
Si Si6 0.126346 0.416095 0.320808
Si Si7 0.782640 0.714662 0.671086
Si Si8 0.500000 0.054877 0.179477
O O1 0.923800 0.179995 0.261628
O O2 0.914090 0.273694 0.233652
O O3 0.000000 0.237348 0.220584
O O4 0.937213 0.218492 0.000000
O O5 0.432714 0.225690 0.500000
O O6 0.500000 0.238591 0.712345
O O7 0.413912 0.275622 0.742298
O O8 0.426778 0.178939 0.750803
O O9 0.652631 0.347370 0.250000
O O10 0.674749 0.258918 0.167247
O O11 0.616279 0.311480 0.000000
O O12 0.084276 0.084276 0.250000
O O13 0.122649 0.000000 0.225099
O O14 0.127204 0.063677 0.000000
O O15 0.105009 0.364787 0.267259
O O16 0.175632 0.304776 0.221082
O O17 0.116591 0.325929 0.000000
O O18 0.133279 0.417228 0.500000
O O19 0.085530 0.453731 0.264041
O O20 0.763743 0.763743 0.750000
O O21 0.800955 0.725600 0.500000
O O22 0.500000 0.000000 0.248885
O O23 0.500000 0.050974 0.000000
#
# Coordination Sequence:
#
# PCOD8316098 Si02
#       8
#    16  16  16  16  16  16  16   8
#     4   9  20  39  58  75 100 136 174 214 264 319
#     4  11  22  35  55  82 114 150 190 234 282 334
#     4  10  20  34  54  79 111 149 186 226 273 326
#     4  10  21  37  59  86 113 142 176 214 260 318
#     4  11  22  35  54  78 105 137 176 224 273 324
#     4  11  21  35  55  78 105 139 182 232 284 341
#     4  10  20  33  50  74 104 138 174 213 260 315
#     4   9  20  38  57  77 103 137 179 231 290 347
#
# _framework density 17.991126999999999
#
# number of rings (size 3 to 8) (size 9 to 14) (size 15 to 20)
#    0.000    1.800    2.000    2.400    0.000    4.933 
#    0.000    0.667    0.000    2.800    0.000    0.000 
#    0.000    0.267    0.000    2.800    0.000    1.200 
#
# Total GULP energy -1488192.301580 kJ/mol
# GULP energy per Si atom -12401.602513 kJ/mol
# Density = 1.795018 g / cm^3
# Si number density = 17.991127 Si / 1000 Ang^3
#
#
#
# Elastic Constant Matrix: (Units=GPa)
#
#
# Indices 1 2 3 4 5 6 
#
# 1 101.0023 66.2076 45.6415 0.0000 0.0000 0.0000
# 2 66.2076 101.0010 45.6413 0.0000 0.0000 0.0000
# 3 45.6415 45.6413 84.5675 0.0000 0.0000 0.0000
# 4 0.0000 0.0000 0.0000 23.9944 0.0000 0.0000
# 5 0.0000 0.0000 0.0000 0.0000 23.9940 0.0000
# 6 0.0000 0.0000 0.0000 0.0000 0.0000 16.5007
#
#
#
# Elastic Compliance Matrix: (Units=1/GPa)
#
#
# Indices 1 2 3 4 5 6 
#
# 1 0.018609 -0.010131 -0.004576 0.000000 0.000000 0.000000
# 2 -0.010131 0.018610 -0.004576 0.000000 0.000000 0.000000
# 3 -0.004576 -0.004576 0.016764 0.000000 0.000000 0.000000
# 4 0.000000 0.000000 0.000000 0.041676 0.000000 0.000000
# 5 0.000000 0.000000 0.000000 0.000000 0.041677 0.000000
# 6 0.000000 0.000000 0.000000 0.000000 0.000000 0.060603
#
#
# Mechanical properties :
#
#
# Convention : Reuss Voigt Hill
#
# Bulk Modulus (GPa) = 64.86073 66.83906 65.84990
# Shear Modulus (GPa) = 20.69149 21.50317 21.09733
#
# Velocity S-wave (km/s) = 3.39498 3.46093 3.42812
# Velocity P-wave (km/s) = 7.17619 7.29400 7.23534
#
# Compressibility (1/GPa) = 0.01541765
#
# Stress axis : x y z
#
# Youngs Moduli (GPa) = 53.73611 53.73538 59.65098
#
# Poissons Ratio (x) = 0.54439 0.27296
# Poissons Ratio (y) = 0.54440 0.27296
# Poissons Ratio (z) = 0.24589 0.24589
#
# Static dielectric constant tensor:
#      x y z
#    x 3.404270 0.000000 0.000000 
#    y 0.000000 3.404270 0.000000 
#    z 0.000000 0.000000 3.435900 
# 
# 
# High freq. dielectric constant tensor:
#      x y z
#    x 1.688680 0.000000 0.000000 
#    y 0.000000 1.688680 0.000000 
#    z 0.000000 0.000000 1.705700 
# 
# From -- ./inp_files/2690.got.cif
#   From: 2010.03.12/outbox.cif.g09.slc.cpg/sg131_2_cif.got.tgz:2690.got - 2010.04.06 17:36:35.
