data_PCOD8316359
_publ_section_title
;
Structure prediction by ZEFSAII (Michael W. Deem and Ramdas Pophale) SiO2 
 PCOD8316359
Probable space group: P 42/M M C
;
_chemical_formula_sum "Si O2"
_cell_formula_units_Z 38
_cell_length_a 11.387736
_cell_length_b 11.387736
_cell_length_c 14.379127
_cell_angle_alpha 90.000000
_cell_angle_beta 90.000000
_cell_angle_gamma 90.000000
_cell_volume 1864.692828
_symmetry_space_group_name_H-M "P 42/M M C"
_symmetry_group_IT_number 131
_symmetry_cell_setting 'tetragonal'
loop_
_space_group_symop_operation_xyz
x,y,z
-x,-y,z
-y,x,1/2+z
y,-x,1/2+z
-x,y,-z
x,-y,-z
y,x,1/2-z
-y,-x,1/2-z
-x,-y,-z
x,y,-z
y,-x,1/2-z
-y,x,1/2-z
x,-y,z
-x,y,z
-y,-x,1/2+z
y,x,1/2+z
loop_
_atom_site_type_symbol
_atom_site_label
_atom_site_fract_x
_atom_site_fract_y
_atom_site_fract_z
Si Si1 0.135835 0.742726 0.500000
Si Si2 0.213762 0.637962 0.690800
Si Si3 0.000000 0.000000 0.750000
Si Si4 0.213995 0.000000 0.500000
Si Si5 0.260106 0.000000 0.303607
O O1 0.207296 0.695210 0.588940
O O2 0.000000 0.698145 0.500000
O O3 0.133741 0.883357 0.500000
O O4 0.331349 0.668652 0.750000
O O5 0.201471 0.500000 0.679513
O O6 0.111504 0.691914 0.751883
O O7 0.000000 0.117715 0.811806
O O8 0.300894 0.000000 0.410787
#
# Coordination Sequence:
#
# PCOD8316359 Si02
#       5
#     8  16   2   4   8
#     4  12  24  40  69 107 139 176 221 279 355 422
#     4  12  26  46  68  97 137 185 235 282 334 402
#     4  12  20  38  68  96 140 174 204 286 356 416
#     4  12  23  36  67 102 140 170 209 285 346 416
#     4  12  23  40  64 101 139 175 220 278 353 411
#
# _framework density 20.378691
#
# number of rings (size 3 to 8) (size 9 to 14) (size 15 to 20)
#    0.000    0.000    8.421    1.579    2.947    1.263 
#    0.000    5.263    0.000    2.526    0.000    0.000 
#    0.000    0.000    0.000    0.000    0.000    0.000 
#
# Total GULP energy -471120.577062 kJ/mol
# GULP energy per Si atom -12397.909923 kJ/mol
# Density = 2.033231 g / cm^3
# Si number density = 20.378691 Si / 1000 Ang^3
#
#
#
# Elastic Constant Matrix: (Units=GPa)
#
#
# Indices 1 2 3 4 5 6 
#
# 1 124.2022 30.0243 51.2059 0.0000 0.0000 0.0000
# 2 30.0243 124.2042 51.2063 0.0000 0.0000 0.0000
# 3 51.2059 51.2063 204.2649 0.0000 0.0000 0.0000
# 4 0.0000 0.0000 0.0000 9.2297 0.0000 0.0000
# 5 0.0000 0.0000 0.0000 0.0000 9.2293 0.0000
# 6 0.0000 0.0000 0.0000 0.0000 0.0000 4.4044
#
#
#
# Elastic Compliance Matrix: (Units=1/GPa)
#
#
# Indices 1 2 3 4 5 6 
#
# 1 0.009199 -0.001420 -0.001950 0.000000 0.000000 0.000000
# 2 -0.001420 0.009198 -0.001950 0.000000 0.000000 0.000000
# 3 -0.001950 -0.001950 0.005873 0.000000 0.000000 0.000000
# 4 0.000000 0.000000 0.000000 0.108346 0.000000 0.000000
# 5 0.000000 0.000000 0.000000 0.000000 0.108351 0.000000
# 6 0.000000 0.000000 0.000000 0.000000 0.000000 0.227047
#
#
# Mechanical properties :
#
#
# Convention : Reuss Voigt Hill
#
# Bulk Modulus (GPa) = 73.36328 79.72714 76.54521
# Shear Modulus (GPa) = 10.34774 25.92167 18.13470
#
# Velocity S-wave (km/s) = 2.25583 3.57038 2.98633
# Velocity P-wave (km/s) = 6.54700 7.49697 7.03803
#
# Compressibility (1/GPa) = 0.01363080
#
# Stress axis : x y z
#
# Youngs Moduli (GPa) = 108.71308 108.71489 170.26240
#
# Poissons Ratio (x) = 0.15434 0.33202
# Poissons Ratio (y) = 0.15433 0.33201
# Poissons Ratio (z) = 0.21199 0.21200
#
# Static dielectric constant tensor:
#      x y z
#    x 3.684330 0.000000 0.000000 
#    y 0.000000 3.684440 0.000000 
#    z 0.000000 0.000000 4.155970 
# 
# 
# High freq. dielectric constant tensor:
#      x y z
#    x 1.781130 0.000000 0.000000 
#    y 0.000000 1.781130 0.000000 
#    z 0.000000 0.000000 1.825760 
# 
# From -- ./inp_files/5072.got.cif
#   From: 2010.03.12/outbox.cif.g09.slc.cpg/sg131_3_cif.got.tgz:5072.got - 2010.04.06 17:36:35.
