data_PCOD8316374
_publ_section_title
;
Structure prediction by ZEFSAII (Michael W. Deem and Ramdas Pophale) SiO2 
 PCOD8316374
Probable space group: P 42/M M C
;
_chemical_formula_sum "Si O2"
_cell_formula_units_Z 48
_cell_length_a 9.584634
_cell_length_b 9.584634
_cell_length_c 31.213704
_cell_angle_alpha 90.000000
_cell_angle_beta 90.000000
_cell_angle_gamma 90.000000
_cell_volume 2867.453439
_symmetry_space_group_name_H-M "P 42/M M C"
_symmetry_group_IT_number 131
_symmetry_cell_setting 'tetragonal'
loop_
_space_group_symop_operation_xyz
x,y,z
-x,-y,z
-y,x,1/2+z
y,-x,1/2+z
-x,y,-z
x,-y,-z
y,x,1/2-z
-y,-x,1/2-z
-x,-y,-z
x,y,-z
y,-x,1/2-z
-y,x,1/2-z
x,-y,z
-x,y,z
-y,-x,1/2+z
y,x,1/2+z
loop_
_atom_site_type_symbol
_atom_site_label
_atom_site_fract_x
_atom_site_fract_y
_atom_site_fract_z
Si Si1 0.666587 0.342346 0.000000
Si Si2 0.834115 0.655163 0.671700
Si Si3 0.162465 0.837536 0.250000
Si Si4 0.666099 0.156018 0.922526
O O1 0.724598 0.262418 0.041922
O O2 0.500000 0.342539 0.000000
O O3 0.724765 0.500000 0.000000
O O4 0.773460 0.500000 0.680084
O O5 0.777768 0.758444 0.708310
O O6 0.788756 0.711268 0.624663
O O7 0.000000 0.649348 0.672517
O O8 0.000000 0.807328 0.242878
O O9 0.500000 0.149397 0.924286
O O10 0.725301 0.000000 0.931416
#
# Coordination Sequence:
#
# PCOD8316374 Si02
#       4
#     8  16   8  16
#     4   9  15  21  31  51  78 101 120 152 198 233
#     4   8  14  25  40  57  78 104 131 158 191 233
#     4   9  16  26  42  63  82 100 128 167 202 228
#     4   8  13  22  36  51  68  95 129 157 182 222
#
# _framework density 16.73959
#
# number of rings (size 3 to 8) (size 9 to 14) (size 15 to 20)
#    0.000    3.667    0.000    2.500    0.000    2.000 
#    0.000    1.667    0.000    2.500    0.000    1.167 
#    0.000    9.333    0.000    0.000    0.000    0.000 
#
# Total GULP energy -594792.577160 kJ/mol
# GULP energy per Si atom -12391.512024 kJ/mol
# Density = 1.670149 g / cm^3
# Si number density = 16.739590 Si / 1000 Ang^3
#
#
#
# Elastic Constant Matrix: (Units=GPa)
#
#
# Indices 1 2 3 4 5 6 
#
# 1 50.7886 19.9500 57.0474 0.0000 0.0000 0.0000
# 2 19.9500 50.7896 57.0473 0.0000 0.0000 0.0000
# 3 57.0474 57.0473 192.7438 0.0000 0.0000 0.0000
# 4 0.0000 0.0000 0.0000 23.2626 0.0000 0.0000
# 5 0.0000 0.0000 0.0000 0.0000 23.2629 0.0000
# 6 0.0000 0.0000 0.0000 0.0000 0.0000 6.8484
#
#
#
# Elastic Compliance Matrix: (Units=1/GPa)
#
#
# Indices 1 2 3 4 5 6 
#
# 1 0.029738 -0.002689 -0.008006 0.000000 0.000000 0.000000
# 2 -0.002689 0.029737 -0.008006 0.000000 0.000000 0.000000
# 3 -0.008006 -0.008006 0.009927 0.000000 0.000000 0.000000
# 4 0.000000 0.000000 0.000000 0.042987 0.000000 0.000000
# 5 0.000000 0.000000 0.000000 0.000000 0.042987 0.000000
# 6 0.000000 0.000000 0.000000 0.000000 0.000000 0.146020
#
#
# Mechanical properties :
#
#
# Convention : Reuss Voigt Hill
#
# Bulk Modulus (GPa) = 31.24810 62.49016 46.86913
# Shear Modulus (GPa) = 14.30757 21.35992 17.83375
#
# Velocity S-wave (km/s) = 2.92672 3.57601 3.26753
# Velocity P-wave (km/s) = 5.48896 7.37985 6.50349
#
# Compressibility (1/GPa) = 0.03200195
#
# Stress axis : x y z
#
# Youngs Moduli (GPa) = 33.62688 33.62784 100.73254
#
# Poissons Ratio (x) = 0.09042 0.80646
# Poissons Ratio (y) = 0.09041 0.80643
# Poissons Ratio (z) = 0.26922 0.26921
#
# Static dielectric constant tensor:
#      x y z
#    x 2.864240 0.000000 0.000000 
#    y 0.000000 2.864230 0.000000 
#    z 0.000000 0.000000 3.695530 
# 
# 
# High freq. dielectric constant tensor:
#      x y z
#    x 1.595900 0.000000 0.000000 
#    y 0.000000 1.595890 0.000000 
#    z 0.000000 0.000000 1.665400 
# 
# From -- ./inp_files/8862.got.cif
#   From: 2010.03.12/outbox.cif.g09.slc.cpg/sg131_5_cif.got.tgz:8862.got - 2010.04.06 17:36:35.
