data_PCOD8316608
_publ_section_title
;
Structure prediction by ZEFSAII (Michael W. Deem and Ramdas Pophale) SiO2 
 PCOD8316608
Probable space group: P 42/M C M
;
_chemical_formula_sum "Si O2"
_cell_formula_units_Z 96
_cell_length_a 23.636763
_cell_length_b 23.636763
_cell_length_c 9.167463
_cell_angle_alpha 90.000000
_cell_angle_beta 90.000000
_cell_angle_gamma 90.000000
_cell_volume 5121.830089
_symmetry_space_group_name_H-M "P 42/M C M"
_symmetry_group_IT_number 132
_symmetry_cell_setting 'tetragonal'
loop_
_space_group_symop_operation_xyz
x,y,z
-y,x,1/2+z
-x,-y,z
y,-x,1/2+z
x,-y,1/2-z
-x,y,1/2-z
y,x,-z
-y,-x,-z
-x,-y,-z
y,-x,1/2-z
x,y,-z
-y,x,1/2-z
-x,y,1/2+z
x,-y,1/2+z
-y,-x,z
y,x,z
loop_
_atom_site_type_symbol
_atom_site_label
_atom_site_fract_x
_atom_site_fract_y
_atom_site_fract_z
Si Si1 0.736414 0.051788 0.340659
Si Si2 0.615089 0.235907 0.330234
Si Si3 0.444039 0.144428 0.326839
Si Si4 0.178361 0.731621 0.327062
Si Si5 0.352248 0.441029 0.831153
Si Si6 0.050402 0.607013 0.660343
O O1 0.766304 0.053995 0.500000
O O2 0.738930 0.114335 0.263963
O O3 0.671733 0.034643 0.364348
O O4 0.765371 0.000000 0.250000
O O5 0.605820 0.219584 0.500000
O O6 0.566995 0.207704 0.229072
O O7 0.676295 0.213672 0.274245
O O8 0.605051 0.302385 0.305152
O O9 0.500000 0.120016 0.250000
O O10 0.447428 0.141034 0.500000
O O11 0.393958 0.106472 0.259832
O O12 0.173273 0.726817 0.500000
O O13 0.213559 0.786442 0.277017
O O14 0.342894 0.500000 0.750000
O O15 0.410065 0.410065 0.779368
O O16 0.355705 0.456684 0.000000
O O17 0.058561 0.578439 0.500000
O O18 0.000000 0.576232 0.750000
#
# Coordination Sequence:
#
# PCOD8316608 Si02
#       6
#    16  16  16  16  16  16
#     4   9  17  30  50  75 104 140 177 214 257 306
#     4  10  19  36  57  79 106 135 169 212 262 316
#     4  12  24  36  51  72  99 135 176 220 264 313
#     4   9  16  29  53  82 108 138 178 218 254 304
#     4  10  22  39  60  84 107 135 170 211 264 325
#     4  10  19  34  52  73  99 132 174 219 265 311
#
# _framework density 18.743300000000001
#
# number of rings (size 3 to 8) (size 9 to 14) (size 15 to 20)
#    0.000    2.000    1.667    3.000    0.000    5.500 
#    0.000    2.500    0.000    3.000    0.000    0.000 
#    0.000    0.333    0.000    4.167    0.000    0.000 
#
# Total GULP energy -1189493.090650 kJ/mol
# GULP energy per Si atom -12390.553028 kJ/mol
# Density = 1.870064 g / cm^3
# Si number density = 18.743300 Si / 1000 Ang^3
#
#
#
# Elastic Constant Matrix: (Units=GPa)
#
#
# Indices 1 2 3 4 5 6 
#
# 1 93.6664 42.3265 34.9112 0.0000 0.0000 0.0000
# 2 42.3265 93.6664 34.9112 0.0000 0.0000 0.0000
# 3 34.9112 34.9112 101.6905 0.0000 0.0000 0.0000
# 4 0.0000 0.0000 0.0000 21.0668 0.0000 0.0000
# 5 0.0000 0.0000 0.0000 0.0000 21.0668 0.0000
# 6 0.0000 0.0000 0.0000 0.0000 0.0000 14.1776
#
#
#
# Elastic Compliance Matrix: (Units=1/GPa)
#
#
# Indices 1 2 3 4 5 6 
#
# 1 0.014202 -0.005276 -0.003065 0.000000 0.000000 0.000000
# 2 -0.005276 0.014202 -0.003065 0.000000 0.000000 0.000000
# 3 -0.003065 -0.003065 0.011938 0.000000 0.000000 0.000000
# 4 0.000000 0.000000 0.000000 0.047468 0.000000 0.000000
# 5 0.000000 0.000000 0.000000 0.000000 0.047468 0.000000
# 6 0.000000 0.000000 0.000000 0.000000 0.000000 0.070534
#
#
# Mechanical properties :
#
#
# Convention : Reuss Voigt Hill
#
# Bulk Modulus (GPa) = 57.03528 57.03569 57.03548
# Shear Modulus (GPa) = 21.32497 23.05386 22.18942
#
# Velocity S-wave (km/s) = 3.37670 3.51091 3.44446
# Velocity P-wave (km/s) = 6.76007 6.85064 6.80551
#
# Compressibility (1/GPa) = 0.01753301
#
# Stress axis : x y z
#
# Youngs Moduli (GPa) = 70.41062 70.41062 83.76614
#
# Poissons Ratio (x) = 0.37146 0.25671
# Poissons Ratio (y) = 0.37146 0.25671
# Poissons Ratio (z) = 0.21578 0.21578
#
# Static dielectric constant tensor:
#      x y z
#    x 3.346520 0.000000 0.000000 
#    y 0.000000 3.346520 0.000000 
#    z 0.000000 0.000000 3.499710 
# 
# 
# High freq. dielectric constant tensor:
#      x y z
#    x 1.709410 0.000000 0.000000 
#    y 0.000000 1.709410 0.000000 
#    z 0.000000 0.000000 1.708770 
# 
# From -- ./inp_files/1733.got.cif
#   From: 2010.03.12/outbox.cif.g09.slc.cpg/sg132_1_cif.got.tgz:1733.got - 2010.04.06 17:53:44.
