data_PCOD8316798
_publ_section_title
;
Structure prediction by ZEFSAII (Michael W. Deem and Ramdas Pophale) SiO2 
 PCOD8316798
Probable space group: P 42/M C M
;
_chemical_formula_sum "Si O2"
_cell_formula_units_Z 112
_cell_length_a 13.593106
_cell_length_b 13.593106
_cell_length_c 32.551683
_cell_angle_alpha 90.000000
_cell_angle_beta 90.000000
_cell_angle_gamma 90.000000
_cell_volume 6014.656847
_symmetry_space_group_name_H-M "P 42/M C M"
_symmetry_group_IT_number 132
_symmetry_cell_setting 'tetragonal'
loop_
_space_group_symop_operation_xyz
x,y,z
-y,x,1/2+z
-x,-y,z
y,-x,1/2+z
x,-y,1/2-z
-x,y,1/2-z
y,x,-z
-y,-x,-z
-x,-y,-z
y,-x,1/2-z
x,y,-z
-y,x,1/2-z
-x,y,1/2+z
x,-y,1/2+z
-y,-x,z
y,x,z
loop_
_atom_site_type_symbol
_atom_site_label
_atom_site_fract_x
_atom_site_fract_y
_atom_site_fract_z
Si Si1 0.458008 0.695498 0.132802
Si Si2 0.364018 0.207625 0.169688
Si Si3 0.711315 0.865962 0.954034
Si Si4 0.544985 0.296760 0.544800
Si Si5 0.116748 0.723483 0.747783
Si Si6 0.849614 0.302943 0.839055
Si Si7 0.973029 0.613952 0.886814
O O1 0.412453 0.587548 0.141856
O O2 0.549302 0.711135 0.164337
O O3 0.475448 0.707917 0.084116
O O4 0.378727 0.777876 0.140504
O O5 0.260765 0.260765 0.161150
O O6 0.356601 0.150951 0.213453
O O7 0.387614 0.132532 0.133984
O O8 0.809841 0.809841 0.937501
O O9 0.621613 0.791116 0.952911
O O10 0.678752 0.961767 0.928067
O O11 0.731380 0.903557 0.000000
O O12 0.489658 0.290198 0.500000
O O13 0.599543 0.400458 0.547174
O O14 0.172250 0.827751 0.740390
O O15 0.148097 0.675190 0.790600
O O16 0.000000 0.743205 0.750000
O O17 0.808664 0.191337 0.846824
O O18 0.955931 0.322184 0.858076
O O19 0.000000 0.500000 0.895237
#
# Coordination Sequence:
#
# PCOD8316798 Si02
#       7
#    16  16  16  16  16  16  16
#     4  11  22  37  54  78 117 159 195 235 281 339
#     4  11  22  36  57  88 116 147 191 238 286 345
#     4   9  18  33  55  83 117 151 187 243 300 342
#     4   9  17  31  52  79 110 144 185 235 290 341
#     4  10  21  38  60  85 115 147 185 238 295 347
#     4  10  22  39  56  81 117 152 189 238 296 341
#     4  12  20  34  59  87 111 151 198 240 282 349
#
# _framework density 18.621179000000001
#
# number of rings (size 3 to 8) (size 9 to 14) (size 15 to 20)
#    0.000    1.714    4.286    1.714    0.000    2.429 
#    0.000    2.857    0.000    3.857    0.000    9.000 
#    0.000    0.000    0.000    0.000    0.000    0.000 
#
# Total GULP energy -1387623.743417 kJ/mol
# GULP energy per Si atom -12389.497709 kJ/mol
# Density = 1.857880 g / cm^3
# Si number density = 18.621179 Si / 1000 Ang^3
#
#
#
# Elastic Constant Matrix: (Units=GPa)
#
#
# Indices 1 2 3 4 5 6 
#
# 1 66.8217 33.9407 48.4886 0.0000 0.0000 0.0000
# 2 33.9407 66.8217 48.4886 0.0000 0.0000 0.0000
# 3 48.4886 48.4886 127.5554 0.0000 0.0000 0.0000
# 4 0.0000 0.0000 0.0000 30.0459 0.0000 0.0000
# 5 0.0000 0.0000 0.0000 0.0000 30.0459 0.0000
# 6 0.0000 0.0000 0.0000 0.0000 0.0000 26.2765
#
#
#
# Elastic Compliance Matrix: (Units=1/GPa)
#
#
# Indices 1 2 3 4 5 6 
#
# 1 0.023031 -0.007381 -0.005949 0.000000 0.000000 0.000000
# 2 -0.007381 0.023031 -0.005949 0.000000 0.000000 0.000000
# 3 -0.005949 -0.005949 0.012363 0.000000 0.000000 0.000000
# 4 0.000000 0.000000 0.000000 0.033282 0.000000 0.000000
# 5 0.000000 0.000000 0.000000 0.000000 0.033282 0.000000
# 6 0.000000 0.000000 0.000000 0.000000 0.000000 0.038057
#
#
# Mechanical properties :
#
#
# Convention : Reuss Voigt Hill
#
# Bulk Modulus (GPa) = 50.33698 58.11499 54.22598
# Shear Modulus (GPa) = 24.01207 25.95904 24.98556
#
# Velocity S-wave (km/s) = 3.59486 3.73776 3.66701
# Velocity P-wave (km/s) = 6.65744 7.06432 6.86390
#
# Compressibility (1/GPa) = 0.01986611
#
# Stress axis : x y z
#
# Youngs Moduli (GPa) = 43.41901 43.41901 80.88826
#
# Poissons Ratio (x) = 0.32049 0.48122
# Poissons Ratio (y) = 0.32049 0.48122
# Poissons Ratio (z) = 0.25831 0.25831
#
# Static dielectric constant tensor:
#      x y z
#    x 3.505900 0.000000 0.000000 
#    y 0.000000 3.505900 0.000000 
#    z 0.000000 0.000000 3.995960 
# 
# 
# High freq. dielectric constant tensor:
#      x y z
#    x 1.708980 0.000000 0.000000 
#    y 0.000000 1.708980 0.000000 
#    z 0.000000 0.000000 1.733920 
# 
# From -- ./inp_files/10975.got.cif
#   From: 2010.03.12/outbox.cif.g09.slc.cpg/sg132_6_cif.got.tgz:10975.got - 2010.04.06 17:53:44.
