data_PCOD8316509
_publ_section_title
;
Structure prediction by ZEFSAII (Michael W. Deem and Ramdas Pophale) SiO2 
 PCOD8316509
Probable space group: P 42/M C M
;
_chemical_formula_sum "Si O2"
_cell_formula_units_Z 80
_cell_length_a 16.541995
_cell_length_b 16.541995
_cell_length_c 19.530611
_cell_angle_alpha 90.000000
_cell_angle_beta 90.000000
_cell_angle_gamma 90.000000
_cell_volume 5344.309493
_symmetry_space_group_name_H-M "P 42/M C M"
_symmetry_group_IT_number 132
_symmetry_cell_setting 'tetragonal'
loop_
_space_group_symop_operation_xyz
x,y,z
-y,x,1/2+z
-x,-y,z
y,-x,1/2+z
x,-y,1/2-z
-x,y,1/2-z
y,x,-z
-y,-x,-z
-x,-y,-z
y,-x,1/2-z
x,y,-z
-y,x,1/2-z
-x,y,1/2+z
x,-y,1/2+z
-y,-x,z
y,x,z
loop_
_atom_site_type_symbol
_atom_site_label
_atom_site_fract_x
_atom_site_fract_y
_atom_site_fract_z
Si Si1 0.832955 0.705207 0.422851
Si Si2 0.098373 0.416491 0.326948
Si Si3 0.400040 0.913493 0.670439
Si Si4 0.037543 0.161352 0.580621
Si Si5 0.749537 0.879777 0.920631
O O1 0.849891 0.675984 0.500000
O O2 0.744509 0.744509 0.417123
O O3 0.836528 0.629479 0.372819
O O4 0.900297 0.768788 0.399379
O O5 0.102991 0.382007 0.250005
O O6 0.121702 0.509881 0.338844
O O7 0.007116 0.400335 0.351185
O O8 0.332670 0.871306 0.623107
O O9 0.030631 0.150743 0.500000
O O10 0.075565 0.075565 0.609516
O O11 0.949770 0.189357 0.608656
O O12 0.794634 0.794634 0.913454
O O13 0.727329 0.897906 0.000000
#
# Coordination Sequence:
#
# PCOD8316509 Si02
#       5
#    16  16  16  16  16
#     4   9  16  26  43  66  86 106 139 181 220 254
#     4   9  17  30  46  61  83 110 141 181 219 261
#     4   9  18  30  43  62  84 111 145 177 216 263
#     4   8  14  25  39  56  81 112 147 183 213 242
#     4  10  19  29  42  62  88 116 149 184 215 255
#
# _framework density 14.969193000000001
#
# number of rings (size 3 to 8) (size 9 to 14) (size 15 to 20)
#    0.000    3.000    2.000    2.400    0.000    2.000 
#    0.000    4.000    0.000    0.000    0.000    0.000 
#    0.000    0.800    0.000    8.800    0.000    6.400 
#
# Total GULP energy -991061.273001 kJ/mol
# GULP energy per Si atom -12388.265913 kJ/mol
# Density = 1.493512 g / cm^3
# Si number density = 14.969193 Si / 1000 Ang^3
#
#
#
# Elastic Constant Matrix: (Units=GPa)
#
#
# Indices 1 2 3 4 5 6 
#
# 1 69.0586 29.8474 42.1034 0.0000 0.0000 0.0000
# 2 29.8474 69.0586 42.1034 0.0000 0.0000 0.0000
# 3 42.1034 42.1034 59.9998 0.0000 0.0000 0.0000
# 4 0.0000 0.0000 0.0000 23.3752 0.0000 0.0000
# 5 0.0000 0.0000 0.0000 0.0000 23.3752 0.0000
# 6 0.0000 0.0000 0.0000 0.0000 0.0000 13.5612
#
#
#
# Elastic Compliance Matrix: (Units=1/GPa)
#
#
# Indices 1 2 3 4 5 6 
#
# 1 0.025309 -0.000194 -0.017624 0.000000 0.000000 0.000000
# 2 -0.000194 0.025309 -0.017624 0.000000 0.000000 0.000000
# 3 -0.017624 -0.017624 0.041401 0.000000 0.000000 0.000000
# 4 0.000000 0.000000 0.000000 0.042780 0.000000 0.000000
# 5 0.000000 0.000000 0.000000 0.000000 0.042780 0.000000
# 6 0.000000 0.000000 0.000000 0.000000 0.000000 0.073740
#
#
# Mechanical properties :
#
#
# Convention : Reuss Voigt Hill
#
# Bulk Modulus (GPa) = 47.31337 47.35835 47.33586
# Shear Modulus (GPa) = 15.18603 17.66650 16.42627
#
# Velocity S-wave (km/s) = 3.18855 3.43912 3.31620
# Velocity P-wave (km/s) = 6.72545 6.89028 6.80836
#
# Compressibility (1/GPa) = 0.02113568
#
# Stress axis : x y z
#
# Youngs Moduli (GPa) = 39.51126 39.51126 24.15375
#
# Poissons Ratio (x) = 0.00765 0.42569
# Poissons Ratio (y) = 0.00765 0.42569
# Poissons Ratio (z) = 0.69635 0.69635
#
# Static dielectric constant tensor:
#      x y z
#    x 2.776800 0.000000 0.000000 
#    y 0.000000 2.776800 0.000000 
#    z 0.000000 0.000000 2.698840 
# 
# 
# High freq. dielectric constant tensor:
#      x y z
#    x 1.551780 0.000000 0.000000 
#    y 0.000000 1.551780 0.000000 
#    z 0.000000 0.000000 1.555350 
# 
# From -- ./inp_files/4631.got.cif
#   From: 2010.03.12/outbox.cif.g09.slc.cpg/sg132_3_cif.got.tgz:4631.got - 2010.04.06 17:53:44.
