data_PCOD8316253
_publ_section_title
;
Structure prediction by ZEFSAII (Michael W. Deem and Ramdas Pophale) SiO2 
 PCOD8316253
Probable space group: P 42/M M C
;
_chemical_formula_sum "Si O2"
_cell_formula_units_Z 80
_cell_length_a 14.321243
_cell_length_b 14.321243
_cell_length_c 20.323320
_cell_angle_alpha 90.000000
_cell_angle_beta 90.000000
_cell_angle_gamma 90.000000
_cell_volume 4168.272307
_symmetry_space_group_name_H-M "P 42/M M C"
_symmetry_group_IT_number 131
_symmetry_cell_setting 'tetragonal'
loop_
_space_group_symop_operation_xyz
x,y,z
-x,-y,z
-y,x,1/2+z
y,-x,1/2+z
-x,y,-z
x,-y,-z
y,x,1/2-z
-y,-x,1/2-z
-x,-y,-z
x,y,-z
y,-x,1/2-z
-y,x,1/2-z
x,-y,z
-x,y,z
-y,-x,1/2+z
y,x,1/2+z
loop_
_atom_site_type_symbol
_atom_site_label
_atom_site_fract_x
_atom_site_fract_y
_atom_site_fract_z
Si Si1 0.896455 0.396843 0.638078
Si Si2 0.702365 0.606307 0.310416
Si Si3 0.281285 0.608363 0.076643
Si Si4 0.205088 0.101010 0.076314
Si Si5 0.103435 0.280496 0.077854
O O1 0.887360 0.500000 0.604562
O O2 0.815236 0.387014 0.692695
O O3 0.880907 0.315794 0.584575
O O4 0.000000 0.386951 0.670720
O O5 0.665476 0.665476 0.250000
O O6 0.667987 0.500000 0.303342
O O7 0.665268 0.645048 0.379971
O O8 0.292957 0.500000 0.092453
O O9 0.175146 0.636799 0.095852
O O10 0.301262 0.631055 0.000000
O O11 0.143763 0.183580 0.108730
O O12 0.177021 0.000000 0.107338
O O13 0.183510 0.099298 0.000000
O O14 0.000000 0.300987 0.107194
O O15 0.096328 0.270626 0.000000
#
# Coordination Sequence:
#
# PCOD8316253 Si02
#       5
#    16  16  16  16  16
#     4   9  18  33  54  79 107 140 176 218 269 326
#     4  11  23  39  60  84 113 147 183 225 273 327
#     4  10  21  37  56  80 111 146 188 234 278 327
#     4   9  16  27  47  77 111 144 179 221 271 327
#     4   9  17  30  48  73 107 144 184 230 279 329
#
# _framework density 19.192605
#
# number of rings (size 3 to 8) (size 9 to 14) (size 15 to 20)
#    0.000    2.400    2.000    0.600    0.000    3.000 
#    0.000   10.000    0.000    2.400    0.000    0.000 
#    0.000    0.000    0.000    0.000    0.000    0.000 
#
# Total GULP energy -991198.041938 kJ/mol
# GULP energy per Si atom -12389.975524 kJ/mol
# Density = 1.914892 g / cm^3
# Si number density = 19.192605 Si / 1000 Ang^3
#
#
#
# Elastic Constant Matrix: (Units=GPa)
#
#
# Indices 1 2 3 4 5 6 
#
# 1 104.4423 29.2549 25.0980 0.0000 0.0000 0.0000
# 2 29.2549 104.4423 25.0980 0.0000 0.0000 0.0000
# 3 25.0980 25.0980 44.2522 0.0000 0.0000 0.0000
# 4 0.0000 0.0000 0.0000 18.9647 0.0000 0.0000
# 5 0.0000 0.0000 0.0000 0.0000 18.9647 0.0000
# 6 0.0000 0.0000 0.0000 0.0000 0.0000 27.6562
#
#
#
# Elastic Compliance Matrix: (Units=1/GPa)
#
#
# Indices 1 2 3 4 5 6 
#
# 1 0.011402 -0.001898 -0.005390 0.000000 0.000000 0.000000
# 2 -0.001898 0.011402 -0.005390 0.000000 0.000000 0.000000
# 3 -0.005390 -0.005390 0.028711 0.000000 0.000000 0.000000
# 4 0.000000 0.000000 0.000000 0.052729 0.000000 0.000000
# 5 0.000000 0.000000 0.000000 0.000000 0.052729 0.000000
# 6 0.000000 0.000000 0.000000 0.000000 0.000000 0.036158
#
#
# Mechanical properties :
#
#
# Convention : Reuss Voigt Hill
#
# Bulk Modulus (GPa) = 38.22832 45.78207 42.00520
# Shear Modulus (GPa) = 22.00631 24.69619 23.35125
#
# Velocity S-wave (km/s) = 3.38983 3.59103 3.49188
# Velocity P-wave (km/s) = 5.93993 6.41091 6.17991
#
# Compressibility (1/GPa) = 0.02615862
#
# Stress axis : x y z
#
# Youngs Moduli (GPa) = 87.70677 87.70677 34.82933
#
# Poissons Ratio (x) = 0.16651 0.18772
# Poissons Ratio (y) = 0.16651 0.18772
# Poissons Ratio (z) = 0.47272 0.47272
#
# Static dielectric constant tensor:
#      x y z
#    x 3.891270 0.000000 0.000000 
#    y 0.000000 3.891270 0.000000 
#    z 0.000000 0.000000 2.947000 
# 
# 
# High freq. dielectric constant tensor:
#      x y z
#    x 1.761870 0.000000 0.000000 
#    y 0.000000 1.761870 0.000000 
#    z 0.000000 0.000000 1.679760 
# 
# From -- ./inp_files/9437.got.cif
#   From: 2010.03.12/outbox.cif.g09.slc.cpg/sg131_5_cif.got.tgz:9437.got - 2010.04.06 17:36:35.
