data_PCOD8316926
_publ_section_title
;
Structure prediction by ZEFSAII (Michael W. Deem and Ramdas Pophale) SiO2 
 PCOD8316926
Probable space group: P 42/N B C
;
_chemical_formula_sum "Si O2"
_cell_formula_units_Z 60
_cell_length_a 17.195596
_cell_length_b 17.195596
_cell_length_c 9.131719
_cell_angle_alpha 90.000000
_cell_angle_beta 90.000000
_cell_angle_gamma 90.000000
_cell_volume 2700.144493
_symmetry_space_group_name_H-M "P 42/N B C"
_symmetry_group_IT_number 133
_space_group.IT_coordinate_system_code '2'
_symmetry_cell_setting 'tetragonal'
loop_
_space_group_symop_operation_xyz
x,y,z
1/2-y,x,1/2+z
1/2-x,1/2-y,z
y,1/2-x,1/2+z
x,1/2-y,-z
1/2-x,y,-z
y,x,1/2-z
1/2-y,1/2-x,1/2-z
-x,-y,-z
1/2+y,-x,1/2-z
1/2+x,1/2+y,-z
-y,1/2+x,1/2-z
-x,1/2+y,z
1/2+x,-y,z
-y,-x,1/2+z
1/2+y,1/2+x,1/2+z
loop_
_atom_site_type_symbol
_atom_site_label
_atom_site_fract_x
_atom_site_fract_y
_atom_site_fract_z
Si Si1 0.110462 0.817570 0.676188
Si Si2 0.428494 0.092976 0.407557
Si Si3 0.442434 0.597619 0.946812
Si Si4 0.250000 0.750000 0.500000
Si Si5 0.750000 0.513916 0.000000
O O1 0.102314 0.836214 0.849544
O O2 0.084659 0.895967 0.596305
O O3 0.197027 0.798002 0.616817
O O4 0.046398 0.750915 0.639045
O O5 0.389520 0.110481 0.250000
O O6 0.513786 0.058435 0.369132
O O7 0.431585 0.174770 0.493593
O O8 0.380355 0.031502 0.509153
#
# Coordination Sequence:
#
# PCOD8316926 Si02
#       5
#    16  16  16   4   8
#     4  10  21  38  56  92 129 178 210 259 317 405
#     4  10  19  37  62  91 119 165 217 286 325 392
#     4  10  20  35  62  87 121 168 232 262 318 382
#     4  10  24  38  60  86 154 180 202 254 334 406
#     4   9  22  35  58  90 128 152 214 280 341 366
#
# _framework density 22.221032999999998
#
# number of rings (size 3 to 8) (size 9 to 14) (size 15 to 20)
#    0.000    2.133    2.667    0.000    0.000    7.467 
#    0.000    0.000    0.000    0.000    0.000   13.067 
#    0.000    0.000    0.000    0.000    0.000    0.000 
#
# Total GULP energy -743385.397312 kJ/mol
# GULP energy per Si atom -12389.756622 kJ/mol
# Density = 2.217046 g / cm^3
# Si number density = 22.221033 Si / 1000 Ang^3
#
#
#
# Elastic Constant Matrix: (Units=GPa)
#
#
# Indices 1 2 3 4 5 6 
#
# 1 92.8003 30.4946 29.0498 0.0000 0.0000 0.0000
# 2 30.4946 92.7996 29.0496 0.0000 0.0000 0.0000
# 3 29.0498 29.0496 95.8996 0.0000 0.0000 0.0000
# 4 0.0000 0.0000 0.0000 28.9145 0.0000 0.0000
# 5 0.0000 0.0000 0.0000 0.0000 28.9145 0.0000
# 6 0.0000 0.0000 0.0000 0.0000 0.0000 19.2334
#
#
#
# Elastic Compliance Matrix: (Units=1/GPa)
#
#
# Indices 1 2 3 4 5 6 
#
# 1 0.012756 -0.003294 -0.002866 0.000000 0.000000 0.000000
# 2 -0.003294 0.012756 -0.002866 0.000000 0.000000 0.000000
# 3 -0.002866 -0.002866 0.012164 0.000000 0.000000 0.000000
# 4 0.000000 0.000000 0.000000 0.034585 0.000000 0.000000
# 5 0.000000 0.000000 0.000000 0.000000 0.034585 0.000000
# 6 0.000000 0.000000 0.000000 0.000000 0.000000 0.051993
#
#
# Mechanical properties :
#
#
# Convention : Reuss Voigt Hill
#
# Bulk Modulus (GPa) = 50.96221 50.96527 50.96374
# Shear Modulus (GPa) = 27.25825 28.27286 27.76556
#
# Velocity S-wave (km/s) = 3.50621 3.57087 3.53869
# Velocity P-wave (km/s) = 6.27498 6.32352 6.29929
#
# Compressibility (1/GPa) = 0.01962238
#
# Stress axis : x y z
#
# Youngs Moduli (GPa) = 78.39738 78.39683 82.21069
#
# Poissons Ratio (x) = 0.25827 0.23561
# Poissons Ratio (y) = 0.25827 0.23561
# Poissons Ratio (z) = 0.22468 0.22468
#
# Static dielectric constant tensor:
#      x y z
#    x 3.788930 0.000000 0.000000 
#    y 0.000000 3.788930 0.000000 
#    z 0.000000 0.000000 4.042840 
# 
# 
# High freq. dielectric constant tensor:
#      x y z
#    x 1.850200 0.000000 0.000000 
#    y 0.000000 1.850200 0.000000 
#    z 0.000000 0.000000 1.876290 
# 
# From -- ./inp_files/1330.got.cif
#   From: 2010.03.12/outbox.cif.g09.slc.cpg/sg133_1_cif.got.tgz:1330.got - 2010.04.06 18:08:06.
