data_PCOD8316750
_publ_section_title
;
Structure prediction by ZEFSAII (Michael W. Deem and Ramdas Pophale) SiO2 
 PCOD8316750
Probable space group: P 42/M C M
;
_chemical_formula_sum "Si O2"
_cell_formula_units_Z 88
_cell_length_a 15.938800
_cell_length_b 15.938800
_cell_length_c 18.412414
_cell_angle_alpha 90.000000
_cell_angle_beta 90.000000
_cell_angle_gamma 90.000000
_cell_volume 4677.588075
_symmetry_space_group_name_H-M "P 42/M C M"
_symmetry_group_IT_number 132
_symmetry_cell_setting 'tetragonal'
loop_
_space_group_symop_operation_xyz
x,y,z
-y,x,1/2+z
-x,-y,z
y,-x,1/2+z
x,-y,1/2-z
-x,y,1/2-z
y,x,-z
-y,-x,-z
-x,-y,-z
y,-x,1/2-z
x,y,-z
-y,x,1/2-z
-x,y,1/2+z
x,-y,1/2+z
-y,-x,z
y,x,z
loop_
_atom_site_type_symbol
_atom_site_label
_atom_site_fract_x
_atom_site_fract_y
_atom_site_fract_z
Si Si1 0.801635 0.940830 0.681999
Si Si2 0.215477 0.647997 0.353774
Si Si3 0.802860 0.666629 0.309950
Si Si4 0.753651 0.469955 0.915200
Si Si5 0.566033 0.566033 0.413984
Si Si6 0.089836 0.226783 0.916400
O O1 0.879854 0.879854 0.670075
O O2 0.716465 0.889741 0.695491
O O3 0.820289 0.000000 0.750000
O O4 0.790295 0.995731 0.609808
O O5 0.294526 0.705475 0.376555
O O6 0.217560 0.626620 0.268455
O O7 0.217690 0.564405 0.401179
O O8 0.129784 0.696706 0.371521
O O9 0.728881 0.728881 0.334834
O O10 0.811887 0.593339 0.369438
O O11 0.658518 0.458445 0.887080
O O12 0.763267 0.448397 0.000000
O O13 0.500000 0.500000 0.379823
O O14 0.561637 0.561637 0.500000
O O15 0.142795 0.142795 0.902589
O O16 0.088009 0.252657 0.000000
#
# Coordination Sequence:
#
# PCOD8316750 Si02
#       6
#    16  16  16  16   8  16
#     4  11  22  39  64  91 116 153 197 240 296 364
#     4  10  20  37  61  85 115 159 205 247 294 354
#     4  10  21  38  60  84 118 158 199 244 299 360
#     4  11  21  35  57  86 121 160 203 250 297 351
#     4   9  18  32  52  82 120 156 196 250 301 340
#     4  10  21  38  60  90 124 154 191 242 297 356
#
# _framework density 18.813116000000001
#
# number of rings (size 3 to 8) (size 9 to 14) (size 15 to 20)
#    0.000    1.727    2.727    2.182    0.000    4.182 
#    0.000    3.636    0.000    2.182    0.000    0.000 
#    0.000    0.000    0.000    0.000    0.000    0.000 
#
# Total GULP energy -1091621.636581 kJ/mol
# GULP energy per Si atom -12404.791325 kJ/mol
# Density = 1.877030 g / cm^3
# Si number density = 18.813116 Si / 1000 Ang^3
#
#
#
# Elastic Constant Matrix: (Units=GPa)
#
#
# Indices 1 2 3 4 5 6 
#
# 1 94.4210 37.6571 36.0081 0.0000 0.0000 0.0000
# 2 37.6571 94.4210 36.0081 0.0000 0.0000 0.0000
# 3 36.0081 36.0081 91.9834 0.0000 0.0000 0.0000
# 4 0.0000 0.0000 0.0000 32.8497 0.0000 0.0000
# 5 0.0000 0.0000 0.0000 0.0000 32.8497 0.0000
# 6 0.0000 0.0000 0.0000 0.0000 0.0000 21.2048
#
#
#
# Elastic Compliance Matrix: (Units=1/GPa)
#
#
# Indices 1 2 3 4 5 6 
#
# 1 0.013621 -0.003995 -0.003768 0.000000 0.000000 0.000000
# 2 -0.003995 0.013621 -0.003768 0.000000 0.000000 0.000000
# 3 -0.003768 -0.003768 0.013822 0.000000 0.000000 0.000000
# 4 0.000000 0.000000 0.000000 0.030442 0.000000 0.000000
# 5 0.000000 0.000000 0.000000 0.000000 0.030442 0.000000
# 6 0.000000 0.000000 0.000000 0.000000 0.000000 0.047159
#
#
# Mechanical properties :
#
#
# Convention : Reuss Voigt Hill
#
# Bulk Modulus (GPa) = 55.55305 55.57462 55.56384
# Shear Modulus (GPa) = 28.06296 28.79100 28.42698
#
# Velocity S-wave (km/s) = 3.86640 3.91624 3.89140
# Velocity P-wave (km/s) = 7.03741 7.07486 7.05616
#
# Compressibility (1/GPa) = 0.01800081
#
# Stress axis : x y z
#
# Youngs Moduli (GPa) = 73.41408 73.41408 72.34981
#
# Poissons Ratio (x) = 0.29332 0.27263
# Poissons Ratio (y) = 0.29332 0.27263
# Poissons Ratio (z) = 0.27664 0.27664
#
# Static dielectric constant tensor:
#      x y z
#    x 3.433740 0.000000 0.000000 
#    y 0.000000 3.433740 0.000000 
#    z 0.000000 0.000000 3.364650 
# 
# 
# High freq. dielectric constant tensor:
#      x y z
#    x 1.725250 0.000000 0.000000 
#    y 0.000000 1.725250 0.000000 
#    z 0.000000 0.000000 1.731970 
# 
# From -- ./inp_files/7748.got.cif
#   From: 2010.03.12/outbox.cif.g09.slc.cpg/sg132_4_cif.got.tgz:7748.got - 2010.04.06 17:53:44.
