data_PCOD8316021
_publ_section_title
;
Structure prediction by ZEFSAII (Michael W. Deem and Ramdas Pophale) SiO2 
 PCOD8316021
Probable space group: P 42/M M C
;
_chemical_formula_sum "Si O2"
_cell_formula_units_Z 64
_cell_length_a 10.812704
_cell_length_b 10.812704
_cell_length_c 29.579405
_cell_angle_alpha 90.000000
_cell_angle_beta 90.000000
_cell_angle_gamma 90.000000
_cell_volume 3458.263351
_symmetry_space_group_name_H-M "P 42/M M C"
_symmetry_group_IT_number 131
_symmetry_cell_setting 'tetragonal'
loop_
_space_group_symop_operation_xyz
x,y,z
-x,-y,z
-y,x,1/2+z
y,-x,1/2+z
-x,y,-z
x,-y,-z
y,x,1/2-z
-y,-x,1/2-z
-x,-y,-z
x,y,-z
y,-x,1/2-z
-y,x,1/2-z
x,-y,z
-x,y,z
-y,-x,1/2+z
y,x,1/2+z
loop_
_atom_site_type_symbol
_atom_site_label
_atom_site_fract_x
_atom_site_fract_y
_atom_site_fract_z
Si Si1 0.639559 0.744839 0.793530
Si Si2 0.863415 0.000000 0.910894
Si Si3 0.641292 0.362039 0.612031
Si Si4 0.261723 0.138712 0.448367
Si Si5 0.000000 0.360187 0.339834
O O1 0.723861 0.723861 0.750000
O O2 0.500000 0.712793 0.779407
O O3 0.679597 0.661307 0.836218
O O4 0.657389 0.885506 0.807146
O O5 0.854909 0.115104 0.944220
O O6 0.747263 0.000000 0.877040
O O7 0.000000 0.000000 0.886048
O O8 0.704637 0.500000 0.604008
O O9 0.500000 0.379217 0.601220
O O10 0.687032 0.251471 0.580783
O O11 0.301207 0.160962 0.500000
O O12 0.308202 0.000000 0.433050
O O13 0.000000 0.500000 0.361481
#
# Coordination Sequence:
#
# PCOD8316021 Si02
#       5
#    16   8  16  16   8
#     4  10  20  37  59  82 111 147 185 225 275 332
#     4  10  19  36  60  84 112 144 188 231 279 331
#     4  10  21  37  58  83 111 147 192 237 279 329
#     4  10  21  37  58  83 113 149 187 228 280 340
#     4  10  20  37  59  83 114 150 183 231 286 336
#
# _framework density 18.506398000000001
#
# number of rings (size 3 to 8) (size 9 to 14) (size 15 to 20)
#    0.000    2.000    2.500    1.125    0.000    4.250 
#    4.500    2.500    0.000    2.250    0.000    0.000 
#    0.000    0.000    0.000    0.000    0.000    0.000 
#
# Total GULP energy -792897.793669 kJ/mol
# GULP energy per Si atom -12389.028026 kJ/mol
# Density = 1.846428 g / cm^3
# Si number density = 18.506398 Si / 1000 Ang^3
#
#
#
# Elastic Constant Matrix: (Units=GPa)
#
#
# Indices 1 2 3 4 5 6 
#
# 1 88.7922 40.0427 42.1160 0.0000 0.0000 0.0000
# 2 40.0427 88.7922 42.1160 0.0000 0.0000 0.0000
# 3 42.1160 42.1160 92.7674 0.0000 0.0000 0.0000
# 4 0.0000 0.0000 0.0000 23.9806 0.0000 0.0000
# 5 0.0000 0.0000 0.0000 0.0000 23.9806 0.0000
# 6 0.0000 0.0000 0.0000 0.0000 0.0000 72.1777
#
#
#
# Elastic Compliance Matrix: (Units=1/GPa)
#
#
# Indices 1 2 3 4 5 6 
#
# 1 0.015776 -0.004737 -0.005011 0.000000 0.000000 0.000000
# 2 -0.004737 0.015776 -0.005011 0.000000 0.000000 0.000000
# 3 -0.005011 -0.005011 0.015330 0.000000 0.000000 0.000000
# 4 0.000000 0.000000 0.000000 0.041700 0.000000 0.000000
# 5 0.000000 0.000000 0.000000 0.000000 0.041700 0.000000
# 6 0.000000 0.000000 0.000000 0.000000 0.000000 0.013855
#
#
# Mechanical properties :
#
#
# Convention : Reuss Voigt Hill
#
# Bulk Modulus (GPa) = 57.59996 57.65568 57.62782
# Shear Modulus (GPa) = 27.86391 33.76628 30.81509
#
# Velocity S-wave (km/s) = 3.88446 4.27614 4.08500
# Velocity P-wave (km/s) = 7.16315 7.45671 7.31140
#
# Compressibility (1/GPa) = 0.01736112
#
# Stress axis : x y z
#
# Youngs Moduli (GPa) = 63.38887 63.38887 65.23211
#
# Poissons Ratio (x) = 0.30030 0.32690
# Poissons Ratio (y) = 0.30030 0.32690
# Poissons Ratio (z) = 0.31766 0.31766
#
# Static dielectric constant tensor:
#      x y z
#    x 4.243080 0.000000 0.000000 
#    y 0.000000 4.243080 0.000000 
#    z 0.000000 0.000000 3.176420 
# 
# 
# High freq. dielectric constant tensor:
#      x y z
#    x 1.726660 0.000000 0.000000 
#    y 0.000000 1.726660 0.000000 
#    z 0.000000 0.000000 1.700900 
# 
# From -- ./inp_files/10808.got.cif
#   From: 2010.03.12/outbox.cif.g09.slc.cpg/sg131_6_cif.got.tgz:10808.got - 2010.04.06 17:36:35.
