data_PCOD8316821
_publ_section_title
;
Structure prediction by ZEFSAII (Michael W. Deem and Ramdas Pophale) SiO2 
 PCOD8316821
Probable space group: P 42/M C M
;
_chemical_formula_sum "Si O2"
_cell_formula_units_Z 98
_cell_length_a 15.215434
_cell_length_b 15.215434
_cell_length_c 22.832467
_cell_angle_alpha 90.000000
_cell_angle_beta 90.000000
_cell_angle_gamma 90.000000
_cell_volume 5285.931462
_symmetry_space_group_name_H-M "P 42/M C M"
_symmetry_group_IT_number 132
_symmetry_cell_setting 'tetragonal'
loop_
_space_group_symop_operation_xyz
x,y,z
-y,x,1/2+z
-x,-y,z
y,-x,1/2+z
x,-y,1/2-z
-x,y,1/2-z
y,x,-z
-y,-x,-z
-x,-y,-z
y,-x,1/2-z
x,y,-z
-y,x,1/2-z
-x,y,1/2+z
x,-y,1/2+z
-y,-x,z
y,x,z
loop_
_atom_site_type_symbol
_atom_site_label
_atom_site_fract_x
_atom_site_fract_y
_atom_site_fract_z
Si Si1 0.622438 0.622438 0.821970
Si Si2 0.305623 0.694378 0.433461
Si Si3 0.103223 0.757011 0.743721
Si Si4 0.518995 0.208036 0.311332
Si Si5 0.500000 0.500000 0.250000
Si Si6 0.659698 0.125366 0.376799
Si Si7 0.193494 0.337832 0.350628
Si Si8 0.403671 0.038540 0.431736
O O1 0.631980 0.631980 0.892864
O O2 0.717539 0.592947 0.798691
O O3 0.553970 0.553970 0.797359
O O4 0.329190 0.670811 0.500000
O O5 0.320762 0.796752 0.421710
O O6 0.148190 0.851811 0.751943
O O7 0.127307 0.722749 0.679284
O O8 0.138817 0.691327 0.793513
O O9 0.000000 0.769160 0.750000
O O10 0.500000 0.159749 0.250000
O O11 0.558517 0.135994 0.355118
O O12 0.427012 0.247950 0.335603
O O13 0.667191 0.035186 0.412482
O O14 0.261782 0.261782 0.371361
O O15 0.127043 0.369769 0.400813
O O16 0.397395 0.058519 0.500000
O O17 0.500000 0.000000 0.415572
#
# Coordination Sequence:
#
# PCOD8316821 Si02
#       8
#     8   8  16  16   2  16  16  16
#     4  10  24  34  55  85 118 161 201 249 304 354
#     4  10  22  40  59  86 122 157 198 248 302 357
#     4  11  22  37  60  89 123 153 198 241 302 371
#     4  11  21  34  54  87 122 152 191 241 304 363
#     4  12  20  36  58  84 116 160 216 258 312 348
#     4  11  20  36  62  90 114 154 194 249 299 356
#     4  11  24  37  58  86 118 159 195 246 303 363
#     4  11  23  40  60  85 115 154 205 250 303 366
#
# _framework density 18.53978
#
# number of rings (size 3 to 8) (size 9 to 14) (size 15 to 20)
#    0.000    1.143    6.531    0.490    2.286    0.490 
#    0.000    2.653    0.000    0.000    0.000    0.000 
#    0.000    5.224    0.000    0.000    0.000    0.000 
#
# Total GULP energy -1214173.464983 kJ/mol
# GULP energy per Si atom -12389.525153 kJ/mol
# Density = 1.849758 g / cm^3
# Si number density = 18.539780 Si / 1000 Ang^3
#
#
#
# Elastic Constant Matrix: (Units=GPa)
#
#
# Indices 1 2 3 4 5 6 
#
# 1 95.7671 44.3156 36.1179 0.0000 0.0000 0.0000
# 2 44.3156 95.7674 36.1182 0.0000 0.0000 0.0000
# 3 36.1179 36.1182 105.2644 0.0000 0.0000 0.0000
# 4 0.0000 0.0000 0.0000 22.6474 0.0000 0.0000
# 5 0.0000 0.0000 0.0000 0.0000 22.6473 0.0000
# 6 0.0000 0.0000 0.0000 0.0000 0.0000 24.9230
#
#
#
# Elastic Compliance Matrix: (Units=1/GPa)
#
#
# Indices 1 2 3 4 5 6 
#
# 1 0.014054 -0.005381 -0.002976 0.000000 0.000000 0.000000
# 2 -0.005381 0.014054 -0.002976 0.000000 0.000000 0.000000
# 3 -0.002976 -0.002976 0.011542 0.000000 0.000000 0.000000
# 4 0.000000 0.000000 0.000000 0.044155 0.000000 0.000000
# 5 0.000000 0.000000 0.000000 0.000000 0.044155 0.000000
# 6 0.000000 0.000000 0.000000 0.000000 0.000000 0.040124
#
#
# Mechanical properties :
#
#
# Convention : Reuss Voigt Hill
#
# Bulk Modulus (GPa) = 58.87623 58.87805 58.87714
# Shear Modulus (GPa) = 25.45658 26.06002 25.75830
#
# Velocity S-wave (km/s) = 3.70953 3.75324 3.73145
# Velocity P-wave (km/s) = 7.08330 7.11400 7.09867
#
# Compressibility (1/GPa) = 0.01698478
#
# Stress axis : x y z
#
# Youngs Moduli (GPa) = 71.15167 71.15171 86.63946
#
# Poissons Ratio (x) = 0.38289 0.25783
# Poissons Ratio (y) = 0.38289 0.25784
# Poissons Ratio (z) = 0.21174 0.21174
#
# Static dielectric constant tensor:
#      x y z
#    x 3.442720 0.000000 0.000000 
#    y 0.000000 3.442720 0.000000 
#    z 0.000000 0.000000 3.341390 
# 
# 
# High freq. dielectric constant tensor:
#      x y z
#    x 1.715320 0.000000 0.000000 
#    y 0.000000 1.715320 0.000000 
#    z 0.000000 0.000000 1.716160 
# 
# From -- ./inp_files/9071.got.cif
#   From: 2010.03.12/outbox.cif.g09.slc.cpg/sg132_5_cif.got.tgz:9071.got - 2010.04.06 17:53:44.
