data_PCOD8316628
_publ_section_title
;
Structure prediction by ZEFSAII (Michael W. Deem and Ramdas Pophale) SiO2 
 PCOD8316628
Probable space group: P 42/M C M
;
_chemical_formula_sum "Si O2"
_cell_formula_units_Z 60
_cell_length_a 11.892226
_cell_length_b 11.892226
_cell_length_c 20.910159
_cell_angle_alpha 90.000000
_cell_angle_beta 90.000000
_cell_angle_gamma 90.000000
_cell_volume 2957.220057
_symmetry_space_group_name_H-M "P 42/M C M"
_symmetry_group_IT_number 132
_symmetry_cell_setting 'tetragonal'
loop_
_space_group_symop_operation_xyz
x,y,z
-y,x,1/2+z
-x,-y,z
y,-x,1/2+z
x,-y,1/2-z
-x,y,1/2-z
y,x,-z
-y,-x,-z
-x,-y,-z
y,-x,1/2-z
x,y,-z
-y,x,1/2-z
-x,y,1/2+z
x,-y,1/2+z
-y,-x,z
y,x,z
loop_
_atom_site_type_symbol
_atom_site_label
_atom_site_fract_x
_atom_site_fract_y
_atom_site_fract_z
Si Si1 0.779294 0.407992 0.125032
Si Si2 0.913914 0.086087 0.390818
Si Si3 0.500000 0.316144 0.750000
Si Si4 0.933101 0.754617 0.690651
Si Si5 0.211554 0.211554 0.000000
Si Si6 0.134694 0.529089 0.500000
O O1 0.672586 0.327415 0.111529
O O2 0.757310 0.488982 0.185762
O O3 0.891808 0.339497 0.141502
O O4 0.805884 0.477967 0.062145
O O5 0.842052 0.157949 0.438302
O O6 0.982644 0.166878 0.345929
O O7 0.000000 0.000000 0.426351
O O8 0.389379 0.389379 0.759990
O O9 0.825311 0.825311 0.716041
O O10 0.000000 0.699553 0.750000
O O11 0.341486 0.174006 0.000000
O O12 0.000000 0.500000 0.500000
#
# Coordination Sequence:
#
# PCOD8316628 Si02
#       6
#    16   8   8  16   4   8
#     4  10  23  42  65  91 125 175 217 264 333 392
#     4  10  21  38  64  89 133 166 215 257 319 405
#     4   9  20  40  65  92 122 154 211 278 321 380
#     4  10  19  35  62  96 128 167 210 270 324 394
#     4  12  27  42  63  96 118 184 218 270 337 382
#     4  12  27  46  63  94 138 168 222 280 325 396
#
# _framework density 20.289324000000001
#
# number of rings (size 3 to 8) (size 9 to 14) (size 15 to 20)
#    0.000    1.733    1.333    2.200    1.867    4.267 
#    0.000    6.000    0.000    0.000    0.000    0.000 
#    0.000    0.000    0.000    0.000    0.000    0.000 
#
# Total GULP energy -743703.080462 kJ/mol
# GULP energy per Si atom -12395.051341 kJ/mol
# Density = 2.024314 g / cm^3
# Si number density = 20.289324 Si / 1000 Ang^3
#
#
#
# Elastic Constant Matrix: (Units=GPa)
#
#
# Indices 1 2 3 4 5 6 
#
# 1 122.2045 45.0100 67.2941 0.0000 0.0000 0.0000
# 2 45.0100 122.2045 67.2941 0.0000 0.0000 0.0000
# 3 67.2941 67.2941 153.2635 0.0000 0.0000 0.0000
# 4 0.0000 0.0000 0.0000 28.7488 0.0000 0.0000
# 5 0.0000 0.0000 0.0000 0.0000 28.7488 0.0000
# 6 0.0000 0.0000 0.0000 0.0000 0.0000 28.3502
#
#
#
# Elastic Compliance Matrix: (Units=1/GPa)
#
#
# Indices 1 2 3 4 5 6 
#
# 1 0.011102 -0.001853 -0.004061 0.000000 0.000000 0.000000
# 2 -0.001853 0.011102 -0.004061 0.000000 0.000000 0.000000
# 3 -0.004061 -0.004061 0.010091 0.000000 0.000000 0.000000
# 4 0.000000 0.000000 0.000000 0.034784 0.000000 0.000000
# 5 0.000000 0.000000 0.000000 0.000000 0.034784 0.000000
# 6 0.000000 0.000000 0.000000 0.000000 0.000000 0.035273
#
#
# Mechanical properties :
#
#
# Convention : Reuss Voigt Hill
#
# Bulk Modulus (GPa) = 81.00547 84.09655 82.55101
# Shear Modulus (GPa) = 31.01748 31.70787 31.36267
#
# Velocity S-wave (km/s) = 3.91418 3.95750 3.93590
# Velocity P-wave (km/s) = 7.77429 7.90070 7.83775
#
# Compressibility (1/GPa) = 0.01234485
#
# Stress axis : x y z
#
# Youngs Moduli (GPa) = 90.07695 90.07695 99.09964
#
# Poissons Ratio (x) = 0.16688 0.40244
# Poissons Ratio (y) = 0.16688 0.40244
# Poissons Ratio (z) = 0.36580 0.36580
#
# Static dielectric constant tensor:
#      x y z
#    x 4.037780 0.000000 0.000000 
#    y 0.000000 4.037780 0.000000 
#    z 0.000000 0.000000 3.789220 
# 
# 
# High freq. dielectric constant tensor:
#      x y z
#    x 1.797590 0.000000 0.000000 
#    y 0.000000 1.797590 0.000000 
#    z 0.000000 0.000000 1.799040 
# 
# From -- ./inp_files/7493.got.cif
#   From: 2010.03.12/outbox.cif.g09.slc.cpg/sg132_4_cif.got.tgz:7493.got - 2010.04.06 17:53:44.
