data_PCOD8316744
_publ_section_title
;
Structure prediction by ZEFSAII (Michael W. Deem and Ramdas Pophale) SiO2 
 PCOD8316744
Probable space group: P 42/M C M
;
_chemical_formula_sum "Si O2"
_cell_formula_units_Z 96
_cell_length_a 23.762571
_cell_length_b 23.762571
_cell_length_c 8.992419
_cell_angle_alpha 90.000000
_cell_angle_beta 90.000000
_cell_angle_gamma 90.000000
_cell_volume 5077.657339
_symmetry_space_group_name_H-M "P 42/M C M"
_symmetry_group_IT_number 132
_symmetry_cell_setting 'tetragonal'
loop_
_space_group_symop_operation_xyz
x,y,z
-y,x,1/2+z
-x,-y,z
y,-x,1/2+z
x,-y,1/2-z
-x,y,1/2-z
y,x,-z
-y,-x,-z
-x,-y,-z
y,-x,1/2-z
x,y,-z
-y,x,1/2-z
-x,y,1/2+z
x,-y,1/2+z
-y,-x,z
y,x,z
loop_
_atom_site_type_symbol
_atom_site_label
_atom_site_fract_x
_atom_site_fract_y
_atom_site_fract_z
Si Si1 0.120036 0.243491 0.672179
Si Si2 0.248799 0.248799 0.671974
Si Si3 0.941451 0.147036 0.668214
Si Si4 0.150846 0.557506 0.826316
Si Si5 0.559629 0.720372 0.323407
Si Si6 0.333088 0.333088 0.822190
Si Si7 0.058579 0.355409 0.325480
O O1 0.115335 0.227198 0.500000
O O2 0.183710 0.262402 0.707429
O O3 0.104217 0.189317 0.765864
O O4 0.076659 0.292380 0.716196
O O5 0.263037 0.263037 0.500000
O O6 0.286910 0.286910 0.776978
O O7 0.952951 0.164893 0.500000
O O8 0.915561 0.084440 0.679619
O O9 0.000000 0.149274 0.750000
O O10 0.133266 0.500000 0.750000
O O11 0.214707 0.575062 0.788257
O O12 0.108181 0.604520 0.765515
O O13 0.143725 0.548728 0.000000
O O14 0.500000 0.704646 0.250000
O O15 0.557588 0.708928 0.500000
O O16 0.606535 0.682420 0.245690
O O17 0.336637 0.336637 0.000000
O O18 0.050927 0.362679 0.500000
O O19 0.000000 0.371288 0.250000
#
# Coordination Sequence:
#
# PCOD8316744 Si02
#       7
#    16   8  16  16  16   8  16
#     4  10  20  37  60  82 108 144 184 227 288 353
#     4  10  20  36  60  86 114 150 188 236 294 349
#     4  11  24  40  59  82 109 139 176 224 277 336
#     4   9  19  36  57  79 108 145 190 237 284 337
#     4  10  20  38  62  87 118 156 197 245 297 348
#     4  12  24  36  56  91 127 161 201 242 284 338
#     4  10  21  35  51  76 107 143 185 230 278 337
#
# _framework density 18.906358000000001
#
# number of rings (size 3 to 8) (size 9 to 14) (size 15 to 20)
#    0.000    1.833    0.833    3.250    0.000    8.167 
#    0.000    4.167    0.000    0.250    0.000    1.750 
#    0.000    0.000    0.000    0.000    0.000    0.000 
#
# Total GULP energy -1190630.616957 kJ/mol
# GULP energy per Si atom -12402.402260 kJ/mol
# Density = 1.886333 g / cm^3
# Si number density = 18.906358 Si / 1000 Ang^3
#
#
#
# Elastic Constant Matrix: (Units=GPa)
#
#
# Indices 1 2 3 4 5 6 
#
# 1 114.1298 67.6621 59.6881 0.0000 0.0000 0.0000
# 2 67.6621 114.1298 59.6881 0.0000 0.0000 0.0000
# 3 59.6881 59.6881 97.5336 0.0000 0.0000 0.0000
# 4 0.0000 0.0000 0.0000 28.3502 0.0000 0.0000
# 5 0.0000 0.0000 0.0000 0.0000 28.3502 0.0000
# 6 0.0000 0.0000 0.0000 0.0000 0.0000 28.7544
#
#
#
# Elastic Compliance Matrix: (Units=1/GPa)
#
#
# Indices 1 2 3 4 5 6 
#
# 1 0.015358 -0.006162 -0.005628 0.000000 0.000000 0.000000
# 2 -0.006162 0.015358 -0.005628 0.000000 0.000000 0.000000
# 3 -0.005628 -0.005628 0.017141 0.000000 0.000000 0.000000
# 4 0.000000 0.000000 0.000000 0.035273 0.000000 0.000000
# 5 0.000000 0.000000 0.000000 0.000000 0.035273 0.000000
# 6 0.000000 0.000000 0.000000 0.000000 0.000000 0.034777
#
#
# Mechanical properties :
#
#
# Convention : Reuss Voigt Hill
#
# Bulk Modulus (GPa) = 76.79190 77.76329 77.27760
# Shear Modulus (GPa) = 25.99313 26.34127 26.16720
#
# Velocity S-wave (km/s) = 3.71190 3.73668 3.72431
# Velocity P-wave (km/s) = 7.68610 7.73544 7.71081
#
# Compressibility (1/GPa) = 0.01302221
#
# Stress axis : x y z
#
# Youngs Moduli (GPa) = 65.11085 65.11085 58.33857
#
# Poissons Ratio (x) = 0.40121 0.32833
# Poissons Ratio (y) = 0.40121 0.32833
# Poissons Ratio (z) = 0.36645 0.36645
#
# Static dielectric constant tensor:
#      x y z
#    x 3.591350 0.000000 0.000000 
#    y 0.000000 3.591350 0.000000 
#    z 0.000000 0.000000 3.448790 
# 
# 
# High freq. dielectric constant tensor:
#      x y z
#    x 1.736950 0.000000 0.000000 
#    y 0.000000 1.736950 0.000000 
#    z 0.000000 0.000000 1.733330 
# 
# From -- ./inp_files/1857.got.cif
#   From: 2010.03.12/outbox.cif.g09.slc.cpg/sg132_1_cif.got.tgz:1857.got - 2010.04.06 17:53:44.
