data_PCOD8316686
_publ_section_title
;
Structure prediction by ZEFSAII (Michael W. Deem and Ramdas Pophale) SiO2 
 PCOD8316686
Probable space group: P 42/M C M
;
_chemical_formula_sum "Si O2"
_cell_formula_units_Z 120
_cell_length_a 21.220568
_cell_length_b 21.220568
_cell_length_c 15.044826
_cell_angle_alpha 90.000000
_cell_angle_beta 90.000000
_cell_angle_gamma 90.000000
_cell_volume 6774.873302
_symmetry_space_group_name_H-M "P 42/M C M"
_symmetry_group_IT_number 132
_symmetry_cell_setting 'tetragonal'
loop_
_space_group_symop_operation_xyz
x,y,z
-y,x,1/2+z
-x,-y,z
y,-x,1/2+z
x,-y,1/2-z
-x,y,1/2-z
y,x,-z
-y,-x,-z
-x,-y,-z
y,-x,1/2-z
x,y,-z
-y,x,1/2-z
-x,y,1/2+z
x,-y,1/2+z
-y,-x,z
y,x,z
loop_
_atom_site_type_symbol
_atom_site_label
_atom_site_fract_x
_atom_site_fract_y
_atom_site_fract_z
Si Si1 0.336471 0.765305 0.239485
Si Si2 0.718670 0.101126 0.761453
Si Si3 0.065184 0.383593 0.400049
Si Si4 0.149121 0.953600 0.176475
Si Si5 0.560625 0.192570 0.897507
Si Si6 0.071036 0.362133 0.100296
Si Si7 0.418737 0.796955 0.602098
Si Si8 0.001980 0.895353 0.500000
O O1 0.298652 0.701349 0.222011
O O2 0.286701 0.822934 0.242268
O O3 0.387614 0.772326 0.161549
O O4 0.372710 0.758134 0.333631
O O5 0.675128 0.075984 0.838335
O O6 0.786539 0.075351 0.786170
O O7 0.697518 0.072217 0.666635
O O8 0.075521 0.359318 0.500000
O O9 0.116676 0.437850 0.379191
O O10 0.992332 0.404578 0.386362
O O11 0.104621 0.895380 0.159783
O O12 0.151241 0.993171 0.084599
O O13 0.120345 0.000000 0.250000
O O14 0.491188 0.217490 0.873191
O O15 0.576107 0.207455 0.000000
O O16 0.128862 0.408550 0.119904
O O17 0.074608 0.335028 0.000000
O O18 0.403897 0.778733 0.500000
O O19 0.950454 0.950454 0.500000
O O20 0.071359 0.928642 0.500000
#
# Coordination Sequence:
#
# PCOD8316686 Si02
#       8
#    16  16  16  16  16  16  16   8
#     4  10  20  34  52  72 102 137 172 209 245 290
#     4  10  20  34  48  70  97 130 168 205 246 300
#     4   9  17  28  46  70 101 135 167 201 242 292
#     4  11  22  36  55  73  91 119 155 204 266 324
#     4   9  18  32  49  74 104 135 170 208 251 298
#     4   9  17  30  48  71 101 137 172 205 244 288
#     4   9  18  32  51  74 102 136 173 211 250 292
#     4   9  20  38  56  74  92 110 144 199 264 332
#
# _framework density 17.712509000000001
#
# number of rings (size 3 to 8) (size 9 to 14) (size 15 to 20)
#    0.000    2.467    0.000    2.400    0.933    1.733 
#    1.200    2.667    0.000    5.600    0.000    0.000 
#    0.000    4.267    0.000   11.733    0.000    0.000 
#
# Total GULP energy -1487116.301107 kJ/mol
# GULP energy per Si atom -12392.635843 kJ/mol
# Density = 1.767220 g / cm^3
# Si number density = 17.712509 Si / 1000 Ang^3
#
#
#
# Elastic Constant Matrix: (Units=GPa)
#
#
# Indices 1 2 3 4 5 6 
#
# 1 78.5491 34.4735 42.0615 0.0000 0.0000 0.0000
# 2 34.4735 78.5493 42.0615 0.0000 0.0000 0.0000
# 3 42.0615 42.0615 113.0962 0.0000 0.0000 0.0000
# 4 0.0000 0.0000 0.0000 25.1438 0.0000 0.0000
# 5 0.0000 0.0000 0.0000 0.0000 25.1438 0.0000
# 6 0.0000 0.0000 0.0000 0.0000 0.0000 13.9322
#
#
#
# Elastic Compliance Matrix: (Units=1/GPa)
#
#
# Indices 1 2 3 4 5 6 
#
# 1 0.017461 -0.005227 -0.004550 0.000000 0.000000 0.000000
# 2 -0.005227 0.017461 -0.004550 0.000000 0.000000 0.000000
# 3 -0.004550 -0.004550 0.012226 0.000000 0.000000 0.000000
# 4 0.000000 0.000000 0.000000 0.039771 0.000000 0.000000
# 5 0.000000 0.000000 0.000000 0.000000 0.039771 0.000000
# 6 0.000000 0.000000 0.000000 0.000000 0.000000 0.071776
#
#
# Mechanical properties :
#
#
# Convention : Reuss Voigt Hill
#
# Bulk Modulus (GPa) = 54.06881 56.37639 55.22260
# Shear Modulus (GPa) = 21.43283 22.95050 22.19166
#
# Velocity S-wave (km/s) = 3.48234 3.60352 3.54345
# Velocity P-wave (km/s) = 6.83820 7.01509 6.92721
#
# Compressibility (1/GPa) = 0.01849495
#
# Stress axis : x y z
#
# Youngs Moduli (GPa) = 57.26932 57.26950 81.78979
#
# Poissons Ratio (x) = 0.29934 0.37215
# Poissons Ratio (y) = 0.29934 0.37215
# Poissons Ratio (z) = 0.26058 0.26058
#
# Static dielectric constant tensor:
#      x y z
#    x 3.092920 0.000000 0.000000 
#    y 0.000000 3.092920 0.000000 
#    z 0.000000 0.000000 3.635740 
# 
# 
# High freq. dielectric constant tensor:
#      x y z
#    x 1.657470 0.000000 0.000000 
#    y 0.000000 1.657470 0.000000 
#    z 0.000000 0.000000 1.706790 
# 
# From -- ./inp_files/5146.got.cif
#   From: 2010.03.12/outbox.cif.g09.slc.cpg/sg132_3_cif.got.tgz:5146.got - 2010.04.06 17:53:44.
