data_PCOD8316825
_publ_section_title
;
Structure prediction by ZEFSAII (Michael W. Deem and Ramdas Pophale) SiO2 
 PCOD8316825
Probable space group: P 42/M C M
;
_chemical_formula_sum "Si O2"
_cell_formula_units_Z 96
_cell_length_a 22.968310
_cell_length_b 22.968310
_cell_length_c 9.962569
_cell_angle_alpha 90.000000
_cell_angle_beta 90.000000
_cell_angle_gamma 90.000000
_cell_volume 5255.686171
_symmetry_space_group_name_H-M "P 42/M C M"
_symmetry_group_IT_number 132
_symmetry_cell_setting 'tetragonal'
loop_
_space_group_symop_operation_xyz
x,y,z
-y,x,1/2+z
-x,-y,z
y,-x,1/2+z
x,-y,1/2-z
-x,y,1/2-z
y,x,-z
-y,-x,-z
-x,-y,-z
y,-x,1/2-z
x,y,-z
-y,x,1/2-z
-x,y,1/2+z
x,-y,1/2+z
-y,-x,z
y,x,z
loop_
_atom_site_type_symbol
_atom_site_label
_atom_site_fract_x
_atom_site_fract_y
_atom_site_fract_z
Si Si1 0.049955 0.642613 0.348271
Si Si2 0.777855 0.947483 0.844226
Si Si3 0.449873 0.854638 0.347290
Si Si4 0.557079 0.647796 0.000000
Si Si5 0.267472 0.400597 0.224439
Si Si6 0.269469 0.269469 0.159846
Si Si7 0.823685 0.823685 0.841367
Si Si8 0.424302 0.673662 0.000000
O O1 0.028107 0.632411 0.500000
O O2 0.063753 0.709799 0.321876
O O3 0.109244 0.608518 0.318813
O O4 0.000000 0.619195 0.250000
O O5 0.809659 0.889056 0.794034
O O6 0.800162 0.000000 0.750000
O O7 0.791867 0.961890 0.000000
O O8 0.500000 0.878556 0.250000
O O9 0.471042 0.862621 0.500000
O O10 0.438287 0.787382 0.319435
O O11 0.582272 0.678936 0.868881
O O12 0.487661 0.644361 0.000000
O O13 0.581925 0.581925 0.000000
O O14 0.251783 0.332696 0.214068
O O15 0.283963 0.416561 0.374893
O O16 0.222811 0.222811 0.217317
O O17 0.270432 0.270432 0.000000
O O18 0.819136 0.819136 0.000000
O O19 0.377422 0.622579 0.000000
#
# Coordination Sequence:
#
# PCOD8316825 Si02
#       8
#    16  16  16   8  16   8   8   8
#     4   9  19  36  56  79 110 148 188 230 280 332
#     4   9  17  33  56  82 114 150 188 232 279 329
#     4  11  23  37  56  82 109 143 187 234 280 339
#     4  12  22  41  64  84 103 145 189 227 273 343
#     4  12  22  39  59  83 111 144 182 229 290 346
#     4  11  18  35  63  87 111 141 188 237 281 333
#     4   9  18  30  58  93 113 147 198 242 272 322
#     4  12  26  41  58  82 117 145 175 231 289 343
#
# _framework density 18.265930000000001
#
# number of rings (size 3 to 8) (size 9 to 14) (size 15 to 20)
#    0.000    1.500    3.333    2.500    1.167    3.833 
#    0.000    2.083    7.333    2.250    0.000    1.750 
#    0.000    0.000    0.000    0.000    0.000    0.000 
#
# Total GULP energy -1190718.117833 kJ/mol
# GULP energy per Si atom -12403.313727 kJ/mol
# Density = 1.822436 g / cm^3
# Si number density = 18.265930 Si / 1000 Ang^3
#
#
#
# Elastic Constant Matrix: (Units=GPa)
#
#
# Indices 1 2 3 4 5 6 
#
# 1 102.1931 39.4052 43.3819 0.0000 0.0000 0.0000
# 2 39.4052 102.1935 43.3821 0.0000 0.0000 0.0000
# 3 43.3819 43.3821 104.5463 0.0000 0.0000 0.0000
# 4 0.0000 0.0000 0.0000 26.8275 0.0000 0.0000
# 5 0.0000 0.0000 0.0000 0.0000 26.8271 0.0000
# 6 0.0000 0.0000 0.0000 0.0000 0.0000 22.1684
#
#
#
# Elastic Compliance Matrix: (Units=1/GPa)
#
#
# Indices 1 2 3 4 5 6 
#
# 1 0.012698 -0.003228 -0.003930 0.000000 0.000000 0.000000
# 2 -0.003228 0.012698 -0.003930 0.000000 0.000000 0.000000
# 3 -0.003930 -0.003930 0.012826 0.000000 0.000000 0.000000
# 4 0.000000 0.000000 0.000000 0.037275 0.000000 0.000000
# 5 0.000000 0.000000 0.000000 0.000000 0.037276 0.000000
# 6 0.000000 0.000000 0.000000 0.000000 0.000000 0.045109
#
#
# Mechanical properties :
#
#
# Convention : Reuss Voigt Hill
#
# Bulk Modulus (GPa) = 62.31323 62.36348 62.33835
# Shear Modulus (GPa) = 26.96758 27.34884 27.15821
#
# Velocity S-wave (km/s) = 3.84655 3.87364 3.86012
# Velocity P-wave (km/s) = 7.34278 7.36362 7.35321
#
# Compressibility (1/GPa) = 0.01604796
#
# Stress axis : x y z
#
# Youngs Moduli (GPa) = 78.75020 78.75049 77.96417
#
# Poissons Ratio (x) = 0.25423 0.30637
# Poissons Ratio (y) = 0.25423 0.30637
# Poissons Ratio (z) = 0.30946 0.30946
#
# Static dielectric constant tensor:
#      x y z
#    x 3.028570 0.000000 0.000000 
#    y 0.000000 3.027410 0.000000 
#    z 0.000000 0.000000 3.393190 
# 
# 
# High freq. dielectric constant tensor:
#      x y z
#    x 1.704530 0.000000 0.000000 
#    y 0.000000 1.704530 0.000000 
#    z 0.000000 0.000000 1.704180 
# 
# From -- ./inp_files/1865.got.cif
#   From: 2010.03.12/outbox.cif.g09.slc.cpg/sg132_1_cif.got.tgz:1865.got - 2010.04.06 17:53:44.
