data_PCOD8316526
_publ_section_title
;
Structure prediction by ZEFSAII (Michael W. Deem and Ramdas Pophale) SiO2 
 PCOD8316526
Probable space group: P 42/M C M
;
_chemical_formula_sum "Si O2"
_cell_formula_units_Z 112
_cell_length_a 14.992525
_cell_length_b 14.992525
_cell_length_c 29.930974
_cell_angle_alpha 90.000000
_cell_angle_beta 90.000000
_cell_angle_gamma 90.000000
_cell_volume 6727.758801
_symmetry_space_group_name_H-M "P 42/M C M"
_symmetry_group_IT_number 132
_symmetry_cell_setting 'tetragonal'
loop_
_space_group_symop_operation_xyz
x,y,z
-y,x,1/2+z
-x,-y,z
y,-x,1/2+z
x,-y,1/2-z
-x,y,1/2-z
y,x,-z
-y,-x,-z
-x,-y,-z
y,-x,1/2-z
x,y,-z
-y,x,1/2-z
-x,y,1/2+z
x,-y,1/2+z
-y,-x,z
y,x,z
loop_
_atom_site_type_symbol
_atom_site_label
_atom_site_fract_x
_atom_site_fract_y
_atom_site_fract_z
Si Si1 0.661917 0.471884 0.550556
Si Si2 0.100638 0.246008 0.800933
Si Si3 0.110823 0.404758 0.632228
Si Si4 0.367006 0.226519 0.551337
Si Si5 0.673772 0.185796 0.549448
Si Si6 0.894794 0.749852 0.697581
Si Si7 0.098214 0.396731 0.866765
O O1 0.635861 0.494172 0.500000
O O2 0.572651 0.427350 0.573551
O O3 0.698947 0.563879 0.571301
O O4 0.739006 0.400038 0.552603
O O5 0.158211 0.158211 0.812678
O O6 0.112965 0.273605 0.749618
O O7 0.136139 0.330999 0.828720
O O8 0.997607 0.226168 0.813749
O O9 0.140544 0.370237 0.583239
O O10 0.143543 0.335475 0.670250
O O11 0.146280 0.506577 0.639148
O O12 0.006016 0.408885 0.636581
O O13 0.391599 0.199237 0.500000
O O14 0.268314 0.268314 0.553048
O O15 0.673373 0.142105 0.500000
O O16 0.770519 0.229482 0.559161
O O17 0.649759 0.111671 0.585386
O O18 0.836026 0.836026 0.685009
#
# Coordination Sequence:
#
# PCOD8316526 Si02
#       7
#    16  16  16  16  16  16  16
#     4   8  14  25  40  58  80 106 140 182 224 259
#     4   9  18  32  51  74  94 114 145 186 230 273
#     4  10  20  31  44  65  92 124 155 181 218 265
#     4  10  19  30  44  62  87 119 155 191 224 263
#     4   9  16  27  44  64  88 117 146 183 229 264
#     4   9  18  33  51  70  94 120 146 182 227 273
#     4  10  19  30  46  67  92 121 153 185 217 265
#
# _framework density 16.647445999999999
#
# number of rings (size 3 to 8) (size 9 to 14) (size 15 to 20)
#    0.000    2.714    1.429    1.714    0.000    1.714 
#    0.000    7.143    0.000    0.000    0.000    0.000 
#    0.000    0.000    0.000   33.143    0.000    0.857 
#
# Total GULP energy -1387533.592726 kJ/mol
# GULP energy per Si atom -12388.692792 kJ/mol
# Density = 1.660956 g / cm^3
# Si number density = 16.647446 Si / 1000 Ang^3
#
#
#
# Elastic Constant Matrix: (Units=GPa)
#
#
# Indices 1 2 3 4 5 6 
#
# 1 45.8882 35.1327 40.5414 0.0000 0.0000 0.0000
# 2 35.1327 45.8882 40.5414 0.0000 0.0000 0.0000
# 3 40.5414 40.5414 84.9477 0.0000 0.0000 0.0000
# 4 0.0000 0.0000 0.0000 24.1424 0.0000 0.0000
# 5 0.0000 0.0000 0.0000 0.0000 24.1424 0.0000
# 6 0.0000 0.0000 0.0000 0.0000 0.0000 20.5361
#
#
#
# Elastic Compliance Matrix: (Units=1/GPa)
#
#
# Indices 1 2 3 4 5 6 
#
# 1 0.058302 -0.034674 -0.011276 0.000000 0.000000 0.000000
# 2 -0.034674 0.058302 -0.011276 0.000000 0.000000 0.000000
# 3 -0.011276 -0.011276 0.022535 0.000000 0.000000 0.000000
# 4 0.000000 0.000000 0.000000 0.041421 0.000000 0.000000
# 5 0.000000 0.000000 0.000000 0.000000 0.041421 0.000000
# 6 0.000000 0.000000 0.000000 0.000000 0.000000 0.048695
#
#
# Mechanical properties :
#
#
# Convention : Reuss Voigt Hill
#
# Bulk Modulus (GPa) = 40.51041 45.46168 42.98605
# Shear Modulus (GPa) = 12.71113 17.79807 15.25460
#
# Velocity S-wave (km/s) = 2.76624 3.27328 3.03038
# Velocity P-wave (km/s) = 5.88132 6.45396 6.17428
#
# Compressibility (1/GPa) = 0.02468502
#
# Stress axis : x y z
#
# Youngs Moduli (GPa) = 17.15222 17.15222 44.37526
#
# Poissons Ratio (x) = 0.59474 0.50038
# Poissons Ratio (y) = 0.59474 0.50038
# Poissons Ratio (z) = 0.19341 0.19341
#
# Static dielectric constant tensor:
#      x y z
#    x 3.180450 0.000000 0.000000 
#    y 0.000000 3.180450 0.000000 
#    z 0.000000 0.000000 3.095000 
# 
# 
# High freq. dielectric constant tensor:
#      x y z
#    x 1.632890 0.000000 0.000000 
#    y 0.000000 1.632890 0.000000 
#    z 0.000000 0.000000 1.622080 
# 
# From -- ./inp_files/10994.got.cif
#   From: 2010.03.12/outbox.cif.g09.slc.cpg/sg132_6_cif.got.tgz:10994.got - 2010.04.06 17:53:44.
