data_PCOD8316846
_publ_section_title
;
Structure prediction by ZEFSAII (Michael W. Deem and Ramdas Pophale) SiO2 
 PCOD8316846
Probable space group: P 42/M C M
;
_chemical_formula_sum "Si O2"
_cell_formula_units_Z 60
_cell_length_a 15.323883
_cell_length_b 15.323883
_cell_length_c 13.967546
_cell_angle_alpha 90.000000
_cell_angle_beta 90.000000
_cell_angle_gamma 90.000000
_cell_volume 3279.878569
_symmetry_space_group_name_H-M "P 42/M C M"
_symmetry_group_IT_number 132
_symmetry_cell_setting 'tetragonal'
loop_
_space_group_symop_operation_xyz
x,y,z
-y,x,1/2+z
-x,-y,z
y,-x,1/2+z
x,-y,1/2-z
-x,y,1/2-z
y,x,-z
-y,-x,-z
-x,-y,-z
y,-x,1/2-z
x,y,-z
-y,x,1/2-z
-x,y,1/2+z
x,-y,1/2+z
-y,-x,z
y,x,z
loop_
_atom_site_type_symbol
_atom_site_label
_atom_site_fract_x
_atom_site_fract_y
_atom_site_fract_z
Si Si1 0.618255 0.618255 0.114048
Si Si2 0.064859 0.580577 0.500000
Si Si3 0.271876 0.073120 0.500000
Si Si4 0.792843 0.469366 0.645635
Si Si5 0.000000 0.000000 0.250000
Si Si6 0.500000 0.500000 0.750000
Si Si7 0.894856 0.894856 0.599928
Si Si8 0.613128 0.241353 0.000000
O O1 0.603318 0.718028 0.144429
O O2 0.557636 0.557636 0.178904
O O3 0.602374 0.602374 0.000000
O O4 0.123442 0.572710 0.594680
O O5 0.000000 0.500000 0.500000
O O6 0.017767 0.675170 0.500000
O O7 0.209939 0.084775 0.594932
O O8 0.342070 0.148364 0.500000
O O9 0.822219 0.500000 0.750000
O O10 0.752350 0.553557 0.593429
O O11 0.062453 0.937548 0.191050
O O12 0.934678 0.934678 0.500000
O O13 0.679690 0.320311 0.000000
#
# Coordination Sequence:
#
# PCOD8316846 Si02
#       8
#     8   8   8  16   2   2   8   8
#     4  12  23  43  59  91 125 169 213 265 322 364
#     4  11  21  44  64  87 128 175 213 257 331 378
#     4   9  19  44  60  94 125 159 211 262 307 385
#     4  11  25  40  62  93 128 169 217 272 308 388
#     4  12  18  44  68  98 128 168 194 260 344 382
#     4  12  26  36  68  86 124 160 234 252 308 386
#     4   8  21  39  65  92 132 153 209 261 311 387
#     4  11  21  40  64  84 126 170 209 257 323 368
#
# _framework density 18.29336
#
# number of rings (size 3 to 8) (size 9 to 14) (size 15 to 20)
#    0.800    0.533    8.000    0.400    3.733    0.533 
#    4.800    2.667    0.000    0.000    0.000    0.000 
#    0.000    0.000    0.000    0.000    0.000    0.000 
#
# Total GULP energy -743510.272634 kJ/mol
# GULP energy per Si atom -12391.837877 kJ/mol
# Density = 1.825172 g / cm^3
# Si number density = 18.293360 Si / 1000 Ang^3
#
#
#
# Elastic Constant Matrix: (Units=GPa)
#
#
# Indices 1 2 3 4 5 6 
#
# 1 127.0633 63.6679 43.5470 0.0000 0.0000 0.0000
# 2 63.6679 127.0646 43.5470 0.0000 0.0000 0.0000
# 3 43.5470 43.5470 118.7553 0.0000 0.0000 0.0000
# 4 0.0000 0.0000 0.0000 5.8845 0.0000 0.0000
# 5 0.0000 0.0000 0.0000 0.0000 5.8855 0.0000
# 6 0.0000 0.0000 0.0000 0.0000 0.0000 51.0441
#
#
#
# Elastic Compliance Matrix: (Units=1/GPa)
#
#
# Indices 1 2 3 4 5 6 
#
# 1 0.011036 -0.004738 -0.002309 0.000000 0.000000 0.000000
# 2 -0.004738 0.011036 -0.002309 0.000000 0.000000 0.000000
# 3 -0.002309 -0.002309 0.010114 0.000000 0.000000 0.000000
# 4 0.000000 0.000000 0.000000 0.169938 0.000000 0.000000
# 5 0.000000 0.000000 0.000000 0.000000 0.169910 0.000000
# 6 0.000000 0.000000 0.000000 0.000000 0.000000 0.019591
#
#
# Mechanical properties :
#
#
# Convention : Reuss Voigt Hill
#
# Bulk Modulus (GPa) = 74.22717 74.93414 74.58065
# Shear Modulus (GPa) = 12.05316 27.37089 19.71203
#
# Velocity S-wave (km/s) = 2.56965 3.87230 3.28617
# Velocity P-wave (km/s) = 7.03337 7.81309 7.43346
#
# Compressibility (1/GPa) = 0.01347216
#
# Stress axis : x y z
#
# Youngs Moduli (GPa) = 90.61487 90.61600 98.87040
#
# Poissons Ratio (x) = 0.42936 0.22832
# Poissons Ratio (y) = 0.42935 0.22831
# Poissons Ratio (z) = 0.20925 0.20925
#
# Static dielectric constant tensor:
#      x y z
#    x 3.544940 0.000000 0.000000 
#    y 0.000000 3.544950 0.000000 
#    z 0.000000 0.000000 3.322730 
# 
# 
# High freq. dielectric constant tensor:
#      x y z
#    x 1.712760 0.000000 0.000000 
#    y 0.000000 1.712760 0.000000 
#    z 0.000000 0.000000 1.700280 
# 
# From -- ./inp_files/4525.got.cif
#   From: 2010.03.12/outbox.cif.g09.slc.cpg/sg132_3_cif.got.tgz:4525.got - 2010.04.06 17:53:44.
