data_PCOD8316202
_publ_section_title
;
Structure prediction by ZEFSAII (Michael W. Deem and Ramdas Pophale) SiO2 
 PCOD8316202
Probable space group: P 42/M M C
;
_chemical_formula_sum "Si O2"
_cell_formula_units_Z 72
_cell_length_a 14.682796
_cell_length_b 14.682796
_cell_length_c 16.941899
_cell_angle_alpha 90.000000
_cell_angle_beta 90.000000
_cell_angle_gamma 90.000000
_cell_volume 3652.410797
_symmetry_space_group_name_H-M "P 42/M M C"
_symmetry_group_IT_number 131
_symmetry_cell_setting 'tetragonal'
loop_
_space_group_symop_operation_xyz
x,y,z
-x,-y,z
-y,x,1/2+z
y,-x,1/2+z
-x,y,-z
x,-y,-z
y,x,1/2-z
-y,-x,1/2-z
-x,-y,-z
x,y,-z
y,-x,1/2-z
-y,x,1/2-z
x,-y,z
-x,y,z
-y,-x,1/2+z
y,x,1/2+z
loop_
_atom_site_type_symbol
_atom_site_label
_atom_site_fract_x
_atom_site_fract_y
_atom_site_fract_z
Si Si1 0.895317 0.895242 0.157751
Si Si2 0.264864 0.780283 0.592118
Si Si3 0.603671 0.102582 0.687789
Si Si4 0.211909 0.395724 0.348123
Si Si5 0.097652 0.606357 0.500000
O O1 0.877719 0.877719 0.250000
O O2 0.825108 0.833426 0.109081
O O3 0.000000 0.870654 0.136464
O O4 0.875904 0.000000 0.135930
O O5 0.275244 0.759151 0.500000
O O6 0.341138 0.851764 0.617577
O O7 0.285253 0.686290 0.643136
O O8 0.500000 0.102716 0.660223
O O9 0.615815 0.155714 0.769104
O O10 0.639229 0.000000 0.701432
O O11 0.250747 0.500000 0.356280
O O12 0.149018 0.365841 0.421116
O O13 0.083073 0.500000 0.500000
O O14 0.000000 0.655877 0.500000
#
# Coordination Sequence:
#
# PCOD8316202 Si02
#       5
#    16  16  16  16   8
#     4   9  19  36  55  75 105 148 194 237 279 328
#     4  12  24  36  54  84 116 152 191 232 285 342
#     4  10  22  40  62  85 111 150 198 245 289 333
#     4  10  20  37  58  83 115 147 183 231 289 349
#     4   9  16  28  50  80 112 141 170 216 280 343
#
# _framework density 19.713007000000001
#
# number of rings (size 3 to 8) (size 9 to 14) (size 15 to 20)
#    0.000    1.889    1.111    4.000    0.000    8.889 
#    0.000    2.222    0.000    0.667    0.000    4.667 
#    0.000    0.000    0.000    0.000    0.000    0.000 
#
# Total GULP energy -892345.395855 kJ/mol
# GULP energy per Si atom -12393.686054 kJ/mol
# Density = 1.966814 g / cm^3
# Si number density = 19.713007 Si / 1000 Ang^3
#
#
#
# Elastic Constant Matrix: (Units=GPa)
#
#
# Indices 1 2 3 4 5 6 
#
# 1 84.5715 39.7588 41.2858 0.0000 0.0000 0.0000
# 2 39.7588 84.5715 41.2858 0.0000 0.0000 0.0000
# 3 41.2858 41.2858 72.4098 0.0000 0.0000 0.0000
# 4 0.0000 0.0000 0.0000 17.3938 0.0000 0.0000
# 5 0.0000 0.0000 0.0000 0.0000 17.3938 0.0000
# 6 0.0000 0.0000 0.0000 0.0000 0.0000 23.5395
#
#
#
# Elastic Compliance Matrix: (Units=1/GPa)
#
#
# Indices 1 2 3 4 5 6 
#
# 1 0.017630 -0.004685 -0.007381 0.000000 0.000000 0.000000
# 2 -0.004685 0.017630 -0.007381 0.000000 0.000000 0.000000
# 3 -0.007381 -0.007381 0.022227 0.000000 0.000000 0.000000
# 4 0.000000 0.000000 0.000000 0.057492 0.000000 0.000000
# 5 0.000000 0.000000 0.000000 0.000000 0.057492 0.000000
# 6 0.000000 0.000000 0.000000 0.000000 0.000000 0.042482
#
#
# Mechanical properties :
#
#
# Convention : Reuss Voigt Hill
#
# Bulk Modulus (GPa) = 53.78207 54.02371 53.90289
# Shear Modulus (GPa) = 19.22759 19.61360 19.42060
#
# Velocity S-wave (km/s) = 3.12649 3.15772 3.14214
# Velocity P-wave (km/s) = 6.35413 6.38432 6.36924
#
# Compressibility (1/GPa) = 0.01859356
#
# Stress axis : x y z
#
# Youngs Moduli (GPa) = 56.72150 56.72150 44.99062
#
# Poissons Ratio (x) = 0.26575 0.33207
# Poissons Ratio (y) = 0.26575 0.33207
# Poissons Ratio (z) = 0.41865 0.41865
#
# Static dielectric constant tensor:
#      x y z
#    x 3.738420 0.000000 0.000000 
#    y 0.000000 3.738420 0.000000 
#    z 0.000000 0.000000 3.438730 
# 
# 
# High freq. dielectric constant tensor:
#      x y z
#    x 1.760420 0.000000 0.000000 
#    y 0.000000 1.760420 0.000000 
#    z 0.000000 0.000000 1.767420 
# 
# From -- ./inp_files/7585.got.cif
#   From: 2010.03.12/outbox.cif.g09.slc.cpg/sg131_4_cif.got.tgz:7585.got - 2010.04.06 17:36:35.
