data_PCOD8316808
_publ_section_title
;
Structure prediction by ZEFSAII (Michael W. Deem and Ramdas Pophale) SiO2 
 PCOD8316808
Probable space group: P 42/M C M
;
_chemical_formula_sum "Si O2"
_cell_formula_units_Z 60
_cell_length_a 15.330901
_cell_length_b 15.330901
_cell_length_c 13.478310
_cell_angle_alpha 90.000000
_cell_angle_beta 90.000000
_cell_angle_gamma 90.000000
_cell_volume 3167.895152
_symmetry_space_group_name_H-M "P 42/M C M"
_symmetry_group_IT_number 132
_symmetry_cell_setting 'tetragonal'
loop_
_space_group_symop_operation_xyz
x,y,z
-y,x,1/2+z
-x,-y,z
y,-x,1/2+z
x,-y,1/2-z
-x,y,1/2-z
y,x,-z
-y,-x,-z
-x,-y,-z
y,-x,1/2-z
x,y,-z
-y,x,1/2-z
-x,y,1/2+z
x,-y,1/2+z
-y,-x,z
y,x,z
loop_
_atom_site_type_symbol
_atom_site_label
_atom_site_fract_x
_atom_site_fract_y
_atom_site_fract_z
Si Si1 0.169093 0.169093 0.500000
Si Si2 0.233118 0.021160 0.000000
Si Si3 0.420391 0.063572 0.500000
Si Si4 0.446880 0.211907 0.345175
Si Si5 0.181419 0.181419 0.894964
Si Si6 0.744929 0.744929 0.307137
Si Si7 0.499643 0.353117 0.000000
O O1 0.066674 0.179298 0.500000
O O2 0.212070 0.212070 0.403536
O O3 0.204587 0.077508 0.902140
O O4 0.335025 0.996993 0.000000
O O5 0.425845 0.124904 0.405103
O O6 0.500000 0.000000 0.500000
O O7 0.500000 0.182532 0.250000
O O8 0.356914 0.245690 0.304721
O O9 0.496366 0.289187 0.404858
O O10 0.217198 0.217198 0.793817
O O11 0.222034 0.222034 0.000000
O O12 0.410191 0.410191 0.000000
O O13 0.583060 0.416941 0.000000
#
# Coordination Sequence:
#
# PCOD8316808 Si02
#       7
#     4   8   8  16   8   8   8
#     4  12  20  41  78  94 125 178 214 292 320 398
#     4   9  21  45  65  99 128 173 220 263 345 389
#     4  11  24  44  64  93 135 166 221 272 325 399
#     4  11  25  41  63  99 123 172 223 268 330 396
#     4   8  24  42  62  98 137 173 210 267 331 417
#     4  12  22  44  69  94 134 177 223 268 336 399
#     4  10  21  41  63  86 129 165 209 275 326 388
#
# _framework density 18.940021000000002
#
# number of rings (size 3 to 8) (size 9 to 14) (size 15 to 20)
#    0.800    0.667    4.000    0.800    5.600    2.667 
#    2.400    1.333    0.000    3.200    0.000    0.000 
#    0.000    0.000    0.000    0.000    0.000    0.000 
#
# Total GULP energy -743328.516674 kJ/mol
# GULP energy per Si atom -12388.808611 kJ/mol
# Density = 1.889691 g / cm^3
# Si number density = 18.940021 Si / 1000 Ang^3
#
#
#
# Elastic Constant Matrix: (Units=GPa)
#
#
# Indices 1 2 3 4 5 6 
#
# 1 194.9235 6.3838 44.5191 0.0000 0.0000 0.0000
# 2 6.3838 194.9262 44.5195 0.0000 0.0000 0.0000
# 3 44.5191 44.5195 136.1591 0.0000 0.0000 0.0000
# 4 0.0000 0.0000 0.0000 36.7467 0.0000 0.0000
# 5 0.0000 0.0000 0.0000 0.0000 36.7512 0.0000
# 6 0.0000 0.0000 0.0000 0.0000 0.0000 42.8363
#
#
#
# Elastic Compliance Matrix: (Units=1/GPa)
#
#
# Indices 1 2 3 4 5 6 
#
# 1 0.005556 0.000252 -0.001899 0.000000 0.000000 0.000000
# 2 0.000252 0.005556 -0.001899 0.000000 0.000000 0.000000
# 3 -0.001899 -0.001899 0.008586 0.000000 0.000000 0.000000
# 4 0.000000 0.000000 0.000000 0.027213 0.000000 0.000000
# 5 0.000000 0.000000 0.000000 0.000000 0.027210 0.000000
# 6 0.000000 0.000000 0.000000 0.000000 0.000000 0.023345
#
#
# Mechanical properties :
#
#
# Convention : Reuss Voigt Hill
#
# Bulk Modulus (GPa) = 79.33040 79.65041 79.49041
# Shear Modulus (GPa) = 45.97328 51.97260 48.97294
#
# Velocity S-wave (km/s) = 4.93212 5.24406 5.09048
# Velocity P-wave (km/s) = 8.62614 8.87763 8.75279
#
# Compressibility (1/GPa) = 0.01260551
#
# Stress axis : x y z
#
# Youngs Moduli (GPa) = 179.99702 179.99947 116.46824
#
# Poissons Ratio (x) = -0.04531 0.22115
# Poissons Ratio (y) = -0.04531 0.22115
# Poissons Ratio (z) = 0.34178 0.34178
#
# Static dielectric constant tensor:
#      x y z
#    x 3.772520 0.000000 0.000000 
#    y 0.000000 3.772510 0.000000 
#    z 0.000000 0.000000 3.429710 
# 
# 
# High freq. dielectric constant tensor:
#      x y z
#    x 1.745920 0.000000 0.000000 
#    y 0.000000 1.745920 0.000000 
#    z 0.000000 0.000000 1.733240 
# 
# From -- ./inp_files/4524.got.cif
#   From: 2010.03.12/outbox.cif.g09.slc.cpg/sg132_3_cif.got.tgz:4524.got - 2010.04.06 17:53:44.
