data_PCOD8316910
_publ_section_title
;
Structure prediction by ZEFSAII (Michael W. Deem and Ramdas Pophale) SiO2 
 PCOD8316910
Probable space group: P 42/N B C
;
_chemical_formula_sum "Si O2"
_cell_formula_units_Z 96
_cell_length_a 18.616474
_cell_length_b 18.616474
_cell_length_c 15.702089
_cell_angle_alpha 90.000000
_cell_angle_beta 90.000000
_cell_angle_gamma 90.000000
_cell_volume 5441.921727
_symmetry_space_group_name_H-M "P 42/N B C"
_symmetry_group_IT_number 133
_space_group.IT_coordinate_system_code '2'
_symmetry_cell_setting 'tetragonal'
loop_
_space_group_symop_operation_xyz
x,y,z
1/2-y,x,1/2+z
1/2-x,1/2-y,z
y,1/2-x,1/2+z
x,1/2-y,-z
1/2-x,y,-z
y,x,1/2-z
1/2-y,1/2-x,1/2-z
-x,-y,-z
1/2+y,-x,1/2-z
1/2+x,1/2+y,-z
-y,1/2+x,1/2-z
-x,1/2+y,z
1/2+x,-y,z
-y,-x,1/2+z
1/2+y,1/2+x,1/2+z
loop_
_atom_site_type_symbol
_atom_site_label
_atom_site_fract_x
_atom_site_fract_y
_atom_site_fract_z
Si Si1 0.253852 0.632119 0.751115
Si Si2 0.194326 0.572642 0.076347
Si Si3 0.080289 0.698675 0.078999
Si Si4 0.715574 0.820698 0.654794
Si Si5 0.086289 0.329212 0.464731
Si Si6 0.186851 0.418015 0.567777
O O1 0.182684 0.678365 0.767282
O O2 0.265721 0.579916 0.832276
O O3 0.243876 0.586220 0.665813
O O4 0.133968 0.632801 0.071996
O O5 0.156220 0.494940 0.067321
O O6 0.250000 0.585869 0.000000
O O7 0.000601 0.667308 0.078509
O O8 0.096183 0.750000 0.000000
O O9 0.750000 0.750000 0.609660
O O10 0.696828 0.803173 0.750000
O O11 0.640653 0.843308 0.612345
O O12 0.777530 0.882594 0.652117
O O13 0.091283 0.250000 0.500000
O O14 0.111096 0.381879 0.541162
O O15 0.250000 0.403487 0.500000
#
# Coordination Sequence:
#
# PCOD8316910 Si02
#       6
#    16  16  16  16  16  16
#     4   9  18  33  54  78 103 137 184 232 270 315
#     4  10  21  34  54  81 107 147 182 223 278 324
#     4  10  20  35  55  78 109 142 182 228 270 329
#     4  10  19  31  54  81 100 133 177 222 269 319
#     4  10  19  34  52  76 110 137 177 223 269 324
#     4   9  19  33  52  77 103 140 176 219 271 323
#
# _framework density 17.640827000000002
#
# number of rings (size 3 to 8) (size 9 to 14) (size 15 to 20)
#    0.000    2.333    1.667    1.000    2.333    2.333 
#    0.000    0.000    0.000    0.000    4.333    0.000 
#    0.000    0.000    0.000    0.000    0.000    0.000 
#
# Total GULP energy -1189935.838849 kJ/mol
# GULP energy per Si atom -12395.164988 kJ/mol
# Density = 1.760068 g / cm^3
# Si number density = 17.640827 Si / 1000 Ang^3
#
#
#
# Elastic Constant Matrix: (Units=GPa)
#
#
# Indices 1 2 3 4 5 6 
#
# 1 103.0650 50.8520 54.9610 0.0000 0.0000 0.0000
# 2 50.8520 103.0651 54.9610 0.0000 0.0000 0.0000
# 3 54.9610 54.9610 122.0277 0.0000 0.0000 0.0000
# 4 0.0000 0.0000 0.0000 22.6085 0.0000 0.0000
# 5 0.0000 0.0000 0.0000 0.0000 22.6091 0.0000
# 6 0.0000 0.0000 0.0000 0.0000 0.0000 11.2721
#
#
#
# Elastic Compliance Matrix: (Units=1/GPa)
#
#
# Indices 1 2 3 4 5 6 
#
# 1 0.014365 -0.004787 -0.004314 0.000000 0.000000 0.000000
# 2 -0.004787 0.014365 -0.004314 0.000000 0.000000 0.000000
# 3 -0.004314 -0.004314 0.012081 0.000000 0.000000 0.000000
# 4 0.000000 0.000000 0.000000 0.044231 0.000000 0.000000
# 5 0.000000 0.000000 0.000000 0.000000 0.044230 0.000000
# 6 0.000000 0.000000 0.000000 0.000000 0.000000 0.088714
#
#
# Mechanical properties :
#
#
# Convention : Reuss Voigt Hill
#
# Bulk Modulus (GPa) = 71.52546 72.18952 71.85749
# Shear Modulus (GPa) = 20.04198 22.45687 21.24943
#
# Velocity S-wave (km/s) = 3.37428 3.57179 3.47444
# Velocity P-wave (km/s) = 7.47091 7.61715 7.54438
#
# Compressibility (1/GPa) = 0.01398104
#
# Stress axis : x y z
#
# Youngs Moduli (GPa) = 69.61346 69.61347 82.77655
#
# Poissons Ratio (x) = 0.33326 0.35708
# Poissons Ratio (y) = 0.33326 0.35708
# Poissons Ratio (z) = 0.30030 0.30030
#
# Static dielectric constant tensor:
#      x y z
#    x 3.390720 0.000000 0.000000 
#    y 0.000000 3.390710 0.000000 
#    z 0.000000 0.000000 3.342720 
# 
# 
# High freq. dielectric constant tensor:
#      x y z
#    x 1.677440 0.000000 0.000000 
#    y 0.000000 1.677440 0.000000 
#    z 0.000000 0.000000 1.683610 
# 
# From -- ./inp_files/5532.got.cif
#   From: 2010.03.12/outbox.cif.g09.slc.cpg/sg133_3_cif.got.tgz:5532.got - 2010.04.06 18:08:06.
