data_PCOD8316640
_publ_section_title
;
Structure prediction by ZEFSAII (Michael W. Deem and Ramdas Pophale) SiO2 
 PCOD8316640
Probable space group: P 42/M C M
;
_chemical_formula_sum "Si O2"
_cell_formula_units_Z 96
_cell_length_a 27.015981
_cell_length_b 27.015981
_cell_length_c 9.176838
_cell_angle_alpha 90.000000
_cell_angle_beta 90.000000
_cell_angle_gamma 90.000000
_cell_volume 6697.836618
_symmetry_space_group_name_H-M "P 42/M C M"
_symmetry_group_IT_number 132
_symmetry_cell_setting 'tetragonal'
loop_
_space_group_symop_operation_xyz
x,y,z
-y,x,1/2+z
-x,-y,z
y,-x,1/2+z
x,-y,1/2-z
-x,y,1/2-z
y,x,-z
-y,-x,-z
-x,-y,-z
y,-x,1/2-z
x,y,-z
-y,x,1/2-z
-x,y,1/2+z
x,-y,1/2+z
-y,-x,z
y,x,z
loop_
_atom_site_type_symbol
_atom_site_label
_atom_site_fract_x
_atom_site_fract_y
_atom_site_fract_z
Si Si1 0.257598 0.338365 0.672241
Si Si2 0.132475 0.950118 0.331360
Si Si3 0.451738 0.733568 0.829527
Si Si4 0.185891 0.268300 0.163281
Si Si5 0.881314 0.202015 0.164841
Si Si6 0.621045 0.544670 0.667594
O O1 0.250147 0.333766 0.500000
O O2 0.310005 0.310005 0.712666
O O3 0.251831 0.396058 0.720323
O O4 0.212001 0.313071 0.753371
O O5 0.144802 0.960481 0.500000
O O6 0.086660 0.913341 0.315187
O O7 0.181140 0.927902 0.254320
O O8 0.116909 0.000000 0.250000
O O9 0.500000 0.759157 0.750000
O O10 0.451997 0.676958 0.782457
O O11 0.458822 0.743056 0.000000
O O12 0.222150 0.222150 0.152252
O O13 0.137504 0.251633 0.253946
O O14 0.170561 0.285146 0.000000
O O15 0.838115 0.161886 0.161060
O O16 0.897617 0.215370 0.000000
O O17 0.593776 0.500000 0.750000
O O18 0.615682 0.532873 0.500000
O O19 0.596405 0.596405 0.710335
#
# Coordination Sequence:
#
# PCOD8316640 Si02
#       6
#    16  16  16  16  16  16
#     4   9  16  26  40  56  73  94 121 152 187 229
#     4  10  20  32  45  61  82 110 146 187 226 259
#     4   9  17  28  40  52  67  89 116 145 178 219
#     4   9  16  25  38  58  81 100 120 151 192 235
#     4   9  16  27  43  60  79 104 133 165 203 247
#     4   9  17  28  39  49  61  78 102 134 173 215
#
# _framework density 14.332986999999999
#
# number of rings (size 3 to 8) (size 9 to 14) (size 15 to 20)
#    0.000    2.833    0.000    2.000    0.000    8.333 
#    0.000    1.667    0.000    3.000    0.000    0.000 
#    0.000    0.000    0.000    0.000    0.000    0.833 
#
# Total GULP energy -1189356.088781 kJ/mol
# GULP energy per Si atom -12389.125925 kJ/mol
# Density = 1.430036 g / cm^3
# Si number density = 14.332987 Si / 1000 Ang^3
#
#
#
# Elastic Constant Matrix: (Units=GPa)
#
#
# Indices 1 2 3 4 5 6 
#
# 1 48.4919 42.8566 40.5796 0.0000 0.0000 0.0000
# 2 42.8566 48.4919 40.5796 0.0000 0.0000 0.0000
# 3 40.5796 40.5796 82.2036 0.0000 0.0000 0.0000
# 4 0.0000 0.0000 0.0000 21.9202 0.0000 0.0000
# 5 0.0000 0.0000 0.0000 0.0000 21.9202 0.0000
# 6 0.0000 0.0000 0.0000 0.0000 0.0000 15.1565
#
#
#
# Elastic Compliance Matrix: (Units=1/GPa)
#
#
# Indices 1 2 3 4 5 6 
#
# 1 0.098475 -0.078976 -0.009626 0.000000 0.000000 0.000000
# 2 -0.078976 0.098475 -0.009626 0.000000 0.000000 0.000000
# 3 -0.009626 -0.009626 0.021668 0.000000 0.000000 0.000000
# 4 0.000000 0.000000 0.000000 0.045620 0.000000 0.000000
# 5 0.000000 0.000000 0.000000 0.000000 0.045620 0.000000
# 6 0.000000 0.000000 0.000000 0.000000 0.000000 0.065978
#
#
# Mechanical properties :
#
#
# Convention : Reuss Voigt Hill
#
# Bulk Modulus (GPa) = 45.11869 47.46877 46.29373
# Shear Modulus (GPa) = 8.62546 15.47751 12.05148
#
# Velocity S-wave (km/s) = 2.45580 3.28968 2.90284
# Velocity P-wave (km/s) = 6.29194 6.90070 6.60334
#
# Compressibility (1/GPa) = 0.02216377
#
# Stress axis : x y z
#
# Youngs Moduli (GPa) = 10.15485 10.15485 46.15044
#
# Poissons Ratio (x) = 0.80199 0.44423
# Poissons Ratio (y) = 0.80199 0.44423
# Poissons Ratio (z) = 0.09775 0.09775
#
# Static dielectric constant tensor:
#      x y z
#    x 2.618190 0.000000 0.000000 
#    y 0.000000 2.618190 0.000000 
#    z 0.000000 0.000000 2.957460 
# 
# 
# High freq. dielectric constant tensor:
#      x y z
#    x 1.515520 0.000000 0.000000 
#    y 0.000000 1.515520 0.000000 
#    z 0.000000 0.000000 1.560390 
# 
# From -- ./inp_files/1901.got.cif
#   From: 2010.03.12/outbox.cif.g09.slc.cpg/sg132_1_cif.got.tgz:1901.got - 2010.04.06 17:53:44.
