data_PCOD8316365
_publ_section_title
;
Structure prediction by ZEFSAII (Michael W. Deem and Ramdas Pophale) SiO2 
 PCOD8316365
Probable space group: P 42/M M C
;
_chemical_formula_sum "Si O2"
_cell_formula_units_Z 48
_cell_length_a 13.028456
_cell_length_b 13.028456
_cell_length_c 23.804495
_cell_angle_alpha 90.000000
_cell_angle_beta 90.000000
_cell_angle_gamma 90.000000
_cell_volume 4040.590829
_symmetry_space_group_name_H-M "P 42/M M C"
_symmetry_group_IT_number 131
_symmetry_cell_setting 'tetragonal'
loop_
_space_group_symop_operation_xyz
x,y,z
-x,-y,z
-y,x,1/2+z
y,-x,1/2+z
-x,y,-z
x,-y,-z
y,x,1/2-z
-y,-x,1/2-z
-x,-y,-z
x,y,-z
y,-x,1/2-z
-y,x,1/2-z
x,-y,z
-x,y,z
-y,-x,1/2+z
y,x,1/2+z
loop_
_atom_site_type_symbol
_atom_site_label
_atom_site_fract_x
_atom_site_fract_y
_atom_site_fract_z
Si Si1 0.877560 0.000000 0.563471
Si Si2 0.805025 0.877764 0.868504
Si Si3 0.877913 0.386358 0.563188
Si Si4 0.880648 0.880648 0.750000
O O1 0.834424 0.100692 0.594786
O O2 0.835695 0.000000 0.500000
O O3 0.000000 0.000000 0.564206
O O4 0.698704 0.833509 0.893932
O O5 0.815816 0.842445 0.803803
O O6 0.807455 0.000000 0.871086
O O7 0.839631 0.361657 0.500000
O O8 0.839798 0.500000 0.581575
O O9 0.000000 0.382996 0.564033
O O10 0.000000 0.861845 0.763406
#
# Coordination Sequence:
#
# PCOD8316365 Si02
#       4
#     8  16  16   8
#     4   9  14  18  24  36  50  66  91 122 149 177
#     4   9  14  19  26  36  49  71  94 123 153 180
#     4   8  13  20  28  37  49  66  93 128 158 180
#     4   9  14  20  26  34  52  72  98 121 148 180
#
# _framework density 11.879452000000001
#
# number of rings (size 3 to 8) (size 9 to 14) (size 15 to 20)
#    0.000    3.333    1.667    2.000    0.000    4.000 
#    0.000    0.000    0.000    0.000    0.000    0.000 
#    0.000    0.000    0.000    0.000    0.000    9.167 
#
# Total GULP energy -594773.329901 kJ/mol
# GULP energy per Si atom -12391.111040 kJ/mol
# Density = 1.185241 g / cm^3
# Si number density = 11.879452 Si / 1000 Ang^3
#
#
#
# Elastic Constant Matrix: (Units=GPa)
#
#
# Indices 1 2 3 4 5 6 
#
# 1 48.3462 14.2819 40.8598 0.0000 0.0000 0.0000
# 2 14.2819 48.3462 40.8598 0.0000 0.0000 0.0000
# 3 40.8598 40.8598 117.4814 0.0000 0.0000 0.0000
# 4 0.0000 0.0000 0.0000 8.7997 0.0000 0.0000
# 5 0.0000 0.0000 0.0000 0.0000 8.7997 0.0000
# 6 0.0000 0.0000 0.0000 0.0000 0.0000 1.6269
#
#
#
# Elastic Compliance Matrix: (Units=1/GPa)
#
#
# Indices 1 2 3 4 5 6 
#
# 1 0.029295 -0.000061 -0.010168 0.000000 0.000000 0.000000
# 2 -0.000061 0.029295 -0.010168 0.000000 0.000000 0.000000
# 3 -0.010168 -0.010168 0.015585 0.000000 0.000000 0.000000
# 4 0.000000 0.000000 0.000000 0.113641 0.000000 0.000000
# 5 0.000000 0.000000 0.000000 0.000000 0.113641 0.000000
# 6 0.000000 0.000000 0.000000 0.000000 0.000000 0.614673
#
#
# Mechanical properties :
#
#
# Convention : Reuss Voigt Hill
#
# Bulk Modulus (GPa) = 29.95558 45.13076 37.54317
# Shear Modulus (GPa) = 5.16502 11.72339 8.44421
#
# Velocity S-wave (km/s) = 2.08742 3.14485 2.66902
# Velocity P-wave (km/s) = 5.57501 7.15960 6.41641
#
# Compressibility (1/GPa) = 0.03338276
#
# Stress axis : x y z
#
# Youngs Moduli (GPa) = 34.13509 34.13509 64.16599
#
# Poissons Ratio (x) = 0.00208 0.65242
# Poissons Ratio (y) = 0.00208 0.65242
# Poissons Ratio (z) = 0.34707 0.34707
#
# Static dielectric constant tensor:
#      x y z
#    x 2.232660 0.000000 0.000000 
#    y 0.000000 2.232660 0.000000 
#    z 0.000000 0.000000 2.666100 
# 
# 
# High freq. dielectric constant tensor:
#      x y z
#    x 1.398830 0.000000 0.000000 
#    y 0.000000 1.398830 0.000000 
#    z 0.000000 0.000000 1.463000 
# 
# From -- ./inp_files/10535.got.cif
#   From: 2010.03.12/outbox.cif.g09.slc.cpg/sg131_6_cif.got.tgz:10535.got - 2010.04.06 17:36:35.
