data_PCOD8316995
_publ_section_title
;
Structure prediction by ZEFSAII (Michael W. Deem and Ramdas Pophale) SiO2 
 PCOD8316995
Probable space group: P 42/N B C
;
_chemical_formula_sum "Si O2"
_cell_formula_units_Z 100
_cell_length_a 13.941941
_cell_length_b 13.941941
_cell_length_c 21.240860
_cell_angle_alpha 90.000000
_cell_angle_beta 90.000000
_cell_angle_gamma 90.000000
_cell_volume 4128.749913
_symmetry_space_group_name_H-M "P 42/N B C"
_symmetry_group_IT_number 133
_space_group.IT_coordinate_system_code '2'
_symmetry_cell_setting 'tetragonal'
loop_
_space_group_symop_operation_xyz
x,y,z
1/2-y,x,1/2+z
1/2-x,1/2-y,z
y,1/2-x,1/2+z
x,1/2-y,-z
1/2-x,y,-z
y,x,1/2-z
1/2-y,1/2-x,1/2-z
-x,-y,-z
1/2+y,-x,1/2-z
1/2+x,1/2+y,-z
-y,1/2+x,1/2-z
-x,1/2+y,z
1/2+x,-y,z
-y,-x,1/2+z
1/2+y,1/2+x,1/2+z
loop_
_atom_site_type_symbol
_atom_site_label
_atom_site_fract_x
_atom_site_fract_y
_atom_site_fract_z
Si Si1 0.818958 0.125625 0.773863
Si Si2 0.750000 0.750000 0.500000
Si Si3 0.370834 0.997002 0.670065
Si Si4 0.894476 0.540003 0.885605
Si Si5 0.563895 0.360124 0.488766
Si Si6 0.100456 0.319709 0.599231
Si Si7 0.442576 0.817667 0.890404
O O1 0.704115 0.139952 0.776733
O O2 0.838826 0.021013 0.742561
O O3 0.866184 0.133362 0.842213
O O4 0.817153 0.687012 0.454303
O O5 0.472551 0.942674 0.666380
O O6 0.295637 0.946421 0.621744
O O7 0.370078 0.111120 0.656789
O O8 0.783385 0.567190 0.873663
O O9 0.950608 0.640209 0.883175
O O10 0.910275 0.481685 0.950527
O O11 0.586557 0.250000 0.500000
O O12 0.487628 0.373824 0.432883
O O13 0.661042 0.408794 0.462158
#
# Coordination Sequence:
#
# PCOD8316995 Si02
#       7
#    16   4  16  16  16  16  16
#     4   9  22  44  68  98 134 176 232 286 346 404
#     4  12  20  40  72  96 144 194 220 256 362 412
#     4  11  25  40  72  99 126 185 233 282 340 407
#     4  11  23  42  64 100 144 174 223 279 342 410
#     4  10  22  41  62  96 142 176 208 281 340 396
#     4  11  23  41  65 100 139 181 224 275 333 412
#     4  11  23  43  69  98 136 181 229 279 345 409
#
# _framework density 24.220407000000002
#
# number of rings (size 3 to 8) (size 9 to 14) (size 15 to 20)
#    0.000    1.440    4.000    1.440    4.480    1.280 
#    0.000    2.400    0.000    0.000    0.000    0.000 
#    0.000    0.000    0.000    0.000    0.000    0.000 
#
# Total GULP energy -1239548.786380 kJ/mol
# GULP energy per Si atom -12395.487864 kJ/mol
# Density = 2.416528 g / cm^3
# Si number density = 24.220407 Si / 1000 Ang^3
#
#
#
# Elastic Constant Matrix: (Units=GPa)
#
#
# Indices 1 2 3 4 5 6 
#
# 1 99.3961 21.6091 24.4209 0.0000 0.0000 0.0000
# 2 21.6091 99.3961 24.4209 0.0000 0.0000 0.0000
# 3 24.4209 24.4209 47.5798 0.0000 0.0000 0.0000
# 4 0.0000 0.0000 0.0000 34.5210 0.0000 0.0000
# 5 0.0000 0.0000 0.0000 0.0000 34.5210 0.0000
# 6 0.0000 0.0000 0.0000 0.0000 0.0000 20.6839
#
#
#
# Elastic Compliance Matrix: (Units=1/GPa)
#
#
# Indices 1 2 3 4 5 6 
#
# 1 0.011640 -0.001216 -0.005350 0.000000 0.000000 0.000000
# 2 -0.001216 0.011640 -0.005350 0.000000 0.000000 0.000000
# 3 -0.005350 -0.005350 0.026509 0.000000 0.000000 0.000000
# 4 0.000000 0.000000 0.000000 0.028968 0.000000 0.000000
# 5 0.000000 0.000000 0.000000 0.000000 0.028968 0.000000
# 6 0.000000 0.000000 0.000000 0.000000 0.000000 0.048347
#
#
# Mechanical properties :
#
#
# Convention : Reuss Voigt Hill
#
# Bulk Modulus (GPa) = 38.52628 43.03042 40.77835
# Shear Modulus (GPa) = 26.51744 29.67325 28.09535
#
# Velocity S-wave (km/s) = 3.31242 3.50399 3.40955
# Velocity P-wave (km/s) = 5.52907 5.84597 5.68973
#
# Compressibility (1/GPa) = 0.02595631
#
# Stress axis : x y z
#
# Youngs Moduli (GPa) = 85.91371 85.91371 37.72266
#
# Poissons Ratio (x) = 0.10447 0.20182
# Poissons Ratio (y) = 0.10447 0.20182
# Poissons Ratio (z) = 0.45964 0.45964
#
# Static dielectric constant tensor:
#      x y z
#    x 4.349370 0.000000 0.000000 
#    y 0.000000 4.349370 0.000000 
#    z 0.000000 0.000000 3.994240 
# 
# 
# High freq. dielectric constant tensor:
#      x y z
#    x 1.964650 0.000000 0.000000 
#    y 0.000000 1.964650 0.000000 
#    z 0.000000 0.000000 1.940230 
# 
# From -- ./inp_files/7204.got.cif
#   From: 2010.03.12/outbox.cif.g09.slc.cpg/sg133_4_cif.got.tgz:7204.got - 2010.04.06 18:08:06.
