data_PCOD8316581
_publ_section_title
;
Structure prediction by ZEFSAII (Michael W. Deem and Ramdas Pophale) SiO2 
 PCOD8316581
Probable space group: P 42/M C M
;
_chemical_formula_sum "Si O2"
_cell_formula_units_Z 104
_cell_length_a 26.345781
_cell_length_b 26.345781
_cell_length_c 8.839637
_cell_angle_alpha 90.000000
_cell_angle_beta 90.000000
_cell_angle_gamma 90.000000
_cell_volume 6135.593602
_symmetry_space_group_name_H-M "P 42/M C M"
_symmetry_group_IT_number 132
_symmetry_cell_setting 'tetragonal'
loop_
_space_group_symop_operation_xyz
x,y,z
-y,x,1/2+z
-x,-y,z
y,-x,1/2+z
x,-y,1/2-z
-x,y,1/2-z
y,x,-z
-y,-x,-z
-x,-y,-z
y,-x,1/2-z
x,y,-z
-y,x,1/2-z
-x,y,1/2+z
x,-y,1/2+z
-y,-x,z
y,x,z
loop_
_atom_site_type_symbol
_atom_site_label
_atom_site_fract_x
_atom_site_fract_y
_atom_site_fract_z
Si Si1 0.080592 0.298718 0.333115
Si Si2 0.847024 0.152977 0.180013
Si Si3 0.074887 0.546467 0.667406
Si Si4 0.338113 0.187927 0.679440
Si Si5 0.448512 0.818993 0.821782
Si Si6 0.000000 0.372728 0.250000
Si Si7 0.763687 0.236314 0.820001
Si Si8 0.197821 0.053476 0.179008
O O1 0.091686 0.274493 0.500000
O O2 0.130479 0.326346 0.267320
O O3 0.035404 0.338704 0.356584
O O4 0.063246 0.256757 0.213990
O O5 0.805247 0.194754 0.234619
O O6 0.834306 0.098149 0.246140
O O7 0.849396 0.150604 0.000000
O O8 0.045743 0.500000 0.750000
O O9 0.094334 0.531397 0.500000
O O10 0.122639 0.557474 0.775059
O O11 0.036729 0.593114 0.647574
O O12 0.337948 0.189165 0.500000
O O13 0.394607 0.206087 0.734390
O O14 0.292638 0.223259 0.743433
O O15 0.500000 0.794444 0.750000
O O16 0.453778 0.813558 0.000000
O O17 0.763607 0.236394 0.000000
O O18 0.180077 0.000000 0.250000
O O19 0.189359 0.052066 0.000000
#
# Coordination Sequence:
#
# PCOD8316581 Si02
#       8
#    16   8  16  16  16   8   8  16
#     4  11  21  35  52  73 100 132 166 206 255 308
#     4  11  21  39  65  86 110 141 169 205 260 312
#     4  11  23  35  47  63  84 121 166 214 258 301
#     4   9  17  31  51  74 100 127 163 207 253 304
#     4  10  19  33  50  68  92 127 166 211 253 299
#     4  12  23  32  48  68  96 124 165 210 258 300
#     4   9  16  29  55  85 102 128 165 204 258 315
#     4  12  25  40  58  84 113 140 172 206 248 308
#
# _framework density 16.950275999999999
#
# number of rings (size 3 to 8) (size 9 to 14) (size 15 to 20)
#    0.000    1.385    3.846    4.154    0.000    3.077 
#    0.000    0.000    0.000    0.231    0.000    1.615 
#    0.000    0.000    0.000    0.000    0.000    0.385 
#
# Total GULP energy -1288601.074740 kJ/mol
# GULP energy per Si atom -12390.394949 kJ/mol
# Density = 1.691170 g / cm^3
# Si number density = 16.950276 Si / 1000 Ang^3
#
#
#
# Elastic Constant Matrix: (Units=GPa)
#
#
# Indices 1 2 3 4 5 6 
#
# 1 112.0116 58.4238 27.4782 0.0000 0.0000 0.0000
# 2 58.4238 112.0116 27.4781 0.0000 0.0000 0.0000
# 3 27.4782 27.4781 79.5854 0.0000 0.0000 0.0000
# 4 0.0000 0.0000 0.0000 15.2896 0.0000 0.0000
# 5 0.0000 0.0000 0.0000 0.0000 15.2897 0.0000
# 6 0.0000 0.0000 0.0000 0.0000 0.0000 17.1811
#
#
#
# Elastic Compliance Matrix: (Units=1/GPa)
#
#
# Indices 1 2 3 4 5 6 
#
# 1 0.012632 -0.006029 -0.002280 0.000000 0.000000 0.000000
# 2 -0.006029 0.012632 -0.002280 0.000000 0.000000 0.000000
# 3 -0.002280 -0.002280 0.014139 0.000000 0.000000 0.000000
# 4 0.000000 0.000000 0.000000 0.065404 0.000000 0.000000
# 5 0.000000 0.000000 0.000000 0.000000 0.065403 0.000000
# 6 0.000000 0.000000 0.000000 0.000000 0.000000 0.058203
#
#
# Mechanical properties :
#
#
# Convention : Reuss Voigt Hill
#
# Bulk Modulus (GPa) = 54.86766 58.92986 56.89876
# Shear Modulus (GPa) = 19.55681 22.23400 20.89540
#
# Velocity S-wave (km/s) = 3.40041 3.62570 3.51486
# Velocity P-wave (km/s) = 6.91788 7.23667 7.07907
#
# Compressibility (1/GPa) = 0.01822567
#
# Stress axis : x y z
#
# Youngs Moduli (GPa) = 79.16615 79.16619 70.72521
#
# Poissons Ratio (x) = 0.47732 0.16122
# Poissons Ratio (y) = 0.47732 0.16122
# Poissons Ratio (z) = 0.18047 0.18046
#
# Static dielectric constant tensor:
#      x y z
#    x 3.388410 0.000000 0.000000 
#    y 0.000000 3.388410 0.000000 
#    z 0.000000 0.000000 2.960620 
# 
# 
# High freq. dielectric constant tensor:
#      x y z
#    x 1.632590 0.000000 0.000000 
#    y 0.000000 1.632590 0.000000 
#    z 0.000000 0.000000 1.643360 
# 
# From -- ./inp_files/2050.got.cif
#   From: 2010.03.12/outbox.cif.g09.slc.cpg/sg132_2_cif.got.tgz:2050.got - 2010.04.06 17:53:44.
