data_PCOD8316227
_publ_section_title
;
Structure prediction by ZEFSAII (Michael W. Deem and Ramdas Pophale) SiO2 
 PCOD8316227
Probable space group: P 42/M M C
;
_chemical_formula_sum "Si O2"
_cell_formula_units_Z 96
_cell_length_a 24.042873
_cell_length_b 24.042873
_cell_length_c 8.868679
_cell_angle_alpha 90.000000
_cell_angle_beta 90.000000
_cell_angle_gamma 90.000000
_cell_volume 5126.626295
_symmetry_space_group_name_H-M "P 42/M M C"
_symmetry_group_IT_number 131
_symmetry_cell_setting 'tetragonal'
loop_
_space_group_symop_operation_xyz
x,y,z
-x,-y,z
-y,x,1/2+z
y,-x,1/2+z
-x,y,-z
x,-y,-z
y,x,1/2-z
-y,-x,1/2-z
-x,-y,-z
x,y,-z
y,-x,1/2-z
-y,x,1/2-z
x,-y,z
-x,y,z
-y,-x,1/2+z
y,x,1/2+z
loop_
_atom_site_type_symbol
_atom_site_label
_atom_site_fract_x
_atom_site_fract_y
_atom_site_fract_z
Si Si1 0.561712 0.934557 0.329157
Si Si2 0.145243 0.641740 0.322288
Si Si3 0.242407 0.436912 0.321475
Si Si4 0.852447 0.231251 0.319388
Si Si5 0.147567 0.065127 0.678312
Si Si6 0.434833 0.355486 0.670939
O O1 0.569375 0.913693 0.500000
O O2 0.500000 0.916592 0.270571
O O3 0.611089 0.910737 0.227842
O O4 0.567366 0.000000 0.320324
O O5 0.147173 0.642782 0.500000
O O6 0.196045 0.605063 0.257575
O O7 0.147529 0.704936 0.262564
O O8 0.246407 0.434514 0.500000
O O9 0.229047 0.500000 0.267332
O O10 0.299911 0.415167 0.254134
O O11 0.798028 0.201973 0.250000
O O12 0.851669 0.226229 0.500000
O O13 0.907730 0.201969 0.254455
O O14 0.092296 0.092296 0.750000
O O15 0.148487 0.076767 0.500000
O O16 0.147330 0.000000 0.715314
O O17 0.408342 0.408342 0.750000
O O18 0.414452 0.351787 0.500000
O O19 0.500000 0.363823 0.684338
#
# Coordination Sequence:
#
# PCOD8316227 Si02
#       6
#    16  16  16  16  16  16
#     4   9  19  35  53  76 108 143 178 218 262 307
#     4  10  21  35  54  81 107 136 177 220 263 313
#     4   9  18  34  54  75 103 136 170 214 265 313
#     4  10  21  37  55  76 106 141 177 218 262 308
#     4  10  21  37  58  83 110 141 176 214 258 307
#     4  10  21  36  54  77 104 134 170 211 257 312
#
# _framework density 18.725764999999999
#
# number of rings (size 3 to 8) (size 9 to 14) (size 15 to 20)
#    0.000    2.333    0.000    3.500    0.000    7.333 
#    0.000    9.167    0.000    0.000    0.000    0.000 
#    0.000    0.000    0.000    0.000    0.000    0.000 
#
# Total GULP energy -1190385.469470 kJ/mol
# GULP energy per Si atom -12399.848640 kJ/mol
# Density = 1.868314 g / cm^3
# Si number density = 18.725765 Si / 1000 Ang^3
#
#
#
# Elastic Constant Matrix: (Units=GPa)
#
#
# Indices 1 2 3 4 5 6 
#
# 1 128.7820 60.2939 37.8930 0.0000 0.0000 0.0000
# 2 60.2939 128.7815 37.8929 0.0000 0.0000 0.0000
# 3 37.8930 37.8929 43.2318 0.0000 0.0000 0.0000
# 4 0.0000 0.0000 0.0000 27.9583 0.0000 0.0000
# 5 0.0000 0.0000 0.0000 0.0000 27.9585 0.0000
# 6 0.0000 0.0000 0.0000 0.0000 0.0000 17.5302
#
#
#
# Elastic Compliance Matrix: (Units=1/GPa)
#
#
# Indices 1 2 3 4 5 6 
#
# 1 0.011377 -0.003224 -0.007146 0.000000 0.000000 0.000000
# 2 -0.003224 0.011377 -0.007146 0.000000 0.000000 0.000000
# 3 -0.007146 -0.007146 0.035659 0.000000 0.000000 0.000000
# 4 0.000000 0.000000 0.000000 0.035768 0.000000 0.000000
# 5 0.000000 0.000000 0.000000 0.000000 0.035767 0.000000
# 6 0.000000 0.000000 0.000000 0.000000 0.000000 0.057045
#
#
# Mechanical properties :
#
#
# Convention : Reuss Voigt Hill
#
# Bulk Modulus (GPa) = 42.77192 63.66167 53.21680
# Shear Modulus (GPa) = 21.75616 25.67042 23.71329
#
# Velocity S-wave (km/s) = 3.41226 3.70653 3.56244
# Velocity P-wave (km/s) = 6.19802 7.23799 6.73810
#
# Compressibility (1/GPa) = 0.02337982
#
# Stress axis : x y z
#
# Youngs Moduli (GPa) = 87.89481 87.89454 28.04338
#
# Poissons Ratio (x) = 0.28336 0.20041
# Poissons Ratio (y) = 0.28336 0.20041
# Poissons Ratio (z) = 0.62814 0.62814
#
# Static dielectric constant tensor:
#      x y z
#    x 3.531220 0.000000 0.000000 
#    y 0.000000 3.531220 0.000000 
#    z 0.000000 0.000000 3.470850 
# 
# 
# High freq. dielectric constant tensor:
#      x y z
#    x 1.729320 0.000000 0.000000 
#    y 0.000000 1.729320 0.000000 
#    z 0.000000 0.000000 1.728080 
# 
# From -- ./inp_files/2276.got.cif
#   From: 2010.03.12/outbox.cif.g09.slc.cpg/sg131_2_cif.got.tgz:2276.got - 2010.04.06 17:36:35.
