data_PCOD8316184
_publ_section_title
;
Structure prediction by ZEFSAII (Michael W. Deem and Ramdas Pophale) SiO2 
 PCOD8316184
Probable space group: P 42/M M C
;
_chemical_formula_sum "Si O2"
_cell_formula_units_Z 84
_cell_length_a 13.527639
_cell_length_b 13.527639
_cell_length_c 23.427402
_cell_angle_alpha 90.000000
_cell_angle_beta 90.000000
_cell_angle_gamma 90.000000
_cell_volume 4287.144680
_symmetry_space_group_name_H-M "P 42/M M C"
_symmetry_group_IT_number 131
_symmetry_cell_setting 'tetragonal'
loop_
_space_group_symop_operation_xyz
x,y,z
-x,-y,z
-y,x,1/2+z
y,-x,1/2+z
-x,y,-z
x,-y,-z
y,x,1/2-z
-y,-x,1/2-z
-x,-y,-z
x,y,-z
y,-x,1/2-z
-y,x,1/2-z
x,-y,z
-x,y,z
-y,-x,1/2+z
y,x,1/2+z
loop_
_atom_site_type_symbol
_atom_site_label
_atom_site_fract_x
_atom_site_fract_y
_atom_site_fract_z
Si Si1 0.000000 0.252455 0.000000
Si Si2 0.000000 0.386817 0.110470
Si Si3 0.301473 0.185240 0.326071
Si Si4 0.812963 0.112389 0.000000
Si Si5 0.888114 0.390058 0.717414
Si Si6 0.758016 0.110363 0.876218
Si Si7 0.609218 0.611534 0.182261
O O1 0.904913 0.184247 0.000000
O O2 0.000000 0.319660 0.944790
O O3 0.899535 0.368784 0.145998
O O4 0.000000 0.500000 0.091196
O O5 0.317195 0.175415 0.257706
O O6 0.188132 0.167608 0.345738
O O7 0.329188 0.297878 0.345154
O O8 0.746935 0.132684 0.943660
O O9 0.852357 0.000000 0.000000
O O10 0.842063 0.500000 0.719208
O O11 0.881523 0.349910 0.652864
O O12 0.000000 0.392191 0.739688
O O13 0.801909 0.000000 0.866262
O O14 0.616001 0.616001 0.250000
O O15 0.619445 0.500000 0.160324
O O16 0.500000 0.652760 0.163274
#
# Coordination Sequence:
#
# PCOD8316184 Si02
#       7
#     4   8  16   8  16  16  16
#     4  12  22  44  64  88 116 156 210 260 318 362
#     4  12  25  39  61  94 125 160 202 251 311 375
#     4  12  21  36  59  87 127 164 199 246 306 378
#     4  10  21  41  64  86 112 156 210 266 308 363
#     4  10  20  35  58  89 125 164 200 241 305 375
#     4  10  22  38  58  85 118 158 208 256 305 360
#     4   9  18  32  53  83 117 156 200 241 286 350
#
# _framework density 19.593461000000001
#
# number of rings (size 3 to 8) (size 9 to 14) (size 15 to 20)
#    0.000    1.524    2.857    4.286    0.000    2.286 
#    0.000    0.952    0.000    2.857    0.000    0.667 
#    0.000    4.571    0.000    0.000    0.000    0.000 
#
# Total GULP energy -1040995.119346 kJ/mol
# GULP energy per Si atom -12392.799040 kJ/mol
# Density = 1.954887 g / cm^3
# Si number density = 19.593461 Si / 1000 Ang^3
#
#
#
# Elastic Constant Matrix: (Units=GPa)
#
#
# Indices 1 2 3 4 5 6 
#
# 1 132.7530 42.6469 52.9167 0.0000 0.0000 0.0000
# 2 42.6469 132.7530 52.9167 0.0000 0.0000 0.0000
# 3 52.9167 52.9167 125.0880 0.0000 0.0000 0.0000
# 4 0.0000 0.0000 0.0000 10.2650 0.0000 0.0000
# 5 0.0000 0.0000 0.0000 0.0000 10.2650 0.0000
# 6 0.0000 0.0000 0.0000 0.0000 0.0000 28.4753
#
#
#
# Elastic Compliance Matrix: (Units=1/GPa)
#
#
# Indices 1 2 3 4 5 6 
#
# 1 0.009377 -0.001721 -0.003238 0.000000 0.000000 0.000000
# 2 -0.001721 0.009377 -0.003238 0.000000 0.000000 0.000000
# 3 -0.003238 -0.003238 0.010734 0.000000 0.000000 0.000000
# 4 0.000000 0.000000 0.000000 0.097419 0.000000 0.000000
# 5 0.000000 0.000000 0.000000 0.000000 0.097419 0.000000
# 6 0.000000 0.000000 0.000000 0.000000 0.000000 0.035118
#
#
# Mechanical properties :
#
#
# Convention : Reuss Voigt Hill
#
# Bulk Modulus (GPa) = 76.38791 76.39496 76.39143
# Shear Modulus (GPa) = 17.84416 25.94196 21.89306
#
# Velocity S-wave (km/s) = 3.02109 3.64264 3.34633
# Velocity P-wave (km/s) = 7.15824 7.53435 7.34870
#
# Compressibility (1/GPa) = 0.01309108
#
# Stress axis : x y z
#
# Youngs Moduli (GPa) = 106.64778 106.64778 93.15900
#
# Poissons Ratio (x) = 0.18358 0.30169
# Poissons Ratio (y) = 0.18358 0.30169
# Poissons Ratio (z) = 0.34537 0.34537
#
# Static dielectric constant tensor:
#      x y z
#    x 3.779480 0.000000 0.000000 
#    y 0.000000 3.779480 0.000000 
#    z 0.000000 0.000000 3.465100 
# 
# 
# High freq. dielectric constant tensor:
#      x y z
#    x 1.771120 0.000000 0.000000 
#    y 0.000000 1.771120 0.000000 
#    z 0.000000 0.000000 1.731280 
# 
# From -- ./inp_files/9656.got.cif
#   From: 2010.03.12/outbox.cif.g09.slc.cpg/sg131_5_cif.got.tgz:9656.got - 2010.04.06 17:36:35.
