data_PCOD8316933
_publ_section_title
;
Structure prediction by ZEFSAII (Michael W. Deem and Ramdas Pophale) SiO2 
 PCOD8316933
Probable space group: P 42/N B C
;
_chemical_formula_sum "Si O2"
_cell_formula_units_Z 116
_cell_length_a 16.839960
_cell_length_b 16.839960
_cell_length_c 19.623908
_cell_angle_alpha 90.000000
_cell_angle_beta 90.000000
_cell_angle_gamma 90.000000
_cell_volume 5565.031287
_symmetry_space_group_name_H-M "P 42/N B C"
_symmetry_group_IT_number 133
_space_group.IT_coordinate_system_code '2'
_symmetry_cell_setting 'tetragonal'
loop_
_space_group_symop_operation_xyz
x,y,z
1/2-y,x,1/2+z
1/2-x,1/2-y,z
y,1/2-x,1/2+z
x,1/2-y,-z
1/2-x,y,-z
y,x,1/2-z
1/2-y,1/2-x,1/2-z
-x,-y,-z
1/2+y,-x,1/2-z
1/2+x,1/2+y,-z
-y,1/2+x,1/2-z
-x,1/2+y,z
1/2+x,-y,z
-y,-x,1/2+z
1/2+y,1/2+x,1/2+z
loop_
_atom_site_type_symbol
_atom_site_label
_atom_site_fract_x
_atom_site_fract_y
_atom_site_fract_z
Si Si1 0.486592 0.353342 0.426494
Si Si2 0.166322 0.043068 0.924354
Si Si3 0.226805 0.338556 0.427490
Si Si4 0.098088 0.351506 0.826640
Si Si5 0.666573 0.158524 0.110313
Si Si6 0.086251 0.814188 0.320601
Si Si7 0.250000 0.750000 0.500000
Si Si8 0.782090 0.432919 0.302671
O O1 0.469930 0.260066 0.427156
O O2 0.475507 0.379822 0.505083
O O3 0.428251 0.395572 0.374162
O O4 0.574168 0.376557 0.400799
O O5 0.147847 0.134711 0.906549
O O6 0.138961 0.978227 0.867533
O O7 0.250000 0.250000 0.444250
O O8 0.250000 0.383397 0.500000
O O9 0.277196 0.358204 0.360445
O O10 0.130105 0.369895 0.750000
O O11 0.007394 0.326387 0.833320
O O12 0.753036 0.146243 0.143416
O O13 0.687770 0.194911 0.038335
O O14 0.607022 0.218325 0.147559
O O15 0.037853 0.763915 0.264675
O O16 0.146012 0.874080 0.282951
#
# Coordination Sequence:
#
# PCOD8316933 Si02
#       8
#    16  16  16  16  16  16   4  16
#     4  10  20  41  66  99 132 177 220 285 345 401
#     4  10  19  39  72  98 129 174 237 280 336 416
#     4  11  20  42  70  96 128 178 237 285 342 412
#     4  12  26  44  65  97 140 182 229 293 354 420
#     4  11  22  38  68  99 133 173 224 287 335 406
#     4  11  22  43  67  98 130 179 228 283 349 414
#     4  12  20  36  66 112 136 162 242 290 332 408
#     4  12  25  43  66  98 135 180 230 277 353 429
#
# _framework density 20.844446999999999
#
# number of rings (size 3 to 8) (size 9 to 14) (size 15 to 20)
#    0.000    0.966    5.517    4.138    0.000    0.276 
#    3.724    0.690    0.000    0.000    0.000    0.000 
#    0.000    0.000    0.000    0.000    0.000    0.000 
#
# Total GULP energy -1437197.407881 kJ/mol
# GULP energy per Si atom -12389.632827 kJ/mol
# Density = 2.079700 g / cm^3
# Si number density = 20.844447 Si / 1000 Ang^3
#
#
#
# Elastic Constant Matrix: (Units=GPa)
#
#
# Indices 1 2 3 4 5 6 
#
# 1 104.9014 48.1362 52.6069 0.0000 0.0000 0.0000
# 2 48.1362 104.9014 52.6069 0.0000 0.0000 0.0000
# 3 52.6069 52.6069 141.1574 0.0000 0.0000 0.0000
# 4 0.0000 0.0000 0.0000 -13.3425 0.0000 0.0000
# 5 0.0000 0.0000 0.0000 0.0000 -13.3425 0.0000
# 6 0.0000 0.0000 0.0000 0.0000 0.0000 10.0120
#
#
#
# Elastic Compliance Matrix: (Units=1/GPa)
#
#
# Indices 1 2 3 4 5 6 
#
# 1 0.013201 -0.004416 -0.003274 0.000000 0.000000 0.000000
# 2 -0.004416 0.013201 -0.003274 0.000000 0.000000 0.000000
# 3 -0.003274 -0.003274 0.009525 0.000000 0.000000 0.000000
# 4 0.000000 0.000000 0.000000 -0.074948 0.000000 0.000000
# 5 0.000000 0.000000 0.000000 0.000000 -0.074948 0.000000
# 6 0.000000 0.000000 0.000000 0.000000 0.000000 0.099880
#
#
# Mechanical properties :
#
#
# Convention : Reuss Voigt Hill
#
# Bulk Modulus (GPa) = 71.43463 73.07336 72.25400
# Shear Modulus (GPa) = 399.88647 9.83941 204.86294
#
# Velocity S-wave (km/s) = 13.86577 2.17500 9.92447
# Velocity P-wave (km/s) = 17.04966 6.43740 12.88664
#
# Compressibility (1/GPa) = 0.01399881
#
# Stress axis : x y z
#
# Youngs Moduli (GPa) = 75.75255 75.75255 104.98997
#
# Poissons Ratio (x) = 0.33449 0.34375
# Poissons Ratio (y) = 0.33449 0.34375
# Poissons Ratio (z) = 0.24802 0.24802
#
# Static dielectric constant tensor:
#      x y z
#    x 3.208280 0.000000 0.000000 
#    y 0.000000 3.208280 0.000000 
#    z 0.000000 0.000000 7.324690 
# 
# 
# High freq. dielectric constant tensor:
#      x y z
#    x 1.804580 0.000000 0.000000 
#    y 0.000000 1.804580 0.000000 
#    z 0.000000 0.000000 1.828880 
# 
# From -- ./inp_files/5643.got.cif
#   From: 2010.03.12/outbox.cif.g09.slc.cpg/sg133_3_cif.got.tgz:5643.got - 2010.04.06 18:08:06.
