data_PCOD8316551
_publ_section_title
;
Structure prediction by ZEFSAII (Michael W. Deem and Ramdas Pophale) SiO2 
 PCOD8316551
Probable space group: P 42/M C M
;
_chemical_formula_sum "Si O2"
_cell_formula_units_Z 104
_cell_length_a 17.995597
_cell_length_b 17.995597
_cell_length_c 17.973745
_cell_angle_alpha 90.000000
_cell_angle_beta 90.000000
_cell_angle_gamma 90.000000
_cell_volume 5820.644746
_symmetry_space_group_name_H-M "P 42/M C M"
_symmetry_group_IT_number 132
_symmetry_cell_setting 'tetragonal'
loop_
_space_group_symop_operation_xyz
x,y,z
-y,x,1/2+z
-x,-y,z
y,-x,1/2+z
x,-y,1/2-z
-x,y,1/2-z
y,x,-z
-y,-x,-z
-x,-y,-z
y,-x,1/2-z
x,y,-z
-y,x,1/2-z
-x,y,1/2+z
x,-y,1/2+z
-y,-x,z
y,x,z
loop_
_atom_site_type_symbol
_atom_site_label
_atom_site_fract_x
_atom_site_fract_y
_atom_site_fract_z
Si Si1 0.341227 0.221173 0.293398
Si Si2 0.559905 0.681453 0.809700
Si Si3 0.319274 0.924566 0.290428
Si Si4 0.037140 0.840759 0.671593
Si Si5 0.062431 0.937570 0.082931
Si Si6 0.778502 0.537694 0.587885
Si Si7 0.917335 0.524316 0.165200
O O1 0.266360 0.266360 0.300748
O O2 0.393453 0.252027 0.227518
O O3 0.314651 0.138323 0.273152
O O4 0.382648 0.228438 0.372259
O O5 0.500000 0.651180 0.750000
O O6 0.613304 0.613304 0.833751
O O7 0.519067 0.715346 0.881936
O O8 0.243512 0.934083 0.337319
O O9 0.387124 0.908067 0.345704
O O10 0.341058 0.000000 0.250000
O O11 0.108037 0.891964 0.657845
O O12 0.000000 0.855497 0.750000
O O13 0.969735 0.860750 0.616036
O O14 0.082068 0.917933 0.000000
O O15 0.000000 0.000000 0.093903
O O16 0.767354 0.546967 0.500000
O O17 0.861309 0.510468 0.606225
O O18 0.896106 0.500000 0.250000
O O19 0.000000 0.500000 0.143957
#
# Coordination Sequence:
#
# PCOD8316551 Si02
#       7
#    16  16  16  16   8  16  16
#     4  10  19  35  57  80 109 146 191 240 281 333
#     4   9  18  34  57  81 109 145 194 242 290 343
#     4  11  19  31  56  85 104 133 183 241 285 316
#     4  10  19  31  52  83 109 139 190 234 265 323
#     4   9  18  34  56  78 112 154 180 216 280 336
#     4  11  21  34  54  82 118 153 187 226 289 367
#     4  11  18  35  57  78 104 139 188 243 284 330
#
# _framework density 17.867436999999999
#
# number of rings (size 3 to 8) (size 9 to 14) (size 15 to 20)
#    0.000    1.769    5.385    0.923    0.000    1.077 
#    0.000    0.769    0.000    5.538    0.000    4.308 
#    0.000    0.000    0.000    0.000    0.000    0.000 
#
# Total GULP energy -1289235.536818 kJ/mol
# GULP energy per Si atom -12396.495546 kJ/mol
# Density = 1.782677 g / cm^3
# Si number density = 17.867437 Si / 1000 Ang^3
#
#
#
# Elastic Constant Matrix: (Units=GPa)
#
#
# Indices 1 2 3 4 5 6 
#
# 1 112.9006 42.6090 40.1291 0.0000 0.0000 0.0000
# 2 42.6090 112.9006 40.1291 0.0000 0.0000 0.0000
# 3 40.1291 40.1291 105.1971 0.0000 0.0000 0.0000
# 4 0.0000 0.0000 0.0000 7.6971 0.0000 0.0000
# 5 0.0000 0.0000 0.0000 0.0000 7.6972 0.0000
# 6 0.0000 0.0000 0.0000 0.0000 0.0000 31.3023
#
#
#
# Elastic Compliance Matrix: (Units=1/GPa)
#
#
# Indices 1 2 3 4 5 6 
#
# 1 0.011117 -0.003110 -0.003054 0.000000 0.000000 0.000000
# 2 -0.003110 0.011117 -0.003054 0.000000 0.000000 0.000000
# 3 -0.003054 -0.003054 0.011836 0.000000 0.000000 0.000000
# 4 0.000000 0.000000 0.000000 0.129920 0.000000 0.000000
# 5 0.000000 0.000000 0.000000 0.000000 0.129917 0.000000
# 6 0.000000 0.000000 0.000000 0.000000 0.000000 0.031947
#
#
# Mechanical properties :
#
#
# Convention : Reuss Voigt Hill
#
# Bulk Modulus (GPa) = 63.96921 64.08141 64.02531
# Shear Modulus (GPa) = 14.30612 23.21471 18.76042
#
# Velocity S-wave (km/s) = 2.83270 3.60846 3.24385
# Velocity P-wave (km/s) = 6.82486 7.30096 7.06692
#
# Compressibility (1/GPa) = 0.01563252
#
# Stress axis : x y z
#
# Youngs Moduli (GPa) = 89.95529 89.95533 84.48656
#
# Poissons Ratio (x) = 0.27975 0.25805
# Poissons Ratio (y) = 0.27975 0.25805
# Poissons Ratio (z) = 0.27475 0.27475
#
# Static dielectric constant tensor:
#      x y z
#    x 3.449210 0.000000 0.000000 
#    y 0.000000 3.449210 0.000000 
#    z 0.000000 0.000000 2.956570 
# 
# 
# High freq. dielectric constant tensor:
#      x y z
#    x 1.702220 0.000000 0.000000 
#    y 0.000000 1.702220 0.000000 
#    z 0.000000 0.000000 1.645740 
# 
# From -- ./inp_files/6556.got.cif
#   From: 2010.03.12/outbox.cif.g09.slc.cpg/sg132_4_cif.got.tgz:6556.got - 2010.04.06 17:53:44.
