data_PCOD8316621
_publ_section_title
;
Structure prediction by ZEFSAII (Michael W. Deem and Ramdas Pophale) SiO2 
 PCOD8316621
Probable space group: P 42/M C M
;
_chemical_formula_sum "Si O2"
_cell_formula_units_Z 72
_cell_length_a 11.168822
_cell_length_b 11.168822
_cell_length_c 26.249973
_cell_angle_alpha 90.000000
_cell_angle_beta 90.000000
_cell_angle_gamma 90.000000
_cell_volume 3274.489485
_symmetry_space_group_name_H-M "P 42/M C M"
_symmetry_group_IT_number 132
_symmetry_cell_setting 'tetragonal'
loop_
_space_group_symop_operation_xyz
x,y,z
-y,x,1/2+z
-x,-y,z
y,-x,1/2+z
x,-y,1/2-z
-x,y,1/2-z
y,x,-z
-y,-x,-z
-x,-y,-z
y,-x,1/2-z
x,y,-z
-y,x,1/2-z
-x,y,1/2+z
x,-y,1/2+z
-y,-x,z
y,x,z
loop_
_atom_site_type_symbol
_atom_site_label
_atom_site_fract_x
_atom_site_fract_y
_atom_site_fract_z
Si Si1 0.238544 0.045179 0.806995
Si Si2 0.934189 0.638806 0.059673
Si Si3 0.226028 0.583996 0.647709
Si Si4 0.660723 0.848346 0.377468
Si Si5 0.908668 0.908668 0.059945
O O1 0.117606 0.117606 0.823188
O O2 0.352246 0.133702 0.813692
O O3 0.227209 0.000000 0.750000
O O4 0.257788 0.928022 0.840656
O O5 0.815932 0.596491 0.088869
O O6 0.944870 0.776751 0.076390
O O7 0.065203 0.592308 0.080204
O O8 0.920236 0.612721 0.000000
O O9 0.359151 0.640850 0.654012
O O10 0.221102 0.440618 0.656320
O O11 0.747795 0.747795 0.402746
O O12 0.917355 0.917355 0.000000
O O13 0.000000 0.000000 0.086501
#
# Coordination Sequence:
#
# PCOD8316621 Si02
#       5
#    16  16  16  16   8
#     4  10  21  39  63  89 118 150 183 226 288 358
#     4  10  19  35  56  80 112 148 188 236 290 349
#     4  10  22  40  59  81 111 154 205 243 280 337
#     4  11  24  37  55  86 118 151 194 242 290 342
#     4   9  16  26  46  76 107 137 167 211 276 336
#
# _framework density 21.988161000000002
#
# number of rings (size 3 to 8) (size 9 to 14) (size 15 to 20)
#    0.000    1.889    1.111    4.000    1.556    6.889 
#    0.000    0.000    0.000    0.000    0.000    6.222 
#    0.000    0.000    0.000    0.000    0.000    0.000 
#
# Total GULP energy -892176.124419 kJ/mol
# GULP energy per Si atom -12391.335061 kJ/mol
# Density = 2.193811 g / cm^3
# Si number density = 21.988161 Si / 1000 Ang^3
#
#
#
# Elastic Constant Matrix: (Units=GPa)
#
#
# Indices 1 2 3 4 5 6 
#
# 1 74.2298 37.4674 14.3809 0.0000 0.0000 0.0000
# 2 37.4674 74.2298 14.3809 0.0000 0.0000 0.0000
# 3 14.3809 14.3809 52.8332 0.0000 0.0000 0.0000
# 4 0.0000 0.0000 0.0000 19.4542 0.0000 0.0000
# 5 0.0000 0.0000 0.0000 0.0000 19.4542 0.0000
# 6 0.0000 0.0000 0.0000 0.0000 0.0000 38.7411
#
#
#
# Elastic Compliance Matrix: (Units=1/GPa)
#
#
# Indices 1 2 3 4 5 6 
#
# 1 0.018415 -0.008787 -0.002621 0.000000 0.000000 0.000000
# 2 -0.008787 0.018415 -0.002621 0.000000 0.000000 0.000000
# 3 -0.002621 -0.002621 0.020354 0.000000 0.000000 0.000000
# 4 0.000000 0.000000 0.000000 0.051403 0.000000 0.000000
# 5 0.000000 0.000000 0.000000 0.000000 0.051403 0.000000
# 6 0.000000 0.000000 0.000000 0.000000 0.000000 0.025812
#
#
# Mechanical properties :
#
#
# Convention : Reuss Voigt Hill
#
# Bulk Modulus (GPa) = 34.33243 37.08344 35.70793
# Shear Modulus (GPa) = 22.36470 24.53415 23.44942
#
# Velocity S-wave (km/s) = 3.19270 3.34397 3.26921
# Velocity P-wave (km/s) = 5.40731 5.64015 5.52496
#
# Compressibility (1/GPa) = 0.02912698
#
# Stress axis : x y z
#
# Youngs Moduli (GPa) = 54.30466 54.30466 49.13014
#
# Poissons Ratio (x) = 0.47718 0.12875
# Poissons Ratio (y) = 0.47718 0.12875
# Poissons Ratio (z) = 0.14231 0.14231
#
# Static dielectric constant tensor:
#      x y z
#    x 4.220190 0.000000 0.000000 
#    y 0.000000 4.220190 0.000000 
#    z 0.000000 0.000000 3.860600 
# 
# 
# High freq. dielectric constant tensor:
#      x y z
#    x 1.867330 0.000000 0.000000 
#    y 0.000000 1.867330 0.000000 
#    z 0.000000 0.000000 1.845250 
# 
# From -- ./inp_files/9804.got.cif
#   From: 2010.03.12/outbox.cif.g09.slc.cpg/sg132_5_cif.got.tgz:9804.got - 2010.04.06 17:53:44.
