data_PCOD8316629
_publ_section_title
;
Structure prediction by ZEFSAII (Michael W. Deem and Ramdas Pophale) SiO2 
 PCOD8316629
Probable space group: P 42/M C M
;
_chemical_formula_sum "Si O2"
_cell_formula_units_Z 88
_cell_length_a 19.040384
_cell_length_b 19.040384
_cell_length_c 14.645419
_cell_angle_alpha 90.000000
_cell_angle_beta 90.000000
_cell_angle_gamma 90.000000
_cell_volume 5309.494887
_symmetry_space_group_name_H-M "P 42/M C M"
_symmetry_group_IT_number 132
_symmetry_cell_setting 'tetragonal'
loop_
_space_group_symop_operation_xyz
x,y,z
-y,x,1/2+z
-x,-y,z
y,-x,1/2+z
x,-y,1/2-z
-x,y,1/2-z
y,x,-z
-y,-x,-z
-x,-y,-z
y,-x,1/2-z
x,y,-z
-y,x,1/2-z
-x,y,1/2+z
x,-y,1/2+z
-y,-x,z
y,x,z
loop_
_atom_site_type_symbol
_atom_site_label
_atom_site_fract_x
_atom_site_fract_y
_atom_site_fract_z
Si Si1 0.722756 0.839833 0.500000
Si Si2 0.381175 0.261639 0.000000
Si Si3 0.728073 0.390207 0.000000
Si Si4 0.847038 0.730213 0.000000
Si Si5 0.808339 0.077764 0.353483
Si Si6 0.803845 0.082504 0.855984
Si Si7 0.557753 0.442248 0.602128
Si Si8 0.507454 0.295370 0.646763
O O1 0.775138 0.775138 0.500000
O O2 0.644707 0.806151 0.500000
O O3 0.736348 0.888485 0.588875
O O4 0.427183 0.262375 0.092287
O O5 0.323543 0.323543 0.000000
O O6 0.347556 0.184151 0.000000
O O7 0.719485 0.436113 0.091451
O O8 0.667584 0.332417 0.000000
O O9 0.894146 0.742474 0.089333
O O10 0.782682 0.782682 0.000000
O O11 0.879703 0.120298 0.376054
O O12 0.784960 0.088472 0.249780
O O13 0.822316 0.997420 0.380977
O O14 0.872523 0.127478 0.882072
O O15 0.500000 0.500000 0.589521
O O16 0.582760 0.417241 0.500000
O O17 0.523383 0.378031 0.656053
O O18 0.500000 0.264912 0.750000
#
# Coordination Sequence:
#
# PCOD8316629 Si02
#       8
#     8   8   8   8  16  16   8  16
#     4   9  18  32  48  65  92 132 168 196 237 274
#     4  10  19  36  48  67  97 127 160 201 238 281
#     4  10  21  35  48  68  97 126 162 202 233 280
#     4   9  18  30  49  65  93 131 164 201 238 273
#     4   9  17  29  45  74 102 130 166 195 231 283
#     4   9  17  29  47  70 103 134 162 196 232 279
#     4  11  20  32  48  67  99 129 153 186 222 281
#     4  11  22  33  49  71  95 124 160 192 237 288
#
# _framework density 16.574082000000001
#
# number of rings (size 3 to 8) (size 9 to 14) (size 15 to 20)
#    0.000    2.273    2.727    1.091    2.545    1.818 
#    0.000    5.455    0.000    3.273    0.000   10.182 
#    0.000   17.455    0.000    0.000    0.000    0.000 
#
# Total GULP energy -1090836.373696 kJ/mol
# GULP energy per Si atom -12395.867883 kJ/mol
# Density = 1.653636 g / cm^3
# Si number density = 16.574082 Si / 1000 Ang^3
#
#
#
# Elastic Constant Matrix: (Units=GPa)
#
#
# Indices 1 2 3 4 5 6 
#
# 1 87.4605 67.4811 52.9349 0.0000 0.0000 0.0000
# 2 67.4811 87.4603 52.9346 0.0000 0.0000 0.0000
# 3 52.9349 52.9346 123.6401 0.0000 0.0000 0.0000
# 4 0.0000 0.0000 0.0000 37.3574 0.0000 0.0000
# 5 0.0000 0.0000 0.0000 0.0000 37.3560 0.0000
# 6 0.0000 0.0000 0.0000 0.0000 0.0000 28.5037
#
#
#
# Elastic Compliance Matrix: (Units=1/GPa)
#
#
# Indices 1 2 3 4 5 6 
#
# 1 0.029587 -0.020464 -0.003906 0.000000 0.000000 0.000000
# 2 -0.020464 0.029587 -0.003906 0.000000 0.000000 0.000000
# 3 -0.003906 -0.003906 0.011432 0.000000 0.000000 0.000000
# 4 0.000000 0.000000 0.000000 0.026768 0.000000 0.000000
# 5 0.000000 0.000000 0.000000 0.000000 0.026769 0.000000
# 6 0.000000 0.000000 0.000000 0.000000 0.000000 0.035083
#
#
# Mechanical properties :
#
#
# Convention : Reuss Voigt Hill
#
# Bulk Modulus (GPa) = 71.14980 71.69579 71.42279
# Shear Modulus (GPa) = 22.67933 28.99078 25.83506
#
# Velocity S-wave (km/s) = 3.70315 4.18684 3.95240
# Velocity P-wave (km/s) = 7.82981 8.16851 8.00095
#
# Compressibility (1/GPa) = 0.01405485
#
# Stress axis : x y z
#
# Youngs Moduli (GPa) = 33.79833 33.79836 87.47052
#
# Poissons Ratio (x) = 0.69166 0.34165
# Poissons Ratio (y) = 0.69166 0.34164
# Poissons Ratio (z) = 0.13201 0.13201
#
# Static dielectric constant tensor:
#      x y z
#    x 3.039620 0.000000 0.000000 
#    y 0.000000 3.039610 0.000000 
#    z 0.000000 0.000000 3.243480 
# 
# 
# High freq. dielectric constant tensor:
#      x y z
#    x 1.618050 0.000000 0.000000 
#    y 0.000000 1.618050 0.000000 
#    z 0.000000 0.000000 1.650360 
# 
# From -- ./inp_files/4839.got.cif
#   From: 2010.03.12/outbox.cif.g09.slc.cpg/sg132_3_cif.got.tgz:4839.got - 2010.04.06 17:53:44.
