data_PCOD8316090
_publ_section_title
;
Structure prediction by ZEFSAII (Michael W. Deem and Ramdas Pophale) SiO2 
 PCOD8316090
Probable space group: P 42/M M C
;
_chemical_formula_sum "Si O2"
_cell_formula_units_Z 56
_cell_length_a 19.537060
_cell_length_b 19.537060
_cell_length_c 8.894703
_cell_angle_alpha 90.000000
_cell_angle_beta 90.000000
_cell_angle_gamma 90.000000
_cell_volume 3395.078902
_symmetry_space_group_name_H-M "P 42/M M C"
_symmetry_group_IT_number 131
_symmetry_cell_setting 'tetragonal'
loop_
_space_group_symop_operation_xyz
x,y,z
-x,-y,z
-y,x,1/2+z
y,-x,1/2+z
-x,y,-z
x,-y,-z
y,x,1/2-z
-y,-x,1/2-z
-x,-y,-z
x,y,-z
y,-x,1/2-z
-y,x,1/2-z
x,-y,z
-x,y,z
-y,-x,1/2+z
y,x,1/2+z
loop_
_atom_site_type_symbol
_atom_site_label
_atom_site_fract_x
_atom_site_fract_y
_atom_site_fract_z
Si Si1 0.919269 0.500000 0.664144
Si Si2 0.318443 0.579796 0.678504
Si Si3 0.635382 0.075450 0.326163
Si Si4 0.683649 0.218131 0.676270
O O1 0.884258 0.500000 0.500000
O O2 0.895879 0.567026 0.750710
O O3 0.000000 0.500000 0.649267
O O4 0.386503 0.613498 0.750000
O O5 0.319892 0.590231 0.500000
O O6 0.315981 0.500000 0.722411
O O7 0.251411 0.617008 0.745805
O O8 0.618832 0.067863 0.500000
O O9 0.689632 0.135963 0.296119
O O10 0.659056 0.000000 0.263972
O O11 0.752090 0.247911 0.750000
O O12 0.680756 0.235498 0.500000
#
# Coordination Sequence:
#
# PCOD8316090 Si02
#       4
#     8  16  16  16
#     4   9  17  27  41  65  93 119 148 185 226 261
#     4  10  21  35  50  68  89 116 151 194 239 281
#     4   9  18  32  48  67  92 122 155 186 222 273
#     4  10  20  33  50  69  92 123 154 188 229 273
#
# _framework density 16.494461000000001
#
# number of rings (size 3 to 8) (size 9 to 14) (size 15 to 20)
#    0.000    2.429    0.000    3.857    2.000    6.571 
#    0.000    1.429    0.000    0.000    0.000    0.000 
#    0.000    0.571    0.000    7.143    0.000    0.000 
#
# Total GULP energy -693929.469784 kJ/mol
# GULP energy per Si atom -12391.597675 kJ/mol
# Density = 1.645692 g / cm^3
# Si number density = 16.494461 Si / 1000 Ang^3
#
#
#
# Elastic Constant Matrix: (Units=GPa)
#
#
# Indices 1 2 3 4 5 6 
#
# 1 113.3382 49.2288 42.9158 0.0000 0.0000 0.0000
# 2 49.2288 113.3431 42.9131 0.0000 0.0000 0.0000
# 3 42.9158 42.9131 75.4958 0.0000 0.0000 0.0000
# 4 0.0000 0.0000 0.0000 14.1171 0.0000 0.0000
# 5 0.0000 0.0000 0.0000 0.0000 14.1172 0.0000
# 6 0.0000 0.0000 0.0000 0.0000 0.0000 14.1969
#
#
#
# Elastic Compliance Matrix: (Units=1/GPa)
#
#
# Indices 1 2 3 4 5 6 
#
# 1 0.012194 -0.003404 -0.004996 0.000000 0.000000 0.000000
# 2 -0.003404 0.012193 -0.004995 0.000000 0.000000 0.000000
# 3 -0.004996 -0.004995 0.018925 0.000000 0.000000 0.000000
# 4 0.000000 0.000000 0.000000 0.070836 0.000000 0.000000
# 5 0.000000 0.000000 0.000000 0.000000 0.070836 0.000000
# 6 0.000000 0.000000 0.000000 0.000000 0.000000 0.070438
#
#
# Mechanical properties :
#
#
# Convention : Reuss Voigt Hill
#
# Bulk Modulus (GPa) = 60.53427 63.58805 62.06116
# Shear Modulus (GPa) = 17.37799 19.62754 18.50277
#
# Velocity S-wave (km/s) = 3.24939 3.45330 3.35290
# Velocity P-wave (km/s) = 7.13144 7.38480 7.25923
#
# Compressibility (1/GPa) = 0.01651957
#
# Stress axis : x y z
#
# Youngs Moduli (GPa) = 82.00878 82.01621 52.83899
#
# Poissons Ratio (x) = 0.27922 0.26401
# Poissons Ratio (y) = 0.27920 0.26394
# Poissons Ratio (z) = 0.40975 0.40969
#
# Static dielectric constant tensor:
#      x y z
#    x 3.113100 0.000000 0.000000 
#    y 0.000000 3.113100 0.000000 
#    z 0.000000 0.000000 3.314880 
# 
# 
# High freq. dielectric constant tensor:
#      x y z
#    x 1.616370 0.000000 0.000000 
#    y 0.000000 1.616370 0.000000 
#    z 0.000000 0.000000 1.649960 
# 
# From -- ./inp_files/1456.got.cif
#   From: 2010.03.12/outbox.cif.g09.slc.cpg/sg131_1_cif.got.tgz:1456.got - 2010.04.06 17:36:35.
