data_PCOD8316567
_publ_section_title
;
Structure prediction by ZEFSAII (Michael W. Deem and Ramdas Pophale) SiO2 
 PCOD8316567
Probable space group: P 42/M C M
;
_chemical_formula_sum "Si O2"
_cell_formula_units_Z 80
_cell_length_a 14.024866
_cell_length_b 14.024866
_cell_length_c 22.424541
_cell_angle_alpha 90.000000
_cell_angle_beta 90.000000
_cell_angle_gamma 90.000000
_cell_volume 4410.836943
_symmetry_space_group_name_H-M "P 42/M C M"
_symmetry_group_IT_number 132
_symmetry_cell_setting 'tetragonal'
loop_
_space_group_symop_operation_xyz
x,y,z
-y,x,1/2+z
-x,-y,z
y,-x,1/2+z
x,-y,1/2-z
-x,y,1/2-z
y,x,-z
-y,-x,-z
-x,-y,-z
y,-x,1/2-z
x,y,-z
-y,x,1/2-z
-x,y,1/2+z
x,-y,1/2+z
-y,-x,z
y,x,z
loop_
_atom_site_type_symbol
_atom_site_label
_atom_site_fract_x
_atom_site_fract_y
_atom_site_fract_z
Si Si1 0.734789 0.889366 0.749027
Si Si2 0.814958 0.663013 0.130786
Si Si3 0.137259 0.287097 0.382655
Si Si4 0.954379 0.196202 0.430676
Si Si5 0.891331 0.510825 0.431244
O O1 0.835121 0.835121 0.756181
O O2 0.665295 0.858750 0.802745
O O3 0.683389 0.862836 0.686957
O O4 0.758651 0.000000 0.750000
O O5 0.707523 0.707523 0.130409
O O6 0.879912 0.721443 0.084972
O O7 0.818864 0.554073 0.107834
O O8 0.234459 0.234459 0.399505
O O9 0.135381 0.379265 0.423821
O O10 0.050333 0.213272 0.393726
O O11 0.979450 0.202921 0.500000
O O12 0.906712 0.093289 0.415140
O O13 0.881426 0.481321 0.500000
O O14 0.000000 0.500000 0.408702
#
# Coordination Sequence:
#
# PCOD8316567 Si02
#       5
#    16  16  16  16  16
#     4  10  19  33  52  76 109 146 180 220 267 317
#     4  10  20  35  55  80 106 135 181 232 271 313
#     4  11  23  36  52  79 113 145 179 222 274 329
#     4  10  19  32  51  74 105 144 180 217 262 315
#     4  11  21  35  56  80 106 142 183 224 274 327
#
# _framework density 18.137148
#
# number of rings (size 3 to 8) (size 9 to 14) (size 15 to 20)
#    0.000    1.600    4.000    1.200    0.000    4.200 
#    0.000    5.000    0.000    0.600    0.000    1.400 
#    0.000    4.800    0.000    0.000    0.000    0.000 
#
# Total GULP energy -991954.400578 kJ/mol
# GULP energy per Si atom -12399.430007 kJ/mol
# Density = 1.809587 g / cm^3
# Si number density = 18.137148 Si / 1000 Ang^3
#
#
#
# Elastic Constant Matrix: (Units=GPa)
#
#
# Indices 1 2 3 4 5 6 
#
# 1 73.9390 48.4921 33.3501 0.0000 0.0000 0.0000
# 2 48.4921 73.9390 33.3501 0.0000 0.0000 0.0000
# 3 33.3501 33.3501 92.5615 0.0000 0.0000 0.0000
# 4 0.0000 0.0000 0.0000 24.7066 0.0000 0.0000
# 5 0.0000 0.0000 0.0000 0.0000 24.7066 0.0000
# 6 0.0000 0.0000 0.0000 0.0000 0.0000 21.2912
#
#
#
# Elastic Compliance Matrix: (Units=1/GPa)
#
#
# Indices 1 2 3 4 5 6 
#
# 1 0.024730 -0.014567 -0.003662 0.000000 0.000000 0.000000
# 2 -0.014567 0.024730 -0.003662 0.000000 0.000000 0.000000
# 3 -0.003662 -0.003662 0.013442 0.000000 0.000000 0.000000
# 4 0.000000 0.000000 0.000000 0.040475 0.000000 0.000000
# 5 0.000000 0.000000 0.000000 0.000000 0.040475 0.000000
# 6 0.000000 0.000000 0.000000 0.000000 0.000000 0.046968
#
#
# Mechanical properties :
#
#
# Convention : Reuss Voigt Hill
#
# Bulk Modulus (GPa) = 52.29834 52.31379 52.30606
# Shear Modulus (GPa) = 20.74900 22.49068 21.61984
#
# Velocity S-wave (km/s) = 3.38598 3.52523 3.45631
# Velocity P-wave (km/s) = 6.64711 6.74357 6.69551
#
# Compressibility (1/GPa) = 0.01912107
#
# Stress axis : x y z
#
# Youngs Moduli (GPa) = 40.43653 40.43653 74.39243
#
# Poissons Ratio (x) = 0.58906 0.27240
# Poissons Ratio (y) = 0.58906 0.27240
# Poissons Ratio (z) = 0.14806 0.14806
#
# Static dielectric constant tensor:
#      x y z
#    x 3.172360 0.000000 0.000000 
#    y 0.000000 3.172360 0.000000 
#    z 0.000000 0.000000 3.548750 
# 
# 
# High freq. dielectric constant tensor:
#      x y z
#    x 1.676950 0.000000 0.000000 
#    y 0.000000 1.676950 0.000000 
#    z 0.000000 0.000000 1.721950 
# 
# From -- ./inp_files/7602.got.cif
#   From: 2010.03.12/outbox.cif.g09.slc.cpg/sg132_4_cif.got.tgz:7602.got - 2010.04.06 17:53:44.
