data_PCOD8316203
_publ_section_title
;
Structure prediction by ZEFSAII (Michael W. Deem and Ramdas Pophale) SiO2 
 PCOD8316203
Probable space group: P 42/M M C
;
_chemical_formula_sum "Si O2"
_cell_formula_units_Z 112
_cell_length_a 14.571270
_cell_length_b 14.571270
_cell_length_c 27.266637
_cell_angle_alpha 90.000000
_cell_angle_beta 90.000000
_cell_angle_gamma 90.000000
_cell_volume 5789.304431
_symmetry_space_group_name_H-M "P 42/M M C"
_symmetry_group_IT_number 131
_symmetry_cell_setting 'tetragonal'
loop_
_space_group_symop_operation_xyz
x,y,z
-x,-y,z
-y,x,1/2+z
y,-x,1/2+z
-x,y,-z
x,-y,-z
y,x,1/2-z
-y,-x,1/2-z
-x,-y,-z
x,y,-z
y,-x,1/2-z
-y,x,1/2-z
x,-y,z
-x,y,z
-y,-x,1/2+z
y,x,1/2+z
loop_
_atom_site_type_symbol
_atom_site_label
_atom_site_fract_x
_atom_site_fract_y
_atom_site_fract_z
Si Si1 0.897842 0.273414 0.619240
Si Si2 0.777202 0.810791 0.699111
Si Si3 0.293137 0.601567 0.101946
Si Si4 0.897094 0.141085 0.056313
Si Si5 0.099650 0.686152 0.114839
Si Si6 0.232376 0.394810 0.443177
Si Si7 0.398198 0.697575 0.710125
O O1 0.835634 0.263017 0.667805
O O2 0.908699 0.177543 0.590127
O O3 0.852110 0.351747 0.586163
O O4 0.000000 0.305565 0.634186
O O5 0.833154 0.833154 0.750000
O O6 0.753617 0.895254 0.662963
O O7 0.678333 0.774997 0.717723
O O8 0.306260 0.500000 0.079286
O O9 0.184008 0.616017 0.111774
O O10 0.337064 0.674819 0.065549
O O11 0.342881 0.609741 0.154815
O O12 0.894626 0.249993 0.066794
O O13 0.000000 0.102644 0.066992
O O14 0.870198 0.124324 0.000000
O O15 0.000000 0.635812 0.116427
O O16 0.207449 0.388209 0.500000
O O17 0.247012 0.500000 0.426804
O O18 0.382860 0.617141 0.750000
O O19 0.500000 0.739738 0.717852
#
# Coordination Sequence:
#
# PCOD8316203 Si02
#       7
#    16  16  16  16  16  16  16
#     4  11  22  38  59  85 115 150 193 241 291 341
#     4   9  18  36  55  81 118 156 189 229 281 338
#     4  10  20  37  58  84 118 153 189 232 287 348
#     4   9  17  31  54  82 111 144 184 232 285 338
#     4   9  17  31  54  84 116 154 193 231 279 340
#     4  11  24  42  61  82 113 152 196 245 296 351
#     4   9  17  31  53  81 110 142 182 229 280 334
#
# _framework density 19.346019999999999
#
# number of rings (size 3 to 8) (size 9 to 14) (size 15 to 20)
#    0.000    2.286    4.286    0.429    0.000    3.857 
#    0.000    3.571    0.000    0.000    0.000    7.000 
#    0.000    0.000    0.000    0.000    0.000    0.000 
#
# Total GULP energy -1387593.655553 kJ/mol
# GULP energy per Si atom -12389.229067 kJ/mol
# Density = 1.930199 g / cm^3
# Si number density = 19.346020 Si / 1000 Ang^3
#
#
#
# Elastic Constant Matrix: (Units=GPa)
#
#
# Indices 1 2 3 4 5 6 
#
# 1 105.4723 34.4353 27.7158 0.0000 0.0000 0.0000
# 2 34.4353 105.4723 27.7162 0.0000 0.0000 0.0000
# 3 27.7158 27.7162 82.7162 0.0000 0.0000 0.0000
# 4 0.0000 0.0000 0.0000 13.8356 0.0000 0.0000
# 5 0.0000 0.0000 0.0000 0.0000 13.8356 0.0000
# 6 0.0000 0.0000 0.0000 0.0000 0.0000 10.2467
#
#
#
# Elastic Compliance Matrix: (Units=1/GPa)
#
#
# Indices 1 2 3 4 5 6 
#
# 1 0.011159 -0.002918 -0.002762 0.000000 0.000000 0.000000
# 2 -0.002918 0.011159 -0.002762 0.000000 0.000000 0.000000
# 3 -0.002762 -0.002762 0.013940 0.000000 0.000000 0.000000
# 4 0.000000 0.000000 0.000000 0.072277 0.000000 0.000000
# 5 0.000000 0.000000 0.000000 0.000000 0.072277 0.000000
# 6 0.000000 0.000000 0.000000 0.000000 0.000000 0.097593
#
#
# Mechanical properties :
#
#
# Convention : Reuss Voigt Hill
#
# Bulk Modulus (GPa) = 51.60674 52.59949 52.10312
# Shear Modulus (GPa) = 16.57014 21.16979 18.86997
#
# Velocity S-wave (km/s) = 2.92980 3.31157 3.12652
# Velocity P-wave (km/s) = 6.17888 6.47069 6.32646
#
# Compressibility (1/GPa) = 0.01937731
#
# Stress axis : x y z
#
# Youngs Moduli (GPa) = 89.61024 89.61006 71.73502
#
# Poissons Ratio (x) = 0.26146 0.19810
# Poissons Ratio (y) = 0.26146 0.19810
# Poissons Ratio (z) = 0.24746 0.24747
#
# Static dielectric constant tensor:
#      x y z
#    x 3.418150 0.000000 0.000000 
#    y 0.000000 3.418150 0.000000 
#    z 0.000000 0.000000 3.760970 
# 
# 
# High freq. dielectric constant tensor:
#      x y z
#    x 1.735210 0.000000 0.000000 
#    y 0.000000 1.735210 0.000000 
#    z 0.000000 0.000000 1.755740 
# 
# From -- ./inp_files/12500.got.cif
#   From: 2010.03.12/outbox.cif.g09.slc.cpg/sg131_7_cif.got.tgz:12500.got - 2010.04.06 17:36:35.
