data_PCOD8316217
_publ_section_title
;
Structure prediction by ZEFSAII (Michael W. Deem and Ramdas Pophale) SiO2 
 PCOD8316217
Probable space group: P 42/M M C
;
_chemical_formula_sum "Si O2"
_cell_formula_units_Z 72
_cell_length_a 15.751733
_cell_length_b 15.751733
_cell_length_c 17.838089
_cell_angle_alpha 90.000000
_cell_angle_beta 90.000000
_cell_angle_gamma 90.000000
_cell_volume 4425.934778
_symmetry_space_group_name_H-M "P 42/M M C"
_symmetry_group_IT_number 131
_symmetry_cell_setting 'tetragonal'
loop_
_space_group_symop_operation_xyz
x,y,z
-x,-y,z
-y,x,1/2+z
y,-x,1/2+z
-x,y,-z
x,-y,-z
y,x,1/2-z
-y,-x,1/2-z
-x,-y,-z
x,y,-z
y,-x,1/2-z
-y,x,1/2-z
x,-y,z
-x,y,z
-y,-x,1/2+z
y,x,1/2+z
loop_
_atom_site_type_symbol
_atom_site_label
_atom_site_fract_x
_atom_site_fract_y
_atom_site_fract_z
Si Si1 0.641864 0.404792 0.168562
Si Si2 0.400053 0.901857 0.500000
Si Si3 0.760774 0.597723 0.582419
Si Si4 0.401831 0.162040 0.655568
Si Si5 0.905371 0.601042 0.690701
O O1 0.600045 0.399956 0.250000
O O2 0.624904 0.500000 0.136259
O O3 0.603253 0.334500 0.114115
O O4 0.740965 0.387068 0.176280
O O5 0.500000 0.883960 0.500000
O O6 0.358807 0.860708 0.424671
O O7 0.377597 0.000000 0.500000
O O8 0.763752 0.640969 0.500000
O O9 0.784392 0.500000 0.574301
O O10 0.833351 0.640054 0.635310
O O11 0.500000 0.137942 0.648209
O O12 0.362623 0.108820 0.725006
O O13 0.894673 0.500000 0.693538
O O14 0.000000 0.626907 0.663274
#
# Coordination Sequence:
#
# PCOD8316217 Si02
#       5
#    16   8  16  16  16
#     4  11  21  33  48  63  86 122 165 205 239 272
#     4   9  16  26  42  66  91 111 138 183 235 287
#     4  10  21  34  45  63  88 114 155 204 240 276
#     4   9  17  28  43  64  87 113 147 185 228 279
#     4   9  16  29  48  65  82 107 141 187 242 291
#
# _framework density 16.267749999999999
#
# number of rings (size 3 to 8) (size 9 to 14) (size 15 to 20)
#    0.000    2.333    2.222    1.333    1.556    5.111 
#    0.000    3.333    0.000    0.000    0.000    0.000 
#    0.000    0.000    0.000    0.000    0.000   20.000 
#
# Total GULP energy -892229.663075 kJ/mol
# GULP energy per Si atom -12392.078654 kJ/mol
# Density = 1.623072 g / cm^3
# Si number density = 16.267750 Si / 1000 Ang^3
#
#
#
# Elastic Constant Matrix: (Units=GPa)
#
#
# Indices 1 2 3 4 5 6 
#
# 1 59.8836 12.1336 35.5412 0.0000 0.0000 0.0000
# 2 12.1336 59.8822 35.5400 0.0000 0.0000 0.0000
# 3 35.5412 35.5400 136.7069 0.0000 0.0000 0.0000
# 4 0.0000 0.0000 0.0000 15.7468 0.0000 0.0000
# 5 0.0000 0.0000 0.0000 0.0000 15.7469 0.0000
# 6 0.0000 0.0000 0.0000 0.0000 0.0000 0.0471
#
#
#
# Elastic Compliance Matrix: (Units=1/GPa)
#
#
# Indices 1 2 3 4 5 6 
#
# 1 0.019811 -0.001132 -0.004856 0.000000 0.000000 0.000000
# 2 -0.001132 0.019811 -0.004856 0.000000 0.000000 0.000000
# 3 -0.004856 -0.004856 0.009840 0.000000 0.000000 0.000000
# 4 0.000000 0.000000 0.000000 0.063505 0.000000 0.000000
# 5 0.000000 0.000000 0.000000 0.000000 0.063505 0.000000
# 6 0.000000 0.000000 0.000000 0.000000 0.000000 21.220429
#
#
# Mechanical properties :
#
#
# Convention : Reuss Voigt Hill
#
# Bulk Modulus (GPa) = 36.00607 46.98913 41.49760
# Shear Modulus (GPa) = 0.23334 17.85868 9.04601
#
# Velocity S-wave (km/s) = 0.37914 3.31690 2.36067
# Velocity P-wave (km/s) = 4.73002 6.60429 5.74412
#
# Compressibility (1/GPa) = 0.02777310
#
# Stress axis : x y z
#
# Youngs Moduli (GPa) = 50.47820 50.47740 101.62789
#
# Poissons Ratio (x) = 0.05714 0.49351
# Poissons Ratio (y) = 0.05714 0.49350
# Poissons Ratio (z) = 0.24513 0.24512
#
# Static dielectric constant tensor:
#      x y z
#    x 2.843880 0.000000 0.000000 
#    y 0.000000 2.843870 0.000000 
#    z 0.000000 0.000000 3.511110 
# 
# 
# High freq. dielectric constant tensor:
#      x y z
#    x 1.580680 0.000000 0.000000 
#    y 0.000000 1.580680 0.000000 
#    z 0.000000 0.000000 1.646290 
# 
# From -- ./inp_files/7536.got.cif
#   From: 2010.03.12/outbox.cif.g09.slc.cpg/sg131_4_cif.got.tgz:7536.got - 2010.04.06 17:36:35.
