data_PCOD8316094
_publ_section_title
;
Structure prediction by ZEFSAII (Michael W. Deem and Ramdas Pophale) SiO2 
 PCOD8316094
Probable space group: P 42/M M C
;
_chemical_formula_sum "Si O2"
_cell_formula_units_Z 72
_cell_length_a 13.941935
_cell_length_b 13.941935
_cell_length_c 21.135980
_cell_angle_alpha 90.000000
_cell_angle_beta 90.000000
_cell_angle_gamma 90.000000
_cell_volume 4108.360042
_symmetry_space_group_name_H-M "P 42/M M C"
_symmetry_group_IT_number 131
_symmetry_cell_setting 'tetragonal'
loop_
_space_group_symop_operation_xyz
x,y,z
-x,-y,z
-y,x,1/2+z
y,-x,1/2+z
-x,y,-z
x,-y,-z
y,x,1/2-z
-y,-x,1/2-z
-x,-y,-z
x,y,-z
y,-x,1/2-z
-y,x,1/2-z
x,-y,z
-x,y,z
-y,-x,1/2+z
y,x,1/2+z
loop_
_atom_site_type_symbol
_atom_site_label
_atom_site_fract_x
_atom_site_fract_y
_atom_site_fract_z
Si Si1 0.113555 0.107583 0.930612
Si Si2 0.613484 0.893378 0.500000
Si Si3 0.198305 0.613386 0.869618
Si Si4 0.782365 0.113127 0.307258
Si Si5 0.387520 0.604072 0.679491
O O1 0.152218 0.170009 0.872280
O O2 0.000000 0.104004 0.926296
O O3 0.154934 0.000000 0.923916
O O4 0.143947 0.150127 0.000000
O O5 0.500000 0.900905 0.500000
O O6 0.648135 0.838751 0.437692
O O7 0.659385 0.000000 0.500000
O O8 0.183010 0.500000 0.857732
O O9 0.139241 0.669632 0.814925
O O10 0.310975 0.643135 0.867905
O O11 0.830058 0.169943 0.250000
O O12 0.796225 0.000000 0.295810
O O13 0.360636 0.639365 0.750000
O O14 0.339294 0.500000 0.662629
O O15 0.500000 0.589036 0.676332
#
# Coordination Sequence:
#
# PCOD8316094 Si02
#       5
#    16   8  16  16  16
#     4   8  15  29  48  68  91 123 161 197 239 296
#     4   9  18  32  47  65  94 132 169 206 253 311
#     4  10  20  33  50  73 101 134 171 209 256 318
#     4  11  22  33  49  73 102 132 167 212 261 306
#     4   8  14  27  48  71  96 128 164 203 249 301
#
# _framework density 17.52524
#
# number of rings (size 3 to 8) (size 9 to 14) (size 15 to 20)
#    0.000    2.778    0.000    3.333    1.556    2.444 
#    0.000    0.556    0.000    3.333    0.000    0.000 
#    0.000    0.000    0.000    7.111    0.000    0.444 
#
# Total GULP energy -892105.326805 kJ/mol
# GULP energy per Si atom -12390.351761 kJ/mol
# Density = 1.748535 g / cm^3
# Si number density = 17.525240 Si / 1000 Ang^3
#
#
#
# Elastic Constant Matrix: (Units=GPa)
#
#
# Indices 1 2 3 4 5 6 
#
# 1 76.4058 34.2914 59.3553 0.0000 0.0000 0.0000
# 2 34.2914 76.4055 59.3554 0.0000 0.0000 0.0000
# 3 59.3553 59.3554 128.4084 0.0000 0.0000 0.0000
# 4 0.0000 0.0000 0.0000 33.4295 0.0000 0.0000
# 5 0.0000 0.0000 0.0000 0.0000 33.4711 0.0000
# 6 0.0000 0.0000 0.0000 0.0000 0.0000 15.5044
#
#
#
# Elastic Compliance Matrix: (Units=1/GPa)
#
#
# Indices 1 2 3 4 5 6 
#
# 1 0.020829 -0.002916 -0.008280 0.000000 0.000000 0.000000
# 2 -0.002916 0.020829 -0.008280 0.000000 0.000000 0.000000
# 3 -0.008280 -0.008280 0.015443 0.000000 0.000000 0.000000
# 4 0.000000 0.000000 0.000000 0.029914 0.000000 0.000000
# 5 0.000000 0.000000 0.000000 0.000000 0.029877 0.000000
# 6 0.000000 0.000000 0.000000 0.000000 0.000000 0.064498
#
#
# Mechanical properties :
#
#
# Convention : Reuss Voigt Hill
#
# Bulk Modulus (GPa) = 55.10170 65.24710 60.17440
# Shear Modulus (GPa) = 22.08568 25.02882 23.55725
#
# Velocity S-wave (km/s) = 3.55381 3.78320 3.67030
# Velocity P-wave (km/s) = 6.95335 7.50964 7.23684
#
# Compressibility (1/GPa) = 0.01814826
#
# Stress axis : x y z
#
# Youngs Moduli (GPa) = 48.00985 48.00944 64.75620
#
# Poissons Ratio (x) = 0.13999 0.53619
# Poissons Ratio (y) = 0.13999 0.53620
# Poissons Ratio (z) = 0.39753 0.39753
#
# Static dielectric constant tensor:
#      x y z
#    x 5.459530 0.000000 0.000000 
#    y 0.000000 5.465310 0.000000 
#    z 0.000000 0.000000 3.555240 
# 
# 
# High freq. dielectric constant tensor:
#      x y z
#    x 1.660910 0.000000 0.000000 
#    y 0.000000 1.660910 0.000000 
#    z 0.000000 0.000000 1.670570 
# 
# From -- ./inp_files/7562.got.cif
#   From: 2010.03.12/outbox.cif.g09.slc.cpg/sg131_4_cif.got.tgz:7562.got - 2010.04.06 17:36:35.
