data_PCOD8316748
_publ_section_title
;
Structure prediction by ZEFSAII (Michael W. Deem and Ramdas Pophale) SiO2 
 PCOD8316748
Probable space group: P 42/M C M
;
_chemical_formula_sum "Si O2"
_cell_formula_units_Z 58
_cell_length_a 17.667365
_cell_length_b 17.667365
_cell_length_c 9.997953
_cell_angle_alpha 90.000000
_cell_angle_beta 90.000000
_cell_angle_gamma 90.000000
_cell_volume 3120.718918
_symmetry_space_group_name_H-M "P 42/M C M"
_symmetry_group_IT_number 132
_symmetry_cell_setting 'tetragonal'
loop_
_space_group_symop_operation_xyz
x,y,z
-y,x,1/2+z
-x,-y,z
y,-x,1/2+z
x,-y,1/2-z
-x,y,1/2-z
y,x,-z
-y,-x,-z
-x,-y,-z
y,-x,1/2-z
x,y,-z
-y,x,1/2-z
-x,y,1/2+z
x,-y,1/2+z
-y,-x,z
y,x,z
loop_
_atom_site_type_symbol
_atom_site_label
_atom_site_fract_x
_atom_site_fract_y
_atom_site_fract_z
Si Si1 0.500000 0.500000 0.750000
Si Si2 0.432959 0.778151 0.343649
Si Si3 0.773359 0.100735 0.000000
Si Si4 0.808673 0.929088 0.000000
Si Si5 0.616406 0.383595 0.651558
Si Si6 0.154462 0.277754 0.227364
O O1 0.552269 0.447732 0.657632
O O2 0.500000 0.809814 0.250000
O O3 0.457597 0.775950 0.500000
O O4 0.412429 0.694817 0.284277
O O5 0.362249 0.833768 0.325682
O O6 0.720231 0.115373 0.127681
O O7 0.843352 0.156649 0.000000
O O8 0.812252 0.018994 0.000000
O O9 0.764685 0.902861 0.869117
O O10 0.893360 0.893360 0.000000
O O11 0.636113 0.363888 0.500000
O O12 0.235365 0.235365 0.229794
#
# Coordination Sequence:
#
# PCOD8316748 Si02
#       6
#     2  16   8   8   8  16
#     4  12  18  36  44  82 116 156 170 240 330 372
#     4  11  22  37  57  83 112 153 201 249 291 340
#     4  10  22  37  59  95 127 149 187 241 293 347
#     4  10  20  37  65  91 117 161 193 225 289 359
#     4  10  21  33  51  74 113 151 189 233 291 362
#     4  10  20  37  60  85 118 159 202 240 284 351
#
# _framework density 18.585459
#
# number of rings (size 3 to 8) (size 9 to 14) (size 15 to 20)
#    0.000    1.655    4.138    1.034    1.931    0.276 
#    0.000    0.690    0.000    9.931    0.000    0.000 
#    0.000    0.000    0.000    0.000    0.000    0.000 
#
# Total GULP energy -719265.976985 kJ/mol
# GULP energy per Si atom -12401.137534 kJ/mol
# Density = 1.854316 g / cm^3
# Si number density = 18.585459 Si / 1000 Ang^3
#
#
#
# Elastic Constant Matrix: (Units=GPa)
#
#
# Indices 1 2 3 4 5 6 
#
# 1 77.9565 15.2528 22.3957 0.0000 0.0000 0.0000
# 2 15.2528 77.9564 22.3958 0.0000 0.0000 0.0000
# 3 22.3957 22.3958 119.6091 0.0000 0.0000 0.0000
# 4 0.0000 0.0000 0.0000 18.0298 0.0000 0.0000
# 5 0.0000 0.0000 0.0000 0.0000 18.0289 0.0000
# 6 0.0000 0.0000 0.0000 0.0000 0.0000 15.0961
#
#
#
# Elastic Compliance Matrix: (Units=1/GPa)
#
#
# Indices 1 2 3 4 5 6 
#
# 1 0.013869 -0.002079 -0.002207 0.000000 0.000000 0.000000
# 2 -0.002079 0.013869 -0.002207 0.000000 0.000000 0.000000
# 3 -0.002207 -0.002207 0.009187 0.000000 0.000000 0.000000
# 4 0.000000 0.000000 0.000000 0.055464 0.000000 0.000000
# 5 0.000000 0.000000 0.000000 0.000000 0.055466 0.000000
# 6 0.000000 0.000000 0.000000 0.000000 0.000000 0.066242
#
#
# Mechanical properties :
#
#
# Convention : Reuss Voigt Hill
#
# Bulk Modulus (GPa) = 41.77790 43.95672 42.86731
# Shear Modulus (GPa) = 21.27078 24.59614 22.93346
#
# Velocity S-wave (km/s) = 3.38669 3.64181 3.51657
# Velocity P-wave (km/s) = 6.14984 6.43321 6.29312
#
# Compressibility (1/GPa) = 0.02393610
#
# Stress axis : x y z
#
# Youngs Moduli (GPa) = 72.10493 72.10483 108.84686
#
# Poissons Ratio (x) = 0.14993 0.24027
# Poissons Ratio (y) = 0.14993 0.24027
# Poissons Ratio (z) = 0.15917 0.15917
#
# Static dielectric constant tensor:
#      x y z
#    x 3.241720 0.000000 0.000000 
#    y 0.000000 3.241720 0.000000 
#    z 0.000000 0.000000 3.538620 
# 
# 
# High freq. dielectric constant tensor:
#      x y z
#    x 1.707360 0.000000 0.000000 
#    y 0.000000 1.707360 0.000000 
#    z 0.000000 0.000000 1.727570 
# 
# From -- ./inp_files/1050.got.cif
#   From: 2010.03.12/outbox.cif.g09.slc.cpg/sg132_1_cif.got.tgz:1050.got - 2010.04.06 17:53:44.
