data_PCOD8316270
_publ_section_title
;
Structure prediction by ZEFSAII (Michael W. Deem and Ramdas Pophale) SiO2 
 PCOD8316270
Probable space group: P 42/M M C
;
_chemical_formula_sum "Si O2"
_cell_formula_units_Z 96
_cell_length_a 24.184304
_cell_length_b 24.184304
_cell_length_c 8.637557
_cell_angle_alpha 90.000000
_cell_angle_beta 90.000000
_cell_angle_gamma 90.000000
_cell_volume 5051.939175
_symmetry_space_group_name_H-M "P 42/M M C"
_symmetry_group_IT_number 131
_symmetry_cell_setting 'tetragonal'
loop_
_space_group_symop_operation_xyz
x,y,z
-x,-y,z
-y,x,1/2+z
y,-x,1/2+z
-x,y,-z
x,-y,-z
y,x,1/2-z
-y,-x,1/2-z
-x,-y,-z
x,y,-z
y,-x,1/2-z
-y,x,1/2-z
x,-y,z
-x,y,z
-y,-x,1/2+z
y,x,1/2+z
loop_
_atom_site_type_symbol
_atom_site_label
_atom_site_fract_x
_atom_site_fract_y
_atom_site_fract_z
Si Si1 0.061852 0.434904 0.823951
Si Si2 0.647924 0.731755 0.316795
Si Si3 0.938993 0.268294 0.684105
Si Si4 0.646993 0.436090 0.683328
Si Si5 0.853243 0.357334 0.318364
Si Si6 0.938944 0.145508 0.317730
O O1 0.066780 0.500000 0.813359
O O2 0.110374 0.411624 0.715072
O O3 0.000000 0.416668 0.768301
O O4 0.071337 0.414917 0.000000
O O5 0.703728 0.703728 0.250000
O O6 0.649200 0.725894 0.500000
O O7 0.593877 0.700811 0.252158
O O8 0.643670 0.795631 0.271208
O O9 0.938944 0.269624 0.500000
O O10 0.890600 0.307214 0.747880
O O11 0.926635 0.206819 0.745779
O O12 0.000000 0.287423 0.742912
O O13 0.591239 0.408762 0.750000
O O14 0.647613 0.428967 0.500000
O O15 0.648362 0.500000 0.733387
O O16 0.840829 0.352941 0.500000
O O17 0.895190 0.104811 0.250000
O O18 0.934367 0.145329 0.500000
O O19 0.000000 0.126622 0.264991
#
# Coordination Sequence:
#
# PCOD8316270 Si02
#       6
#    16  16  16  16  16  16
#     4   9  19  36  55  77 110 148 183 224 274 322
#     4  11  23  40  59  79 109 146 183 225 273 323
#     4   8  16  32  52  74 101 133 169 214 267 315
#     4  10  21  38  61  88 117 148 183 223 265 311
#     4  11  21  34  56  83 108 138 180 225 270 327
#     4   9  18  33  51  71  98 130 164 204 251 305
#
# _framework density 19.002604999999999
#
# number of rings (size 3 to 8) (size 9 to 14) (size 15 to 20)
#    0.000    2.333    0.000    5.500    0.000    4.667 
#    0.000    5.833    0.000    2.000    0.000    0.000 
#    0.000    0.000    0.000    0.000    0.000    0.000 
#
# Total GULP energy -1190105.189694 kJ/mol
# GULP energy per Si atom -12396.929059 kJ/mol
# Density = 1.895935 g / cm^3
# Si number density = 19.002605 Si / 1000 Ang^3
#
#
#
# Elastic Constant Matrix: (Units=GPa)
#
#
# Indices 1 2 3 4 5 6 
#
# 1 143.1396 75.9989 39.6295 0.0000 0.0000 0.0000
# 2 75.9989 143.1354 39.6312 0.0000 0.0000 0.0000
# 3 39.6295 39.6312 68.0822 0.0000 0.0000 0.0000
# 4 0.0000 0.0000 0.0000 24.6546 0.0000 0.0000
# 5 0.0000 0.0000 0.0000 0.0000 24.6528 0.0000
# 6 0.0000 0.0000 0.0000 0.0000 0.0000 33.2478
#
#
#
# Elastic Compliance Matrix: (Units=1/GPa)
#
#
# Indices 1 2 3 4 5 6 
#
# 1 0.010337 -0.004557 -0.003364 0.000000 0.000000 0.000000
# 2 -0.004557 0.010338 -0.003365 0.000000 0.000000 0.000000
# 3 -0.003364 -0.003365 0.018605 0.000000 0.000000 0.000000
# 4 0.000000 0.000000 0.000000 0.040560 0.000000 0.000000
# 5 0.000000 0.000000 0.000000 0.000000 0.040563 0.000000
# 6 0.000000 0.000000 0.000000 0.000000 0.000000 0.030077
#
#
# Mechanical properties :
#
#
# Convention : Reuss Voigt Hill
#
# Bulk Modulus (GPa) = 59.85464 73.87516 66.86490
# Shear Modulus (GPa) = 27.99185 29.78420 28.88803
#
# Velocity S-wave (km/s) = 3.84220 3.96330 3.90322
# Velocity P-wave (km/s) = 7.15890 7.73980 7.45501
#
# Compressibility (1/GPa) = 0.01670714
#
# Stress axis : x y z
#
# Youngs Moduli (GPa) = 96.73798 96.73300 53.74802
#
# Poissons Ratio (x) = 0.44082 0.18083
# Poissons Ratio (y) = 0.44084 0.18087
# Poissons Ratio (z) = 0.32547 0.32551
#
# Static dielectric constant tensor:
#      x y z
#    x 3.511650 0.000000 0.000000 
#    y 0.000000 3.511680 0.000000 
#    z 0.000000 0.000000 3.455550 
# 
# 
# High freq. dielectric constant tensor:
#      x y z
#    x 1.744080 0.000000 0.000000 
#    y 0.000000 1.744080 0.000000 
#    z 0.000000 0.000000 1.728350 
# 
# From -- ./inp_files/2275.got.cif
#   From: 2010.03.12/outbox.cif.g09.slc.cpg/sg131_2_cif.got.tgz:2275.got - 2010.04.06 17:36:35.
