data_PCOD8316003
_publ_section_title
;
Structure prediction by ZEFSAII (Michael W. Deem and Ramdas Pophale) SiO2 
 PCOD8316003
Probable space group: P 42/M M C
;
_chemical_formula_sum "Si O2"
_cell_formula_units_Z 50
_cell_length_a 8.018575
_cell_length_b 8.018575
_cell_length_c 37.204153
_cell_angle_alpha 90.000000
_cell_angle_beta 90.000000
_cell_angle_gamma 90.000000
_cell_volume 2392.135703
_symmetry_space_group_name_H-M "P 42/M M C"
_symmetry_group_IT_number 131
_symmetry_cell_setting 'tetragonal'
loop_
_space_group_symop_operation_xyz
x,y,z
-x,-y,z
-y,x,1/2+z
y,-x,1/2+z
-x,y,-z
x,-y,-z
y,x,1/2-z
-y,-x,1/2-z
-x,-y,-z
x,y,-z
y,-x,1/2-z
-y,x,1/2-z
x,-y,z
-x,y,z
-y,-x,1/2+z
y,x,1/2+z
loop_
_atom_site_type_symbol
_atom_site_label
_atom_site_fract_x
_atom_site_fract_y
_atom_site_fract_z
Si Si1 0.317437 0.302732 0.852494
Si Si2 0.307546 0.180698 0.000000
Si Si3 0.182160 0.693999 0.926088
Si Si4 0.000000 0.000000 0.750000
Si Si5 0.300044 0.000000 0.695317
O O1 0.323956 0.500000 0.853805
O O2 0.500000 0.235403 0.839263
O O3 0.287220 0.230035 0.892816
O O4 0.166177 0.249447 0.826700
O O5 0.264743 0.282543 0.035441
O O6 0.500000 0.149137 0.000000
O O7 0.216553 0.000000 0.000000
O O8 0.163320 0.500000 0.918786
O O9 0.000000 0.778585 0.926130
O O10 0.824084 0.000000 0.728930
O O11 0.500000 0.000000 0.705419
#
# Coordination Sequence:
#
# PCOD8316003 Si02
#       5
#    16   8  16   2   8
#     4   9  17  34  63  92 119 158 203 250 305 357
#     4  11  24  37  46  70 114 159 206 258 307 361
#     4  10  19  34  57  83 111 150 203 257 306 359
#     4  12  28  44  68 104 128 170 204 232 312 376
#     4  10  22  44  66  93 133 161 199 254 293 364
#
# _framework density 20.901823
#
# number of rings (size 3 to 8) (size 9 to 14) (size 15 to 20)
#    0.000    2.080    1.600    1.920    0.000    6.400 
#    2.880    0.000    0.000    0.000    0.000    0.000 
#    0.000    0.000    0.000    0.000    0.000    0.000 
#
# Total GULP energy -619408.985118 kJ/mol
# GULP energy per Si atom -12388.179702 kJ/mol
# Density = 2.085425 g / cm^3
# Si number density = 20.901823 Si / 1000 Ang^3
#
#
#
# Elastic Constant Matrix: (Units=GPa)
#
#
# Indices 1 2 3 4 5 6 
#
# 1 109.3408 26.4798 54.7184 0.0000 0.0000 0.0000
# 2 26.4798 109.3408 54.7184 0.0000 0.0000 0.0000
# 3 54.7184 54.7184 145.9694 0.0000 0.0000 0.0000
# 4 0.0000 0.0000 0.0000 7.2344 0.0000 0.0000
# 5 0.0000 0.0000 0.0000 0.0000 7.2344 0.0000
# 6 0.0000 0.0000 0.0000 0.0000 0.0000 9.2665
#
#
#
# Elastic Compliance Matrix: (Units=1/GPa)
#
#
# Indices 1 2 3 4 5 6 
#
# 1 0.011309 -0.000760 -0.003954 0.000000 0.000000 0.000000
# 2 -0.000760 0.011309 -0.003954 0.000000 0.000000 0.000000
# 3 -0.003954 -0.003954 0.009815 0.000000 0.000000 0.000000
# 4 0.000000 0.000000 0.000000 0.138229 0.000000 0.000000
# 5 0.000000 0.000000 0.000000 0.000000 0.138229 0.000000
# 6 0.000000 0.000000 0.000000 0.000000 0.000000 0.107915
#
#
# Mechanical properties :
#
#
# Convention : Reuss Voigt Hill
#
# Bulk Modulus (GPa) = 66.24408 70.72047 68.48227
# Shear Modulus (GPa) = 11.38499 19.99602 15.69050
#
# Velocity S-wave (km/s) = 2.33639 3.09635 2.74282
# Velocity P-wave (km/s) = 6.24820 6.83310 6.54719
#
# Compressibility (1/GPa) = 0.01509569
#
# Stress axis : x y z
#
# Youngs Moduli (GPa) = 88.42801 88.42801 101.88030
#
# Poissons Ratio (x) = 0.06718 0.40287
# Poissons Ratio (y) = 0.06718 0.40287
# Poissons Ratio (z) = 0.34968 0.34968
#
# Static dielectric constant tensor:
#      x y z
#    x 4.008840 0.000000 0.000000 
#    y 0.000000 4.008840 0.000000 
#    z 0.000000 0.000000 4.255010 
# 
# 
# High freq. dielectric constant tensor:
#      x y z
#    x 1.812940 0.000000 0.000000 
#    y 0.000000 1.812940 0.000000 
#    z 0.000000 0.000000 1.806450 
# 
# From -- ./inp_files/12992.got.cif
#   From: 2010.03.12/outbox.cif.g09.slc.cpg/sg131_7_cif.got.tgz:12992.got - 2010.04.06 17:36:35.
