data_PCOD8316773
_publ_section_title
;
Structure prediction by ZEFSAII (Michael W. Deem and Ramdas Pophale) SiO2 
 PCOD8316773
Probable space group: P 42/M C M
;
_chemical_formula_sum "Si O2"
_cell_formula_units_Z 72
_cell_length_a 12.370343
_cell_length_b 12.370343
_cell_length_c 25.618912
_cell_angle_alpha 90.000000
_cell_angle_beta 90.000000
_cell_angle_gamma 90.000000
_cell_volume 3920.343896
_symmetry_space_group_name_H-M "P 42/M C M"
_symmetry_group_IT_number 132
_symmetry_cell_setting 'tetragonal'
loop_
_space_group_symop_operation_xyz
x,y,z
-y,x,1/2+z
-x,-y,z
y,-x,1/2+z
x,-y,1/2-z
-x,y,1/2-z
y,x,-z
-y,-x,-z
-x,-y,-z
y,-x,1/2-z
x,y,-z
-y,x,1/2-z
-x,y,1/2+z
x,-y,1/2+z
-y,-x,z
y,x,z
loop_
_atom_site_type_symbol
_atom_site_label
_atom_site_fract_x
_atom_site_fract_y
_atom_site_fract_z
Si Si1 0.582092 0.903518 0.941915
Si Si2 0.273488 0.103054 0.155166
Si Si3 0.676076 0.495979 0.092076
Si Si4 0.000000 0.821054 0.750000
Si Si5 0.439752 0.270988 0.200516
O O1 0.676268 0.930154 0.900363
O O2 0.518431 0.789204 0.936701
O O3 0.500000 0.000000 0.933982
O O4 0.633010 0.906105 0.000000
O O5 0.160050 0.160050 0.142345
O O6 0.355101 0.183637 0.182218
O O7 0.251727 0.006763 0.197052
O O8 0.611517 0.388484 0.071785
O O9 0.601968 0.601968 0.083742
O O10 0.700696 0.479002 0.153373
O O11 0.107569 0.892432 0.755384
O O12 0.500000 0.220994 0.250000
O O13 0.379718 0.379718 0.218905
#
# Coordination Sequence:
#
# PCOD8316773 Si02
#       5
#    16  16  16   8  16
#     4  10  21  36  52  73 104 140 175 212 258 311
#     4   9  19  34  51  73  98 129 171 212 256 312
#     4   9  18  32  51  76 103 134 176 220 260 307
#     4   9  18  34  55  76  98 124 161 216 272 317
#     4   9  16  26  42  67 101 135 163 197 247 308
#
# _framework density 18.365735999999998
#
# number of rings (size 3 to 8) (size 9 to 14) (size 15 to 20)
#    0.000    2.778    0.000    2.667    0.000    6.889 
#    0.000    4.444    0.000    2.000    0.000    3.111 
#    0.000    0.000    0.000    0.000    0.000    0.000 
#
# Total GULP energy -892103.492103 kJ/mol
# GULP energy per Si atom -12390.326279 kJ/mol
# Density = 1.832393 g / cm^3
# Si number density = 18.365736 Si / 1000 Ang^3
#
#
#
# Elastic Constant Matrix: (Units=GPa)
#
#
# Indices 1 2 3 4 5 6 
#
# 1 71.7279 27.6491 48.6232 0.0000 0.0000 0.0000
# 2 27.6491 71.7279 48.6232 0.0000 0.0000 0.0000
# 3 48.6232 48.6232 156.5502 0.0000 0.0000 0.0000
# 4 0.0000 0.0000 0.0000 19.2487 0.0000 0.0000
# 5 0.0000 0.0000 0.0000 0.0000 19.2487 0.0000
# 6 0.0000 0.0000 0.0000 0.0000 0.0000 10.3611
#
#
#
# Elastic Compliance Matrix: (Units=1/GPa)
#
#
# Indices 1 2 3 4 5 6 
#
# 1 0.018572 -0.004115 -0.004490 0.000000 0.000000 0.000000
# 2 -0.004115 0.018572 -0.004490 0.000000 0.000000 0.000000
# 3 -0.004490 -0.004490 0.009177 0.000000 0.000000 0.000000
# 4 0.000000 0.000000 0.000000 0.051951 0.000000 0.000000
# 5 0.000000 0.000000 0.000000 0.000000 0.051951 0.000000
# 6 0.000000 0.000000 0.000000 0.000000 0.000000 0.096515
#
#
# Mechanical properties :
#
#
# Convention : Reuss Voigt Hill
#
# Bulk Modulus (GPa) = 49.67806 61.08855 55.38330
# Shear Modulus (GPa) = 17.88025 21.44575 19.66300
#
# Velocity S-wave (km/s) = 3.12359 3.42088 3.27561
# Velocity P-wave (km/s) = 6.33381 6.99554 6.67288
#
# Compressibility (1/GPa) = 0.02012961
#
# Stress axis : x y z
#
# Youngs Moduli (GPa) = 53.84574 53.84574 108.96940
#
# Poissons Ratio (x) = 0.22158 0.48928
# Poissons Ratio (y) = 0.22158 0.48928
# Poissons Ratio (z) = 0.24177 0.24177
#
# Static dielectric constant tensor:
#      x y z
#    x 3.391270 0.000000 0.000000 
#    y 0.000000 3.391270 0.000000 
#    z 0.000000 0.000000 3.585270 
# 
# 
# High freq. dielectric constant tensor:
#      x y z
#    x 1.695550 0.000000 0.000000 
#    y 0.000000 1.695550 0.000000 
#    z 0.000000 0.000000 1.718500 
# 
# From -- ./inp_files/9743.got.cif
#   From: 2010.03.12/outbox.cif.g09.slc.cpg/sg132_5_cif.got.tgz:9743.got - 2010.04.06 17:53:44.
