data_PCOD8316334
_publ_section_title
;
Structure prediction by ZEFSAII (Michael W. Deem and Ramdas Pophale) SiO2 
 PCOD8316334
Probable space group: P 42/M M C
;
_chemical_formula_sum "Si O2"
_cell_formula_units_Z 34
_cell_length_a 7.823227
_cell_length_b 7.823227
_cell_length_c 26.233205
_cell_angle_alpha 90.000000
_cell_angle_beta 90.000000
_cell_angle_gamma 90.000000
_cell_volume 1605.547716
_symmetry_space_group_name_H-M "P 42/M M C"
_symmetry_group_IT_number 131
_symmetry_cell_setting 'tetragonal'
loop_
_space_group_symop_operation_xyz
x,y,z
-x,-y,z
-y,x,1/2+z
y,-x,1/2+z
-x,y,-z
x,-y,-z
y,x,1/2-z
-y,-x,1/2-z
-x,-y,-z
x,y,-z
y,-x,1/2-z
-y,x,1/2-z
x,-y,z
-x,y,z
-y,-x,1/2+z
y,x,1/2+z
loop_
_atom_site_type_symbol
_atom_site_label
_atom_site_fract_x
_atom_site_fract_y
_atom_site_fract_z
Si Si1 0.000000 0.000000 0.750000
Si Si2 0.803035 0.298228 0.000000
Si Si3 0.803807 0.308249 0.391082
Si Si4 0.000000 0.312736 0.825995
O O1 0.000000 0.170637 0.782942
O O2 0.710837 0.219813 0.951247
O O3 0.781087 0.500000 0.000000
O O4 0.000000 0.242462 0.000000
O O5 0.746561 0.500000 0.375153
O O6 0.694821 0.168241 0.361080
O O7 0.000000 0.277394 0.376468
O O8 0.000000 0.500000 0.799868
#
# Coordination Sequence:
#
# PCOD8316334 Si02
#       4
#     2   8  16   8
#     4  12  28  52  72 102 132 168 212 292 348 406
#     4  11  22  35  58  97 142 185 226 267 318 385
#     4  11  23  41  67 100 138 182 226 270 325 393
#     4  12  26  47  75 101 130 173 221 276 344 404
#
# _framework density 21.176572
#
# number of rings (size 3 to 8) (size 9 to 14) (size 15 to 20)
#    0.000    0.706    4.706    2.824    0.000    9.412 
#    0.000    0.000    0.000    0.000    0.000    0.000 
#    0.000    0.000    0.000    0.000    0.000    0.000 
#
# Total GULP energy -421750.068489 kJ/mol
# GULP energy per Si atom -12404.413779 kJ/mol
# Density = 2.112837 g / cm^3
# Si number density = 21.176572 Si / 1000 Ang^3
#
#
#
# Elastic Constant Matrix: (Units=GPa)
#
#
# Indices 1 2 3 4 5 6 
#
# 1 145.3643 55.6958 42.5302 0.0000 0.0000 0.0000
# 2 55.6958 145.3643 42.5302 0.0000 0.0000 0.0000
# 3 42.5302 42.5302 104.4838 0.0000 0.0000 0.0000
# 4 0.0000 0.0000 0.0000 71.9895 0.0000 0.0000
# 5 0.0000 0.0000 0.0000 0.0000 71.9895 0.0000
# 6 0.0000 0.0000 0.0000 0.0000 0.0000 9.0436
#
#
#
# Elastic Compliance Matrix: (Units=1/GPa)
#
#
# Indices 1 2 3 4 5 6 
#
# 1 0.008580 -0.002572 -0.002446 0.000000 0.000000 0.000000
# 2 -0.002572 0.008580 -0.002446 0.000000 0.000000 0.000000
# 3 -0.002446 -0.002446 0.011562 0.000000 0.000000 0.000000
# 4 0.000000 0.000000 0.000000 0.013891 0.000000 0.000000
# 5 0.000000 0.000000 0.000000 0.000000 0.013891 0.000000
# 6 0.000000 0.000000 0.000000 0.000000 0.000000 0.110576
#
#
# Mechanical properties :
#
#
# Convention : Reuss Voigt Hill
#
# Bulk Modulus (GPa) = 72.48599 75.19166 73.83883
# Shear Modulus (GPa) = 26.79451 47.56826 37.18138
#
# Velocity S-wave (km/s) = 3.56095 4.74462 4.19475
# Velocity P-wave (km/s) = 7.15617 8.09934 7.64232
#
# Compressibility (1/GPa) = 0.01379577
#
# Stress axis : x y z
#
# Youngs Moduli (GPa) = 116.54678 116.54678 86.49095
#
# Poissons Ratio (x) = 0.29975 0.21153
# Poissons Ratio (y) = 0.29975 0.21153
# Poissons Ratio (z) = 0.28504 0.28504
#
# Static dielectric constant tensor:
#      x y z
#    x 3.967970 0.000000 0.000000 
#    y 0.000000 3.967970 0.000000 
#    z 0.000000 0.000000 3.595240 
# 
# 
# High freq. dielectric constant tensor:
#      x y z
#    x 1.845020 0.000000 0.000000 
#    y 0.000000 1.845020 0.000000 
#    z 0.000000 0.000000 1.808500 
# 
# From -- ./inp_files/8685.got.cif
#   From: 2010.03.12/outbox.cif.g09.slc.cpg/sg131_5_cif.got.tgz:8685.got - 2010.04.06 17:36:35.
