data_PCOD8316362
_publ_section_title
;
Structure prediction by ZEFSAII (Michael W. Deem and Ramdas Pophale) SiO2 
 PCOD8316362
Probable space group: P 42/M M C
;
_chemical_formula_sum "Si O2"
_cell_formula_units_Z 72
_cell_length_a 17.614499
_cell_length_b 17.614499
_cell_length_c 14.415743
_cell_angle_alpha 90.000000
_cell_angle_beta 90.000000
_cell_angle_gamma 90.000000
_cell_volume 4472.780870
_symmetry_space_group_name_H-M "P 42/M M C"
_symmetry_group_IT_number 131
_symmetry_cell_setting 'tetragonal'
loop_
_space_group_symop_operation_xyz
x,y,z
-x,-y,z
-y,x,1/2+z
y,-x,1/2+z
-x,y,-z
x,-y,-z
y,x,1/2-z
-y,-x,1/2-z
-x,-y,-z
x,y,-z
y,-x,1/2-z
-y,x,1/2-z
x,-y,z
-x,y,z
-y,-x,1/2+z
y,x,1/2+z
loop_
_atom_site_type_symbol
_atom_site_label
_atom_site_fract_x
_atom_site_fract_y
_atom_site_fract_z
Si Si1 0.662552 0.414265 0.111087
Si Si2 0.409199 0.500000 0.602985
Si Si3 0.356724 0.820852 0.389614
Si Si4 0.500000 0.914099 0.389298
Si Si5 0.786893 0.912574 0.393204
Si Si6 0.913901 0.086100 0.250000
O O1 0.677909 0.500000 0.145566
O O2 0.580289 0.383897 0.151412
O O3 0.733145 0.362475 0.144939
O O4 0.657075 0.414181 0.000000
O O5 0.500000 0.500000 0.598965
O O6 0.374641 0.500000 0.500000
O O7 0.359358 0.823892 0.500000
O O8 0.426489 0.870246 0.350324
O O9 0.279284 0.858530 0.353361
O O10 0.500000 0.914471 0.500000
O O11 0.500000 0.000000 0.350850
O O12 0.804310 0.894728 0.500000
O O13 0.862760 0.892806 0.337765
O O14 0.761604 0.000000 0.380231
O O15 0.000000 0.099643 0.282565
#
# Coordination Sequence:
#
# PCOD8316362 Si02
#       6
#    16   8  16   8  16   8
#     4   8  11  16  25  41  68 103 138 168 198 235
#     4   7  10  14  22  36  59  94 133 171 205 228
#     4   9  14  20  31  50  78 109 137 163 194 237
#     4   9  14  18  26  43  72 109 140 159 182 228
#     4   9  17  28  42  62  86 109 134 165 202 244
#     4   9  18  32  48  64  82 106 135 166 202 244
#
# _framework density 16.097369
#
# number of rings (size 3 to 8) (size 9 to 14) (size 15 to 20)
#    0.000    3.444    1.111    2.000    0.000    3.111 
#    0.000    2.222    0.000    0.000    0.000    1.556 
#    0.000    0.000    0.000    0.000    0.000   30.222 
#
# Total GULP energy -891981.082333 kJ/mol
# GULP energy per Si atom -12388.626144 kJ/mol
# Density = 1.606073 g / cm^3
# Si number density = 16.097369 Si / 1000 Ang^3
#
#
#
# Elastic Constant Matrix: (Units=GPa)
#
#
# Indices 1 2 3 4 5 6 
#
# 1 128.3360 72.3471 26.8792 0.0000 0.0000 0.0000
# 2 72.3471 128.3347 26.8797 0.0000 0.0000 0.0000
# 3 26.8792 26.8797 18.7761 0.0000 0.0000 0.0000
# 4 0.0000 0.0000 0.0000 7.2072 0.0000 0.0000
# 5 0.0000 0.0000 0.0000 0.0000 7.2072 0.0000
# 6 0.0000 0.0000 0.0000 0.0000 0.0000 22.7145
#
#
#
# Elastic Compliance Matrix: (Units=1/GPa)
#
#
# Indices 1 2 3 4 5 6 
#
# 1 0.012972 -0.004889 -0.011570 0.000000 0.000000 0.000000
# 2 -0.004889 0.012972 -0.011571 0.000000 0.000000 0.000000
# 3 -0.011570 -0.011571 0.086389 0.000000 0.000000 0.000000
# 4 0.000000 0.000000 0.000000 0.138750 0.000000 0.000000
# 5 0.000000 0.000000 0.000000 0.000000 0.138750 0.000000
# 6 0.000000 0.000000 0.000000 0.000000 0.000000 0.044025
#
#
# Mechanical properties :
#
#
# Convention : Reuss Voigt Hill
#
# Bulk Modulus (GPa) = 17.77140 58.62875 38.20007
# Shear Modulus (GPa) = 9.82943 17.38182 13.60563
#
# Velocity S-wave (km/s) = 2.47376 3.28958 2.91040
# Velocity P-wave (km/s) = 4.38443 7.13645 5.92250
#
# Compressibility (1/GPa) = 0.05627020
#
# Stress axis : x y z
#
# Youngs Moduli (GPa) = 77.09166 77.08950 11.57560
#
# Poissons Ratio (x) = 0.37690 0.13393
# Poissons Ratio (y) = 0.37691 0.13395
# Poissons Ratio (z) = 0.89199 0.89203
#
# Static dielectric constant tensor:
#      x y z
#    x 3.239880 0.000000 0.000000 
#    y 0.000000 3.239900 0.000000 
#    z 0.000000 0.000000 2.477620 
# 
# 
# High freq. dielectric constant tensor:
#      x y z
#    x 1.616280 0.000000 0.000000 
#    y 0.000000 1.616280 0.000000 
#    z 0.000000 0.000000 1.555700 
# 
# From -- ./inp_files/7769.got.cif
#   From: 2010.03.12/outbox.cif.g09.slc.cpg/sg131_4_cif.got.tgz:7769.got - 2010.04.06 17:36:35.
