data_PCOD8316042
_publ_section_title
;
Structure prediction by ZEFSAII (Michael W. Deem and Ramdas Pophale) SiO2 
 PCOD8316042
Probable space group: P 42/M M C
;
_chemical_formula_sum "Si O2"
_cell_formula_units_Z 48
_cell_length_a 7.827793
_cell_length_b 7.827793
_cell_length_c 37.648018
_cell_angle_alpha 90.000000
_cell_angle_beta 90.000000
_cell_angle_gamma 90.000000
_cell_volume 2306.857578
_symmetry_space_group_name_H-M "P 42/M M C"
_symmetry_group_IT_number 131
_symmetry_cell_setting 'tetragonal'
loop_
_space_group_symop_operation_xyz
x,y,z
-x,-y,z
-y,x,1/2+z
y,-x,1/2+z
-x,y,-z
x,-y,-z
y,x,1/2-z
-y,-x,1/2-z
-x,-y,-z
x,y,-z
y,-x,1/2-z
-y,x,1/2-z
x,-y,z
-x,y,z
-y,-x,1/2+z
y,x,1/2+z
loop_
_atom_site_type_symbol
_atom_site_label
_atom_site_fract_x
_atom_site_fract_y
_atom_site_fract_z
Si Si1 0.803305 0.803305 0.750000
Si Si2 0.813820 0.703748 0.075395
Si Si3 0.500000 0.803844 0.802816
Si Si4 0.500000 0.694591 0.118823
Si Si5 0.296919 0.308265 0.500000
O O1 0.672683 0.758097 0.781499
O O2 0.000000 0.775717 0.762777
O O3 0.808779 0.500000 0.075831
O O4 0.670434 0.780450 0.102125
O O5 0.784038 0.771803 0.035388
O O6 0.000000 0.769131 0.088178
O O7 0.500000 0.698038 0.838788
O O8 0.500000 0.000000 0.813620
O O9 0.500000 0.500000 0.106164
O O10 0.500000 0.307268 0.500000
O O11 0.226206 0.500000 0.500000
#
# Coordination Sequence:
#
# PCOD8316042 Si02
#       5
#     8  16   8   8   8
#     4   9  20  39  60  84 112 139 178 229 270 326
#     4   9  16  26  40  64 100 139 177 217 268 323
#     4  10  22  38  59  83 107 142 180 213 271 337
#     4  10  20  31  46  74 106 134 166 218 266 313
#     4   9  13  21  39  60  93 138 178 220 270 320
#
# _framework density 20.807527
#
# number of rings (size 3 to 8) (size 9 to 14) (size 15 to 20)
#    0.000    2.667    1.667    0.500    2.333    3.333 
#    0.000    0.000    0.000    0.000    0.000    2.333 
#    0.000    2.667    0.000    0.000    0.000    0.000 
#
# Total GULP energy -594892.483168 kJ/mol
# GULP energy per Si atom -12393.593399 kJ/mol
# Density = 2.076017 g / cm^3
# Si number density = 20.807527 Si / 1000 Ang^3
#
#
#
# Elastic Constant Matrix: (Units=GPa)
#
#
# Indices 1 2 3 4 5 6 
#
# 1 108.6799 28.5668 56.8933 0.0000 0.0000 0.0000
# 2 28.5668 108.6799 56.8933 0.0000 0.0000 0.0000
# 3 56.8933 56.8933 148.8233 0.0000 0.0000 0.0000
# 4 0.0000 0.0000 0.0000 -10.9360 0.0000 0.0000
# 5 0.0000 0.0000 0.0000 0.0000 -10.9360 0.0000
# 6 0.0000 0.0000 0.0000 0.0000 0.0000 8.3342
#
#
#
# Elastic Compliance Matrix: (Units=1/GPa)
#
#
# Indices 1 2 3 4 5 6 
#
# 1 0.011575 -0.000908 -0.004078 0.000000 0.000000 0.000000
# 2 -0.000908 0.011575 -0.004078 0.000000 0.000000 0.000000
# 3 -0.004078 -0.004078 0.009837 0.000000 0.000000 0.000000
# 4 0.000000 0.000000 0.000000 -0.091441 0.000000 0.000000
# 5 0.000000 0.000000 0.000000 0.000000 -0.091441 0.000000
# 6 0.000000 0.000000 0.000000 0.000000 0.000000 0.119988
#
#
# Mechanical properties :
#
#
# Convention : Reuss Voigt Hill
#
# Bulk Modulus (GPa) = 67.29601 72.32111 69.80856
# Shear Modulus (GPa) = -732.26658 12.21443 -360.02608
#
# Velocity S-wave (km/s) = -18.77999 2.42548 -13.16824
# Velocity P-wave (km/s) = 20.92458 6.53273 14.05634
#
# Compressibility (1/GPa) = 0.01485972
#
# Stress axis : x y z
#
# Youngs Moduli (GPa) = 86.39571 86.39571 101.65503
#
# Poissons Ratio (x) = 0.07842 0.41453
# Poissons Ratio (y) = 0.07842 0.41453
# Poissons Ratio (z) = 0.35231 0.35231
#
# Static dielectric constant tensor:
#      x y z
#    x 3.732820 0.000000 0.000000 
#    y 0.000000 3.732820 0.000000 
#    z 0.000000 0.000000 3.527850 
# 
# 
# High freq. dielectric constant tensor:
#      x y z
#    x 1.801320 0.000000 0.000000 
#    y 0.000000 1.801320 0.000000 
#    z 0.000000 0.000000 1.798060 
# 
# From -- ./inp_files/12984.got.cif
#   From: 2010.03.12/outbox.cif.g09.slc.cpg/sg131_7_cif.got.tgz:12984.got - 2010.04.06 17:36:35.
