data_PCOD8316908
_publ_section_title
;
Structure prediction by ZEFSAII (Michael W. Deem and Ramdas Pophale) SiO2 
 PCOD8316908
Probable space group: P 42/N B C
;
_chemical_formula_sum "Si O2"
_cell_formula_units_Z 36
_cell_length_a 13.806607
_cell_length_b 13.806607
_cell_length_c 9.225117
_cell_angle_alpha 90.000000
_cell_angle_beta 90.000000
_cell_angle_gamma 90.000000
_cell_volume 1758.513914
_symmetry_space_group_name_H-M "P 42/N B C"
_symmetry_group_IT_number 133
_space_group.IT_coordinate_system_code '2'
_symmetry_cell_setting 'tetragonal'
loop_
_space_group_symop_operation_xyz
x,y,z
1/2-y,x,1/2+z
1/2-x,1/2-y,z
y,1/2-x,1/2+z
x,1/2-y,-z
1/2-x,y,-z
y,x,1/2-z
1/2-y,1/2-x,1/2-z
-x,-y,-z
1/2+y,-x,1/2-z
1/2+x,1/2+y,-z
-y,1/2+x,1/2-z
-x,1/2+y,z
1/2+x,-y,z
-y,-x,1/2+z
1/2+y,1/2+x,1/2+z
loop_
_atom_site_type_symbol
_atom_site_label
_atom_site_fract_x
_atom_site_fract_y
_atom_site_fract_z
Si Si1 0.250000 0.750000 0.000000
Si Si2 0.157552 0.933040 0.136299
Si Si3 0.994345 0.860792 0.324324
O O1 0.183632 0.678550 0.904059
O O2 0.073356 0.931292 0.252171
O O3 0.248431 0.986668 0.210829
O O4 0.123874 0.996359 0.997176
O O5 0.892066 0.892066 0.250000
#
# Coordination Sequence:
#
# PCOD8316908 Si02
#       3
#     4  16  16
#     4   8  16  30  48  74 100 118 160 214 264 306
#     4  10  19  30  50  75 102 136 167 214 269 308
#     4  10  19  32  49  74 104 131 169 212 257 314
#
# _framework density 20.471831000000002
#
# number of rings (size 3 to 8) (size 9 to 14) (size 15 to 20)
#    0.000    2.667    0.000    6.667    0.000    1.778 
#    0.000    0.000    0.000    1.333    0.000   12.444 
#    0.000    0.000    0.000    0.000    0.000    0.000 
#
# Total GULP energy -446052.676589 kJ/mol
# GULP energy per Si atom -12390.352127 kJ/mol
# Density = 2.042524 g / cm^3
# Si number density = 20.471831 Si / 1000 Ang^3
#
#
#
# Elastic Constant Matrix: (Units=GPa)
#
#
# Indices 1 2 3 4 5 6 
#
# 1 78.6589 39.1135 34.2073 0.0000 0.0000 0.0000
# 2 39.1135 78.6589 34.2073 0.0000 0.0000 0.0000
# 3 34.2073 34.2073 82.1007 0.0000 0.0000 0.0000
# 4 0.0000 0.0000 0.0000 22.7754 0.0000 0.0000
# 5 0.0000 0.0000 0.0000 0.0000 22.7754 0.0000
# 6 0.0000 0.0000 0.0000 0.0000 0.0000 13.1417
#
#
#
# Elastic Compliance Matrix: (Units=1/GPa)
#
#
# Indices 1 2 3 4 5 6 
#
# 1 0.018245 -0.007043 -0.004667 0.000000 0.000000 0.000000
# 2 -0.007043 0.018245 -0.004667 0.000000 0.000000 0.000000
# 3 -0.004667 -0.004667 0.016070 0.000000 0.000000 0.000000
# 4 0.000000 0.000000 0.000000 0.043907 0.000000 0.000000
# 5 0.000000 0.000000 0.000000 0.000000 0.043907 0.000000
# 6 0.000000 0.000000 0.000000 0.000000 0.000000 0.076093
#
#
# Mechanical properties :
#
#
# Convention : Reuss Voigt Hill
#
# Bulk Modulus (GPa) = 50.49392 50.49721 50.49556
# Shear Modulus (GPa) = 19.54476 20.53120 20.03798
#
# Velocity S-wave (km/s) = 3.09320 3.17030 3.13198
# Velocity P-wave (km/s) = 6.12175 6.17424 6.14805
#
# Compressibility (1/GPa) = 0.01980436
#
# Stress axis : x y z
#
# Youngs Moduli (GPa) = 54.80995 54.80995 62.22941
#
# Poissons Ratio (x) = 0.38600 0.29045
# Poissons Ratio (y) = 0.38600 0.29045
# Poissons Ratio (z) = 0.25582 0.25582
#
# Static dielectric constant tensor:
#      x y z
#    x 3.596880 0.000000 0.000000 
#    y 0.000000 3.596880 0.000000 
#    z 0.000000 0.000000 3.766180 
# 
# 
# High freq. dielectric constant tensor:
#      x y z
#    x 1.777640 0.000000 0.000000 
#    y 0.000000 1.777640 0.000000 
#    z 0.000000 0.000000 1.804490 
# 
# From -- ./inp_files/827.got.cif
#   From: 2010.03.12/outbox.cif.g09.slc.cpg/sg133_1_cif.got.tgz:827.got - 2010.04.06 18:08:06.
