data_PCOD8316588
_publ_section_title
;
Structure prediction by ZEFSAII (Michael W. Deem and Ramdas Pophale) SiO2 
 PCOD8316588
Probable space group: P 42/M C M
;
_chemical_formula_sum "Si O2"
_cell_formula_units_Z 96
_cell_length_a 24.223995
_cell_length_b 24.223995
_cell_length_c 9.159239
_cell_angle_alpha 90.000000
_cell_angle_beta 90.000000
_cell_angle_gamma 90.000000
_cell_volume 5374.659157
_symmetry_space_group_name_H-M "P 42/M C M"
_symmetry_group_IT_number 132
_symmetry_cell_setting 'tetragonal'
loop_
_space_group_symop_operation_xyz
x,y,z
-y,x,1/2+z
-x,-y,z
y,-x,1/2+z
x,-y,1/2-z
-x,y,1/2-z
y,x,-z
-y,-x,-z
-x,-y,-z
y,-x,1/2-z
x,y,-z
-y,x,1/2-z
-x,y,1/2+z
x,-y,1/2+z
-y,-x,z
y,x,z
loop_
_atom_site_type_symbol
_atom_site_label
_atom_site_fract_x
_atom_site_fract_y
_atom_site_fract_z
Si Si1 0.558900 0.558900 0.821131
Si Si2 0.051263 0.590468 0.334319
Si Si3 0.829887 0.448010 0.333713
Si Si4 0.357777 0.357777 0.330700
Si Si5 0.283904 0.055294 0.172800
Si Si6 0.770165 0.644245 0.667033
Si Si7 0.249029 0.161708 0.665786
O O1 0.576190 0.500000 0.750000
O O2 0.604379 0.604379 0.774284
O O3 0.555432 0.555432 0.000000
O O4 0.032560 0.593219 0.500000
O O5 0.104386 0.552580 0.311276
O O6 0.063477 0.652495 0.278941
O O7 0.000000 0.563357 0.250000
O O8 0.804344 0.500000 0.250000
O O9 0.812537 0.453985 0.500000
O O10 0.805898 0.391936 0.274574
O O11 0.371281 0.371281 0.500000
O O12 0.367314 0.293561 0.296064
O O13 0.252017 0.109475 0.227609
O O14 0.260260 0.000000 0.250000
O O15 0.275947 0.050077 0.000000
O O16 0.782005 0.627737 0.500000
O O17 0.789924 0.706416 0.698001
O O18 0.256278 0.140528 0.500000
O O19 0.189222 0.189222 0.689485
#
# Coordination Sequence:
#
# PCOD8316588 Si02
#       7
#     8  16  16   8  16  16  16
#     4  11  23  42  67  92 114 140 172 216 272 333
#     4   9  19  33  50  71  96 129 174 225 273 320
#     4  11  23  38  52  72 101 136 178 225 273 324
#     4  10  21  39  62  88 115 142 176 216 263 323
#     4  10  19  33  52  78 109 145 185 229 276 323
#     4  10  20  36  57  80 107 141 177 218 266 322
#     4  10  19  33  55  83 112 145 183 223 272 327
#
# _framework density 17.861595999999999
#
# number of rings (size 3 to 8) (size 9 to 14) (size 15 to 20)
#    0.000    1.917    2.500    2.000    0.000    4.000 
#    0.000    1.667    0.000    0.000    0.000    0.000 
#    0.000    0.333    0.000    3.500    0.000    1.500 
#
# Total GULP energy -1190242.704698 kJ/mol
# GULP energy per Si atom -12398.361507 kJ/mol
# Density = 1.782094 g / cm^3
# Si number density = 17.861596 Si / 1000 Ang^3
#
#
#
# Elastic Constant Matrix: (Units=GPa)
#
#
# Indices 1 2 3 4 5 6 
#
# 1 66.5034 20.9567 47.7098 0.0000 0.0000 0.0000
# 2 20.9567 66.5034 47.7098 0.0000 0.0000 0.0000
# 3 47.7098 47.7098 106.5932 0.0000 0.0000 0.0000
# 4 0.0000 0.0000 0.0000 14.1338 0.0000 0.0000
# 5 0.0000 0.0000 0.0000 0.0000 14.1338 0.0000
# 6 0.0000 0.0000 0.0000 0.0000 0.0000 12.3597
#
#
#
# Elastic Compliance Matrix: (Units=1/GPa)
#
#
# Indices 1 2 3 4 5 6 
#
# 1 0.022151 0.000195 -0.010002 0.000000 0.000000 0.000000
# 2 0.000195 0.022151 -0.010002 0.000000 0.000000 0.000000
# 3 -0.010002 -0.010002 0.018335 0.000000 0.000000 0.000000
# 4 0.000000 0.000000 0.000000 0.070752 0.000000 0.000000
# 5 0.000000 0.000000 0.000000 0.000000 0.070752 0.000000
# 6 0.000000 0.000000 0.000000 0.000000 0.000000 0.080908
#
#
# Mechanical properties :
#
#
# Convention : Reuss Voigt Hill
#
# Bulk Modulus (GPa) = 43.44159 52.48361 47.96260
# Shear Modulus (GPa) = 15.04492 16.34038 15.69265
#
# Velocity S-wave (km/s) = 2.90540 3.02790 2.96728
# Velocity P-wave (km/s) = 5.96902 6.45535 6.21694
#
# Compressibility (1/GPa) = 0.02301942
#
# Stress axis : x y z
#
# Youngs Moduli (GPa) = 45.14558 45.14558 54.54156
#
# Poissons Ratio (x) = -0.00880 0.54550
# Poissons Ratio (y) = -0.00880 0.54550
# Poissons Ratio (z) = 0.45153 0.45153
#
# Static dielectric constant tensor:
#      x y z
#    x 3.183010 0.000000 0.000000 
#    y 0.000000 3.183010 0.000000 
#    z 0.000000 0.000000 3.312360 
# 
# 
# High freq. dielectric constant tensor:
#      x y z
#    x 1.677920 0.000000 0.000000 
#    y 0.000000 1.677920 0.000000 
#    z 0.000000 0.000000 1.696450 
# 
# From -- ./inp_files/1833.got.cif
#   From: 2010.03.12/outbox.cif.g09.slc.cpg/sg132_1_cif.got.tgz:1833.got - 2010.04.06 17:53:44.
