data_PCOD8316764
_publ_section_title
;
Structure prediction by ZEFSAII (Michael W. Deem and Ramdas Pophale) SiO2 
 PCOD8316764
Probable space group: P 42/M C M
;
_chemical_formula_sum "Si O2"
_cell_formula_units_Z 50
_cell_length_a 12.052324
_cell_length_b 12.052324
_cell_length_c 21.365434
_cell_angle_alpha 90.000000
_cell_angle_beta 90.000000
_cell_angle_gamma 90.000000
_cell_volume 3103.511190
_symmetry_space_group_name_H-M "P 42/M C M"
_symmetry_group_IT_number 132
_symmetry_cell_setting 'tetragonal'
loop_
_space_group_symop_operation_xyz
x,y,z
-y,x,1/2+z
-x,-y,z
y,-x,1/2+z
x,-y,1/2-z
-x,y,1/2-z
y,x,-z
-y,-x,-z
-x,-y,-z
y,-x,1/2-z
x,y,-z
-y,x,1/2-z
-x,y,1/2+z
x,-y,1/2+z
-y,-x,z
y,x,z
loop_
_atom_site_type_symbol
_atom_site_label
_atom_site_fract_x
_atom_site_fract_y
_atom_site_fract_z
Si Si1 0.322531 0.034619 0.425974
Si Si2 0.087115 0.912886 0.869818
Si Si3 0.588787 0.588787 0.925156
Si Si4 0.000000 0.000000 0.750000
Si Si5 0.467365 0.169540 0.074040
O O1 0.300468 0.041821 0.500000
O O2 0.210307 0.056213 0.389567
O O3 0.412300 0.126369 0.403915
O O4 0.369207 0.914120 0.405968
O O5 0.077480 0.922521 0.794213
O O6 0.000000 0.000000 0.901308
O O7 0.500000 0.500000 0.900327
O O8 0.709079 0.555833 0.897681
O O9 0.590998 0.590998 0.000000
O O10 0.469275 0.174625 0.000000
#
# Coordination Sequence:
#
# PCOD8316764 Si02
#       5
#    16   8   8   2  16
#     4   9  17  29  47  72  98 124 156 193 237 287
#     4  10  21  34  50  66  90 129 157 206 244 296
#     4   9  16  23  36  56  89 137 164 170 207 274
#     4   8  24  40  42  68  92 124 160 214 264 272
#     4   8  16  28  41  66 104 132 151 186 229 281
#
# _framework density 16.110783999999999
#
# number of rings (size 3 to 8) (size 9 to 14) (size 15 to 20)
#    0.480    2.720    0.000    2.400    4.480    1.280 
#    0.000    0.000    0.000    3.840    0.000    0.000 
#    0.000    0.000    0.000    0.000    0.000    0.000 
#
# Total GULP energy -619616.996199 kJ/mol
# GULP energy per Si atom -12392.339924 kJ/mol
# Density = 1.607411 g / cm^3
# Si number density = 16.110784 Si / 1000 Ang^3
#
#
#
# Elastic Constant Matrix: (Units=GPa)
#
#
# Indices 1 2 3 4 5 6 
#
# 1 165.8674 92.3809 34.3910 0.0000 0.0000 0.0000
# 2 92.3809 165.8674 34.3910 0.0000 0.0000 0.0000
# 3 34.3910 34.3910 43.8084 0.0000 0.0000 0.0000
# 4 0.0000 0.0000 0.0000 7.2612 0.0000 0.0000
# 5 0.0000 0.0000 0.0000 0.0000 7.2612 0.0000
# 6 0.0000 0.0000 0.0000 0.0000 0.0000 21.9718
#
#
#
# Elastic Compliance Matrix: (Units=1/GPa)
#
#
# Indices 1 2 3 4 5 6 
#
# 1 0.009252 -0.004356 -0.003843 0.000000 0.000000 0.000000
# 2 -0.004356 0.009252 -0.003843 0.000000 0.000000 0.000000
# 3 -0.003843 -0.003843 0.028861 0.000000 0.000000 0.000000
# 4 0.000000 0.000000 0.000000 0.137718 0.000000 0.000000
# 5 0.000000 0.000000 0.000000 0.000000 0.137718 0.000000
# 6 0.000000 0.000000 0.000000 0.000000 0.000000 0.045513
#
#
# Mechanical properties :
#
#
# Convention : Reuss Voigt Hill
#
# Bulk Modulus (GPa) = 42.95683 77.54099 60.24891
# Shear Modulus (GPa) = 12.49501 21.59087 17.04294
#
# Velocity S-wave (km/s) = 2.78792 3.66478 3.25600
# Velocity P-wave (km/s) = 6.08972 8.13276 7.18423
#
# Compressibility (1/GPa) = 0.02327919
#
# Stress axis : x y z
#
# Youngs Moduli (GPa) = 108.08567 108.08567 34.64867
#
# Poissons Ratio (x) = 0.47082 0.13317
# Poissons Ratio (y) = 0.47082 0.13317
# Poissons Ratio (z) = 0.41542 0.41542
#
# Static dielectric constant tensor:
#      x y z
#    x 3.355330 0.000000 0.000000 
#    y 0.000000 3.355330 0.000000 
#    z 0.000000 0.000000 2.389100 
# 
# 
# High freq. dielectric constant tensor:
#      x y z
#    x 1.633100 0.000000 0.000000 
#    y 0.000000 1.633100 0.000000 
#    z 0.000000 0.000000 1.537930 
# 
# From -- ./inp_files/7255.got.cif
#   From: 2010.03.12/outbox.cif.g09.slc.cpg/sg132_4_cif.got.tgz:7255.got - 2010.04.06 17:53:44.
