data_PCOD8316258
_publ_section_title
;
Structure prediction by ZEFSAII (Michael W. Deem and Ramdas Pophale) SiO2 
 PCOD8316258
Probable space group: P 42/M M C
;
_chemical_formula_sum "Si O2"
_cell_formula_units_Z 96
_cell_length_a 14.968315
_cell_length_b 14.968315
_cell_length_c 22.777086
_cell_angle_alpha 90.000000
_cell_angle_beta 90.000000
_cell_angle_gamma 90.000000
_cell_volume 5103.216458
_symmetry_space_group_name_H-M "P 42/M M C"
_symmetry_group_IT_number 131
_symmetry_cell_setting 'tetragonal'
loop_
_space_group_symop_operation_xyz
x,y,z
-x,-y,z
-y,x,1/2+z
y,-x,1/2+z
-x,y,-z
x,-y,-z
y,x,1/2-z
-y,-x,1/2-z
-x,-y,-z
x,y,-z
y,-x,1/2-z
-y,x,1/2-z
x,-y,z
-x,y,z
-y,-x,1/2+z
y,x,1/2+z
loop_
_atom_site_type_symbol
_atom_site_label
_atom_site_fract_x
_atom_site_fract_y
_atom_site_fract_z
Si Si1 0.106211 0.248525 0.737407
Si Si2 0.400650 0.000000 0.933226
Si Si3 0.894915 0.398118 0.168402
Si Si4 0.224121 0.326558 0.932006
Si Si5 0.895619 0.000000 0.069953
Si Si6 0.395010 0.405742 0.566892
Si Si7 0.868291 0.748415 0.605558
O O1 0.154820 0.154820 0.750000
O O2 0.136071 0.328113 0.781456
O O3 0.139993 0.277278 0.673530
O O4 0.000000 0.232833 0.739267
O O5 0.339769 0.086281 0.920926
O O6 0.500000 0.000000 0.900821
O O7 0.425668 0.000000 0.000000
O O8 0.866214 0.500000 0.184888
O O9 0.854634 0.369601 0.105823
O O10 0.000000 0.392479 0.160343
O O11 0.317258 0.358768 0.902060
O O12 0.229172 0.221204 0.928313
O O13 0.211233 0.356659 0.000000
O O14 0.843364 0.916940 0.097435
O O15 0.000000 0.000000 0.089112
O O16 0.886490 0.000000 0.000000
O O17 0.361194 0.403192 0.500000
O O18 0.360791 0.500000 0.595491
O O19 0.500000 0.403558 0.569709
#
# Coordination Sequence:
#
# PCOD8316258 Si02
#       7
#    16   8  16  16   8  16  16
#     4  11  22  41  63  86 114 149 196 253 300 355
#     4  10  21  37  58  87 123 160 197 238 290 359
#     4  10  23  41  61  85 117 157 202 251 300 356
#     4  11  21  34  58  86 118 155 193 241 299 357
#     4  10  21  37  58  85 119 160 195 225 285 361
#     4   8  15  29  49  75 107 141 178 220 269 331
#     4  11  21  38  58  83 118 153 195 247 297 348
#
# _framework density 18.811665000000001
#
# number of rings (size 3 to 8) (size 9 to 14) (size 15 to 20)
#    0.000    1.833    3.333    3.000    0.000    4.167 
#    0.000    2.500    0.000    0.000    0.000    0.000 
#    0.000    0.000    0.000    0.000    0.000    0.000 
#
# Total GULP energy -1189324.088859 kJ/mol
# GULP energy per Si atom -12388.792592 kJ/mol
# Density = 1.876885 g / cm^3
# Si number density = 18.811665 Si / 1000 Ang^3
#
#
#
# Elastic Constant Matrix: (Units=GPa)
#
#
# Indices 1 2 3 4 5 6 
#
# 1 83.4386 32.1829 26.2834 0.0000 0.0000 0.0000
# 2 32.1829 83.4386 26.2834 0.0000 0.0000 0.0000
# 3 26.2834 26.2834 95.1935 0.0000 0.0000 0.0000
# 4 0.0000 0.0000 0.0000 29.5815 0.0000 0.0000
# 5 0.0000 0.0000 0.0000 0.0000 29.5815 0.0000
# 6 0.0000 0.0000 0.0000 0.0000 0.0000 -42.5630
#
#
#
# Elastic Compliance Matrix: (Units=1/GPa)
#
#
# Indices 1 2 3 4 5 6 
#
# 1 0.014700 -0.004810 -0.002731 0.000000 0.000000 0.000000
# 2 -0.004810 0.014700 -0.002731 0.000000 0.000000 0.000000
# 3 -0.002731 -0.002731 0.012013 0.000000 0.000000 0.000000
# 4 0.000000 0.000000 0.000000 0.033805 0.000000 0.000000
# 5 0.000000 0.000000 0.000000 0.000000 0.033805 0.000000
# 6 0.000000 0.000000 0.000000 0.000000 0.000000 -0.023495
#
#
# Mechanical properties :
#
#
# Convention : Reuss Voigt Hill
#
# Bulk Modulus (GPa) = 47.91432 47.95225 47.93329
# Shear Modulus (GPa) = 44.23670 15.14139 29.68905
#
# Velocity S-wave (km/s) = 4.85455 2.84014 3.97700
# Velocity P-wave (km/s) = 7.54639 6.02505 6.82822
#
# Compressibility (1/GPa) = 0.02087059
#
# Stress axis : x y z
#
# Youngs Moduli (GPa) = 68.02612 68.02612 83.24383
#
# Poissons Ratio (x) = 0.32719 0.22732
# Poissons Ratio (y) = 0.32719 0.22732
# Poissons Ratio (z) = 0.18577 0.18577
#
# Static dielectric constant tensor:
#      x y z
#    x 3.586180 0.000000 0.000000 
#    y 0.000000 3.586180 0.000000 
#    z 0.000000 0.000000 3.403760 
# 
# 
# High freq. dielectric constant tensor:
#      x y z
#    x 1.736930 0.000000 0.000000 
#    y 0.000000 1.736930 0.000000 
#    z 0.000000 0.000000 1.711870 
# 
# From -- ./inp_files/11209.got.cif
#   From: 2010.03.12/outbox.cif.g09.slc.cpg/sg131_6_cif.got.tgz:11209.got - 2010.04.06 17:36:35.
