data_PCOD8316996
_publ_section_title
;
Structure prediction by ZEFSAII (Michael W. Deem and Ramdas Pophale) SiO2 
 PCOD8316996
Probable space group: P 42/N B C
;
_chemical_formula_sum "Si O2"
_cell_formula_units_Z 96
_cell_length_a 14.568462
_cell_length_b 14.568462
_cell_length_c 20.305631
_cell_angle_alpha 90.000000
_cell_angle_beta 90.000000
_cell_angle_gamma 90.000000
_cell_volume 4309.668850
_symmetry_space_group_name_H-M "P 42/N B C"
_symmetry_group_IT_number 133
_space_group.IT_coordinate_system_code '2'
_symmetry_cell_setting 'tetragonal'
loop_
_space_group_symop_operation_xyz
x,y,z
1/2-y,x,1/2+z
1/2-x,1/2-y,z
y,1/2-x,1/2+z
x,1/2-y,-z
1/2-x,y,-z
y,x,1/2-z
1/2-y,1/2-x,1/2-z
-x,-y,-z
1/2+y,-x,1/2-z
1/2+x,1/2+y,-z
-y,1/2+x,1/2-z
-x,1/2+y,z
1/2+x,-y,z
-y,-x,1/2+z
1/2+y,1/2+x,1/2+z
loop_
_atom_site_type_symbol
_atom_site_label
_atom_site_fract_x
_atom_site_fract_y
_atom_site_fract_z
Si Si1 0.574413 0.290457 0.569331
Si Si2 0.407296 0.299427 0.656217
Si Si3 0.030991 0.853472 0.984457
Si Si4 0.096136 0.393943 0.870899
Si Si5 0.781509 0.538909 0.694649
Si Si6 0.098206 0.901671 0.621823
O O1 0.539677 0.250000 0.500000
O O2 0.486680 0.331806 0.606854
O O3 0.644228 0.374885 0.558865
O O4 0.621153 0.206387 0.609957
O O5 0.364409 0.203161 0.631657
O O6 0.452401 0.289763 0.727874
O O7 0.328878 0.376166 0.656596
O O8 0.943451 0.892378 0.945145
O O9 0.007621 0.750000 0.000000
O O10 0.043286 0.907200 0.052761
O O11 0.037917 0.325751 0.824713
O O12 0.088528 0.498200 0.844384
O O13 0.826623 0.443520 0.671070
#
# Coordination Sequence:
#
# PCOD8316996 Si02
#       6
#    16  16  16  16  16  16
#     4   9  21  42  66  95 127 174 219 273 328 387
#     4  10  23  42  65  97 130 175 217 270 336 393
#     4  11  21  41  68  96 129 173 224 269 330 394
#     4  11  22  40  65  96 130 173 217 276 326 390
#     4  11  22  43  64  97 134 172 222 267 330 407
#     4  10  22  41  65  97 132 168 221 270 328 392
#
# _framework density 22.275492
#
# number of rings (size 3 to 8) (size 9 to 14) (size 15 to 20)
#    0.000    1.667    1.667    2.500    0.000    7.000 
#   21.000    0.000    0.000    0.000    0.000    0.000 
#    0.000    0.000    0.000    0.000    0.000    0.000 
#
# Total GULP energy -1190349.585095 kJ/mol
# GULP energy per Si atom -12399.474845 kJ/mol
# Density = 2.222479 g / cm^3
# Si number density = 22.275492 Si / 1000 Ang^3
#
#
#
# Elastic Constant Matrix: (Units=GPa)
#
#
# Indices 1 2 3 4 5 6 
#
# 1 81.4381 32.0114 18.4011 0.0000 0.0000 0.0000
# 2 32.0114 81.4381 18.4011 0.0000 0.0000 0.0000
# 3 18.4011 18.4011 58.0519 0.0000 0.0000 0.0000
# 4 0.0000 0.0000 0.0000 28.3689 0.0000 0.0000
# 5 0.0000 0.0000 0.0000 0.0000 28.3689 0.0000
# 6 0.0000 0.0000 0.0000 0.0000 0.0000 -90.3083
#
#
#
# Elastic Compliance Matrix: (Units=1/GPa)
#
#
# Indices 1 2 3 4 5 6 
#
# 1 0.015028 -0.005204 -0.003114 0.000000 0.000000 0.000000
# 2 -0.005204 0.015028 -0.003114 0.000000 0.000000 0.000000
# 3 -0.003114 -0.003114 0.019200 0.000000 0.000000 0.000000
# 4 0.000000 0.000000 0.000000 0.035250 0.000000 0.000000
# 5 0.000000 0.000000 0.000000 0.000000 0.035250 0.000000
# 6 0.000000 0.000000 0.000000 0.000000 0.000000 -0.011073
#
#
# Mechanical properties :
#
#
# Convention : Reuss Voigt Hill
#
# Bulk Modulus (GPa) = 37.88904 39.83945 38.86425
# Shear Modulus (GPa) = 35.62643 3.42686 19.52664
#
# Velocity S-wave (km/s) = 4.00353 1.24167 2.96395
# Velocity P-wave (km/s) = 6.19817 4.46983 5.40355
#
# Compressibility (1/GPa) = 0.02639285
#
# Stress axis : x y z
#
# Youngs Moduli (GPa) = 66.54090 66.54090 52.08276
#
# Poissons Ratio (x) = 0.34625 0.16220
# Poissons Ratio (y) = 0.34625 0.16220
# Poissons Ratio (z) = 0.20722 0.20722
#
# Static dielectric constant tensor:
#      x y z
#    x 4.053000 0.000000 0.000000 
#    y 0.000000 4.053000 0.000000 
#    z 0.000000 0.000000 4.025160 
# 
# 
# High freq. dielectric constant tensor:
#      x y z
#    x 1.875910 0.000000 0.000000 
#    y 0.000000 1.875910 0.000000 
#    z 0.000000 0.000000 1.866950 
# 
# From -- ./inp_files/6501.got.cif
#   From: 2010.03.12/outbox.cif.g09.slc.cpg/sg133_4_cif.got.tgz:6501.got - 2010.04.06 18:08:06.
