data_PCOD8316569
_publ_section_title
;
Structure prediction by ZEFSAII (Michael W. Deem and Ramdas Pophale) SiO2 
 PCOD8316569
Probable space group: P 42/M C M
;
_chemical_formula_sum "Si O2"
_cell_formula_units_Z 104
_cell_length_a 19.323090
_cell_length_b 19.323090
_cell_length_c 14.622940
_cell_angle_alpha 90.000000
_cell_angle_beta 90.000000
_cell_angle_gamma 90.000000
_cell_volume 5459.939763
_symmetry_space_group_name_H-M "P 42/M C M"
_symmetry_group_IT_number 132
_symmetry_cell_setting 'tetragonal'
loop_
_space_group_symop_operation_xyz
x,y,z
-y,x,1/2+z
-x,-y,z
y,-x,1/2+z
x,-y,1/2-z
-x,y,1/2-z
y,x,-z
-y,-x,-z
-x,-y,-z
y,-x,1/2-z
x,y,-z
-y,x,1/2-z
-x,y,1/2+z
x,-y,1/2+z
-y,-x,z
y,x,z
loop_
_atom_site_type_symbol
_atom_site_label
_atom_site_fract_x
_atom_site_fract_y
_atom_site_fract_z
Si Si1 0.655529 0.101789 0.397620
Si Si2 0.489796 0.849782 0.604727
Si Si3 0.921249 0.734448 0.273026
Si Si4 0.308819 0.691182 0.891352
Si Si5 0.191977 0.808024 0.110692
Si Si6 0.462792 0.291251 0.662467
Si Si7 0.614401 0.501347 0.000000
Si Si8 0.947510 0.608847 0.396848
O O1 0.686093 0.111543 0.500000
O O2 0.592274 0.152440 0.376444
O O3 0.718736 0.112741 0.326683
O O4 0.615091 0.029305 0.388541
O O5 0.504232 0.832233 0.500000
O O6 0.519928 0.789158 0.664474
O O7 0.531549 0.920919 0.629061
O O8 0.879433 0.788598 0.336249
O O9 0.915122 0.662862 0.326871
O O10 0.000000 0.759701 0.250000
O O11 0.250393 0.749608 0.872720
O O12 0.379997 0.710455 0.842293
O O13 0.319274 0.680727 0.000000
O O14 0.180423 0.819578 0.000000
O O15 0.500000 0.325110 0.750000
O O16 0.498712 0.335669 0.585205
O O17 0.573093 0.573093 0.000000
O O18 0.563575 0.436426 0.000000
O O19 0.923547 0.628428 0.500000
#
# Coordination Sequence:
#
# PCOD8316569 Si02
#       8
#    16  16  16   8   8  16   8  16
#     4   9  19  33  50  76 117 160 200 234 278 355
#     4  10  19  32  51  77 113 150 194 244 297 356
#     4  10  21  37  58  87 122 159 199 243 297 361
#     4  11  22  44  62  86 122 152 199 266 319 366
#     4  11  24  40  69 100 126 158 204 256 306 353
#     4  12  24  37  57  82 109 145 191 248 319 369
#     4  11  24  46  64  74  97 132 192 264 323 381
#     4   9  17  31  52  80 112 155 199 242 289 343
#
# _framework density 19.047827999999999
#
# number of rings (size 3 to 8) (size 9 to 14) (size 15 to 20)
#    0.000    1.769    2.308    1.846    5.385    4.923 
#    0.000    3.462    0.000    0.231    0.000    0.538 
#    0.000    0.000    0.000    0.000    0.000    0.000 
#
# Total GULP energy -1288375.043440 kJ/mol
# GULP energy per Si atom -12388.221572 kJ/mol
# Density = 1.900447 g / cm^3
# Si number density = 19.047828 Si / 1000 Ang^3
#
#
#
# Elastic Constant Matrix: (Units=GPa)
#
#
# Indices 1 2 3 4 5 6 
#
# 1 64.9771 36.3500 45.5449 0.0000 0.0000 0.0000
# 2 36.3500 64.9765 45.5457 0.0000 0.0000 0.0000
# 3 45.5449 45.5457 122.2870 0.0000 0.0000 0.0000
# 4 0.0000 0.0000 0.0000 55.4550 0.0000 0.0000
# 5 0.0000 0.0000 0.0000 0.0000 55.4549 0.0000
# 6 0.0000 0.0000 0.0000 0.0000 0.0000 28.2650
#
#
#
# Elastic Compliance Matrix: (Units=1/GPa)
#
#
# Indices 1 2 3 4 5 6 
#
# 1 0.024884 -0.010048 -0.005526 0.000000 0.000000 0.000000
# 2 -0.010048 0.024885 -0.005526 0.000000 0.000000 0.000000
# 3 -0.005526 -0.005526 0.012294 0.000000 0.000000 0.000000
# 4 0.000000 0.000000 0.000000 0.018033 0.000000 0.000000
# 5 0.000000 0.000000 0.000000 0.000000 0.018033 0.000000
# 6 0.000000 0.000000 0.000000 0.000000 0.000000 0.035379
#
#
# Mechanical properties :
#
#
# Convention : Reuss Voigt Hill
#
# Bulk Modulus (GPa) = 50.34342 56.34689 53.34515
# Shear Modulus (GPa) = 27.42315 36.15499 31.78907
#
# Velocity S-wave (km/s) = 3.79845 4.36146 4.08966
# Velocity P-wave (km/s) = 6.76203 7.41682 7.09698
#
# Compressibility (1/GPa) = 0.01986357
#
# Stress axis : x y z
#
# Youngs Moduli (GPa) = 40.18616 40.18517 81.34282
#
# Poissons Ratio (x) = 0.40377 0.44947
# Poissons Ratio (y) = 0.40378 0.44951
# Poissons Ratio (z) = 0.22205 0.22207
#
# Static dielectric constant tensor:
#      x y z
#    x 3.482350 0.000000 0.000000 
#    y 0.000000 3.482350 0.000000 
#    z 0.000000 0.000000 3.965630 
# 
# 
# High freq. dielectric constant tensor:
#      x y z
#    x 1.716630 0.000000 0.000000 
#    y 0.000000 1.716630 0.000000 
#    z 0.000000 0.000000 1.757370 
# 
# From -- ./inp_files/5099.got.cif
#   From: 2010.03.12/outbox.cif.g09.slc.cpg/sg132_3_cif.got.tgz:5099.got - 2010.04.06 17:53:44.
