data_PCOD8316347
_publ_section_title
;
Structure prediction by ZEFSAII (Michael W. Deem and Ramdas Pophale) SiO2 
 PCOD8316347
Probable space group: P 42/M M C
;
_chemical_formula_sum "Si O2"
_cell_formula_units_Z 58
_cell_length_a 11.495267
_cell_length_b 11.495267
_cell_length_c 25.143832
_cell_angle_alpha 90.000000
_cell_angle_beta 90.000000
_cell_angle_gamma 90.000000
_cell_volume 3322.535213
_symmetry_space_group_name_H-M "P 42/M M C"
_symmetry_group_IT_number 131
_symmetry_cell_setting 'tetragonal'
loop_
_space_group_symop_operation_xyz
x,y,z
-x,-y,z
-y,x,1/2+z
y,-x,1/2+z
-x,y,-z
x,-y,-z
y,x,1/2-z
-y,-x,1/2-z
-x,-y,-z
x,y,-z
y,-x,1/2-z
-y,x,1/2-z
x,-y,z
-x,y,z
-y,-x,1/2+z
y,x,1/2+z
loop_
_atom_site_type_symbol
_atom_site_label
_atom_site_fract_x
_atom_site_fract_y
_atom_site_fract_z
Si Si1 0.000000 0.000000 0.750000
Si Si2 0.234253 0.000000 0.314747
Si Si3 0.365890 0.365890 0.750000
Si Si4 0.744941 0.226276 0.840860
Si Si5 0.363074 0.867505 0.940392
Si Si6 0.362610 0.000000 0.211503
O O1 0.000000 0.885973 0.784485
O O2 0.236712 0.116604 0.349949
O O3 0.344358 0.000000 0.274831
O O4 0.339550 0.500000 0.738782
O O5 0.331690 0.296862 0.696480
O O6 0.692348 0.226231 0.900227
O O7 0.702749 0.110953 0.811370
O O8 0.500000 0.852412 0.938263
O O9 0.329606 0.000000 0.923749
O O10 0.317513 0.841734 0.000000
O O11 0.500000 0.000000 0.197302
#
# Coordination Sequence:
#
# PCOD8316347 Si02
#       6
#     2   8   8  16  16   8
#     4  12  16  36  40  60 114 148 168 216 256 310
#     4  12  22  32  49  76 110 148 181 212 269 327
#     4  11  23  36  53  81 114 142 176 227 277 318
#     4  12  21  34  53  78 109 144 178 223 269 329
#     4   9  18  33  53  77 103 136 183 233 274 317
#     4  12  20  32  53  76 104 143 185 215 261 327
#
# _framework density 17.456548999999999
#
# number of rings (size 3 to 8) (size 9 to 14) (size 15 to 20)
#    0.000    0.966    6.897    3.310    0.000    0.000 
#    0.000    0.690    0.000    2.483    0.000    3.862 
#    0.000    3.310    0.000    0.000    0.000    0.000 
#
# Total GULP energy -719003.843466 kJ/mol
# GULP energy per Si atom -12396.617991 kJ/mol
# Density = 1.741682 g / cm^3
# Si number density = 17.456549 Si / 1000 Ang^3
#
#
#
# Elastic Constant Matrix: (Units=GPa)
#
#
# Indices 1 2 3 4 5 6 
#
# 1 86.4665 25.6236 30.7133 0.0000 0.0000 0.0000
# 2 25.6236 86.4665 30.7133 0.0000 0.0000 0.0000
# 3 30.7133 30.7133 110.0409 0.0000 0.0000 0.0000
# 4 0.0000 0.0000 0.0000 22.8263 0.0000 0.0000
# 5 0.0000 0.0000 0.0000 0.0000 22.8263 0.0000
# 6 0.0000 0.0000 0.0000 0.0000 0.0000 14.0743
#
#
#
# Elastic Compliance Matrix: (Units=1/GPa)
#
#
# Indices 1 2 3 4 5 6 
#
# 1 0.013484 -0.002952 -0.002940 0.000000 0.000000 0.000000
# 2 -0.002952 0.013484 -0.002940 0.000000 0.000000 0.000000
# 3 -0.002940 -0.002940 0.010728 0.000000 0.000000 0.000000
# 4 0.000000 0.000000 0.000000 0.043809 0.000000 0.000000
# 5 0.000000 0.000000 0.000000 0.000000 0.043809 0.000000
# 6 0.000000 0.000000 0.000000 0.000000 0.000000 0.071051
#
#
# Mechanical properties :
#
#
# Convention : Reuss Voigt Hill
#
# Bulk Modulus (GPa) = 49.91377 50.78606 50.34991
# Shear Modulus (GPa) = 22.65450 25.00694 23.83072
#
# Velocity S-wave (km/s) = 3.60636 3.78898 3.69880
# Velocity P-wave (km/s) = 6.78206 6.94966 6.86637
#
# Compressibility (1/GPa) = 0.02003455
#
# Stress axis : x y z
#
# Youngs Moduli (GPa) = 74.16157 74.16157 93.20968
#
# Poissons Ratio (x) = 0.21890 0.27401
# Poissons Ratio (y) = 0.21890 0.27401
# Poissons Ratio (z) = 0.21801 0.21801
#
# Static dielectric constant tensor:
#      x y z
#    x 3.327230 0.000000 0.000000 
#    y 0.000000 3.327230 0.000000 
#    z 0.000000 0.000000 3.341910 
# 
# 
# High freq. dielectric constant tensor:
#      x y z
#    x 1.666220 0.000000 0.000000 
#    y 0.000000 1.666220 0.000000 
#    z 0.000000 0.000000 1.658080 
# 
# From -- ./inp_files/10730.got.cif
#   From: 2010.03.12/outbox.cif.g09.slc.cpg/sg131_6_cif.got.tgz:10730.got - 2010.04.06 17:36:35.
