data_PCOD8316298
_publ_section_title
;
Structure prediction by ZEFSAII (Michael W. Deem and Ramdas Pophale) SiO2 
 PCOD8316298
Probable space group: P 42/M M C
;
_chemical_formula_sum "Si O2"
_cell_formula_units_Z 96
_cell_length_a 14.709487
_cell_length_b 14.709487
_cell_length_c 29.144057
_cell_angle_alpha 90.000000
_cell_angle_beta 90.000000
_cell_angle_gamma 90.000000
_cell_volume 6305.870696
_symmetry_space_group_name_H-M "P 42/M M C"
_symmetry_group_IT_number 131
_symmetry_cell_setting 'tetragonal'
loop_
_space_group_symop_operation_xyz
x,y,z
-x,-y,z
-y,x,1/2+z
y,-x,1/2+z
-x,y,-z
x,-y,-z
y,x,1/2-z
-y,-x,1/2-z
-x,-y,-z
x,y,-z
y,-x,1/2-z
-y,x,1/2-z
x,-y,z
-x,y,z
-y,-x,1/2+z
y,x,1/2+z
loop_
_atom_site_type_symbol
_atom_site_label
_atom_site_fract_x
_atom_site_fract_y
_atom_site_fract_z
Si Si1 0.900677 0.603547 0.500000
Si Si2 0.343700 0.209117 0.088533
Si Si3 0.210988 0.102493 0.786655
Si Si4 0.602136 0.607423 0.552507
Si Si5 0.599061 0.896290 0.173183
Si Si6 0.893145 0.000000 0.448567
Si Si7 0.169393 0.104495 0.111046
O O1 0.925958 0.500000 0.500000
O O2 0.838926 0.623751 0.456953
O O3 0.000000 0.655385 0.500000
O O4 0.347846 0.319012 0.083899
O O5 0.404073 0.173374 0.130785
O O6 0.241732 0.178853 0.096847
O O7 0.172080 0.172080 0.750000
O O8 0.317912 0.127434 0.792892
O O9 0.154900 0.111818 0.834178
O O10 0.200719 0.000000 0.767794
O O11 0.614208 0.639732 0.500000
O O12 0.614107 0.500000 0.555577
O O13 0.500000 0.635030 0.569681
O O14 0.500000 0.888831 0.197937
O O15 0.614815 0.000000 0.154956
O O16 0.861951 0.915479 0.418282
O O17 0.849217 0.000000 0.500000
O O18 0.000000 0.000000 0.454280
O O19 0.196950 0.000000 0.098931
#
# Coordination Sequence:
#
# PCOD8316298 Si02
#       7
#     8  16  16  16  16   8  16
#     4  11  20  24  33  60  92 120 150 180 217 267
#     4  11  18  27  43  62  88 122 156 188 227 267
#     4   9  18  30  47  70  92 117 149 191 236 271
#     4   9  17  28  40  57  83 115 155 198 233 267
#     4   9  17  30  46  66  95 124 147 176 223 288
#     4   9  18  30  44  60  91 135 163 179 214 270
#     4   9  19  32  44  66  96 121 154 192 226 276
#
# _framework density 15.223909000000001
#
# number of rings (size 3 to 8) (size 9 to 14) (size 15 to 20)
#    0.000    2.500    0.833    4.500    2.333    1.500 
#    0.000    0.000    0.000    4.000    0.000    0.583 
#    0.000    2.000    0.000    0.000    0.000    0.000 
#
# Total GULP energy -1189399.826510 kJ/mol
# GULP energy per Si atom -12389.581526 kJ/mol
# Density = 1.518926 g / cm^3
# Si number density = 15.223909 Si / 1000 Ang^3
#
#
#
# Elastic Constant Matrix: (Units=GPa)
#
#
# Indices 1 2 3 4 5 6 
#
# 1 100.6675 33.7412 45.4266 0.0000 0.0000 0.0000
# 2 33.7412 100.6675 45.4266 0.0000 0.0000 0.0000
# 3 45.4266 45.4266 74.5304 0.0000 0.0000 0.0000
# 4 0.0000 0.0000 0.0000 25.7371 0.0000 0.0000
# 5 0.0000 0.0000 0.0000 0.0000 25.7371 0.0000
# 6 0.0000 0.0000 0.0000 0.0000 0.0000 20.7346
#
#
#
# Elastic Compliance Matrix: (Units=1/GPa)
#
#
# Indices 1 2 3 4 5 6 
#
# 1 0.013797 -0.001144 -0.007712 0.000000 0.000000 0.000000
# 2 -0.001144 0.013797 -0.007712 0.000000 0.000000 0.000000
# 3 -0.007712 -0.007712 0.022818 0.000000 0.000000 0.000000
# 4 0.000000 0.000000 0.000000 0.038854 0.000000 0.000000
# 5 0.000000 0.000000 0.000000 0.000000 0.038854 0.000000
# 6 0.000000 0.000000 0.000000 0.000000 0.000000 0.048229
#
#
# Mechanical properties :
#
#
# Convention : Reuss Voigt Hill
#
# Bulk Modulus (GPa) = 57.88328 58.33936 58.11132
# Shear Modulus (GPa) = 23.22924 24.52651 23.87787
#
# Velocity S-wave (km/s) = 3.91044 4.01815 3.96466
# Velocity P-wave (km/s) = 7.64804 7.74154 7.69493
#
# Compressibility (1/GPa) = 0.01727615
#
# Stress axis : x y z
#
# Youngs Moduli (GPa) = 72.47772 72.47772 43.82442
#
# Poissons Ratio (x) = 0.08295 0.33797
# Poissons Ratio (y) = 0.08295 0.33797
# Poissons Ratio (z) = 0.55895 0.55895
#
# Static dielectric constant tensor:
#      x y z
#    x 2.929390 0.000000 0.000000 
#    y 0.000000 2.929390 0.000000 
#    z 0.000000 0.000000 2.816530 
# 
# 
# High freq. dielectric constant tensor:
#      x y z
#    x 1.571090 0.000000 0.000000 
#    y 0.000000 1.571090 0.000000 
#    z 0.000000 0.000000 1.561740 
# 
# From -- ./inp_files/12391.got.cif
#   From: 2010.03.12/outbox.cif.g09.slc.cpg/sg131_7_cif.got.tgz:12391.got - 2010.04.06 17:36:35.
