data_PCOD8316234
_publ_section_title
;
Structure prediction by ZEFSAII (Michael W. Deem and Ramdas Pophale) SiO2 
 PCOD8316234
Probable space group: P 42/M M C
;
_chemical_formula_sum "Si O2"
_cell_formula_units_Z 104
_cell_length_a 25.970135
_cell_length_b 25.970135
_cell_length_c 9.078836
_cell_angle_alpha 90.000000
_cell_angle_beta 90.000000
_cell_angle_gamma 90.000000
_cell_volume 6123.201983
_symmetry_space_group_name_H-M "P 42/M M C"
_symmetry_group_IT_number 131
_symmetry_cell_setting 'tetragonal'
loop_
_space_group_symop_operation_xyz
x,y,z
-x,-y,z
-y,x,1/2+z
y,-x,1/2+z
-x,y,-z
x,-y,-z
y,x,1/2-z
-y,-x,1/2-z
-x,-y,-z
x,y,-z
y,-x,1/2-z
-y,x,1/2-z
x,-y,z
-x,y,z
-y,-x,1/2+z
y,x,1/2+z
loop_
_atom_site_type_symbol
_atom_site_label
_atom_site_fract_x
_atom_site_fract_y
_atom_site_fract_z
Si Si1 0.876314 0.580131 0.825227
Si Si2 0.055930 0.128533 0.166734
Si Si3 0.941656 0.750502 0.832595
Si Si4 0.331924 0.256003 0.170258
Si Si5 0.138694 0.684103 0.673051
Si Si6 0.939786 0.500000 0.664608
Si Si7 0.556420 0.226581 0.169903
O O1 0.882822 0.637590 0.768607
O O2 0.923729 0.549938 0.755962
O O3 0.823534 0.554532 0.770803
O O4 0.878631 0.577794 0.000000
O O5 0.101938 0.101938 0.250000
O O6 0.063698 0.188913 0.176715
O O7 0.000000 0.113560 0.233866
O O8 0.058174 0.109645 0.000000
O O9 0.897101 0.731211 0.722396
O O10 0.000000 0.733672 0.785191
O O11 0.931310 0.731672 0.000000
O O12 0.300641 0.300641 0.250000
O O13 0.308895 0.199523 0.210527
O O14 0.393110 0.260263 0.214310
O O15 0.324698 0.267290 0.000000
O O16 0.132021 0.673617 0.500000
O O17 0.915046 0.500000 0.500000
O O18 0.000000 0.500000 0.649995
O O19 0.500000 0.254676 0.189437
O O20 0.564063 0.209497 0.000000
#
# Coordination Sequence:
#
# PCOD8316234 Si02
#       7
#    16  16  16  16  16   8  16
#     4  11  21  33  51  74  97 123 163 210 255 300
#     4   9  19  35  53  74 100 127 155 192 241 296
#     4   9  19  36  54  72  96 125 160 205 254 300
#     4   9  19  33  49  74 105 138 170 207 255 303
#     4  10  21  36  53  73  98 133 173 206 251 308
#     4  11  23  37  51  67  93 129 165 207 258 305
#     4   9  17  32  54  74  99 135 172 208 251 304
#
# _framework density 16.984577000000002
#
# number of rings (size 3 to 8) (size 9 to 14) (size 15 to 20)
#    0.000    2.385    0.769    3.923    0.000    6.308 
#    0.000    5.385    0.000    0.000    0.000    0.000 
#    0.000    0.308    0.000    3.846    0.000    0.000 
#
# Total GULP energy -1288798.504430 kJ/mol
# GULP energy per Si atom -12392.293312 kJ/mol
# Density = 1.694592 g / cm^3
# Si number density = 16.984577 Si / 1000 Ang^3
#
#
#
# Elastic Constant Matrix: (Units=GPa)
#
#
# Indices 1 2 3 4 5 6 
#
# 1 83.6440 55.7119 43.3063 0.0000 0.0000 0.0000
# 2 55.7119 83.6440 43.3063 0.0000 0.0000 0.0000
# 3 43.3063 43.3063 95.9782 0.0000 0.0000 0.0000
# 4 0.0000 0.0000 0.0000 44.1157 0.0000 0.0000
# 5 0.0000 0.0000 0.0000 0.0000 44.1157 0.0000
# 6 0.0000 0.0000 0.0000 0.0000 0.0000 24.8104
#
#
#
# Elastic Compliance Matrix: (Units=1/GPa)
#
#
# Indices 1 2 3 4 5 6 
#
# 1 0.022887 -0.012914 -0.004500 0.000000 0.000000 0.000000
# 2 -0.012914 0.022887 -0.004500 0.000000 0.000000 0.000000
# 3 -0.004500 -0.004500 0.014480 0.000000 0.000000 0.000000
# 4 0.000000 0.000000 0.000000 0.022668 0.000000 0.000000
# 5 0.000000 0.000000 0.000000 0.000000 0.022668 0.000000
# 6 0.000000 0.000000 0.000000 0.000000 0.000000 0.040306
#
#
# Mechanical properties :
#
#
# Convention : Reuss Voigt Hill
#
# Bulk Modulus (GPa) = 60.87945 60.87946 60.87945
# Shear Modulus (GPa) = 25.61513 30.67113 28.14313
#
# Velocity S-wave (km/s) = 3.88769 4.25411 4.07502
# Velocity P-wave (km/s) = 7.48826 7.74930 7.61990
#
# Compressibility (1/GPa) = 0.01642590
#
# Stress axis : x y z
#
# Youngs Moduli (GPa) = 43.69324 43.69324 69.06244
#
# Poissons Ratio (x) = 0.56427 0.31076
# Poissons Ratio (y) = 0.56427 0.31076
# Poissons Ratio (z) = 0.19661 0.19661
#
# Static dielectric constant tensor:
#      x y z
#    x 3.170380 0.000000 0.000000 
#    y 0.000000 3.170380 0.000000 
#    z 0.000000 0.000000 3.217640 
# 
# 
# High freq. dielectric constant tensor:
#      x y z
#    x 1.643400 0.000000 0.000000 
#    y 0.000000 1.643400 0.000000 
#    z 0.000000 0.000000 1.659080 
# 
# From -- ./inp_files/2566.got.cif
#   From: 2010.03.12/outbox.cif.g09.slc.cpg/sg131_2_cif.got.tgz:2566.got - 2010.04.06 17:36:35.
