data_PCOD8316922
_publ_section_title
;
Structure prediction by ZEFSAII (Michael W. Deem and Ramdas Pophale) SiO2 
 PCOD8316922
Probable space group: P 42/N B C
;
_chemical_formula_sum "Si O2"
_cell_formula_units_Z 88
_cell_length_a 14.768886
_cell_length_b 14.768886
_cell_length_c 20.840899
_cell_angle_alpha 90.000000
_cell_angle_beta 90.000000
_cell_angle_gamma 90.000000
_cell_volume 4545.816758
_symmetry_space_group_name_H-M "P 42/N B C"
_symmetry_group_IT_number 133
_space_group.IT_coordinate_system_code '2'
_symmetry_cell_setting 'tetragonal'
loop_
_space_group_symop_operation_xyz
x,y,z
1/2-y,x,1/2+z
1/2-x,1/2-y,z
y,1/2-x,1/2+z
x,1/2-y,-z
1/2-x,y,-z
y,x,1/2-z
1/2-y,1/2-x,1/2-z
-x,-y,-z
1/2+y,-x,1/2-z
1/2+x,1/2+y,-z
-y,1/2+x,1/2-z
-x,1/2+y,z
1/2+x,-y,z
-y,-x,1/2+z
1/2+y,1/2+x,1/2+z
loop_
_atom_site_type_symbol
_atom_site_label
_atom_site_fract_x
_atom_site_fract_y
_atom_site_fract_z
Si Si1 0.908363 0.585196 0.559916
Si Si2 0.251766 0.895560 0.261762
Si Si3 0.413159 0.485865 0.079462
Si Si4 0.717018 0.012375 0.862777
Si Si5 0.150186 0.940886 0.385866
Si Si6 0.750000 0.992242 0.500000
O O1 0.963008 0.607234 0.494713
O O2 0.802848 0.578521 0.545320
O O3 0.932749 0.484713 0.585062
O O4 0.922535 0.664153 0.613090
O O5 0.338821 0.830847 0.269895
O O6 0.275644 0.979106 0.214326
O O7 0.224860 0.938209 0.329875
O O8 0.318278 0.515305 0.109905
O O9 0.464243 0.405410 0.119021
O O10 0.652056 0.093645 0.886368
O O11 0.191855 0.940338 0.456682
#
# Coordination Sequence:
#
# PCOD8316922 Si02
#       6
#    16  16  16  16  16   8
#     4   9  19  34  51  82 113 140 189 238 283 334
#     4   9  19  35  54  81 118 147 183 239 291 345
#     4   9  18  34  54  78 112 145 185 236 275 346
#     4  10  19  35  58  78 110 154 187 231 286 354
#     4   9  20  37  54  82 116 145 189 237 292 338
#     4  10  20  36  56  76 118 150 182 252 286 336
#
# _framework density 19.358459
#
# number of rings (size 3 to 8) (size 9 to 14) (size 15 to 20)
#    0.000    2.727    0.000    1.636    2.545    0.727 
#    0.000    9.091    0.000    0.000    0.000    5.091 
#    0.000    0.000    0.000    0.000    0.000    0.000 
#
# Total GULP energy -1090157.020092 kJ/mol
# GULP energy per Si atom -12388.147956 kJ/mol
# Density = 1.931440 g / cm^3
# Si number density = 19.358459 Si / 1000 Ang^3
#
#
#
# Elastic Constant Matrix: (Units=GPa)
#
#
# Indices 1 2 3 4 5 6 
#
# 1 90.4431 28.6013 39.5717 0.0000 0.0000 0.0000
# 2 28.6013 90.4431 39.5717 0.0000 0.0000 0.0000
# 3 39.5717 39.5717 82.8972 0.0000 0.0000 0.0000
# 4 0.0000 0.0000 0.0000 33.2260 0.0000 0.0000
# 5 0.0000 0.0000 0.0000 0.0000 33.2260 0.0000
# 6 0.0000 0.0000 0.0000 0.0000 0.0000 10.1102
#
#
#
# Elastic Compliance Matrix: (Units=1/GPa)
#
#
# Indices 1 2 3 4 5 6 
#
# 1 0.014238 -0.001932 -0.005874 0.000000 0.000000 0.000000
# 2 -0.001932 0.014238 -0.005874 0.000000 0.000000 0.000000
# 3 -0.005874 -0.005874 0.017671 0.000000 0.000000 0.000000
# 4 0.000000 0.000000 0.000000 0.030097 0.000000 0.000000
# 5 0.000000 0.000000 0.000000 0.000000 0.030097 0.000000
# 6 0.000000 0.000000 0.000000 0.000000 0.000000 0.098910
#
#
# Mechanical properties :
#
#
# Convention : Reuss Voigt Hill
#
# Bulk Modulus (GPa) = 53.23195 53.25254 53.24224
# Shear Modulus (GPa) = 20.93155 25.71503 23.32329
#
# Velocity S-wave (km/s) = 3.29182 3.64862 3.47480
# Velocity P-wave (km/s) = 6.48119 6.73189 6.60773
#
# Compressibility (1/GPa) = 0.01878571
#
# Stress axis : x y z
#
# Youngs Moduli (GPa) = 70.23517 70.23517 56.58902
#
# Poissons Ratio (x) = 0.13572 0.33241
# Poissons Ratio (y) = 0.13572 0.33241
# Poissons Ratio (z) = 0.41257 0.41257
#
# Static dielectric constant tensor:
#      x y z
#    x 3.533340 0.000000 0.000000 
#    y 0.000000 3.533340 0.000000 
#    z 0.000000 0.000000 3.646530 
# 
# 
# High freq. dielectric constant tensor:
#      x y z
#    x 1.742020 0.000000 0.000000 
#    y 0.000000 1.742020 0.000000 
#    z 0.000000 0.000000 1.746490 
# 
# From -- ./inp_files/7142.got.cif
#   From: 2010.03.12/outbox.cif.g09.slc.cpg/sg133_4_cif.got.tgz:7142.got - 2010.04.06 18:08:06.
