data_PCOD8316441
_publ_section_title
;
Structure prediction by ZEFSAII (Michael W. Deem and Ramdas Pophale) SiO2 
 PCOD8316441
Probable space group: P 42/M C M
;
_chemical_formula_sum "Si O2"
_cell_formula_units_Z 112
_cell_length_a 21.827564
_cell_length_b 21.827564
_cell_length_c 17.899871
_cell_angle_alpha 90.000000
_cell_angle_beta 90.000000
_cell_angle_gamma 90.000000
_cell_volume 8528.260187
_symmetry_space_group_name_H-M "P 42/M C M"
_symmetry_group_IT_number 132
_symmetry_cell_setting 'tetragonal'
loop_
_space_group_symop_operation_xyz
x,y,z
-y,x,1/2+z
-x,-y,z
y,-x,1/2+z
x,-y,1/2-z
-x,y,1/2-z
y,x,-z
-y,-x,-z
-x,-y,-z
y,-x,1/2-z
x,y,-z
-y,x,1/2-z
-x,y,1/2+z
x,-y,1/2+z
-y,-x,z
y,x,z
loop_
_atom_site_type_symbol
_atom_site_label
_atom_site_fract_x
_atom_site_fract_y
_atom_site_fract_z
Si Si1 0.573942 0.938372 0.837043
Si Si2 0.927705 0.571236 0.669807
Si Si3 0.562148 0.808479 0.414552
Si Si4 0.293010 0.610744 0.331343
Si Si5 0.316645 0.414200 0.666212
Si Si6 0.476365 0.378703 0.086771
Si Si7 0.582538 0.820177 0.084282
O O1 0.501312 0.932459 0.834183
O O2 0.596810 0.921506 0.753843
O O3 0.600756 0.889938 0.896133
O O4 0.595549 0.006657 0.862079
O O5 0.868356 0.593187 0.623434
O O6 0.582329 0.809778 0.500000
O O7 0.587239 0.746244 0.379100
O O8 0.489446 0.809065 0.404969
O O9 0.321688 0.678313 0.324282
O O10 0.300719 0.574095 0.253365
O O11 0.326111 0.573008 0.397006
O O12 0.222879 0.617795 0.356651
O O13 0.348202 0.348202 0.656053
O O14 0.365742 0.464578 0.637717
O O15 0.445173 0.445173 0.104811
O O16 0.495545 0.375124 0.000000
O O17 0.603604 0.806566 0.000000
#
# Coordination Sequence:
#
# PCOD8316441 Si02
#       7
#    16  16  16  16  16  16  16
#     4   8  14  24  39  58  76  97 120 141 166 202
#     4   8  14  25  39  55  77 100 119 139 167 205
#     4  10  19  28  40  57  75  97 117 142 181 217
#     4  10  20  32  45  58  72  93 119 148 182 224
#     4  11  22  33  45  58  71  92 122 152 184 225
#     4  10  20  33  47  60  72  86 108 143 190 236
#     4  10  18  27  42  60  76  95 117 145 182 218
#
# _framework density 13.132808000000001
#
# number of rings (size 3 to 8) (size 9 to 14) (size 15 to 20)
#    0.000    2.429    1.429    3.000    0.000    4.000 
#    0.000    3.571    0.000    2.571    0.000    0.000 
#    0.000    0.000    0.000    0.000    0.000    0.000 
#
# Total GULP energy -1388002.118778 kJ/mol
# GULP energy per Si atom -12392.876061 kJ/mol
# Density = 1.310292 g / cm^3
# Si number density = 13.132808 Si / 1000 Ang^3
#
#
#
# Elastic Constant Matrix: (Units=GPa)
#
#
# Indices 1 2 3 4 5 6 
#
# 1 64.2556 28.6424 39.1749 0.0000 0.0000 0.0000
# 2 28.6424 64.2556 39.1749 0.0000 0.0000 0.0000
# 3 39.1749 39.1749 88.7863 0.0000 0.0000 0.0000
# 4 0.0000 0.0000 0.0000 16.0094 0.0000 0.0000
# 5 0.0000 0.0000 0.0000 0.0000 16.0094 0.0000
# 6 0.0000 0.0000 0.0000 0.0000 0.0000 5.4903
#
#
#
# Elastic Compliance Matrix: (Units=1/GPa)
#
#
# Indices 1 2 3 4 5 6 
#
# 1 0.022612 -0.005468 -0.007565 0.000000 0.000000 0.000000
# 2 -0.005468 0.022612 -0.007565 0.000000 0.000000 0.000000
# 3 -0.007565 -0.007565 0.017938 0.000000 0.000000 0.000000
# 4 0.000000 0.000000 0.000000 0.062463 0.000000 0.000000
# 5 0.000000 0.000000 0.000000 0.000000 0.062463 0.000000
# 6 0.000000 0.000000 0.000000 0.000000 0.000000 0.182140
#
#
# Mechanical properties :
#
#
# Convention : Reuss Voigt Hill
#
# Bulk Modulus (GPa) = 45.51884 47.92020 46.71952
# Shear Modulus (GPa) = 11.94045 14.85551 13.39798
#
# Velocity S-wave (km/s) = 3.01858 3.36694 3.19751
# Velocity P-wave (km/s) = 6.84724 7.18910 7.02025
#
# Compressibility (1/GPa) = 0.02196893
#
# Stress axis : x y z
#
# Youngs Moduli (GPa) = 44.22442 44.22442 55.74638
#
# Poissons Ratio (x) = 0.24180 0.42170
# Poissons Ratio (y) = 0.24180 0.42170
# Poissons Ratio (z) = 0.33454 0.33454
#
# Static dielectric constant tensor:
#      x y z
#    x 2.551010 0.000000 0.000000 
#    y 0.000000 2.551010 0.000000 
#    z 0.000000 0.000000 2.769690 
# 
# 
# High freq. dielectric constant tensor:
#      x y z
#    x 1.463110 0.000000 0.000000 
#    y 0.000000 1.463110 0.000000 
#    z 0.000000 0.000000 1.514290 
# 
# From -- ./inp_files/6759.got.cif
#   From: 2010.03.12/outbox.cif.g09.slc.cpg/sg132_4_cif.got.tgz:6759.got - 2010.04.06 17:53:44.
