data_PCOD8316330
_publ_section_title
;
Structure prediction by ZEFSAII (Michael W. Deem and Ramdas Pophale) SiO2 
 PCOD8316330
Probable space group: P 42/M M C
;
_chemical_formula_sum "Si O2"
_cell_formula_units_Z 96
_cell_length_a 23.884787
_cell_length_b 23.884787
_cell_length_c 9.379021
_cell_angle_alpha 90.000000
_cell_angle_beta 90.000000
_cell_angle_gamma 90.000000
_cell_volume 5350.572506
_symmetry_space_group_name_H-M "P 42/M M C"
_symmetry_group_IT_number 131
_symmetry_cell_setting 'tetragonal'
loop_
_space_group_symop_operation_xyz
x,y,z
-x,-y,z
-y,x,1/2+z
y,-x,1/2+z
-x,y,-z
x,-y,-z
y,x,1/2-z
-y,-x,1/2-z
-x,-y,-z
x,y,-z
y,-x,1/2-z
-y,x,1/2-z
x,-y,z
-x,y,z
-y,-x,1/2+z
y,x,1/2+z
loop_
_atom_site_type_symbol
_atom_site_label
_atom_site_fract_x
_atom_site_fract_y
_atom_site_fract_z
Si Si1 0.142752 0.064286 0.166340
Si Si2 0.934644 0.436595 0.839097
Si Si3 0.853243 0.362653 0.331168
Si Si4 0.769544 0.436602 0.836163
Si Si5 0.640202 0.438144 0.835451
Si Si6 0.155020 0.766524 0.666223
O O1 0.090133 0.090133 0.250000
O O2 0.199427 0.098313 0.203451
O O3 0.151689 0.000000 0.213668
O O4 0.128695 0.068554 0.000000
O O5 0.920618 0.500000 0.790324
O O6 0.907910 0.392159 0.732378
O O7 0.000000 0.425761 0.835135
O O8 0.911792 0.427366 0.000000
O O9 0.853470 0.369763 0.500000
O O10 0.799195 0.392926 0.267207
O O11 0.853529 0.297566 0.286424
O O12 0.791446 0.500000 0.809437
O O13 0.704886 0.432808 0.797749
O O14 0.780450 0.419866 0.000000
O O15 0.608118 0.391883 0.750000
O O16 0.618760 0.500000 0.793141
O O17 0.629352 0.426923 0.000000
O O18 0.207606 0.792395 0.750000
O O19 0.169336 0.770688 0.500000
#
# Coordination Sequence:
#
# PCOD8316330 Si02
#       6
#    16  16  16  16  16  16
#     4   9  18  34  55  76 101 134 167 200 241 288
#     4   9  19  36  55  75 103 139 175 209 248 299
#     4  11  22  33  51  80 106 130 167 214 261 305
#     4   9  19  36  54  71  97 134 171 207 250 302
#     4   9  19  35  53  74 100 131 167 206 252 306
#     4   9  20  37  53  72 101 136 171 207 249 296
#
# _framework density 17.942005000000002
#
# number of rings (size 3 to 8) (size 9 to 14) (size 15 to 20)
#    0.000    2.667    0.000    2.500    0.000    7.333 
#    0.000    9.167    0.000    0.000    0.000    0.000 
#    0.000    0.000    0.000    0.000    0.000    0.000 
#
# Total GULP energy -1190316.862879 kJ/mol
# GULP energy per Si atom -12399.133988 kJ/mol
# Density = 1.790117 g / cm^3
# Si number density = 17.942005 Si / 1000 Ang^3
#
#
#
# Elastic Constant Matrix: (Units=GPa)
#
#
# Indices 1 2 3 4 5 6 
#
# 1 108.3722 66.1403 50.1665 0.0000 0.0000 0.0000
# 2 66.1403 108.3412 50.1186 0.0000 0.0000 0.0000
# 3 50.1665 50.1186 62.1036 0.0000 0.0000 0.0000
# 4 0.0000 0.0000 0.0000 34.5226 0.0000 0.0000
# 5 0.0000 0.0000 0.0000 0.0000 34.5220 0.0000
# 6 0.0000 0.0000 0.0000 0.0000 0.0000 30.4202
#
#
#
# Elastic Compliance Matrix: (Units=1/GPa)
#
#
# Indices 1 2 3 4 5 6 
#
# 1 0.017196 -0.006498 -0.008647 0.000000 0.000000 0.000000
# 2 -0.006498 0.017184 -0.008619 0.000000 0.000000 0.000000
# 3 -0.008647 -0.008619 0.030043 0.000000 0.000000 0.000000
# 4 0.000000 0.000000 0.000000 0.028967 0.000000 0.000000
# 5 0.000000 0.000000 0.000000 0.000000 0.028967 0.000000
# 6 0.000000 0.000000 0.000000 0.000000 0.000000 0.032873
#
#
# Mechanical properties :
#
#
# Convention : Reuss Voigt Hill
#
# Bulk Modulus (GPa) = 59.18782 67.96310 63.57546
# Shear Modulus (GPa) = 23.99380 27.38574 25.68977
#
# Velocity S-wave (km/s) = 3.66087 3.91109 3.78805
# Velocity P-wave (km/s) = 7.13648 7.63918 7.39210
#
# Compressibility (1/GPa) = 0.01689537
#
# Stress axis : x y z
#
# Youngs Moduli (GPa) = 58.15413 58.19390 33.28612
#
# Poissons Ratio (x) = 0.37812 0.28782
# Poissons Ratio (y) = 0.37787 0.28689
# Poissons Ratio (z) = 0.50284 0.50157
#
# Static dielectric constant tensor:
#      x y z
#    x 3.341260 0.000000 0.000000 
#    y 0.000000 3.341260 0.000000 
#    z 0.000000 0.000000 3.260930 
# 
# 
# High freq. dielectric constant tensor:
#      x y z
#    x 1.698340 0.000000 0.000000 
#    y 0.000000 1.698340 0.000000 
#    z 0.000000 0.000000 1.689790 
# 
# From -- ./inp_files/2214.got.cif
#   From: 2010.03.12/outbox.cif.g09.slc.cpg/sg131_2_cif.got.tgz:2214.got - 2010.04.06 17:36:35.
