data_PCOD8316638
_publ_section_title
;
Structure prediction by ZEFSAII (Michael W. Deem and Ramdas Pophale) SiO2 
 PCOD8316638
Probable space group: P 42/M C M
;
_chemical_formula_sum "Si O2"
_cell_formula_units_Z 112
_cell_length_a 30.084424
_cell_length_b 30.084424
_cell_length_c 10.098478
_cell_angle_alpha 90.000000
_cell_angle_beta 90.000000
_cell_angle_gamma 90.000000
_cell_volume 9139.855410
_symmetry_space_group_name_H-M "P 42/M C M"
_symmetry_group_IT_number 132
_symmetry_cell_setting 'tetragonal'
loop_
_space_group_symop_operation_xyz
x,y,z
-y,x,1/2+z
-x,-y,z
y,-x,1/2+z
x,-y,1/2-z
-x,y,1/2-z
y,x,-z
-y,-x,-z
-x,-y,-z
y,-x,1/2-z
x,y,-z
-y,x,1/2-z
-x,y,1/2+z
x,-y,1/2+z
-y,-x,z
y,x,z
loop_
_atom_site_type_symbol
_atom_site_label
_atom_site_fract_x
_atom_site_fract_y
_atom_site_fract_z
Si Si1 0.932166 0.461043 0.152861
Si Si2 0.248397 0.822050 0.651064
Si Si3 0.252875 0.322301 0.855143
Si Si4 0.039245 0.638785 0.845439
Si Si5 0.127211 0.693994 0.846955
Si Si6 0.533627 0.170580 0.854751
Si Si7 0.792996 0.370713 0.145402
O O1 0.951348 0.500000 0.250000
O O2 0.951855 0.412935 0.188868
O O3 0.880113 0.455397 0.179442
O O4 0.942425 0.474067 0.000000
O O5 0.247043 0.840618 0.500000
O O6 0.200087 0.799914 0.687254
O O7 0.284074 0.783279 0.663599
O O8 0.263243 0.861508 0.752717
O O9 0.301626 0.301626 0.836901
O O10 0.246432 0.360244 0.746758
O O11 0.248129 0.344035 0.000000
O O12 0.080000 0.671786 0.812777
O O13 0.000000 0.655402 0.750000
O O14 0.026172 0.643128 0.000000
O O15 0.162044 0.654938 0.818098
O O16 0.128882 0.709866 0.000000
O O17 0.500000 0.191547 0.750000
O O18 0.577453 0.199305 0.847426
O O19 0.511869 0.173790 0.000000
O O20 0.776897 0.356180 0.000000
#
# Coordination Sequence:
#
# PCOD8316638 Si02
#       7
#    16  16  16  16  16  16  16
#     4   9  17  30  43  52  64  80 103 139 180 218
#     4   8  14  24  37  54  74  90 104 126 155 189
#     4   8  14  23  33  48  70  89 103 122 149 185
#     4  10  20  32  42  52  68  88 111 142 177 213
#     4   9  16  27  40  52  68  88 109 134 164 199
#     4   9  16  26  38  51  65  81 103 134 170 206
#     4   9  15  24  38  51  64  83 105 130 162 197
#
# _framework density 12.254023999999999
#
# number of rings (size 3 to 8) (size 9 to 14) (size 15 to 20)
#    0.000    3.143    1.429    0.857    0.000    2.571 
#    0.000    4.286    0.000    0.000    0.000    0.000 
#    0.000    0.000    0.000    0.000    0.000    0.000 
#
# Total GULP energy -1387787.050015 kJ/mol
# GULP energy per Si atom -12390.955804 kJ/mol
# Density = 1.222613 g / cm^3
# Si number density = 12.254024 Si / 1000 Ang^3
#
#
#
# Elastic Constant Matrix: (Units=GPa)
#
#
# Indices 1 2 3 4 5 6 
#
# 1 37.4762 29.8344 41.7001 0.0000 0.0000 0.0000
# 2 29.8344 37.4762 41.7001 0.0000 0.0000 0.0000
# 3 41.7001 41.7001 90.2692 0.0000 0.0000 0.0000
# 4 0.0000 0.0000 0.0000 20.3161 0.0000 0.0000
# 5 0.0000 0.0000 0.0000 0.0000 20.3161 0.0000
# 6 0.0000 0.0000 0.0000 0.0000 0.0000 13.5213
#
#
#
# Elastic Compliance Matrix: (Units=1/GPa)
#
#
# Indices 1 2 3 4 5 6 
#
# 1 0.082801 -0.048059 -0.016049 0.000000 0.000000 0.000000
# 2 -0.048059 0.082801 -0.016049 0.000000 0.000000 0.000000
# 3 -0.016049 -0.016049 0.025906 0.000000 0.000000 0.000000
# 4 0.000000 0.000000 0.000000 0.049222 0.000000 0.000000
# 5 0.000000 0.000000 0.000000 0.000000 0.049222 0.000000
# 6 0.000000 0.000000 0.000000 0.000000 0.000000 0.073957
#
#
# Mechanical properties :
#
#
# Convention : Reuss Voigt Hill
#
# Bulk Modulus (GPa) = 32.05821 43.52120 37.78971
# Shear Modulus (GPa) = 9.35242 14.29648 11.82445
#
# Velocity S-wave (km/s) = 2.76563 3.41937 3.10973
# Velocity P-wave (km/s) = 6.03460 7.15419 6.61811
#
# Compressibility (1/GPa) = 0.03119326
#
# Stress axis : x y z
#
# Youngs Moduli (GPa) = 12.07720 12.07720 38.60112
#
# Poissons Ratio (x) = 0.58041 0.61952
# Poissons Ratio (y) = 0.58041 0.61952
# Poissons Ratio (z) = 0.19383 0.19383
#
# Static dielectric constant tensor:
#      x y z
#    x 2.384930 0.000000 0.000000 
#    y 0.000000 2.384930 0.000000 
#    z 0.000000 0.000000 2.773210 
# 
# 
# High freq. dielectric constant tensor:
#      x y z
#    x 1.428820 0.000000 0.000000 
#    y 0.000000 1.428820 0.000000 
#    z 0.000000 0.000000 1.479230 
# 
# From -- ./inp_files/3540.got.cif
#   From: 2010.03.12/outbox.cif.g09.slc.cpg/sg132_2_cif.got.tgz:3540.got - 2010.04.06 17:53:44.
