data_PCOD8316416
_publ_section_title
;
Structure prediction by ZEFSAII (Michael W. Deem and Ramdas Pophale) SiO2 
 PCOD8316416
Probable space group: P 42/M C M
;
_chemical_formula_sum "Si O2"
_cell_formula_units_Z 96
_cell_length_a 25.222449
_cell_length_b 25.222449
_cell_length_c 8.932195
_cell_angle_alpha 90.000000
_cell_angle_beta 90.000000
_cell_angle_gamma 90.000000
_cell_volume 5682.411764
_symmetry_space_group_name_H-M "P 42/M C M"
_symmetry_group_IT_number 132
_symmetry_cell_setting 'tetragonal'
loop_
_space_group_symop_operation_xyz
x,y,z
-y,x,1/2+z
-x,-y,z
y,-x,1/2+z
x,-y,1/2-z
-x,y,1/2-z
y,x,-z
-y,-x,-z
-x,-y,-z
y,-x,1/2-z
x,y,-z
-y,x,1/2-z
-x,y,1/2+z
x,-y,1/2+z
-y,-x,z
y,x,z
loop_
_atom_site_type_symbol
_atom_site_label
_atom_site_fract_x
_atom_site_fract_y
_atom_site_fract_z
Si Si1 0.446034 0.759110 0.675457
Si Si2 0.361302 0.445952 0.823615
Si Si3 0.950765 0.358617 0.173773
Si Si4 0.635346 0.833574 0.671111
Si Si5 0.051911 0.755447 0.322727
Si Si6 0.242940 0.156965 0.674197
O O1 0.500000 0.780182 0.750000
O O2 0.453785 0.763149 0.500000
O O3 0.434065 0.698929 0.726975
O O4 0.396994 0.795062 0.722557
O O5 0.382249 0.500000 0.750000
O O6 0.397538 0.397538 0.766425
O O7 0.365375 0.452811 0.000000
O O8 0.893818 0.387277 0.189794
O O9 0.947310 0.304763 0.266962
O O10 0.000000 0.391477 0.250000
O O11 0.962880 0.346637 0.000000
O O12 0.628777 0.814814 0.500000
O O13 0.696667 0.830358 0.720946
O O14 0.048552 0.759570 0.500000
O O15 0.106919 0.781133 0.264955
O O16 0.000000 0.783984 0.250000
O O17 0.240894 0.141928 0.500000
O O18 0.208298 0.208298 0.713150
#
# Coordination Sequence:
#
# PCOD8316416 Si02
#       6
#    16  16  16  16  16  16
#     4  10  20  34  52  70  91 122 157 193 229 269
#     4   9  19  35  52  72  97 121 148 184 225 269
#     4   9  16  27  44  66  92 120 152 191 233 277
#     4   9  18  31  47  69  95 123 155 190 231 279
#     4  10  17  26  42  63  89 122 161 199 234 276
#     4   9  18  32  47  66  97 131 158 190 235 283
#
# _framework density 16.894235999999999
#
# number of rings (size 3 to 8) (size 9 to 14) (size 15 to 20)
#    0.000    2.667    0.000    4.500    0.000    5.500 
#    0.000    0.833    0.000    0.500    0.000    3.500 
#    0.000    0.333    0.000    3.500    0.000    1.667 
#
# Total GULP energy -1189879.942606 kJ/mol
# GULP energy per Si atom -12394.582735 kJ/mol
# Density = 1.685578 g / cm^3
# Si number density = 16.894236 Si / 1000 Ang^3
#
#
#
# Elastic Constant Matrix: (Units=GPa)
#
#
# Indices 1 2 3 4 5 6 
#
# 1 92.7002 58.1192 42.9465 0.0000 0.0000 0.0000
# 2 58.1192 92.7002 42.9465 0.0000 0.0000 0.0000
# 3 42.9465 42.9465 85.2798 0.0000 0.0000 0.0000
# 4 0.0000 0.0000 0.0000 26.4505 0.0000 0.0000
# 5 0.0000 0.0000 0.0000 0.0000 26.4505 0.0000
# 6 0.0000 0.0000 0.0000 0.0000 0.0000 2.6611
#
#
#
# Elastic Compliance Matrix: (Units=1/GPa)
#
#
# Indices 1 2 3 4 5 6 
#
# 1 0.019107 -0.009810 -0.004682 0.000000 0.000000 0.000000
# 2 -0.009810 0.019107 -0.004682 0.000000 0.000000 0.000000
# 3 -0.004682 -0.004682 0.016442 0.000000 0.000000 0.000000
# 4 0.000000 0.000000 0.000000 0.037806 0.000000 0.000000
# 5 0.000000 0.000000 0.000000 0.000000 0.037806 0.000000
# 6 0.000000 0.000000 0.000000 0.000000 0.000000 0.375782
#
#
# Mechanical properties :
#
#
# Convention : Reuss Voigt Hill
#
# Bulk Modulus (GPa) = 61.32001 62.07829 61.69915
# Shear Modulus (GPa) = 9.09364 19.55696 14.32530
#
# Velocity S-wave (km/s) = 2.32258 3.40606 2.91510
# Velocity P-wave (km/s) = 6.60058 7.23141 6.92319
#
# Compressibility (1/GPa) = 0.01630789
#
# Stress axis : x y z
#
# Youngs Moduli (GPa) = 52.33635 52.33635 60.82139
#
# Poissons Ratio (x) = 0.51344 0.28475
# Poissons Ratio (y) = 0.51344 0.28475
# Poissons Ratio (z) = 0.24503 0.24503
#
# Static dielectric constant tensor:
#      x y z
#    x 3.336890 0.000000 0.000000 
#    y 0.000000 3.336890 0.000000 
#    z 0.000000 0.000000 3.209850 
# 
# 
# High freq. dielectric constant tensor:
#      x y z
#    x 1.633240 0.000000 0.000000 
#    y 0.000000 1.633240 0.000000 
#    z 0.000000 0.000000 1.658360 
# 
# From -- ./inp_files/1755.got.cif
#   From: 2010.03.12/outbox.cif.g09.slc.cpg/sg132_1_cif.got.tgz:1755.got - 2010.04.06 17:53:44.
