data_PCOD8316424
_publ_section_title
;
Structure prediction by ZEFSAII (Michael W. Deem and Ramdas Pophale) SiO2 
 PCOD8316424
Probable space group: P 42/M C M
;
_chemical_formula_sum "Si O2"
_cell_formula_units_Z 112
_cell_length_a 19.182460
_cell_length_b 19.182460
_cell_length_c 19.169203
_cell_angle_alpha 90.000000
_cell_angle_beta 90.000000
_cell_angle_gamma 90.000000
_cell_volume 7053.629743
_symmetry_space_group_name_H-M "P 42/M C M"
_symmetry_group_IT_number 132
_symmetry_cell_setting 'tetragonal'
loop_
_space_group_symop_operation_xyz
x,y,z
-y,x,1/2+z
-x,-y,z
y,-x,1/2+z
x,-y,1/2-z
-x,y,1/2-z
y,x,-z
-y,-x,-z
-x,-y,-z
y,-x,1/2-z
x,y,-z
-y,x,1/2-z
-x,y,1/2+z
x,-y,1/2+z
-y,-x,z
y,x,z
loop_
_atom_site_type_symbol
_atom_site_label
_atom_site_fract_x
_atom_site_fract_y
_atom_site_fract_z
Si Si1 0.292455 0.185686 0.144359
Si Si2 0.132540 0.434520 0.160185
Si Si3 0.048652 0.238112 0.078774
Si Si4 0.156067 0.041101 0.679400
Si Si5 0.266630 0.841218 0.196758
Si Si6 0.120176 0.415997 0.681335
Si Si7 0.609033 0.002123 0.580302
O O1 0.261328 0.261328 0.124361
O O2 0.376854 0.191148 0.140342
O O3 0.257376 0.128453 0.094830
O O4 0.269804 0.163764 0.220893
O O5 0.100115 0.415990 0.236595
O O6 0.164210 0.513314 0.162692
O O7 0.074506 0.427206 0.100731
O O8 0.018047 0.172971 0.122208
O O9 0.003436 0.307855 0.090923
O O10 0.044509 0.212485 0.000000
O O11 0.088821 0.088821 0.660022
O O12 0.225614 0.087642 0.682438
O O13 0.140127 0.000000 0.750000
O O14 0.224666 0.775335 0.164812
O O15 0.344132 0.839779 0.162855
O O16 0.052836 0.423005 0.633490
O O17 0.589969 0.984779 0.500000
#
# Coordination Sequence:
#
# PCOD8316424 Si02
#       7
#    16  16  16  16  16  16  16
#     4   9  17  31  48  65  87 113 146 183 220 264
#     4   9  19  28  43  67  88 113 145 179 215 259
#     4  10  20  32  47  67  89 116 149 186 229 272
#     4  11  21  34  51  68  86 111 151 197 235 273
#     4   9  17  29  49  68  83 113 149 181 219 265
#     4  10  17  29  45  64  90 114 142 180 217 255
#     4  10  19  29  41  62  91 120 146 173 211 264
#
# _framework density 15.878349999999999
#
# number of rings (size 3 to 8) (size 9 to 14) (size 15 to 20)
#    0.000    2.286    2.857    0.857    0.000    3.000 
#    0.000    0.000    0.000    0.429    0.000    2.000 
#    0.000    0.571    0.000    8.000    0.000    0.000 
#
# Total GULP energy -1387578.676930 kJ/mol
# GULP energy per Si atom -12389.095330 kJ/mol
# Density = 1.584221 g / cm^3
# Si number density = 15.878350 Si / 1000 Ang^3
#
#
#
# Elastic Constant Matrix: (Units=GPa)
#
#
# Indices 1 2 3 4 5 6 
#
# 1 79.5414 40.9728 20.6286 0.0000 0.0000 0.0000
# 2 40.9728 79.5414 20.6286 0.0000 0.0000 0.0000
# 3 20.6286 20.6286 51.6026 0.0000 0.0000 0.0000
# 4 0.0000 0.0000 0.0000 8.5334 0.0000 0.0000
# 5 0.0000 0.0000 0.0000 0.0000 8.5334 0.0000
# 6 0.0000 0.0000 0.0000 0.0000 0.0000 14.7397
#
#
#
# Elastic Compliance Matrix: (Units=1/GPa)
#
#
# Indices 1 2 3 4 5 6 
#
# 1 0.017771 -0.008157 -0.003843 0.000000 0.000000 0.000000
# 2 -0.008157 0.017771 -0.003843 0.000000 0.000000 0.000000
# 3 -0.003843 -0.003843 0.022451 0.000000 0.000000 0.000000
# 4 0.000000 0.000000 0.000000 0.117186 0.000000 0.000000
# 5 0.000000 0.000000 0.000000 0.000000 0.117186 0.000000
# 6 0.000000 0.000000 0.000000 0.000000 0.000000 0.067844
#
#
# Mechanical properties :
#
#
# Convention : Reuss Voigt Hill
#
# Bulk Modulus (GPa) = 38.01402 41.68284 39.84843
# Shear Modulus (GPa) = 12.47927 14.92501 13.70214
#
# Velocity S-wave (km/s) = 2.80649 3.06920 2.94078
# Velocity P-wave (km/s) = 5.87321 6.23445 6.05652
#
# Compressibility (1/GPa) = 0.02630609
#
# Stress axis : x y z
#
# Youngs Moduli (GPa) = 56.27268 56.27268 44.54054
#
# Poissons Ratio (x) = 0.45903 0.17117
# Poissons Ratio (y) = 0.45903 0.17117
# Poissons Ratio (z) = 0.21626 0.21626
#
# Static dielectric constant tensor:
#      x y z
#    x 3.121260 0.000000 0.000000 
#    y 0.000000 3.121260 0.000000 
#    z 0.000000 0.000000 2.944480 
# 
# 
# High freq. dielectric constant tensor:
#      x y z
#    x 1.588320 0.000000 0.000000 
#    y 0.000000 1.588320 0.000000 
#    z 0.000000 0.000000 1.603890 
# 
# From -- ./inp_files/6780.got.cif
#   From: 2010.03.12/outbox.cif.g09.slc.cpg/sg132_4_cif.got.tgz:6780.got - 2010.04.06 17:53:44.
