data_PCOD8316870
_publ_section_title
;
Structure prediction by ZEFSAII (Michael W. Deem and Ramdas Pophale) SiO2 
 PCOD8316870
Probable space group: P 42/M C M
;
_chemical_formula_sum "Si O2"
_cell_formula_units_Z 96
_cell_length_a 25.266751
_cell_length_b 25.266751
_cell_length_c 9.804547
_cell_angle_alpha 90.000000
_cell_angle_beta 90.000000
_cell_angle_gamma 90.000000
_cell_volume 6259.308164
_symmetry_space_group_name_H-M "P 42/M C M"
_symmetry_group_IT_number 132
_symmetry_cell_setting 'tetragonal'
loop_
_space_group_symop_operation_xyz
x,y,z
-y,x,1/2+z
-x,-y,z
y,-x,1/2+z
x,-y,1/2-z
-x,y,1/2-z
y,x,-z
-y,-x,-z
-x,-y,-z
y,-x,1/2-z
x,y,-z
-y,x,1/2-z
-x,y,1/2+z
x,-y,1/2+z
-y,-x,z
y,x,z
loop_
_atom_site_type_symbol
_atom_site_label
_atom_site_fract_x
_atom_site_fract_y
_atom_site_fract_z
Si Si1 0.743514 0.049793 0.841160
Si Si2 0.454843 0.868237 0.848115
Si Si3 0.338279 0.254871 0.662646
Si Si4 0.661692 0.137456 0.838123
Si Si5 0.950946 0.864988 0.343331
Si Si6 0.455333 0.257684 0.651346
O O1 0.707522 0.098102 0.788429
O O2 0.804428 0.065659 0.815931
O O3 0.727457 0.000000 0.750000
O O4 0.733059 0.036640 0.000000
O O5 0.500000 0.892553 0.750000
O O6 0.396360 0.883145 0.790441
O O7 0.459263 0.805315 0.853948
O O8 0.463428 0.891695 0.000000
O O9 0.335175 0.253895 0.500000
O O10 0.295439 0.295439 0.724948
O O11 0.326198 0.196056 0.721023
O O12 0.397107 0.273565 0.706585
O O13 0.660376 0.141404 0.000000
O O14 0.968068 0.873194 0.500000
O O15 0.900656 0.900656 0.304857
O O16 0.000000 0.882309 0.250000
O O17 0.500000 0.282056 0.750000
O O18 0.464757 0.280906 0.500000
#
# Coordination Sequence:
#
# PCOD8316870 Si02
#       6
#    16  16  16  16  16  16
#     4   9  17  30  46  62  81 105 133 164 195 229
#     4   8  13  22  36  55  77  99 126 159 193 229
#     4   8  13  21  35  58  84 104 126 160 198 233
#     4   8  14  24  39  58  79 104 131 160 197 236
#     4   9  18  31  46  65  86 106 130 160 194 233
#     4   8  13  21  34  52  74 101 130 157 187 226
#
# _framework density 15.337158000000001
#
# number of rings (size 3 to 8) (size 9 to 14) (size 15 to 20)
#    0.000    3.667    0.000    2.000    0.000    1.167 
#    0.000    5.000    0.000    2.000    0.000    3.500 
#    0.000    0.333    0.000    4.167    0.000    0.333 
#
# Total GULP energy -1189687.232704 kJ/mol
# GULP energy per Si atom -12392.575341 kJ/mol
# Density = 1.530225 g / cm^3
# Si number density = 15.337158 Si / 1000 Ang^3
#
#
#
# Elastic Constant Matrix: (Units=GPa)
#
#
# Indices 1 2 3 4 5 6 
#
# 1 100.4052 71.7937 39.4807 0.0000 0.0000 0.0000
# 2 71.7937 100.4052 39.4807 0.0000 0.0000 0.0000
# 3 39.4807 39.4807 45.0204 0.0000 0.0000 0.0000
# 4 0.0000 0.0000 0.0000 18.2130 0.0000 0.0000
# 5 0.0000 0.0000 0.0000 0.0000 18.2130 0.0000
# 6 0.0000 0.0000 0.0000 0.0000 0.0000 5.3222
#
#
#
# Elastic Compliance Matrix: (Units=1/GPa)
#
#
# Indices 1 2 3 4 5 6 
#
# 1 0.022332 -0.012619 -0.008518 0.000000 0.000000 0.000000
# 2 -0.012619 0.022332 -0.008518 0.000000 0.000000 0.000000
# 3 -0.008518 -0.008518 0.037152 0.000000 0.000000 0.000000
# 4 0.000000 0.000000 0.000000 0.054906 0.000000 0.000000
# 5 0.000000 0.000000 0.000000 0.000000 0.054906 0.000000
# 6 0.000000 0.000000 0.000000 0.000000 0.000000 0.187894
#
#
# Mechanical properties :
#
#
# Convention : Reuss Voigt Hill
#
# Bulk Modulus (GPa) = 44.43204 60.81567 52.62386
# Shear Modulus (GPa) = 11.20241 14.68802 12.94521
#
# Velocity S-wave (km/s) = 2.70554 3.09799 2.90839
# Velocity P-wave (km/s) = 6.22840 7.24812 6.75753
#
# Compressibility (1/GPa) = 0.02250628
#
# Stress axis : x y z
#
# Youngs Moduli (GPa) = 44.77877 44.77877 26.91660
#
# Poissons Ratio (x) = 0.56506 0.22927
# Poissons Ratio (y) = 0.56506 0.22927
# Poissons Ratio (z) = 0.38142 0.38142
#
# Static dielectric constant tensor:
#      x y z
#    x 3.026890 0.000000 0.000000 
#    y 0.000000 3.026890 0.000000 
#    z 0.000000 0.000000 2.845540 
# 
# 
# High freq. dielectric constant tensor:
#      x y z
#    x 1.573210 0.000000 0.000000 
#    y 0.000000 1.573210 0.000000 
#    z 0.000000 0.000000 1.557350 
# 
# From -- ./inp_files/1932.got.cif
#   From: 2010.03.12/outbox.cif.g09.slc.cpg/sg132_1_cif.got.tgz:1932.got - 2010.04.06 17:53:44.
