data_PCOD8316562
_publ_section_title
;
Structure prediction by ZEFSAII (Michael W. Deem and Ramdas Pophale) SiO2 
 PCOD8316562
Probable space group: P 42/M C M
;
_chemical_formula_sum "Si O2"
_cell_formula_units_Z 96
_cell_length_a 25.585696
_cell_length_b 25.585696
_cell_length_c 8.670478
_cell_angle_alpha 90.000000
_cell_angle_beta 90.000000
_cell_angle_gamma 90.000000
_cell_volume 5675.936283
_symmetry_space_group_name_H-M "P 42/M C M"
_symmetry_group_IT_number 132
_symmetry_cell_setting 'tetragonal'
loop_
_space_group_symop_operation_xyz
x,y,z
-y,x,1/2+z
-x,-y,z
y,-x,1/2+z
x,-y,1/2-z
-x,y,1/2-z
y,x,-z
-y,-x,-z
-x,-y,-z
y,-x,1/2-z
x,y,-z
-y,x,1/2-z
-x,y,1/2+z
x,-y,1/2+z
-y,-x,z
y,x,z
loop_
_atom_site_type_symbol
_atom_site_label
_atom_site_fract_x
_atom_site_fract_y
_atom_site_fract_z
Si Si1 0.308054 0.075482 0.323893
Si Si2 0.050532 0.584500 0.680911
Si Si3 0.806264 0.660846 0.323529
Si Si4 0.200766 0.946108 0.319266
Si Si5 0.446348 0.165556 0.819211
Si Si6 0.839560 0.839560 0.317630
Si Si7 0.242385 0.757616 0.319605
O O1 0.295383 0.059702 0.500000
O O2 0.360655 0.048490 0.269142
O O3 0.313220 0.137350 0.307254
O O4 0.262555 0.055696 0.212567
O O5 0.045405 0.593159 0.500000
O O6 0.103915 0.554823 0.722316
O O7 0.000000 0.553351 0.750000
O O8 0.787990 0.658101 0.500000
O O9 0.804656 0.602470 0.255527
O O10 0.767686 0.697763 0.227922
O O11 0.189721 0.943721 0.500000
O O12 0.173234 0.897518 0.238013
O O13 0.177508 0.000000 0.250000
O O14 0.500000 0.188616 0.750000
O O15 0.444610 0.175405 0.000000
O O16 0.837585 0.837585 0.500000
O O17 0.797523 0.797523 0.260037
O O18 0.235151 0.764850 0.500000
#
# Coordination Sequence:
#
# PCOD8316562 Si02
#       7
#    16  16  16  16  16   8   8
#     4  10  19  32  50  72 100 131 164 204 251 305
#     4  10  20  32  46  65  91 123 165 213 260 306
#     4  10  20  34  54  77 105 137 172 212 259 309
#     4  12  24  38  56  78 104 134 165 200 246 304
#     4  10  21  36  52  70  95 129 173 218 262 310
#     4  12  24  40  58  81 109 136 166 204 251 305
#     4  12  22  34  56  84 113 141 170 211 263 318
#
# _framework density 16.913509000000001
#
# number of rings (size 3 to 8) (size 9 to 14) (size 15 to 20)
#    0.000    1.333    1.667    5.500    0.000    3.667 
#    0.000    1.667    0.000    0.250    0.000    1.750 
#    0.000    0.000    0.000    0.000    0.000    0.417 
#
# Total GULP energy -1190589.401497 kJ/mol
# GULP energy per Si atom -12401.972932 kJ/mol
# Density = 1.687501 g / cm^3
# Si number density = 16.913509 Si / 1000 Ang^3
#
#
#
# Elastic Constant Matrix: (Units=GPa)
#
#
# Indices 1 2 3 4 5 6 
#
# 1 83.7891 39.4818 44.4382 0.0000 0.0000 0.0000
# 2 39.4818 83.7886 44.4378 0.0000 0.0000 0.0000
# 3 44.4382 44.4378 125.6710 0.0000 0.0000 0.0000
# 4 0.0000 0.0000 0.0000 25.7989 0.0000 0.0000
# 5 0.0000 0.0000 0.0000 0.0000 25.7989 0.0000
# 6 0.0000 0.0000 0.0000 0.0000 0.0000 -3.8130
#
#
#
# Elastic Compliance Matrix: (Units=1/GPa)
#
#
# Indices 1 2 3 4 5 6 
#
# 1 0.016729 -0.005841 -0.003850 0.000000 0.000000 0.000000
# 2 -0.005841 0.016729 -0.003850 0.000000 0.000000 0.000000
# 3 -0.003850 -0.003850 0.010680 0.000000 0.000000 0.000000
# 4 0.000000 0.000000 0.000000 0.038761 0.000000 0.000000
# 5 0.000000 0.000000 0.000000 0.000000 0.038761 0.000000
# 6 0.000000 0.000000 0.000000 0.000000 0.000000 -0.262259
#
#
# Mechanical properties :
#
#
# Convention : Reuss Voigt Hill
#
# Bulk Modulus (GPa) = 58.63066 61.10713 59.86889
# Shear Modulus (GPa) = -46.36864 20.54969 -12.90948
#
# Velocity S-wave (km/s) = -5.24163 3.48945 -2.76572
# Velocity P-wave (km/s) = 1.37574 7.24173 5.02742
#
# Compressibility (1/GPa) = 0.01705592
#
# Stress axis : x y z
#
# Youngs Moduli (GPa) = 59.77680 59.77665 93.63193
#
# Poissons Ratio (x) = 0.34915 0.36049
# Poissons Ratio (y) = 0.34915 0.36049
# Poissons Ratio (z) = 0.23015 0.23014
#
# Static dielectric constant tensor:
#      x y z
#    x 3.101460 0.000000 0.000000 
#    y 0.000000 3.101450 0.000000 
#    z 0.000000 0.000000 3.340780 
# 
# 
# High freq. dielectric constant tensor:
#      x y z
#    x 1.627740 0.000000 0.000000 
#    y 0.000000 1.627740 0.000000 
#    z 0.000000 0.000000 1.674210 
# 
# From -- ./inp_files/1831.got.cif
#   From: 2010.03.12/outbox.cif.g09.slc.cpg/sg132_1_cif.got.tgz:1831.got - 2010.04.06 17:53:44.
