data_PCOD8316746
_publ_section_title
;
Structure prediction by ZEFSAII (Michael W. Deem and Ramdas Pophale) SiO2 
 PCOD8316746
Probable space group: P 42/M C M
;
_chemical_formula_sum "Si O2"
_cell_formula_units_Z 104
_cell_length_a 15.714037
_cell_length_b 15.714037
_cell_length_c 23.226223
_cell_angle_alpha 90.000000
_cell_angle_beta 90.000000
_cell_angle_gamma 90.000000
_cell_volume 5735.273516
_symmetry_space_group_name_H-M "P 42/M C M"
_symmetry_group_IT_number 132
_symmetry_cell_setting 'tetragonal'
loop_
_space_group_symop_operation_xyz
x,y,z
-y,x,1/2+z
-x,-y,z
y,-x,1/2+z
x,-y,1/2-z
-x,y,1/2-z
y,x,-z
-y,-x,-z
-x,-y,-z
y,-x,1/2-z
x,y,-z
-y,x,1/2-z
-x,y,1/2+z
x,-y,1/2+z
-y,-x,z
y,x,z
loop_
_atom_site_type_symbol
_atom_site_label
_atom_site_fract_x
_atom_site_fract_y
_atom_site_fract_z
Si Si1 0.732952 0.405741 0.380224
Si Si2 0.714770 0.979263 0.832744
Si Si3 0.149492 0.409472 0.228148
Si Si4 0.822595 0.316081 0.839766
Si Si5 0.585134 0.723992 0.566222
Si Si6 0.000000 0.136447 0.250000
Si Si7 0.279015 0.858131 0.564758
O O1 0.649637 0.350364 0.366847
O O2 0.780979 0.425062 0.320950
O O3 0.703651 0.491089 0.411683
O O4 0.796171 0.357677 0.423306
O O5 0.644752 0.931258 0.793837
O O6 0.805912 0.968565 0.802710
O O7 0.719452 0.940455 0.895784
O O8 0.692855 0.076726 0.841564
O O9 0.114072 0.500000 0.250000
O O10 0.199524 0.361728 0.279555
O O11 0.774864 0.225137 0.841689
O O12 0.796983 0.372739 0.894603
O O13 0.584543 0.755618 0.500000
O O14 0.636715 0.636715 0.572771
O O15 0.078657 0.078657 0.270691
O O16 0.285721 0.891497 0.500000
O O17 0.191450 0.808551 0.576095
#
# Coordination Sequence:
#
# PCOD8316746 Si02
#       7
#    16  16  16  16  16   8  16
#     4  10  20  36  61  86 110 145 189 234 285 343
#     4  11  22  35  59  86 112 148 190 233 280 346
#     4  11  21  38  59  86 117 147 183 232 288 343
#     4  11  22  38  58  81 115 154 188 232 283 335
#     4  10  22  39  57  80 112 151 193 235 280 335
#     4  11  22  36  55  82 116 148 187 240 288 337
#     4   9  19  36  57  83 115 147 184 234 285 333
#
# _framework density 18.133396999999999
#
# number of rings (size 3 to 8) (size 9 to 14) (size 15 to 20)
#    0.000    1.615    3.077    1.846    0.000    4.308 
#    0.000    0.769    0.000    4.154    0.000    5.385 
#    0.000    0.000    0.000    0.000    0.000    0.000 
#
# Total GULP energy -1289776.112763 kJ/mol
# GULP energy per Si atom -12401.693392 kJ/mol
# Density = 1.809212 g / cm^3
# Si number density = 18.133397 Si / 1000 Ang^3
#
#
#
# Elastic Constant Matrix: (Units=GPa)
#
#
# Indices 1 2 3 4 5 6 
#
# 1 115.3398 52.7474 62.4343 0.0000 0.0000 0.0000
# 2 52.7474 115.3398 62.4343 0.0000 0.0000 0.0000
# 3 62.4343 62.4343 138.2855 0.0000 0.0000 0.0000
# 4 0.0000 0.0000 0.0000 26.2930 0.0000 0.0000
# 5 0.0000 0.0000 0.0000 0.0000 26.2930 0.0000
# 6 0.0000 0.0000 0.0000 0.0000 0.0000 21.4728
#
#
#
# Elastic Compliance Matrix: (Units=1/GPa)
#
#
# Indices 1 2 3 4 5 6 
#
# 1 0.012464 -0.003512 -0.004042 0.000000 0.000000 0.000000
# 2 -0.003512 0.012464 -0.004042 0.000000 0.000000 0.000000
# 3 -0.004042 -0.004042 0.010881 0.000000 0.000000 0.000000
# 4 0.000000 0.000000 0.000000 0.038033 0.000000 0.000000
# 5 0.000000 0.000000 0.000000 0.000000 0.038033 0.000000
# 6 0.000000 0.000000 0.000000 0.000000 0.000000 0.046570
#
#
# Mechanical properties :
#
#
# Convention : Reuss Voigt Hill
#
# Bulk Modulus (GPa) = 79.25230 80.46634 79.85932
# Shear Modulus (GPa) = 26.90452 27.56837 27.23645
#
# Velocity S-wave (km/s) = 3.85606 3.90334 3.87977
# Velocity P-wave (km/s) = 7.97657 8.04896 8.01285
#
# Compressibility (1/GPa) = 0.01261793
#
# Stress axis : x y z
#
# Youngs Moduli (GPa) = 80.23076 80.23076 91.90423
#
# Poissons Ratio (x) = 0.28180 0.37144
# Poissons Ratio (y) = 0.28180 0.37144
# Poissons Ratio (z) = 0.32426 0.32426
#
# Static dielectric constant tensor:
#      x y z
#    x 3.320730 0.000000 0.000000 
#    y 0.000000 3.320730 0.000000 
#    z 0.000000 0.000000 3.600930 
# 
# 
# High freq. dielectric constant tensor:
#      x y z
#    x 1.702570 0.000000 0.000000 
#    y 0.000000 1.702570 0.000000 
#    z 0.000000 0.000000 1.712690 
# 
# From -- ./inp_files/9156.got.cif
#   From: 2010.03.12/outbox.cif.g09.slc.cpg/sg132_5_cif.got.tgz:9156.got - 2010.04.06 17:53:44.
