data_PCOD8316702
_publ_section_title
;
Structure prediction by ZEFSAII (Michael W. Deem and Ramdas Pophale) SiO2 
 PCOD8316702
Probable space group: P 42/M C M
;
_chemical_formula_sum "Si O2"
_cell_formula_units_Z 64
_cell_length_a 13.956091
_cell_length_b 13.956091
_cell_length_c 17.083780
_cell_angle_alpha 90.000000
_cell_angle_beta 90.000000
_cell_angle_gamma 90.000000
_cell_volume 3327.450130
_symmetry_space_group_name_H-M "P 42/M C M"
_symmetry_group_IT_number 132
_symmetry_cell_setting 'tetragonal'
loop_
_space_group_symop_operation_xyz
x,y,z
-y,x,1/2+z
-x,-y,z
y,-x,1/2+z
x,-y,1/2-z
-x,y,1/2-z
y,x,-z
-y,-x,-z
-x,-y,-z
y,-x,1/2-z
x,y,-z
-y,x,1/2-z
-x,y,1/2+z
x,-y,1/2+z
-y,-x,z
y,x,z
loop_
_atom_site_type_symbol
_atom_site_label
_atom_site_fract_x
_atom_site_fract_y
_atom_site_fract_z
Si Si1 0.692085 0.459903 0.589823
Si Si2 0.832020 0.679462 0.163288
Si Si3 0.014051 0.390657 0.590734
Si Si4 0.213127 0.635162 0.835907
O O1 0.688364 0.493897 0.500000
O O2 0.591831 0.408170 0.613906
O O3 0.777971 0.383869 0.598409
O O4 0.711680 0.550655 0.644783
O O5 0.787118 0.787118 0.164982
O O6 0.819498 0.626031 0.246126
O O7 0.943985 0.679938 0.139971
O O8 0.990913 0.377104 0.500000
O O9 0.123165 0.363586 0.606631
O O10 0.000000 0.500000 0.618005
O O11 0.264155 0.735846 0.850007
#
# Coordination Sequence:
#
# PCOD8316702 Si02
#       4
#    16  16  16  16
#     4  10  20  34  53  79 113 153 193 230 272 328
#     4  10  21  37  58  83 111 147 191 237 282 332
#     4  11  22  36  59  87 112 148 190 233 286 337
#     4  11  23  37  56  84 116 151 190 235 287 336
#
# _framework density 19.233948000000002
#
# number of rings (size 3 to 8) (size 9 to 14) (size 15 to 20)
#    0.000    1.500    2.500    3.000    0.000    5.000 
#    0.000    1.250    0.000    5.250    0.000    5.250 
#    0.000    0.000    0.000    0.000    0.000    0.000 
#
# Total GULP energy -793679.409683 kJ/mol
# GULP energy per Si atom -12401.240776 kJ/mol
# Density = 1.919017 g / cm^3
# Si number density = 19.233948 Si / 1000 Ang^3
#
#
#
# Elastic Constant Matrix: (Units=GPa)
#
#
# Indices 1 2 3 4 5 6 
#
# 1 95.6075 54.2638 43.5083 0.0000 0.0000 0.0000
# 2 54.2638 95.6075 43.5083 0.0000 0.0000 0.0000
# 3 43.5083 43.5083 82.9992 0.0000 0.0000 0.0000
# 4 0.0000 0.0000 0.0000 26.4214 0.0000 0.0000
# 5 0.0000 0.0000 0.0000 0.0000 26.4214 0.0000
# 6 0.0000 0.0000 0.0000 0.0000 0.0000 25.2359
#
#
#
# Elastic Compliance Matrix: (Units=1/GPa)
#
#
# Indices 1 2 3 4 5 6 
#
# 1 0.016890 -0.007298 -0.005028 0.000000 0.000000 0.000000
# 2 -0.007298 0.016890 -0.005028 0.000000 0.000000 0.000000
# 3 -0.005028 -0.005028 0.017320 0.000000 0.000000 0.000000
# 4 0.000000 0.000000 0.000000 0.037848 0.000000 0.000000
# 5 0.000000 0.000000 0.000000 0.000000 0.037848 0.000000
# 6 0.000000 0.000000 0.000000 0.000000 0.000000 0.039626
#
#
# Mechanical properties :
#
#
# Convention : Reuss Voigt Hill
#
# Bulk Modulus (GPa) = 61.00862 61.86386 61.43624
# Shear Modulus (GPa) = 24.20224 24.47799 24.34011
#
# Velocity S-wave (km/s) = 3.55111 3.57129 3.56121
# Velocity P-wave (km/s) = 6.97151 7.01706 6.99432
#
# Compressibility (1/GPa) = 0.01639113
#
# Stress axis : x y z
#
# Youngs Moduli (GPa) = 59.20818 59.20818 57.73794
#
# Poissons Ratio (x) = 0.43209 0.29030
# Poissons Ratio (y) = 0.43209 0.29030
# Poissons Ratio (z) = 0.29770 0.29770
#
# Static dielectric constant tensor:
#      x y z
#    x 3.447730 0.000000 0.000000 
#    y 0.000000 3.447730 0.000000 
#    z 0.000000 0.000000 3.504100 
# 
# 
# High freq. dielectric constant tensor:
#      x y z
#    x 1.731190 0.000000 0.000000 
#    y 0.000000 1.731190 0.000000 
#    z 0.000000 0.000000 1.759620 
# 
# From -- ./inp_files/4403.got.cif
#   From: 2010.03.12/outbox.cif.g09.slc.cpg/sg132_3_cif.got.tgz:4403.got - 2010.04.06 17:53:44.
