data_PCOD8316963
_publ_section_title
;
Structure prediction by ZEFSAII (Michael W. Deem and Ramdas Pophale) SiO2 
 PCOD8316963
Probable space group: P 42/N B C
;
_chemical_formula_sum "Si O2"
_cell_formula_units_Z 96
_cell_length_a 23.465113
_cell_length_b 23.465113
_cell_length_c 9.568000
_cell_angle_alpha 90.000000
_cell_angle_beta 90.000000
_cell_angle_gamma 90.000000
_cell_volume 5268.251101
_symmetry_space_group_name_H-M "P 42/N B C"
_symmetry_group_IT_number 133
_space_group.IT_coordinate_system_code '2'
_symmetry_cell_setting 'tetragonal'
loop_
_space_group_symop_operation_xyz
x,y,z
1/2-y,x,1/2+z
1/2-x,1/2-y,z
y,1/2-x,1/2+z
x,1/2-y,-z
1/2-x,y,-z
y,x,1/2-z
1/2-y,1/2-x,1/2-z
-x,-y,-z
1/2+y,-x,1/2-z
1/2+x,1/2+y,-z
-y,1/2+x,1/2-z
-x,1/2+y,z
1/2+x,-y,z
-y,-x,1/2+z
1/2+y,1/2+x,1/2+z
loop_
_atom_site_type_symbol
_atom_site_label
_atom_site_fract_x
_atom_site_fract_y
_atom_site_fract_z
Si Si1 0.805476 0.027113 0.087584
Si Si2 0.304592 0.396327 0.588129
Si Si3 0.134062 0.871824 0.471273
Si Si4 0.804752 0.602864 0.911802
Si Si5 0.823385 0.305624 0.722244
Si Si6 0.305254 0.526343 0.586943
O O1 0.791597 0.035911 0.250521
O O2 0.822694 0.962041 0.055019
O O3 0.750000 0.045062 0.000000
O O4 0.858280 0.066799 0.041457
O O5 0.250000 0.376806 0.500000
O O6 0.357885 0.357628 0.544128
O O7 0.288839 0.389079 0.750107
O O8 0.321842 0.461247 0.553904
O O9 0.163937 0.870168 0.319944
O O10 0.165686 0.824068 0.563804
O O11 0.141802 0.934407 0.538647
O O12 0.750000 0.621639 0.000000
O O13 0.828461 0.238080 0.730234
O O14 0.250000 0.545289 0.500000
#
# Coordination Sequence:
#
# PCOD8316963 Si02
#       6
#    16  16  16  16  16  16
#     4  10  21  36  55  77 104 143 185 224 266 318
#     4   9  19  37  60  85 113 142 174 215 264 320
#     4  12  22  33  51  74 102 140 182 226 272 319
#     4   9  19  37  60  85 113 142 174 215 264 320
#     4  11  22  34  48  70 101 134 176 230 285 324
#     4  10  21  36  55  77 104 143 185 224 266 318
#
# _framework density 18.222365
#
# number of rings (size 3 to 8) (size 9 to 14) (size 15 to 20)
#    0.000    1.833    1.667    3.000    2.333    2.333 
#    0.000    2.500    0.000    0.000    0.000    0.000 
#    0.000    0.000    0.000    0.000    0.000    0.000 
#
# Total GULP energy -1190742.636287 kJ/mol
# GULP energy per Si atom -12403.569128 kJ/mol
# Density = 1.818089 g / cm^3
# Si number density = 18.222365 Si / 1000 Ang^3
#
#
#
# Elastic Constant Matrix: (Units=GPa)
#
#
# Indices 1 2 3 4 5 6 
#
# 1 104.8953 67.1296 43.1464 0.0000 0.0000 0.0000
# 2 67.1296 104.8953 43.1464 0.0000 0.0000 0.0000
# 3 43.1464 43.1464 71.0602 0.0000 0.0000 0.0000
# 4 0.0000 0.0000 0.0000 27.1887 0.0000 0.0000
# 5 0.0000 0.0000 0.0000 0.0000 27.1887 0.0000
# 6 0.0000 0.0000 0.0000 0.0000 0.0000 31.9586
#
#
#
# Elastic Compliance Matrix: (Units=1/GPa)
#
#
# Indices 1 2 3 4 5 6 
#
# 1 0.017419 -0.009060 -0.005076 0.000000 0.000000 0.000000
# 2 -0.009060 0.017419 -0.005076 0.000000 0.000000 0.000000
# 3 -0.005076 -0.005076 0.020236 0.000000 0.000000 0.000000
# 4 0.000000 0.000000 0.000000 0.036780 0.000000 0.000000
# 5 0.000000 0.000000 0.000000 0.000000 0.036780 0.000000
# 6 0.000000 0.000000 0.000000 0.000000 0.000000 0.031290
#
#
# Mechanical properties :
#
#
# Convention : Reuss Voigt Hill
#
# Bulk Modulus (GPa) = 60.05173 65.29954 62.67564
# Shear Modulus (GPa) = 24.52214 25.76243 25.14228
#
# Velocity S-wave (km/s) = 3.67238 3.76411 3.71853
# Velocity P-wave (km/s) = 7.14201 7.40297 7.27366
#
# Compressibility (1/GPa) = 0.01665231
#
# Stress axis : x y z
#
# Youngs Moduli (GPa) = 57.40831 57.40831 49.41669
#
# Poissons Ratio (x) = 0.52012 0.25081
# Poissons Ratio (y) = 0.52012 0.25081
# Poissons Ratio (z) = 0.29138 0.29138
#
# Static dielectric constant tensor:
#      x y z
#    x 3.300150 0.000000 0.000000 
#    y 0.000000 3.300150 0.000000 
#    z 0.000000 0.000000 3.465660 
# 
# 
# High freq. dielectric constant tensor:
#      x y z
#    x 1.693030 0.000000 0.000000 
#    y 0.000000 1.693030 0.000000 
#    z 0.000000 0.000000 1.719900 
# 
# From -- ./inp_files/1928.got.cif
#   From: 2010.03.12/outbox.cif.g09.slc.cpg/sg133_1_cif.got.tgz:1928.got - 2010.04.06 18:08:06.
