data_PCOD8316293
_publ_section_title
;
Structure prediction by ZEFSAII (Michael W. Deem and Ramdas Pophale) SiO2 
 PCOD8316293
Probable space group: P 42/M M C
;
_chemical_formula_sum "Si O2"
_cell_formula_units_Z 40
_cell_length_a 10.020561
_cell_length_b 10.020561
_cell_length_c 19.500460
_cell_angle_alpha 90.000000
_cell_angle_beta 90.000000
_cell_angle_gamma 90.000000
_cell_volume 1958.073223
_symmetry_space_group_name_H-M "P 42/M M C"
_symmetry_group_IT_number 131
_symmetry_cell_setting 'tetragonal'
loop_
_space_group_symop_operation_xyz
x,y,z
-x,-y,z
-y,x,1/2+z
y,-x,1/2+z
-x,y,-z
x,-y,-z
y,x,1/2-z
-y,-x,1/2-z
-x,-y,-z
x,y,-z
y,-x,1/2-z
-y,x,1/2-z
x,-y,z
-x,y,z
-y,-x,1/2+z
y,x,1/2+z
loop_
_atom_site_type_symbol
_atom_site_label
_atom_site_fract_x
_atom_site_fract_y
_atom_site_fract_z
Si Si1 0.647414 0.848686 0.284250
Si Si2 0.149832 0.229646 0.922619
Si Si3 0.650242 0.000000 0.919350
O O1 0.755925 0.755925 0.250000
O O2 0.500000 0.801969 0.262044
O O3 0.651979 0.842353 0.367367
O O4 0.674286 0.000000 0.258845
O O5 0.263359 0.127342 0.897229
O O6 0.000000 0.165370 0.920861
O O7 0.179555 0.281979 0.000000
O O8 0.500000 0.000000 0.886183
O O9 0.634721 0.000000 0.000000
#
# Coordination Sequence:
#
# PCOD8316293 Si02
#       3
#    16  16   8
#     4  10  23  41  60  85 116 153 195 238 288 346
#     4   9  18  34  57  84 113 146 187 237 290 340
#     4   9  17  29  49  81 117 149 182 225 278 335
#
# _framework density 20.428246999999999
#
# number of rings (size 3 to 8) (size 9 to 14) (size 15 to 20)
#    0.000    2.600    0.000    0.600    2.800    5.600 
#    0.000    4.000    0.000    0.000    0.000    8.400 
#    0.000    0.000    0.000    0.000    0.000    0.000 
#
# Total GULP energy -495579.490094 kJ/mol
# GULP energy per Si atom -12389.487252 kJ/mol
# Density = 2.038175 g / cm^3
# Si number density = 20.428247 Si / 1000 Ang^3
#
#
#
# Elastic Constant Matrix: (Units=GPa)
#
#
# Indices 1 2 3 4 5 6 
#
# 1 125.9723 71.4976 36.3903 0.0000 0.0000 0.0000
# 2 71.4976 125.9723 36.3903 0.0000 0.0000 0.0000
# 3 36.3903 36.3903 70.9337 0.0000 0.0000 0.0000
# 4 0.0000 0.0000 0.0000 17.6239 0.0000 0.0000
# 5 0.0000 0.0000 0.0000 0.0000 17.6239 0.0000
# 6 0.0000 0.0000 0.0000 0.0000 0.0000 11.3376
#
#
#
# Elastic Compliance Matrix: (Units=1/GPa)
#
#
# Indices 1 2 3 4 5 6 
#
# 1 0.012301 -0.006056 -0.003204 0.000000 0.000000 0.000000
# 2 -0.006056 0.012301 -0.003204 0.000000 0.000000 0.000000
# 3 -0.003204 -0.003204 0.017385 0.000000 0.000000 0.000000
# 4 0.000000 0.000000 0.000000 0.056741 0.000000 0.000000
# 5 0.000000 0.000000 0.000000 0.000000 0.056741 0.000000
# 6 0.000000 0.000000 0.000000 0.000000 0.000000 0.088202
#
#
# Mechanical properties :
#
#
# Convention : Reuss Voigt Hill
#
# Bulk Modulus (GPa) = 58.61797 67.93720 63.27758
# Shear Modulus (GPa) = 18.22919 21.22373 19.72646
#
# Velocity S-wave (km/s) = 2.99047 3.22676 3.11086
# Velocity P-wave (km/s) = 6.37814 6.87105 6.62918
#
# Compressibility (1/GPa) = 0.01705962
#
# Stress axis : x y z
#
# Youngs Moduli (GPa) = 81.29424 81.29424 57.52144
#
# Poissons Ratio (x) = 0.49233 0.18428
# Poissons Ratio (y) = 0.49233 0.18428
# Poissons Ratio (z) = 0.26044 0.26044
#
# Static dielectric constant tensor:
#      x y z
#    x 3.689030 0.000000 0.000000 
#    y 0.000000 3.689030 0.000000 
#    z 0.000000 0.000000 3.794730 
# 
# 
# High freq. dielectric constant tensor:
#      x y z
#    x 1.780360 0.000000 0.000000 
#    y 0.000000 1.780360 0.000000 
#    z 0.000000 0.000000 1.813130 
# 
# From -- ./inp_files/10334.got.cif
#   From: 2010.03.12/outbox.cif.g09.slc.cpg/sg131_6_cif.got.tgz:10334.got - 2010.04.06 17:36:35.
