data_PCOD8316154
_publ_section_title
;
Structure prediction by ZEFSAII (Michael W. Deem and Ramdas Pophale) SiO2 
 PCOD8316154
Probable space group: P 42/M M C
;
_chemical_formula_sum "Si O2"
_cell_formula_units_Z 80
_cell_length_a 14.896868
_cell_length_b 14.896868
_cell_length_c 17.508647
_cell_angle_alpha 90.000000
_cell_angle_beta 90.000000
_cell_angle_gamma 90.000000
_cell_volume 3885.460747
_symmetry_space_group_name_H-M "P 42/M M C"
_symmetry_group_IT_number 131
_symmetry_cell_setting 'tetragonal'
loop_
_space_group_symop_operation_xyz
x,y,z
-x,-y,z
-y,x,1/2+z
y,-x,1/2+z
-x,y,-z
x,-y,-z
y,x,1/2-z
-y,-x,1/2-z
-x,-y,-z
x,y,-z
y,-x,1/2-z
-y,x,1/2-z
x,-y,z
-x,y,z
-y,-x,1/2+z
y,x,1/2+z
loop_
_atom_site_type_symbol
_atom_site_label
_atom_site_fract_x
_atom_site_fract_y
_atom_site_fract_z
Si Si1 0.100786 0.756386 0.587663
Si Si2 0.166624 0.599766 0.687034
Si Si3 0.099296 0.237984 0.086637
Si Si4 0.203892 0.400672 0.860215
Si Si5 0.631917 0.401873 0.337942
O O1 0.128252 0.732387 0.500000
O O2 0.104786 0.668311 0.640722
O O3 0.164354 0.833924 0.623783
O O4 0.000000 0.793469 0.590373
O O5 0.122977 0.500000 0.684585
O O6 0.182619 0.631366 0.774009
O O7 0.262607 0.597861 0.646851
O O8 0.148227 0.334197 0.086627
O O9 0.000000 0.240345 0.126605
O O10 0.084446 0.209037 0.000000
O O11 0.166182 0.500000 0.875089
O O12 0.311425 0.403709 0.879008
O O13 0.604460 0.395541 0.250000
O O14 0.594944 0.500000 0.368118
#
# Coordination Sequence:
#
# PCOD8316154 Si02
#       5
#    16  16  16  16  16
#     4  10  21  37  58  82 107 139 178 221 273 330
#     4   9  18  33  54  82 115 147 178 214 259 313
#     4  10  22  40  59  78 103 137 179 230 282 325
#     4  10  20  34  56  84 112 144 183 222 263 313
#     4   9  16  28  49  79 113 146 178 214 256 304
#
# _framework density 20.589576999999998
#
# number of rings (size 3 to 8) (size 9 to 14) (size 15 to 20)
#    0.000    2.400    2.000    1.800    0.000    4.200 
#    0.000    6.000    0.000    0.600    0.000    4.200 
#    0.000    0.000    0.000    0.000    0.000    0.000 
#
# Total GULP energy -991099.638289 kJ/mol
# GULP energy per Si atom -12388.745479 kJ/mol
# Density = 2.054271 g / cm^3
# Si number density = 20.589577 Si / 1000 Ang^3
#
#
#
# Elastic Constant Matrix: (Units=GPa)
#
#
# Indices 1 2 3 4 5 6 
#
# 1 124.0046 49.7837 18.1743 0.0000 0.0000 0.0000
# 2 49.7837 124.0042 18.1745 0.0000 0.0000 0.0000
# 3 18.1743 18.1745 27.2579 0.0000 0.0000 0.0000
# 4 0.0000 0.0000 0.0000 23.1912 0.0000 0.0000
# 5 0.0000 0.0000 0.0000 0.0000 23.1911 0.0000
# 6 0.0000 0.0000 0.0000 0.0000 0.0000 6.5200
#
#
#
# Elastic Compliance Matrix: (Units=1/GPa)
#
#
# Indices 1 2 3 4 5 6 
#
# 1 0.010080 -0.003393 -0.004458 0.000000 0.000000 0.000000
# 2 -0.003393 0.010080 -0.004458 0.000000 0.000000 0.000000
# 3 -0.004458 -0.004458 0.042632 0.000000 0.000000 0.000000
# 4 0.000000 0.000000 0.000000 0.043120 0.000000 0.000000
# 5 0.000000 0.000000 0.000000 0.000000 0.043120 0.000000
# 6 0.000000 0.000000 0.000000 0.000000 0.000000 0.153375
#
#
# Mechanical properties :
#
#
# Convention : Reuss Voigt Hill
#
# Bulk Modulus (GPa) = 26.19739 49.72574 37.96156
# Shear Modulus (GPa) = 14.71669 23.18941 18.95305
#
# Velocity S-wave (km/s) = 2.67641 3.35963 3.03729
# Velocity P-wave (km/s) = 4.72251 6.26521 5.54775
#
# Compressibility (1/GPa) = 0.03817174
#
# Stress axis : x y z
#
# Youngs Moduli (GPa) = 99.20682 99.20634 23.45661
#
# Poissons Ratio (x) = 0.33664 0.10458
# Poissons Ratio (y) = 0.33664 0.10458
# Poissons Ratio (z) = 0.44229 0.44230
#
# Static dielectric constant tensor:
#      x y z
#    x 3.879300 0.000000 0.000000 
#    y 0.000000 3.879290 0.000000 
#    z 0.000000 0.000000 3.236710 
# 
# 
# High freq. dielectric constant tensor:
#      x y z
#    x 1.808310 0.000000 0.000000 
#    y 0.000000 1.808310 0.000000 
#    z 0.000000 0.000000 1.752120 
# 
# From -- ./inp_files/9372.got.cif
#   From: 2010.03.12/outbox.cif.g09.slc.cpg/sg131_5_cif.got.tgz:9372.got - 2010.04.06 17:36:35.
