data_PCOD8316007
_publ_section_title
;
Structure prediction by ZEFSAII (Michael W. Deem and Ramdas Pophale) SiO2 
 PCOD8316007
Probable space group: P 42/M M C
;
_chemical_formula_sum "Si O2"
_cell_formula_units_Z 52
_cell_length_a 11.239863
_cell_length_b 11.239863
_cell_length_c 20.739486
_cell_angle_alpha 90.000000
_cell_angle_beta 90.000000
_cell_angle_gamma 90.000000
_cell_volume 2620.113014
_symmetry_space_group_name_H-M "P 42/M M C"
_symmetry_group_IT_number 131
_symmetry_cell_setting 'tetragonal'
loop_
_space_group_symop_operation_xyz
x,y,z
-x,-y,z
-y,x,1/2+z
y,-x,1/2+z
-x,y,-z
x,-y,-z
y,x,1/2-z
-y,-x,1/2-z
-x,-y,-z
x,y,-z
y,-x,1/2-z
-y,x,1/2-z
x,-y,z
-x,y,z
-y,-x,1/2+z
y,x,1/2+z
loop_
_atom_site_type_symbol
_atom_site_label
_atom_site_fract_x
_atom_site_fract_y
_atom_site_fract_z
Si Si1 0.633122 0.500000 0.863300
Si Si2 0.690896 0.500000 0.000000
Si Si3 0.720326 0.860157 0.500000
Si Si4 0.862525 0.137476 0.750000
Si Si5 0.754413 0.263984 0.628453
Si Si6 0.140668 0.500000 0.573197
O O1 0.500000 0.500000 0.829906
O O2 0.604560 0.500000 0.939264
O O3 0.713695 0.383147 0.848999
O O4 0.782293 0.394819 0.000000
O O5 0.782363 0.823495 0.432446
O O6 0.695772 0.000000 0.500000
O O7 0.822925 0.210462 0.688216
O O8 0.000000 0.163131 0.763743
O O9 0.810751 0.389181 0.611790
O O10 0.190681 0.500000 0.500000
O O11 0.000000 0.500000 0.572756
#
# Coordination Sequence:
#
# PCOD8316007 Si02
#       6
#     8   4   8   8  16   8
#     4  10  19  34  60  94 128 162 197 249 323 388
#     4   8  18  28  54  86 128 163 201 242 302 376
#     4  10  19  34  58  89 124 161 209 264 310 372
#     4  11  26  48  67  86 124 176 225 272 324 387
#     4  11  22  40  64  96 127 169 214 266 329 393
#     4  11  22  38  63  96 133 169 217 277 329 384
#
# _framework density 19.846473
#
# number of rings (size 3 to 8) (size 9 to 14) (size 15 to 20)
#    0.000    1.538    3.077    2.308    0.000    1.231 
#    0.000    3.846    0.000    3.692    0.000    0.000 
#    0.000    0.000    0.000    0.000    0.000    0.000 
#
# Total GULP energy -644335.224884 kJ/mol
# GULP energy per Si atom -12391.062017 kJ/mol
# Density = 1.980130 g / cm^3
# Si number density = 19.846473 Si / 1000 Ang^3
#
#
#
# Elastic Constant Matrix: (Units=GPa)
#
#
# Indices 1 2 3 4 5 6 
#
# 1 102.8415 36.5729 41.2457 0.0000 0.0000 0.0000
# 2 36.5729 102.8420 41.2470 0.0000 0.0000 0.0000
# 3 41.2457 41.2470 120.1625 0.0000 0.0000 0.0000
# 4 0.0000 0.0000 0.0000 35.3353 0.0000 0.0000
# 5 0.0000 0.0000 0.0000 0.0000 35.3345 0.0000
# 6 0.0000 0.0000 0.0000 0.0000 0.0000 17.0441
#
#
#
# Elastic Compliance Matrix: (Units=1/GPa)
#
#
# Indices 1 2 3 4 5 6 
#
# 1 0.012046 -0.003045 -0.003090 0.000000 0.000000 0.000000
# 2 -0.003045 0.012046 -0.003090 0.000000 0.000000 0.000000
# 3 -0.003090 -0.003090 0.010443 0.000000 0.000000 0.000000
# 4 0.000000 0.000000 0.000000 0.028300 0.000000 0.000000
# 5 0.000000 0.000000 0.000000 0.000000 0.028301 0.000000
# 6 0.000000 0.000000 0.000000 0.000000 0.000000 0.058671
#
#
# Mechanical properties :
#
#
# Convention : Reuss Voigt Hill
#
# Bulk Modulus (GPa) = 62.16353 62.66410 62.41382
# Shear Modulus (GPa) = 28.79910 31.32815 30.06362
#
# Velocity S-wave (km/s) = 3.81346 3.97738 3.89628
# Velocity P-wave (km/s) = 7.12602 7.26193 7.19430
#
# Compressibility (1/GPa) = 0.01608660
#
# Stress axis : x y z
#
# Youngs Moduli (GPa) = 83.01853 83.01817 95.75676
#
# Poissons Ratio (x) = 0.25275 0.29585
# Poissons Ratio (y) = 0.25275 0.29586
# Poissons Ratio (z) = 0.25649 0.25650
#
# Static dielectric constant tensor:
#      x y z
#    x 3.669000 0.000000 0.000000 
#    y 0.000000 3.669020 0.000000 
#    z 0.000000 0.000000 3.891110 
# 
# 
# High freq. dielectric constant tensor:
#      x y z
#    x 1.778790 0.000000 0.000000 
#    y 0.000000 1.778790 0.000000 
#    z 0.000000 0.000000 1.772260 
# 
# From -- ./inp_files/9119.got.cif
#   From: 2010.03.12/outbox.cif.g09.slc.cpg/sg131_5_cif.got.tgz:9119.got - 2010.04.06 17:36:35.
