data_PCOD8316225
_publ_section_title
;
Structure prediction by ZEFSAII (Michael W. Deem and Ramdas Pophale) SiO2 
 PCOD8316225
Probable space group: P 42/M M C
;
_chemical_formula_sum "Si O2"
_cell_formula_units_Z 40
_cell_length_a 8.107583
_cell_length_b 8.107583
_cell_length_c 28.901749
_cell_angle_alpha 90.000000
_cell_angle_beta 90.000000
_cell_angle_gamma 90.000000
_cell_volume 1899.795838
_symmetry_space_group_name_H-M "P 42/M M C"
_symmetry_group_IT_number 131
_symmetry_cell_setting 'tetragonal'
loop_
_space_group_symop_operation_xyz
x,y,z
-x,-y,z
-y,x,1/2+z
y,-x,1/2+z
-x,y,-z
x,-y,-z
y,x,1/2-z
-y,-x,1/2-z
-x,-y,-z
x,y,-z
y,-x,1/2-z
-y,x,1/2-z
x,-y,z
-x,y,z
-y,-x,1/2+z
y,x,1/2+z
loop_
_atom_site_type_symbol
_atom_site_label
_atom_site_fract_x
_atom_site_fract_y
_atom_site_fract_z
Si Si1 0.314825 0.310638 0.607277
Si Si2 0.186055 0.315661 0.795452
Si Si3 0.303306 0.000000 0.947140
O O1 0.328593 0.500000 0.593519
O O2 0.500000 0.230544 0.599615
O O3 0.260059 0.296096 0.660985
O O4 0.168067 0.230562 0.576340
O O5 0.204960 0.204960 0.750000
O O6 0.234463 0.500000 0.780310
O O7 0.000000 0.302950 0.813231
O O8 0.500000 0.000000 0.941919
O O9 0.245258 0.000000 0.000000
#
# Coordination Sequence:
#
# PCOD8316225 Si02
#       3
#    16  16   8
#     4   9  18  33  53  76 105 141 178 223 277 331
#     4  10  21  35  52  76 106 140 177 219 267 322
#     4   9  18  32  53  81 107 135 179 233 281 328
#
# _framework density 21.054894999999998
#
# number of rings (size 3 to 8) (size 9 to 14) (size 15 to 20)
#    0.000    2.600    0.000    1.200    2.800    3.200 
#    0.000    4.000    0.000    2.400    0.000    5.600 
#    0.000    0.000    0.000    0.000    0.000    0.000 
#
# Total GULP energy -495654.609894 kJ/mol
# GULP energy per Si atom -12391.365247 kJ/mol
# Density = 2.100697 g / cm^3
# Si number density = 21.054895 Si / 1000 Ang^3
#
#
#
# Elastic Constant Matrix: (Units=GPa)
#
#
# Indices 1 2 3 4 5 6 
#
# 1 73.0500 26.8719 47.5943 0.0000 0.0000 0.0000
# 2 26.8719 73.0500 47.5943 0.0000 0.0000 0.0000
# 3 47.5943 47.5943 144.5590 0.0000 0.0000 0.0000
# 4 0.0000 0.0000 0.0000 11.7145 0.0000 0.0000
# 5 0.0000 0.0000 0.0000 0.0000 11.7145 0.0000
# 6 0.0000 0.0000 0.0000 0.0000 0.0000 11.5225
#
#
#
# Elastic Compliance Matrix: (Units=1/GPa)
#
#
# Indices 1 2 3 4 5 6 
#
# 1 0.018118 -0.003537 -0.004801 0.000000 0.000000 0.000000
# 2 -0.003537 0.018118 -0.004801 0.000000 0.000000 0.000000
# 3 -0.004801 -0.004801 0.010079 0.000000 0.000000 0.000000
# 4 0.000000 0.000000 0.000000 0.085364 0.000000 0.000000
# 5 0.000000 0.000000 0.000000 0.000000 0.085364 0.000000
# 6 0.000000 0.000000 0.000000 0.000000 0.000000 0.086787
#
#
# Mechanical properties :
#
#
# Convention : Reuss Voigt Hill
#
# Bulk Modulus (GPa) = 49.90453 59.41998 54.66226
# Shear Modulus (GPa) = 14.84618 18.23019 16.53818
#
# Velocity S-wave (km/s) = 2.65829 2.94571 2.80568
# Velocity P-wave (km/s) = 5.75982 6.31287 6.04268
#
# Compressibility (1/GPa) = 0.02003826
#
# Stress axis : x y z
#
# Youngs Moduli (GPa) = 55.19323 55.19323 99.21924
#
# Poissons Ratio (x) = 0.19522 0.47632
# Poissons Ratio (y) = 0.19522 0.47632
# Poissons Ratio (z) = 0.26496 0.26496
#
# Static dielectric constant tensor:
#      x y z
#    x 3.783200 0.000000 0.000000 
#    y 0.000000 3.783200 0.000000 
#    z 0.000000 0.000000 3.622900 
# 
# 
# High freq. dielectric constant tensor:
#      x y z
#    x 1.808030 0.000000 0.000000 
#    y 0.000000 1.808030 0.000000 
#    z 0.000000 0.000000 1.813890 
# 
# From -- ./inp_files/10326.got.cif
#   From: 2010.03.12/outbox.cif.g09.slc.cpg/sg131_6_cif.got.tgz:10326.got - 2010.04.06 17:36:35.
