data_PCOD8316027
_publ_section_title
;
Structure prediction by ZEFSAII (Michael W. Deem and Ramdas Pophale) SiO2 
 PCOD8316027
Probable space group: P 42/M M C
;
_chemical_formula_sum "Si O2"
_cell_formula_units_Z 96
_cell_length_a 15.130930
_cell_length_b 15.130930
_cell_length_c 23.141795
_cell_angle_alpha 90.000000
_cell_angle_beta 90.000000
_cell_angle_gamma 90.000000
_cell_volume 5298.199244
_symmetry_space_group_name_H-M "P 42/M M C"
_symmetry_group_IT_number 131
_symmetry_cell_setting 'tetragonal'
loop_
_space_group_symop_operation_xyz
x,y,z
-x,-y,z
-y,x,1/2+z
y,-x,1/2+z
-x,y,-z
x,-y,-z
y,x,1/2-z
-y,-x,1/2-z
-x,-y,-z
x,y,-z
y,-x,1/2-z
-y,x,1/2-z
x,-y,z
-x,y,z
-y,-x,1/2+z
y,x,1/2+z
loop_
_atom_site_type_symbol
_atom_site_label
_atom_site_fract_x
_atom_site_fract_y
_atom_site_fract_z
Si Si1 0.401239 0.000000 0.566790
Si Si2 0.317677 0.642808 0.153136
Si Si3 0.099779 0.904124 0.931864
Si Si4 0.900160 0.245428 0.755756
Si Si5 0.275587 0.143175 0.617436
Si Si6 0.596318 0.221826 0.769132
Si Si7 0.500000 0.395342 0.567583
O O1 0.345080 0.087661 0.580072
O O2 0.500000 0.000000 0.596914
O O3 0.419101 0.000000 0.500000
O O4 0.243851 0.696214 0.119000
O O5 0.391705 0.706698 0.180056
O O6 0.269712 0.594054 0.206724
O O7 0.361843 0.583162 0.104220
O O8 0.154105 0.822979 0.907173
O O9 0.000000 0.894304 0.909086
O O10 0.137837 0.000000 0.911317
O O11 0.101607 0.899356 0.000000
O O12 0.845996 0.154005 0.750000
O O13 0.906608 0.273073 0.821902
O O14 0.849381 0.325119 0.723308
O O15 0.000000 0.233699 0.731243
O O16 0.500000 0.176721 0.777347
O O17 0.500000 0.500000 0.566990
O O18 0.500000 0.361416 0.500000
#
# Coordination Sequence:
#
# PCOD8316027 Si02
#       7
#     8  16  16  16  16  16   8
#     4  11  24  36  53  85 119 161 206 234 281 364
#     4  10  21  37  57  86 112 148 195 239 293 355
#     4   9  17  30  50  75 101 138 190 239 281 325
#     4  11  22  38  56  84 119 154 197 240 298 360
#     4  11  20  36  55  75 116 152 189 245 289 339
#     4  10  19  38  63  85 111 146 196 257 298 340
#     4  11  24  40  58  87 125 155 185 236 304 371
#
# _framework density 18.119364999999998
#
# number of rings (size 3 to 8) (size 9 to 14) (size 15 to 20)
#    0.000    1.667    5.833    1.500    1.167    3.167 
#    0.000    0.000    0.000    0.000    0.000    0.000 
#    0.000    0.000    0.000    8.833    0.000    0.000 
#
# Total GULP energy -1189547.414302 kJ/mol
# GULP energy per Si atom -12391.118899 kJ/mol
# Density = 1.807812 g / cm^3
# Si number density = 18.119365 Si / 1000 Ang^3
#
#
#
# Elastic Constant Matrix: (Units=GPa)
#
#
# Indices 1 2 3 4 5 6 
#
# 1 133.6213 57.5649 38.1271 0.0000 0.0000 0.0000
# 2 57.5649 133.6215 38.1264 0.0000 0.0000 0.0000
# 3 38.1271 38.1264 75.5143 0.0000 0.0000 0.0000
# 4 0.0000 0.0000 0.0000 24.7627 0.0000 0.0000
# 5 0.0000 0.0000 0.0000 0.0000 24.7558 0.0000
# 6 0.0000 0.0000 0.0000 0.0000 0.0000 22.3610
#
#
#
# Elastic Compliance Matrix: (Units=1/GPa)
#
#
# Indices 1 2 3 4 5 6 
#
# 1 0.009849 -0.003299 -0.003307 0.000000 0.000000 0.000000
# 2 -0.003299 0.009849 -0.003307 0.000000 0.000000 0.000000
# 3 -0.003307 -0.003307 0.016582 0.000000 0.000000 0.000000
# 4 0.000000 0.000000 0.000000 0.040383 0.000000 0.000000
# 5 0.000000 0.000000 0.000000 0.000000 0.040395 0.000000
# 6 0.000000 0.000000 0.000000 0.000000 0.000000 0.044721
#
#
# Mechanical properties :
#
#
# Convention : Reuss Voigt Hill
#
# Bulk Modulus (GPa) = 60.77768 67.82157 64.29962
# Shear Modulus (GPa) = 26.72540 28.30514 27.51527
#
# Velocity S-wave (km/s) = 3.84469 3.95669 3.90109
# Velocity P-wave (km/s) = 7.30237 7.64104 7.47363
#
# Compressibility (1/GPa) = 0.01645341
#
# Stress axis : x y z
#
# Youngs Moduli (GPa) = 101.53534 101.53615 60.30769
#
# Poissons Ratio (x) = 0.33501 0.19943
# Poissons Ratio (y) = 0.33500 0.19942
# Poissons Ratio (z) = 0.33576 0.33575
#
# Static dielectric constant tensor:
#      x y z
#    x 3.386600 0.000000 0.000000 
#    y 0.000000 3.386600 0.000000 
#    z 0.000000 0.000000 3.317370 
# 
# 
# High freq. dielectric constant tensor:
#      x y z
#    x 1.700030 0.000000 0.000000 
#    y 0.000000 1.700030 0.000000 
#    z 0.000000 0.000000 1.689200 
# 
# From -- ./inp_files/11211.got.cif
#   From: 2010.03.12/outbox.cif.g09.slc.cpg/sg131_6_cif.got.tgz:11211.got - 2010.04.06 17:36:35.
