data_PCOD8316617
_publ_section_title
;
Structure prediction by ZEFSAII (Michael W. Deem and Ramdas Pophale) SiO2 
 PCOD8316617
Probable space group: P 42/M C M
;
_chemical_formula_sum "Si O2"
_cell_formula_units_Z 96
_cell_length_a 24.311898
_cell_length_b 24.311898
_cell_length_c 9.069584
_cell_angle_alpha 90.000000
_cell_angle_beta 90.000000
_cell_angle_gamma 90.000000
_cell_volume 5360.744362
_symmetry_space_group_name_H-M "P 42/M C M"
_symmetry_group_IT_number 132
_symmetry_cell_setting 'tetragonal'
loop_
_space_group_symop_operation_xyz
x,y,z
-y,x,1/2+z
-x,-y,z
y,-x,1/2+z
x,-y,1/2-z
-x,y,1/2-z
y,x,-z
-y,-x,-z
-x,-y,-z
y,-x,1/2-z
x,y,-z
-y,x,1/2-z
-x,y,1/2+z
x,-y,1/2+z
-y,-x,z
y,x,z
loop_
_atom_site_type_symbol
_atom_site_label
_atom_site_fract_x
_atom_site_fract_y
_atom_site_fract_z
Si Si1 0.260875 0.856882 0.333303
Si Si2 0.447071 0.761502 0.835532
Si Si3 0.942324 0.057676 0.176774
Si Si4 0.448222 0.891114 0.164083
Si Si5 0.056425 0.351324 0.166424
Si Si6 0.148471 0.851530 0.826496
Si Si7 0.334183 0.244059 0.831111
O O1 0.243388 0.841032 0.500000
O O2 0.292881 0.914042 0.330482
O O3 0.207608 0.868099 0.235975
O O4 0.298063 0.806984 0.268160
O O5 0.500000 0.736415 0.750000
O O6 0.454397 0.826359 0.845138
O O7 0.390182 0.746451 0.756853
O O8 0.445967 0.736264 0.000000
O O9 0.896832 0.103169 0.218506
O O10 0.000000 0.076298 0.250000
O O11 0.948900 0.051101 0.000000
O O12 0.500000 0.917392 0.250000
O O13 0.393865 0.903985 0.253901
O O14 0.445510 0.916771 0.000000
O O15 0.000000 0.345189 0.250000
O O16 0.045697 0.371276 0.000000
O O17 0.153100 0.846901 0.000000
O O18 0.299810 0.299810 0.816338
O O19 0.349805 0.230747 0.000000
#
# Coordination Sequence:
#
# PCOD8316617 Si02
#       7
#    16  16   8  16  16   8  16
#     4  10  21  38  57  78 107 145 182 217 268 329
#     4  10  20  33  53  80 111 146 184 228 275 324
#     4  10  22  41  64  90 112 138 172 218 274 335
#     4  10  20  34  53  76 101 134 180 229 279 327
#     4  11  23  38  55  74 102 138 179 227 274 326
#     4  11  24  38  59  88 116 140 174 220 267 321
#     4  10  19  34  56  81 110 144 185 227 271 326
#
# _framework density 17.907962000000001
#
# number of rings (size 3 to 8) (size 9 to 14) (size 15 to 20)
#    0.000    1.750    2.500    2.250    0.000    6.000 
#    0.000    5.000    0.000    0.000    0.000    0.000 
#    0.000    0.333    0.000    3.500    0.000    1.500 
#
# Total GULP energy -1190463.945849 kJ/mol
# GULP energy per Si atom -12400.666103 kJ/mol
# Density = 1.786720 g / cm^3
# Si number density = 17.907962 Si / 1000 Ang^3
#
#
#
# Elastic Constant Matrix: (Units=GPa)
#
#
# Indices 1 2 3 4 5 6 
#
# 1 65.7428 36.0565 45.9924 0.0000 0.0000 0.0000
# 2 36.0565 65.7426 45.9925 0.0000 0.0000 0.0000
# 3 45.9924 45.9925 130.9754 0.0000 0.0000 0.0000
# 4 0.0000 0.0000 0.0000 25.9941 0.0000 0.0000
# 5 0.0000 0.0000 0.0000 0.0000 25.9944 0.0000
# 6 0.0000 0.0000 0.0000 0.0000 0.0000 21.5715
#
#
#
# Elastic Compliance Matrix: (Units=1/GPa)
#
#
# Indices 1 2 3 4 5 6 
#
# 1 0.024037 -0.009648 -0.005053 0.000000 0.000000 0.000000
# 2 -0.009648 0.024037 -0.005053 0.000000 0.000000 0.000000
# 3 -0.005053 -0.005053 0.011184 0.000000 0.000000 0.000000
# 4 0.000000 0.000000 0.000000 0.038470 0.000000 0.000000
# 5 0.000000 0.000000 0.000000 0.000000 0.038470 0.000000
# 6 0.000000 0.000000 0.000000 0.000000 0.000000 0.046357
#
#
# Mechanical properties :
#
#
# Convention : Reuss Voigt Hill
#
# Bulk Modulus (GPa) = 50.63170 57.61593 54.12382
# Shear Modulus (GPa) = 21.86782 23.67332 22.77057
#
# Velocity S-wave (km/s) = 3.49825 3.63980 3.56973
# Velocity P-wave (km/s) = 6.68219 7.06452 6.87601
#
# Compressibility (1/GPa) = 0.01975047
#
# Stress axis : x y z
#
# Youngs Moduli (GPa) = 41.60225 41.60200 89.41712
#
# Poissons Ratio (x) = 0.40139 0.45179
# Poissons Ratio (y) = 0.40140 0.45180
# Poissons Ratio (z) = 0.21020 0.21020
#
# Static dielectric constant tensor:
#      x y z
#    x 3.219910 0.000000 0.000000 
#    y 0.000000 3.219900 0.000000 
#    z 0.000000 0.000000 3.569540 
# 
# 
# High freq. dielectric constant tensor:
#      x y z
#    x 1.679820 0.000000 0.000000 
#    y 0.000000 1.679820 0.000000 
#    z 0.000000 0.000000 1.705610 
# 
# From -- ./inp_files/1853.got.cif
#   From: 2010.03.12/outbox.cif.g09.slc.cpg/sg132_1_cif.got.tgz:1853.got - 2010.04.06 17:53:44.
