data_PCOD8316302
_publ_section_title
;
Structure prediction by ZEFSAII (Michael W. Deem and Ramdas Pophale) SiO2 
 PCOD8316302
Probable space group: P 42/M M C
;
_chemical_formula_sum "Si O2"
_cell_formula_units_Z 112
_cell_length_a 15.433889
_cell_length_b 15.433889
_cell_length_c 27.029005
_cell_angle_alpha 90.000000
_cell_angle_beta 90.000000
_cell_angle_gamma 90.000000
_cell_volume 6438.442235
_symmetry_space_group_name_H-M "P 42/M M C"
_symmetry_group_IT_number 131
_symmetry_cell_setting 'tetragonal'
loop_
_space_group_symop_operation_xyz
x,y,z
-x,-y,z
-y,x,1/2+z
y,-x,1/2+z
-x,y,-z
x,-y,-z
y,x,1/2-z
-y,-x,1/2-z
-x,-y,-z
x,y,-z
y,-x,1/2-z
-y,x,1/2-z
x,-y,z
-x,y,z
-y,-x,1/2+z
y,x,1/2+z
loop_
_atom_site_type_symbol
_atom_site_label
_atom_site_fract_x
_atom_site_fract_y
_atom_site_fract_z
Si Si1 0.403368 0.402080 0.441526
Si Si2 0.599242 0.093560 0.158121
Si Si3 0.765277 0.313855 0.601769
Si Si4 0.098224 0.809335 0.444564
Si Si5 0.402630 0.101062 0.732961
Si Si6 0.098062 0.901261 0.655220
Si Si7 0.795950 0.251540 0.802908
O O1 0.399067 0.400023 0.500000
O O2 0.390721 0.500000 0.422099
O O3 0.500000 0.368845 0.424651
O O4 0.323978 0.344880 0.422168
O O5 0.500000 0.077352 0.168195
O O6 0.610413 0.168294 0.117649
O O7 0.637166 0.119634 0.211957
O O8 0.640074 0.000000 0.141004
O O9 0.823628 0.258507 0.563886
O O10 0.735903 0.268062 0.651708
O O11 0.110132 0.847654 0.500000
O O12 0.110030 0.883439 0.403377
O O13 0.000000 0.769496 0.439870
O O14 0.500000 0.140225 0.726488
O O15 0.335982 0.142800 0.694228
O O16 0.405940 0.000000 0.722051
O O17 0.160881 0.845513 0.689518
O O18 0.000000 0.879573 0.671712
O O19 0.121414 0.000000 0.664705
O O20 0.748194 0.251807 0.750000
#
# Coordination Sequence:
#
# PCOD8316302 Si02
#       7
#    16  16  16  16  16  16  16
#     4   9  19  36  56  76  96 122 160 203 249 302
#     4   9  17  29  46  68  93 124 162 199 235 284
#     4  11  19  30  50  72 101 127 161 197 247 300
#     4   9  18  31  47  70  99 129 161 201 251 304
#     4   9  18  33  50  66  89 126 170 208 241 282
#     4   9  19  33  48  69  96 130 173 213 247 290
#     4  11  21  32  46  72 101 133 163 202 250 295
#
# _framework density 17.395513000000001
#
# number of rings (size 3 to 8) (size 9 to 14) (size 15 to 20)
#    0.000    2.429    1.429    3.000    0.000    2.571 
#    0.000    2.143    0.000    0.000    0.000    7.000 
#    0.000    0.000    0.000   26.571    0.000    0.286 
#
# Total GULP energy -1387463.080093 kJ/mol
# GULP energy per Si atom -12388.063215 kJ/mol
# Density = 1.735592 g / cm^3
# Si number density = 17.395513 Si / 1000 Ang^3
#
#
#
# Elastic Constant Matrix: (Units=GPa)
#
#
# Indices 1 2 3 4 5 6 
#
# 1 78.4841 28.5041 14.2417 0.0000 0.0000 0.0000
# 2 28.5041 78.4837 14.2415 0.0000 0.0000 0.0000
# 3 14.2417 14.2415 53.5805 0.0000 0.0000 0.0000
# 4 0.0000 0.0000 0.0000 20.0938 0.0000 0.0000
# 5 0.0000 0.0000 0.0000 0.0000 20.0938 0.0000
# 6 0.0000 0.0000 0.0000 0.0000 0.0000 29.0441
#
#
#
# Elastic Compliance Matrix: (Units=1/GPa)
#
#
# Indices 1 2 3 4 5 6 
#
# 1 0.015033 -0.004975 -0.002674 0.000000 0.000000 0.000000
# 2 -0.004975 0.015033 -0.002674 0.000000 0.000000 0.000000
# 3 -0.002674 -0.002674 0.020085 0.000000 0.000000 0.000000
# 4 0.000000 0.000000 0.000000 0.049767 0.000000 0.000000
# 5 0.000000 0.000000 0.000000 0.000000 0.049767 0.000000
# 6 0.000000 0.000000 0.000000 0.000000 0.000000 0.034430
#
#
# Mechanical properties :
#
#
# Convention : Reuss Voigt Hill
#
# Bulk Modulus (GPa) = 33.88941 36.05810 34.97375
# Shear Modulus (GPa) = 23.29973 24.08373 23.69173
#
# Velocity S-wave (km/s) = 3.66377 3.72490 3.69446
# Velocity P-wave (km/s) = 6.11732 6.26683 6.19253
#
# Compressibility (1/GPa) = 0.02950775
#
# Stress axis : x y z
#
# Youngs Moduli (GPa) = 66.51892 66.51870 49.78898
#
# Poissons Ratio (x) = 0.33091 0.13312
# Poissons Ratio (y) = 0.33091 0.13311
# Poissons Ratio (z) = 0.17785 0.17784
#
# Static dielectric constant tensor:
#      x y z
#    x 3.250890 0.000000 0.000000 
#    y 0.000000 3.250890 0.000000 
#    z 0.000000 0.000000 3.159850 
# 
# 
# High freq. dielectric constant tensor:
#      x y z
#    x 1.667030 0.000000 0.000000 
#    y 0.000000 1.667030 0.000000 
#    z 0.000000 0.000000 1.660780 
# 
# From -- ./inp_files/12414.got.cif
#   From: 2010.03.12/outbox.cif.g09.slc.cpg/sg131_7_cif.got.tgz:12414.got - 2010.04.06 17:36:35.
