data_PCOD8316643
_publ_section_title
;
Structure prediction by ZEFSAII (Michael W. Deem and Ramdas Pophale) SiO2 
 PCOD8316643
Probable space group: P 42/M C M
;
_chemical_formula_sum "Si O2"
_cell_formula_units_Z 64
_cell_length_a 19.730887
_cell_length_b 19.730887
_cell_length_c 8.656490
_cell_angle_alpha 90.000000
_cell_angle_beta 90.000000
_cell_angle_gamma 90.000000
_cell_volume 3370.039959
_symmetry_space_group_name_H-M "P 42/M C M"
_symmetry_group_IT_number 132
_symmetry_cell_setting 'tetragonal'
loop_
_space_group_symop_operation_xyz
x,y,z
-y,x,1/2+z
-x,-y,z
y,-x,1/2+z
x,-y,1/2-z
-x,y,1/2-z
y,x,-z
-y,-x,-z
-x,-y,-z
y,-x,1/2-z
x,y,-z
-y,x,1/2-z
-x,y,1/2+z
x,-y,1/2+z
-y,-x,z
y,x,z
loop_
_atom_site_type_symbol
_atom_site_label
_atom_site_fract_x
_atom_site_fract_y
_atom_site_fract_z
Si Si1 0.569893 0.813439 0.179364
Si Si2 0.284383 0.175649 0.682030
Si Si3 0.927265 0.817042 0.177605
Si Si4 0.328517 0.562120 0.174901
O O1 0.500000 0.846022 0.250000
O O2 0.640653 0.838004 0.251758
O O3 0.568995 0.733665 0.209255
O O4 0.570805 0.830906 0.000000
O O5 0.291734 0.180872 0.500000
O O6 0.244228 0.244228 0.741314
O O7 0.241686 0.110108 0.727967
O O8 0.887306 0.887306 0.193529
O O9 0.000000 0.829518 0.250000
O O10 0.932992 0.794179 0.000000
O O11 0.371889 0.500000 0.250000
O O12 0.369236 0.630765 0.177845
O O13 0.304464 0.546750 0.000000
#
# Coordination Sequence:
#
# PCOD8316643 Si02
#       4
#    16  16  16  16
#     4  11  21  33  51  74 101 133 172 220 273 326
#     4  10  20  35  56  81 110 144 183 228 277 328
#     4  10  21  37  58  86 119 154 191 227 266 314
#     4  10  20  32  45  62  86 118 158 205 259 319
#
# _framework density 18.990872
#
# number of rings (size 3 to 8) (size 9 to 14) (size 15 to 20)
#    0.000    1.750    0.000    6.750    0.000    8.500 
#    0.000    2.500    0.000    0.750    0.000    5.250 
#    0.000    0.000    0.000    0.000    0.000    0.000 
#
# Total GULP energy -793056.025276 kJ/mol
# GULP energy per Si atom -12391.500395 kJ/mol
# Density = 1.894765 g / cm^3
# Si number density = 18.990872 Si / 1000 Ang^3
#
#
#
# Elastic Constant Matrix: (Units=GPa)
#
#
# Indices 1 2 3 4 5 6 
#
# 1 104.0773 30.2045 35.5766 0.0000 0.0000 0.0000
# 2 30.2045 104.0773 35.5766 0.0000 0.0000 0.0000
# 3 35.5766 35.5766 102.8607 0.0000 0.0000 0.0000
# 4 0.0000 0.0000 0.0000 31.6957 0.0000 0.0000
# 5 0.0000 0.0000 0.0000 0.0000 31.6957 0.0000
# 6 0.0000 0.0000 0.0000 0.0000 0.0000 6.1613
#
#
#
# Elastic Compliance Matrix: (Units=1/GPa)
#
#
# Indices 1 2 3 4 5 6 
#
# 1 0.011327 -0.002209 -0.003154 0.000000 0.000000 0.000000
# 2 -0.002209 0.011327 -0.003154 0.000000 0.000000 0.000000
# 3 -0.003154 -0.003154 0.011903 0.000000 0.000000 0.000000
# 4 0.000000 0.000000 0.000000 0.031550 0.000000 0.000000
# 5 0.000000 0.000000 0.000000 0.000000 0.031550 0.000000
# 6 0.000000 0.000000 0.000000 0.000000 0.000000 0.162304
#
#
# Mechanical properties :
#
#
# Convention : Reuss Voigt Hill
#
# Bulk Modulus (GPa) = 57.06178 57.08119 57.07149
# Shear Modulus (GPa) = 17.67799 27.88772 22.78286
#
# Velocity S-wave (km/s) = 3.05432 3.83623 3.46739
# Velocity P-wave (km/s) = 6.52309 7.05299 6.79321
#
# Compressibility (1/GPa) = 0.01752486
#
# Stress axis : x y z
#
# Youngs Moduli (GPa) = 88.28120 88.28120 84.00938
#
# Poissons Ratio (x) = 0.19504 0.26494
# Poissons Ratio (y) = 0.19504 0.26494
# Poissons Ratio (z) = 0.27841 0.27841
#
# Static dielectric constant tensor:
#      x y z
#    x 3.717630 0.000000 0.000000 
#    y 0.000000 3.717630 0.000000 
#    z 0.000000 0.000000 3.758130 
# 
# 
# High freq. dielectric constant tensor:
#      x y z
#    x 1.724540 0.000000 0.000000 
#    y 0.000000 1.724540 0.000000 
#    z 0.000000 0.000000 1.755590 
# 
# From -- ./inp_files/1238.got.cif
#   From: 2010.03.12/outbox.cif.g09.slc.cpg/sg132_1_cif.got.tgz:1238.got - 2010.04.06 17:53:44.
