data_PCOD8316553
_publ_section_title
;
Structure prediction by ZEFSAII (Michael W. Deem and Ramdas Pophale) SiO2 
 PCOD8316553
Probable space group: P 42/M C M
;
_chemical_formula_sum "Si O2"
_cell_formula_units_Z 72
_cell_length_a 12.514103
_cell_length_b 12.514103
_cell_length_c 27.740237
_cell_angle_alpha 90.000000
_cell_angle_beta 90.000000
_cell_angle_gamma 90.000000
_cell_volume 4344.198063
_symmetry_space_group_name_H-M "P 42/M C M"
_symmetry_group_IT_number 132
_symmetry_cell_setting 'tetragonal'
loop_
_space_group_symop_operation_xyz
x,y,z
-y,x,1/2+z
-x,-y,z
y,-x,1/2+z
x,-y,1/2-z
-x,y,1/2-z
y,x,-z
-y,-x,-z
-x,-y,-z
y,-x,1/2-z
x,y,-z
-y,x,1/2-z
-x,y,1/2+z
x,-y,1/2+z
-y,-x,z
y,x,z
loop_
_atom_site_type_symbol
_atom_site_label
_atom_site_fract_x
_atom_site_fract_y
_atom_site_fract_z
Si Si1 0.417681 0.582320 0.056718
Si Si2 0.005238 0.827090 0.302434
Si Si3 0.254390 0.925229 0.101392
Si Si4 0.459274 0.822215 0.057329
Si Si5 0.302669 0.137005 0.943547
O O1 0.500000 0.500000 0.081359
O O2 0.450449 0.699799 0.072926
O O3 0.426312 0.573689 0.000000
O O4 0.925465 0.925465 0.300362
O O5 0.966255 0.744808 0.343358
O O6 0.000000 0.768866 0.250000
O O7 0.123787 0.876214 0.313456
O O8 0.160979 0.839021 0.090706
O O9 0.370144 0.880824 0.088540
O O10 0.237219 0.029665 0.068636
O O11 0.574602 0.865485 0.074759
O O12 0.439248 0.840421 0.000000
O O13 0.238224 0.238224 0.921514
O O14 0.307771 0.151483 0.000000
#
# Coordination Sequence:
#
# PCOD8316553 Si02
#       5
#     8  16  16  16  16
#     4   9  16  28  48  68  89 125 173 215 238 266
#     4   8  15  29  48  69  94 126 160 192 233 291
#     4  11  20  30  48  74 100 125 153 197 251 299
#     4  10  19  32  47  67  97 131 167 204 244 284
#     4  10  21  34  47  65  94 135 174 202 232 282
#
# _framework density 16.573830000000001
#
# number of rings (size 3 to 8) (size 9 to 14) (size 15 to 20)
#    0.000    2.333    1.111    3.333    0.000    7.111 
#    0.000    1.111    0.000    2.667    0.000    0.000 
#    0.000    0.000    0.000    0.889    0.000    0.000 
#
# Total GULP energy -892186.675371 kJ/mol
# GULP energy per Si atom -12391.481602 kJ/mol
# Density = 1.653611 g / cm^3
# Si number density = 16.573830 Si / 1000 Ang^3
#
#
#
# Elastic Constant Matrix: (Units=GPa)
#
#
# Indices 1 2 3 4 5 6 
#
# 1 111.7039 54.7063 45.5846 0.0000 0.0000 0.0000
# 2 54.7063 111.7038 45.5846 0.0000 0.0000 0.0000
# 3 45.5846 45.5846 50.7047 0.0000 0.0000 0.0000
# 4 0.0000 0.0000 0.0000 -137.2259 0.0000 0.0000
# 5 0.0000 0.0000 0.0000 0.0000 -137.2302 0.0000
# 6 0.0000 0.0000 0.0000 0.0000 0.0000 27.5459
#
#
#
# Elastic Compliance Matrix: (Units=1/GPa)
#
#
# Indices 1 2 3 4 5 6 
#
# 1 0.014693 -0.002851 -0.010646 0.000000 0.000000 0.000000
# 2 -0.002851 0.014693 -0.010646 0.000000 0.000000 0.000000
# 3 -0.010646 -0.010646 0.038864 0.000000 0.000000 0.000000
# 4 0.000000 0.000000 0.000000 -0.007287 0.000000 0.000000
# 5 0.000000 0.000000 0.000000 0.000000 -0.007287 0.000000
# 6 0.000000 0.000000 0.000000 0.000000 0.000000 0.036303
#
#
# Mechanical properties :
#
#
# Convention : Reuss Voigt Hill
#
# Bulk Modulus (GPa) = 50.09137 62.87370 56.48254
# Shear Modulus (GPa) = 34.50174 -40.83291 -3.16559
#
# Velocity S-wave (km/s) = 4.56751 -4.96895 -1.38352
# Velocity P-wave (km/s) = 7.62267 2.25771 5.62149
#
# Compressibility (1/GPa) = 0.01996352
#
# Stress axis : x y z
#
# Youngs Moduli (GPa) = 68.05892 68.05872 25.73083
#
# Poissons Ratio (x) = 0.19407 0.27393
# Poissons Ratio (y) = 0.19407 0.27393
# Poissons Ratio (z) = 0.72455 0.72455
#
# Static dielectric constant tensor:
#      x y z
#    x 3.090610 0.000000 0.000000 
#    y 0.000000 3.090600 0.000000 
#    z 0.000000 0.000000 3.164150 
# 
# 
# High freq. dielectric constant tensor:
#      x y z
#    x 1.640020 0.000000 0.000000 
#    y 0.000000 1.640020 0.000000 
#    z 0.000000 0.000000 1.597350 
# 
# From -- ./inp_files/9777.got.cif
#   From: 2010.03.12/outbox.cif.g09.slc.cpg/sg132_5_cif.got.tgz:9777.got - 2010.04.06 17:53:44.
