data_PCOD8316712
_publ_section_title
;
Structure prediction by ZEFSAII (Michael W. Deem and Ramdas Pophale) SiO2 
 PCOD8316712
Probable space group: P 42/M C M
;
_chemical_formula_sum "Si O2"
_cell_formula_units_Z 64
_cell_length_a 12.225667
_cell_length_b 12.225667
_cell_length_c 25.160423
_cell_angle_alpha 90.000000
_cell_angle_beta 90.000000
_cell_angle_gamma 90.000000
_cell_volume 3760.651274
_symmetry_space_group_name_H-M "P 42/M C M"
_symmetry_group_IT_number 132
_symmetry_cell_setting 'tetragonal'
loop_
_space_group_symop_operation_xyz
x,y,z
-y,x,1/2+z
-x,-y,z
y,-x,1/2+z
x,-y,1/2-z
-x,y,1/2-z
y,x,-z
-y,-x,-z
-x,-y,-z
y,-x,1/2-z
x,y,-z
-y,x,1/2-z
-x,y,1/2+z
x,-y,1/2+z
-y,-x,z
y,x,z
loop_
_atom_site_type_symbol
_atom_site_label
_atom_site_fract_x
_atom_site_fract_y
_atom_site_fract_z
Si Si1 0.485710 0.173279 0.062829
Si Si2 0.330044 0.978974 0.093658
Si Si3 0.829470 0.004291 0.500000
Si Si4 0.587987 0.412014 0.436852
Si Si5 0.178486 0.001688 0.189174
O O1 0.596522 0.131102 0.091126
O O2 0.448845 0.292471 0.084449
O O3 0.392476 0.087677 0.076501
O O4 0.506587 0.175896 0.000000
O O5 0.286041 0.992660 0.153248
O O6 0.232096 0.968538 0.052834
O O7 0.866370 0.133631 0.500000
O O8 0.940330 0.940330 0.500000
O O9 0.500000 0.500000 0.416209
O O10 0.591740 0.408261 0.500000
O O11 0.100277 0.899724 0.177406
O O12 0.218025 0.000000 0.250000
O O13 0.113754 0.113754 0.176673
#
# Coordination Sequence:
#
# PCOD8316712 Si02
#       5
#    16  16   8   8  16
#     4  10  20  35  50  75 107 140 178 220 266 314
#     4  11  19  33  52  76 105 141 176 211 266 322
#     4  11  22  29  44  79 111 138 167 206 262 326
#     4   9  20  34  50  70  98 144 188 216 256 313
#     4   9  19  35  53  76 108 142 176 214 259 318
#
# _framework density 17.018329000000001
#
# number of rings (size 3 to 8) (size 9 to 14) (size 15 to 20)
#    0.000    2.000    2.500    3.000    3.500    4.000 
#    0.000    2.500    0.000    0.000    0.000    0.000 
#    0.000    0.000    0.000    0.000    0.000    0.000 
#
# Total GULP energy -793411.242992 kJ/mol
# GULP energy per Si atom -12397.050672 kJ/mol
# Density = 1.697959 g / cm^3
# Si number density = 17.018329 Si / 1000 Ang^3
#
#
#
# Elastic Constant Matrix: (Units=GPa)
#
#
# Indices 1 2 3 4 5 6 
#
# 1 103.5305 50.1884 27.7360 0.0000 0.0000 0.0000
# 2 50.1884 103.5308 27.7362 0.0000 0.0000 0.0000
# 3 27.7360 27.7362 74.3332 0.0000 0.0000 0.0000
# 4 0.0000 0.0000 0.0000 40.7498 0.0000 0.0000
# 5 0.0000 0.0000 0.0000 0.0000 40.7501 0.0000
# 6 0.0000 0.0000 0.0000 0.0000 0.0000 23.4302
#
#
#
# Elastic Compliance Matrix: (Units=1/GPa)
#
#
# Indices 1 2 3 4 5 6 
#
# 1 0.013132 -0.005615 -0.002805 0.000000 0.000000 0.000000
# 2 -0.005615 0.013132 -0.002805 0.000000 0.000000 0.000000
# 3 -0.002805 -0.002805 0.015546 0.000000 0.000000 0.000000
# 4 0.000000 0.000000 0.000000 0.024540 0.000000 0.000000
# 5 0.000000 0.000000 0.000000 0.000000 0.024540 0.000000
# 6 0.000000 0.000000 0.000000 0.000000 0.000000 0.042680
#
#
# Mechanical properties :
#
#
# Convention : Reuss Voigt Hill
#
# Bulk Modulus (GPa) = 51.64955 54.74618 53.19787
# Shear Modulus (GPa) = 30.77417 32.70160 31.73789
#
# Velocity S-wave (km/s) = 4.25702 4.38831 4.32316
# Velocity P-wave (km/s) = 7.38771 7.61020 7.49978
#
# Compressibility (1/GPa) = 0.01936125
#
# Stress axis : x y z
#
# Youngs Moduli (GPa) = 76.14832 76.14842 64.32414
#
# Poissons Ratio (x) = 0.42754 0.18043
# Poissons Ratio (y) = 0.42754 0.18044
# Poissons Ratio (z) = 0.21360 0.21360
#
# Static dielectric constant tensor:
#      x y z
#    x 3.309980 0.000000 0.000000 
#    y 0.000000 3.309980 0.000000 
#    z 0.000000 0.000000 3.045580 
# 
# 
# High freq. dielectric constant tensor:
#      x y z
#    x 1.660150 0.000000 0.000000 
#    y 0.000000 1.660150 0.000000 
#    z 0.000000 0.000000 1.625290 
# 
# From -- ./inp_files/8740.got.cif
#   From: 2010.03.12/outbox.cif.g09.slc.cpg/sg132_5_cif.got.tgz:8740.got - 2010.04.06 17:53:44.
