data_PCOD8316073
_publ_section_title
;
Structure prediction by ZEFSAII (Michael W. Deem and Ramdas Pophale) SiO2 
 PCOD8316073
Probable space group: P 42/M M C
;
_chemical_formula_sum "Si O2"
_cell_formula_units_Z 96
_cell_length_a 15.514616
_cell_length_b 15.514616
_cell_length_c 19.346305
_cell_angle_alpha 90.000000
_cell_angle_beta 90.000000
_cell_angle_gamma 90.000000
_cell_volume 4656.719643
_symmetry_space_group_name_H-M "P 42/M M C"
_symmetry_group_IT_number 131
_symmetry_cell_setting 'tetragonal'
loop_
_space_group_symop_operation_xyz
x,y,z
-x,-y,z
-y,x,1/2+z
y,-x,1/2+z
-x,y,-z
x,-y,-z
y,x,1/2-z
-y,-x,1/2-z
-x,-y,-z
x,y,-z
y,-x,1/2-z
-y,x,1/2-z
x,-y,z
-x,y,z
-y,-x,1/2+z
y,x,1/2+z
loop_
_atom_site_type_symbol
_atom_site_label
_atom_site_fract_x
_atom_site_fract_y
_atom_site_fract_z
Si Si1 0.097185 0.647908 0.655780
Si Si2 0.602423 0.595807 0.827025
Si Si3 0.100523 0.274474 0.923624
Si Si4 0.905506 0.177069 0.421080
Si Si5 0.258752 0.597718 0.424863
Si Si6 0.101882 0.402851 0.808876
O O1 0.100703 0.746967 0.634237
O O2 0.164408 0.596957 0.608755
O O3 0.126731 0.637149 0.734931
O O4 0.000000 0.610695 0.645050
O O5 0.626751 0.626751 0.750000
O O6 0.639848 0.500000 0.843424
O O7 0.500000 0.592356 0.832692
O O8 0.643478 0.667089 0.878633
O O9 0.114301 0.173930 0.903802
O O10 0.142450 0.340296 0.867923
O O11 0.000000 0.290937 0.924639
O O12 0.139332 0.293924 0.000000
O O13 0.897859 0.211986 0.500000
O O14 0.000000 0.131479 0.412133
O O15 0.255609 0.643951 0.500000
O O16 0.287311 0.500000 0.434786
O O17 0.139960 0.500000 0.815979
O O18 0.000000 0.406303 0.816982
#
# Coordination Sequence:
#
# PCOD8316073 Si02
#       6
#    16  16  16  16  16  16
#     4  10  20  35  54  73 102 144 183 222 271 330
#     4   8  15  31  53  74 102 141 180 219 266 322
#     4   9  18  33  54  81 111 141 178 227 280 335
#     4   9  18  33  53  77 107 144 183 224 275 335
#     4  10  20  32  50  79 108 133 171 222 271 324
#     4   9  18  33  53  77 106 142 184 227 274 334
#
# _framework density 20.615371
#
# number of rings (size 3 to 8) (size 9 to 14) (size 15 to 20)
#    0.000    2.833    0.000    1.500    0.000    3.667 
#    3.000    5.833    0.000    0.000    0.000    7.000 
#    0.000    0.000    0.000    0.000    0.000    0.000 
#
# Total GULP energy -1189413.229006 kJ/mol
# GULP energy per Si atom -12389.721135 kJ/mol
# Density = 2.056845 g / cm^3
# Si number density = 20.615371 Si / 1000 Ang^3
#
#
#
# Elastic Constant Matrix: (Units=GPa)
#
#
# Indices 1 2 3 4 5 6 
#
# 1 76.8198 17.2217 62.2429 0.0000 0.0000 0.0000
# 2 17.2217 76.8198 62.2429 0.0000 0.0000 0.0000
# 3 62.2429 62.2429 173.6843 0.0000 0.0000 0.0000
# 4 0.0000 0.0000 0.0000 21.8247 0.0000 0.0000
# 5 0.0000 0.0000 0.0000 0.0000 21.8247 0.0000
# 6 0.0000 0.0000 0.0000 0.0000 0.0000 11.2941
#
#
#
# Elastic Compliance Matrix: (Units=1/GPa)
#
#
# Indices 1 2 3 4 5 6 
#
# 1 0.018505 0.001726 -0.007250 0.000000 0.000000 0.000000
# 2 0.001726 0.018505 -0.007250 0.000000 0.000000 0.000000
# 3 -0.007250 -0.007250 0.010954 0.000000 0.000000 0.000000
# 4 0.000000 0.000000 0.000000 0.045820 0.000000 0.000000
# 5 0.000000 0.000000 0.000000 0.000000 0.045820 0.000000
# 6 0.000000 0.000000 0.000000 0.000000 0.000000 0.088542
#
#
# Mechanical properties :
#
#
# Convention : Reuss Voigt Hill
#
# Bulk Modulus (GPa) = 44.61258 67.85989 56.23623
# Shear Modulus (GPa) = 19.14496 23.36313 21.25404
#
# Velocity S-wave (km/s) = 3.05072 3.37008 3.21437
# Velocity P-wave (km/s) = 5.83923 6.93771 6.41204
#
# Compressibility (1/GPa) = 0.02241520
#
# Stress axis : x y z
#
# Youngs Moduli (GPa) = 54.03980 54.03980 91.29135
#
# Poissons Ratio (x) = -0.09326 0.66187
# Poissons Ratio (y) = -0.09326 0.66187
# Poissons Ratio (z) = 0.39179 0.39179
#
# Static dielectric constant tensor:
#      x y z
#    x 3.649520 0.000000 0.000000 
#    y 0.000000 3.649520 0.000000 
#    z 0.000000 0.000000 4.176000 
# 
# 
# High freq. dielectric constant tensor:
#      x y z
#    x 1.788050 0.000000 0.000000 
#    y 0.000000 1.788050 0.000000 
#    z 0.000000 0.000000 1.809300 
# 
# From -- ./inp_files/9773.got.cif
#   From: 2010.03.12/outbox.cif.g09.slc.cpg/sg131_5_cif.got.tgz:9773.got - 2010.04.06 17:36:35.
