data_PCOD8316955
_publ_section_title
;
Structure prediction by ZEFSAII (Michael W. Deem and Ramdas Pophale) SiO2 
 PCOD8316955
Probable space group: P 42/N B C
;
_chemical_formula_sum "Si O2"
_cell_formula_units_Z 88
_cell_length_a 13.295765
_cell_length_b 13.295765
_cell_length_c 26.603365
_cell_angle_alpha 90.000000
_cell_angle_beta 90.000000
_cell_angle_gamma 90.000000
_cell_volume 4702.872816
_symmetry_space_group_name_H-M "P 42/N B C"
_symmetry_group_IT_number 133
_space_group.IT_coordinate_system_code '2'
_symmetry_cell_setting 'tetragonal'
loop_
_space_group_symop_operation_xyz
x,y,z
1/2-y,x,1/2+z
1/2-x,1/2-y,z
y,1/2-x,1/2+z
x,1/2-y,-z
1/2-x,y,-z
y,x,1/2-z
1/2-y,1/2-x,1/2-z
-x,-y,-z
1/2+y,-x,1/2-z
1/2+x,1/2+y,-z
-y,1/2+x,1/2-z
-x,1/2+y,z
1/2+x,-y,z
-y,-x,1/2+z
1/2+y,1/2+x,1/2+z
loop_
_atom_site_type_symbol
_atom_site_label
_atom_site_fract_x
_atom_site_fract_y
_atom_site_fract_z
Si Si1 0.383752 0.171317 0.044334
Si Si2 0.250000 0.750000 0.129371
Si Si3 0.117228 0.829996 0.044058
Si Si4 0.733877 0.115140 0.779589
Si Si5 0.739565 0.615411 0.780236
Si Si6 0.498647 0.250000 0.500000
Si Si7 0.250000 0.250000 0.628483
O O1 0.500336 0.142013 0.049337
O O2 0.319913 0.069999 0.035511
O O3 0.347652 0.226056 0.094969
O O4 0.364811 0.250000 0.000000
O O5 0.154467 0.779790 0.095565
O O6 0.283249 0.843320 0.164227
O O7 0.178450 0.932409 0.034412
O O8 0.136633 0.750000 0.000000
O O9 0.649849 0.157191 0.741191
O O10 0.725822 0.997497 0.781271
O O11 0.634570 0.634570 0.750000
O O12 0.824919 0.675082 0.750000
O O13 0.726500 0.653252 0.837211
#
# Coordination Sequence:
#
# PCOD8316955 Si02
#       7
#    16   8  16  16  16   8   8
#     4  11  23  39  59  86 121 159 197 238 293 351
#     4  10  20  38  60  84 120 152 192 248 290 340
#     4  11  23  39  59  86 121 159 197 237 294 350
#     4   9  21  39  62  85 116 150 189 241 295 347
#     4   9  21  39  62  85 116 150 189 241 295 347
#     4  12  20  40  60  84 120 164 192 252 288 346
#     4  10  20  38  60  84 120 152 192 248 290 340
#
# _framework density 18.711964999999999
#
# number of rings (size 3 to 8) (size 9 to 14) (size 15 to 20)
#    0.000    2.182    3.636    0.545    2.545    6.545 
#    0.000    0.000    0.000    0.000    0.000    0.000 
#    0.000    0.000    0.000    0.000    0.000    0.000 
#
# Total GULP energy -1091070.848300 kJ/mol
# GULP energy per Si atom -12398.532367 kJ/mol
# Density = 1.866938 g / cm^3
# Si number density = 18.711965 Si / 1000 Ang^3
#
#
#
# Elastic Constant Matrix: (Units=GPa)
#
#
# Indices 1 2 3 4 5 6 
#
# 1 141.6521 51.0097 55.9402 0.0000 0.0000 0.0000
# 2 51.0097 141.6514 55.9402 0.0000 0.0000 0.0000
# 3 55.9402 55.9402 139.9526 0.0000 0.0000 0.0000
# 4 0.0000 0.0000 0.0000 14.0858 0.0000 0.0000
# 5 0.0000 0.0000 0.0000 0.0000 14.0857 0.0000
# 6 0.0000 0.0000 0.0000 0.0000 0.0000 27.9481
#
#
#
# Elastic Compliance Matrix: (Units=1/GPa)
#
#
# Indices 1 2 3 4 5 6 
#
# 1 0.008896 -0.002136 -0.002702 0.000000 0.000000 0.000000
# 2 -0.002136 0.008896 -0.002702 0.000000 0.000000 0.000000
# 3 -0.002702 -0.002702 0.009305 0.000000 0.000000 0.000000
# 4 0.000000 0.000000 0.000000 0.070994 0.000000 0.000000
# 5 0.000000 0.000000 0.000000 0.000000 0.070994 0.000000
# 6 0.000000 0.000000 0.000000 0.000000 0.000000 0.035781
#
#
# Mechanical properties :
#
#
# Convention : Reuss Voigt Hill
#
# Bulk Modulus (GPa) = 83.21694 83.22627 83.22161
# Shear Modulus (GPa) = 22.32632 28.58164 25.45398
#
# Velocity S-wave (km/s) = 3.45796 3.91250 3.69223
# Velocity P-wave (km/s) = 7.77897 8.06129 7.92139
#
# Compressibility (1/GPa) = 0.01201678
#
# Stress axis : x y z
#
# Youngs Moduli (GPa) = 112.41155 112.41085 107.46752
#
# Poissons Ratio (x) = 0.24017 0.29035
# Poissons Ratio (y) = 0.24017 0.29036
# Poissons Ratio (z) = 0.30371 0.30371
#
# Static dielectric constant tensor:
#      x y z
#    x 3.472160 0.000000 0.000000 
#    y 0.000000 3.472160 0.000000 
#    z 0.000000 0.000000 3.538440 
# 
# 
# High freq. dielectric constant tensor:
#      x y z
#    x 1.723750 0.000000 0.000000 
#    y 0.000000 1.723750 0.000000 
#    z 0.000000 0.000000 1.734830 
# 
# From -- ./inp_files/7166.got.cif
#   From: 2010.03.12/outbox.cif.g09.slc.cpg/sg133_4_cif.got.tgz:7166.got - 2010.04.06 18:08:06.
