data_PCOD8316799
_publ_section_title
;
Structure prediction by ZEFSAII (Michael W. Deem and Ramdas Pophale) SiO2 
 PCOD8316799
Probable space group: P 42/M C M
;
_chemical_formula_sum "Si O2"
_cell_formula_units_Z 36
_cell_length_a 14.804787
_cell_length_b 14.804787
_cell_length_c 8.745096
_cell_angle_alpha 90.000000
_cell_angle_beta 90.000000
_cell_angle_gamma 90.000000
_cell_volume 1916.765166
_symmetry_space_group_name_H-M "P 42/M C M"
_symmetry_group_IT_number 132
_symmetry_cell_setting 'tetragonal'
loop_
_space_group_symop_operation_xyz
x,y,z
-y,x,1/2+z
-x,-y,z
y,-x,1/2+z
x,-y,1/2-z
-x,y,1/2-z
y,x,-z
-y,-x,-z
-x,-y,-z
y,-x,1/2-z
x,y,-z
-y,x,1/2-z
-x,y,1/2+z
x,-y,1/2+z
-y,-x,z
y,x,z
loop_
_atom_site_type_symbol
_atom_site_label
_atom_site_fract_x
_atom_site_fract_y
_atom_site_fract_z
Si Si1 0.913017 0.324113 0.829381
Si Si2 0.270488 0.270488 0.820683
Si Si3 0.000000 0.500000 0.250000
Si Si4 0.594165 0.405836 0.179234
O O1 0.831207 0.297135 0.719975
O O2 0.932535 0.432897 0.843559
O O3 0.000000 0.277105 0.750000
O O4 0.896491 0.286241 0.000000
O O5 0.332078 0.332078 0.715131
O O6 0.287151 0.287151 0.000000
O O7 0.626472 0.500000 0.250000
O O8 0.582252 0.417748 0.000000
#
# Coordination Sequence:
#
# PCOD8316799 Si02
#       4
#    16   8   4   8
#     4  10  21  38  60  88 122 156 199 252 308 364
#     4  12  25  39  60  89 122 162 207 252 305 366
#     4   8  22  36  66  88 122 152 206 248 322 360
#     4  11  23  40  57  78 113 155 201 248 299 361
#
# _framework density 18.781644
#
# number of rings (size 3 to 8) (size 9 to 14) (size 15 to 20)
#    1.333    0.222    0.000    6.667    3.111    0.000 
#    0.000    0.000    0.000    0.667    0.000    4.667 
#    0.000    0.000    0.000    0.000    0.000    0.000 
#
# Total GULP energy -446000.066734 kJ/mol
# GULP energy per Si atom -12388.890743 kJ/mol
# Density = 1.873890 g / cm^3
# Si number density = 18.781644 Si / 1000 Ang^3
#
#
#
# Elastic Constant Matrix: (Units=GPa)
#
#
# Indices 1 2 3 4 5 6 
#
# 1 74.6990 61.6829 20.2336 0.0000 0.0000 0.0000
# 2 61.6829 74.7003 20.2347 0.0000 0.0000 0.0000
# 3 20.2336 20.2347 142.9384 0.0000 0.0000 0.0000
# 4 0.0000 0.0000 0.0000 24.9334 0.0000 0.0000
# 5 0.0000 0.0000 0.0000 0.0000 24.9325 0.0000
# 6 0.0000 0.0000 0.0000 0.0000 0.0000 30.7582
#
#
#
# Elastic Compliance Matrix: (Units=1/GPa)
#
#
# Indices 1 2 3 4 5 6 
#
# 1 0.042239 -0.034585 -0.001083 0.000000 0.000000 0.000000
# 2 -0.034585 0.042239 -0.001084 0.000000 0.000000 0.000000
# 3 -0.001083 -0.001084 0.007303 0.000000 0.000000 0.000000
# 4 0.000000 0.000000 0.000000 0.040107 0.000000 0.000000
# 5 0.000000 0.000000 0.000000 0.000000 0.040108 0.000000
# 6 0.000000 0.000000 0.000000 0.000000 0.000000 0.032512
#
#
# Mechanical properties :
#
#
# Convention : Reuss Voigt Hill
#
# Bulk Modulus (GPa) = 54.71498 55.18225 54.94861
# Shear Modulus (GPa) = 17.59920 28.80392 23.20156
#
# Velocity S-wave (km/s) = 3.06444 3.92040 3.51854
# Velocity P-wave (km/s) = 6.45883 7.06664 6.76956
#
# Compressibility (1/GPa) = 0.01827653
#
# Stress axis : x y z
#
# Youngs Moduli (GPa) = 23.67467 23.67497 136.93440
#
# Poissons Ratio (x) = 0.81880 0.14833
# Poissons Ratio (y) = 0.81879 0.14840
# Poissons Ratio (z) = 0.02564 0.02566
#
# Static dielectric constant tensor:
#      x y z
#    x 3.388060 0.000000 0.000000 
#    y 0.000000 3.388070 0.000000 
#    z 0.000000 0.000000 3.390270 
# 
# 
# High freq. dielectric constant tensor:
#      x y z
#    x 1.714530 0.000000 0.000000 
#    y 0.000000 1.714530 0.000000 
#    z 0.000000 0.000000 1.744390 
# 
# From -- ./inp_files/467.got.cif
#   From: 2010.03.12/outbox.cif.g09.slc.cpg/sg132_1_cif.got.tgz:467.got - 2010.04.06 17:53:44.
