data_PCOD8316440
_publ_section_title
;
Structure prediction by ZEFSAII (Michael W. Deem and Ramdas Pophale) SiO2 
 PCOD8316440
Probable space group: P 42/M C M
;
_chemical_formula_sum "Si O2"
_cell_formula_units_Z 96
_cell_length_a 24.764501
_cell_length_b 24.764501
_cell_length_c 9.260285
_cell_angle_alpha 90.000000
_cell_angle_beta 90.000000
_cell_angle_gamma 90.000000
_cell_volume 5679.152305
_symmetry_space_group_name_H-M "P 42/M C M"
_symmetry_group_IT_number 132
_symmetry_cell_setting 'tetragonal'
loop_
_space_group_symop_operation_xyz
x,y,z
-y,x,1/2+z
-x,-y,z
y,-x,1/2+z
x,-y,1/2-z
-x,y,1/2-z
y,x,-z
-y,-x,-z
-x,-y,-z
y,-x,1/2-z
x,y,-z
-y,x,1/2-z
-x,y,1/2+z
x,-y,1/2+z
-y,-x,z
y,x,z
loop_
_atom_site_type_symbol
_atom_site_label
_atom_site_fract_x
_atom_site_fract_y
_atom_site_fract_z
Si Si1 0.735144 0.549794 0.160245
Si Si2 0.340366 0.858265 0.165937
Si Si3 0.352353 0.268151 0.660084
Si Si4 0.553358 0.863856 0.165625
Si Si5 0.856938 0.230255 0.667338
Si Si6 0.140054 0.944960 0.666621
O O1 0.712419 0.500000 0.250000
O O2 0.710401 0.603817 0.227521
O O3 0.799598 0.551430 0.164532
O O4 0.712804 0.544119 0.000000
O O5 0.345063 0.794769 0.171700
O O6 0.391817 0.883604 0.252209
O O7 0.283274 0.871116 0.240200
O O8 0.340949 0.879439 0.000000
O O9 0.372221 0.283861 0.500000
O O10 0.295439 0.295439 0.698357
O O11 0.500000 0.885860 0.250000
O O12 0.553427 0.885647 0.000000
O O13 0.850755 0.246989 0.500000
O O14 0.802360 0.197641 0.715731
O O15 0.908126 0.192195 0.691103
O O16 0.133072 0.959147 0.500000
O O17 0.087081 0.912920 0.722360
O O18 0.147724 0.000000 0.750000
#
# Coordination Sequence:
#
# PCOD8316440 Si02
#       6
#    16  16  16  16  16  16
#     4   9  16  25  37  51  68  94 128 164 203 248
#     4  10  18  27  41  62  87 117 153 188 223 267
#     4   9  17  27  37  52  77 105 132 166 205 244
#     4   9  16  26  39  56  80 112 149 188 228 267
#     4   9  18  32  47  64  91 125 157 191 233 280
#     4   9  19  35  53  74 100 129 161 198 240 284
#
# _framework density 16.903929999999999
#
# number of rings (size 3 to 8) (size 9 to 14) (size 15 to 20)
#    0.000    2.833    0.000    3.000    0.000    7.167 
#    0.000    2.500    0.000    0.000    0.000    0.000 
#    0.000    1.000    0.000   10.500    0.000    6.000 
#
# Total GULP energy -1189728.166670 kJ/mol
# GULP energy per Si atom -12393.001736 kJ/mol
# Density = 1.686546 g / cm^3
# Si number density = 16.903930 Si / 1000 Ang^3
#
#
#
# Elastic Constant Matrix: (Units=GPa)
#
#
# Indices 1 2 3 4 5 6 
#
# 1 75.1685 8.9716 42.6158 0.0000 0.0000 0.0000
# 2 8.9716 75.1685 42.6158 0.0000 0.0000 0.0000
# 3 42.6158 42.6158 119.4983 0.0000 0.0000 0.0000
# 4 0.0000 0.0000 0.0000 27.3075 0.0000 0.0000
# 5 0.0000 0.0000 0.0000 0.0000 27.3075 0.0000
# 6 0.0000 0.0000 0.0000 0.0000 0.0000 9.0007
#
#
#
# Elastic Compliance Matrix: (Units=1/GPa)
#
#
# Indices 1 2 3 4 5 6 
#
# 1 0.016856 0.001750 -0.006636 0.000000 0.000000 0.000000
# 2 0.001750 0.016856 -0.006636 0.000000 0.000000 0.000000
# 3 -0.006636 -0.006636 0.013101 0.000000 0.000000 0.000000
# 4 0.000000 0.000000 0.000000 0.036620 0.000000 0.000000
# 5 0.000000 0.000000 0.000000 0.000000 0.036620 0.000000
# 6 0.000000 0.000000 0.000000 0.000000 0.000000 0.111103
#
#
# Mechanical properties :
#
#
# Convention : Reuss Voigt Hill
#
# Bulk Modulus (GPa) = 42.06616 50.91576 46.49096
# Shear Modulus (GPa) = 19.07504 24.43194 21.75349
#
# Velocity S-wave (km/s) = 3.36287 3.80589 3.59122
# Velocity P-wave (km/s) = 6.32598 7.03556 6.69018
#
# Compressibility (1/GPa) = 0.02377208
#
# Stress axis : x y z
#
# Youngs Moduli (GPa) = 59.32436 59.32436 76.32969
#
# Poissons Ratio (x) = -0.10382 0.50649
# Poissons Ratio (y) = -0.10382 0.50649
# Poissons Ratio (z) = 0.39365 0.39365
#
# Static dielectric constant tensor:
#      x y z
#    x 2.975260 0.000000 0.000000 
#    y 0.000000 2.975260 0.000000 
#    z 0.000000 0.000000 3.406890 
# 
# 
# High freq. dielectric constant tensor:
#      x y z
#    x 1.623650 0.000000 0.000000 
#    y 0.000000 1.623650 0.000000 
#    z 0.000000 0.000000 1.664000 
# 
# From -- ./inp_files/1727.got.cif
#   From: 2010.03.12/outbox.cif.g09.slc.cpg/sg132_1_cif.got.tgz:1727.got - 2010.04.06 17:53:44.
