data_PCOD8316725
_publ_section_title
;
Structure prediction by ZEFSAII (Michael W. Deem and Ramdas Pophale) SiO2 
 PCOD8316725
Probable space group: P 42/M C M
;
_chemical_formula_sum "Si O2"
_cell_formula_units_Z 96
_cell_length_a 17.049167
_cell_length_b 17.049167
_cell_length_c 18.059962
_cell_angle_alpha 90.000000
_cell_angle_beta 90.000000
_cell_angle_gamma 90.000000
_cell_volume 5249.563117
_symmetry_space_group_name_H-M "P 42/M C M"
_symmetry_group_IT_number 132
_symmetry_cell_setting 'tetragonal'
loop_
_space_group_symop_operation_xyz
x,y,z
-y,x,1/2+z
-x,-y,z
y,-x,1/2+z
x,-y,1/2-z
-x,y,1/2-z
y,x,-z
-y,-x,-z
-x,-y,-z
y,-x,1/2-z
x,y,-z
-y,x,1/2-z
-x,y,1/2+z
x,-y,1/2+z
-y,-x,z
y,x,z
loop_
_atom_site_type_symbol
_atom_site_label
_atom_site_fract_x
_atom_site_fract_y
_atom_site_fract_z
Si Si1 0.283677 0.019122 0.586660
Si Si2 0.216108 0.488945 0.337111
Si Si3 0.933207 0.560227 0.087344
Si Si4 0.194462 0.325050 0.586442
Si Si5 0.372427 0.496955 0.584059
Si Si6 0.875358 0.001665 0.163235
O O1 0.272674 0.013795 0.500000
O O2 0.354454 0.963117 0.612490
O O3 0.206100 0.986735 0.623759
O O4 0.296535 0.108747 0.610600
O O5 0.208295 0.500000 0.250000
O O6 0.148376 0.541123 0.373646
O O7 0.212851 0.398801 0.362156
O O8 0.300904 0.519461 0.362741
O O9 0.000000 0.500000 0.113288
O O10 0.919862 0.554120 0.000000
O O11 0.195889 0.350045 0.500000
O O12 0.256454 0.256454 0.602741
O O13 0.341628 0.487438 0.500000
O O14 0.432642 0.567359 0.589752
O O15 0.415815 0.415815 0.607836
O O16 0.931788 0.931788 0.138077
O O17 0.861164 0.000000 0.250000
O O18 0.915512 0.084489 0.140240
#
# Coordination Sequence:
#
# PCOD8316725 Si02
#       6
#    16  16  16  16  16  16
#     4  10  20  35  58  86 109 138 186 239 282 321
#     4  12  24  35  53  85 117 151 185 230 281 343
#     4  10  20  39  60  76 107 150 188 228 276 330
#     4  10  20  36  59  84 110 141 185 240 288 329
#     4   9  19  38  63  86 110 147 194 240 286 338
#     4   9  19  36  56  79 112 152 184 215 272 345
#
# _framework density 18.287237000000001
#
# number of rings (size 3 to 8) (size 9 to 14) (size 15 to 20)
#    0.000    2.000    1.667    3.500    0.000    5.667 
#    0.000    2.500    0.000    1.000    0.000    0.000 
#    0.000    0.000    0.000    0.000    0.000    0.000 
#
# Total GULP energy -1190428.440444 kJ/mol
# GULP energy per Si atom -12400.296255 kJ/mol
# Density = 1.824561 g / cm^3
# Si number density = 18.287237 Si / 1000 Ang^3
#
#
#
# Elastic Constant Matrix: (Units=GPa)
#
#
# Indices 1 2 3 4 5 6 
#
# 1 129.3201 55.2022 46.1759 0.0000 0.0000 0.0000
# 2 55.2022 129.3201 46.1759 0.0000 0.0000 0.0000
# 3 46.1759 46.1759 54.9428 0.0000 0.0000 0.0000
# 4 0.0000 0.0000 0.0000 16.1955 0.0000 0.0000
# 5 0.0000 0.0000 0.0000 0.0000 16.1955 0.0000
# 6 0.0000 0.0000 0.0000 0.0000 0.0000 24.1400
#
#
#
# Elastic Compliance Matrix: (Units=1/GPa)
#
#
# Indices 1 2 3 4 5 6 
#
# 1 0.011423 -0.002069 -0.007861 0.000000 0.000000 0.000000
# 2 -0.002069 0.011423 -0.007861 0.000000 0.000000 0.000000
# 3 -0.007861 -0.007861 0.031415 0.000000 0.000000 0.000000
# 4 0.000000 0.000000 0.000000 0.061745 0.000000 0.000000
# 5 0.000000 0.000000 0.000000 0.000000 0.061745 0.000000
# 6 0.000000 0.000000 0.000000 0.000000 0.000000 0.041425
#
#
# Mechanical properties :
#
#
# Convention : Reuss Voigt Hill
#
# Bulk Modulus (GPa) = 53.54164 67.63236 60.58700
# Shear Modulus (GPa) = 19.15811 22.37480 20.76645
#
# Velocity S-wave (km/s) = 3.24021 3.50168 3.37348
# Velocity P-wave (km/s) = 6.58334 7.30840 6.95532
#
# Compressibility (1/GPa) = 0.01867705
#
# Stress axis : x y z
#
# Youngs Moduli (GPa) = 87.54279 87.54279 31.83220
#
# Poissons Ratio (x) = 0.18113 0.25025
# Poissons Ratio (y) = 0.18113 0.25025
# Poissons Ratio (z) = 0.68821 0.68821
#
# Static dielectric constant tensor:
#      x y z
#    x 4.251820 0.000000 0.000000 
#    y 0.000000 4.251820 0.000000 
#    z 0.000000 0.000000 3.236700 
# 
# 
# High freq. dielectric constant tensor:
#      x y z
#    x 1.716510 0.000000 0.000000 
#    y 0.000000 1.716510 0.000000 
#    z 0.000000 0.000000 1.691610 
# 
# From -- ./inp_files/6478.got.cif
#   From: 2010.03.12/outbox.cif.g09.slc.cpg/sg132_4_cif.got.tgz:6478.got - 2010.04.06 17:53:44.
