data_PCOD8316585
_publ_section_title
;
Structure prediction by ZEFSAII (Michael W. Deem and Ramdas Pophale) SiO2 
 PCOD8316585
Probable space group: P 42/M C M
;
_chemical_formula_sum "Si O2"
_cell_formula_units_Z 96
_cell_length_a 24.258226
_cell_length_b 24.258226
_cell_length_c 9.032878
_cell_angle_alpha 90.000000
_cell_angle_beta 90.000000
_cell_angle_gamma 90.000000
_cell_volume 5315.501196
_symmetry_space_group_name_H-M "P 42/M C M"
_symmetry_group_IT_number 132
_symmetry_cell_setting 'tetragonal'
loop_
_space_group_symop_operation_xyz
x,y,z
-y,x,1/2+z
-x,-y,z
y,-x,1/2+z
x,-y,1/2-z
-x,y,1/2-z
y,x,-z
-y,-x,-z
-x,-y,-z
y,-x,1/2-z
x,y,-z
-y,x,1/2-z
-x,y,1/2+z
x,-y,1/2+z
-y,-x,z
y,x,z
loop_
_atom_site_type_symbol
_atom_site_label
_atom_site_fract_x
_atom_site_fract_y
_atom_site_fract_z
Si Si1 0.052148 0.680702 0.162128
Si Si2 0.556312 0.644359 0.827510
Si Si3 0.809476 0.050588 0.837645
Si Si4 0.753860 0.246141 0.666007
Si Si5 0.770812 0.442374 0.324506
Si Si6 0.175939 0.660361 0.177775
Si Si7 0.155067 0.155067 0.837701
O O1 0.040589 0.745032 0.146864
O O2 0.112966 0.671586 0.233054
O O3 0.000000 0.654175 0.250000
O O4 0.051642 0.652982 0.000000
O O5 0.500000 0.626150 0.750000
O O6 0.605977 0.605977 0.769092
O O7 0.572290 0.707188 0.790788
O O8 0.546511 0.636193 0.000000
O O9 0.818873 0.105652 0.750075
O O10 0.837373 0.000000 0.750000
O O11 0.836765 0.054511 0.000000
O O12 0.734598 0.265403 0.500000
O O13 0.703258 0.219780 0.755146
O O14 0.799381 0.200620 0.645573
O O15 0.786315 0.500000 0.250000
O O16 0.782825 0.443591 0.500000
O O17 0.809095 0.398920 0.241587
O O18 0.179914 0.663115 0.000000
O O19 0.135423 0.135423 0.000000
#
# Coordination Sequence:
#
# PCOD8316585 Si02
#       7
#    16  16  16   8  16  16   8
#     4   9  19  33  52  77 109 143 178 218 266 324
#     4   9  19  35  53  75 105 138 177 224 268 317
#     4  10  19  33  51  73 103 141 181 223 270 323
#     4  11  23  35  51  81 116 150 184 222 271 329
#     4  10  21  38  59  81 108 146 187 228 273 327
#     4  11  22  37  56  83 115 147 182 227 278 329
#     4  11  21  33  51  76 108 143 181 224 270 327
#
# _framework density 18.060385
#
# number of rings (size 3 to 8) (size 9 to 14) (size 15 to 20)
#    0.000    2.000    1.667    2.000    1.167    3.833 
#    0.000    0.833    0.000    0.750    0.000    5.250 
#    0.000    0.000    0.000    0.000    0.000    0.000 
#
# Total GULP energy -1190036.809955 kJ/mol
# GULP energy per Si atom -12396.216770 kJ/mol
# Density = 1.801928 g / cm^3
# Si number density = 18.060385 Si / 1000 Ang^3
#
#
#
# Elastic Constant Matrix: (Units=GPa)
#
#
# Indices 1 2 3 4 5 6 
#
# 1 86.4773 35.6831 42.4087 0.0000 0.0000 0.0000
# 2 35.6831 86.4771 42.4087 0.0000 0.0000 0.0000
# 3 42.4087 42.4087 115.0061 0.0000 0.0000 0.0000
# 4 0.0000 0.0000 0.0000 33.7030 0.0000 0.0000
# 5 0.0000 0.0000 0.0000 0.0000 33.7031 0.0000
# 6 0.0000 0.0000 0.0000 0.0000 0.0000 19.2897
#
#
#
# Elastic Compliance Matrix: (Units=1/GPa)
#
#
# Indices 1 2 3 4 5 6 
#
# 1 0.015345 -0.004342 -0.004057 0.000000 0.000000 0.000000
# 2 -0.004342 0.015345 -0.004057 0.000000 0.000000 0.000000
# 3 -0.004057 -0.004057 0.011688 0.000000 0.000000 0.000000
# 4 0.000000 0.000000 0.000000 0.029671 0.000000 0.000000
# 5 0.000000 0.000000 0.000000 0.000000 0.029671 0.000000
# 6 0.000000 0.000000 0.000000 0.000000 0.000000 0.051841
#
#
# Mechanical properties :
#
#
# Convention : Reuss Voigt Hill
#
# Bulk Modulus (GPa) = 57.26042 58.77350 58.01696
# Shear Modulus (GPa) = 27.13026 28.50317 27.81671
#
# Velocity S-wave (km/s) = 3.88002 3.97698 3.92880
# Velocity P-wave (km/s) = 7.20046 7.32816 7.26459
#
# Compressibility (1/GPa) = 0.01746407
#
# Stress axis : x y z
#
# Youngs Moduli (GPa) = 65.16707 65.16694 85.56132
#
# Poissons Ratio (x) = 0.28296 0.34716
# Poissons Ratio (y) = 0.28296 0.34716
# Poissons Ratio (z) = 0.26441 0.26441
#
# Static dielectric constant tensor:
#      x y z
#    x 3.179150 0.000000 0.000000 
#    y 0.000000 3.179150 0.000000 
#    z 0.000000 0.000000 3.800450 
# 
# 
# High freq. dielectric constant tensor:
#      x y z
#    x 1.686710 0.000000 0.000000 
#    y 0.000000 1.686710 0.000000 
#    z 0.000000 0.000000 1.713670 
# 
# From -- ./inp_files/1846.got.cif
#   From: 2010.03.12/outbox.cif.g09.slc.cpg/sg132_1_cif.got.tgz:1846.got - 2010.04.06 17:53:44.
