data_PCOD8316761
_publ_section_title
;
Structure prediction by ZEFSAII (Michael W. Deem and Ramdas Pophale) SiO2 
 PCOD8316761
Probable space group: P 42/M C M
;
_chemical_formula_sum "Si O2"
_cell_formula_units_Z 128
_cell_length_a 16.430699
_cell_length_b 16.430699
_cell_length_c 25.190122
_cell_angle_alpha 90.000000
_cell_angle_beta 90.000000
_cell_angle_gamma 90.000000
_cell_volume 6800.523572
_symmetry_space_group_name_H-M "P 42/M C M"
_symmetry_group_IT_number 132
_symmetry_cell_setting 'tetragonal'
loop_
_space_group_symop_operation_xyz
x,y,z
-y,x,1/2+z
-x,-y,z
y,-x,1/2+z
x,-y,1/2-z
-x,y,1/2-z
y,x,-z
-y,-x,-z
-x,-y,-z
y,-x,1/2-z
x,y,-z
-y,x,1/2-z
-x,y,1/2+z
x,-y,1/2+z
-y,-x,z
y,x,z
loop_
_atom_site_type_symbol
_atom_site_label
_atom_site_fract_x
_atom_site_fract_y
_atom_site_fract_z
Si Si1 0.175050 0.304584 0.212022
Si Si2 0.935306 0.613250 0.291114
Si Si3 0.309156 0.557848 0.700690
Si Si4 0.558391 0.074991 0.560427
Si Si5 0.469361 0.813565 0.136230
Si Si6 0.955872 0.294964 0.625198
Si Si7 0.186109 0.943239 0.060625
Si Si8 0.677380 0.191889 0.057956
O O1 0.224156 0.224156 0.226089
O O2 0.112235 0.316572 0.259500
O O3 0.233858 0.382418 0.211337
O O4 0.129388 0.289052 0.156171
O O5 0.874398 0.543479 0.313367
O O6 0.000000 0.572698 0.250000
O O7 0.978230 0.659390 0.339019
O O8 0.331088 0.500000 0.750000
O O9 0.389710 0.610291 0.684897
O O10 0.276730 0.498388 0.653996
O O11 0.547799 0.101785 0.500000
O O12 0.538043 0.150473 0.598183
O O13 0.651465 0.052221 0.571717
O O14 0.500000 0.000000 0.574992
O O15 0.385468 0.806420 0.105439
O O16 0.985211 0.206311 0.603262
O O17 0.101258 0.898743 0.075911
O O18 0.259627 0.880284 0.066432
O O19 0.180092 0.975751 0.000000
O O20 0.722252 0.277749 0.058817
O O21 0.634581 0.180435 0.000000
#
# Coordination Sequence:
#
# PCOD8316761 Si02
#       8
#    16  16  16  16  16  16  16  16
#     4  10  22  39  56  77 111 148 186 233 287 338
#     4  10  21  33  52  83 111 140 182 225 277 333
#     4  11  24  41  59  79 106 146 192 241 287 335
#     4  11  21  31  49  83 122 151 178 221 280 346
#     4  12  20  35  55  80 109 150 179 225 284 345
#     4  11  19  34  53  83 113 148 186 228 274 342
#     4   9  17  30  51  82 119 153 187 231 276 326
#     4   9  18  32  52  81 113 143 181 226 274 333
#
# _framework density 18.822081000000001
#
# number of rings (size 3 to 8) (size 9 to 14) (size 15 to 20)
#    0.000    1.625    5.000    1.500    0.000    3.625 
#    2.250    0.000    0.000    4.125    0.000    1.750 
#    0.000    0.000    0.000    0.000    0.000    0.000 
#
# Total GULP energy -1586671.893732 kJ/mol
# GULP energy per Si atom -12395.874170 kJ/mol
# Density = 1.877924 g / cm^3
# Si number density = 18.822081 Si / 1000 Ang^3
#
#
#
# Elastic Constant Matrix: (Units=GPa)
#
#
# Indices 1 2 3 4 5 6 
#
# 1 58.4897 33.1215 31.0146 0.0000 0.0000 0.0000
# 2 33.1215 58.4897 31.0146 0.0000 0.0000 0.0000
# 3 31.0146 31.0146 88.1251 0.0000 0.0000 0.0000
# 4 0.0000 0.0000 0.0000 22.3716 0.0000 0.0000
# 5 0.0000 0.0000 0.0000 0.0000 22.3716 0.0000
# 6 0.0000 0.0000 0.0000 0.0000 0.0000 34.2192
#
#
#
# Elastic Compliance Matrix: (Units=1/GPa)
#
#
# Indices 1 2 3 4 5 6 
#
# 1 0.026875 -0.012544 -0.005043 0.000000 0.000000 0.000000
# 2 -0.012544 0.026875 -0.005043 0.000000 0.000000 0.000000
# 3 -0.005043 -0.005043 0.014898 0.000000 0.000000 0.000000
# 4 0.000000 0.000000 0.000000 0.044699 0.000000 0.000000
# 5 0.000000 0.000000 0.000000 0.000000 0.044699 0.000000
# 6 0.000000 0.000000 0.000000 0.000000 0.000000 0.029223
#
#
# Mechanical properties :
#
#
# Convention : Reuss Voigt Hill
#
# Bulk Modulus (GPa) = 42.76291 43.93399 43.34845
# Shear Modulus (GPa) = 20.80494 23.12274 21.96384
#
# Velocity S-wave (km/s) = 3.32828 3.50878 3.41973
# Velocity P-wave (km/s) = 6.12689 6.30934 6.21879
#
# Compressibility (1/GPa) = 0.02338475
#
# Stress axis : x y z
#
# Youngs Moduli (GPa) = 37.20927 37.20927 67.12529
#
# Poissons Ratio (x) = 0.46677 0.33855
# Poissons Ratio (y) = 0.46677 0.33855
# Poissons Ratio (z) = 0.18766 0.18766
#
# Static dielectric constant tensor:
#      x y z
#    x 3.402210 0.000000 0.000000 
#    y 0.000000 3.402210 0.000000 
#    z 0.000000 0.000000 3.549040 
# 
# 
# High freq. dielectric constant tensor:
#      x y z
#    x 1.712610 0.000000 0.000000 
#    y 0.000000 1.712610 0.000000 
#    z 0.000000 0.000000 1.735800 
# 
# From -- ./inp_files/9334.got.cif
#   From: 2010.03.12/outbox.cif.g09.slc.cpg/sg132_5_cif.got.tgz:9334.got - 2010.04.06 17:53:44.
