data_PCOD8316662
_publ_section_title
;
Structure prediction by ZEFSAII (Michael W. Deem and Ramdas Pophale) SiO2 
 PCOD8316662
Probable space group: P 42/M C M
;
_chemical_formula_sum "Si O2"
_cell_formula_units_Z 88
_cell_length_a 19.174928
_cell_length_b 19.174928
_cell_length_c 14.423485
_cell_angle_alpha 90.000000
_cell_angle_beta 90.000000
_cell_angle_gamma 90.000000
_cell_volume 5303.196153
_symmetry_space_group_name_H-M "P 42/M C M"
_symmetry_group_IT_number 132
_symmetry_cell_setting 'tetragonal'
loop_
_space_group_symop_operation_xyz
x,y,z
-y,x,1/2+z
-x,-y,z
y,-x,1/2+z
x,-y,1/2-z
-x,y,1/2-z
y,x,-z
-y,-x,-z
-x,-y,-z
y,-x,1/2-z
x,y,-z
-y,x,1/2-z
-x,y,1/2+z
x,-y,1/2+z
-y,-x,z
y,x,z
loop_
_atom_site_type_symbol
_atom_site_label
_atom_site_fract_x
_atom_site_fract_y
_atom_site_fract_z
Si Si1 0.084262 0.801005 0.605613
Si Si2 0.156219 0.272018 0.739975
Si Si3 0.384311 0.265374 0.740944
Si Si4 0.706651 0.509978 0.889163
Si Si5 0.446653 0.553348 0.390662
Si Si6 0.815189 0.926497 0.392107
O O1 0.086471 0.775720 0.500000
O O2 0.130977 0.869023 0.622863
O O3 0.111416 0.735475 0.665457
O O4 0.006841 0.823461 0.636727
O O5 0.219566 0.219566 0.745075
O O6 0.190244 0.347732 0.726548
O O7 0.105650 0.253830 0.654613
O O8 0.329294 0.329294 0.751390
O O9 0.433111 0.277586 0.650771
O O10 0.429745 0.251511 0.834421
O O11 0.629009 0.530226 0.858448
O O12 0.720495 0.512103 0.000000
O O13 0.500000 0.500000 0.343524
O O14 0.450705 0.549296 0.500000
O O15 0.803245 0.917771 0.500000
O O16 0.884577 0.884577 0.359461
#
# Coordination Sequence:
#
# PCOD8316662 Si02
#       6
#    16  16  16  16   8  16
#     4   9  17  29  46  71 100 130 163 196 233 279
#     4   9  18  31  46  65  95 129 163 199 234 275
#     4  10  20  33  48  70  95 126 163 195 234 284
#     4  10  20  33  48  70  96 123 157 195 236 283
#     4   9  16  28  46  66  91 121 147 175 219 274
#     4   9  17  29  46  70 100 132 163 194 233 280
#
# _framework density 16.593767
#
# number of rings (size 3 to 8) (size 9 to 14) (size 15 to 20)
#    0.000    2.636    0.909    1.091    0.000    2.909 
#    0.000    5.455    0.000    3.273    0.000   10.182 
#    0.000   17.455    0.000    0.000    0.000    0.000 
#
# Total GULP energy -1090509.788401 kJ/mol
# GULP energy per Si atom -12392.156686 kJ/mol
# Density = 1.655600 g / cm^3
# Si number density = 16.593767 Si / 1000 Ang^3
#
#
#
# Elastic Constant Matrix: (Units=GPa)
#
#
# Indices 1 2 3 4 5 6 
#
# 1 79.9693 60.9579 35.4591 0.0000 0.0000 0.0000
# 2 60.9579 79.9668 35.4595 0.0000 0.0000 0.0000
# 3 35.4591 35.4595 81.5470 0.0000 0.0000 0.0000
# 4 0.0000 0.0000 0.0000 21.2252 0.0000 0.0000
# 5 0.0000 0.0000 0.0000 0.0000 21.2251 0.0000
# 6 0.0000 0.0000 0.0000 0.0000 0.0000 24.5412
#
#
#
# Elastic Compliance Matrix: (Units=1/GPa)
#
#
# Indices 1 2 3 4 5 6 
#
# 1 0.030843 -0.021760 -0.003949 0.000000 0.000000 0.000000
# 2 -0.021760 0.030844 -0.003950 0.000000 0.000000 0.000000
# 3 -0.003949 -0.003950 0.015698 0.000000 0.000000 0.000000
# 4 0.000000 0.000000 0.000000 0.047114 0.000000 0.000000
# 5 0.000000 0.000000 0.000000 0.000000 0.047114 0.000000
# 6 0.000000 0.000000 0.000000 0.000000 0.000000 0.040748
#
#
# Mechanical properties :
#
#
# Convention : Reuss Voigt Hill
#
# Bulk Modulus (GPa) = 55.35340 56.13735 55.74538
# Shear Modulus (GPa) = 18.00491 20.70540 19.35515
#
# Velocity S-wave (km/s) = 3.29757 3.53623 3.41898
# Velocity P-wave (km/s) = 6.92308 7.11175 7.01805
#
# Compressibility (1/GPa) = 0.01806574
#
# Stress axis : x y z
#
# Youngs Moduli (GPa) = 32.42240 32.42092 63.70275
#
# Poissons Ratio (x) = 0.70548 0.25159
# Poissons Ratio (y) = 0.70551 0.25165
# Poissons Ratio (z) = 0.12805 0.12807
#
# Static dielectric constant tensor:
#      x y z
#    x 3.186590 0.000000 0.000000 
#    y 0.000000 3.186600 0.000000 
#    z 0.000000 0.000000 3.171870 
# 
# 
# High freq. dielectric constant tensor:
#      x y z
#    x 1.619370 0.000000 0.000000 
#    y 0.000000 1.619370 0.000000 
#    z 0.000000 0.000000 1.652030 
# 
# From -- ./inp_files/4778.got.cif
#   From: 2010.03.12/outbox.cif.g09.slc.cpg/sg132_3_cif.got.tgz:4778.got - 2010.04.06 17:53:44.
