data_PCOD8316464
_publ_section_title
;
Structure prediction by ZEFSAII (Michael W. Deem and Ramdas Pophale) SiO2 
 PCOD8316464
Probable space group: P 42/M C M
;
_chemical_formula_sum "Si O2"
_cell_formula_units_Z 96
_cell_length_a 19.086032
_cell_length_b 19.086032
_cell_length_c 17.749909
_cell_angle_alpha 90.000000
_cell_angle_beta 90.000000
_cell_angle_gamma 90.000000
_cell_volume 6465.876812
_symmetry_space_group_name_H-M "P 42/M C M"
_symmetry_group_IT_number 132
_symmetry_cell_setting 'tetragonal'
loop_
_space_group_symop_operation_xyz
x,y,z
-y,x,1/2+z
-x,-y,z
y,-x,1/2+z
x,-y,1/2-z
-x,y,1/2-z
y,x,-z
-y,-x,-z
-x,-y,-z
y,-x,1/2-z
x,y,-z
-y,x,1/2-z
-x,y,1/2+z
x,-y,1/2+z
-y,-x,z
y,x,z
loop_
_atom_site_type_symbol
_atom_site_label
_atom_site_fract_x
_atom_site_fract_y
_atom_site_fract_z
Si Si1 0.025445 0.861239 0.334974
Si Si2 0.924872 0.647150 0.661263
Si Si3 0.792753 0.903507 0.584736
Si Si4 0.910164 0.372200 0.668851
Si Si5 0.492371 0.082943 0.583581
Si Si6 0.130144 0.241154 0.913777
O O1 0.062582 0.937419 0.345304
O O2 0.079084 0.800536 0.357810
O O3 0.000000 0.850098 0.250000
O O4 0.957757 0.852357 0.387214
O O5 0.901225 0.723250 0.634367
O O6 0.892367 0.635575 0.743647
O O7 0.893826 0.585142 0.609575
O O8 0.008294 0.643944 0.657515
O O9 0.771781 0.924152 0.500000
O O10 0.826543 0.826543 0.588436
O O11 0.888176 0.449745 0.641776
O O12 0.864866 0.319577 0.617521
O O13 0.505351 0.113507 0.500000
O O14 0.500000 0.000000 0.582595
O O15 0.207181 0.207181 0.911011
O O16 0.101497 0.240219 0.000000
#
# Coordination Sequence:
#
# PCOD8316464 Si02
#       6
#    16  16  16  16  16  16
#     4  11  22  35  48  61  77 102 137 182 230 271
#     4  10  19  31  45  64  87 109 135 175 214 254
#     4  11  23  35  47  62  81 109 144 180 220 265
#     4  10  18  29  47  67  85 108 138 172 210 258
#     4   9  17  28  45  66  87 110 133 165 207 253
#     4  10  20  32  47  65  85 110 140 176 219 265
#
# _framework density 14.847174000000001
#
# number of rings (size 3 to 8) (size 9 to 14) (size 15 to 20)
#    0.000    1.833    1.667    3.500    0.000    7.500 
#    0.000    0.833    0.000    0.000    0.000    0.000 
#    0.000    0.000    0.000    0.000    0.000    0.833 
#
# Total GULP energy -1190169.989253 kJ/mol
# GULP energy per Si atom -12397.604055 kJ/mol
# Density = 1.481338 g / cm^3
# Si number density = 14.847174 Si / 1000 Ang^3
#
#
#
# Elastic Constant Matrix: (Units=GPa)
#
#
# Indices 1 2 3 4 5 6 
#
# 1 65.4362 29.8791 40.5067 0.0000 0.0000 0.0000
# 2 29.8791 65.4362 40.5067 0.0000 0.0000 0.0000
# 3 40.5067 40.5067 121.7849 0.0000 0.0000 0.0000
# 4 0.0000 0.0000 0.0000 17.8783 0.0000 0.0000
# 5 0.0000 0.0000 0.0000 0.0000 17.8783 0.0000
# 6 0.0000 0.0000 0.0000 0.0000 0.0000 8.9232
#
#
#
# Elastic Compliance Matrix: (Units=1/GPa)
#
#
# Indices 1 2 3 4 5 6 
#
# 1 0.021375 -0.006749 -0.004865 0.000000 0.000000 0.000000
# 2 -0.006749 0.021375 -0.004865 0.000000 0.000000 0.000000
# 3 -0.004865 -0.004865 0.011447 0.000000 0.000000 0.000000
# 4 0.000000 0.000000 0.000000 0.055934 0.000000 0.000000
# 5 0.000000 0.000000 0.000000 0.000000 0.055934 0.000000
# 6 0.000000 0.000000 0.000000 0.000000 0.000000 0.112068
#
#
# Mechanical properties :
#
#
# Convention : Reuss Voigt Hill
#
# Bulk Modulus (GPa) = 47.07938 52.71580 49.89759
# Shear Modulus (GPa) = 15.71488 18.38696 17.05092
#
# Velocity S-wave (km/s) = 3.25690 3.52293 3.39252
# Velocity P-wave (km/s) = 6.77653 7.22016 7.00186
#
# Compressibility (1/GPa) = 0.02124072
#
# Stress axis : x y z
#
# Youngs Moduli (GPa) = 46.78349 46.78349 87.35623
#
# Poissons Ratio (x) = 0.31573 0.42498
# Poissons Ratio (y) = 0.31573 0.42498
# Poissons Ratio (z) = 0.22759 0.22759
#
# Static dielectric constant tensor:
#      x y z
#    x 2.721720 0.000000 0.000000 
#    y 0.000000 2.721720 0.000000 
#    z 0.000000 0.000000 3.114920 
# 
# 
# High freq. dielectric constant tensor:
#      x y z
#    x 1.534310 0.000000 0.000000 
#    y 0.000000 1.534310 0.000000 
#    z 0.000000 0.000000 1.592480 
# 
# From -- ./inp_files/6451.got.cif
#   From: 2010.03.12/outbox.cif.g09.slc.cpg/sg132_4_cif.got.tgz:6451.got - 2010.04.06 17:53:44.
