data_PCOD8316296
_publ_section_title
;
Structure prediction by ZEFSAII (Michael W. Deem and Ramdas Pophale) SiO2 
 PCOD8316296
Probable space group: P 42/M M C
;
_chemical_formula_sum "Si O2"
_cell_formula_units_Z 96
_cell_length_a 23.638222
_cell_length_b 23.638222
_cell_length_c 8.902935
_cell_angle_alpha 90.000000
_cell_angle_beta 90.000000
_cell_angle_gamma 90.000000
_cell_volume 4974.653277
_symmetry_space_group_name_H-M "P 42/M M C"
_symmetry_group_IT_number 131
_symmetry_cell_setting 'tetragonal'
loop_
_space_group_symop_operation_xyz
x,y,z
-x,-y,z
-y,x,1/2+z
y,-x,1/2+z
-x,y,-z
x,-y,-z
y,x,1/2-z
-y,-x,1/2-z
-x,-y,-z
x,y,-z
y,-x,1/2-z
-y,x,1/2-z
x,-y,z
-x,y,z
-y,-x,1/2+z
y,x,1/2+z
loop_
_atom_site_type_symbol
_atom_site_label
_atom_site_fract_x
_atom_site_fract_y
_atom_site_fract_z
Si Si1 0.755862 0.639610 0.673765
Si Si2 0.648079 0.434190 0.678272
Si Si3 0.936953 0.284270 0.669663
Si Si4 0.741412 0.820357 0.322671
Si Si5 0.438253 0.166753 0.664295
Si Si6 0.937664 0.417901 0.334207
O O1 0.751401 0.656353 0.500000
O O2 0.698909 0.607868 0.732405
O O3 0.774703 0.694255 0.767558
O O4 0.805723 0.595080 0.698648
O O5 0.590080 0.409921 0.750000
O O6 0.643276 0.432001 0.500000
O O7 0.657188 0.500000 0.729812
O O8 0.925379 0.262578 0.500000
O O9 0.885826 0.265293 0.776811
O O10 0.936950 0.350964 0.673164
O O11 0.000000 0.262743 0.722534
O O12 0.800368 0.800368 0.250000
O O13 0.743868 0.816746 0.500000
O O14 0.408430 0.173936 0.500000
O O15 0.500000 0.194456 0.655129
O O16 0.443977 0.101032 0.704577
O O17 0.917751 0.437694 0.500000
O O18 0.000000 0.441207 0.302139
#
# Coordination Sequence:
#
# PCOD8316296 Si02
#       6
#    16  16  16  16  16  16
#     4  11  22  39  60  81 109 145 185 228 279 336
#     4  10  23  42  63  87 111 138 174 217 271 336
#     4   9  18  35  58  83 113 150 191 235 284 336
#     4  12  24  37  57  87 121 154 192 235 281 333
#     4  11  23  35  49  74 106 140 182 232 283 334
#     4   9  18  33  53  74  99 137 184 230 278 332
#
# _framework density 19.297827000000002
#
# number of rings (size 3 to 8) (size 9 to 14) (size 15 to 20)
#    0.000    1.667    1.667    4.500    0.000    6.167 
#    0.000    4.167    0.000    0.000    0.000    0.000 
#    0.000    0.333    0.000    3.500    0.000    1.500 
#
# Total GULP energy -1189413.313278 kJ/mol
# GULP energy per Si atom -12389.722013 kJ/mol
# Density = 1.925390 g / cm^3
# Si number density = 19.297827 Si / 1000 Ang^3
#
#
#
# Elastic Constant Matrix: (Units=GPa)
#
#
# Indices 1 2 3 4 5 6 
#
# 1 85.7107 54.0994 41.3132 0.0000 0.0000 0.0000
# 2 54.0994 85.7075 41.3130 0.0000 0.0000 0.0000
# 3 41.3132 41.3130 96.2641 0.0000 0.0000 0.0000
# 4 0.0000 0.0000 0.0000 35.4538 0.0000 0.0000
# 5 0.0000 0.0000 0.0000 0.0000 35.4539 0.0000
# 6 0.0000 0.0000 0.0000 0.0000 0.0000 32.6418
#
#
#
# Elastic Compliance Matrix: (Units=1/GPa)
#
#
# Indices 1 2 3 4 5 6 
#
# 1 0.020609 -0.011026 -0.004113 0.000000 0.000000 0.000000
# 2 -0.011026 0.020610 -0.004113 0.000000 0.000000 0.000000
# 3 -0.004113 -0.004113 0.013918 0.000000 0.000000 0.000000
# 4 0.000000 0.000000 0.000000 0.028206 0.000000 0.000000
# 5 0.000000 0.000000 0.000000 0.000000 0.028206 0.000000
# 6 0.000000 0.000000 0.000000 0.000000 0.000000 0.030636
#
#
# Mechanical properties :
#
#
# Convention : Reuss Voigt Hill
#
# Bulk Modulus (GPa) = 60.11932 60.12594 60.12263
# Shear Modulus (GPa) = 26.84814 29.44033 28.14423
#
# Velocity S-wave (km/s) = 3.73400 3.91010 3.82306
# Velocity P-wave (km/s) = 7.05771 7.18399 7.12113
#
# Compressibility (1/GPa) = 0.01663359
#
# Stress axis : x y z
#
# Youngs Moduli (GPa) = 48.52221 48.52011 71.84828
#
# Poissons Ratio (x) = 0.53500 0.29549
# Poissons Ratio (y) = 0.53502 0.29551
# Poissons Ratio (z) = 0.19956 0.19956
#
# Static dielectric constant tensor:
#      x y z
#    x 3.757850 0.000000 0.000000 
#    y 0.000000 3.757860 0.000000 
#    z 0.000000 0.000000 3.496450 
# 
# 
# High freq. dielectric constant tensor:
#      x y z
#    x 1.738520 0.000000 0.000000 
#    y 0.000000 1.738520 0.000000 
#    z 0.000000 0.000000 1.748670 
# 
# From -- ./inp_files/2172.got.cif
#   From: 2010.03.12/outbox.cif.g09.slc.cpg/sg131_2_cif.got.tgz:2172.got - 2010.04.06 17:36:35.
