data_PCOD8316847
_publ_section_title
;
Structure prediction by ZEFSAII (Michael W. Deem and Ramdas Pophale) SiO2 
 PCOD8316847
Probable space group: P 42/M C M
;
_chemical_formula_sum "Si O2"
_cell_formula_units_Z 88
_cell_length_a 12.345601
_cell_length_b 12.345601
_cell_length_c 28.113594
_cell_angle_alpha 90.000000
_cell_angle_beta 90.000000
_cell_angle_gamma 90.000000
_cell_volume 4284.901494
_symmetry_space_group_name_H-M "P 42/M C M"
_symmetry_group_IT_number 132
_symmetry_cell_setting 'tetragonal'
loop_
_space_group_symop_operation_xyz
x,y,z
-y,x,1/2+z
-x,-y,z
y,-x,1/2+z
x,-y,1/2-z
-x,y,1/2-z
y,x,-z
-y,-x,-z
-x,-y,-z
y,-x,1/2-z
x,y,-z
-y,x,1/2-z
-x,y,1/2+z
x,-y,1/2+z
-y,-x,z
y,x,z
loop_
_atom_site_type_symbol
_atom_site_label
_atom_site_fract_x
_atom_site_fract_y
_atom_site_fract_z
Si Si1 0.103419 0.725764 0.217373
Si Si2 0.724593 0.549811 0.701016
Si Si3 0.549583 0.118038 0.947622
Si Si4 0.791278 0.386411 0.381316
Si Si5 0.023843 0.276988 0.615713
Si Si6 0.913779 0.086222 0.948714
O O1 0.182614 0.817387 0.239616
O O2 0.164299 0.611790 0.212994
O O3 0.000000 0.709190 0.250000
O O4 0.068764 0.765273 0.165434
O O5 0.679850 0.500000 0.750000
O O6 0.632708 0.632708 0.680819
O O7 0.751650 0.454191 0.664266
O O8 0.462203 0.203562 0.927849
O O9 0.500000 0.000000 0.953193
O O10 0.643446 0.112188 0.908284
O O11 0.589121 0.157349 0.000000
O O12 0.707162 0.292839 0.392647
O O13 0.909100 0.333482 0.373608
O O14 0.019986 0.176497 0.580303
O O15 0.868533 0.131468 0.000000
O O16 0.000000 0.000000 0.963287
#
# Coordination Sequence:
#
# PCOD8316847 Si02
#       6
#    16  16  16  16  16   8
#     4  11  24  41  63  92 127 167 215 260 320 390
#     4  11  24  42  64  91 124 167 218 271 328 389
#     4   9  19  37  63  91 122 165 213 260 313 372
#     4  11  23  38  63  95 127 168 215 271 328 382
#     4  11  21  41  64  91 130 171 216 261 312 391
#     4  11  24  40  64  98 135 175 215 263 322 382
#
# _framework density 20.537227999999999
#
# number of rings (size 3 to 8) (size 9 to 14) (size 15 to 20)
#    0.000    1.364    2.727    2.727    0.000    7.273 
#    0.000    0.000    0.000    0.000    0.000    1.273 
#    0.000    0.000    0.000    0.000    0.000    0.000 
#
# Total GULP energy -1090889.730216 kJ/mol
# GULP energy per Si atom -12396.474207 kJ/mol
# Density = 2.049048 g / cm^3
# Si number density = 20.537228 Si / 1000 Ang^3
#
#
#
# Elastic Constant Matrix: (Units=GPa)
#
#
# Indices 1 2 3 4 5 6 
#
# 1 93.5022 40.4951 32.0020 0.0000 0.0000 0.0000
# 2 40.4951 93.5022 32.0020 0.0000 0.0000 0.0000
# 3 32.0020 32.0020 120.2059 0.0000 0.0000 0.0000
# 4 0.0000 0.0000 0.0000 98.2021 0.0000 0.0000
# 5 0.0000 0.0000 0.0000 0.0000 98.2063 0.0000
# 6 0.0000 0.0000 0.0000 0.0000 0.0000 42.1247
#
#
#
# Elastic Compliance Matrix: (Units=1/GPa)
#
#
# Indices 1 2 3 4 5 6 
#
# 1 0.013708 -0.005158 -0.002276 0.000000 0.000000 0.000000
# 2 -0.005158 0.013708 -0.002276 0.000000 0.000000 0.000000
# 3 -0.002276 -0.002276 0.009531 0.000000 0.000000 0.000000
# 4 0.000000 0.000000 0.000000 0.010183 0.000000 0.000000
# 5 0.000000 0.000000 0.000000 0.000000 0.010183 0.000000
# 6 0.000000 0.000000 0.000000 0.000000 0.000000 0.023739
#
#
# Mechanical properties :
#
#
# Convention : Reuss Voigt Hill
#
# Bulk Modulus (GPa) = 57.05742 57.35650 57.20696
# Shear Modulus (GPa) = 47.03060 61.22069 54.12565
#
# Velocity S-wave (km/s) = 4.79060 5.46574 5.13927
# Velocity P-wave (km/s) = 7.64478 8.23536 7.94556
#
# Compressibility (1/GPa) = 0.01752620
#
# Stress axis : x y z
#
# Youngs Moduli (GPa) = 72.95147 72.95146 104.92006
#
# Poissons Ratio (x) = 0.37626 0.23883
# Poissons Ratio (y) = 0.37626 0.23883
# Poissons Ratio (z) = 0.16606 0.16606
#
# Static dielectric constant tensor:
#      x y z
#    x 3.722080 0.000000 0.000000 
#    y 0.000000 3.722080 0.000000 
#    z 0.000000 0.000000 3.851970 
# 
# 
# High freq. dielectric constant tensor:
#      x y z
#    x 1.798870 0.000000 0.000000 
#    y 0.000000 1.798870 0.000000 
#    z 0.000000 0.000000 1.812180 
# 
# From -- ./inp_files/10756.got.cif
#   From: 2010.03.12/outbox.cif.g09.slc.cpg/sg132_6_cif.got.tgz:10756.got - 2010.04.06 17:53:44.
