data_PCOD8316380
_publ_section_title
;
Structure prediction by ZEFSAII (Michael W. Deem and Ramdas Pophale) SiO2 
 PCOD8316380
Probable space group: P 42/M M C
;
_chemical_formula_sum "Si O2"
_cell_formula_units_Z 96
_cell_length_a 28.501825
_cell_length_b 28.501825
_cell_length_c 9.285343
_cell_angle_alpha 90.000000
_cell_angle_beta 90.000000
_cell_angle_gamma 90.000000
_cell_volume 7542.985790
_symmetry_space_group_name_H-M "P 42/M M C"
_symmetry_group_IT_number 131
_symmetry_cell_setting 'tetragonal'
loop_
_space_group_symop_operation_xyz
x,y,z
-x,-y,z
-y,x,1/2+z
y,-x,1/2+z
-x,y,-z
x,-y,-z
y,x,1/2-z
-y,-x,1/2-z
-x,-y,-z
x,y,-z
y,-x,1/2-z
-y,x,1/2-z
x,-y,z
-x,y,z
-y,-x,1/2+z
y,x,1/2+z
loop_
_atom_site_type_symbol
_atom_site_label
_atom_site_fract_x
_atom_site_fract_y
_atom_site_fract_z
Si Si1 0.332568 0.863864 0.835653
Si Si2 0.595826 0.778831 0.837399
Si Si3 0.279051 0.660093 0.839761
Si Si4 0.500000 0.818310 0.170980
Si Si5 0.947674 0.397280 0.669038
Si Si6 0.263274 0.197753 0.335340
Si Si7 0.500000 0.077603 0.171549
O O1 0.371162 0.823724 0.832047
O O2 0.358898 0.910211 0.769593
O O3 0.286848 0.847905 0.742363
O O4 0.315387 0.872499 0.000000
O O5 0.612746 0.738147 0.733290
O O6 0.545443 0.791530 0.773537
O O7 0.593190 0.759557 0.000000
O O8 0.323552 0.676449 0.750000
O O9 0.238794 0.698959 0.837214
O O10 0.295684 0.648993 0.000000
O O11 0.500000 0.870220 0.233674
O O12 0.500000 0.822402 0.000000
O O13 0.937173 0.400407 0.500000
O O14 0.944389 0.450893 0.731003
O O15 0.000000 0.378426 0.702803
O O16 0.216965 0.216965 0.250000
O O17 0.249209 0.184493 0.500000
O O18 0.500000 0.073099 0.000000
#
# Coordination Sequence:
#
# PCOD8316380 Si02
#       7
#    16  16  16   8  16  16   8
#     4   9  15  23  35  50  69  90 112 140 176 212
#     4   9  15  23  35  49  66  88 112 138 168 203
#     4   9  16  25  36  50  66  83 104 130 161 199
#     4   9  14  21  33  48  67  90 116 143 175 210
#     4   9  15  21  31  49  71  92 117 153 192 222
#     4   9  16  25  37  52  68  84 104 130 165 209
#     4   9  13  20  31  47  67  89 117 153 192 222
#
# _framework density 12.727055999999999
#
# number of rings (size 3 to 8) (size 9 to 14) (size 15 to 20)
#    0.000    3.000    1.667    1.250    0.000    5.000 
#    0.000    0.417    0.000    0.500    0.000    0.583 
#    0.000    1.333    0.000    0.000    0.000    0.417 
#
# Total GULP energy -1189326.081731 kJ/mol
# GULP energy per Si atom -12388.813351 kJ/mol
# Density = 1.269809 g / cm^3
# Si number density = 12.727056 Si / 1000 Ang^3
#
#
#
# Elastic Constant Matrix: (Units=GPa)
#
#
# Indices 1 2 3 4 5 6 
#
# 1 54.6164 40.2652 25.6249 0.0000 0.0000 0.0000
# 2 40.2652 54.6164 25.6252 0.0000 0.0000 0.0000
# 3 25.6249 25.6252 58.9816 0.0000 0.0000 0.0000
# 4 0.0000 0.0000 0.0000 11.0366 0.0000 0.0000
# 5 0.0000 0.0000 0.0000 0.0000 11.0364 0.0000
# 6 0.0000 0.0000 0.0000 0.0000 0.0000 -29.6459
#
#
#
# Elastic Compliance Matrix: (Units=1/GPa)
#
#
# Indices 1 2 3 4 5 6 
#
# 1 0.041726 -0.027955 -0.005983 0.000000 0.000000 0.000000
# 2 -0.027955 0.041726 -0.005983 0.000000 0.000000 0.000000
# 3 -0.005983 -0.005983 0.022153 0.000000 0.000000 0.000000
# 4 0.000000 0.000000 0.000000 0.090608 0.000000 0.000000
# 5 0.000000 0.000000 0.000000 0.000000 0.090609 0.000000
# 6 0.000000 0.000000 0.000000 0.000000 0.000000 -0.033732
#
#
# Mechanical properties :
#
#
# Convention : Reuss Voigt Hill
#
# Bulk Modulus (GPa) = 38.81463 39.02725 38.92094
# Shear Modulus (GPa) = 14.64044 3.59869 9.11957
#
# Velocity S-wave (km/s) = 3.39535 1.68337 2.67975
# Velocity P-wave (km/s) = 6.77754 5.87449 6.34211
#
# Compressibility (1/GPa) = 0.02576348
#
# Stress axis : x y z
#
# Youngs Moduli (GPa) = 23.96599 23.96585 45.14021
#
# Poissons Ratio (x) = 0.66996 0.27006
# Poissons Ratio (y) = 0.66996 0.27008
# Poissons Ratio (z) = 0.14338 0.14339
#
# Static dielectric constant tensor:
#      x y z
#    x 2.540440 0.000000 0.000000 
#    y 0.000000 2.540430 0.000000 
#    z 0.000000 0.000000 2.510450 
# 
# 
# High freq. dielectric constant tensor:
#      x y z
#    x 1.454040 0.000000 0.000000 
#    y 0.000000 1.454040 0.000000 
#    z 0.000000 0.000000 1.464500 
# 
# From -- ./inp_files/2722.got.cif
#   From: 2010.03.12/outbox.cif.g09.slc.cpg/sg131_2_cif.got.tgz:2722.got - 2010.04.06 17:36:35.
