data_PCOD8316204
_publ_section_title
;
Structure prediction by ZEFSAII (Michael W. Deem and Ramdas Pophale) SiO2 
 PCOD8316204
Probable space group: P 42/M M C
;
_chemical_formula_sum "Si O2"
_cell_formula_units_Z 48
_cell_length_a 8.195801
_cell_length_b 8.195801
_cell_length_c 33.853721
_cell_angle_alpha 90.000000
_cell_angle_beta 90.000000
_cell_angle_gamma 90.000000
_cell_volume 2273.993508
_symmetry_space_group_name_H-M "P 42/M M C"
_symmetry_group_IT_number 131
_symmetry_cell_setting 'tetragonal'
loop_
_space_group_symop_operation_xyz
x,y,z
-x,-y,z
-y,x,1/2+z
y,-x,1/2+z
-x,y,-z
x,-y,-z
y,x,1/2-z
-y,-x,1/2-z
-x,-y,-z
x,y,-z
y,-x,1/2-z
-y,x,1/2-z
x,-y,z
-x,y,z
-y,-x,1/2+z
y,x,1/2+z
loop_
_atom_site_type_symbol
_atom_site_label
_atom_site_fract_x
_atom_site_fract_y
_atom_site_fract_z
Si Si1 0.191529 0.500000 0.455822
Si Si2 0.693341 0.817102 0.408887
Si Si3 0.182975 0.817026 0.750000
Si Si4 0.684034 0.685925 0.327540
O O1 0.265177 0.500000 0.500000
O O2 0.243754 0.330001 0.435822
O O3 0.000000 0.500000 0.456793
O O4 0.500000 0.805806 0.409231
O O5 0.755916 0.791892 0.363814
O O6 0.750214 0.000000 0.422969
O O7 0.296976 0.785366 0.787485
O O8 0.000000 0.786776 0.764789
O O9 0.691930 0.500000 0.341883
O O10 0.500000 0.740305 0.317758
#
# Coordination Sequence:
#
# PCOD8316204 Si02
#       4
#     8  16   8  16
#     4  11  25  43  63  91 129 169 207 253 315 385
#     4  10  21  40  67  95 123 160 208 261 315 375
#     4  11  24  37  50  78 120 161 202 249 300 360
#     4  10  20  37  61  86 114 152 200 252 308 367
#
# _framework density 21.108241
#
# number of rings (size 3 to 8) (size 9 to 14) (size 15 to 20)
#    0.000    1.667    1.667    2.500    0.000    9.333 
#    0.000    3.333    0.000    0.000    0.000    0.000 
#    0.000    0.000    0.000    0.000    0.000    0.000 
#
# Total GULP energy -594978.100939 kJ/mol
# GULP energy per Si atom -12395.377103 kJ/mol
# Density = 2.106020 g / cm^3
# Si number density = 21.108241 Si / 1000 Ang^3
#
#
#
# Elastic Constant Matrix: (Units=GPa)
#
#
# Indices 1 2 3 4 5 6 
#
# 1 96.3253 34.6198 53.0359 0.0000 0.0000 0.0000
# 2 34.6198 96.3253 53.0356 0.0000 0.0000 0.0000
# 3 53.0359 53.0356 149.5629 0.0000 0.0000 0.0000
# 4 0.0000 0.0000 0.0000 22.5388 0.0000 0.0000
# 5 0.0000 0.0000 0.0000 0.0000 22.5402 0.0000
# 6 0.0000 0.0000 0.0000 0.0000 0.0000 24.1676
#
#
#
# Elastic Compliance Matrix: (Units=1/GPa)
#
#
# Indices 1 2 3 4 5 6 
#
# 1 0.013460 -0.002746 -0.003799 0.000000 0.000000 0.000000
# 2 -0.002746 0.013460 -0.003799 0.000000 0.000000 0.000000
# 3 -0.003799 -0.003799 0.009381 0.000000 0.000000 0.000000
# 4 0.000000 0.000000 0.000000 0.044368 0.000000 0.000000
# 5 0.000000 0.000000 0.000000 0.000000 0.044365 0.000000
# 6 0.000000 0.000000 0.000000 0.000000 0.000000 0.041378
#
#
# Mechanical properties :
#
#
# Convention : Reuss Voigt Hill
#
# Bulk Modulus (GPa) = 64.05307 69.28846 66.67077
# Shear Modulus (GPa) = 26.00035 27.28415 26.64225
#
# Velocity S-wave (km/s) = 3.51346 3.59915 3.55656
# Velocity P-wave (km/s) = 6.84617 7.08297 6.96558
#
# Compressibility (1/GPa) = 0.01561205
#
# Stress axis : x y z
#
# Youngs Moduli (GPa) = 74.29266 74.29297 106.60154
#
# Poissons Ratio (x) = 0.20399 0.40503
# Poissons Ratio (y) = 0.20399 0.40502
# Poissons Ratio (z) = 0.28227 0.28227
#
# Static dielectric constant tensor:
#      x y z
#    x 3.968730 0.000000 0.000000 
#    y 0.000000 3.968730 0.000000 
#    z 0.000000 0.000000 3.866450 
# 
# 
# High freq. dielectric constant tensor:
#      x y z
#    x 1.826390 0.000000 0.000000 
#    y 0.000000 1.826390 0.000000 
#    z 0.000000 0.000000 1.824940 
# 
# From -- ./inp_files/12924.got.cif
#   From: 2010.03.12/outbox.cif.g09.slc.cpg/sg131_7_cif.got.tgz:12924.got - 2010.04.06 17:36:35.
