data_PCOD8316860
_publ_section_title
;
Structure prediction by ZEFSAII (Michael W. Deem and Ramdas Pophale) SiO2 
 PCOD8316860
Probable space group: P 42/M C M
;
_chemical_formula_sum "Si O2"
_cell_formula_units_Z 40
_cell_length_a 11.891042
_cell_length_b 11.891042
_cell_length_c 13.337667
_cell_angle_alpha 90.000000
_cell_angle_beta 90.000000
_cell_angle_gamma 90.000000
_cell_volume 1885.904498
_symmetry_space_group_name_H-M "P 42/M C M"
_symmetry_group_IT_number 132
_symmetry_cell_setting 'tetragonal'
loop_
_space_group_symop_operation_xyz
x,y,z
-y,x,1/2+z
-x,-y,z
y,-x,1/2+z
x,-y,1/2-z
-x,y,1/2-z
y,x,-z
-y,-x,-z
-x,-y,-z
y,-x,1/2-z
x,y,-z
-y,x,1/2-z
-x,y,1/2+z
x,-y,1/2+z
-y,-x,z
y,x,z
loop_
_atom_site_type_symbol
_atom_site_label
_atom_site_fract_x
_atom_site_fract_y
_atom_site_fract_z
Si Si1 0.592307 0.592307 0.115932
Si Si2 0.619102 0.063487 0.886556
Si Si3 0.189227 0.000000 0.750000
Si Si4 0.223075 0.500000 0.750000
O O1 0.500000 0.500000 0.143380
O O2 0.555677 0.709529 0.160491
O O3 0.609916 0.609916 0.000000
O O4 0.603216 0.159156 0.803008
O O5 0.500000 0.000000 0.884016
O O6 0.729349 0.995338 0.848841
O O7 0.642441 0.106406 0.000000
O O8 0.111362 0.111362 0.749451
#
# Coordination Sequence:
#
# PCOD8316860 Si02
#       4
#     8  16   8   8
#     4  11  24  40  60  96 141 180 215 265 336 410
#     4  11  24  44  70  98 129 169 221 283 346 401
#     4  11  25  46  68  96 139 185 232 284 334 407
#     4  12  20  42  64  96 134 170 222 280 328 414
#
# _framework density 21.209980000000002
#
# number of rings (size 3 to 8) (size 9 to 14) (size 15 to 20)
#    0.000    0.800    6.000    1.200    2.800    1.600 
#    0.000    2.000    0.000    0.000    0.000    0.000 
#    0.000    0.000    0.000    0.000    0.000    0.000 
#
# Total GULP energy -495665.982258 kJ/mol
# GULP energy per Si atom -12391.649556 kJ/mol
# Density = 2.116171 g / cm^3
# Si number density = 21.209980 Si / 1000 Ang^3
#
#
#
# Elastic Constant Matrix: (Units=GPa)
#
#
# Indices 1 2 3 4 5 6 
#
# 1 114.2104 45.7751 60.8709 0.0000 0.0000 0.0000
# 2 45.7751 114.2104 60.8709 0.0000 0.0000 0.0000
# 3 60.8709 60.8709 185.9063 0.0000 0.0000 0.0000
# 4 0.0000 0.0000 0.0000 37.1734 0.0000 0.0000
# 5 0.0000 0.0000 0.0000 0.0000 37.1734 0.0000
# 6 0.0000 0.0000 0.0000 0.0000 0.0000 32.8834
#
#
#
# Elastic Compliance Matrix: (Units=1/GPa)
#
#
# Indices 1 2 3 4 5 6 
#
# 1 0.011469 -0.003144 -0.002726 0.000000 0.000000 0.000000
# 2 -0.003144 0.011469 -0.002726 0.000000 0.000000 0.000000
# 3 -0.002726 -0.002726 0.007164 0.000000 0.000000 0.000000
# 4 0.000000 0.000000 0.000000 0.026901 0.000000 0.000000
# 5 0.000000 0.000000 0.000000 0.000000 0.026901 0.000000
# 6 0.000000 0.000000 0.000000 0.000000 0.000000 0.030410
#
#
# Mechanical properties :
#
#
# Convention : Reuss Voigt Hill
#
# Bulk Modulus (GPa) = 77.45631 83.26232 80.35932
# Shear Modulus (GPa) = 36.81679 37.90006 37.35842
#
# Velocity S-wave (km/s) = 4.17084 4.23176 4.20141
# Velocity P-wave (km/s) = 7.73257 7.95100 7.84255
#
# Compressibility (1/GPa) = 0.01291050
#
# Stress axis : x y z
#
# Youngs Moduli (GPa) = 87.19502 87.19502 139.58634
#
# Poissons Ratio (x) = 0.27412 0.38048
# Poissons Ratio (y) = 0.27412 0.38048
# Poissons Ratio (z) = 0.23767 0.23767
#
# Static dielectric constant tensor:
#      x y z
#    x 3.807570 0.000000 0.000000 
#    y 0.000000 3.807570 0.000000 
#    z 0.000000 0.000000 4.129760 
# 
# 
# High freq. dielectric constant tensor:
#      x y z
#    x 1.829100 0.000000 0.000000 
#    y 0.000000 1.829100 0.000000 
#    z 0.000000 0.000000 1.849950 
# 
# From -- ./inp_files/4028.got.cif
#   From: 2010.03.12/outbox.cif.g09.slc.cpg/sg132_3_cif.got.tgz:4028.got - 2010.04.06 17:53:44.
