data_PCOD8316668
_publ_section_title
;
Structure prediction by ZEFSAII (Michael W. Deem and Ramdas Pophale) SiO2 
 PCOD8316668
Probable space group: P 42/M C M
;
_chemical_formula_sum "Si O2"
_cell_formula_units_Z 104
_cell_length_a 18.696874
_cell_length_b 18.696874
_cell_length_c 17.337308
_cell_angle_alpha 90.000000
_cell_angle_beta 90.000000
_cell_angle_gamma 90.000000
_cell_volume 6060.656458
_symmetry_space_group_name_H-M "P 42/M C M"
_symmetry_group_IT_number 132
_symmetry_cell_setting 'tetragonal'
loop_
_space_group_symop_operation_xyz
x,y,z
-y,x,1/2+z
-x,-y,z
y,-x,1/2+z
x,-y,1/2-z
-x,y,1/2-z
y,x,-z
-y,-x,-z
-x,-y,-z
y,-x,1/2-z
x,y,-z
-y,x,1/2-z
-x,y,1/2+z
x,-y,1/2+z
-y,-x,z
y,x,z
loop_
_atom_site_type_symbol
_atom_site_label
_atom_site_fract_x
_atom_site_fract_y
_atom_site_fract_z
Si Si1 0.503128 0.384722 0.500000
Si Si2 0.611904 0.720978 0.258085
Si Si3 0.729647 0.507840 0.874478
Si Si4 0.115402 0.484893 0.085070
Si Si5 0.349977 0.085926 0.410002
Si Si6 0.641948 0.952063 0.820890
Si Si7 0.723783 0.839041 0.271694
O O1 0.448212 0.448212 0.500000
O O2 0.583585 0.416416 0.500000
O O3 0.488787 0.337616 0.425633
O O4 0.646443 0.646443 0.286146
O O5 0.559769 0.750921 0.322758
O O6 0.573797 0.706171 0.177526
O O7 0.672477 0.777912 0.241582
O O8 0.799576 0.524390 0.924263
O O9 0.095447 0.565746 0.110343
O O10 0.090423 0.427484 0.148447
O O11 0.081972 0.469131 0.000000
O O12 0.334552 0.102001 0.500000
O O13 0.299359 0.137619 0.358507
O O14 0.329210 0.003918 0.388941
O O15 0.708639 0.903124 0.790073
O O16 0.614000 0.000000 0.750000
O O17 0.805655 0.805655 0.271424
#
# Coordination Sequence:
#
# PCOD8316668 Si02
#       7
#     8  16  16  16  16  16  16
#     4  11  24  40  54  72  97 134 190 252 303 330
#     4  10  20  33  50  70  94 126 171 222 270 319
#     4  11  20  34  53  71  96 130 175 225 281 329
#     4  11  20  33  50  77 107 138 173 219 265 328
#     4  10  21  35  52  78 109 141 177 215 263 317
#     4  10  21  34  54  77 107 143 176 215 258 316
#     4  10  20  34  52  77 105 139 176 212 253 307
#
# _framework density 17.159858
#
# number of rings (size 3 to 8) (size 9 to 14) (size 15 to 20)
#    0.000    1.615    3.846    1.846    0.000    5.846 
#    0.000    0.000    0.000    5.077    0.000    0.000 
#    0.000   24.923    0.000   12.462    0.000    0.000 
#
# Total GULP energy -1288764.679209 kJ/mol
# GULP energy per Si atom -12391.968069 kJ/mol
# Density = 1.712080 g / cm^3
# Si number density = 17.159858 Si / 1000 Ang^3
#
#
#
# Elastic Constant Matrix: (Units=GPa)
#
#
# Indices 1 2 3 4 5 6 
#
# 1 78.8162 37.9257 33.4550 0.0000 0.0000 0.0000
# 2 37.9257 78.8177 33.4554 0.0000 0.0000 0.0000
# 3 33.4550 33.4554 86.1942 0.0000 0.0000 0.0000
# 4 0.0000 0.0000 0.0000 19.0435 0.0000 0.0000
# 5 0.0000 0.0000 0.0000 0.0000 19.0474 0.0000
# 6 0.0000 0.0000 0.0000 0.0000 0.0000 20.1458
#
#
#
# Elastic Compliance Matrix: (Units=1/GPa)
#
#
# Indices 1 2 3 4 5 6 
#
# 1 0.017736 -0.006719 -0.004276 0.000000 0.000000 0.000000
# 2 -0.006719 0.017736 -0.004276 0.000000 0.000000 0.000000
# 3 -0.004276 -0.004276 0.014921 0.000000 0.000000 0.000000
# 4 0.000000 0.000000 0.000000 0.052511 0.000000 0.000000
# 5 0.000000 0.000000 0.000000 0.000000 0.052501 0.000000
# 6 0.000000 0.000000 0.000000 0.000000 0.000000 0.049638
#
#
# Mechanical properties :
#
#
# Convention : Reuss Voigt Hill
#
# Bulk Modulus (GPa) = 50.37683 50.38892 50.38288
# Shear Modulus (GPa) = 20.64393 20.91348 20.77870
#
# Velocity S-wave (km/s) = 3.47224 3.49484 3.48356
# Velocity P-wave (km/s) = 6.74510 6.76117 6.75314
#
# Compressibility (1/GPa) = 0.01985040
#
# Stress axis : x y z
#
# Youngs Moduli (GPa) = 56.38255 56.38353 67.01957
#
# Poissons Ratio (x) = 0.37885 0.28657
# Poissons Ratio (y) = 0.37885 0.28657
# Poissons Ratio (z) = 0.24109 0.24109
#
# Static dielectric constant tensor:
#      x y z
#    x 3.249510 0.000000 0.000000 
#    y 0.000000 3.249500 0.000000 
#    z 0.000000 0.000000 3.214240 
# 
# 
# High freq. dielectric constant tensor:
#      x y z
#    x 1.645130 0.000000 0.000000 
#    y 0.000000 1.645130 0.000000 
#    z 0.000000 0.000000 1.669260 
# 
# From -- ./inp_files/6563.got.cif
#   From: 2010.03.12/outbox.cif.g09.slc.cpg/sg132_4_cif.got.tgz:6563.got - 2010.04.06 17:53:44.
