data_PCOD8316288
_publ_section_title
;
Structure prediction by ZEFSAII (Michael W. Deem and Ramdas Pophale) SiO2 
 PCOD8316288
Probable space group: P 42/M M C
;
_chemical_formula_sum "Si O2"
_cell_formula_units_Z 96
_cell_length_a 15.173058
_cell_length_b 15.173058
_cell_length_c 19.545807
_cell_angle_alpha 90.000000
_cell_angle_beta 90.000000
_cell_angle_gamma 90.000000
_cell_volume 4499.868702
_symmetry_space_group_name_H-M "P 42/M M C"
_symmetry_group_IT_number 131
_symmetry_cell_setting 'tetragonal'
loop_
_space_group_symop_operation_xyz
x,y,z
-x,-y,z
-y,x,1/2+z
y,-x,1/2+z
-x,y,-z
x,-y,-z
y,x,1/2-z
-y,-x,1/2-z
-x,-y,-z
x,y,-z
y,-x,1/2-z
-y,x,1/2-z
x,-y,z
-x,y,z
-y,-x,1/2+z
y,x,1/2+z
loop_
_atom_site_type_symbol
_atom_site_label
_atom_site_fract_x
_atom_site_fract_y
_atom_site_fract_z
Si Si1 0.862297 0.596446 0.881030
Si Si2 0.709229 0.596978 0.302256
Si Si3 0.599840 0.663036 0.421073
Si Si4 0.904575 0.831045 0.687174
Si Si5 0.901703 0.783403 0.924595
Si Si6 0.365404 0.901697 0.226861
O O1 0.890908 0.500000 0.910874
O O2 0.758130 0.605989 0.886634
O O3 0.905673 0.677241 0.921147
O O4 0.892555 0.599781 0.803189
O O5 0.670850 0.670850 0.250000
O O6 0.687022 0.500000 0.271929
O O7 0.665287 0.602543 0.377209
O O8 0.815551 0.601533 0.314379
O O9 0.631543 0.665790 0.500000
O O10 0.500000 0.626571 0.416965
O O11 0.899114 0.899114 0.750000
O O12 0.828089 0.837899 0.630549
O O13 0.896477 0.739098 0.725921
O O14 0.000000 0.842819 0.651168
O O15 0.000000 0.819943 0.912119
O O16 0.868277 0.810138 0.000000
O O17 0.395745 0.000000 0.198975
#
# Coordination Sequence:
#
# PCOD8316288 Si02
#       6
#    16  16  16  16  16  16
#     4  11  21  38  62  89 123 163 207 255 311 372
#     4  12  24  40  64  95 130 168 211 261 317 376
#     4  10  22  40  63  93 129 170 213 257 309 374
#     4  11  22  39  64  88 117 161 211 259 310 370
#     4  11  24  39  56  87 128 164 206 260 313 372
#     4  11  23  40  64  93 125 161 208 267 319 367
#
# _framework density 21.333955
#
# number of rings (size 3 to 8) (size 9 to 14) (size 15 to 20)
#    0.000    1.000    3.333    4.000    0.000    6.333 
#    0.000    2.500    0.000    1.500    0.000    1.167 
#    0.000    0.000    0.000    0.000    0.000    0.000 
#
# Total GULP energy -1189627.269665 kJ/mol
# GULP energy per Si atom -12391.950726 kJ/mol
# Density = 2.128540 g / cm^3
# Si number density = 21.333955 Si / 1000 Ang^3
#
#
#
# Elastic Constant Matrix: (Units=GPa)
#
#
# Indices 1 2 3 4 5 6 
#
# 1 119.9883 39.8507 42.8707 0.0000 0.0000 0.0000
# 2 39.8507 119.9883 42.8707 0.0000 0.0000 0.0000
# 3 42.8707 42.8707 95.8408 0.0000 0.0000 0.0000
# 4 0.0000 0.0000 0.0000 24.5059 0.0000 0.0000
# 5 0.0000 0.0000 0.0000 0.0000 24.5059 0.0000
# 6 0.0000 0.0000 0.0000 0.0000 0.0000 31.2905
#
#
#
# Elastic Compliance Matrix: (Units=1/GPa)
#
#
# Indices 1 2 3 4 5 6 
#
# 1 0.010355 -0.002124 -0.003682 0.000000 0.000000 0.000000
# 2 -0.002124 0.010355 -0.003682 0.000000 0.000000 0.000000
# 3 -0.003682 -0.003682 0.013728 0.000000 0.000000 0.000000
# 4 0.000000 0.000000 0.000000 0.040806 0.000000 0.000000
# 5 0.000000 0.000000 0.000000 0.000000 0.040806 0.000000
# 6 0.000000 0.000000 0.000000 0.000000 0.000000 0.031959
#
#
# Mechanical properties :
#
#
# Convention : Reuss Voigt Hill
#
# Bulk Modulus (GPa) = 64.67142 65.22238 64.94690
# Shear Modulus (GPa) = 29.04634 30.07550 29.56092
#
# Velocity S-wave (km/s) = 3.69386 3.75873 3.72644
# Velocity P-wave (km/s) = 6.96940 7.03391 7.00173
#
# Compressibility (1/GPa) = 0.01546278
#
# Stress axis : x y z
#
# Youngs Moduli (GPa) = 96.57195 96.57195 72.84401
#
# Poissons Ratio (x) = 0.20508 0.26821
# Poissons Ratio (y) = 0.20508 0.26821
# Poissons Ratio (z) = 0.35558 0.35558
#
# Static dielectric constant tensor:
#      x y z
#    x 4.085350 0.000000 0.000000 
#    y 0.000000 4.085350 0.000000 
#    z 0.000000 0.000000 3.615560 
# 
# 
# High freq. dielectric constant tensor:
#      x y z
#    x 1.840560 0.000000 0.000000 
#    y 0.000000 1.840560 0.000000 
#    z 0.000000 0.000000 1.811170 
# 
# From -- ./inp_files/9725.got.cif
#   From: 2010.03.12/outbox.cif.g09.slc.cpg/sg131_5_cif.got.tgz:9725.got - 2010.04.06 17:36:35.
