data_PCOD8316574
_publ_section_title
;
Structure prediction by ZEFSAII (Michael W. Deem and Ramdas Pophale) SiO2 
 PCOD8316574
Probable space group: P 42/M C M
;
_chemical_formula_sum "Si O2"
_cell_formula_units_Z 120
_cell_length_a 19.127613
_cell_length_b 19.127613
_cell_length_c 18.427351
_cell_angle_alpha 90.000000
_cell_angle_beta 90.000000
_cell_angle_gamma 90.000000
_cell_volume 6741.933444
_symmetry_space_group_name_H-M "P 42/M C M"
_symmetry_group_IT_number 132
_symmetry_cell_setting 'tetragonal'
loop_
_space_group_symop_operation_xyz
x,y,z
-y,x,1/2+z
-x,-y,z
y,-x,1/2+z
x,-y,1/2-z
-x,y,1/2-z
y,x,-z
-y,-x,-z
-x,-y,-z
y,-x,1/2-z
x,y,-z
-y,x,1/2-z
-x,y,1/2+z
x,-y,1/2+z
-y,-x,z
y,x,z
loop_
_atom_site_type_symbol
_atom_site_label
_atom_site_fract_x
_atom_site_fract_y
_atom_site_fract_z
Si Si1 0.443982 0.556019 0.085561
Si Si2 0.517117 0.313258 0.172463
Si Si3 0.662423 0.952198 0.914342
Si Si4 0.655835 0.773014 0.688884
Si Si5 0.243795 0.410949 0.921008
Si Si6 0.517336 0.100286 0.420794
Si Si7 0.636003 0.105298 0.085136
Si Si8 0.821486 0.289693 0.340513
O O1 0.500000 0.500000 0.115601
O O2 0.458518 0.632757 0.113169
O O3 0.443672 0.556329 0.000000
O O4 0.500000 0.348188 0.250000
O O5 0.575407 0.252701 0.183020
O O6 0.441277 0.290362 0.143332
O O7 0.583094 0.939422 0.884065
O O8 0.714131 0.902942 0.866251
O O9 0.680825 0.033946 0.902650
O O10 0.667356 0.931617 0.000000
O O11 0.707327 0.707327 0.678699
O O12 0.671842 0.830152 0.626518
O O13 0.669666 0.812519 0.764620
O O14 0.181218 0.465481 0.926902
O O15 0.219708 0.333088 0.901653
O O16 0.281766 0.407823 0.000000
O O17 0.507765 0.066304 0.500000
O O18 0.442188 0.092345 0.381595
O O19 0.632483 0.124662 0.000000
O O20 0.788264 0.211737 0.336189
#
# Coordination Sequence:
#
# PCOD8316574 Si02
#       8
#     8  16  16  16  16  16  16  16
#     4  11  28  46  60  78  96 128 188 248 299 353
#     4  12  23  38  60  78 106 138 177 230 292 341
#     4   9  18  32  51  79 109 139 176 217 264 319
#     4  11  23  38  53  78 106 142 184 222 270 334
#     4  10  19  32  53  78 102 134 176 221 267 319
#     4   8  14  26  46  72 100 131 164 202 252 307
#     4  10  19  32  53  77 106 141 178 220 268 320
#     4  10  21  36  53  74 109 144 178 219 265 319
#
# _framework density 17.799049
#
# number of rings (size 3 to 8) (size 9 to 14) (size 15 to 20)
#    0.000    1.933    3.333    2.000    0.933    4.533 
#    0.000    0.000    0.000    1.600    0.000    0.000 
#    0.000    0.533    0.000    5.867    0.000    4.267 
#
# Total GULP energy -1486819.249364 kJ/mol
# GULP energy per Si atom -12390.160411 kJ/mol
# Density = 1.775854 g / cm^3
# Si number density = 17.799049 Si / 1000 Ang^3
#
#
#
# Elastic Constant Matrix: (Units=GPa)
#
#
# Indices 1 2 3 4 5 6 
#
# 1 54.6392 9.0796 22.9283 0.0000 0.0000 0.0000
# 2 9.0796 54.6394 22.9286 0.0000 0.0000 0.0000
# 3 22.9283 22.9286 85.6402 0.0000 0.0000 0.0000
# 4 0.0000 0.0000 0.0000 21.9796 0.0000 0.0000
# 5 0.0000 0.0000 0.0000 0.0000 21.9797 0.0000
# 6 0.0000 0.0000 0.0000 0.0000 0.0000 12.9745
#
#
#
# Elastic Compliance Matrix: (Units=1/GPa)
#
#
# Indices 1 2 3 4 5 6 
#
# 1 0.020694 -0.001255 -0.005204 0.000000 0.000000 0.000000
# 2 -0.001255 0.020694 -0.005205 0.000000 0.000000 0.000000
# 3 -0.005204 -0.005205 0.014464 0.000000 0.000000 0.000000
# 4 0.000000 0.000000 0.000000 0.045497 0.000000 0.000000
# 5 0.000000 0.000000 0.000000 0.000000 0.045497 0.000000
# 6 0.000000 0.000000 0.000000 0.000000 0.000000 0.077074
#
#
# Mechanical properties :
#
#
# Convention : Reuss Voigt Hill
#
# Bulk Modulus (GPa) = 30.74609 33.86573 32.30591
# Shear Modulus (GPa) = 19.37316 20.71892 20.04604
#
# Velocity S-wave (km/s) = 3.30273 3.41551 3.35959
# Velocity P-wave (km/s) = 5.64407 5.88407 5.76532
#
# Compressibility (1/GPa) = 0.03252446
#
# Stress axis : x y z
#
# Youngs Moduli (GPa) = 48.32231 48.32239 69.13917
#
# Poissons Ratio (x) = 0.06064 0.35983
# Poissons Ratio (y) = 0.06064 0.35984
# Poissons Ratio (z) = 0.25149 0.25150
#
# Static dielectric constant tensor:
#      x y z
#    x 3.037230 0.000000 0.000000 
#    y 0.000000 3.037230 0.000000 
#    z 0.000000 0.000000 3.308750 
# 
# 
# High freq. dielectric constant tensor:
#      x y z
#    x 1.662200 0.000000 0.000000 
#    y 0.000000 1.662200 0.000000 
#    z 0.000000 0.000000 1.685510 
# 
# From -- ./inp_files/5118.got.cif
#   From: 2010.03.12/outbox.cif.g09.slc.cpg/sg132_3_cif.got.tgz:5118.got - 2010.04.06 17:53:44.
