data_PCOD8316594
_publ_section_title
;
Structure prediction by ZEFSAII (Michael W. Deem and Ramdas Pophale) SiO2 
 PCOD8316594
Probable space group: P 42/M C M
;
_chemical_formula_sum "Si O2"
_cell_formula_units_Z 96
_cell_length_a 24.837309
_cell_length_b 24.837309
_cell_length_c 8.400059
_cell_angle_alpha 90.000000
_cell_angle_beta 90.000000
_cell_angle_gamma 90.000000
_cell_volume 5181.928511
_symmetry_space_group_name_H-M "P 42/M C M"
_symmetry_group_IT_number 132
_symmetry_cell_setting 'tetragonal'
loop_
_space_group_symop_operation_xyz
x,y,z
-y,x,1/2+z
-x,-y,z
y,-x,1/2+z
x,-y,1/2-z
-x,y,1/2-z
y,x,-z
-y,-x,-z
-x,-y,-z
y,-x,1/2-z
x,y,-z
-y,x,1/2-z
-x,y,1/2+z
x,-y,1/2+z
-y,-x,z
y,x,z
loop_
_atom_site_type_symbol
_atom_site_label
_atom_site_fract_x
_atom_site_fract_y
_atom_site_fract_z
Si Si1 0.292030 0.552539 0.184541
Si Si2 0.175856 0.556252 0.682564
Si Si3 0.854659 0.943044 0.813344
Si Si4 0.941033 0.738596 0.313464
Si Si5 0.741263 0.258738 0.677453
Si Si6 0.675172 0.157979 0.687803
Si Si7 0.348572 0.348572 0.820417
O O1 0.323519 0.500000 0.250000
O O2 0.239467 0.556062 0.294326
O O3 0.329545 0.602285 0.215569
O O4 0.275869 0.548589 0.000000
O O5 0.150309 0.500000 0.750000
O O6 0.159717 0.556348 0.500000
O O7 0.156800 0.613830 0.759138
O O8 0.898969 0.898969 0.772290
O O9 0.800347 0.926569 0.723419
O O10 0.876598 0.000000 0.750000
O O11 0.842299 0.947028 0.000000
O O12 0.937675 0.727983 0.500000
O O13 0.899459 0.700487 0.223918
O O14 0.000000 0.723999 0.250000
O O15 0.758825 0.241176 0.500000
O O16 0.714141 0.205639 0.761400
O O17 0.696331 0.303670 0.672641
O O18 0.671140 0.168877 0.500000
O O19 0.365111 0.365111 0.000000
#
# Coordination Sequence:
#
# PCOD8316594 Si02
#       7
#    16  16  16  16   8  16   8
#     4  11  21  33  50  75 105 143 185 227 272 325
#     4  10  19  33  54  79 111 148 183 222 269 325
#     4  10  21  37  57  80 108 144 183 226 274 326
#     4  11  23  39  59  82 109 144 185 231 274 325
#     4   9  18  33  53  79 114 150 180 212 269 333
#     4  10  20  36  57  82 112 151 186 221 273 330
#     4  11  19  35  55  76 108 145 181 224 276 327
#
# _framework density 18.525919999999999
#
# number of rings (size 3 to 8) (size 9 to 14) (size 15 to 20)
#    0.000    1.667    1.667    6.250    1.167    2.833 
#    0.000    0.833    0.000    0.750    0.000    5.250 
#    0.000    0.000    0.000    0.000    0.000    0.000 
#
# Total GULP energy -1189797.507857 kJ/mol
# GULP energy per Si atom -12393.724040 kJ/mol
# Density = 1.848375 g / cm^3
# Si number density = 18.525920 Si / 1000 Ang^3
#
#
#
# Elastic Constant Matrix: (Units=GPa)
#
#
# Indices 1 2 3 4 5 6 
#
# 1 107.6256 67.9300 11.3230 0.0000 0.0000 0.0000
# 2 67.9300 107.6261 11.3232 0.0000 0.0000 0.0000
# 3 11.3230 11.3232 46.2054 0.0000 0.0000 0.0000
# 4 0.0000 0.0000 0.0000 90.1046 0.0000 0.0000
# 5 0.0000 0.0000 0.0000 0.0000 90.1044 0.0000
# 6 0.0000 0.0000 0.0000 0.0000 0.0000 21.9024
#
#
#
# Elastic Compliance Matrix: (Units=1/GPa)
#
#
# Indices 1 2 3 4 5 6 
#
# 1 0.015537 -0.009655 -0.001441 0.000000 0.000000 0.000000
# 2 -0.009655 0.015537 -0.001442 0.000000 0.000000 0.000000
# 3 -0.001441 -0.001442 0.022349 0.000000 0.000000 0.000000
# 4 0.000000 0.000000 0.000000 0.011098 0.000000 0.000000
# 5 0.000000 0.000000 0.000000 0.000000 0.011098 0.000000
# 6 0.000000 0.000000 0.000000 0.000000 0.000000 0.045657
#
#
# Mechanical properties :
#
#
# Convention : Reuss Voigt Hill
#
# Bulk Modulus (GPa) = 35.27662 49.17882 42.22772
# Shear Modulus (GPa) = 32.09228 51.81435 41.95331
#
# Velocity S-wave (km/s) = 4.16660 5.29427 4.76392
# Velocity P-wave (km/s) = 6.49850 7.99850 7.28720
#
# Compressibility (1/GPa) = 0.02834738
#
# Stress axis : x y z
#
# Youngs Moduli (GPa) = 64.36305 64.36328 44.74471
#
# Poissons Ratio (x) = 0.62141 0.06450
# Poissons Ratio (y) = 0.62141 0.06450
# Poissons Ratio (z) = 0.09277 0.09278
#
# Static dielectric constant tensor:
#      x y z
#    x 3.562210 0.000000 0.000000 
#    y 0.000000 3.562210 0.000000 
#    z 0.000000 0.000000 3.360530 
# 
# 
# High freq. dielectric constant tensor:
#      x y z
#    x 1.712420 0.000000 0.000000 
#    y 0.000000 1.712420 0.000000 
#    z 0.000000 0.000000 1.714970 
# 
# From -- ./inp_files/1845.got.cif
#   From: 2010.03.12/outbox.cif.g09.slc.cpg/sg132_1_cif.got.tgz:1845.got - 2010.04.06 17:53:44.
