data_PCOD8316689
_publ_section_title
;
Structure prediction by ZEFSAII (Michael W. Deem and Ramdas Pophale) SiO2 
 PCOD8316689
Probable space group: P 42/M C M
;
_chemical_formula_sum "Si O2"
_cell_formula_units_Z 96
_cell_length_a 23.945661
_cell_length_b 23.945661
_cell_length_c 9.036695
_cell_angle_alpha 90.000000
_cell_angle_beta 90.000000
_cell_angle_gamma 90.000000
_cell_volume 5181.592844
_symmetry_space_group_name_H-M "P 42/M C M"
_symmetry_group_IT_number 132
_symmetry_cell_setting 'tetragonal'
loop_
_space_group_symop_operation_xyz
x,y,z
-y,x,1/2+z
-x,-y,z
y,-x,1/2+z
x,-y,1/2-z
-x,y,1/2-z
y,x,-z
-y,-x,-z
-x,-y,-z
y,-x,1/2-z
x,y,-z
-y,x,1/2-z
-x,y,1/2+z
x,-y,1/2+z
-y,-x,z
y,x,z
loop_
_atom_site_type_symbol
_atom_site_label
_atom_site_fract_x
_atom_site_fract_y
_atom_site_fract_z
Si Si1 0.944908 0.441966 0.827695
Si Si2 0.731277 0.359525 0.172369
Si Si3 0.270308 0.943947 0.326343
Si Si4 0.858797 0.346248 0.170786
Si Si5 0.054729 0.857261 0.672906
Si Si6 0.349320 0.441049 0.173028
O O1 0.930585 0.500000 0.750000
O O2 0.890742 0.404189 0.803759
O O3 0.000000 0.415303 0.750000
O O4 0.958085 0.451019 0.000000
O O5 0.697440 0.302561 0.206224
O O6 0.795014 0.351762 0.224644
O O7 0.705529 0.411083 0.262378
O O8 0.728355 0.375073 0.000000
O O9 0.279412 0.950516 0.500000
O O10 0.299879 0.888342 0.269703
O O11 0.206342 0.935667 0.279752
O O12 0.294595 0.000000 0.250000
O O13 0.861350 0.327610 0.000000
O O14 0.045452 0.862985 0.500000
O O15 0.108235 0.891766 0.727575
O O16 0.000000 0.882247 0.750000
O O17 0.359219 0.500000 0.250000
O O18 0.403569 0.403569 0.206213
O O19 0.339982 0.450356 0.000000
#
# Coordination Sequence:
#
# PCOD8316689 Si02
#       6
#    16  16  16  16  16  16
#     4  10  20  34  51  72 101 132 165 206 252 300
#     4   9  19  37  57  77 107 144 178 216 263 312
#     4  10  20  34  53  75 101 135 172 215 265 314
#     4  10  21  35  53  79 106 135 174 216 258 310
#     4   9  19  35  52  73 102 133 168 211 259 312
#     4  10  21  37  58  84 113 145 181 221 265 313
#
# _framework density 18.527121999999999
#
# number of rings (size 3 to 8) (size 9 to 14) (size 15 to 20)
#    0.000    2.333    0.000    2.500    0.000    7.000 
#    0.000    3.333    0.000    0.000    0.000    0.000 
#    0.000    0.000    0.000    0.000    0.000    0.000 
#
# Total GULP energy -1190608.279758 kJ/mol
# GULP energy per Si atom -12402.169581 kJ/mol
# Density = 1.848495 g / cm^3
# Si number density = 18.527122 Si / 1000 Ang^3
#
#
#
# Elastic Constant Matrix: (Units=GPa)
#
#
# Indices 1 2 3 4 5 6 
#
# 1 131.5091 65.5943 59.0413 0.0000 0.0000 0.0000
# 2 65.5943 131.5091 59.0413 0.0000 0.0000 0.0000
# 3 59.0413 59.0413 88.3519 0.0000 0.0000 0.0000
# 4 0.0000 0.0000 0.0000 28.6347 0.0000 0.0000
# 5 0.0000 0.0000 0.0000 0.0000 28.6347 0.0000
# 6 0.0000 0.0000 0.0000 0.0000 0.0000 3.5240
#
#
#
# Elastic Compliance Matrix: (Units=1/GPa)
#
#
# Indices 1 2 3 4 5 6 
#
# 1 0.011816 -0.003355 -0.005654 0.000000 0.000000 0.000000
# 2 -0.003355 0.011816 -0.005654 0.000000 0.000000 0.000000
# 3 -0.005654 -0.005654 0.018875 0.000000 0.000000 0.000000
# 4 0.000000 0.000000 0.000000 0.034923 0.000000 0.000000
# 5 0.000000 0.000000 0.000000 0.000000 0.034923 0.000000
# 6 0.000000 0.000000 0.000000 0.000000 0.000000 0.283765
#
#
# Mechanical properties :
#
#
# Convention : Reuss Voigt Hill
#
# Bulk Modulus (GPa) = 75.86859 79.85817 77.86338
# Shear Modulus (GPa) = 11.63235 23.33823 17.48529
#
# Velocity S-wave (km/s) = 2.50842 3.55305 3.07541
# Velocity P-wave (km/s) = 7.03054 7.74785 7.39789
#
# Compressibility (1/GPa) = 0.01318069
#
# Stress axis : x y z
#
# Youngs Moduli (GPa) = 84.63200 84.63200 52.98087
#
# Poissons Ratio (x) = 0.28396 0.29954
# Poissons Ratio (y) = 0.28396 0.29954
# Poissons Ratio (z) = 0.47849 0.47849
#
# Static dielectric constant tensor:
#      x y z
#    x 3.507080 0.000000 0.000000 
#    y 0.000000 3.507080 0.000000 
#    z 0.000000 0.000000 3.465590 
# 
# 
# High freq. dielectric constant tensor:
#      x y z
#    x 1.720290 0.000000 0.000000 
#    y 0.000000 1.720290 0.000000 
#    z 0.000000 0.000000 1.723150 
# 
# From -- ./inp_files/1740.got.cif
#   From: 2010.03.12/outbox.cif.g09.slc.cpg/sg132_1_cif.got.tgz:1740.got - 2010.04.06 17:53:44.
