data_PCOD8316690
_publ_section_title
;
Structure prediction by ZEFSAII (Michael W. Deem and Ramdas Pophale) SiO2 
 PCOD8316690
Probable space group: P 42/M C M
;
_chemical_formula_sum "Si O2"
_cell_formula_units_Z 128
_cell_length_a 17.030725
_cell_length_b 17.030725
_cell_length_c 25.304254
_cell_angle_alpha 90.000000
_cell_angle_beta 90.000000
_cell_angle_gamma 90.000000
_cell_volume 7339.387383
_symmetry_space_group_name_H-M "P 42/M C M"
_symmetry_group_IT_number 132
_symmetry_cell_setting 'tetragonal'
loop_
_space_group_symop_operation_xyz
x,y,z
-y,x,1/2+z
-x,-y,z
y,-x,1/2+z
x,-y,1/2-z
-x,y,1/2-z
y,x,-z
-y,-x,-z
-x,-y,-z
y,-x,1/2-z
x,y,-z
-y,x,1/2-z
-x,y,1/2+z
x,-y,1/2+z
-y,-x,z
y,x,z
loop_
_atom_site_type_symbol
_atom_site_label
_atom_site_fract_x
_atom_site_fract_y
_atom_site_fract_z
Si Si1 0.492621 0.159255 0.811117
Si Si2 0.292543 0.415121 0.131654
Si Si3 0.199932 0.669216 0.942444
Si Si4 0.075577 0.340370 0.848337
Si Si5 0.816889 0.310371 0.439173
Si Si6 0.224517 0.093212 0.245871
Si Si7 0.892255 0.663349 0.341914
Si Si8 0.548073 0.674557 0.440149
O O1 0.500000 0.141018 0.750000
O O2 0.459851 0.247043 0.821424
O O3 0.429530 0.101200 0.837138
O O4 0.579385 0.148368 0.833954
O O5 0.349998 0.349998 0.157353
O O6 0.234864 0.376563 0.088833
O O7 0.343041 0.476553 0.098617
O O8 0.271285 0.728716 0.943872
O O9 0.139593 0.695888 0.897449
O O10 0.237206 0.582697 0.932462
O O11 0.157346 0.669818 0.000000
O O12 0.102570 0.307762 0.905622
O O13 0.108865 0.279789 0.804677
O O14 0.983709 0.346043 0.847083
O O15 0.834127 0.333983 0.500000
O O16 0.773791 0.226210 0.436936
O O17 0.144217 0.144217 0.241075
O O18 0.273854 0.125387 0.295908
O O19 0.203348 0.000000 0.250000
O O20 0.519679 0.662009 0.500000
O O21 0.613307 0.613307 0.423370
#
# Coordination Sequence:
#
# PCOD8316690 Si02
#       8
#    16  16  16  16  16  16  16  16
#     4  11  21  37  53  74 103 138 174 219 268 315
#     4  10  20  34  51  72  97 129 173 216 257 305
#     4   9  18  33  52  75 104 137 174 215 258 307
#     4  10  21  33  53  80 108 134 174 218 258 314
#     4   9  18  33  52  73 103 140 172 207 254 308
#     4  10  21  36  56  82 109 137 174 220 265 317
#     4  11  20  34  55  79 104 139 175 214 263 318
#     4   9  17  30  49  71  94 125 166 210 254 299
#
# _framework density 17.440147
#
# number of rings (size 3 to 8) (size 9 to 14) (size 15 to 20)
#    0.000    2.125    2.500    2.250    0.000    2.625 
#    0.000    1.250    0.000    2.250    0.000    0.000 
#    0.000    0.000    0.000   23.250    0.000    0.000 
#
# Total GULP energy -1586471.675959 kJ/mol
# GULP energy per Si atom -12394.309968 kJ/mol
# Density = 1.740045 g / cm^3
# Si number density = 17.440147 Si / 1000 Ang^3
#
#
#
# Elastic Constant Matrix: (Units=GPa)
#
#
# Indices 1 2 3 4 5 6 
#
# 1 58.4603 32.1693 21.9663 0.0000 0.0000 0.0000
# 2 32.1693 58.4603 21.9663 0.0000 0.0000 0.0000
# 3 21.9663 21.9663 88.2213 0.0000 0.0000 0.0000
# 4 0.0000 0.0000 0.0000 9.8251 0.0000 0.0000
# 5 0.0000 0.0000 0.0000 0.0000 9.8251 0.0000
# 6 0.0000 0.0000 0.0000 0.0000 0.0000 19.3547
#
#
#
# Elastic Compliance Matrix: (Units=1/GPa)
#
#
# Indices 1 2 3 4 5 6 
#
# 1 0.025292 -0.012744 -0.003124 0.000000 0.000000 0.000000
# 2 -0.012744 0.025292 -0.003124 0.000000 0.000000 0.000000
# 3 -0.003124 -0.003124 0.012891 0.000000 0.000000 0.000000
# 4 0.000000 0.000000 0.000000 0.101780 0.000000 0.000000
# 5 0.000000 0.000000 0.000000 0.000000 0.101780 0.000000
# 6 0.000000 0.000000 0.000000 0.000000 0.000000 0.051667
#
#
# Mechanical properties :
#
#
# Convention : Reuss Voigt Hill
#
# Bulk Modulus (GPa) = 39.23073 39.70506 39.46790
# Shear Modulus (GPa) = 13.69174 16.40366 15.04770
#
# Velocity S-wave (km/s) = 2.80495 3.07020 2.94057
# Velocity P-wave (km/s) = 5.74749 5.94845 5.84883
#
# Compressibility (1/GPa) = 0.02549022
#
# Stress axis : x y z
#
# Youngs Moduli (GPa) = 39.53789 39.53789 77.57314
#
# Poissons Ratio (x) = 0.50386 0.24237
# Poissons Ratio (y) = 0.50386 0.24237
# Poissons Ratio (z) = 0.12353 0.12353
#
# Static dielectric constant tensor:
#      x y z
#    x 3.222850 0.000000 0.000000 
#    y 0.000000 3.222850 0.000000 
#    z 0.000000 0.000000 3.611120 
# 
# 
# High freq. dielectric constant tensor:
#      x y z
#    x 1.664040 0.000000 0.000000 
#    y 0.000000 1.664040 0.000000 
#    z 0.000000 0.000000 1.676610 
# 
# From -- ./inp_files/9343.got.cif
#   From: 2010.03.12/outbox.cif.g09.slc.cpg/sg132_5_cif.got.tgz:9343.got - 2010.04.06 17:53:44.
