data_PCOD8316925
_publ_section_title
;
Structure prediction by ZEFSAII (Michael W. Deem and Ramdas Pophale) SiO2 
 PCOD8316925
Probable space group: P 42/N B C
;
_chemical_formula_sum "Si O2"
_cell_formula_units_Z 88
_cell_length_a 15.245951
_cell_length_b 15.245951
_cell_length_c 18.338940
_cell_angle_alpha 90.000000
_cell_angle_beta 90.000000
_cell_angle_gamma 90.000000
_cell_volume 4262.685276
_symmetry_space_group_name_H-M "P 42/N B C"
_symmetry_group_IT_number 133
_space_group.IT_coordinate_system_code '2'
_symmetry_cell_setting 'tetragonal'
loop_
_space_group_symop_operation_xyz
x,y,z
1/2-y,x,1/2+z
1/2-x,1/2-y,z
y,1/2-x,1/2+z
x,1/2-y,-z
1/2-x,y,-z
y,x,1/2-z
1/2-y,1/2-x,1/2-z
-x,-y,-z
1/2+y,-x,1/2-z
1/2+x,1/2+y,-z
-y,1/2+x,1/2-z
-x,1/2+y,z
1/2+x,-y,z
-y,-x,1/2+z
1/2+y,1/2+x,1/2+z
loop_
_atom_site_type_symbol
_atom_site_label
_atom_site_fract_x
_atom_site_fract_y
_atom_site_fract_z
Si Si1 0.655512 0.719961 0.618969
Si Si2 0.451218 0.936870 0.333952
Si Si3 0.112790 0.387211 0.750000
Si Si4 0.843066 0.504686 0.023459
Si Si5 0.620917 0.192317 0.258505
Si Si6 0.981925 0.632056 0.636047
O O1 0.750000 0.750000 0.590557
O O2 0.671073 0.645211 0.681411
O O3 0.603133 0.676778 0.552011
O O4 0.601766 0.804746 0.649422
O O5 0.512779 0.877412 0.280120
O O6 0.452286 0.897902 0.415903
O O7 0.351447 0.933312 0.307306
O O8 0.478463 0.038324 0.324676
O O9 0.750000 0.459564 0.000000
O O10 0.896721 0.509226 0.948552
O O11 0.638177 0.289861 0.232442
O O12 0.566505 0.185562 0.333973
#
# Coordination Sequence:
#
# PCOD8316925 Si02
#       6
#    16  16   8  16  16  16
#     4  10  22  37  62  92 126 162 202 255 322 383
#     4  11  21  39  60  88 120 160 209 256 312 373
#     4  10  19  36  56  88 121 160 200 256 310 376
#     4   9  20  38  61  85 122 164 200 248 316 379
#     4  11  23  39  61  87 118 157 208 260 308 365
#     4  11  22  38  62  88 121 162 206 256 312 383
#
# _framework density 20.644265000000001
#
# number of rings (size 3 to 8) (size 9 to 14) (size 15 to 20)
#    0.000    1.636    1.818    4.091    0.000    7.636 
#    0.000    0.909    4.000    5.455    0.000    0.000 
#    0.000    0.000    0.000    0.000    0.000    0.000 
#
# Total GULP energy -1090253.517099 kJ/mol
# GULP energy per Si atom -12389.244512 kJ/mol
# Density = 2.059728 g / cm^3
# Si number density = 20.644265 Si / 1000 Ang^3
#
#
#
# Elastic Constant Matrix: (Units=GPa)
#
#
# Indices 1 2 3 4 5 6 
#
# 1 79.3097 33.7398 33.4018 0.0000 0.0000 0.0000
# 2 33.7398 79.3100 33.4019 0.0000 0.0000 0.0000
# 3 33.4018 33.4019 117.1128 0.0000 0.0000 0.0000
# 4 0.0000 0.0000 0.0000 28.6036 0.0000 0.0000
# 5 0.0000 0.0000 0.0000 0.0000 28.6036 0.0000
# 6 0.0000 0.0000 0.0000 0.0000 0.0000 29.9020
#
#
#
# Elastic Compliance Matrix: (Units=1/GPa)
#
#
# Indices 1 2 3 4 5 6 
#
# 1 0.016291 -0.005653 -0.003034 0.000000 0.000000 0.000000
# 2 -0.005653 0.016291 -0.003034 0.000000 0.000000 0.000000
# 3 -0.003034 -0.003034 0.010270 0.000000 0.000000 0.000000
# 4 0.000000 0.000000 0.000000 0.034961 0.000000 0.000000
# 5 0.000000 0.000000 0.000000 0.000000 0.034961 0.000000
# 6 0.000000 0.000000 0.000000 0.000000 0.000000 0.033443
#
#
# Mechanical properties :
#
#
# Convention : Reuss Voigt Hill
#
# Bulk Modulus (GPa) = 51.52015 52.97998 52.25006
# Shear Modulus (GPa) = 28.38827 29.10109 28.74468
#
# Velocity S-wave (km/s) = 3.71228 3.75860 3.73551
# Velocity P-wave (km/s) = 6.58673 6.67496 6.63099
#
# Compressibility (1/GPa) = 0.01940988
#
# Stress axis : x y z
#
# Youngs Moduli (GPa) = 61.38171 61.38188 97.37486
#
# Poissons Ratio (x) = 0.34698 0.29546
# Poissons Ratio (y) = 0.34698 0.29546
# Poissons Ratio (z) = 0.18625 0.18625
#
# Static dielectric constant tensor:
#      x y z
#    x 3.705370 0.000000 0.000000 
#    y 0.000000 3.705360 0.000000 
#    z 0.000000 0.000000 3.941810 
# 
# 
# High freq. dielectric constant tensor:
#      x y z
#    x 1.798230 0.000000 0.000000 
#    y 0.000000 1.798230 0.000000 
#    z 0.000000 0.000000 1.813860 
# 
# From -- ./inp_files/6447.got.cif
#   From: 2010.03.12/outbox.cif.g09.slc.cpg/sg133_4_cif.got.tgz:6447.got - 2010.04.06 18:08:06.
