data_PCOD8316715
_publ_section_title
;
Structure prediction by ZEFSAII (Michael W. Deem and Ramdas Pophale) SiO2 
 PCOD8316715
Probable space group: P 42/M C M
;
_chemical_formula_sum "Si O2"
_cell_formula_units_Z 96
_cell_length_a 24.258034
_cell_length_b 24.258034
_cell_length_c 8.639352
_cell_angle_alpha 90.000000
_cell_angle_beta 90.000000
_cell_angle_gamma 90.000000
_cell_volume 5083.845808
_symmetry_space_group_name_H-M "P 42/M C M"
_symmetry_group_IT_number 132
_symmetry_cell_setting 'tetragonal'
loop_
_space_group_symop_operation_xyz
x,y,z
-y,x,1/2+z
-x,-y,z
y,-x,1/2+z
x,-y,1/2-z
-x,y,1/2-z
y,x,-z
-y,-x,-z
-x,-y,-z
y,-x,1/2-z
x,y,-z
-y,x,1/2-z
-x,y,1/2+z
x,-y,1/2+z
-y,-x,z
y,x,z
loop_
_atom_site_type_symbol
_atom_site_label
_atom_site_fract_x
_atom_site_fract_y
_atom_site_fract_z
Si Si1 0.939240 0.851258 0.682772
Si Si2 0.361080 0.146341 0.683696
Si Si3 0.235774 0.148788 0.316218
Si Si4 0.557917 0.768420 0.816453
Si Si5 0.443545 0.357288 0.182022
Si Si6 0.939893 0.557089 0.816691
O O1 0.943841 0.850591 0.500000
O O2 0.905704 0.905704 0.737206
O O3 0.906067 0.796797 0.739965
O O4 0.000000 0.851783 0.750000
O O5 0.363516 0.139115 0.500000
O O6 0.298265 0.148325 0.746553
O O7 0.391135 0.201964 0.735017
O O8 0.390922 0.095616 0.765647
O O9 0.236416 0.150161 0.500000
O O10 0.203185 0.203185 0.255188
O O11 0.500000 0.791180 0.750000
O O12 0.565522 0.705339 0.766153
O O13 0.559272 0.778270 0.000000
O O14 0.500000 0.381263 0.250000
O O15 0.393146 0.393146 0.248541
O O16 0.447067 0.361834 0.000000
O O17 0.914689 0.500000 0.750000
O O18 0.000000 0.566886 0.750000
O O19 0.941804 0.552672 0.000000
#
# Coordination Sequence:
#
# PCOD8316715 Si02
#       6
#    16  16  16  16  16  16
#     4   9  18  34  55  78 106 139 173 210 252 296
#     4  11  21  34  55  81 106 136 176 217 260 313
#     4   8  17  35  55  75 103 139 176 215 258 304
#     4  10  20  35  53  74 102 135 172 215 262 310
#     4   9  19  35  53  74 102 135 170 212 263 317
#     4  11  22  38  57  79 109 141 175 215 262 311
#
# _framework density 18.883343
#
# number of rings (size 3 to 8) (size 9 to 14) (size 15 to 20)
#    0.000    2.333    0.000    4.500    0.000    3.000 
#    0.000    5.000    0.000    3.500    0.000    0.000 
#    0.000    0.000    0.000    0.000    0.000    0.000 
#
# Total GULP energy -1190257.533981 kJ/mol
# GULP energy per Si atom -12398.515979 kJ/mol
# Density = 1.884036 g / cm^3
# Si number density = 18.883343 Si / 1000 Ang^3
#
#
#
# Elastic Constant Matrix: (Units=GPa)
#
#
# Indices 1 2 3 4 5 6 
#
# 1 162.6640 89.5520 37.4351 0.0000 0.0000 0.0000
# 2 89.5520 162.6640 37.4351 0.0000 0.0000 0.0000
# 3 37.4351 37.4351 69.9990 0.0000 0.0000 0.0000
# 4 0.0000 0.0000 0.0000 26.6300 0.0000 0.0000
# 5 0.0000 0.0000 0.0000 0.0000 26.6300 0.0000
# 6 0.0000 0.0000 0.0000 0.0000 0.0000 -17.9469
#
#
#
# Elastic Compliance Matrix: (Units=1/GPa)
#
#
# Indices 1 2 3 4 5 6 
#
# 1 0.009195 -0.004482 -0.002521 0.000000 0.000000 0.000000
# 2 -0.004482 0.009195 -0.002521 0.000000 0.000000 0.000000
# 3 -0.002521 -0.002521 0.016982 0.000000 0.000000 0.000000
# 4 0.000000 0.000000 0.000000 0.037552 0.000000 0.000000
# 5 0.000000 0.000000 0.000000 0.000000 0.037552 0.000000
# 6 0.000000 0.000000 0.000000 0.000000 0.000000 -0.055720
#
#
# Mechanical properties :
#
#
# Convention : Reuss Voigt Hill
#
# Bulk Modulus (GPa) = 61.25241 80.46350 70.85795
# Shear Modulus (GPa) = 63.09578 22.45627 42.77602
#
# Velocity S-wave (km/s) = 5.78671 3.45223 4.76466
# Velocity P-wave (km/s) = 8.78383 7.65466 8.23862
#
# Compressibility (1/GPa) = 0.01632589
#
# Stress axis : x y z
#
# Youngs Moduli (GPa) = 108.75054 108.75054 58.88642
#
# Poissons Ratio (x) = 0.48745 0.14842
# Poissons Ratio (y) = 0.48745 0.14842
# Poissons Ratio (z) = 0.27411 0.27411
#
# Static dielectric constant tensor:
#      x y z
#    x 3.996820 0.000000 0.000000 
#    y 0.000000 3.996820 0.000000 
#    z 0.000000 0.000000 3.290860 
# 
# 
# High freq. dielectric constant tensor:
#      x y z
#    x 1.739580 0.000000 0.000000 
#    y 0.000000 1.739580 0.000000 
#    z 0.000000 0.000000 1.721840 
# 
# From -- ./inp_files/1726.got.cif
#   From: 2010.03.12/outbox.cif.g09.slc.cpg/sg132_1_cif.got.tgz:1726.got - 2010.04.06 17:53:44.
