data_PCOD8316323
_publ_section_title
;
Structure prediction by ZEFSAII (Michael W. Deem and Ramdas Pophale) SiO2 
 PCOD8316323
Probable space group: P 42/M M C
;
_chemical_formula_sum "Si O2"
_cell_formula_units_Z 88
_cell_length_a 17.382023
_cell_length_b 17.382023
_cell_length_c 15.112198
_cell_angle_alpha 90.000000
_cell_angle_beta 90.000000
_cell_angle_gamma 90.000000
_cell_volume 4565.919765
_symmetry_space_group_name_H-M "P 42/M M C"
_symmetry_group_IT_number 131
_symmetry_cell_setting 'tetragonal'
loop_
_space_group_symop_operation_xyz
x,y,z
-x,-y,z
-y,x,1/2+z
y,-x,1/2+z
-x,y,-z
x,-y,-z
y,x,1/2-z
-y,-x,1/2-z
-x,-y,-z
x,y,-z
y,-x,1/2-z
-y,x,1/2-z
x,-y,z
-x,y,z
-y,-x,1/2+z
y,x,1/2+z
loop_
_atom_site_type_symbol
_atom_site_label
_atom_site_fract_x
_atom_site_fract_y
_atom_site_fract_z
Si Si1 0.336313 0.346144 0.354192
Si Si2 0.751274 0.500000 0.399519
Si Si3 0.913779 0.339076 0.776260
Si Si4 0.296389 0.500000 0.901460
Si Si5 0.246395 0.804710 0.598222
Si Si6 0.844311 0.500000 0.229634
Si Si7 0.085783 0.260235 0.598859
O O1 0.334435 0.334435 0.250000
O O2 0.300957 0.426370 0.382198
O O3 0.423661 0.347264 0.389402
O O4 0.285158 0.278926 0.396622
O O5 0.782275 0.500000 0.500000
O O6 0.823923 0.500000 0.333494
O O7 0.860099 0.280196 0.827976
O O8 0.893300 0.426328 0.797864
O O9 0.903934 0.327524 0.670858
O O10 0.000000 0.322690 0.807959
O O11 0.232107 0.500000 0.827334
O O12 0.260116 0.500000 0.000000
O O13 0.263099 0.837686 0.500000
O O14 0.154021 0.801302 0.613708
O O15 0.093978 0.296093 0.500000
O O16 0.000000 0.222307 0.609638
#
# Coordination Sequence:
#
# PCOD8316323 Si02
#       7
#    16   8  16   8  16   8  16
#     4  12  22  40  59  86 116 156 204 253 305 355
#     4  12  24  38  60  90 119 149 198 258 308 362
#     4  11  23  38  59  87 120 158 201 248 293 346
#     4  12  24  40  60  80 114 159 202 247 300 355
#     4  11  21  36  61  87 117 157 198 243 297 359
#     4  12  23  40  58  83 119 158 202 248 295 355
#     4   9  19  36  59  88 118 150 192 244 304 365
#
# _framework density 19.273226000000001
#
# number of rings (size 3 to 8) (size 9 to 14) (size 15 to 20)
#    0.000    0.909    3.636    4.636    0.000    2.909 
#    0.000    1.818    0.000    4.909    0.000    5.091 
#    0.000    0.000    0.000    0.000    0.000    0.000 
#
# Total GULP energy -1091118.207194 kJ/mol
# GULP energy per Si atom -12399.070536 kJ/mol
# Density = 1.922936 g / cm^3
# Si number density = 19.273226 Si / 1000 Ang^3
#
#
#
# Elastic Constant Matrix: (Units=GPa)
#
#
# Indices 1 2 3 4 5 6 
#
# 1 110.2264 42.7520 22.5324 0.0000 0.0000 0.0000
# 2 42.7520 110.2264 22.5324 0.0000 0.0000 0.0000
# 3 22.5324 22.5324 100.8484 0.0000 0.0000 0.0000
# 4 0.0000 0.0000 0.0000 21.2440 0.0000 0.0000
# 5 0.0000 0.0000 0.0000 0.0000 21.2440 0.0000
# 6 0.0000 0.0000 0.0000 0.0000 0.0000 73.0650
#
#
#
# Elastic Compliance Matrix: (Units=1/GPa)
#
#
# Indices 1 2 3 4 5 6 
#
# 1 0.010909 -0.003911 -0.001563 0.000000 0.000000 0.000000
# 2 -0.003911 0.010909 -0.001563 0.000000 0.000000 0.000000
# 3 -0.001563 -0.001563 0.010615 0.000000 0.000000 0.000000
# 4 0.000000 0.000000 0.000000 0.047072 0.000000 0.000000
# 5 0.000000 0.000000 0.000000 0.000000 0.047072 0.000000
# 6 0.000000 0.000000 0.000000 0.000000 0.000000 0.013686
#
#
# Mechanical properties :
#
#
# Convention : Reuss Voigt Hill
#
# Bulk Modulus (GPa) = 54.47912 55.21499 54.84706
# Shear Modulus (GPa) = 31.16074 38.67623 34.91848
#
# Velocity S-wave (km/s) = 4.02529 4.48452 4.26110
# Velocity P-wave (km/s) = 7.06626 7.45153 7.26145
#
# Compressibility (1/GPa) = 0.01835566
#
# Stress axis : x y z
#
# Youngs Moduli (GPa) = 91.66809 91.66809 94.21074
#
# Poissons Ratio (x) = 0.35856 0.14729
# Poissons Ratio (y) = 0.35856 0.14729
# Poissons Ratio (z) = 0.14332 0.14332
#
# Static dielectric constant tensor:
#      x y z
#    x 3.696560 0.000000 0.000000 
#    y 0.000000 3.696560 0.000000 
#    z 0.000000 0.000000 3.794290 
# 
# 
# High freq. dielectric constant tensor:
#      x y z
#    x 1.739710 0.000000 0.000000 
#    y 0.000000 1.739710 0.000000 
#    z 0.000000 0.000000 1.772560 
# 
# From -- ./inp_files/5929.got.cif
#   From: 2010.03.12/outbox.cif.g09.slc.cpg/sg131_3_cif.got.tgz:5929.got - 2010.04.06 17:36:35.
