data_PCOD8316255
_publ_section_title
;
Structure prediction by ZEFSAII (Michael W. Deem and Ramdas Pophale) SiO2 
 PCOD8316255
Probable space group: P 42/M M C
;
_chemical_formula_sum "Si O2"
_cell_formula_units_Z 96
_cell_length_a 24.062298
_cell_length_b 24.062298
_cell_length_c 8.784156
_cell_angle_alpha 90.000000
_cell_angle_beta 90.000000
_cell_angle_gamma 90.000000
_cell_volume 5085.975244
_symmetry_space_group_name_H-M "P 42/M M C"
_symmetry_group_IT_number 131
_symmetry_cell_setting 'tetragonal'
loop_
_space_group_symop_operation_xyz
x,y,z
-x,-y,z
-y,x,1/2+z
y,-x,1/2+z
-x,y,-z
x,-y,-z
y,x,1/2-z
-y,-x,1/2-z
-x,-y,-z
x,y,-z
y,-x,1/2-z
-y,x,1/2-z
x,-y,z
-x,y,z
-y,-x,1/2+z
y,x,1/2+z
loop_
_atom_site_type_symbol
_atom_site_label
_atom_site_fract_x
_atom_site_fract_y
_atom_site_fract_z
Si Si1 0.937971 0.858014 0.180133
Si Si2 0.230105 0.849607 0.678320
Si Si3 0.271868 0.646296 0.680021
Si Si4 0.153634 0.644301 0.179003
Si Si5 0.936235 0.435957 0.677719
Si Si6 0.357845 0.564727 0.823207
O O1 0.915163 0.915163 0.250000
O O2 0.900996 0.806534 0.239423
O O3 0.000000 0.848159 0.240636
O O4 0.936409 0.862738 0.000000
O O5 0.208075 0.791926 0.750000
O O6 0.224152 0.842550 0.500000
O O7 0.293061 0.862807 0.725720
O O8 0.296103 0.703898 0.750000
O O9 0.271667 0.652435 0.500000
O O10 0.210793 0.630601 0.737111
O O11 0.309530 0.595065 0.731198
O O12 0.104677 0.603164 0.227981
O O13 0.163130 0.638090 0.000000
O O14 0.926459 0.425363 0.500000
O O15 0.923232 0.500000 0.718531
O O16 0.000000 0.421929 0.721651
O O17 0.416553 0.583448 0.750000
O O18 0.350164 0.500000 0.799717
O O19 0.355303 0.581872 0.000000
#
# Coordination Sequence:
#
# PCOD8316255 Si02
#       6
#    16  16  16  16  16  16
#     4   9  18  33  51  71  99 134 171 212 256 302
#     4   9  19  34  52  75 104 138 173 212 260 310
#     4  11  22  37  57  80 111 147 182 224 273 323
#     4  11  22  35  56  85 111 139 178 219 264 324
#     4   9  20  40  61  80 107 142 178 219 269 322
#     4  10  21  37  57  81 110 144 183 227 272 319
#
# _framework density 18.875436000000001
#
# number of rings (size 3 to 8) (size 9 to 14) (size 15 to 20)
#    0.000    2.167    0.000    4.500    0.000    6.667 
#    0.000    4.167    0.000    0.000    0.000    0.000 
#    0.000    0.000    0.000    0.000    0.000    0.000 
#
# Total GULP energy -1190428.002107 kJ/mol
# GULP energy per Si atom -12400.291689 kJ/mol
# Density = 1.883247 g / cm^3
# Si number density = 18.875436 Si / 1000 Ang^3
#
#
#
# Elastic Constant Matrix: (Units=GPa)
#
#
# Indices 1 2 3 4 5 6 
#
# 1 122.8140 62.7668 53.7948 0.0000 0.0000 0.0000
# 2 62.7668 122.8183 53.7923 0.0000 0.0000 0.0000
# 3 53.7948 53.7923 91.7095 0.0000 0.0000 0.0000
# 4 0.0000 0.0000 0.0000 30.7156 0.0000 0.0000
# 5 0.0000 0.0000 0.0000 0.0000 30.7153 0.0000
# 6 0.0000 0.0000 0.0000 0.0000 0.0000 26.6938
#
#
#
# Elastic Compliance Matrix: (Units=1/GPa)
#
#
# Indices 1 2 3 4 5 6 
#
# 1 0.012409 -0.004244 -0.004790 0.000000 0.000000 0.000000
# 2 -0.004244 0.012408 -0.004789 0.000000 0.000000 0.000000
# 3 -0.004790 -0.004789 0.016522 0.000000 0.000000 0.000000
# 4 0.000000 0.000000 0.000000 0.032557 0.000000 0.000000
# 5 0.000000 0.000000 0.000000 0.000000 0.032557 0.000000
# 6 0.000000 0.000000 0.000000 0.000000 0.000000 0.037462
#
#
# Mechanical properties :
#
#
# Convention : Reuss Voigt Hill
#
# Bulk Modulus (GPa) = 73.01820 75.33883 74.17851
# Shear Modulus (GPa) = 28.38880 28.75749 28.57314
#
# Velocity S-wave (km/s) = 3.88236 3.90749 3.89495
# Velocity P-wave (km/s) = 7.67237 7.76906 7.72086
#
# Compressibility (1/GPa) = 0.01369522
#
# Stress axis : x y z
#
# Youngs Moduli (GPa) = 80.58414 80.59047 60.52408
#
# Poissons Ratio (x) = 0.34203 0.28989
# Poissons Ratio (y) = 0.34200 0.28983
# Poissons Ratio (z) = 0.38598 0.38592
#
# Static dielectric constant tensor:
#      x y z
#    x 3.637880 0.000000 0.000000 
#    y 0.000000 3.637900 0.000000 
#    z 0.000000 0.000000 3.534470 
# 
# 
# High freq. dielectric constant tensor:
#      x y z
#    x 1.736360 0.000000 0.000000 
#    y 0.000000 1.736360 0.000000 
#    z 0.000000 0.000000 1.735930 
# 
# From -- ./inp_files/2195.got.cif
#   From: 2010.03.12/outbox.cif.g09.slc.cpg/sg131_2_cif.got.tgz:2195.got - 2010.04.06 17:36:35.
