data_PCOD8316301
_publ_section_title
;
Structure prediction by ZEFSAII (Michael W. Deem and Ramdas Pophale) SiO2 
 PCOD8316301
Probable space group: P 42/M M C
;
_chemical_formula_sum "Si O2"
_cell_formula_units_Z 88
_cell_length_a 13.800252
_cell_length_b 13.800252
_cell_length_c 27.394922
_cell_angle_alpha 90.000000
_cell_angle_beta 90.000000
_cell_angle_gamma 90.000000
_cell_volume 5217.279485
_symmetry_space_group_name_H-M "P 42/M M C"
_symmetry_group_IT_number 131
_symmetry_cell_setting 'tetragonal'
loop_
_space_group_symop_operation_xyz
x,y,z
-x,-y,z
-y,x,1/2+z
y,-x,1/2+z
-x,y,-z
x,-y,-z
y,x,1/2-z
-y,-x,1/2-z
-x,-y,-z
x,y,-z
y,-x,1/2-z
-y,x,1/2-z
x,-y,z
-x,y,z
-y,-x,1/2+z
y,x,1/2+z
loop_
_atom_site_type_symbol
_atom_site_label
_atom_site_fract_x
_atom_site_fract_y
_atom_site_fract_z
Si Si1 0.795590 0.710411 0.855003
Si Si2 0.107896 0.389046 0.233583
Si Si3 0.291624 0.388365 0.294493
Si Si4 0.614054 0.110509 0.554876
Si Si5 0.885675 0.895168 0.500000
Si Si6 0.115537 0.889345 0.894173
O O1 0.867348 0.670307 0.814361
O O2 0.683343 0.690973 0.840278
O O3 0.815251 0.661187 0.907091
O O4 0.822579 0.824117 0.857242
O O5 0.115533 0.500000 0.217554
O O6 0.181920 0.367552 0.277355
O O7 0.000000 0.362070 0.251732
O O8 0.364902 0.364902 0.250000
O O9 0.307263 0.500000 0.310774
O O10 0.653903 0.132105 0.500000
O O11 0.500000 0.126489 0.555529
O O12 0.639446 0.000000 0.569788
O O13 0.858527 0.844791 0.448576
O O14 0.000000 0.911181 0.500000
O O15 0.834535 0.000000 0.500000
O O16 0.000000 0.871248 0.890377
O O17 0.140235 0.000000 0.881748
#
# Coordination Sequence:
#
# PCOD8316301 Si02
#       6
#    16  16  16  16   8  16
#     4  11  19  28  48  73  96 125 161 195 234 286
#     4   9  17  31  51  72  94 119 148 189 242 295
#     4   9  20  36  51  70  93 119 158 206 248 289
#     4   9  18  31  47  72 104 129 150 183 230 286
#     4   7  12  24  38  54  84 124 160 191 216 244
#     4   9  17  27  40  64  98 131 162 194 225 265
#
# _framework density 16.867027
#
# number of rings (size 3 to 8) (size 9 to 14) (size 15 to 20)
#    0.000    2.818    0.000    3.818    1.273    3.091 
#    0.000    0.000    0.000    0.545    0.000   10.182 
#    0.000    2.182    0.000    0.000    0.000    0.000 
#
# Total GULP energy -1090497.930741 kJ/mol
# GULP energy per Si atom -12392.021940 kJ/mol
# Density = 1.682864 g / cm^3
# Si number density = 16.867027 Si / 1000 Ang^3
#
#
#
# Elastic Constant Matrix: (Units=GPa)
#
#
# Indices 1 2 3 4 5 6 
#
# 1 82.8593 30.9879 45.7269 0.0000 0.0000 0.0000
# 2 30.9879 82.8593 45.7269 0.0000 0.0000 0.0000
# 3 45.7269 45.7269 86.3969 0.0000 0.0000 0.0000
# 4 0.0000 0.0000 0.0000 24.3646 0.0000 0.0000
# 5 0.0000 0.0000 0.0000 0.0000 24.3646 0.0000
# 6 0.0000 0.0000 0.0000 0.0000 0.0000 19.2322
#
#
#
# Elastic Compliance Matrix: (Units=1/GPa)
#
#
# Indices 1 2 3 4 5 6 
#
# 1 0.017279 -0.001999 -0.008087 0.000000 0.000000 0.000000
# 2 -0.001999 0.017279 -0.008087 0.000000 0.000000 0.000000
# 3 -0.008087 -0.008087 0.020135 0.000000 0.000000 0.000000
# 4 0.000000 0.000000 0.000000 0.041043 0.000000 0.000000
# 5 0.000000 0.000000 0.000000 0.000000 0.041043 0.000000
# 6 0.000000 0.000000 0.000000 0.000000 0.000000 0.051996
#
#
# Mechanical properties :
#
#
# Convention : Reuss Voigt Hill
#
# Bulk Modulus (GPa) = 54.50651 55.22210 54.86430
# Shear Modulus (GPa) = 21.62261 22.23718 21.92990
#
# Velocity S-wave (km/s) = 3.58431 3.63489 3.60969
# Velocity P-wave (km/s) = 7.03671 7.10122 7.06904
#
# Compressibility (1/GPa) = 0.01834643
#
# Stress axis : x y z
#
# Youngs Moduli (GPa) = 57.87254 57.87254 49.66440
#
# Poissons Ratio (x) = 0.11569 0.40165
# Poissons Ratio (y) = 0.11569 0.40165
# Poissons Ratio (z) = 0.46803 0.46803
#
# Static dielectric constant tensor:
#      x y z
#    x 3.121230 0.000000 0.000000 
#    y 0.000000 3.121230 0.000000 
#    z 0.000000 0.000000 3.143060 
# 
# 
# High freq. dielectric constant tensor:
#      x y z
#    x 1.637810 0.000000 0.000000 
#    y 0.000000 1.637810 0.000000 
#    z 0.000000 0.000000 1.637790 
# 
# From -- ./inp_files/12302.got.cif
#   From: 2010.03.12/outbox.cif.g09.slc.cpg/sg131_7_cif.got.tgz:12302.got - 2010.04.06 17:36:35.
