data_PCOD8316054
_publ_section_title
;
Structure prediction by ZEFSAII (Michael W. Deem and Ramdas Pophale) SiO2 
 PCOD8316054
Probable space group: P 42/M M C
;
_chemical_formula_sum "Si O2"
_cell_formula_units_Z 96
_cell_length_a 25.091867
_cell_length_b 25.091867
_cell_length_c 9.033157
_cell_angle_alpha 90.000000
_cell_angle_beta 90.000000
_cell_angle_gamma 90.000000
_cell_volume 5687.291812
_symmetry_space_group_name_H-M "P 42/M M C"
_symmetry_group_IT_number 131
_symmetry_cell_setting 'tetragonal'
loop_
_space_group_symop_operation_xyz
x,y,z
-x,-y,z
-y,x,1/2+z
y,-x,1/2+z
-x,y,-z
x,-y,-z
y,x,1/2-z
-y,-x,1/2-z
-x,-y,-z
x,y,-z
y,-x,1/2-z
-y,x,1/2-z
x,-y,z
-x,y,z
-y,-x,1/2+z
y,x,1/2+z
loop_
_atom_site_type_symbol
_atom_site_label
_atom_site_fract_x
_atom_site_fract_y
_atom_site_fract_z
Si Si1 0.368272 0.829549 0.167362
Si Si2 0.056653 0.354028 0.333316
Si Si3 0.253442 0.439070 0.827145
Si Si4 0.639088 0.562362 0.329889
Si Si5 0.757663 0.164156 0.171926
Si Si6 0.246062 0.941335 0.672415
O O1 0.389827 0.890535 0.190414
O O2 0.400597 0.794382 0.282398
O O3 0.305297 0.828446 0.202300
O O4 0.379523 0.809726 0.000000
O O5 0.061522 0.328796 0.500000
O O6 0.055838 0.308096 0.212094
O O7 0.000000 0.386145 0.320574
O O8 0.239530 0.500000 0.783486
O O9 0.305790 0.418985 0.742837
O O10 0.264294 0.433576 0.000000
O O11 0.590077 0.590077 0.250000
O O12 0.640308 0.579472 0.500000
O O13 0.630404 0.500000 0.308446
O O14 0.787039 0.212962 0.250000
O O15 0.779638 0.107655 0.236244
O O16 0.771286 0.165579 0.000000
O O17 0.239798 0.928419 0.500000
O O18 0.220423 0.000000 0.709202
#
# Coordination Sequence:
#
# PCOD8316054 Si02
#       6
#    16  16  16  16  16  16
#     4   9  18  31  48  70  94 124 160 196 238 286
#     4   8  14  26  44  66  92 120 152 192 236 281
#     4  10  21  36  53  72  95 125 161 199 236 277
#     4  10  21  37  57  79 102 127 154 187 228 274
#     4  10  20  32  46  67  97 129 159 194 237 283
#     4   9  16  26  42  64  90 122 159 195 232 277
#
# _framework density 16.879739000000001
#
# number of rings (size 3 to 8) (size 9 to 14) (size 15 to 20)
#    0.000    2.667    0.000    3.000    0.000    7.167 
#    0.000    2.500    0.000    0.500    0.000    3.500 
#    0.000    0.333    0.000    3.500    0.000    1.667 
#
# Total GULP energy -1189594.790849 kJ/mol
# GULP energy per Si atom -12391.612405 kJ/mol
# Density = 1.684132 g / cm^3
# Si number density = 16.879739 Si / 1000 Ang^3
#
#
#
# Elastic Constant Matrix: (Units=GPa)
#
#
# Indices 1 2 3 4 5 6 
#
# 1 71.2217 46.4090 44.9087 0.0000 0.0000 0.0000
# 2 46.4090 71.2180 44.9081 0.0000 0.0000 0.0000
# 3 44.9087 44.9081 96.8060 0.0000 0.0000 0.0000
# 4 0.0000 0.0000 0.0000 28.1575 0.0000 0.0000
# 5 0.0000 0.0000 0.0000 0.0000 28.1576 0.0000
# 6 0.0000 0.0000 0.0000 0.0000 0.0000 1.4450
#
#
#
# Elastic Compliance Matrix: (Units=1/GPa)
#
#
# Indices 1 2 3 4 5 6 
#
# 1 0.026734 -0.013570 -0.006107 0.000000 0.000000 0.000000
# 2 -0.013570 0.026735 -0.006107 0.000000 0.000000 0.000000
# 3 -0.006107 -0.006107 0.015996 0.000000 0.000000 0.000000
# 4 0.000000 0.000000 0.000000 0.035515 0.000000 0.000000
# 5 0.000000 0.000000 0.000000 0.000000 0.035514 0.000000
# 6 0.000000 0.000000 0.000000 0.000000 0.000000 0.692021
#
#
# Mechanical properties :
#
#
# Convention : Reuss Voigt Hill
#
# Bulk Modulus (GPa) = 55.87572 56.85525 56.36549
# Shear Modulus (GPa) = 5.61767 18.42003 12.01885
#
# Velocity S-wave (km/s) = 1.82627 3.30699 2.67128
# Velocity P-wave (km/s) = 6.13361 6.95250 6.55585
#
# Compressibility (1/GPa) = 0.01789686
#
# Stress axis : x y z
#
# Youngs Moduli (GPa) = 37.40581 37.40349 62.51576
#
# Poissons Ratio (x) = 0.50758 0.38176
# Poissons Ratio (y) = 0.50761 0.38180
# Poissons Ratio (z) = 0.22843 0.22843
#
# Static dielectric constant tensor:
#      x y z
#    x 3.147920 0.000000 0.000000 
#    y 0.000000 3.147920 0.000000 
#    z 0.000000 0.000000 3.246650 
# 
# 
# High freq. dielectric constant tensor:
#      x y z
#    x 1.631530 0.000000 0.000000 
#    y 0.000000 1.631530 0.000000 
#    z 0.000000 0.000000 1.664440 
# 
# From -- ./inp_files/2197.got.cif
#   From: 2010.03.12/outbox.cif.g09.slc.cpg/sg131_2_cif.got.tgz:2197.got - 2010.04.06 17:36:35.
