data_PCOD8316189
_publ_section_title
;
Structure prediction by ZEFSAII (Michael W. Deem and Ramdas Pophale) SiO2 
 PCOD8316189
Probable space group: P 42/M M C
;
_chemical_formula_sum "Si O2"
_cell_formula_units_Z 104
_cell_length_a 17.388944
_cell_length_b 17.388944
_cell_length_c 18.833204
_cell_angle_alpha 90.000000
_cell_angle_beta 90.000000
_cell_angle_gamma 90.000000
_cell_volume 5694.697092
_symmetry_space_group_name_H-M "P 42/M M C"
_symmetry_group_IT_number 131
_symmetry_cell_setting 'tetragonal'
loop_
_space_group_symop_operation_xyz
x,y,z
-x,-y,z
-y,x,1/2+z
y,-x,1/2+z
-x,y,-z
x,-y,-z
y,x,1/2-z
-y,-x,1/2-z
-x,-y,-z
x,y,-z
y,-x,1/2-z
-y,x,1/2-z
x,-y,z
-x,y,z
-y,-x,1/2+z
y,x,1/2+z
loop_
_atom_site_type_symbol
_atom_site_label
_atom_site_fract_x
_atom_site_fract_y
_atom_site_fract_z
Si Si1 0.174354 0.263115 0.922765
Si Si2 0.314891 0.341170 0.868490
Si Si3 0.912733 0.807301 0.795295
Si Si4 0.914307 0.585737 0.102964
Si Si5 0.755335 0.412226 0.735933
Si Si6 0.360758 0.917221 0.239980
Si Si7 0.410332 0.590800 0.000000
O O1 0.263601 0.273149 0.901894
O O2 0.131441 0.206295 0.869070
O O3 0.138981 0.348657 0.929750
O O4 0.169640 0.223646 0.000000
O O5 0.373623 0.308055 0.812314
O O6 0.256036 0.393056 0.820229
O O7 0.363221 0.383963 0.929697
O O8 0.875034 0.875034 0.750000
O O9 0.909155 0.730296 0.749460
O O10 0.000000 0.830764 0.813141
O O11 0.882734 0.500000 0.084062
O O12 0.919075 0.593654 0.186929
O O13 0.000000 0.595958 0.071329
O O14 0.741161 0.500000 0.724373
O O15 0.839279 0.389582 0.703051
O O16 0.377564 0.000000 0.200573
O O17 0.500000 0.621593 0.000000
O O18 0.412834 0.500000 0.000000
#
# Coordination Sequence:
#
# PCOD8316189 Si02
#       7
#    16  16  16  16  16  16   8
#     4  11  21  34  53  80 111 152 188 228 283 345
#     4  11  22  37  54  80 107 142 194 243 295 350
#     4  10  20  36  58  84 116 152 189 232 275 330
#     4   9  17  28  43  69 108 147 180 216 263 330
#     4  11  21  34  56  80 108 142 187 245 295 344
#     4   9  17  29  49  78 110 143 176 218 277 335
#     4  11  24  42  58  74 106 150 198 253 308 360
#
# _framework density 18.262604
#
# number of rings (size 3 to 8) (size 9 to 14) (size 15 to 20)
#    0.000    1.769    3.846    3.692    0.000    3.231 
#    0.000    0.769    0.000    4.154    0.000    1.615 
#    0.000    1.846    0.000    0.000    0.000    0.000 
#
# Total GULP energy -1288484.048890 kJ/mol
# GULP energy per Si atom -12389.269701 kJ/mol
# Density = 1.822104 g / cm^3
# Si number density = 18.262604 Si / 1000 Ang^3
#
#
#
# Elastic Constant Matrix: (Units=GPa)
#
#
# Indices 1 2 3 4 5 6 
#
# 1 94.6187 32.7125 36.5672 0.0000 0.0000 0.0000
# 2 32.7125 94.6187 36.5672 0.0000 0.0000 0.0000
# 3 36.5672 36.5672 75.9939 0.0000 0.0000 0.0000
# 4 0.0000 0.0000 0.0000 34.5376 0.0000 0.0000
# 5 0.0000 0.0000 0.0000 0.0000 34.5376 0.0000
# 6 0.0000 0.0000 0.0000 0.0000 0.0000 23.7903
#
#
#
# Elastic Compliance Matrix: (Units=1/GPa)
#
#
# Indices 1 2 3 4 5 6 
#
# 1 0.013503 -0.002650 -0.005222 0.000000 0.000000 0.000000
# 2 -0.002650 0.013503 -0.005222 0.000000 0.000000 0.000000
# 3 -0.005222 -0.005222 0.018185 0.000000 0.000000 0.000000
# 4 0.000000 0.000000 0.000000 0.028954 0.000000 0.000000
# 5 0.000000 0.000000 0.000000 0.000000 0.028954 0.000000
# 6 0.000000 0.000000 0.000000 0.000000 0.000000 0.042034
#
#
# Mechanical properties :
#
#
# Convention : Reuss Voigt Hill
#
# Bulk Modulus (GPa) = 52.62733 52.99169 52.80951
# Shear Modulus (GPa) = 28.14415 29.19872 28.67144
#
# Velocity S-wave (km/s) = 3.92992 4.00287 3.96656
# Velocity P-wave (km/s) = 7.03363 7.10236 7.06807
#
# Compressibility (1/GPa) = 0.01900153
#
# Stress axis : x y z
#
# Youngs Moduli (GPa) = 74.05609 74.05609 54.99098
#
# Poissons Ratio (x) = 0.19626 0.28718
# Poissons Ratio (y) = 0.19626 0.28718
# Poissons Ratio (z) = 0.38675 0.38675
#
# Static dielectric constant tensor:
#      x y z
#    x 3.491270 0.000000 0.000000 
#    y 0.000000 3.491270 0.000000 
#    z 0.000000 0.000000 2.937790 
# 
# 
# High freq. dielectric constant tensor:
#      x y z
#    x 1.705560 0.000000 0.000000 
#    y 0.000000 1.705560 0.000000 
#    z 0.000000 0.000000 1.677740 
# 
# From -- ./inp_files/8124.got.cif
#   From: 2010.03.12/outbox.cif.g09.slc.cpg/sg131_5_cif.got.tgz:8124.got - 2010.04.06 17:36:35.
