data_PCOD8316583
_publ_section_title
;
Structure prediction by ZEFSAII (Michael W. Deem and Ramdas Pophale) SiO2 
 PCOD8316583
Probable space group: P 42/M C M
;
_chemical_formula_sum "Si O2"
_cell_formula_units_Z 96
_cell_length_a 25.035292
_cell_length_b 25.035292
_cell_length_c 8.657879
_cell_angle_alpha 90.000000
_cell_angle_beta 90.000000
_cell_angle_gamma 90.000000
_cell_volume 5426.462852
_symmetry_space_group_name_H-M "P 42/M C M"
_symmetry_group_IT_number 132
_symmetry_cell_setting 'tetragonal'
loop_
_space_group_symop_operation_xyz
x,y,z
-y,x,1/2+z
-x,-y,z
y,-x,1/2+z
x,-y,1/2-z
-x,y,1/2-z
y,x,-z
-y,-x,-z
-x,-y,-z
y,-x,1/2-z
x,y,-z
-y,x,1/2-z
-x,y,1/2+z
x,-y,1/2+z
-y,-x,z
y,x,z
loop_
_atom_site_type_symbol
_atom_site_label
_atom_site_fract_x
_atom_site_fract_y
_atom_site_fract_z
Si Si1 0.552838 0.072070 0.169805
Si Si2 0.055151 0.783559 0.317221
Si Si3 0.752086 0.247914 0.180549
Si Si4 0.078775 0.670152 0.818469
Si Si5 0.190550 0.658064 0.321211
Si Si6 0.841065 0.158936 0.820403
Si Si7 0.447633 0.801208 0.827396
O O1 0.500000 0.047134 0.250000
O O2 0.611673 0.056894 0.242824
O O3 0.547302 0.135252 0.165664
O O4 0.552614 0.047576 0.000000
O O5 0.055894 0.788282 0.500000
O O6 0.055148 0.720612 0.272314
O O7 0.104122 0.818946 0.253254
O O8 0.000000 0.807977 0.250000
O O9 0.765075 0.300714 0.273404
O O10 0.796680 0.203321 0.207501
O O11 0.741825 0.258176 0.000000
O O12 0.141746 0.670504 0.792440
O O13 0.067497 0.677554 0.000000
O O14 0.173433 0.662915 0.500000
O O15 0.215112 0.600287 0.285364
O O16 0.851606 0.148395 0.000000
O O17 0.500000 0.775906 0.750000
O O18 0.439582 0.778240 0.000000
#
# Coordination Sequence:
#
# PCOD8316583 Si02
#       7
#    16  16   8  16  16   8  16
#     4   8  15  25  41  64  94 130 171 216 260 302
#     4  12  25  41  63  89 115 142 173 209 254 310
#     4  11  21  33  51  73 105 141 172 213 263 310
#     4  10  19  33  50  73 104 138 175 218 263 307
#     4  11  20  29  45  70  99 133 173 214 260 313
#     4  11  23  41  65  88 115 144 172 208 251 301
#     4   9  16  27  41  60  89 126 170 217 262 305
#
# _framework density 17.691082999999999
#
# number of rings (size 3 to 8) (size 9 to 14) (size 15 to 20)
#    0.000    1.833    1.667    5.500    0.000    5.333 
#    0.000    0.000    0.000    0.750    0.000    5.250 
#    0.000    0.000    0.000    0.000    0.000    0.417 
#
# Total GULP energy -1189486.017665 kJ/mol
# GULP energy per Si atom -12390.479351 kJ/mol
# Density = 1.765082 g / cm^3
# Si number density = 17.691083 Si / 1000 Ang^3
#
#
#
# Elastic Constant Matrix: (Units=GPa)
#
#
# Indices 1 2 3 4 5 6 
#
# 1 93.9248 43.1342 41.1336 0.0000 0.0000 0.0000
# 2 43.1342 93.9245 41.1336 0.0000 0.0000 0.0000
# 3 41.1336 41.1336 116.5682 0.0000 0.0000 0.0000
# 4 0.0000 0.0000 0.0000 27.1991 0.0000 0.0000
# 5 0.0000 0.0000 0.0000 0.0000 27.1991 0.0000
# 6 0.0000 0.0000 0.0000 0.0000 0.0000 -18.3787
#
#
#
# Elastic Compliance Matrix: (Units=1/GPa)
#
#
# Indices 1 2 3 4 5 6 
#
# 1 0.014473 -0.005216 -0.003266 0.000000 0.000000 0.000000
# 2 -0.005216 0.014473 -0.003266 0.000000 0.000000 0.000000
# 3 -0.003266 -0.003266 0.010884 0.000000 0.000000 0.000000
# 4 0.000000 0.000000 0.000000 0.036766 0.000000 0.000000
# 5 0.000000 0.000000 0.000000 0.000000 0.036766 0.000000
# 6 0.000000 0.000000 0.000000 0.000000 0.000000 -0.054411
#
#
# Mechanical properties :
#
#
# Convention : Reuss Voigt Hill
#
# Bulk Modulus (GPa) = 61.23071 61.69116 61.46094
# Shear Modulus (GPa) = 56.88789 19.13831 38.01310
#
# Velocity S-wave (km/s) = 5.67680 3.29265 4.64045
# Velocity P-wave (km/s) = 8.81217 7.02869 7.97047
#
# Compressibility (1/GPa) = 0.01633167
#
# Stress axis : x y z
#
# Youngs Moduli (GPa) = 69.09550 69.09524 91.87849
#
# Poissons Ratio (x) = 0.36040 0.30012
# Poissons Ratio (y) = 0.36040 0.30012
# Poissons Ratio (z) = 0.22570 0.22570
#
# Static dielectric constant tensor:
#      x y z
#    x 3.274730 0.000000 0.000000 
#    y 0.000000 3.274730 0.000000 
#    z 0.000000 0.000000 3.415200 
# 
# 
# High freq. dielectric constant tensor:
#      x y z
#    x 1.661220 0.000000 0.000000 
#    y 0.000000 1.661220 0.000000 
#    z 0.000000 0.000000 1.697940 
# 
# From -- ./inp_files/1808.got.cif
#   From: 2010.03.12/outbox.cif.g09.slc.cpg/sg132_1_cif.got.tgz:1808.got - 2010.04.06 17:53:44.
