data_PCOD8316804
_publ_section_title
;
Structure prediction by ZEFSAII (Michael W. Deem and Ramdas Pophale) SiO2 
 PCOD8316804
Probable space group: P 42/M C M
;
_chemical_formula_sum "Si O2"
_cell_formula_units_Z 112
_cell_length_a 14.434061
_cell_length_b 14.434061
_cell_length_c 27.051545
_cell_angle_alpha 90.000000
_cell_angle_beta 90.000000
_cell_angle_gamma 90.000000
_cell_volume 5635.976152
_symmetry_space_group_name_H-M "P 42/M C M"
_symmetry_group_IT_number 132
_symmetry_cell_setting 'tetragonal'
loop_
_space_group_symop_operation_xyz
x,y,z
-y,x,1/2+z
-x,-y,z
y,-x,1/2+z
x,-y,1/2-z
-x,y,1/2-z
y,x,-z
-y,-x,-z
-x,-y,-z
y,-x,1/2-z
x,y,-z
-y,x,1/2-z
-x,y,1/2+z
x,-y,1/2+z
-y,-x,z
y,x,z
loop_
_atom_site_type_symbol
_atom_site_label
_atom_site_fract_x
_atom_site_fract_y
_atom_site_fract_z
Si Si1 0.898851 0.753522 0.733103
Si Si2 0.540124 0.686197 0.196850
Si Si3 0.296617 0.438457 0.395984
Si Si4 0.856996 0.289195 0.879178
Si Si5 0.399241 0.029453 0.893844
Si Si6 0.225321 0.622979 0.442287
Si Si7 0.108516 0.428287 0.209527
O O1 0.835192 0.835192 0.752574
O O2 0.888460 0.738804 0.675097
O O3 0.866257 0.662542 0.760604
O O4 0.000000 0.782509 0.750000
O O5 0.500000 0.659917 0.250000
O O6 0.641727 0.641727 0.192062
O O7 0.475071 0.650131 0.152935
O O8 0.540149 0.795463 0.185498
O O9 0.370782 0.370782 0.423307
O O10 0.207653 0.379368 0.379003
O O11 0.268407 0.522157 0.431770
O O12 0.799638 0.200363 0.902324
O O13 0.951296 0.321432 0.907592
O O14 0.364126 0.127241 0.914836
O O15 0.410080 0.034253 0.833923
O O16 0.500000 0.000000 0.915947
O O17 0.206205 0.631526 0.500000
O O18 0.296765 0.703236 0.424555
O O19 0.068734 0.500000 0.250000
#
# Coordination Sequence:
#
# PCOD8316804 Si02
#       7
#    16  16  16  16  16  16  16
#     4  11  22  35  52  78 117 164 202 244 295 345
#     4  11  21  33  49  79 119 160 202 241 283 343
#     4  11  22  39  61  86 122 166 202 240 298 366
#     4  10  21  39  59  88 128 159 195 252 309 354
#     4  12  21  39  67  94 119 159 206 251 302 359
#     4  11  26  45  64  91 124 155 196 254 312 365
#     4  11  22  33  56  86 119 152 197 252 295 347
#
# _framework density 19.872335
#
# number of rings (size 3 to 8) (size 9 to 14) (size 15 to 20)
#    0.000    1.000    4.286    3.857    0.000    4.286 
#    0.000    0.714    0.000    0.857    0.000    1.000 
#    0.000    0.000    0.000    0.000    0.000    0.000 
#
# Total GULP energy -1388084.603479 kJ/mol
# GULP energy per Si atom -12393.612531 kJ/mol
# Density = 1.982710 g / cm^3
# Si number density = 19.872335 Si / 1000 Ang^3
#
#
#
# Elastic Constant Matrix: (Units=GPa)
#
#
# Indices 1 2 3 4 5 6 
#
# 1 110.5940 92.2736 24.5448 0.0000 0.0000 0.0000
# 2 92.2736 110.5940 24.5448 0.0000 0.0000 0.0000
# 3 24.5448 24.5448 50.8490 0.0000 0.0000 0.0000
# 4 0.0000 0.0000 0.0000 15.5869 0.0000 0.0000
# 5 0.0000 0.0000 0.0000 0.0000 15.5869 0.0000
# 6 0.0000 0.0000 0.0000 0.0000 0.0000 36.0038
#
#
#
# Elastic Compliance Matrix: (Units=1/GPa)
#
#
# Indices 1 2 3 4 5 6 
#
# 1 0.030083 -0.024501 -0.002694 0.000000 0.000000 0.000000
# 2 -0.024501 0.030083 -0.002694 0.000000 0.000000 0.000000
# 3 -0.002694 -0.002694 0.022267 0.000000 0.000000 0.000000
# 4 0.000000 0.000000 0.000000 0.064156 0.000000 0.000000
# 5 0.000000 0.000000 0.000000 0.000000 0.064156 0.000000
# 6 0.000000 0.000000 0.000000 0.000000 0.000000 0.027775
#
#
# Mechanical properties :
#
#
# Convention : Reuss Voigt Hill
#
# Bulk Modulus (GPa) = 44.14401 61.64037 52.89219
# Shear Modulus (GPa) = 16.34790 22.14711 19.24751
#
# Velocity S-wave (km/s) = 2.87129 3.34199 3.11554
# Velocity P-wave (km/s) = 5.76667 6.78066 6.29412
#
# Compressibility (1/GPa) = 0.02265313
#
# Stress axis : x y z
#
# Youngs Moduli (GPa) = 33.24182 33.24182 44.90974
#
# Poissons Ratio (x) = 0.81447 0.12099
# Poissons Ratio (y) = 0.81447 0.12099
# Poissons Ratio (z) = 0.08956 0.08956
#
# Static dielectric constant tensor:
#      x y z
#    x 3.786460 0.000000 0.000000 
#    y 0.000000 3.786460 0.000000 
#    z 0.000000 0.000000 3.287680 
# 
# 
# High freq. dielectric constant tensor:
#      x y z
#    x 1.782260 0.000000 0.000000 
#    y 0.000000 1.782260 0.000000 
#    z 0.000000 0.000000 1.741680 
# 
# From -- ./inp_files/11019.got.cif
#   From: 2010.03.12/outbox.cif.g09.slc.cpg/sg132_6_cif.got.tgz:11019.got - 2010.04.06 17:53:44.
