data_PCOD8316727
_publ_section_title
;
Structure prediction by ZEFSAII (Michael W. Deem and Ramdas Pophale) SiO2 
 PCOD8316727
Probable space group: P 42/M C M
;
_chemical_formula_sum "Si O2"
_cell_formula_units_Z 104
_cell_length_a 18.715960
_cell_length_b 18.715960
_cell_length_c 16.640669
_cell_angle_alpha 90.000000
_cell_angle_beta 90.000000
_cell_angle_gamma 90.000000
_cell_volume 5829.012663
_symmetry_space_group_name_H-M "P 42/M C M"
_symmetry_group_IT_number 132
_symmetry_cell_setting 'tetragonal'
loop_
_space_group_symop_operation_xyz
x,y,z
-y,x,1/2+z
-x,-y,z
y,-x,1/2+z
x,-y,1/2-z
-x,y,1/2-z
y,x,-z
-y,-x,-z
-x,-y,-z
y,-x,1/2-z
x,y,-z
-y,x,1/2-z
-x,y,1/2+z
x,-y,1/2+z
-y,-x,z
y,x,z
loop_
_atom_site_type_symbol
_atom_site_label
_atom_site_fract_x
_atom_site_fract_y
_atom_site_fract_z
Si Si1 0.178808 0.059152 0.092729
Si Si2 0.334849 0.098737 0.866401
Si Si3 0.362778 0.251554 0.086086
Si Si4 0.032718 0.572608 0.908600
Si Si5 0.882389 0.000000 0.250000
Si Si6 0.420560 0.304523 0.755128
Si Si7 0.146634 0.579815 0.781780
O O1 0.116628 0.116628 0.089844
O O2 0.250377 0.097933 0.122031
O O3 0.162245 0.002532 0.165272
O O4 0.185988 0.027102 0.000000
O O5 0.364097 0.166074 0.915795
O O6 0.359719 0.111559 0.774987
O O7 0.364564 0.024677 0.900536
O O8 0.282425 0.282425 0.101111
O O9 0.415043 0.283882 0.151673
O O10 0.392081 0.277547 0.000000
O O11 0.106778 0.591428 0.865548
O O12 0.000000 0.500000 0.871275
O O13 0.054179 0.560324 0.000000
O O14 0.929189 0.070812 0.242593
O O15 0.500000 0.336503 0.750000
O O16 0.363628 0.363628 0.726501
O O17 0.407962 0.231515 0.704693
O O18 0.132842 0.500000 0.750000
#
# Coordination Sequence:
#
# PCOD8316727 Si02
#       7
#    16  16  16  16   8  16  16
#     4  10  21  36  55  81 108 133 170 222 274 323
#     4  11  20  31  52  77 106 137 171 213 268 315
#     4   9  17  31  52  77 105 133 164 211 267 318
#     4  11  22  33  49  75 104 140 183 221 255 302
#     4   9  20  38  56  76 101 134 176 214 261 322
#     4   9  19  35  55  80 103 133 174 213 263 320
#     4  10  20  36  52  72 106 143 175 214 260 313
#
# _framework density 17.841785999999999
#
# number of rings (size 3 to 8) (size 9 to 14) (size 15 to 20)
#    0.000    2.077    1.538    2.308    2.154    2.308 
#    0.000    1.538    0.000    1.846    0.000    2.154 
#    0.000    0.000    0.000    0.000    0.000    0.000 
#
# Total GULP energy -1288660.641075 kJ/mol
# GULP energy per Si atom -12390.967703 kJ/mol
# Density = 1.780118 g / cm^3
# Si number density = 17.841786 Si / 1000 Ang^3
#
#
#
# Elastic Constant Matrix: (Units=GPa)
#
#
# Indices 1 2 3 4 5 6 
#
# 1 87.2542 27.7573 45.8555 0.0000 0.0000 0.0000
# 2 27.7573 87.2542 45.8555 0.0000 0.0000 0.0000
# 3 45.8555 45.8555 106.4613 0.0000 0.0000 0.0000
# 4 0.0000 0.0000 0.0000 20.0139 0.0000 0.0000
# 5 0.0000 0.0000 0.0000 0.0000 20.0139 0.0000
# 6 0.0000 0.0000 0.0000 0.0000 0.0000 19.6489
#
#
#
# Elastic Compliance Matrix: (Units=1/GPa)
#
#
# Indices 1 2 3 4 5 6 
#
# 1 0.015026 -0.001782 -0.005704 0.000000 0.000000 0.000000
# 2 -0.001782 0.015026 -0.005704 0.000000 0.000000 0.000000
# 3 -0.005704 -0.005704 0.014307 0.000000 0.000000 0.000000
# 4 0.000000 0.000000 0.000000 0.049965 0.000000 0.000000
# 5 0.000000 0.000000 0.000000 0.000000 0.049965 0.000000
# 6 0.000000 0.000000 0.000000 0.000000 0.000000 0.050894
#
#
# Mechanical properties :
#
#
# Convention : Reuss Voigt Hill
#
# Bulk Modulus (GPa) = 55.62732 57.76737 56.69735
# Shear Modulus (GPa) = 21.97263 22.70207 22.33735
#
# Velocity S-wave (km/s) = 3.51312 3.57096 3.54215
# Velocity P-wave (km/s) = 6.90665 7.03208 6.96965
#
# Compressibility (1/GPa) = 0.01797678
#
# Stress axis : x y z
#
# Youngs Moduli (GPa) = 66.55350 66.55350 69.89574
#
# Poissons Ratio (x) = 0.11861 0.39870
# Poissons Ratio (y) = 0.11861 0.39870
# Poissons Ratio (z) = 0.37964 0.37964
#
# Static dielectric constant tensor:
#      x y z
#    x 3.305010 0.000000 0.000000 
#    y 0.000000 3.305010 0.000000 
#    z 0.000000 0.000000 3.527670 
# 
# 
# High freq. dielectric constant tensor:
#      x y z
#    x 1.679320 0.000000 0.000000 
#    y 0.000000 1.679320 0.000000 
#    z 0.000000 0.000000 1.690330 
# 
# From -- ./inp_files/6544.got.cif
#   From: 2010.03.12/outbox.cif.g09.slc.cpg/sg132_4_cif.got.tgz:6544.got - 2010.04.06 17:53:44.
