data_PCOD8316671
_publ_section_title
;
Structure prediction by ZEFSAII (Michael W. Deem and Ramdas Pophale) SiO2 
 PCOD8316671
Probable space group: P 42/M C M
;
_chemical_formula_sum "Si O2"
_cell_formula_units_Z 96
_cell_length_a 24.599850
_cell_length_b 24.599850
_cell_length_c 8.826175
_cell_angle_alpha 90.000000
_cell_angle_beta 90.000000
_cell_angle_gamma 90.000000
_cell_volume 5341.182926
_symmetry_space_group_name_H-M "P 42/M C M"
_symmetry_group_IT_number 132
_symmetry_cell_setting 'tetragonal'
loop_
_space_group_symop_operation_xyz
x,y,z
-y,x,1/2+z
-x,-y,z
y,-x,1/2+z
x,-y,1/2-z
-x,y,1/2-z
y,x,-z
-y,-x,-z
-x,-y,-z
y,-x,1/2-z
x,y,-z
-y,x,1/2-z
-x,y,1/2+z
x,-y,1/2+z
-y,-x,z
y,x,z
loop_
_atom_site_type_symbol
_atom_site_label
_atom_site_fract_x
_atom_site_fract_y
_atom_site_fract_z
Si Si1 0.552100 0.692743 0.168108
Si Si2 0.258352 0.258352 0.320146
Si Si3 0.056811 0.856287 0.321830
Si Si4 0.267556 0.057407 0.820501
Si Si5 0.820993 0.555319 0.829692
Si Si6 0.657749 0.342252 0.823493
Si Si7 0.672244 0.156453 0.819302
O O1 0.500000 0.668037 0.250000
O O2 0.549156 0.757021 0.159947
O O3 0.598509 0.673044 0.276372
O O4 0.558389 0.668117 0.000000
O O5 0.257803 0.257803 0.500000
O O6 0.300543 0.300543 0.247292
O O7 0.199891 0.281329 0.262983
O O8 0.050220 0.861780 0.500000
O O9 0.104697 0.895304 0.260373
O O10 0.071862 0.794637 0.276030
O O11 0.000000 0.874846 0.250000
O O12 0.308461 0.099399 0.745123
O O13 0.283745 0.000000 0.750000
O O14 0.275783 0.056472 0.000000
O O15 0.844531 0.500000 0.750000
O O16 0.833349 0.611086 0.740009
O O17 0.845579 0.558997 0.000000
O O18 0.663647 0.336354 0.000000
O O19 0.669129 0.155985 0.000000
#
# Coordination Sequence:
#
# PCOD8316671 Si02
#       7
#    16   8  16  16  16   8  16
#     4  10  20  33  50  74 103 140 183 224 269 323
#     4   9  20  33  49  79 116 148 178 216 271 327
#     4   9  19  35  53  75 105 139 179 226 274 324
#     4  10  21  38  58  80 107 144 186 228 273 325
#     4  10  20  34  53  79 110 145 182 222 268 321
#     4  11  19  33  53  74 108 145 177 222 270 323
#     4  11  21  36  56  82 114 148 183 225 272 325
#
# _framework density 17.973545999999999
#
# number of rings (size 3 to 8) (size 9 to 14) (size 15 to 20)
#    0.000    2.000    1.667    2.250    1.167    2.500 
#    0.000    2.083    0.000    0.750    0.000    5.250 
#    0.000    0.000    0.000    0.000    0.000    0.000 
#
# Total GULP energy -1189834.355870 kJ/mol
# GULP energy per Si atom -12394.107874 kJ/mol
# Density = 1.793264 g / cm^3
# Si number density = 17.973546 Si / 1000 Ang^3
#
#
#
# Elastic Constant Matrix: (Units=GPa)
#
#
# Indices 1 2 3 4 5 6 
#
# 1 88.4207 44.1404 35.7152 0.0000 0.0000 0.0000
# 2 44.1404 88.4210 35.7153 0.0000 0.0000 0.0000
# 3 35.7152 35.7153 83.3817 0.0000 0.0000 0.0000
# 4 0.0000 0.0000 0.0000 29.7528 0.0000 0.0000
# 5 0.0000 0.0000 0.0000 0.0000 29.7527 0.0000
# 6 0.0000 0.0000 0.0000 0.0000 0.0000 16.2200
#
#
#
# Elastic Compliance Matrix: (Units=1/GPa)
#
#
# Indices 1 2 3 4 5 6 
#
# 1 0.016195 -0.006388 -0.004201 0.000000 0.000000 0.000000
# 2 -0.006388 0.016195 -0.004201 0.000000 0.000000 0.000000
# 3 -0.004201 -0.004201 0.015592 0.000000 0.000000 0.000000
# 4 0.000000 0.000000 0.000000 0.033610 0.000000 0.000000
# 5 0.000000 0.000000 0.000000 0.000000 0.033610 0.000000
# 6 0.000000 0.000000 0.000000 0.000000 0.000000 0.061652
#
#
# Mechanical properties :
#
#
# Convention : Reuss Voigt Hill
#
# Bulk Modulus (GPa) = 54.33866 54.59613 54.46739
# Shear Modulus (GPa) = 23.52178 24.78860 24.15519
#
# Velocity S-wave (km/s) = 3.62151 3.71775 3.66994
# Velocity P-wave (km/s) = 6.91269 6.99075 6.95183
#
# Compressibility (1/GPa) = 0.01840311
#
# Stress axis : x y z
#
# Youngs Moduli (GPa) = 61.74628 61.74640 64.13660
#
# Poissons Ratio (x) = 0.39444 0.26942
# Poissons Ratio (y) = 0.39444 0.26943
# Poissons Ratio (z) = 0.25938 0.25938
#
# Static dielectric constant tensor:
#      x y z
#    x 3.318340 0.000000 0.000000 
#    y 0.000000 3.318350 0.000000 
#    z 0.000000 0.000000 3.461380 
# 
# 
# High freq. dielectric constant tensor:
#      x y z
#    x 1.687600 0.000000 0.000000 
#    y 0.000000 1.687600 0.000000 
#    z 0.000000 0.000000 1.703280 
# 
# From -- ./inp_files/1818.got.cif
#   From: 2010.03.12/outbox.cif.g09.slc.cpg/sg132_1_cif.got.tgz:1818.got - 2010.04.06 17:53:44.
