data_PCOD8316318
_publ_section_title
;
Structure prediction by ZEFSAII (Michael W. Deem and Ramdas Pophale) SiO2 
 PCOD8316318
Probable space group: P 42/M M C
;
_chemical_formula_sum "Si O2"
_cell_formula_units_Z 64
_cell_length_a 14.618209
_cell_length_b 14.618209
_cell_length_c 18.119230
_cell_angle_alpha 90.000000
_cell_angle_beta 90.000000
_cell_angle_gamma 90.000000
_cell_volume 3871.935120
_symmetry_space_group_name_H-M "P 42/M M C"
_symmetry_group_IT_number 131
_symmetry_cell_setting 'tetragonal'
loop_
_space_group_symop_operation_xyz
x,y,z
-x,-y,z
-y,x,1/2+z
y,-x,1/2+z
-x,y,-z
x,-y,-z
y,x,1/2-z
-y,-x,1/2-z
-x,-y,-z
x,y,-z
y,-x,1/2-z
-y,x,1/2-z
x,-y,z
-x,y,z
-y,-x,1/2+z
y,x,1/2+z
loop_
_atom_site_type_symbol
_atom_site_label
_atom_site_fract_x
_atom_site_fract_y
_atom_site_fract_z
Si Si1 0.107170 0.000000 0.579738
Si Si2 0.898022 0.500000 0.586574
Si Si3 0.218994 0.672605 0.412230
Si Si4 0.890149 0.173158 0.671725
Si Si5 0.606570 0.604152 0.836013
O O1 0.138065 0.087141 0.624030
O O2 0.156075 0.000000 0.500000
O O3 0.000000 0.000000 0.568738
O O4 0.911725 0.500000 0.500000
O O5 0.838046 0.584742 0.611959
O O6 0.000000 0.500000 0.623278
O O7 0.218990 0.690373 0.500000
O O8 0.162403 0.747558 0.369202
O O9 0.323975 0.664681 0.384588
O O10 0.844454 0.155547 0.750000
O O11 0.000000 0.189442 0.676559
O O12 0.624054 0.624054 0.750000
O O13 0.637714 0.500000 0.855134
O O14 0.500000 0.615359 0.855494
#
# Coordination Sequence:
#
# PCOD8316318 Si02
#       5
#     8   8  16  16  16
#     4   9  18  32  52  76 103 135 172 219 270 320
#     4   9  18  32  47  69 107 147 176 217 275 331
#     4  11  21  33  52  81 113 145 183 227 277 333
#     4  11  21  35  55  78 107 142 181 225 274 330
#     4   9  18  34  55  79 110 147 184 226 274 324
#
# _framework density 16.529202999999999
#
# number of rings (size 3 to 8) (size 9 to 14) (size 15 to 20)
#    0.000    2.000    2.500    3.000    0.000    3.000 
#    0.000    1.250    0.000    0.000    0.000    0.875 
#    0.000    3.000    0.000    0.000    0.000    0.000 
#
# Total GULP energy -793100.578264 kJ/mol
# GULP energy per Si atom -12392.196535 kJ/mol
# Density = 1.649158 g / cm^3
# Si number density = 16.529203 Si / 1000 Ang^3
#
#
#
# Elastic Constant Matrix: (Units=GPa)
#
#
# Indices 1 2 3 4 5 6 
#
# 1 121.0039 62.4224 60.6581 0.0000 0.0000 0.0000
# 2 62.4224 121.0037 60.6582 0.0000 0.0000 0.0000
# 3 60.6581 60.6582 120.4265 0.0000 0.0000 0.0000
# 4 0.0000 0.0000 0.0000 25.6526 0.0000 0.0000
# 5 0.0000 0.0000 0.0000 0.0000 25.6576 0.0000
# 6 0.0000 0.0000 0.0000 0.0000 0.0000 15.1957
#
#
#
# Elastic Compliance Matrix: (Units=1/GPa)
#
#
# Indices 1 2 3 4 5 6 
#
# 1 0.012623 -0.004447 -0.004118 0.000000 0.000000 0.000000
# 2 -0.004447 0.012623 -0.004118 0.000000 0.000000 0.000000
# 3 -0.004118 -0.004118 0.012452 0.000000 0.000000 0.000000
# 4 0.000000 0.000000 0.000000 0.038982 0.000000 0.000000
# 5 0.000000 0.000000 0.000000 0.000000 0.038975 0.000000
# 6 0.000000 0.000000 0.000000 0.000000 0.000000 0.065808
#
#
# Mechanical properties :
#
#
# Convention : Reuss Voigt Hill
#
# Bulk Modulus (GPa) = 81.09459 81.10130 81.09795
# Shear Modulus (GPa) = 23.70348 25.21422 24.45885
#
# Velocity S-wave (km/s) = 3.79098 3.90992 3.85091
# Velocity P-wave (km/s) = 8.26619 8.33998 8.30317
#
# Compressibility (1/GPa) = 0.01233128
#
# Stress axis : x y z
#
# Youngs Moduli (GPa) = 79.22200 79.22175 80.30781
#
# Poissons Ratio (x) = 0.35234 0.33069
# Poissons Ratio (y) = 0.35234 0.33070
# Poissons Ratio (z) = 0.32622 0.32622
#
# Static dielectric constant tensor:
#      x y z
#    x 2.985270 0.000000 0.000000 
#    y 0.000000 2.985270 0.000000 
#    z 0.000000 0.000000 3.281720 
# 
# 
# High freq. dielectric constant tensor:
#      x y z
#    x 1.633050 0.000000 0.000000 
#    y 0.000000 1.633050 0.000000 
#    z 0.000000 0.000000 1.636560 
# 
# From -- ./inp_files/7368.got.cif
#   From: 2010.03.12/outbox.cif.g09.slc.cpg/sg131_4_cif.got.tgz:7368.got - 2010.04.06 17:36:35.
