data_PCOD8316837
_publ_section_title
;
Structure prediction by ZEFSAII (Michael W. Deem and Ramdas Pophale) SiO2 
 PCOD8316837
Probable space group: P 42/M C M
;
_chemical_formula_sum "Si O2"
_cell_formula_units_Z 64
_cell_length_a 13.180702
_cell_length_b 13.180702
_cell_length_c 19.876050
_cell_angle_alpha 90.000000
_cell_angle_beta 90.000000
_cell_angle_gamma 90.000000
_cell_volume 3453.084159
_symmetry_space_group_name_H-M "P 42/M C M"
_symmetry_group_IT_number 132
_symmetry_cell_setting 'tetragonal'
loop_
_space_group_symop_operation_xyz
x,y,z
-y,x,1/2+z
-x,-y,z
y,-x,1/2+z
x,-y,1/2-z
-x,y,1/2-z
y,x,-z
-y,-x,-z
-x,-y,-z
y,-x,1/2-z
x,y,-z
-y,x,1/2-z
-x,y,1/2+z
x,-y,1/2+z
-y,-x,z
y,x,z
loop_
_atom_site_type_symbol
_atom_site_label
_atom_site_fract_x
_atom_site_fract_y
_atom_site_fract_z
Si Si1 0.456535 0.707869 0.426296
Si Si2 0.126260 0.289803 0.078091
Si Si3 0.027871 0.615320 0.174134
Si Si4 0.252951 0.586472 0.194485
O O1 0.504585 0.729682 0.500000
O O2 0.395849 0.604152 0.429928
O O3 0.383029 0.799753 0.405385
O O4 0.542272 0.692555 0.371050
O O5 0.184160 0.184160 0.095119
O O6 0.027399 0.304817 0.124568
O O7 0.093712 0.290462 0.000000
O O8 0.147791 0.633392 0.168707
O O9 0.000000 0.500000 0.154052
O O10 0.000000 0.641287 0.250000
O O11 0.233239 0.500000 0.250000
O O12 0.325444 0.674557 0.224726
#
# Coordination Sequence:
#
# PCOD8316837 Si02
#       4
#    16  16  16  16
#     4   9  18  33  52  76 108 146 186 225 272 336
#     4   9  18  34  60  89 114 148 194 243 295 348
#     4  11  20  36  56  81 113 147 191 239 291 336
#     4  12  24  37  54  80 113 150 190 229 280 345
#
# _framework density 18.534157
#
# number of rings (size 3 to 8) (size 9 to 14) (size 15 to 20)
#    0.000    1.750    5.000    2.250    0.000    6.750 
#    0.000    1.250    0.000    0.750    0.000    3.500 
#    0.000    0.000    0.000    0.000    0.000    0.000 
#
# Total GULP energy -793499.060196 kJ/mol
# GULP energy per Si atom -12398.422816 kJ/mol
# Density = 1.849197 g / cm^3
# Si number density = 18.534157 Si / 1000 Ang^3
#
#
#
# Elastic Constant Matrix: (Units=GPa)
#
#
# Indices 1 2 3 4 5 6 
#
# 1 85.4875 49.1573 43.3267 0.0000 0.0000 0.0000
# 2 49.1573 85.4875 43.3267 0.0000 0.0000 0.0000
# 3 43.3267 43.3267 101.5229 0.0000 0.0000 0.0000
# 4 0.0000 0.0000 0.0000 19.5986 0.0000 0.0000
# 5 0.0000 0.0000 0.0000 0.0000 19.5986 0.0000
# 6 0.0000 0.0000 0.0000 0.0000 0.0000 22.1697
#
#
#
# Elastic Compliance Matrix: (Units=1/GPa)
#
#
# Indices 1 2 3 4 5 6 
#
# 1 0.018882 -0.008643 -0.004370 0.000000 0.000000 0.000000
# 2 -0.008643 0.018882 -0.004370 0.000000 0.000000 0.000000
# 3 -0.004370 -0.004370 0.013580 0.000000 0.000000 0.000000
# 4 0.000000 0.000000 0.000000 0.051024 0.000000 0.000000
# 5 0.000000 0.000000 0.000000 0.000000 0.051024 0.000000
# 6 0.000000 0.000000 0.000000 0.000000 0.000000 0.045107
#
#
# Mechanical properties :
#
#
# Convention : Reuss Voigt Hill
#
# Bulk Modulus (GPa) = 60.31691 60.45769 60.38730
# Shear Modulus (GPa) = 20.93885 21.38586 21.16235
#
# Velocity S-wave (km/s) = 3.36481 3.40054 3.38272
# Velocity P-wave (km/s) = 6.90726 6.93604 6.92167
#
# Compressibility (1/GPa) = 0.01657910
#
# Stress axis : x y z
#
# Youngs Moduli (GPa) = 52.95972 52.95972 73.63914
#
# Poissons Ratio (x) = 0.45774 0.32179
# Poissons Ratio (y) = 0.45774 0.32179
# Poissons Ratio (z) = 0.23142 0.23142
#
# Static dielectric constant tensor:
#      x y z
#    x 3.235620 0.000000 0.000000 
#    y 0.000000 3.235620 0.000000 
#    z 0.000000 0.000000 3.529090 
# 
# 
# High freq. dielectric constant tensor:
#      x y z
#    x 1.693880 0.000000 0.000000 
#    y 0.000000 1.693880 0.000000 
#    z 0.000000 0.000000 1.731420 
# 
# From -- ./inp_files/7430.got.cif
#   From: 2010.03.12/outbox.cif.g09.slc.cpg/sg132_4_cif.got.tgz:7430.got - 2010.04.06 17:53:44.
