data_PCOD8316887
_publ_section_title
;
Structure prediction by ZEFSAII (Michael W. Deem and Ramdas Pophale) SiO2 
 PCOD8316887
Probable space group: P 42/N B C
;
_chemical_formula_sum "Si O2"
_cell_formula_units_Z 128
_cell_length_a 21.857993
_cell_length_b 21.857993
_cell_length_c 14.780756
_cell_angle_alpha 90.000000
_cell_angle_beta 90.000000
_cell_angle_gamma 90.000000
_cell_volume 7061.829257
_symmetry_space_group_name_H-M "P 42/N B C"
_symmetry_group_IT_number 133
_space_group.IT_coordinate_system_code '2'
_symmetry_cell_setting 'tetragonal'
loop_
_space_group_symop_operation_xyz
x,y,z
1/2-y,x,1/2+z
1/2-x,1/2-y,z
y,1/2-x,1/2+z
x,1/2-y,-z
1/2-x,y,-z
y,x,1/2-z
1/2-y,1/2-x,1/2-z
-x,-y,-z
1/2+y,-x,1/2-z
1/2+x,1/2+y,-z
-y,1/2+x,1/2-z
-x,1/2+y,z
1/2+x,-y,z
-y,-x,1/2+z
1/2+y,1/2+x,1/2+z
loop_
_atom_site_type_symbol
_atom_site_label
_atom_site_fract_x
_atom_site_fract_y
_atom_site_fract_z
Si Si1 0.470788 0.311314 0.456070
Si Si2 0.396910 0.792791 0.392208
Si Si3 0.630667 0.963826 0.221999
Si Si4 0.888256 0.159599 0.642437
Si Si5 0.504188 0.086076 0.433614
Si Si6 0.938752 0.199940 0.184499
Si Si7 0.535247 0.451736 0.883846
Si Si8 0.829340 0.406827 0.652845
O O1 0.443221 0.250000 0.500000
O O2 0.545331 0.310131 0.454782
O O3 0.445525 0.319407 0.354462
O O4 0.453500 0.370007 0.518254
O O5 0.375590 0.722631 0.415012
O O6 0.418529 0.794739 0.288498
O O7 0.345338 0.845760 0.407717
O O8 0.599086 0.900915 0.250000
O O9 0.664252 0.995743 0.308604
O O10 0.580238 0.009426 0.179690
O O11 0.954818 0.130642 0.627423
O O12 0.837693 0.108308 0.621466
O O13 0.881769 0.177267 0.746395
O O14 0.543302 0.051535 0.510368
O O15 0.472506 0.035206 0.369537
O O16 0.940771 0.264975 0.132094
O O17 0.541684 0.381093 0.856861
#
# Coordination Sequence:
#
# PCOD8316887 Si02
#       8
#    16  16  16  16  16  16  16  16
#     4  10  17  31  49  73  99 131 164 208 254 309
#     4   9  16  28  46  64  95 132 165 211 244 281
#     4  10  18  32  49  72 101 132 171 212 266 312
#     4  10  17  28  46  67  90 131 174 205 247 290
#     4  10  19  28  48  70  93 131 164 203 262 310
#     4   9  18  29  44  68  91 134 174 210 251 295
#     4  10  19  31  45  70 100 127 162 211 260 311
#     4  10  18  31  44  64 100 129 170 212 249 292
#
# _framework density 18.125615
#
# number of rings (size 3 to 8) (size 9 to 14) (size 15 to 20)
#    0.000    2.250    6.250    0.750    0.000    0.500 
#    0.000    3.125    0.000    0.000    0.000    0.000 
#    0.000    3.000    0.000    0.125    0.000    0.000 
#
# Total GULP energy -1585907.880732 kJ/mol
# GULP energy per Si atom -12389.905318 kJ/mol
# Density = 1.808436 g / cm^3
# Si number density = 18.125615 Si / 1000 Ang^3
#
#
#
# Elastic Constant Matrix: (Units=GPa)
#
#
# Indices 1 2 3 4 5 6 
#
# 1 98.1682 55.0481 19.2043 0.0000 0.0000 0.0000
# 2 55.0481 98.1699 19.2045 0.0000 0.0000 0.0000
# 3 19.2043 19.2045 18.2399 0.0000 0.0000 0.0000
# 4 0.0000 0.0000 0.0000 21.8461 0.0000 0.0000
# 5 0.0000 0.0000 0.0000 0.0000 21.8462 0.0000
# 6 0.0000 0.0000 0.0000 0.0000 0.0000 25.5888
#
#
#
# Elastic Compliance Matrix: (Units=1/GPa)
#
#
# Indices 1 2 3 4 5 6 
#
# 1 0.016029 -0.007162 -0.009336 0.000000 0.000000 0.000000
# 2 -0.007162 0.016029 -0.009336 0.000000 0.000000 0.000000
# 3 -0.009336 -0.009336 0.074484 0.000000 0.000000 0.000000
# 4 0.000000 0.000000 0.000000 0.045775 0.000000 0.000000
# 5 0.000000 0.000000 0.000000 0.000000 0.045774 0.000000
# 6 0.000000 0.000000 0.000000 0.000000 0.000000 0.039080
#
#
# Mechanical properties :
#
#
# Convention : Reuss Voigt Hill
#
# Bulk Modulus (GPa) = 18.22337 44.61021 31.41679
# Shear Modulus (GPa) = 16.27977 21.93096 19.10536
#
# Velocity S-wave (km/s) = 3.00019 3.48220 3.25014
# Velocity P-wave (km/s) = 4.69865 6.39005 5.60848
#
# Compressibility (1/GPa) = 0.05487460
#
# Stress axis : x y z
#
# Youngs Moduli (GPa) = 62.38719 62.38825 13.42564
#
# Poissons Ratio (x) = 0.44681 0.12534
# Poissons Ratio (y) = 0.44680 0.12534
# Poissons Ratio (z) = 0.58245 0.58245
#
# Static dielectric constant tensor:
#      x y z
#    x 3.448990 0.000000 0.000000 
#    y 0.000000 3.448990 0.000000 
#    z 0.000000 0.000000 3.394020 
# 
# 
# High freq. dielectric constant tensor:
#      x y z
#    x 1.671820 0.000000 0.000000 
#    y 0.000000 1.671820 0.000000 
#    z 0.000000 0.000000 1.698120 
# 
# From -- ./inp_files/5748.got.cif
#   From: 2010.03.12/outbox.cif.g09.slc.cpg/sg133_3_cif.got.tgz:5748.got - 2010.04.06 18:08:06.
