data_PCOD8316644
_publ_section_title
;
Structure prediction by ZEFSAII (Michael W. Deem and Ramdas Pophale) SiO2 
 PCOD8316644
Probable space group: P 42/M C M
;
_chemical_formula_sum "Si O2"
_cell_formula_units_Z 88
_cell_length_a 16.038188
_cell_length_b 16.038188
_cell_length_c 20.110410
_cell_angle_alpha 90.000000
_cell_angle_beta 90.000000
_cell_angle_gamma 90.000000
_cell_volume 5172.869530
_symmetry_space_group_name_H-M "P 42/M C M"
_symmetry_group_IT_number 132
_symmetry_cell_setting 'tetragonal'
loop_
_space_group_symop_operation_xyz
x,y,z
-y,x,1/2+z
-x,-y,z
y,-x,1/2+z
x,-y,1/2-z
-x,y,1/2-z
y,x,-z
-y,-x,-z
-x,-y,-z
y,-x,1/2-z
x,y,-z
-y,x,1/2-z
-x,y,1/2+z
x,-y,1/2+z
-y,-x,z
y,x,z
loop_
_atom_site_type_symbol
_atom_site_label
_atom_site_fract_x
_atom_site_fract_y
_atom_site_fract_z
Si Si1 0.924818 0.386032 0.424929
Si Si2 0.173417 0.696611 0.822308
Si Si3 0.882166 0.256556 0.316215
Si Si4 0.865257 0.005041 0.500000
Si Si5 0.885244 0.427093 0.076030
Si Si6 0.958301 0.826066 0.640064
O O1 0.913411 0.354334 0.500000
O O2 0.883045 0.318687 0.377678
O O3 0.877995 0.473878 0.415405
O O4 0.021706 0.396668 0.407720
O O5 0.267924 0.732077 0.816633
O O6 0.131337 0.686334 0.749497
O O7 0.174686 0.613584 0.867780
O O8 0.118087 0.763937 0.860043
O O9 0.805196 0.194805 0.323854
O O10 0.966727 0.200078 0.309887
O O11 0.902894 0.097107 0.500000
O O12 0.812019 0.996397 0.433316
O O13 0.936043 0.936043 0.500000
O O14 0.860280 0.402351 0.000000
O O15 0.920295 0.920295 0.653465
#
# Coordination Sequence:
#
# PCOD8316644 Si02
#       6
#    16  16  16   8  16  16
#     4   9  19  34  52  73  92 120 162 203 249 295
#     4  10  21  33  47  71  97 125 162 201 245 289
#     4  11  22  33  47  69  99 130 165 204 241 289
#     4   9  18  30  42  58  77 108 162 212 243 276
#     4   9  18  34  54  72  92 119 159 208 249 295
#     4  10  20  32  45  62  90 128 170 210 242 277
#
# _framework density 17.011835000000001
#
# number of rings (size 3 to 8) (size 9 to 14) (size 15 to 20)
#    0.000    2.273    1.818    2.182    2.545    2.545 
#    0.000    2.727    0.000    6.545    0.000    0.000 
#    0.000    0.727    0.000    8.000    0.000    5.818 
#
# Total GULP energy -1090497.160499 kJ/mol
# GULP energy per Si atom -12392.013187 kJ/mol
# Density = 1.697312 g / cm^3
# Si number density = 17.011835 Si / 1000 Ang^3
#
#
#
# Elastic Constant Matrix: (Units=GPa)
#
#
# Indices 1 2 3 4 5 6 
#
# 1 50.2500 17.2736 38.7750 0.0000 0.0000 0.0000
# 2 17.2736 50.2500 38.7750 0.0000 0.0000 0.0000
# 3 38.7750 38.7750 111.3572 0.0000 0.0000 0.0000
# 4 0.0000 0.0000 0.0000 27.1018 0.0000 0.0000
# 5 0.0000 0.0000 0.0000 0.0000 27.1015 0.0000
# 6 0.0000 0.0000 0.0000 0.0000 0.0000 13.1168
#
#
#
# Elastic Compliance Matrix: (Units=1/GPa)
#
#
# Indices 1 2 3 4 5 6 
#
# 1 0.027502 -0.002823 -0.008593 0.000000 0.000000 0.000000
# 2 -0.002823 0.027502 -0.008593 0.000000 0.000000 0.000000
# 3 -0.008593 -0.008593 0.014965 0.000000 0.000000 0.000000
# 4 0.000000 0.000000 0.000000 0.036898 0.000000 0.000000
# 5 0.000000 0.000000 0.000000 0.000000 0.036898 0.000000
# 6 0.000000 0.000000 0.000000 0.000000 0.000000 0.076238
#
#
# Mechanical properties :
#
#
# Convention : Reuss Voigt Hill
#
# Bulk Modulus (GPa) = 33.38988 44.61163 39.00075
# Shear Modulus (GPa) = 18.51819 21.26624 19.89222
#
# Velocity S-wave (km/s) = 3.30289 3.53949 3.42324
# Velocity P-wave (km/s) = 5.84940 6.55628 6.21290
#
# Compressibility (1/GPa) = 0.02994920
#
# Stress axis : x y z
#
# Youngs Moduli (GPa) = 36.36121 36.36123 66.82453
#
# Poissons Ratio (x) = 0.10264 0.57424
# Poissons Ratio (y) = 0.10264 0.57424
# Poissons Ratio (z) = 0.31246 0.31246
#
# Static dielectric constant tensor:
#      x y z
#    x 3.046340 0.000000 0.000000 
#    y 0.000000 3.046340 0.000000 
#    z 0.000000 0.000000 3.450690 
# 
# 
# High freq. dielectric constant tensor:
#      x y z
#    x 1.622670 0.000000 0.000000 
#    y 0.000000 1.622670 0.000000 
#    z 0.000000 0.000000 1.673830 
# 
# From -- ./inp_files/7742.got.cif
#   From: 2010.03.12/outbox.cif.g09.slc.cpg/sg132_4_cif.got.tgz:7742.got - 2010.04.06 17:53:44.
