data_PCOD8316674
_publ_section_title
;
Structure prediction by ZEFSAII (Michael W. Deem and Ramdas Pophale) SiO2 
 PCOD8316674
Probable space group: P 42/M C M
;
_chemical_formula_sum "Si O2"
_cell_formula_units_Z 96
_cell_length_a 24.541359
_cell_length_b 24.541359
_cell_length_c 8.759842
_cell_angle_alpha 90.000000
_cell_angle_beta 90.000000
_cell_angle_gamma 90.000000
_cell_volume 5275.862762
_symmetry_space_group_name_H-M "P 42/M C M"
_symmetry_group_IT_number 132
_symmetry_cell_setting 'tetragonal'
loop_
_space_group_symop_operation_xyz
x,y,z
-y,x,1/2+z
-x,-y,z
y,-x,1/2+z
x,-y,1/2-z
-x,y,1/2-z
y,x,-z
-y,-x,-z
-x,-y,-z
y,-x,1/2-z
x,y,-z
-y,x,1/2-z
-x,y,1/2+z
x,-y,1/2+z
-y,-x,z
y,x,z
loop_
_atom_site_type_symbol
_atom_site_label
_atom_site_fract_x
_atom_site_fract_y
_atom_site_fract_z
Si Si1 0.941783 0.549575 0.328225
Si Si2 0.245676 0.132067 0.178217
Si Si3 0.331726 0.058900 0.323442
Si Si4 0.558946 0.356202 0.825589
Si Si5 0.145061 0.059436 0.821545
Si Si6 0.247897 0.752104 0.820111
Si Si7 0.333272 0.666729 0.318647
O O1 0.907512 0.500000 0.250000
O O2 0.951084 0.532293 0.500000
O O3 0.913144 0.608405 0.315848
O O4 0.000000 0.554155 0.250000
O O5 0.295233 0.092749 0.209580
O O6 0.191215 0.101392 0.237885
O O7 0.259451 0.186143 0.271521
O O8 0.240193 0.146529 0.000000
O O9 0.311080 0.057094 0.500000
O O10 0.332574 0.000000 0.250000
O O11 0.500000 0.350928 0.750000
O O12 0.580926 0.419075 0.817151
O O13 0.605128 0.318772 0.741263
O O14 0.554236 0.336484 0.000000
O O15 0.086233 0.086233 0.782617
O O16 0.150389 0.000000 0.750000
O O17 0.152991 0.051292 0.000000
O O18 0.289689 0.710312 0.741835
O O19 0.254491 0.745510 0.000000
O O20 0.332398 0.667603 0.500000
#
# Coordination Sequence:
#
# PCOD8316674 Si02
#       7
#    16  16  16  16  16   8   8
#     4   9  16  26  43  67 100 136 174 213 256 313
#     4  11  22  39  60  82 110 143 182 231 284 334
#     4  10  20  33  50  79 112 144 180 224 277 330
#     4   9  18  31  50  80 119 159 204 251 300 355
#     4  10  22  40  59  83 116 148 183 225 267 324
#     4  12  24  40  62  85 110 139 184 236 284 344
#     4  10  20  36  57  81 112 151 195 241 295 349
#
# _framework density 18.196075
#
# number of rings (size 3 to 8) (size 9 to 14) (size 15 to 20)
#    0.500    1.500    0.833    4.250    0.000    5.333 
#    0.000    1.667    0.000    1.000    0.000    4.667 
#    0.000    0.000    0.000    0.000    0.000    0.000 
#
# Total GULP energy -1189286.573658 kJ/mol
# GULP energy per Si atom -12388.401809 kJ/mol
# Density = 1.815466 g / cm^3
# Si number density = 18.196075 Si / 1000 Ang^3
#
#
#
# Elastic Constant Matrix: (Units=GPa)
#
#
# Indices 1 2 3 4 5 6 
#
# 1 103.4616 60.1494 45.7477 0.0000 0.0000 0.0000
# 2 60.1494 103.4616 45.7477 0.0000 0.0000 0.0000
# 3 45.7477 45.7477 120.0159 0.0000 0.0000 0.0000
# 4 0.0000 0.0000 0.0000 29.7889 0.0000 0.0000
# 5 0.0000 0.0000 0.0000 0.0000 29.7888 0.0000
# 6 0.0000 0.0000 0.0000 0.0000 0.0000 24.9622
#
#
#
# Elastic Compliance Matrix: (Units=1/GPa)
#
#
# Indices 1 2 3 4 5 6 
#
# 1 0.015428 -0.007660 -0.002961 0.000000 0.000000 0.000000
# 2 -0.007660 0.015428 -0.002961 0.000000 0.000000 0.000000
# 3 -0.002961 -0.002961 0.010590 0.000000 0.000000 0.000000
# 4 0.000000 0.000000 0.000000 0.033570 0.000000 0.000000
# 5 0.000000 0.000000 0.000000 0.000000 0.033570 0.000000
# 6 0.000000 0.000000 0.000000 0.000000 0.000000 0.040061
#
#
# Mechanical properties :
#
#
# Convention : Reuss Voigt Hill
#
# Bulk Modulus (GPa) = 70.02075 70.02541 70.02308
# Shear Modulus (GPa) = 27.69009 28.59428 28.14219
#
# Velocity S-wave (km/s) = 3.90521 3.96846 3.93696
# Velocity P-wave (km/s) = 7.67457 7.71787 7.69625
#
# Compressibility (1/GPa) = 0.01428148
#
# Stress axis : x y z
#
# Youngs Moduli (GPa) = 64.81704 64.81700 94.43265
#
# Poissons Ratio (x) = 0.49651 0.27961
# Poissons Ratio (y) = 0.49651 0.27961
# Poissons Ratio (z) = 0.19192 0.19192
#
# Static dielectric constant tensor:
#      x y z
#    x 3.585140 0.000000 0.000000 
#    y 0.000000 3.585150 0.000000 
#    z 0.000000 0.000000 3.472120 
# 
# 
# High freq. dielectric constant tensor:
#      x y z
#    x 1.691620 0.000000 0.000000 
#    y 0.000000 1.691620 0.000000 
#    z 0.000000 0.000000 1.719950 
# 
# From -- ./inp_files/1821.got.cif
#   From: 2010.03.12/outbox.cif.g09.slc.cpg/sg132_1_cif.got.tgz:1821.got - 2010.04.06 17:53:44.
