data_PCOD8316455
_publ_section_title
;
Structure prediction by ZEFSAII (Michael W. Deem and Ramdas Pophale) SiO2 
 PCOD8316455
Probable space group: P 42/M C M
;
_chemical_formula_sum "Si O2"
_cell_formula_units_Z 40
_cell_length_a 10.207640
_cell_length_b 10.207640
_cell_length_c 20.900872
_cell_angle_alpha 90.000000
_cell_angle_beta 90.000000
_cell_angle_gamma 90.000000
_cell_volume 2177.785469
_symmetry_space_group_name_H-M "P 42/M C M"
_symmetry_group_IT_number 132
_symmetry_cell_setting 'tetragonal'
loop_
_space_group_symop_operation_xyz
x,y,z
-y,x,1/2+z
-x,-y,z
y,-x,1/2+z
x,-y,1/2-z
-x,y,1/2-z
y,x,-z
-y,-x,-z
-x,-y,-z
y,-x,1/2-z
x,y,-z
-y,x,1/2-z
-x,y,1/2+z
x,-y,1/2+z
-y,-x,z
y,x,z
loop_
_atom_site_type_symbol
_atom_site_label
_atom_site_fract_x
_atom_site_fract_y
_atom_site_fract_z
Si Si1 0.714285 0.494337 0.929736
Si Si2 0.814631 0.601816 0.806996
Si Si3 0.205649 0.000000 0.750000
O O1 0.643051 0.356950 0.913640
O O2 0.608146 0.608146 0.931419
O O3 0.820678 0.525641 0.874722
O O4 0.782266 0.486086 0.000000
O O5 0.830095 0.500000 0.750000
O O6 0.676585 0.676585 0.798678
O O7 0.936018 0.703826 0.805179
O O8 0.113642 0.113642 0.718966
#
# Coordination Sequence:
#
# PCOD8316455 Si02
#       3
#    16  16   8
#     4   8  14  25  42  68 103 134 152 174 224 294
#     4  10  18  28  47  73  98 122 152 193 237 284
#     4   9  19  34  48  62  85 123 168 208 240 269
#
# _framework density 18.367281999999999
#
# number of rings (size 3 to 8) (size 9 to 14) (size 15 to 20)
#    0.000    3.000    0.000    3.000    0.000    2.000 
#    0.000    0.000    0.000    6.000    0.000   14.000 
#    0.000    0.000    0.000    0.000    0.000    0.000 
#
# Total GULP energy -495587.123392 kJ/mol
# GULP energy per Si atom -12389.678085 kJ/mol
# Density = 1.832548 g / cm^3
# Si number density = 18.367282 Si / 1000 Ang^3
#
#
#
# Elastic Constant Matrix: (Units=GPa)
#
#
# Indices 1 2 3 4 5 6 
#
# 1 79.2843 44.9497 64.7770 0.0000 0.0000 0.0000
# 2 44.9497 79.2843 64.7770 0.0000 0.0000 0.0000
# 3 64.7770 64.7770 163.8183 0.0000 0.0000 0.0000
# 4 0.0000 0.0000 0.0000 7.8183 0.0000 0.0000
# 5 0.0000 0.0000 0.0000 0.0000 7.8183 0.0000
# 6 0.0000 0.0000 0.0000 0.0000 0.0000 22.1823
#
#
#
# Elastic Compliance Matrix: (Units=1/GPa)
#
#
# Indices 1 2 3 4 5 6 
#
# 1 0.021411 -0.007714 -0.005416 0.000000 0.000000 0.000000
# 2 -0.007714 0.021411 -0.005416 0.000000 0.000000 0.000000
# 3 -0.005416 -0.005416 0.010388 0.000000 0.000000 0.000000
# 4 0.000000 0.000000 0.000000 0.127904 0.000000 0.000000
# 5 0.000000 0.000000 0.000000 0.000000 0.127904 0.000000
# 6 0.000000 0.000000 0.000000 0.000000 0.000000 0.045081
#
#
# Mechanical properties :
#
#
# Convention : Reuss Voigt Hill
#
# Bulk Modulus (GPa) = 62.04354 74.59934 68.32144
# Shear Modulus (GPa) = 12.60826 17.42268 15.01547
#
# Velocity S-wave (km/s) = 2.62287 3.08323 2.86232
# Velocity P-wave (km/s) = 6.55937 7.30606 6.94276
#
# Compressibility (1/GPa) = 0.01611771
#
# Stress axis : x y z
#
# Youngs Moduli (GPa) = 46.70420 46.70420 96.26734
#
# Poissons Ratio (x) = 0.36027 0.52141
# Poissons Ratio (y) = 0.36027 0.52141
# Poissons Ratio (z) = 0.25296 0.25296
#
# Static dielectric constant tensor:
#      x y z
#    x 3.418400 0.000000 0.000000 
#    y 0.000000 3.418400 0.000000 
#    z 0.000000 0.000000 3.715010 
# 
# 
# High freq. dielectric constant tensor:
#      x y z
#    x 1.698650 0.000000 0.000000 
#    y 0.000000 1.698650 0.000000 
#    z 0.000000 0.000000 1.691920 
# 
# From -- ./inp_files/5537.got.cif
#   From: 2010.03.12/outbox.cif.g09.slc.cpg/sg132_3_cif.got.tgz:5537.got - 2010.04.06 17:53:44.
