data_PCOD8316276
_publ_section_title
;
Structure prediction by ZEFSAII (Michael W. Deem and Ramdas Pophale) SiO2 
 PCOD8316276
Probable space group: P 42/M M C
;
_chemical_formula_sum "Si O2"
_cell_formula_units_Z 88
_cell_length_a 17.410876
_cell_length_b 17.410876
_cell_length_c 14.429696
_cell_angle_alpha 90.000000
_cell_angle_beta 90.000000
_cell_angle_gamma 90.000000
_cell_volume 4374.197888
_symmetry_space_group_name_H-M "P 42/M M C"
_symmetry_group_IT_number 131
_symmetry_cell_setting 'tetragonal'
loop_
_space_group_symop_operation_xyz
x,y,z
-x,-y,z
-y,x,1/2+z
y,-x,1/2+z
-x,y,-z
x,-y,-z
y,x,1/2-z
-y,-x,1/2-z
-x,-y,-z
x,y,-z
y,-x,1/2-z
-y,x,1/2-z
x,-y,z
-x,y,z
-y,-x,1/2+z
y,x,1/2+z
loop_
_atom_site_type_symbol
_atom_site_label
_atom_site_fract_x
_atom_site_fract_y
_atom_site_fract_z
Si Si1 0.812965 0.148215 0.850513
Si Si2 0.913312 0.000000 0.108793
Si Si3 0.711724 0.413480 0.895018
Si Si4 0.690210 0.144785 0.397809
Si Si5 0.587044 0.412957 0.250000
Si Si6 0.091403 0.500000 0.392660
Si Si7 0.343793 0.087801 0.801667
O O1 0.817628 0.182373 0.750000
O O2 0.868703 0.075671 0.859975
O O3 0.839540 0.218859 0.914522
O O4 0.723580 0.126567 0.863334
O O5 0.000000 0.000000 0.150963
O O6 0.918481 0.000000 0.000000
O O7 0.740198 0.500000 0.871722
O O8 0.777812 0.353662 0.871886
O O9 0.638232 0.389090 0.836589
O O10 0.684615 0.407367 0.000000
O O11 0.662093 0.112936 0.500000
O O12 0.670575 0.090367 0.310329
O O13 0.500000 0.398787 0.218735
O O14 0.120158 0.500000 0.500000
O O15 0.123082 0.574860 0.336451
O O16 0.000000 0.500000 0.389949
O O17 0.341865 0.000000 0.830707
#
# Coordination Sequence:
#
# PCOD8316276 Si02
#       7
#    16   8  16  16   8   8  16
#     4  10  22  38  59  84 116 160 200 244 301 360
#     4  11  24  38  58  89 119 153 200 252 302 360
#     4   9  19  35  56  82 112 152 196 238 292 354
#     4  10  22  38  59  85 117 156 200 247 297 355
#     4   9  18  32  54  82 112 150 189 236 290 338
#     4   9  20  38  61  89 117 149 189 242 294 354
#     4  10  21  39  60  87 116 154 199 242 303 361
#
# _framework density 20.117975000000001
#
# number of rings (size 3 to 8) (size 9 to 14) (size 15 to 20)
#    0.000    2.273    0.909    0.545    6.364    2.909 
#    0.000    1.818    0.000    1.636    0.000    0.000 
#    0.000    0.000    0.000    0.000    0.000    0.000 
#
# Total GULP energy -1090440.306757 kJ/mol
# GULP energy per Si atom -12391.367122 kJ/mol
# Density = 2.007219 g / cm^3
# Si number density = 20.117975 Si / 1000 Ang^3
#
#
#
# Elastic Constant Matrix: (Units=GPa)
#
#
# Indices 1 2 3 4 5 6 
#
# 1 107.9820 39.5068 17.8918 0.0000 0.0000 0.0000
# 2 39.5068 107.9825 17.8909 0.0000 0.0000 0.0000
# 3 17.8918 17.8909 68.3622 0.0000 0.0000 0.0000
# 4 0.0000 0.0000 0.0000 24.5133 0.0000 0.0000
# 5 0.0000 0.0000 0.0000 0.0000 24.5130 0.0000
# 6 0.0000 0.0000 0.0000 0.0000 0.0000 28.5924
#
#
#
# Elastic Compliance Matrix: (Units=1/GPa)
#
#
# Indices 1 2 3 4 5 6 
#
# 1 0.010922 -0.003682 -0.001895 0.000000 0.000000 0.000000
# 2 -0.003682 0.010922 -0.001895 0.000000 0.000000 0.000000
# 3 -0.001895 -0.001895 0.015620 0.000000 0.000000 0.000000
# 4 0.000000 0.000000 0.000000 0.040794 0.000000 0.000000
# 5 0.000000 0.000000 0.000000 0.000000 0.040795 0.000000
# 6 0.000000 0.000000 0.000000 0.000000 0.000000 0.034974
#
#
# Mechanical properties :
#
#
# Convention : Reuss Voigt Hill
#
# Bulk Modulus (GPa) = 44.40427 48.32288 46.36358
# Shear Modulus (GPa) = 28.33239 29.45954 28.89597
#
# Velocity S-wave (km/s) = 3.75682 3.83082 3.79400
# Velocity P-wave (km/s) = 6.39829 6.60597 6.50296
#
# Compressibility (1/GPa) = 0.02252036
#
# Stress axis : x y z
#
# Youngs Moduli (GPa) = 91.55939 91.56025 64.02157
#
# Poissons Ratio (x) = 0.33712 0.12131
# Poissons Ratio (y) = 0.33712 0.12130
# Poissons Ratio (z) = 0.17349 0.17348
#
# Static dielectric constant tensor:
#      x y z
#    x 3.742870 0.000000 0.000000 
#    y 0.000000 3.742850 0.000000 
#    z 0.000000 0.000000 3.796580 
# 
# 
# High freq. dielectric constant tensor:
#      x y z
#    x 1.780080 0.000000 0.000000 
#    y 0.000000 1.780080 0.000000 
#    z 0.000000 0.000000 1.791300 
# 
# From -- ./inp_files/5944.got.cif
#   From: 2010.03.12/outbox.cif.g09.slc.cpg/sg131_3_cif.got.tgz:5944.got - 2010.04.06 17:36:35.
