data_PCOD8316248
_publ_section_title
;
Structure prediction by ZEFSAII (Michael W. Deem and Ramdas Pophale) SiO2 
 PCOD8316248
Probable space group: P 42/M M C
;
_chemical_formula_sum "Si O2"
_cell_formula_units_Z 120
_cell_length_a 14.230001
_cell_length_b 14.230001
_cell_length_c 29.058366
_cell_angle_alpha 90.000000
_cell_angle_beta 90.000000
_cell_angle_gamma 90.000000
_cell_volume 5884.113628
_symmetry_space_group_name_H-M "P 42/M M C"
_symmetry_group_IT_number 131
_symmetry_cell_setting 'tetragonal'
loop_
_space_group_symop_operation_xyz
x,y,z
-x,-y,z
-y,x,1/2+z
y,-x,1/2+z
-x,y,-z
x,-y,-z
y,x,1/2-z
-y,-x,1/2-z
-x,-y,-z
x,y,-z
y,-x,1/2-z
-y,x,1/2-z
x,-y,z
-x,y,z
-y,-x,1/2+z
y,x,1/2+z
loop_
_atom_site_type_symbol
_atom_site_label
_atom_site_fract_x
_atom_site_fract_y
_atom_site_fract_z
Si Si1 0.106037 0.889827 0.553361
Si Si2 0.196386 0.389275 0.819492
Si Si3 0.710885 0.199483 0.418085
Si Si4 0.109560 0.264761 0.254703
Si Si5 0.605799 0.892404 0.837883
Si Si6 0.889982 0.603082 0.000000
Si Si7 0.606101 0.400961 0.321088
Si Si8 0.737690 0.600285 0.592412
O O1 0.126128 0.865666 0.500000
O O2 0.181258 0.836418 0.585595
O O3 0.000000 0.858239 0.566794
O O4 0.117343 0.000000 0.561856
O O5 0.171001 0.500000 0.823042
O O6 0.192194 0.341922 0.869640
O O7 0.121869 0.335835 0.787949
O O8 0.300958 0.372955 0.796463
O O9 0.657270 0.136929 0.454321
O O10 0.710762 0.307853 0.437059
O O11 0.169864 0.169864 0.250000
O O12 0.144167 0.320162 0.300081
O O13 0.000000 0.236758 0.257465
O O14 0.500000 0.875029 0.818667
O O15 0.620644 0.839906 0.885982
O O16 0.623952 0.000000 0.848981
O O17 0.842619 0.500000 0.000000
O O18 0.000000 0.593253 0.000000
O O19 0.621511 0.500000 0.291540
O O20 0.500000 0.396822 0.339028
O O21 0.667454 0.410486 0.365822
O O22 0.737581 0.500000 0.564564
#
# Coordination Sequence:
#
# PCOD8316248 Si02
#       8
#    16  16  16  16  16   8  16  16
#     4   9  18  34  56  79 102 135 185 240 289 334
#     4  10  21  36  57  87 119 149 186 234 289 347
#     4  11  20  35  58  83 115 152 187 230 284 341
#     4  11  23  39  57  79 110 151 196 240 288 341
#     4   9  18  35  59  83 108 141 183 228 274 331
#     4  11  24  40  58  80 108 147 192 234 280 338
#     4   8  14  27  48  73 103 138 173 211 260 317
#     4   9  18  32  53  81 109 140 180 226 271 322
#
# _framework density 20.393895000000001
#
# number of rings (size 3 to 8) (size 9 to 14) (size 15 to 20)
#    0.000    2.333    0.667    3.200    0.000    3.067 
#    0.000    1.667    0.000    1.200    0.000    4.667 
#    0.000    0.000    0.000    0.000    0.000    0.000 
#
# Total GULP energy -1486604.481414 kJ/mol
# GULP energy per Si atom -12388.370678 kJ/mol
# Density = 2.034748 g / cm^3
# Si number density = 20.393895 Si / 1000 Ang^3
#
#
#
# Elastic Constant Matrix: (Units=GPa)
#
#
# Indices 1 2 3 4 5 6 
#
# 1 98.7408 30.4733 8.7984 0.0000 0.0000 0.0000
# 2 30.4733 98.7408 8.7984 0.0000 0.0000 0.0000
# 3 8.7984 8.7984 26.6049 0.0000 0.0000 0.0000
# 4 0.0000 0.0000 0.0000 21.4045 0.0000 0.0000
# 5 0.0000 0.0000 0.0000 0.0000 21.4045 0.0000
# 6 0.0000 0.0000 0.0000 0.0000 0.0000 29.5814
#
#
#
# Elastic Compliance Matrix: (Units=1/GPa)
#
#
# Indices 1 2 3 4 5 6 
#
# 1 0.011376 -0.003272 -0.002680 0.000000 0.000000 0.000000
# 2 -0.003272 0.011376 -0.002680 0.000000 0.000000 0.000000
# 3 -0.002680 -0.002680 0.039360 0.000000 0.000000 0.000000
# 4 0.000000 0.000000 0.000000 0.046719 0.000000 0.000000
# 5 0.000000 0.000000 0.000000 0.000000 0.046719 0.000000
# 6 0.000000 0.000000 0.000000 0.000000 0.000000 0.033805
#
#
# Mechanical properties :
#
#
# Convention : Reuss Voigt Hill
#
# Bulk Modulus (GPa) = 22.29774 35.58074 28.93924
# Shear Modulus (GPa) = 22.56636 26.21253 24.38944
#
# Velocity S-wave (km/s) = 3.33006 3.58902 3.46196
# Velocity P-wave (km/s) = 5.07375 5.88722 5.49556
#
# Compressibility (1/GPa) = 0.04484759
#
# Stress axis : x y z
#
# Youngs Moduli (GPa) = 87.90311 87.90311 25.40669
#
# Poissons Ratio (x) = 0.28763 0.06809
# Poissons Ratio (y) = 0.28763 0.06809
# Poissons Ratio (z) = 0.23559 0.23559
#
# Static dielectric constant tensor:
#      x y z
#    x 4.013960 0.000000 0.000000 
#    y 0.000000 4.013960 0.000000 
#    z 0.000000 0.000000 3.288840 
# 
# 
# High freq. dielectric constant tensor:
#      x y z
#    x 1.814750 0.000000 0.000000 
#    y 0.000000 1.814750 0.000000 
#    z 0.000000 0.000000 1.745490 
# 
# From -- ./inp_files/13930.got.cif
#   From: 2010.03.12/outbox.cif.g09.slc.cpg/sg131_7_cif.got.tgz:13930.got - 2010.04.06 17:36:35.
