data_PCOD8316610
_publ_section_title
;
Structure prediction by ZEFSAII (Michael W. Deem and Ramdas Pophale) SiO2 
 PCOD8316610
Probable space group: P 42/M C M
;
_chemical_formula_sum "Si O2"
_cell_formula_units_Z 72
_cell_length_a 11.910496
_cell_length_b 11.910496
_cell_length_c 27.940842
_cell_angle_alpha 90.000000
_cell_angle_beta 90.000000
_cell_angle_gamma 90.000000
_cell_volume 3963.685470
_symmetry_space_group_name_H-M "P 42/M C M"
_symmetry_group_IT_number 132
_symmetry_cell_setting 'tetragonal'
loop_
_space_group_symop_operation_xyz
x,y,z
-y,x,1/2+z
-x,-y,z
y,-x,1/2+z
x,-y,1/2-z
-x,y,1/2-z
y,x,-z
-y,-x,-z
-x,-y,-z
y,-x,1/2-z
x,y,-z
-y,x,1/2-z
-x,y,1/2+z
x,-y,1/2+z
-y,-x,z
y,x,z
loop_
_atom_site_type_symbol
_atom_site_label
_atom_site_fract_x
_atom_site_fract_y
_atom_site_fract_z
Si Si1 0.702898 0.110369 0.371616
Si Si2 0.866876 0.508554 0.803380
Si Si3 0.832889 0.525082 0.943439
Si Si4 0.414182 0.414182 0.056570
Si Si5 0.139067 0.675010 0.876962
O O1 0.815083 0.184918 0.377849
O O2 0.627739 0.162584 0.328419
O O3 0.628381 0.100620 0.419906
O O4 0.734408 0.979567 0.362990
O O5 0.816008 0.500000 0.750000
O O6 0.818450 0.404103 0.833544
O O7 0.000000 0.500000 0.802733
O O8 0.707006 0.549055 0.925977
O O9 0.872404 0.404347 0.923888
O O10 0.851551 0.527098 0.000000
O O11 0.500000 0.500000 0.080775
O O12 0.419748 0.419748 0.000000
O O13 0.228457 0.771544 0.887248
#
# Coordination Sequence:
#
# PCOD8316610 Si02
#       5
#    16  16  16   8  16
#     4  10  20  34  53  78 105 138 179 214 254 313
#     4   8  16  33  55  76  99 131 171 212 254 301
#     4  10  19  34  53  74 101 135 178 221 263 313
#     4   9  16  26  46  74  99 123 155 207 270 312
#     4  10  21  34  51  78 108 138 174 215 260 311
#
# _framework density 18.164914
#
# number of rings (size 3 to 8) (size 9 to 14) (size 15 to 20)
#    0.000    2.556    1.111    2.667    0.000    4.444 
#    0.000    0.000    0.000    0.000    0.000   12.444 
#    0.000    0.000    0.000    0.000    0.000    0.000 
#
# Total GULP energy -892242.493056 kJ/mol
# GULP energy per Si atom -12392.256848 kJ/mol
# Density = 1.812357 g / cm^3
# Si number density = 18.164914 Si / 1000 Ang^3
#
#
#
# Elastic Constant Matrix: (Units=GPa)
#
#
# Indices 1 2 3 4 5 6 
#
# 1 77.5726 34.9961 13.8837 0.0000 0.0000 0.0000
# 2 34.9961 77.5726 13.8837 0.0000 0.0000 0.0000
# 3 13.8837 13.8837 118.9472 0.0000 0.0000 0.0000
# 4 0.0000 0.0000 0.0000 14.8000 0.0000 0.0000
# 5 0.0000 0.0000 0.0000 0.0000 14.8000 0.0000
# 6 0.0000 0.0000 0.0000 0.0000 0.0000 3.3950
#
#
#
# Elastic Compliance Matrix: (Units=1/GPa)
#
#
# Indices 1 2 3 4 5 6 
#
# 1 0.016317 -0.007170 -0.001068 0.000000 0.000000 0.000000
# 2 -0.007170 0.016317 -0.001068 0.000000 0.000000 0.000000
# 3 -0.001068 -0.001068 0.008656 0.000000 0.000000 0.000000
# 4 0.000000 0.000000 0.000000 0.067568 0.000000 0.000000
# 5 0.000000 0.000000 0.000000 0.000000 0.067568 0.000000
# 6 0.000000 0.000000 0.000000 0.000000 0.000000 0.294551
#
#
# Mechanical properties :
#
#
# Convention : Reuss Voigt Hill
#
# Bulk Modulus (GPa) = 44.09282 44.40216 44.24749
# Shear Modulus (GPa) = 10.05738 20.68760 15.37249
#
# Velocity S-wave (km/s) = 2.35557 3.37839 2.91223
# Velocity P-wave (km/s) = 5.63246 6.30198 5.97660
#
# Compressibility (1/GPa) = 0.02267943
#
# Stress axis : x y z
#
# Youngs Moduli (GPa) = 61.28584 61.28584 115.52256
#
# Poissons Ratio (x) = 0.43943 0.12334
# Poissons Ratio (y) = 0.43943 0.12334
# Poissons Ratio (z) = 0.06543 0.06543
#
# Static dielectric constant tensor:
#      x y z
#    x 3.169120 0.000000 0.000000 
#    y 0.000000 3.169120 0.000000 
#    z 0.000000 0.000000 3.451970 
# 
# 
# High freq. dielectric constant tensor:
#      x y z
#    x 1.692460 0.000000 0.000000 
#    y 0.000000 1.692460 0.000000 
#    z 0.000000 0.000000 1.695920 
# 
# From -- ./inp_files/9791.got.cif
#   From: 2010.03.12/outbox.cif.g09.slc.cpg/sg132_5_cif.got.tgz:9791.got - 2010.04.06 17:53:44.
