data_PCOD8316294
_publ_section_title
;
Structure prediction by ZEFSAII (Michael W. Deem and Ramdas Pophale) SiO2 
 PCOD8316294
Probable space group: P 42/M M C
;
_chemical_formula_sum "Si O2"
_cell_formula_units_Z 112
_cell_length_a 14.391405
_cell_length_b 14.391405
_cell_length_c 27.069103
_cell_angle_alpha 90.000000
_cell_angle_beta 90.000000
_cell_angle_gamma 90.000000
_cell_volume 5606.350620
_symmetry_space_group_name_H-M "P 42/M M C"
_symmetry_group_IT_number 131
_symmetry_cell_setting 'tetragonal'
loop_
_space_group_symop_operation_xyz
x,y,z
-x,-y,z
-y,x,1/2+z
y,-x,1/2+z
-x,y,-z
x,-y,-z
y,x,1/2-z
-y,-x,1/2-z
-x,-y,-z
x,y,-z
y,-x,1/2-z
-y,x,1/2-z
x,-y,z
-x,y,z
-y,-x,1/2+z
y,x,1/2+z
loop_
_atom_site_type_symbol
_atom_site_label
_atom_site_fract_x
_atom_site_fract_y
_atom_site_fract_z
Si Si1 0.640158 0.896599 0.444221
Si Si2 0.601121 0.280515 0.388611
Si Si3 0.256048 0.388589 0.222736
Si Si4 0.898195 0.276028 0.618913
Si Si5 0.253965 0.888681 0.231761
Si Si6 0.754808 0.608937 0.557444
Si Si7 0.895015 0.858024 0.944299
O O1 0.603760 0.886049 0.500000
O O2 0.589641 0.823016 0.409933
O O3 0.749041 0.876961 0.442318
O O4 0.617214 0.000000 0.424586
O O5 0.500000 0.327220 0.386267
O O6 0.641718 0.270921 0.333881
O O7 0.660089 0.345605 0.424221
O O8 0.345900 0.345900 0.250000
O O9 0.250764 0.500000 0.230507
O O10 0.159783 0.341604 0.241014
O O11 0.861884 0.263371 0.674333
O O12 0.838035 0.348223 0.588347
O O13 0.905470 0.175482 0.593216
O O14 0.000000 0.320624 0.620469
O O15 0.156908 0.843093 0.250000
O O16 0.253181 0.000000 0.241545
O O17 0.769349 0.632425 0.500000
O O18 0.750670 0.500000 0.567332
O O19 0.000000 0.882732 0.927969
O O20 0.877535 0.894263 0.000000
#
# Coordination Sequence:
#
# PCOD8316294 Si02
#       7
#    16  16  16  16  16  16  16
#     4   9  18  33  55  85 120 156 189 220 267 337
#     4  11  23  39  61  89 119 151 190 239 294 353
#     4  10  23  42  63  89 117 148 195 252 307 364
#     4  11  23  39  60  87 117 154 201 247 294 345
#     4  10  23  41  61  87 120 159 201 249 302 356
#     4  11  24  41  61  86 119 158 198 242 291 344
#     4   9  18  33  55  84 117 153 190 229 279 338
#
# _framework density 19.977345
#
# number of rings (size 3 to 8) (size 9 to 14) (size 15 to 20)
#    0.000    1.857    1.429    3.429    0.000    7.429 
#    0.000    8.571    0.000    0.000    0.000    0.000 
#    0.000    0.000    0.000    0.000    0.000    0.000 
#
# Total GULP energy -1388576.815482 kJ/mol
# GULP energy per Si atom -12398.007281 kJ/mol
# Density = 1.993188 g / cm^3
# Si number density = 19.977345 Si / 1000 Ang^3
#
#
#
# Elastic Constant Matrix: (Units=GPa)
#
#
# Indices 1 2 3 4 5 6 
#
# 1 117.1091 46.8458 52.4922 0.0000 0.0000 0.0000
# 2 46.8458 117.1082 52.4927 0.0000 0.0000 0.0000
# 3 52.4922 52.4927 127.2352 0.0000 0.0000 0.0000
# 4 0.0000 0.0000 0.0000 28.0854 0.0000 0.0000
# 5 0.0000 0.0000 0.0000 0.0000 28.0864 0.0000
# 6 0.0000 0.0000 0.0000 0.0000 0.0000 3.3006
#
#
#
# Elastic Compliance Matrix: (Units=1/GPa)
#
#
# Indices 1 2 3 4 5 6 
#
# 1 0.011261 -0.002972 -0.003420 0.000000 0.000000 0.000000
# 2 -0.002972 0.011261 -0.003420 0.000000 0.000000 0.000000
# 3 -0.003420 -0.003420 0.010681 0.000000 0.000000 0.000000
# 4 0.000000 0.000000 0.000000 0.035606 0.000000 0.000000
# 5 0.000000 0.000000 0.000000 0.000000 0.035604 0.000000
# 6 0.000000 0.000000 0.000000 0.000000 0.000000 0.302978
#
#
# Mechanical properties :
#
#
# Convention : Reuss Voigt Hill
#
# Bulk Modulus (GPa) = 73.63631 73.90153 73.76892
# Shear Modulus (GPa) = 11.58642 25.86925 18.72783
#
# Velocity S-wave (km/s) = 2.41089 3.60242 3.06511
# Velocity P-wave (km/s) = 6.68504 7.37402 7.03797
#
# Compressibility (1/GPa) = 0.01358026
#
# Stress axis : x y z
#
# Youngs Moduli (GPa) = 88.80551 88.80427 93.62275
#
# Poissons Ratio (x) = 0.26389 0.32016
# Poissons Ratio (y) = 0.26390 0.32017
# Poissons Ratio (z) = 0.30369 0.30369
#
# Static dielectric constant tensor:
#      x y z
#    x 3.660650 0.000000 0.000000 
#    y 0.000000 3.660650 0.000000 
#    z 0.000000 0.000000 3.759810 
# 
# 
# High freq. dielectric constant tensor:
#      x y z
#    x 1.782200 0.000000 0.000000 
#    y 0.000000 1.782200 0.000000 
#    z 0.000000 0.000000 1.785810 
# 
# From -- ./inp_files/11272.got.cif
#   From: 2010.03.12/outbox.cif.g09.slc.cpg/sg131_6_cif.got.tgz:11272.got - 2010.04.06 17:36:35.
