data_PCOD8316484
_publ_section_title
;
Structure prediction by ZEFSAII (Michael W. Deem and Ramdas Pophale) SiO2 
 PCOD8316484
Probable space group: P 42/M C M
;
_chemical_formula_sum "Si O2"
_cell_formula_units_Z 88
_cell_length_a 19.242195
_cell_length_b 19.242195
_cell_length_c 14.229058
_cell_angle_alpha 90.000000
_cell_angle_beta 90.000000
_cell_angle_gamma 90.000000
_cell_volume 5268.480447
_symmetry_space_group_name_H-M "P 42/M C M"
_symmetry_group_IT_number 132
_symmetry_cell_setting 'tetragonal'
loop_
_space_group_symop_operation_xyz
x,y,z
-y,x,1/2+z
-x,-y,z
y,-x,1/2+z
x,-y,1/2-z
-x,y,1/2-z
y,x,-z
-y,-x,-z
-x,-y,-z
y,-x,1/2-z
x,y,-z
-y,x,1/2-z
-x,y,1/2+z
x,-y,1/2+z
-y,-x,z
y,x,z
loop_
_atom_site_type_symbol
_atom_site_label
_atom_site_fract_x
_atom_site_fract_y
_atom_site_fract_z
Si Si1 0.852383 0.037772 0.500000
Si Si2 0.519210 0.707782 0.111469
Si Si3 0.893822 0.218675 0.000000
Si Si4 0.158809 0.274440 0.318882
Si Si5 0.184046 0.926798 0.701075
Si Si6 0.734104 0.615180 0.725096
Si Si7 0.553356 0.446645 0.389359
O O1 0.933837 0.066164 0.500000
O O2 0.813159 0.068656 0.589367
O O3 0.839635 0.955036 0.500000
O O4 0.440261 0.722881 0.141480
O O5 0.576501 0.748170 0.174721
O O6 0.533066 0.629411 0.143154
O O7 0.529801 0.722469 0.000000
O O8 0.892820 0.269309 0.090825
O O9 0.822909 0.177092 0.000000
O O10 0.221161 0.221161 0.331039
O O11 0.110582 0.255669 0.229854
O O12 0.192656 0.349398 0.302302
O O13 0.119033 0.880968 0.737038
O O14 0.173565 0.000000 0.750000
O O15 0.670320 0.670320 0.730521
O O16 0.500000 0.500000 0.341151
O O17 0.548074 0.451927 0.500000
#
# Coordination Sequence:
#
# PCOD8316484 Si02
#       7
#     8  16   8  16  16  16   8
#     4  10  20  31  50  76 109 139 170 209 255 307
#     4  10  20  33  49  72 101 131 170 216 261 319
#     4  10  18  31  50  76 105 140 175 213 251 297
#     4   9  19  33  50  71 100 136 176 216 255 298
#     4  10  19  33  50  74 107 139 172 210 248 300
#     4  10  20  34  50  73  99 135 176 214 260 314
#     4   9  16  28  46  68  97 133 163 195 248 309
#
# _framework density 16.703109000000001
#
# number of rings (size 3 to 8) (size 9 to 14) (size 15 to 20)
#    0.000    2.273    2.727    0.545    1.273    1.455 
#    1.636    1.818    0.000    0.000    0.000    2.545 
#    0.000    7.273    0.000    0.000    0.000    0.000 
#
# Total GULP energy -1090293.859710 kJ/mol
# GULP energy per Si atom -12389.702951 kJ/mol
# Density = 1.666509 g / cm^3
# Si number density = 16.703109 Si / 1000 Ang^3
#
#
#
# Elastic Constant Matrix: (Units=GPa)
#
#
# Indices 1 2 3 4 5 6 
#
# 1 75.0087 60.5510 41.8650 0.0000 0.0000 0.0000
# 2 60.5510 75.0094 41.8652 0.0000 0.0000 0.0000
# 3 41.8650 41.8652 118.6257 0.0000 0.0000 0.0000
# 4 0.0000 0.0000 0.0000 19.2522 0.0000 0.0000
# 5 0.0000 0.0000 0.0000 0.0000 19.2525 0.0000
# 6 0.0000 0.0000 0.0000 0.0000 0.0000 35.5592
#
#
#
# Elastic Compliance Matrix: (Units=1/GPa)
#
#
# Indices 1 2 3 4 5 6 
#
# 1 0.039300 -0.029866 -0.003329 0.000000 0.000000 0.000000
# 2 -0.029866 0.039299 -0.003329 0.000000 0.000000 0.000000
# 3 -0.003329 -0.003329 0.010780 0.000000 0.000000 0.000000
# 4 0.000000 0.000000 0.000000 0.051942 0.000000 0.000000
# 5 0.000000 0.000000 0.000000 0.000000 0.051941 0.000000
# 6 0.000000 0.000000 0.000000 0.000000 0.000000 0.028122
#
#
# Mechanical properties :
#
#
# Convention : Reuss Voigt Hill
#
# Bulk Modulus (GPa) = 61.23918 61.91178 61.57548
# Shear Modulus (GPa) = 16.67354 23.10362 19.88858
#
# Velocity S-wave (km/s) = 3.16290 3.72316 3.45441
# Velocity P-wave (km/s) = 7.07683 7.45849 7.27017
#
# Compressibility (1/GPa) = 0.01632942
#
# Stress axis : x y z
#
# Youngs Moduli (GPa) = 25.44554 25.44577 92.76731
#
# Poissons Ratio (x) = 0.75997 0.30883
# Poissons Ratio (y) = 0.75997 0.30883
# Poissons Ratio (z) = 0.08471 0.08471
#
# Static dielectric constant tensor:
#      x y z
#    x 3.067130 0.000000 0.000000 
#    y 0.000000 3.067120 0.000000 
#    z 0.000000 0.000000 3.366680 
# 
# 
# High freq. dielectric constant tensor:
#      x y z
#    x 1.618600 0.000000 0.000000 
#    y 0.000000 1.618600 0.000000 
#    z 0.000000 0.000000 1.660050 
# 
# From -- ./inp_files/4829.got.cif
#   From: 2010.03.12/outbox.cif.g09.slc.cpg/sg132_3_cif.got.tgz:4829.got - 2010.04.06 17:53:44.
