data_PCOD8316391
_publ_section_title
;
Structure prediction by ZEFSAII (Michael W. Deem and Ramdas Pophale) SiO2 
 PCOD8316391
Probable space group: P 42/M M C
;
_chemical_formula_sum "Si O2"
_cell_formula_units_Z 88
_cell_length_a 15.110165
_cell_length_b 15.110165
_cell_length_c 25.050562
_cell_angle_alpha 90.000000
_cell_angle_beta 90.000000
_cell_angle_gamma 90.000000
_cell_volume 5719.471327
_symmetry_space_group_name_H-M "P 42/M M C"
_symmetry_group_IT_number 131
_symmetry_cell_setting 'tetragonal'
loop_
_space_group_symop_operation_xyz
x,y,z
-x,-y,z
-y,x,1/2+z
y,-x,1/2+z
-x,y,-z
x,-y,-z
y,x,1/2-z
-y,-x,1/2-z
-x,-y,-z
x,y,-z
y,-x,1/2-z
-y,x,1/2-z
x,-y,z
-x,y,z
-y,-x,1/2+z
y,x,1/2+z
loop_
_atom_site_type_symbol
_atom_site_label
_atom_site_fract_x
_atom_site_fract_y
_atom_site_fract_z
Si Si1 0.775280 0.741765 0.689624
Si Si2 0.403222 0.207673 0.660476
Si Si3 0.398425 0.898047 0.768161
Si Si4 0.000000 0.895269 0.441815
Si Si5 0.899474 0.353739 0.060407
Si Si6 0.899223 0.826702 0.883459
O O1 0.764714 0.764714 0.750000
O O2 0.677490 0.720836 0.663721
O O3 0.841819 0.657931 0.687757
O O4 0.811407 0.831739 0.664322
O O5 0.500000 0.253194 0.668384
O O6 0.385950 0.135964 0.707395
O O7 0.405828 0.159701 0.603160
O O8 0.500000 0.888849 0.786008
O O9 0.367165 0.000000 0.769569
O O10 0.914424 0.862810 0.410794
O O11 0.000000 0.850739 0.500000
O O12 0.000000 0.000000 0.447352
O O13 0.894951 0.249494 0.072185
O O14 0.000000 0.388102 0.065496
O O15 0.864593 0.370707 0.000000
O O16 0.000000 0.836278 0.861336
#
# Coordination Sequence:
#
# PCOD8316391 Si02
#       6
#    16  16  16   8  16  16
#     4   9  18  29  43  62  83 114 142 177 215 253
#     4   9  17  29  42  59  85 116 145 172 209 257
#     4   9  17  29  46  65  85 111 144 179 216 256
#     4   9  16  26  40  54  75 111 151 181 206 243
#     4   9  16  25  38  57  83 114 147 181 211 242
#     4   9  17  28  39  56  83 114 148 178 213 250
#
# _framework density 15.386037999999999
#
# number of rings (size 3 to 8) (size 9 to 14) (size 15 to 20)
#    0.000    3.000    0.000    1.091    1.273    8.000 
#    0.000    0.909    0.000    0.545    0.000    3.818 
#    0.000   18.909    0.000    6.545    0.000    5.091 
#
# Total GULP energy -1090232.980452 kJ/mol
# GULP energy per Si atom -12389.011141 kJ/mol
# Density = 1.535102 g / cm^3
# Si number density = 15.386038 Si / 1000 Ang^3
#
#
#
# Elastic Constant Matrix: (Units=GPa)
#
#
# Indices 1 2 3 4 5 6 
#
# 1 69.8880 22.6544 14.0510 0.0000 0.0000 0.0000
# 2 22.6544 69.8880 14.0510 0.0000 0.0000 0.0000
# 3 14.0510 14.0510 58.1837 0.0000 0.0000 0.0000
# 4 0.0000 0.0000 0.0000 14.0026 0.0000 0.0000
# 5 0.0000 0.0000 0.0000 0.0000 14.0026 0.0000
# 6 0.0000 0.0000 0.0000 0.0000 0.0000 236.9534
#
#
#
# Elastic Compliance Matrix: (Units=1/GPa)
#
#
# Indices 1 2 3 4 5 6 
#
# 1 0.016416 -0.004755 -0.002816 0.000000 0.000000 0.000000
# 2 -0.004755 0.016416 -0.002816 0.000000 0.000000 0.000000
# 3 -0.002816 -0.002816 0.018547 0.000000 0.000000 0.000000
# 4 0.000000 0.000000 0.000000 0.071415 0.000000 0.000000
# 5 0.000000 0.000000 0.000000 0.000000 0.071415 0.000000
# 6 0.000000 0.000000 0.000000 0.000000 0.000000 0.004220
#
#
# Mechanical properties :
#
#
# Convention : Reuss Voigt Hill
#
# Bulk Modulus (GPa) = 32.67460 33.27473 32.97467
# Shear Modulus (GPa) = 21.79540 62.80529 42.30034
#
# Velocity S-wave (km/s) = 3.76782 6.39596 5.24903
# Velocity P-wave (km/s) = 6.34123 8.73029 7.62985
#
# Compressibility (1/GPa) = 0.03060481
#
# Stress axis : x y z
#
# Youngs Moduli (GPa) = 60.91546 60.91546 53.91688
#
# Poissons Ratio (x) = 0.28966 0.15183
# Poissons Ratio (y) = 0.28966 0.15183
# Poissons Ratio (z) = 0.17154 0.17154
#
# Static dielectric constant tensor:
#      x y z
#    x 3.130750 0.000000 0.000000 
#    y 0.000000 3.130750 0.000000 
#    z 0.000000 0.000000 2.950570 
# 
# 
# High freq. dielectric constant tensor:
#      x y z
#    x 1.572990 0.000000 0.000000 
#    y 0.000000 1.572990 0.000000 
#    z 0.000000 0.000000 1.579040 
# 
# From -- ./inp_files/11088.got.cif
#   From: 2010.03.12/outbox.cif.g09.slc.cpg/sg131_6_cif.got.tgz:11088.got - 2010.04.06 17:36:35.
