data_PCOD8316753
_publ_section_title
;
Structure prediction by ZEFSAII (Michael W. Deem and Ramdas Pophale) SiO2 
 PCOD8316753
Probable space group: P 42/M C M
;
_chemical_formula_sum "Si O2"
_cell_formula_units_Z 46
_cell_length_a 10.013390
_cell_length_b 10.013390
_cell_length_c 20.173864
_cell_angle_alpha 90.000000
_cell_angle_beta 90.000000
_cell_angle_gamma 90.000000
_cell_volume 2022.792578
_symmetry_space_group_name_H-M "P 42/M C M"
_symmetry_group_IT_number 132
_symmetry_cell_setting 'tetragonal'
loop_
_space_group_symop_operation_xyz
x,y,z
-y,x,1/2+z
-x,-y,z
y,-x,1/2+z
x,-y,1/2-z
-x,y,1/2-z
y,x,-z
-y,-x,-z
-x,-y,-z
y,-x,1/2-z
x,y,-z
-y,x,1/2-z
-x,y,1/2+z
x,-y,1/2+z
-y,-x,z
y,x,z
loop_
_atom_site_type_symbol
_atom_site_label
_atom_site_fract_x
_atom_site_fract_y
_atom_site_fract_z
Si Si1 0.705783 0.705783 0.226371
Si Si2 0.206960 0.793041 0.864975
Si Si3 0.500000 0.500000 0.250000
Si Si4 0.571472 0.855950 0.000000
Si Si5 0.319047 0.680954 0.000000
Si Si6 0.646648 0.939822 0.134655
O O1 0.715997 0.715997 0.305980
O O2 0.595332 0.595332 0.205990
O O3 0.662599 0.847769 0.198322
O O4 0.257124 0.742877 0.934885
O O5 0.049472 0.763741 0.861367
O O6 0.475194 0.724340 0.000000
O O7 0.661200 0.853204 0.933337
O O8 0.500000 0.000000 0.000000
O O9 0.500000 0.000000 0.138357
#
# Coordination Sequence:
#
# PCOD8316753 Si02
#       6
#     8   8   2   8   4  16
#     4  12  28  42  68 101 140 180 236 289 364 432
#     4  12  22  41  71  99 137 183 236 297 357 437
#     4  12  28  44  64  94 136 188 232 290 348 444
#     4  10  20  37  68  99 133 182 236 288 355 424
#     4  12  20  40  70 104 130 184 246 286 358 432
#     4  11  23  44  68 101 137 186 233 293 357 429
#
# _framework density 22.740839000000001
#
# number of rings (size 3 to 8) (size 9 to 14) (size 15 to 20)
#    0.000    0.696    6.957    3.130    0.000    2.783 
#    0.000    1.739    0.000    5.739    0.000    0.000 
#    0.000    0.000    0.000    0.000    0.000    0.000 
#
# Total GULP energy -570205.752691 kJ/mol
# GULP energy per Si atom -12395.777232 kJ/mol
# Density = 2.268908 g / cm^3
# Si number density = 22.740839 Si / 1000 Ang^3
#
#
#
# Elastic Constant Matrix: (Units=GPa)
#
#
# Indices 1 2 3 4 5 6 
#
# 1 106.9169 102.9091 46.2220 0.0000 0.0000 0.0000
# 2 102.9091 106.9165 46.2221 0.0000 0.0000 0.0000
# 3 46.2220 46.2221 168.1594 0.0000 0.0000 0.0000
# 4 0.0000 0.0000 0.0000 -150.7256 0.0000 0.0000
# 5 0.0000 0.0000 0.0000 0.0000 -150.2336 0.0000
# 6 0.0000 0.0000 0.0000 0.0000 0.0000 63.5126
#
#
#
# Elastic Compliance Matrix: (Units=1/GPa)
#
#
# Indices 1 2 3 4 5 6 
#
# 1 0.127473 -0.122051 -0.001490 0.000000 0.000000 0.000000
# 2 -0.122051 0.127473 -0.001491 0.000000 0.000000 0.000000
# 3 -0.001490 -0.001491 0.006766 0.000000 0.000000 0.000000
# 4 0.000000 0.000000 0.000000 -0.006635 0.000000 0.000000
# 5 0.000000 0.000000 0.000000 0.000000 -0.006656 0.000000
# 6 0.000000 0.000000 0.000000 0.000000 0.000000 0.015745
#
#
# Mechanical properties :
#
#
# Convention : Reuss Voigt Hill
#
# Bulk Modulus (GPa) = 85.84270 85.85546 85.84908
# Shear Modulus (GPa) = 9.65041 -35.04667 -12.69813
#
# Velocity S-wave (km/s) = 2.06225 -3.92999 -2.36558
# Velocity P-wave (km/s) = 6.59550 4.15244 5.51105
#
# Compressibility (1/GPa) = 0.01164921
#
# Stress axis : x y z
#
# Youngs Moduli (GPa) = 7.84480 7.84477 147.79508
#
# Poissons Ratio (x) = 0.95746 0.22028
# Poissons Ratio (y) = 0.95746 0.22030
# Poissons Ratio (z) = 0.01169 0.01169
#
# Static dielectric constant tensor:
#      x y z
#    x 4.288430 0.000000 0.000000 
#    y 0.000000 4.288430 0.000000 
#    z 0.000000 0.000000 4.736490 
# 
# 
# High freq. dielectric constant tensor:
#      x y z
#    x 1.889470 0.000000 0.000000 
#    y 0.000000 1.889470 0.000000 
#    z 0.000000 0.000000 1.917800 
# 
# From -- ./inp_files/7268.got.cif
#   From: 2010.03.12/outbox.cif.g09.slc.cpg/sg132_4_cif.got.tgz:7268.got - 2010.04.06 17:53:44.
