data_PCOD8316544
_publ_section_title
;
Structure prediction by ZEFSAII (Michael W. Deem and Ramdas Pophale) SiO2 
 PCOD8316544
Probable space group: P 42/M C M
;
_chemical_formula_sum "Si O2"
_cell_formula_units_Z 64
_cell_length_a 14.241776
_cell_length_b 14.241776
_cell_length_c 16.834900
_cell_angle_alpha 90.000000
_cell_angle_beta 90.000000
_cell_angle_gamma 90.000000
_cell_volume 3414.592189
_symmetry_space_group_name_H-M "P 42/M C M"
_symmetry_group_IT_number 132
_symmetry_cell_setting 'tetragonal'
loop_
_space_group_symop_operation_xyz
x,y,z
-y,x,1/2+z
-x,-y,z
y,-x,1/2+z
x,-y,1/2-z
-x,y,1/2-z
y,x,-z
-y,-x,-z
-x,-y,-z
y,-x,1/2-z
x,y,-z
-y,x,1/2-z
-x,y,1/2+z
x,-y,1/2+z
-y,-x,z
y,x,z
loop_
_atom_site_type_symbol
_atom_site_label
_atom_site_fract_x
_atom_site_fract_y
_atom_site_fract_z
Si Si1 0.817538 0.966690 0.410986
Si Si2 0.320429 0.825640 0.853573
Si Si3 0.896504 0.513290 0.843506
Si Si4 0.281185 0.134155 0.825134
O O1 0.831900 0.006582 0.500000
O O2 0.913937 0.913937 0.382085
O O3 0.734893 0.889509 0.416046
O O4 0.787936 0.050779 0.352719
O O5 0.281647 0.718354 0.855264
O O6 0.431363 0.826595 0.875447
O O7 0.298515 0.875381 0.768892
O O8 0.900136 0.500000 0.750000
O O9 0.863543 0.617447 0.868838
O O10 0.000000 0.500000 0.880133
O O11 0.232608 0.232608 0.846130
#
# Coordination Sequence:
#
# PCOD8316544 Si02
#       4
#    16  16  16  16
#     4  10  20  32  46  67  98 131 158 190 235 279
#     4   9  17  31  51  71  92 121 160 196 230 277
#     4   9  15  27  49  71  93 118 151 197 240 269
#     4  10  19  31  49  70  92 124 163 196 227 275
#
# _framework density 18.743086999999999
#
# number of rings (size 3 to 8) (size 9 to 14) (size 15 to 20)
#    0.000    2.500    2.500    0.750    0.000    1.000 
#    0.000    3.750    0.000    5.250    0.000    5.250 
#    0.000    0.000    0.000    8.500    0.000    9.000 
#
# Total GULP energy -792873.830481 kJ/mol
# GULP energy per Si atom -12388.653601 kJ/mol
# Density = 1.870043 g / cm^3
# Si number density = 18.743087 Si / 1000 Ang^3
#
#
#
# Elastic Constant Matrix: (Units=GPa)
#
#
# Indices 1 2 3 4 5 6 
#
# 1 124.5785 75.0338 16.8387 0.0000 0.0000 0.0000
# 2 75.0338 124.5785 16.8387 0.0000 0.0000 0.0000
# 3 16.8387 16.8387 28.6380 0.0000 0.0000 0.0000
# 4 0.0000 0.0000 0.0000 7.0007 0.0000 0.0000
# 5 0.0000 0.0000 0.0000 0.0000 7.0007 0.0000
# 6 0.0000 0.0000 0.0000 0.0000 0.0000 28.3971
#
#
#
# Elastic Compliance Matrix: (Units=1/GPa)
#
#
# Indices 1 2 3 4 5 6 
#
# 1 0.012873 -0.007311 -0.003270 0.000000 0.000000 0.000000
# 2 -0.007311 0.012873 -0.003270 0.000000 0.000000 0.000000
# 3 -0.003270 -0.003270 0.038764 0.000000 0.000000 0.000000
# 4 0.000000 0.000000 0.000000 0.142842 0.000000 0.000000
# 5 0.000000 0.000000 0.000000 0.000000 0.142842 0.000000
# 6 0.000000 0.000000 0.000000 0.000000 0.000000 0.035215
#
#
# Mechanical properties :
#
#
# Convention : Reuss Voigt Hill
#
# Bulk Modulus (GPa) = 27.16886 55.02416 41.09651
# Shear Modulus (GPa) = 11.75420 19.75196 15.75308
#
# Velocity S-wave (km/s) = 2.50696 3.24979 2.90224
# Velocity P-wave (km/s) = 4.78609 6.59563 5.76233
#
# Compressibility (1/GPa) = 0.03680685
#
# Stress axis : x y z
#
# Youngs Moduli (GPa) = 77.68429 77.68429 25.79701
#
# Poissons Ratio (x) = 0.56797 0.08436
# Poissons Ratio (y) = 0.56797 0.08436
# Poissons Ratio (z) = 0.25403 0.25403
#
# Static dielectric constant tensor:
#      x y z
#    x 3.594350 0.000000 0.000000 
#    y 0.000000 3.594350 0.000000 
#    z 0.000000 0.000000 3.093150 
# 
# 
# High freq. dielectric constant tensor:
#      x y z
#    x 1.715440 0.000000 0.000000 
#    y 0.000000 1.715440 0.000000 
#    z 0.000000 0.000000 1.692660 
# 
# From -- ./inp_files/4395.got.cif
#   From: 2010.03.12/outbox.cif.g09.slc.cpg/sg132_3_cif.got.tgz:4395.got - 2010.04.06 17:53:44.
