data_PCOD8316091
_publ_section_title
;
Structure prediction by ZEFSAII (Michael W. Deem and Ramdas Pophale) SiO2 
 PCOD8316091
Probable space group: P 42/M M C
;
_chemical_formula_sum "Si O2"
_cell_formula_units_Z 88
_cell_length_a 12.529036
_cell_length_b 12.529036
_cell_length_c 30.943458
_cell_angle_alpha 90.000000
_cell_angle_beta 90.000000
_cell_angle_gamma 90.000000
_cell_volume 4857.403257
_symmetry_space_group_name_H-M "P 42/M M C"
_symmetry_group_IT_number 131
_symmetry_cell_setting 'tetragonal'
loop_
_space_group_symop_operation_xyz
x,y,z
-x,-y,z
-y,x,1/2+z
y,-x,1/2+z
-x,y,-z
x,-y,-z
y,x,1/2-z
-y,-x,1/2-z
-x,-y,-z
x,y,-z
y,-x,1/2-z
-y,x,1/2-z
x,-y,z
-x,y,z
-y,-x,1/2+z
y,x,1/2+z
loop_
_atom_site_type_symbol
_atom_site_label
_atom_site_fract_x
_atom_site_fract_y
_atom_site_fract_z
Si Si1 0.125703 0.125703 0.250000
Si Si2 0.623401 0.377689 0.867454
Si Si3 0.000000 0.263614 0.952284
Si Si4 0.254779 0.379123 0.451694
Si Si5 0.761429 0.194367 0.335453
Si Si6 0.624526 0.000000 0.635690
Si Si7 0.809073 0.876700 0.922926
O O1 0.184262 0.176531 0.209142
O O2 0.000000 0.148938 0.247936
O O3 0.657357 0.500000 0.860414
O O4 0.500000 0.359569 0.855384
O O5 0.646377 0.349320 0.917749
O O6 0.692600 0.300590 0.836800
O O7 0.000000 0.355035 0.915880
O O8 0.103656 0.190351 0.948510
O O9 0.000000 0.316849 0.000000
O O10 0.299795 0.358814 0.500000
O O11 0.214446 0.500000 0.446296
O O12 0.152301 0.306332 0.442150
O O13 0.673848 0.103013 0.341574
O O14 0.851371 0.185597 0.372153
O O15 0.500000 0.000000 0.644546
O O16 0.832668 0.000000 0.930366
#
# Coordination Sequence:
#
# PCOD8316091 Si02
#       7
#     8  16   8  16  16   8  16
#     4  11  22  38  64  89 108 132 170 219 272 328
#     4   9  18  34  56  78 106 147 185 219 266 322
#     4  10  21  33  48  75 107 142 187 229 262 313
#     4   9  18  31  48  74 105 137 182 234 272 310
#     4  10  20  37  56  82 110 135 175 226 273 328
#     4  10  20  36  57  80 110 147 179 221 277 329
#     4  10  20  33  50  71 103 143 179 221 274 330
#
# _framework density 18.116675999999998
#
# number of rings (size 3 to 8) (size 9 to 14) (size 15 to 20)
#    0.000    2.273    0.909    1.909    0.000    2.727 
#    0.000    4.545    0.000    8.727    0.000    0.000 
#    0.000    0.000    0.000    0.000    0.000    0.000 
#
# Total GULP energy -1091263.996022 kJ/mol
# GULP energy per Si atom -12400.727228 kJ/mol
# Density = 1.807544 g / cm^3
# Si number density = 18.116676 Si / 1000 Ang^3
#
#
#
# Elastic Constant Matrix: (Units=GPa)
#
#
# Indices 1 2 3 4 5 6 
#
# 1 76.6010 27.4124 26.6525 0.0000 0.0000 0.0000
# 2 27.4124 76.6010 26.6525 0.0000 0.0000 0.0000
# 3 26.6525 26.6525 108.2661 0.0000 0.0000 0.0000
# 4 0.0000 0.0000 0.0000 18.5367 0.0000 0.0000
# 5 0.0000 0.0000 0.0000 0.0000 18.5367 0.0000
# 6 0.0000 0.0000 0.0000 0.0000 0.0000 17.3445
#
#
#
# Elastic Compliance Matrix: (Units=1/GPa)
#
#
# Indices 1 2 3 4 5 6 
#
# 1 0.015666 -0.004664 -0.002708 0.000000 0.000000 0.000000
# 2 -0.004664 0.015666 -0.002708 0.000000 0.000000 0.000000
# 3 -0.002708 -0.002708 0.010570 0.000000 0.000000 0.000000
# 4 0.000000 0.000000 0.000000 0.053947 0.000000 0.000000
# 5 0.000000 0.000000 0.000000 0.000000 0.053947 0.000000
# 6 0.000000 0.000000 0.000000 0.000000 0.000000 0.057655
#
#
# Mechanical properties :
#
#
# Convention : Reuss Voigt Hill
#
# Bulk Modulus (GPa) = 45.99710 46.98923 46.49316
# Shear Modulus (GPa) = 21.28927 22.93361 22.11144
#
# Velocity S-wave (km/s) = 3.43172 3.56179 3.49736
# Velocity P-wave (km/s) = 6.41457 6.55045 6.48287
#
# Compressibility (1/GPa) = 0.02174050
#
# Stress axis : x y z
#
# Youngs Moduli (GPa) = 63.83225 63.83225 94.60718
#
# Poissons Ratio (x) = 0.29771 0.25624
# Poissons Ratio (y) = 0.29771 0.25624
# Poissons Ratio (z) = 0.17289 0.17289
#
# Static dielectric constant tensor:
#      x y z
#    x 3.360390 0.000000 0.000000 
#    y 0.000000 3.360390 0.000000 
#    z 0.000000 0.000000 3.274110 
# 
# 
# High freq. dielectric constant tensor:
#      x y z
#    x 1.702140 0.000000 0.000000 
#    y 0.000000 1.702140 0.000000 
#    z 0.000000 0.000000 1.691830 
# 
# From -- ./inp_files/13596.got.cif
#   From: 2010.03.12/outbox.cif.g09.slc.cpg/sg131_7_cif.got.tgz:13596.got - 2010.04.06 17:36:35.
