data_PCOD8316134
_publ_section_title
;
Structure prediction by ZEFSAII (Michael W. Deem and Ramdas Pophale) SiO2 
 PCOD8316134
Probable space group: P 42/M M C
;
_chemical_formula_sum "Si O2"
_cell_formula_units_Z 80
_cell_length_a 15.114891
_cell_length_b 15.114891
_cell_length_c 18.116971
_cell_angle_alpha 90.000000
_cell_angle_beta 90.000000
_cell_angle_gamma 90.000000
_cell_volume 4139.001925
_symmetry_space_group_name_H-M "P 42/M M C"
_symmetry_group_IT_number 131
_symmetry_cell_setting 'tetragonal'
loop_
_space_group_symop_operation_xyz
x,y,z
-x,-y,z
-y,x,1/2+z
y,-x,1/2+z
-x,y,-z
x,-y,-z
y,x,1/2-z
-y,-x,1/2-z
-x,-y,-z
x,y,-z
y,-x,1/2-z
-y,x,1/2-z
x,-y,z
-x,y,z
-y,-x,1/2+z
y,x,1/2+z
loop_
_atom_site_type_symbol
_atom_site_label
_atom_site_fract_x
_atom_site_fract_y
_atom_site_fract_z
Si Si1 0.820126 0.402753 0.584594
Si Si2 0.639314 0.599791 0.333936
Si Si3 0.229210 0.596908 0.083251
Si Si4 0.220732 0.096069 0.087100
Si Si5 0.100307 0.253583 0.088225
O O1 0.786242 0.389366 0.500000
O O2 0.866355 0.500000 0.591471
O O3 0.740843 0.398253 0.642356
O O4 0.884771 0.323178 0.607242
O O5 0.627914 0.627914 0.250000
O O6 0.600951 0.500000 0.347101
O O7 0.589311 0.674630 0.379854
O O8 0.185238 0.500000 0.086844
O O9 0.158429 0.664282 0.119422
O O10 0.246322 0.628520 0.000000
O O11 0.150662 0.166641 0.118965
O O12 0.197196 0.000000 0.120594
O O13 0.210049 0.094722 0.000000
O O14 0.000000 0.256988 0.119849
O O15 0.096659 0.255527 0.000000
#
# Coordination Sequence:
#
# PCOD8316134 Si02
#       5
#    16  16  16  16  16
#     4   9  17  31  52  76 104 139 175 212 257 308
#     4  11  22  35  52  75 106 140 173 210 254 306
#     4  10  20  34  53  76 102 135 176 217 259 308
#     4   9  16  27  47  77 109 137 168 209 259 312
#     4   9  17  30  48  73 106 137 168 213 264 309
#
# _framework density 19.328330999999999
#
# number of rings (size 3 to 8) (size 9 to 14) (size 15 to 20)
#    0.000    2.400    2.000    1.200    0.000    3.800 
#    0.000    7.000    0.000    1.200    0.000    2.800 
#    0.000    1.600    0.000    0.000    0.000    0.000 
#
# Total GULP energy -991106.943312 kJ/mol
# GULP energy per Si atom -12388.836791 kJ/mol
# Density = 1.928434 g / cm^3
# Si number density = 19.328331 Si / 1000 Ang^3
#
#
#
# Elastic Constant Matrix: (Units=GPa)
#
#
# Indices 1 2 3 4 5 6 
#
# 1 156.0152 79.0771 28.0456 0.0000 0.0000 0.0000
# 2 79.0771 156.0152 28.0456 0.0000 0.0000 0.0000
# 3 28.0456 28.0456 33.4457 0.0000 0.0000 0.0000
# 4 0.0000 0.0000 0.0000 -14.4724 0.0000 0.0000
# 5 0.0000 0.0000 0.0000 0.0000 -14.4724 0.0000
# 6 0.0000 0.0000 0.0000 0.0000 0.0000 12.4906
#
#
#
# Elastic Compliance Matrix: (Units=1/GPa)
#
#
# Indices 1 2 3 4 5 6 
#
# 1 0.009157 -0.003840 -0.004459 0.000000 0.000000 0.000000
# 2 -0.003840 0.009157 -0.004459 0.000000 0.000000 0.000000
# 3 -0.004459 -0.004459 0.037377 0.000000 0.000000 0.000000
# 4 0.000000 0.000000 0.000000 -0.069097 0.000000 0.000000
# 5 0.000000 0.000000 0.000000 0.000000 -0.069097 0.000000
# 6 0.000000 0.000000 0.000000 0.000000 0.000000 0.080060
#
#
# Mechanical properties :
#
#
# Convention : Reuss Voigt Hill
#
# Bulk Modulus (GPa) = 33.13843 68.42365 50.78104
# Shear Modulus (GPa) = 150.90656 10.72967 80.81811
#
# Velocity S-wave (km/s) = 8.84561 2.35867 6.47333
# Velocity P-wave (km/s) = 11.02310 6.54945 9.06653
#
# Compressibility (1/GPa) = 0.03017645
#
# Stress axis : x y z
#
# Youngs Moduli (GPa) = 109.20013 109.20013 26.75422
#
# Poissons Ratio (x) = 0.41933 0.11930
# Poissons Ratio (y) = 0.41933 0.11930
# Poissons Ratio (z) = 0.48692 0.48692
#
# Static dielectric constant tensor:
#      x y z
#    x 3.777870 0.000000 0.000000 
#    y 0.000000 3.777870 0.000000 
#    z 0.000000 0.000000 2.683530 
# 
# 
# High freq. dielectric constant tensor:
#      x y z
#    x 1.756870 0.000000 0.000000 
#    y 0.000000 1.756870 0.000000 
#    z 0.000000 0.000000 1.691310 
# 
# From -- ./inp_files/9438.got.cif
#   From: 2010.03.12/outbox.cif.g09.slc.cpg/sg131_5_cif.got.tgz:9438.got - 2010.04.06 17:36:35.
