data_PCOD8316691
_publ_section_title
;
Structure prediction by ZEFSAII (Michael W. Deem and Ramdas Pophale) SiO2 
 PCOD8316691
Probable space group: P 42/M C M
;
_chemical_formula_sum "Si O2"
_cell_formula_units_Z 96
_cell_length_a 24.111153
_cell_length_b 24.111153
_cell_length_c 9.145077
_cell_angle_alpha 90.000000
_cell_angle_beta 90.000000
_cell_angle_gamma 90.000000
_cell_volume 5316.469471
_symmetry_space_group_name_H-M "P 42/M C M"
_symmetry_group_IT_number 132
_symmetry_cell_setting 'tetragonal'
loop_
_space_group_symop_operation_xyz
x,y,z
-y,x,1/2+z
-x,-y,z
y,-x,1/2+z
x,-y,1/2-z
-x,y,1/2-z
y,x,-z
-y,-x,-z
-x,-y,-z
y,-x,1/2-z
x,y,-z
-y,x,1/2-z
-x,y,1/2+z
x,-y,1/2+z
-y,-x,z
y,x,z
loop_
_atom_site_type_symbol
_atom_site_label
_atom_site_fract_x
_atom_site_fract_y
_atom_site_fract_z
Si Si1 0.767676 0.445058 0.828400
Si Si2 0.852276 0.646144 0.669347
Si Si3 0.236918 0.851804 0.327468
Si Si4 0.058643 0.852028 0.671717
Si Si5 0.553933 0.358384 0.170740
Si Si6 0.942134 0.554594 0.327352
O O1 0.791107 0.500000 0.750000
O O2 0.800038 0.390299 0.777166
O O3 0.704487 0.434681 0.781920
O O4 0.776154 0.454624 0.000000
O O5 0.846947 0.661591 0.500000
O O6 0.854306 0.702996 0.756498
O O7 0.906161 0.609204 0.700703
O O8 0.244550 0.851167 0.500000
O O9 0.203423 0.796578 0.277557
O O10 0.201917 0.906034 0.279933
O O11 0.048033 0.850714 0.500000
O O12 0.092675 0.907326 0.715280
O O13 0.000000 0.851871 0.750000
O O14 0.500000 0.382592 0.250000
O O15 0.606880 0.393121 0.222120
O O16 0.543201 0.363528 0.000000
O O17 0.915381 0.500000 0.250000
O O18 0.949081 0.542927 0.500000
O O19 0.000000 0.567044 0.250000
#
# Coordination Sequence:
#
# PCOD8316691 Si02
#       6
#    16  16  16  16  16  16
#     4   9  18  33  51  72  98 127 161 204 252 298
#     4  10  21  34  52  78 102 129 169 211 252 302
#     4   9  20  38  55  73 102 138 172 208 252 299
#     4   9  19  36  56  79 108 139 171 209 251 295
#     4   9  18  32  49  69  94 124 156 192 238 290
#     4  10  20  34  51  74 104 136 170 208 253 301
#
# _framework density 18.057096000000001
#
# number of rings (size 3 to 8) (size 9 to 14) (size 15 to 20)
#    0.000    2.667    0.000    2.500    0.000    5.333 
#    0.000    8.333    0.000    0.000    0.000    0.000 
#    0.000    0.000    0.000    0.000    0.000    0.000 
#
# Total GULP energy -1190162.682990 kJ/mol
# GULP energy per Si atom -12397.527948 kJ/mol
# Density = 1.801600 g / cm^3
# Si number density = 18.057096 Si / 1000 Ang^3
#
#
#
# Elastic Constant Matrix: (Units=GPa)
#
#
# Indices 1 2 3 4 5 6 
#
# 1 148.9074 79.8061 56.0403 0.0000 0.0000 0.0000
# 2 79.8061 148.9074 56.0403 0.0000 0.0000 0.0000
# 3 56.0403 56.0403 60.0861 0.0000 0.0000 0.0000
# 4 0.0000 0.0000 0.0000 33.0883 0.0000 0.0000
# 5 0.0000 0.0000 0.0000 0.0000 33.0883 0.0000
# 6 0.0000 0.0000 0.0000 0.0000 0.0000 24.1531
#
#
#
# Elastic Compliance Matrix: (Units=1/GPa)
#
#
# Indices 1 2 3 4 5 6 
#
# 1 0.011262 -0.003209 -0.007511 0.000000 0.000000 0.000000
# 2 -0.003209 0.011262 -0.007511 0.000000 0.000000 0.000000
# 3 -0.007511 -0.007511 0.030653 0.000000 0.000000 0.000000
# 4 0.000000 0.000000 0.000000 0.030222 0.000000 0.000000
# 5 0.000000 0.000000 0.000000 0.000000 0.030222 0.000000
# 6 0.000000 0.000000 0.000000 0.000000 0.000000 0.041403
#
#
# Mechanical properties :
#
#
# Convention : Reuss Voigt Hill
#
# Bulk Modulus (GPa) = 59.82359 82.40824 71.11591
# Shear Modulus (GPa) = 25.37338 29.13355 27.25346
#
# Velocity S-wave (km/s) = 3.75263 4.02109 3.88918
# Velocity P-wave (km/s) = 7.20961 8.20339 7.72250
#
# Compressibility (1/GPa) = 0.01671582
#
# Stress axis : x y z
#
# Youngs Moduli (GPa) = 88.79281 88.79281 32.62363
#
# Poissons Ratio (x) = 0.28496 0.24502
# Poissons Ratio (y) = 0.28496 0.24502
# Poissons Ratio (z) = 0.66689 0.66689
#
# Static dielectric constant tensor:
#      x y z
#    x 3.491550 0.000000 0.000000 
#    y 0.000000 3.491550 0.000000 
#    z 0.000000 0.000000 3.273720 
# 
# 
# High freq. dielectric constant tensor:
#      x y z
#    x 1.704160 0.000000 0.000000 
#    y 0.000000 1.704160 0.000000 
#    z 0.000000 0.000000 1.693640 
# 
# From -- ./inp_files/1719.got.cif
#   From: 2010.03.12/outbox.cif.g09.slc.cpg/sg132_1_cif.got.tgz:1719.got - 2010.04.06 17:53:44.
