data_PCOD8316314
_publ_section_title
;
Structure prediction by ZEFSAII (Michael W. Deem and Ramdas Pophale) SiO2 
 PCOD8316314
Probable space group: P 42/M M C
;
_chemical_formula_sum "Si O2"
_cell_formula_units_Z 72
_cell_length_a 14.980234
_cell_length_b 14.980234
_cell_length_c 17.384827
_cell_angle_alpha 90.000000
_cell_angle_beta 90.000000
_cell_angle_gamma 90.000000
_cell_volume 3901.284012
_symmetry_space_group_name_H-M "P 42/M M C"
_symmetry_group_IT_number 131
_symmetry_cell_setting 'tetragonal'
loop_
_space_group_symop_operation_xyz
x,y,z
-x,-y,z
-y,x,1/2+z
y,-x,1/2+z
-x,y,-z
x,-y,-z
y,x,1/2-z
-y,-x,1/2-z
-x,-y,-z
x,y,-z
y,-x,1/2-z
-y,x,1/2-z
x,-y,z
-x,y,z
-y,-x,1/2+z
y,x,1/2+z
loop_
_atom_site_type_symbol
_atom_site_label
_atom_site_fract_x
_atom_site_fract_y
_atom_site_fract_z
Si Si1 0.308505 0.599630 0.408332
Si Si2 0.250859 0.773683 0.340007
Si Si3 0.900660 0.098705 0.158466
Si Si4 0.604431 0.500000 0.082915
Si Si5 0.603832 0.102486 0.410729
O O1 0.313269 0.600342 0.500000
O O2 0.279278 0.500000 0.380315
O O3 0.242765 0.675888 0.378358
O O4 0.407042 0.626555 0.373591
O O5 0.240994 0.759007 0.250000
O O6 0.168922 0.830253 0.375260
O O7 0.340954 0.827953 0.359016
O O8 0.899015 0.100986 0.250000
O O9 0.000000 0.123758 0.129201
O O10 0.874443 0.000000 0.129016
O O11 0.500000 0.500000 0.066757
O O12 0.654559 0.500000 0.000000
O O13 0.626998 0.118296 0.500000
O O14 0.500000 0.122213 0.395242
O O15 0.626329 0.000000 0.387670
#
# Coordination Sequence:
#
# PCOD8316314 Si02
#       5
#    16  16  16   8  16
#     4   9  18  33  50  67  93 135 183 219 246 292
#     4  11  21  30  49  80 111 138 166 216 273 327
#     4   8  15  30  51  73  98 129 164 200 245 308
#     4   7  12  26  48  66  79 111 168 218 247 278
#     4   9  19  36  57  81 109 142 181 224 273 333
#
# _framework density 18.455463000000002
#
# number of rings (size 3 to 8) (size 9 to 14) (size 15 to 20)
#    0.000    3.000    0.000    4.000    1.556    1.778 
#    0.000    0.000    0.000    3.333    0.000    9.333 
#    0.000    0.000    0.000    0.000    0.000    0.000 
#
# Total GULP energy -892014.059147 kJ/mol
# GULP energy per Si atom -12389.084155 kJ/mol
# Density = 1.841346 g / cm^3
# Si number density = 18.455463 Si / 1000 Ang^3
#
#
#
# Elastic Constant Matrix: (Units=GPa)
#
#
# Indices 1 2 3 4 5 6 
#
# 1 129.8355 82.7748 32.8351 0.0000 0.0000 0.0000
# 2 82.7748 129.8355 32.8350 0.0000 0.0000 0.0000
# 3 32.8351 32.8350 40.1832 0.0000 0.0000 0.0000
# 4 0.0000 0.0000 0.0000 21.8735 0.0000 0.0000
# 5 0.0000 0.0000 0.0000 0.0000 21.8734 0.0000
# 6 0.0000 0.0000 0.0000 0.0000 0.0000 36.2721
#
#
#
# Elastic Compliance Matrix: (Units=1/GPa)
#
#
# Indices 1 2 3 4 5 6 
#
# 1 0.013770 -0.007479 -0.005141 0.000000 0.000000 0.000000
# 2 -0.007479 0.013770 -0.005141 0.000000 0.000000 0.000000
# 3 -0.005141 -0.005141 0.033287 0.000000 0.000000 0.000000
# 4 0.000000 0.000000 0.000000 0.045717 0.000000 0.000000
# 5 0.000000 0.000000 0.000000 0.000000 0.045718 0.000000
# 6 0.000000 0.000000 0.000000 0.000000 0.000000 0.027569
#
#
# Mechanical properties :
#
#
# Convention : Reuss Voigt Hill
#
# Bulk Modulus (GPa) = 39.51512 66.30487 52.91000
# Shear Modulus (GPa) = 22.34246 26.09776 24.22011
#
# Velocity S-wave (km/s) = 3.48316 3.76452 3.62657
# Velocity P-wave (km/s) = 6.13467 7.40949 6.80201
#
# Compressibility (1/GPa) = 0.02530677
#
# Stress axis : x y z
#
# Youngs Moduli (GPa) = 72.62031 72.62042 30.04133
#
# Poissons Ratio (x) = 0.54312 0.15444
# Poissons Ratio (y) = 0.54312 0.15444
# Poissons Ratio (z) = 0.37333 0.37333
#
# Static dielectric constant tensor:
#      x y z
#    x 3.686670 0.000000 0.000000 
#    y 0.000000 3.686650 0.000000 
#    z 0.000000 0.000000 2.904680 
# 
# 
# High freq. dielectric constant tensor:
#      x y z
#    x 1.717940 0.000000 0.000000 
#    y 0.000000 1.717940 0.000000 
#    z 0.000000 0.000000 1.667960 
# 
# From -- ./inp_files/7512.got.cif
#   From: 2010.03.12/outbox.cif.g09.slc.cpg/sg131_4_cif.got.tgz:7512.got - 2010.04.06 17:36:35.
