data_PCOD8316932
_publ_section_title
;
Structure prediction by ZEFSAII (Michael W. Deem and Ramdas Pophale) SiO2 
 PCOD8316932
Probable space group: P 42/N B C
;
_chemical_formula_sum "Si O2"
_cell_formula_units_Z 56
_cell_length_a 15.972934
_cell_length_b 15.972934
_cell_length_c 10.433453
_cell_angle_alpha 90.000000
_cell_angle_beta 90.000000
_cell_angle_gamma 90.000000
_cell_volume 2661.935072
_symmetry_space_group_name_H-M "P 42/N B C"
_symmetry_group_IT_number 133
_space_group.IT_coordinate_system_code '2'
_symmetry_cell_setting 'tetragonal'
loop_
_space_group_symop_operation_xyz
x,y,z
1/2-y,x,1/2+z
1/2-x,1/2-y,z
y,1/2-x,1/2+z
x,1/2-y,-z
1/2-x,y,-z
y,x,1/2-z
1/2-y,1/2-x,1/2-z
-x,-y,-z
1/2+y,-x,1/2-z
1/2+x,1/2+y,-z
-y,1/2+x,1/2-z
-x,1/2+y,z
1/2+x,-y,z
-y,-x,1/2+z
1/2+y,1/2+x,1/2+z
loop_
_atom_site_type_symbol
_atom_site_label
_atom_site_fract_x
_atom_site_fract_y
_atom_site_fract_z
Si Si1 0.016728 0.100410 0.863229
Si Si2 0.203191 0.879822 0.765687
Si Si3 0.560066 0.598352 0.612997
Si Si4 0.250000 0.972876 0.000000
O O1 0.085341 0.085341 0.750000
O O2 0.952618 0.176115 0.832757
O O3 0.064860 0.119628 0.997189
O O4 0.963814 0.016826 0.876001
O O5 0.299779 0.856959 0.741964
O O6 0.192660 0.914206 0.909795
O O7 0.606099 0.606099 0.750000
O O8 0.530738 0.692038 0.586143
#
# Coordination Sequence:
#
# PCOD8316932 Si02
#       4
#    16  16  16   8
#     4  10  19  39  65  85 125 178 224 260 302 385
#     4  11  24  39  59  96 142 179 207 257 339 406
#     4  10  22  38  64  92 123 168 227 270 313 377
#     4  12  22  43  62  96 139 170 214 278 328 393
#
# _framework density 21.037327999999999
#
# number of rings (size 3 to 8) (size 9 to 14) (size 15 to 20)
#    0.000    1.429    5.714    0.000    0.000    2.286 
#    5.143    0.000    0.000    0.000    0.000   14.000 
#    0.000    0.000    0.000    0.000    0.000    0.000 
#
# Total GULP energy -694301.712772 kJ/mol
# GULP energy per Si atom -12398.244871 kJ/mol
# Density = 2.098945 g / cm^3
# Si number density = 21.037328 Si / 1000 Ang^3
#
#
#
# Elastic Constant Matrix: (Units=GPa)
#
#
# Indices 1 2 3 4 5 6 
#
# 1 71.0820 47.9691 60.5216 0.0000 0.0000 0.0000
# 2 47.9691 71.0820 60.5216 0.0000 0.0000 0.0000
# 3 60.5216 60.5216 193.8218 0.0000 0.0000 0.0000
# 4 0.0000 0.0000 0.0000 25.5059 0.0000 0.0000
# 5 0.0000 0.0000 0.0000 0.0000 25.5059 0.0000
# 6 0.0000 0.0000 0.0000 0.0000 0.0000 34.0775
#
#
#
# Elastic Compliance Matrix: (Units=1/GPa)
#
#
# Indices 1 2 3 4 5 6 
#
# 1 0.027786 -0.015479 -0.003843 0.000000 0.000000 0.000000
# 2 -0.015479 0.027786 -0.003843 0.000000 0.000000 0.000000
# 3 -0.003843 -0.003843 0.007559 0.000000 0.000000 0.000000
# 4 0.000000 0.000000 0.000000 0.039207 0.000000 0.000000
# 5 0.000000 0.000000 0.000000 0.000000 0.039207 0.000000
# 6 0.000000 0.000000 0.000000 0.000000 0.000000 0.029345
#
#
# Mechanical properties :
#
#
# Convention : Reuss Voigt Hill
#
# Bulk Modulus (GPa) = 59.51806 74.89003 67.20405
# Shear Modulus (GPa) = 22.43951 28.14943 25.29447
#
# Velocity S-wave (km/s) = 3.26951 3.66193 3.47127
# Velocity P-wave (km/s) = 6.52732 7.31817 6.93403
#
# Compressibility (1/GPa) = 0.01680162
#
# Stress axis : x y z
#
# Youngs Moduli (GPa) = 35.98881 35.98881 132.28760
#
# Poissons Ratio (x) = 0.55709 0.50837
# Poissons Ratio (y) = 0.55709 0.50837
# Poissons Ratio (z) = 0.13830 0.13830
#
# Static dielectric constant tensor:
#      x y z
#    x 3.581730 0.000000 0.000000 
#    y 0.000000 3.581730 0.000000 
#    z 0.000000 0.000000 4.492100 
# 
# 
# High freq. dielectric constant tensor:
#      x y z
#    x 1.796640 0.000000 0.000000 
#    y 0.000000 1.796640 0.000000 
#    z 0.000000 0.000000 1.845760 
# 
# From -- ./inp_files/1263.got.cif
#   From: 2010.03.12/outbox.cif.g09.slc.cpg/sg133_1_cif.got.tgz:1263.got - 2010.04.06 18:08:06.
