data_PCOD8316972
_publ_section_title
;
Structure prediction by ZEFSAII (Michael W. Deem and Ramdas Pophale) SiO2 
 PCOD8316972
Probable space group: P 42/N B C
;
_chemical_formula_sum "Si O2"
_cell_formula_units_Z 48
_cell_length_a 14.392400
_cell_length_b 14.392400
_cell_length_c 10.337293
_cell_angle_alpha 90.000000
_cell_angle_beta 90.000000
_cell_angle_gamma 90.000000
_cell_volume 2141.279047
_symmetry_space_group_name_H-M "P 42/N B C"
_symmetry_group_IT_number 133
_space_group.IT_coordinate_system_code '2'
_symmetry_cell_setting 'tetragonal'
loop_
_space_group_symop_operation_xyz
x,y,z
1/2-y,x,1/2+z
1/2-x,1/2-y,z
y,1/2-x,1/2+z
x,1/2-y,-z
1/2-x,y,-z
y,x,1/2-z
1/2-y,1/2-x,1/2-z
-x,-y,-z
1/2+y,-x,1/2-z
1/2+x,1/2+y,-z
-y,1/2+x,1/2-z
-x,1/2+y,z
1/2+x,-y,z
-y,-x,1/2+z
1/2+y,1/2+x,1/2+z
loop_
_atom_site_type_symbol
_atom_site_label
_atom_site_fract_x
_atom_site_fract_y
_atom_site_fract_z
Si Si1 0.996092 0.698196 0.310170
Si Si2 0.389592 0.972498 0.307170
Si Si3 0.896880 0.654574 0.045260
O O1 0.088188 0.635828 0.335521
O O2 0.021247 0.806986 0.299031
O O3 0.951830 0.668325 0.176281
O O4 0.924393 0.681043 0.429652
O O5 0.482666 0.017335 0.250000
O O6 0.369225 0.025668 0.439400
O O7 0.846059 0.750000 0.000000
#
# Coordination Sequence:
#
# PCOD8316972 Si02
#       3
#    16  16  16
#     4  10  21  38  62  89 122 163 208 257 318 381
#     4  11  22  38  62  87 123 167 205 258 321 376
#     4   9  19  39  61  86 124 160 201 264 313 374
#
# _framework density 22.416509000000001
#
# number of rings (size 3 to 8) (size 9 to 14) (size 15 to 20)
#    0.000    2.000    3.333    1.000    0.000    2.000 
#    0.000   18.333    0.000    6.000    0.000    0.000 
#    0.000    0.000    0.000    0.000    0.000    0.000 
#
# Total GULP energy -594837.359326 kJ/mol
# GULP energy per Si atom -12392.444986 kJ/mol
# Density = 2.236549 g / cm^3
# Si number density = 22.416509 Si / 1000 Ang^3
#
#
#
# Elastic Constant Matrix: (Units=GPa)
#
#
# Indices 1 2 3 4 5 6 
#
# 1 126.3652 77.2808 33.3717 0.0000 0.0000 0.0000
# 2 77.2808 126.3655 33.3697 0.0000 0.0000 0.0000
# 3 33.3717 33.3697 76.9030 0.0000 0.0000 0.0000
# 4 0.0000 0.0000 0.0000 22.0623 0.0000 0.0000
# 5 0.0000 0.0000 0.0000 0.0000 22.0617 0.0000
# 6 0.0000 0.0000 0.0000 0.0000 0.0000 -5.4291
#
#
#
# Elastic Compliance Matrix: (Units=1/GPa)
#
#
# Indices 1 2 3 4 5 6 
#
# 1 0.013049 -0.007324 -0.002484 0.000000 0.000000 0.000000
# 2 -0.007324 0.013049 -0.002484 0.000000 0.000000 0.000000
# 3 -0.002484 -0.002484 0.015159 0.000000 0.000000 0.000000
# 4 0.000000 0.000000 0.000000 0.045326 0.000000 0.000000
# 5 0.000000 0.000000 0.000000 0.000000 0.045327 0.000000
# 6 0.000000 0.000000 0.000000 0.000000 0.000000 -0.184192
#
#
# Mechanical properties :
#
#
# Convention : Reuss Voigt Hill
#
# Bulk Modulus (GPa) = 59.98051 68.63092 64.30572
# Shear Modulus (GPa) = -225.84148 20.11308 -102.86420
#
# Velocity S-wave (km/s) = -10.04821 2.99865 -6.78139
# Velocity P-wave (km/s) = 10.38300 6.53238 5.70678
#
# Compressibility (1/GPa) = 0.01667208
#
# Stress axis : x y z
#
# Youngs Moduli (GPa) = 76.63471 76.63611 65.96639
#
# Poissons Ratio (x) = 0.56130 0.16389
# Poissons Ratio (y) = 0.56129 0.16384
# Poissons Ratio (z) = 0.19039 0.19035
#
# Static dielectric constant tensor:
#      x y z
#    x 4.343970 0.000000 0.000000 
#    y 0.000000 4.343980 0.000000 
#    z 0.000000 0.000000 4.229850 
# 
# 
# High freq. dielectric constant tensor:
#      x y z
#    x 1.874260 0.000000 0.000000 
#    y 0.000000 1.874260 0.000000 
#    z 0.000000 0.000000 1.894620 
# 
# From -- ./inp_files/2484.got.cif
#   From: 2010.03.12/outbox.cif.g09.slc.cpg/sg133_2_cif.got.tgz:2484.got - 2010.04.06 18:08:06.
