data_PCOD8316325
_publ_section_title
;
Structure prediction by ZEFSAII (Michael W. Deem and Ramdas Pophale) SiO2 
 PCOD8316325
Probable space group: P 42/M M C
;
_chemical_formula_sum "Si O2"
_cell_formula_units_Z 96
_cell_length_a 15.052782
_cell_length_b 15.052782
_cell_length_c 20.648158
_cell_angle_alpha 90.000000
_cell_angle_beta 90.000000
_cell_angle_gamma 90.000000
_cell_volume 4678.588607
_symmetry_space_group_name_H-M "P 42/M M C"
_symmetry_group_IT_number 131
_symmetry_cell_setting 'tetragonal'
loop_
_space_group_symop_operation_xyz
x,y,z
-x,-y,z
-y,x,1/2+z
y,-x,1/2+z
-x,y,-z
x,-y,-z
y,x,1/2-z
-y,-x,1/2-z
-x,-y,-z
x,y,-z
y,-x,1/2-z
-y,x,1/2-z
x,-y,z
-x,y,z
-y,-x,1/2+z
y,x,1/2+z
loop_
_atom_site_type_symbol
_atom_site_label
_atom_site_fract_x
_atom_site_fract_y
_atom_site_fract_z
Si Si1 0.096438 0.397855 0.429561
Si Si2 0.669562 0.242368 0.163017
Si Si3 0.100892 0.857940 0.927119
Si Si4 0.676932 0.813903 0.426717
Si Si5 0.099236 0.799264 0.699874
Si Si6 0.398575 0.601426 0.250000
Si Si7 0.500000 0.097808 0.577226
O O1 0.119381 0.353838 0.500000
O O2 0.082405 0.500000 0.441027
O O3 0.176888 0.388667 0.380170
O O4 0.000000 0.358922 0.404570
O O5 0.731704 0.298395 0.116777
O O6 0.723418 0.174548 0.210143
O O7 0.611269 0.316686 0.199615
O O8 0.109548 0.751426 0.923659
O O9 0.166812 0.901197 0.874748
O O10 0.000000 0.884669 0.910820
O O11 0.125968 0.890791 0.000000
O O12 0.662422 0.780557 0.500000
O O13 0.586707 0.852435 0.396816
O O14 0.121697 0.878304 0.750000
O O15 0.000000 0.764300 0.715905
O O16 0.500000 0.610399 0.278714
O O17 0.500000 0.092450 0.500000
O O18 0.500000 0.000000 0.607588
#
# Coordination Sequence:
#
# PCOD8316325 Si02
#       7
#    16  16  16  16  16   8   8
#     4   9  18  34  61  97 129 157 191 234 294 369
#     4  11  21  39  61  85 118 157 194 251 304 359
#     4   9  18  33  52  76 111 156 206 255 299 352
#     4   9  18  30  51  82 112 147 189 239 300 363
#     4  11  23  38  56  83 118 161 206 251 306 364
#     4  11  26  46  68  88 111 154 210 258 309 372
#     4   9  16  28  48  76 111 151 193 237 289 350
#
# _framework density 20.519007999999999
#
# number of rings (size 3 to 8) (size 9 to 14) (size 15 to 20)
#    0.000    2.167    0.833    3.000    1.167    4.167 
#    0.000    0.833    0.000    0.000    0.000    3.500 
#    0.000    0.000    0.000    0.000    0.000    0.000 
#
# Total GULP energy -1189273.520166 kJ/mol
# GULP energy per Si atom -12388.265835 kJ/mol
# Density = 2.047231 g / cm^3
# Si number density = 20.519008 Si / 1000 Ang^3
#
#
#
# Elastic Constant Matrix: (Units=GPa)
#
#
# Indices 1 2 3 4 5 6 
#
# 1 120.4832 44.7657 32.3126 0.0000 0.0000 0.0000
# 2 44.7657 120.4825 32.3124 0.0000 0.0000 0.0000
# 3 32.3126 32.3124 76.0011 0.0000 0.0000 0.0000
# 4 0.0000 0.0000 0.0000 -229.1609 0.0000 0.0000
# 5 0.0000 0.0000 0.0000 0.0000 -229.5531 0.0000
# 6 0.0000 0.0000 0.0000 0.0000 0.0000 19.0669
#
#
#
# Elastic Compliance Matrix: (Units=1/GPa)
#
#
# Indices 1 2 3 4 5 6 
#
# 1 0.010233 -0.002974 -0.003086 0.000000 0.000000 0.000000
# 2 -0.002974 0.010233 -0.003086 0.000000 0.000000 0.000000
# 3 -0.003086 -0.003086 0.015782 0.000000 0.000000 0.000000
# 4 0.000000 0.000000 0.000000 -0.004364 0.000000 0.000000
# 5 0.000000 0.000000 0.000000 0.000000 -0.004356 0.000000
# 6 0.000000 0.000000 0.000000 0.000000 0.000000 0.052447
#
#
# Mechanical properties :
#
#
# Convention : Reuss Voigt Hill
#
# Bulk Modulus (GPa) = 55.69594 59.52758 57.61176
# Shear Modulus (GPa) = 47.96099 -74.09102 -13.06501
#
# Velocity S-wave (km/s) = 4.83990 -6.01555 -2.52608
# Velocity P-wave (km/s) = 7.64431 4.37895 4.43059
#
# Compressibility (1/GPa) = 0.01795463
#
# Stress axis : x y z
#
# Youngs Moduli (GPa) = 97.72632 97.72579 63.36444
#
# Poissons Ratio (x) = 0.29067 0.19554
# Poissons Ratio (y) = 0.29067 0.19554
# Poissons Ratio (z) = 0.30158 0.30158
#
# Static dielectric constant tensor:
#      x y z
#    x 3.767360 0.000000 0.000000 
#    y 0.000000 3.767380 0.000000 
#    z 0.000000 0.000000 3.681900 
# 
# 
# High freq. dielectric constant tensor:
#      x y z
#    x 1.801510 0.000000 0.000000 
#    y 0.000000 1.801510 0.000000 
#    z 0.000000 0.000000 1.785070 
# 
# From -- ./inp_files/11168.got.cif
#   From: 2010.03.12/outbox.cif.g09.slc.cpg/sg131_6_cif.got.tgz:11168.got - 2010.04.06 17:36:35.
