data_PCOD8316670
_publ_section_title
;
Structure prediction by ZEFSAII (Michael W. Deem and Ramdas Pophale) SiO2 
 PCOD8316670
Probable space group: P 42/M C M
;
_chemical_formula_sum "Si O2"
_cell_formula_units_Z 96
_cell_length_a 16.961281
_cell_length_b 16.961281
_cell_length_c 19.310813
_cell_angle_alpha 90.000000
_cell_angle_beta 90.000000
_cell_angle_gamma 90.000000
_cell_volume 5555.432264
_symmetry_space_group_name_H-M "P 42/M C M"
_symmetry_group_IT_number 132
_symmetry_cell_setting 'tetragonal'
loop_
_space_group_symop_operation_xyz
x,y,z
-y,x,1/2+z
-x,-y,z
y,-x,1/2+z
x,-y,1/2-z
-x,y,1/2-z
y,x,-z
-y,-x,-z
-x,-y,-z
y,-x,1/2-z
x,y,-z
-y,x,1/2-z
-x,y,1/2+z
x,-y,1/2+z
-y,-x,z
y,x,z
loop_
_atom_site_type_symbol
_atom_site_label
_atom_site_fract_x
_atom_site_fract_y
_atom_site_fract_z
Si Si1 0.181175 0.050082 0.680676
Si Si2 0.177592 0.691434 0.185931
Si Si3 0.788545 0.920224 0.077465
Si Si4 0.317576 0.185382 0.839650
Si Si5 0.268094 0.600665 0.921334
Si Si6 0.575953 0.701673 0.080488
O O1 0.104793 0.104793 0.689448
O O2 0.259260 0.100718 0.664969
O O3 0.192215 0.000000 0.750000
O O4 0.169566 0.993496 0.615125
O O5 0.252904 0.747097 0.188296
O O6 0.163897 0.654207 0.262048
O O7 0.195345 0.623306 0.129278
O O8 0.849482 0.849482 0.073560
O O9 0.711173 0.893262 0.120450
O O10 0.763164 0.945330 0.000000
O O11 0.244701 0.244701 0.836488
O O12 0.390671 0.222904 0.879567
O O13 0.339304 0.660697 0.912974
O O14 0.304660 0.515982 0.901159
O O15 0.235493 0.600501 0.000000
O O16 0.621116 0.621116 0.103217
O O17 0.590431 0.717447 0.000000
#
# Coordination Sequence:
#
# PCOD8316670 Si02
#       6
#    16  16  16  16  16  16
#     4  11  21  34  52  75 102 132 167 207 252 308
#     4   9  18  32  51  71  95 132 174 209 246 297
#     4  10  20  33  50  74 103 133 165 206 255 302
#     4   9  16  30  50  72  97 127 169 214 248 293
#     4   9  18  32  49  73 106 139 172 211 253 300
#     4   9  17  29  49  77 105 135 170 209 256 304
#
# _framework density 17.280384000000002
#
# number of rings (size 3 to 8) (size 9 to 14) (size 15 to 20)
#    0.000    2.500    1.667    1.000    0.000    5.167 
#    0.000    4.167    0.000    1.000    0.000    8.167 
#    0.000    0.000    0.000    0.000    0.000    0.000 
#
# Total GULP energy -1190156.505927 kJ/mol
# GULP energy per Si atom -12397.463603 kJ/mol
# Density = 1.724105 g / cm^3
# Si number density = 17.280384 Si / 1000 Ang^3
#
#
#
# Elastic Constant Matrix: (Units=GPa)
#
#
# Indices 1 2 3 4 5 6 
#
# 1 55.5132 43.4962 44.9931 0.0000 0.0000 0.0000
# 2 43.4962 55.5132 44.9931 0.0000 0.0000 0.0000
# 3 44.9931 44.9931 120.0248 0.0000 0.0000 0.0000
# 4 0.0000 0.0000 0.0000 27.3627 0.0000 0.0000
# 5 0.0000 0.0000 0.0000 0.0000 27.3627 0.0000
# 6 0.0000 0.0000 0.0000 0.0000 0.0000 16.7516
#
#
#
# Elastic Compliance Matrix: (Units=1/GPa)
#
#
# Indices 1 2 3 4 5 6 
#
# 1 0.049267 -0.033948 -0.005743 0.000000 0.000000 0.000000
# 2 -0.033948 0.049267 -0.005743 0.000000 0.000000 0.000000
# 3 -0.005743 -0.005743 0.012637 0.000000 0.000000 0.000000
# 4 0.000000 0.000000 0.000000 0.036546 0.000000 0.000000
# 5 0.000000 0.000000 0.000000 0.000000 0.036546 0.000000
# 6 0.000000 0.000000 0.000000 0.000000 0.000000 0.059696
#
#
# Mechanical properties :
#
#
# Convention : Reuss Voigt Hill
#
# Bulk Modulus (GPa) = 49.24878 55.33511 52.29194
# Shear Modulus (GPa) = 14.63721 20.79999 17.71860
#
# Velocity S-wave (km/s) = 2.91356 3.47317 3.20560
# Velocity P-wave (km/s) = 6.31507 6.94084 6.63534
#
# Compressibility (1/GPa) = 0.02030507
#
# Stress axis : x y z
#
# Youngs Moduli (GPa) = 20.29739 20.29739 79.13209
#
# Poissons Ratio (x) = 0.68906 0.45443
# Poissons Ratio (y) = 0.68906 0.45443
# Poissons Ratio (z) = 0.11656 0.11656
#
# Static dielectric constant tensor:
#      x y z
#    x 3.089590 0.000000 0.000000 
#    y 0.000000 3.089590 0.000000 
#    z 0.000000 0.000000 3.555880 
# 
# 
# High freq. dielectric constant tensor:
#      x y z
#    x 1.645600 0.000000 0.000000 
#    y 0.000000 1.645600 0.000000 
#    z 0.000000 0.000000 1.679080 
# 
# From -- ./inp_files/6474.got.cif
#   From: 2010.03.12/outbox.cif.g09.slc.cpg/sg132_4_cif.got.tgz:6474.got - 2010.04.06 17:53:44.
