data_PCOD8316322
_publ_section_title
;
Structure prediction by ZEFSAII (Michael W. Deem and Ramdas Pophale) SiO2 
 PCOD8316322
Probable space group: P 42/M M C
;
_chemical_formula_sum "Si O2"
_cell_formula_units_Z 92
_cell_length_a 15.727627
_cell_length_b 15.727627
_cell_length_c 19.513552
_cell_angle_alpha 90.000000
_cell_angle_beta 90.000000
_cell_angle_gamma 90.000000
_cell_volume 4826.838095
_symmetry_space_group_name_H-M "P 42/M M C"
_symmetry_group_IT_number 131
_symmetry_cell_setting 'tetragonal'
loop_
_space_group_symop_operation_xyz
x,y,z
-x,-y,z
-y,x,1/2+z
y,-x,1/2+z
-x,y,-z
x,-y,-z
y,x,1/2-z
-y,-x,1/2-z
-x,-y,-z
x,y,-z
y,-x,1/2-z
-y,x,1/2-z
x,-y,z
-x,y,z
-y,-x,1/2+z
y,x,1/2+z
loop_
_atom_site_type_symbol
_atom_site_label
_atom_site_fract_x
_atom_site_fract_y
_atom_site_fract_z
Si Si1 0.906299 0.408767 0.000000
Si Si2 0.193995 0.000000 0.860653
Si Si3 0.406217 0.267100 0.684892
Si Si4 0.836020 0.716785 0.422305
Si Si5 0.000000 0.000000 0.342516
Si Si6 0.716034 0.594793 0.346189
Si Si7 0.712301 0.856551 0.380064
Si Si8 0.000000 0.188453 0.199867
O O1 0.897433 0.352512 0.067461
O O2 0.853240 0.500000 0.000000
O O3 0.000000 0.442017 0.000000
O O4 0.243226 0.919698 0.890005
O O5 0.211327 0.000000 0.779401
O O6 0.092357 0.000000 0.882812
O O7 0.500000 0.250985 0.654117
O O8 0.367075 0.346514 0.641493
O O9 0.412088 0.279215 0.765151
O O10 0.344745 0.186805 0.677950
O O11 0.853713 0.686737 0.500000
O O12 0.801033 0.636387 0.378791
O O13 0.765767 0.789810 0.423626
O O14 0.913842 0.000000 0.298625
O O15 0.703813 0.500000 0.377527
O O16 0.775756 0.919047 0.340371
#
# Coordination Sequence:
#
# PCOD8316322 Si02
#       8
#     8   8  16  16   4  16  16   8
#     4  11  22  36  54  80 115 151 190 229 280 358
#     4  12  24  40  60  87 117 155 201 253 301 344
#     4   9  18  34  57  88 119 147 188 242 298 352
#     4  11  23  39  59  82 116 157 199 245 290 355
#     4  12  25  38  59  90 119 154 190 241 304 353
#     4   9  19  36  59  85 113 150 195 243 297 351
#     4  11  21  36  57  83 115 156 192 233 290 354
#     4  12  23  38  60  86 121 153 200 249 297 353
#
# _framework density 19.060096999999999
#
# number of rings (size 3 to 8) (size 9 to 14) (size 15 to 20)
#    0.000    1.478    3.478    2.609    0.000    2.087 
#    0.000    3.913    0.000    4.174    0.000    2.435 
#    0.000    0.000    0.000    0.000    0.000    0.000 
#
# Total GULP energy -1139728.419967 kJ/mol
# GULP energy per Si atom -12388.352391 kJ/mol
# Density = 1.901672 g / cm^3
# Si number density = 19.060097 Si / 1000 Ang^3
#
#
#
# Elastic Constant Matrix: (Units=GPa)
#
#
# Indices 1 2 3 4 5 6 
#
# 1 123.9850 53.5352 35.3125 0.0000 0.0000 0.0000
# 2 53.5352 123.9850 35.3125 0.0000 0.0000 0.0000
# 3 35.3125 35.3125 72.4977 0.0000 0.0000 0.0000
# 4 0.0000 0.0000 0.0000 19.0992 0.0000 0.0000
# 5 0.0000 0.0000 0.0000 0.0000 19.0992 0.0000
# 6 0.0000 0.0000 0.0000 0.0000 0.0000 62.1557
#
#
#
# Elastic Compliance Matrix: (Units=1/GPa)
#
#
# Indices 1 2 3 4 5 6 
#
# 1 0.010591 -0.003604 -0.003403 0.000000 0.000000 0.000000
# 2 -0.003604 0.010591 -0.003403 0.000000 0.000000 0.000000
# 3 -0.003403 -0.003403 0.017109 0.000000 0.000000 0.000000
# 4 0.000000 0.000000 0.000000 0.052358 0.000000 0.000000
# 5 0.000000 0.000000 0.000000 0.000000 0.052358 0.000000
# 6 0.000000 0.000000 0.000000 0.000000 0.000000 0.016089
#
#
# Mechanical properties :
#
#
# Convention : Reuss Voigt Hill
#
# Bulk Modulus (GPa) = 57.24118 63.19866 60.21992
# Shear Modulus (GPa) = 26.91942 33.15800 30.03871
#
# Velocity S-wave (km/s) = 3.76219 4.17544 3.97419
# Velocity P-wave (km/s) = 6.99781 7.51501 7.26101
#
# Compressibility (1/GPa) = 0.01746994
#
# Stress axis : x y z
#
# Youngs Moduli (GPa) = 94.42141 94.42141 58.44895
#
# Poissons Ratio (x) = 0.34026 0.19892
# Poissons Ratio (y) = 0.34026 0.19892
# Poissons Ratio (z) = 0.32135 0.32135
#
# Static dielectric constant tensor:
#      x y z
#    x 3.800500 0.000000 0.000000 
#    y 0.000000 3.800500 0.000000 
#    z 0.000000 0.000000 3.321270 
# 
# 
# High freq. dielectric constant tensor:
#      x y z
#    x 1.747280 0.000000 0.000000 
#    y 0.000000 1.747280 0.000000 
#    z 0.000000 0.000000 1.727720 
# 
# From -- ./inp_files/9826.got.cif
#   From: 2010.03.12/outbox.cif.g09.slc.cpg/sg131_5_cif.got.tgz:9826.got - 2010.04.06 17:36:35.
