data_PCOD8316480
_publ_section_title
;
Structure prediction by ZEFSAII (Michael W. Deem and Ramdas Pophale) SiO2 
 PCOD8316480
Probable space group: P 42/M C M
;
_chemical_formula_sum "Si O2"
_cell_formula_units_Z 96
_cell_length_a 24.607463
_cell_length_b 24.607463
_cell_length_c 10.105880
_cell_angle_alpha 90.000000
_cell_angle_beta 90.000000
_cell_angle_gamma 90.000000
_cell_volume 6119.385577
_symmetry_space_group_name_H-M "P 42/M C M"
_symmetry_group_IT_number 132
_symmetry_cell_setting 'tetragonal'
loop_
_space_group_symop_operation_xyz
x,y,z
-y,x,1/2+z
-x,-y,z
y,-x,1/2+z
x,-y,1/2-z
-x,y,1/2-z
y,x,-z
-y,-x,-z
-x,-y,-z
y,-x,1/2-z
x,y,-z
-y,x,1/2-z
-x,y,1/2+z
x,-y,1/2+z
-y,-x,z
y,x,z
loop_
_atom_site_type_symbol
_atom_site_label
_atom_site_fract_x
_atom_site_fract_y
_atom_site_fract_z
Si Si1 0.376511 0.539696 0.643588
Si Si2 0.248999 0.454138 0.149959
Si Si3 0.671254 0.240963 0.346042
Si Si4 0.866220 0.045121 0.000000
Si Si5 0.741080 0.828854 0.349611
Si Si6 0.782633 0.939683 0.731716
Si Si7 0.073010 0.839201 0.500000
O O1 0.403336 0.500000 0.750000
O O2 0.393126 0.516978 0.500000
O O3 0.399702 0.600299 0.664728
O O4 0.312873 0.541483 0.656792
O O5 0.223644 0.500000 0.250000
O O6 0.237551 0.392200 0.194087
O O7 0.227742 0.465270 0.000000
O O8 0.678415 0.224974 0.500000
O O9 0.699749 0.300252 0.321474
O O10 0.699281 0.196635 0.253407
O O11 0.833227 0.059185 0.131818
O O12 0.876877 0.980738 0.000000
O O13 0.923174 0.076827 0.000000
O O14 0.720503 0.819488 0.500000
O O15 0.800623 0.800623 0.331933
O O16 0.741962 0.893700 0.322452
O O17 0.755706 0.000000 0.750000
O O18 0.800946 0.921486 0.874835
O O19 0.124394 0.875607 0.500000
#
# Coordination Sequence:
#
# PCOD8316480 Si02
#       7
#    16  16  16   8  16  16   8
#     4   9  17  28  41  56  76 107 144 181 221 258
#     4   9  17  30  47  65  88 118 149 181 219 265
#     4   9  18  31  47  70  96 121 152 191 232 272
#     4  10  18  31  46  58  82 118 151 189 237 275
#     4  10  19  31  48  67  91 122 152 188 235 282
#     4  10  20  32  46  64  87 118 154 192 233 278
#     4  10  20  29  42  64  84 110 153 197 231 269
#
# _framework density 15.687849999999999
#
# number of rings (size 3 to 8) (size 9 to 14) (size 15 to 20)
#    0.000    2.500    0.833    2.000    1.167    3.333 
#    0.000    0.833    0.000    6.000    0.000    0.000 
#    0.000    0.667    0.000    5.167    0.000    2.167 
#
# Total GULP energy -1189386.738740 kJ/mol
# GULP energy per Si atom -12389.445195 kJ/mol
# Density = 1.565214 g / cm^3
# Si number density = 15.687850 Si / 1000 Ang^3
#
#
#
# Elastic Constant Matrix: (Units=GPa)
#
#
# Indices 1 2 3 4 5 6 
#
# 1 74.4302 18.6874 34.1520 0.0000 0.0000 0.0000
# 2 18.6874 74.4266 34.1503 0.0000 0.0000 0.0000
# 3 34.1520 34.1503 99.9450 0.0000 0.0000 0.0000
# 4 0.0000 0.0000 0.0000 21.0443 0.0000 0.0000
# 5 0.0000 0.0000 0.0000 0.0000 21.0447 0.0000
# 6 0.0000 0.0000 0.0000 0.0000 0.0000 19.9600
#
#
#
# Elastic Compliance Matrix: (Units=1/GPa)
#
#
# Indices 1 2 3 4 5 6 
#
# 1 0.016135 -0.001804 -0.004897 0.000000 0.000000 0.000000
# 2 -0.001804 0.016136 -0.004897 0.000000 0.000000 0.000000
# 3 -0.004897 -0.004897 0.013352 0.000000 0.000000 0.000000
# 4 0.000000 0.000000 0.000000 0.047519 0.000000 0.000000
# 5 0.000000 0.000000 0.000000 0.000000 0.047518 0.000000
# 6 0.000000 0.000000 0.000000 0.000000 0.000000 0.050100
#
#
# Mechanical properties :
#
#
# Convention : Reuss Voigt Hill
#
# Bulk Modulus (GPa) = 44.58955 46.97570 45.78262
# Shear Modulus (GPa) = 22.58021 23.19729 22.88875
#
# Velocity S-wave (km/s) = 3.79798 3.84953 3.82384
# Velocity P-wave (km/s) = 6.90779 7.05461 6.98159
#
# Compressibility (1/GPa) = 0.02242678
#
# Stress axis : x y z
#
# Youngs Moduli (GPa) = 61.97541 61.97297 74.89449
#
# Poissons Ratio (x) = 0.11182 0.36676
# Poissons Ratio (y) = 0.11183 0.36676
# Poissons Ratio (z) = 0.30350 0.30348
#
# Static dielectric constant tensor:
#      x y z
#    x 2.917550 0.000000 0.000000 
#    y 0.000000 2.917530 0.000000 
#    z 0.000000 0.000000 3.434790 
# 
# 
# High freq. dielectric constant tensor:
#      x y z
#    x 1.572010 0.000000 0.000000 
#    y 0.000000 1.572010 0.000000 
#    z 0.000000 0.000000 1.625510 
# 
# From -- ./inp_files/1839.got.cif
#   From: 2010.03.12/outbox.cif.g09.slc.cpg/sg132_1_cif.got.tgz:1839.got - 2010.04.06 17:53:44.
