data_PCOD8316886
_publ_section_title
;
Structure prediction by ZEFSAII (Michael W. Deem and Ramdas Pophale) SiO2 
 PCOD8316886
Probable space group: P 42/N B C
;
_chemical_formula_sum "Si O2"
_cell_formula_units_Z 96
_cell_length_a 24.853460
_cell_length_b 24.853460
_cell_length_c 9.130666
_cell_angle_alpha 90.000000
_cell_angle_beta 90.000000
_cell_angle_gamma 90.000000
_cell_volume 5639.961932
_symmetry_space_group_name_H-M "P 42/N B C"
_symmetry_group_IT_number 133
_space_group.IT_coordinate_system_code '2'
_symmetry_cell_setting 'tetragonal'
loop_
_space_group_symop_operation_xyz
x,y,z
1/2-y,x,1/2+z
1/2-x,1/2-y,z
y,1/2-x,1/2+z
x,1/2-y,-z
1/2-x,y,-z
y,x,1/2-z
1/2-y,1/2-x,1/2-z
-x,-y,-z
1/2+y,-x,1/2-z
1/2+x,1/2+y,-z
-y,1/2+x,1/2-z
-x,1/2+y,z
1/2+x,-y,z
-y,-x,1/2+z
1/2+y,1/2+x,1/2+z
loop_
_atom_site_type_symbol
_atom_site_label
_atom_site_fract_x
_atom_site_fract_y
_atom_site_fract_z
Si Si1 0.636060 0.074325 0.825261
Si Si2 0.844243 0.071454 0.845415
Si Si3 0.444598 0.259516 0.841090
Si Si4 0.947430 0.866113 0.310334
Si Si5 0.072546 0.744228 0.835676
Si Si6 0.958164 0.804485 0.583611
O O1 0.584833 0.104835 0.757578
O O2 0.687278 0.090688 0.728314
O O3 0.623789 0.010979 0.817964
O O4 0.646600 0.094143 0.990988
O O5 0.790891 0.096480 0.769456
O O6 0.838945 0.007327 0.853385
O O7 0.430765 0.320718 0.805219
O O8 0.508340 0.250439 0.838603
O O9 0.421281 0.216917 0.719445
O O10 0.418883 0.250000 0.000000
O O11 0.920054 0.920054 0.250000
O O12 0.927124 0.844053 0.470071
O O13 0.095760 0.750000 0.000000
O O14 0.979833 0.750000 0.500000
#
# Coordination Sequence:
#
# PCOD8316886 Si02
#       6
#    16  16  16  16  16  16
#     4  10  19  29  44  66  89 118 153 188 227 275
#     4  10  17  28  44  62  86 115 150 188 226 268
#     4   8  14  26  47  68  86 108 149 199 229 256
#     4   9  17  30  45  64  95 127 151 180 226 272
#     4   9  16  28  46  66  82 106 147 197 238 269
#     4   8  15  29  47  65  86 118 155 192 228 268
#
# _framework density 17.021391000000001
#
# number of rings (size 3 to 8) (size 9 to 14) (size 15 to 20)
#    0.000    3.000    0.000    4.500    0.000    1.333 
#    0.000    4.167    0.000    0.500    0.000    5.833 
#    0.000   18.000    0.000    0.000    0.000    0.000 
#
# Total GULP energy -1189343.662350 kJ/mol
# GULP energy per Si atom -12388.996483 kJ/mol
# Density = 1.698265 g / cm^3
# Si number density = 17.021391 Si / 1000 Ang^3
#
#
#
# Elastic Constant Matrix: (Units=GPa)
#
#
# Indices 1 2 3 4 5 6 
#
# 1 51.8520 32.8587 42.5982 0.0000 0.0000 0.0000
# 2 32.8587 51.8520 42.5982 0.0000 0.0000 0.0000
# 3 42.5982 42.5982 153.7623 0.0000 0.0000 0.0000
# 4 0.0000 0.0000 0.0000 19.0883 0.0000 0.0000
# 5 0.0000 0.0000 0.0000 0.0000 19.0883 0.0000
# 6 0.0000 0.0000 0.0000 0.0000 0.0000 4.6046
#
#
#
# Elastic Compliance Matrix: (Units=1/GPa)
#
#
# Indices 1 2 3 4 5 6 
#
# 1 0.034507 -0.018143 -0.004534 0.000000 0.000000 0.000000
# 2 -0.018143 0.034507 -0.004534 0.000000 0.000000 0.000000
# 3 -0.004534 -0.004534 0.009016 0.000000 0.000000 0.000000
# 4 0.000000 0.000000 0.000000 0.052388 0.000000 0.000000
# 5 0.000000 0.000000 0.000000 0.000000 0.052388 0.000000
# 6 0.000000 0.000000 0.000000 0.000000 0.000000 0.217176
#
#
# Mechanical properties :
#
#
# Convention : Reuss Voigt Hill
#
# Bulk Modulus (GPa) = 42.35483 54.84183 48.59833
# Shear Modulus (GPa) = 10.81615 17.85033 14.33324
#
# Velocity S-wave (km/s) = 2.52354 3.24188 2.90500
# Velocity P-wave (km/s) = 5.78172 6.80458 6.31390
#
# Compressibility (1/GPa) = 0.02361006
#
# Stress axis : x y z
#
# Youngs Moduli (GPa) = 28.97943 28.97943 110.91984
#
# Poissons Ratio (x) = 0.52577 0.50287
# Poissons Ratio (y) = 0.52577 0.50287
# Poissons Ratio (z) = 0.13138 0.13138
#
# Static dielectric constant tensor:
#      x y z
#    x 2.797220 0.000000 0.000000 
#    y 0.000000 2.797220 0.000000 
#    z 0.000000 0.000000 3.767350 
# 
# 
# High freq. dielectric constant tensor:
#      x y z
#    x 1.613080 0.000000 0.000000 
#    y 0.000000 1.613080 0.000000 
#    z 0.000000 0.000000 1.685560 
# 
# From -- ./inp_files/1922.got.cif
#   From: 2010.03.12/outbox.cif.g09.slc.cpg/sg133_1_cif.got.tgz:1922.got - 2010.04.06 18:08:06.
