data_PCOD8316696
_publ_section_title
;
Structure prediction by ZEFSAII (Michael W. Deem and Ramdas Pophale) SiO2 
 PCOD8316696
Probable space group: P 42/M C M
;
_chemical_formula_sum "Si O2"
_cell_formula_units_Z 72
_cell_length_a 20.232252
_cell_length_b 20.232252
_cell_length_c 9.756447
_cell_angle_alpha 90.000000
_cell_angle_beta 90.000000
_cell_angle_gamma 90.000000
_cell_volume 3993.743246
_symmetry_space_group_name_H-M "P 42/M C M"
_symmetry_group_IT_number 132
_symmetry_cell_setting 'tetragonal'
loop_
_space_group_symop_operation_xyz
x,y,z
-y,x,1/2+z
-x,-y,z
y,-x,1/2+z
x,-y,1/2-z
-x,y,1/2-z
y,x,-z
-y,-x,-z
-x,-y,-z
y,-x,1/2-z
x,y,-z
-y,x,1/2-z
-x,y,1/2+z
x,-y,1/2+z
-y,-x,z
y,x,z
loop_
_atom_site_type_symbol
_atom_site_label
_atom_site_fract_x
_atom_site_fract_y
_atom_site_fract_z
Si Si1 0.101671 0.000000 0.750000
Si Si2 0.800656 0.901157 0.847213
Si Si3 0.439129 0.178492 0.156550
Si Si4 0.563071 0.329069 0.658858
Si Si5 0.340186 0.061463 0.161477
O O1 0.149137 0.963172 0.642498
O O2 0.054504 0.945497 0.824859
O O3 0.838458 0.838458 0.775514
O O4 0.732352 0.921718 0.775466
O O5 0.781693 0.879618 0.000000
O O6 0.500000 0.157985 0.250000
O O7 0.415229 0.253325 0.188403
O O8 0.381362 0.127366 0.189610
O O9 0.462468 0.172476 0.000000
O O10 0.500000 0.348961 0.750000
O O11 0.543669 0.338711 0.500000
O O12 0.624430 0.375571 0.699953
O O13 0.368651 0.000000 0.250000
O O14 0.339539 0.042355 0.000000
#
# Coordination Sequence:
#
# PCOD8316696 Si02
#       5
#     8  16  16  16  16
#     4   9  16  26  42  64  89 118 154 192 233 284
#     4   9  17  29  45  66  93 125 160 196 237 288
#     4   9  19  35  54  75  99 130 167 206 247 293
#     4   9  18  33  53  78 107 138 172 207 244 291
#     4  10  20  34  52  74  99 127 163 208 256 300
#
# _framework density 18.028199999999998
#
# number of rings (size 3 to 8) (size 9 to 14) (size 15 to 20)
#    0.000    2.778    1.111    0.000    0.000    3.333 
#    0.000   10.000    0.000    0.667    0.000    3.111 
#    0.000    0.000    0.000    0.000    0.000    0.000 
#
# Total GULP energy -892023.369164 kJ/mol
# GULP energy per Si atom -12389.213461 kJ/mol
# Density = 1.798717 g / cm^3
# Si number density = 18.028200 Si / 1000 Ang^3
#
#
#
# Elastic Constant Matrix: (Units=GPa)
#
#
# Indices 1 2 3 4 5 6 
#
# 1 119.9627 82.1477 46.1260 0.0000 0.0000 0.0000
# 2 82.1477 119.9627 46.1260 0.0000 0.0000 0.0000
# 3 46.1260 46.1260 51.9619 0.0000 0.0000 0.0000
# 4 0.0000 0.0000 0.0000 23.2839 0.0000 0.0000
# 5 0.0000 0.0000 0.0000 0.0000 23.2839 0.0000
# 6 0.0000 0.0000 0.0000 0.0000 0.0000 31.9517
#
#
#
# Elastic Compliance Matrix: (Units=1/GPa)
#
#
# Indices 1 2 3 4 5 6 
#
# 1 0.017381 -0.009063 -0.007384 0.000000 0.000000 0.000000
# 2 -0.009063 0.017381 -0.007384 0.000000 0.000000 0.000000
# 3 -0.007384 -0.007384 0.032354 0.000000 0.000000 0.000000
# 4 0.000000 0.000000 0.000000 0.042948 0.000000 0.000000
# 5 0.000000 0.000000 0.000000 0.000000 0.042948 0.000000
# 6 0.000000 0.000000 0.000000 0.000000 0.000000 0.031297
#
#
# Mechanical properties :
#
#
# Convention : Reuss Voigt Hill
#
# Bulk Modulus (GPa) = 51.40142 71.18741 61.29441
# Shear Modulus (GPa) = 20.96815 23.53643 22.25229
#
# Velocity S-wave (km/s) = 3.41409 3.61714 3.51708
# Velocity P-wave (km/s) = 6.64191 7.55098 7.11099
#
# Compressibility (1/GPa) = 0.01945472
#
# Stress axis : x y z
#
# Youngs Moduli (GPa) = 57.53308 57.53308 30.90802
#
# Poissons Ratio (x) = 0.52143 0.22822
# Poissons Ratio (y) = 0.52143 0.22822
# Poissons Ratio (z) = 0.42482 0.42482
#
# Static dielectric constant tensor:
#      x y z
#    x 3.422100 0.000000 0.000000 
#    y 0.000000 3.422100 0.000000 
#    z 0.000000 0.000000 3.079650 
# 
# 
# High freq. dielectric constant tensor:
#      x y z
#    x 1.700700 0.000000 0.000000 
#    y 0.000000 1.700700 0.000000 
#    z 0.000000 0.000000 1.666580 
# 
# From -- ./inp_files/3322.got.cif
#   From: 2010.03.12/outbox.cif.g09.slc.cpg/sg132_2_cif.got.tgz:3322.got - 2010.04.06 17:53:44.
