data_PCOD8316598
_publ_section_title
;
Structure prediction by ZEFSAII (Michael W. Deem and Ramdas Pophale) SiO2 
 PCOD8316598
Probable space group: P 42/M C M
;
_chemical_formula_sum "Si O2"
_cell_formula_units_Z 104
_cell_length_a 17.803198
_cell_length_b 17.803198
_cell_length_c 18.073075
_cell_angle_alpha 90.000000
_cell_angle_beta 90.000000
_cell_angle_gamma 90.000000
_cell_volume 5728.330866
_symmetry_space_group_name_H-M "P 42/M C M"
_symmetry_group_IT_number 132
_symmetry_cell_setting 'tetragonal'
loop_
_space_group_symop_operation_xyz
x,y,z
-y,x,1/2+z
-x,-y,z
y,-x,1/2+z
x,-y,1/2-z
-x,y,1/2-z
y,x,-z
-y,-x,-z
-x,-y,-z
y,-x,1/2-z
x,y,-z
-y,x,1/2-z
-x,y,1/2+z
x,-y,1/2+z
-y,-x,z
y,x,z
loop_
_atom_site_type_symbol
_atom_site_label
_atom_site_fract_x
_atom_site_fract_y
_atom_site_fract_z
Si Si1 0.343278 0.221308 0.286203
Si Si2 0.555794 0.676811 0.812466
Si Si3 0.327199 0.929677 0.297068
Si Si4 0.036423 0.841185 0.673199
Si Si5 0.063209 0.936791 0.918112
Si Si6 0.773862 0.543118 0.585396
Si Si7 0.926802 0.545840 0.084452
O O1 0.265914 0.265914 0.291078
O O2 0.398335 0.255665 0.224814
O O3 0.323631 0.137847 0.261232
O O4 0.380710 0.223927 0.367216
O O5 0.500000 0.643717 0.750000
O O6 0.610346 0.610346 0.839976
O O7 0.512148 0.709117 0.883512
O O8 0.246041 0.943876 0.332617
O O9 0.382211 0.913961 0.364751
O O10 0.356202 0.000000 0.250000
O O11 0.112037 0.887963 0.657693
O O12 0.000000 0.864781 0.750000
O O13 0.969873 0.860273 0.615923
O O14 0.084897 0.915104 0.000000
O O15 0.000000 0.000000 0.910146
O O16 0.754685 0.561583 0.500000
O O17 0.855211 0.506831 0.593199
O O18 0.000000 0.500000 0.110443
O O19 0.936306 0.573503 0.000000
#
# Coordination Sequence:
#
# PCOD8316598 Si02
#       7
#    16  16  16  16   8  16  16
#     4  10  20  36  56  81 115 149 189 242 288 343
#     4   9  18  33  55  80 112 150 191 238 294 349
#     4  11  22  34  56  86 110 147 192 242 280 336
#     4  10  19  33  55  80 108 145 189 230 280 332
#     4   9  18  32  54  80 106 142 184 224 276 340
#     4  10  20  35  57  83 113 153 195 233 288 358
#     4  10  21  37  56  79 112 149 186 234 291 342
#
# _framework density 18.155376
#
# number of rings (size 3 to 8) (size 9 to 14) (size 15 to 20)
#    0.000    2.077    2.308    1.385    0.000    2.923 
#    0.000    0.000    0.000    2.308    0.000    4.308 
#    0.000    0.000    0.000    0.000    0.000    0.000 
#
# Total GULP energy -1289640.441706 kJ/mol
# GULP energy per Si atom -12400.388863 kJ/mol
# Density = 1.811405 g / cm^3
# Si number density = 18.155376 Si / 1000 Ang^3
#
#
#
# Elastic Constant Matrix: (Units=GPa)
#
#
# Indices 1 2 3 4 5 6 
#
# 1 95.0461 36.4563 51.6789 0.0000 0.0000 0.0000
# 2 36.4563 95.0461 51.6789 0.0000 0.0000 0.0000
# 3 51.6789 51.6789 126.4662 0.0000 0.0000 0.0000
# 4 0.0000 0.0000 0.0000 9.3501 0.0000 0.0000
# 5 0.0000 0.0000 0.0000 0.0000 9.3505 0.0000
# 6 0.0000 0.0000 0.0000 0.0000 0.0000 29.6941
#
#
#
# Elastic Compliance Matrix: (Units=1/GPa)
#
#
# Indices 1 2 3 4 5 6 
#
# 1 0.014135 -0.002933 -0.004578 0.000000 0.000000 0.000000
# 2 -0.002933 0.014135 -0.004578 0.000000 0.000000 0.000000
# 3 -0.004578 -0.004578 0.011649 0.000000 0.000000 0.000000
# 4 0.000000 0.000000 0.000000 0.106950 0.000000 0.000000
# 5 0.000000 0.000000 0.000000 0.000000 0.106946 0.000000
# 6 0.000000 0.000000 0.000000 0.000000 0.000000 0.033677
#
#
# Mechanical properties :
#
#
# Convention : Reuss Voigt Hill
#
# Bulk Modulus (GPa) = 63.52265 66.24297 64.88281
# Shear Modulus (GPa) = 15.77706 21.46189 18.61948
#
# Velocity S-wave (km/s) = 2.95108 3.44193 3.20591
# Velocity P-wave (km/s) = 6.83199 7.23614 7.03697
#
# Compressibility (1/GPa) = 0.01574242
#
# Stress axis : x y z
#
# Youngs Moduli (GPa) = 70.74574 70.74579 85.84772
#
# Poissons Ratio (x) = 0.20748 0.39299
# Poissons Ratio (y) = 0.20748 0.39299
# Poissons Ratio (z) = 0.32386 0.32386
#
# Static dielectric constant tensor:
#      x y z
#    x 3.323420 0.000000 0.000000 
#    y 0.000000 3.323420 0.000000 
#    z 0.000000 0.000000 3.335140 
# 
# 
# High freq. dielectric constant tensor:
#      x y z
#    x 1.704310 0.000000 0.000000 
#    y 0.000000 1.704310 0.000000 
#    z 0.000000 0.000000 1.698130 
# 
# From -- ./inp_files/6557.got.cif
#   From: 2010.03.12/outbox.cif.g09.slc.cpg/sg132_4_cif.got.tgz:6557.got - 2010.04.06 17:53:44.
