data_PCOD8316530
_publ_section_title
;
Structure prediction by ZEFSAII (Michael W. Deem and Ramdas Pophale) SiO2 
 PCOD8316530
Probable space group: P 42/M C M
;
_chemical_formula_sum "Si O2"
_cell_formula_units_Z 128
_cell_length_a 17.867809
_cell_length_b 17.867809
_cell_length_c 25.160581
_cell_angle_alpha 90.000000
_cell_angle_beta 90.000000
_cell_angle_gamma 90.000000
_cell_volume 8032.731827
_symmetry_space_group_name_H-M "P 42/M C M"
_symmetry_group_IT_number 132
_symmetry_cell_setting 'tetragonal'
loop_
_space_group_symop_operation_xyz
x,y,z
-y,x,1/2+z
-x,-y,z
y,-x,1/2+z
x,-y,1/2-z
-x,y,1/2-z
y,x,-z
-y,-x,-z
-x,-y,-z
y,-x,1/2-z
x,y,-z
-y,x,1/2-z
-x,y,1/2+z
x,-y,1/2+z
-y,-x,z
y,x,z
loop_
_atom_site_type_symbol
_atom_site_label
_atom_site_fract_x
_atom_site_fract_y
_atom_site_fract_z
Si Si1 0.915042 0.418467 0.396335
Si Si2 0.920749 0.579021 0.561742
Si Si3 0.277396 0.842818 0.438415
Si Si4 0.282484 0.167197 0.252483
Si Si5 0.417273 0.080411 0.229309
Si Si6 0.082726 0.197401 0.342427
Si Si7 0.849450 0.268417 0.060550
Si Si8 0.913266 0.797770 0.157286
O O1 0.893401 0.503764 0.409457
O O2 0.850069 0.364644 0.420975
O O3 0.919355 0.410991 0.333602
O O4 0.996785 0.396056 0.418784
O O5 0.926518 0.560936 0.500000
O O6 0.858529 0.643187 0.573785
O O7 0.268660 0.865236 0.500000
O O8 0.240501 0.759500 0.428721
O O9 0.233487 0.902978 0.402374
O O10 0.254627 0.254627 0.251948
O O11 0.371195 0.151713 0.252688
O O12 0.252058 0.129611 0.305393
O O13 0.254416 0.128829 0.198737
O O14 0.500000 0.093020 0.250000
O O15 0.386221 0.000000 0.250000
O O16 0.113038 0.113038 0.335407
O O17 0.092793 0.222870 0.403222
O O18 0.998006 0.199383 0.325002
O O19 0.764397 0.235604 0.069795
O O20 0.874500 0.254535 0.000000
O O21 0.881605 0.881605 0.160427
#
# Coordination Sequence:
#
# PCOD8316530 Si02
#       8
#    16  16  16  16  16  16  16  16
#     4  11  20  31  48  70  97 125 158 193 241 291
#     4  10  19  30  47  69  97 124 154 195 235 284
#     4  10  20  33  49  69  93 125 163 199 239 287
#     4  10  21  35  50  68  90 123 161 196 236 282
#     4  11  22  32  48  71 100 128 154 197 243 295
#     4  10  20  31  47  66  86 118 157 199 238 281
#     4   9  19  33  48  67  91 122 157 193 234 280
#     4  10  19  32  47  64  89 118 155 200 242 282
#
# _framework density 15.934803
#
# number of rings (size 3 to 8) (size 9 to 14) (size 15 to 20)
#    0.000    1.875    1.250    4.875    3.500    1.750 
#    0.000    0.000    0.000    2.250    0.000    3.500 
#    0.000    0.750    0.000    6.875    0.000    1.625 
#
# Total GULP energy -1586064.648943 kJ/mol
# GULP energy per Si atom -12391.130070 kJ/mol
# Density = 1.589853 g / cm^3
# Si number density = 15.934803 Si / 1000 Ang^3
#
#
#
# Elastic Constant Matrix: (Units=GPa)
#
#
# Indices 1 2 3 4 5 6 
#
# 1 79.6108 38.7862 11.8599 0.0000 0.0000 0.0000
# 2 38.7862 79.6108 11.8599 0.0000 0.0000 0.0000
# 3 11.8599 11.8599 76.4922 0.0000 0.0000 0.0000
# 4 0.0000 0.0000 0.0000 19.7327 0.0000 0.0000
# 5 0.0000 0.0000 0.0000 0.0000 19.7327 0.0000
# 6 0.0000 0.0000 0.0000 0.0000 0.0000 27.8313
#
#
#
# Elastic Compliance Matrix: (Units=1/GPa)
#
#
# Indices 1 2 3 4 5 6 
#
# 1 0.016606 -0.007889 -0.001352 0.000000 0.000000 0.000000
# 2 -0.007889 0.016606 -0.001352 0.000000 0.000000 0.000000
# 3 -0.001352 -0.001352 0.013492 0.000000 0.000000 0.000000
# 4 0.000000 0.000000 0.000000 0.050677 0.000000 0.000000
# 5 0.000000 0.000000 0.000000 0.000000 0.050677 0.000000
# 6 0.000000 0.000000 0.000000 0.000000 0.000000 0.035931
#
#
# Mechanical properties :
#
#
# Convention : Reuss Voigt Hill
#
# Bulk Modulus (GPa) = 39.18490 40.08066 39.63278
# Shear Modulus (GPa) = 23.39938 25.00649 24.20293
#
# Velocity S-wave (km/s) = 3.83619 3.96574 3.90150
# Velocity P-wave (km/s) = 6.65326 6.79536 6.72469
#
# Compressibility (1/GPa) = 0.02552004
#
# Stress axis : x y z
#
# Youngs Moduli (GPa) = 60.21921 60.21921 74.11611
#
# Poissons Ratio (x) = 0.47507 0.10017
# Poissons Ratio (y) = 0.47507 0.10017
# Poissons Ratio (z) = 0.08139 0.08139
#
# Static dielectric constant tensor:
#      x y z
#    x 3.144210 0.000000 0.000000 
#    y 0.000000 3.144210 0.000000 
#    z 0.000000 0.000000 3.275170 
# 
# 
# High freq. dielectric constant tensor:
#      x y z
#    x 1.587640 0.000000 0.000000 
#    y 0.000000 1.587640 0.000000 
#    z 0.000000 0.000000 1.640780 
# 
# From -- ./inp_files/9335.got.cif
#   From: 2010.03.12/outbox.cif.g09.slc.cpg/sg132_5_cif.got.tgz:9335.got - 2010.04.06 17:53:44.
