data_PCOD8316247
_publ_section_title
;
Structure prediction by ZEFSAII (Michael W. Deem and Ramdas Pophale) SiO2 
 PCOD8316247
Probable space group: P 42/M M C
;
_chemical_formula_sum "Si O2"
_cell_formula_units_Z 88
_cell_length_a 17.642704
_cell_length_b 17.642704
_cell_length_c 14.292036
_cell_angle_alpha 90.000000
_cell_angle_beta 90.000000
_cell_angle_gamma 90.000000
_cell_volume 4448.610649
_symmetry_space_group_name_H-M "P 42/M M C"
_symmetry_group_IT_number 131
_symmetry_cell_setting 'tetragonal'
loop_
_space_group_symop_operation_xyz
x,y,z
-x,-y,z
-y,x,1/2+z
y,-x,1/2+z
-x,y,-z
x,-y,-z
y,x,1/2-z
-y,-x,1/2-z
-x,-y,-z
x,y,-z
y,-x,1/2-z
-y,x,1/2-z
x,-y,z
-x,y,z
-y,-x,1/2+z
y,x,1/2+z
loop_
_atom_site_type_symbol
_atom_site_label
_atom_site_fract_x
_atom_site_fract_y
_atom_site_fract_z
Si Si1 0.588966 0.846974 0.107003
Si Si2 0.731656 0.288261 0.356421
Si Si3 0.911864 0.088137 0.250000
Si Si4 0.915366 0.356209 0.787426
Si Si5 0.418061 0.221120 0.396190
Si Si6 0.132485 0.791730 0.105270
O O1 0.500000 0.840183 0.133457
O O2 0.629038 0.764620 0.119723
O O3 0.635152 0.904427 0.174808
O O4 0.597572 0.875116 0.000000
O O5 0.737103 0.262898 0.250000
O O6 0.642944 0.287801 0.382969
O O7 0.777109 0.222070 0.409774
O O8 0.881981 0.128537 0.155762
O O9 0.000000 0.105148 0.264518
O O10 0.851513 0.409947 0.830167
O O11 0.904873 0.271630 0.827131
O O12 0.000000 0.384114 0.812194
O O13 0.411100 0.187555 0.500000
O O14 0.500000 0.258291 0.377370
O O15 0.096655 0.791727 0.000000
#
# Coordination Sequence:
#
# PCOD8316247 Si02
#       6
#    16  16   8  16  16  16
#     4  11  23  38  58  85 117 155 197 238 287 349
#     4  11  19  36  63  83 110 149 190 236 283 334
#     4  11  24  40  58  86 122 156 192 241 302 356
#     4  11  22  37  57  83 115 150 192 239 287 340
#     4  10  21  36  56  85 116 147 185 230 286 344
#     4  11  22  40  64  88 114 152 202 247 292 348
#
# _framework density 19.781458000000001
#
# number of rings (size 3 to 8) (size 9 to 14) (size 15 to 20)
#    0.000    1.182    4.545    4.364    0.000    4.727 
#    0.000    2.727    0.000    4.909    0.000    3.818 
#    0.000    0.000    0.000    0.000    0.000    0.000 
#
# Total GULP energy -1090606.565299 kJ/mol
# GULP energy per Si atom -12393.256424 kJ/mol
# Density = 1.973643 g / cm^3
# Si number density = 19.781458 Si / 1000 Ang^3
#
#
#
# Elastic Constant Matrix: (Units=GPa)
#
#
# Indices 1 2 3 4 5 6 
#
# 1 97.8391 49.5940 33.0694 0.0000 0.0000 0.0000
# 2 49.5940 97.8374 33.0691 0.0000 0.0000 0.0000
# 3 33.0694 33.0691 138.8959 0.0000 0.0000 0.0000
# 4 0.0000 0.0000 0.0000 22.8485 0.0000 0.0000
# 5 0.0000 0.0000 0.0000 0.0000 22.8492 0.0000
# 6 0.0000 0.0000 0.0000 0.0000 0.0000 12.8444
#
#
#
# Elastic Compliance Matrix: (Units=1/GPa)
#
#
# Indices 1 2 3 4 5 6 
#
# 1 0.014161 -0.006567 -0.001808 0.000000 0.000000 0.000000
# 2 -0.006567 0.014161 -0.001808 0.000000 0.000000 0.000000
# 3 -0.001808 -0.001808 0.008061 0.000000 0.000000 0.000000
# 4 0.000000 0.000000 0.000000 0.043766 0.000000 0.000000
# 5 0.000000 0.000000 0.000000 0.000000 0.043765 0.000000
# 6 0.000000 0.000000 0.000000 0.000000 0.000000 0.077855
#
#
# Mechanical properties :
#
#
# Convention : Reuss Voigt Hill
#
# Bulk Modulus (GPa) = 62.43648 62.89304 62.66476
# Shear Modulus (GPa) = 21.98058 26.29775 24.13917
#
# Velocity S-wave (km/s) = 3.33704 3.65007 3.49706
# Velocity P-wave (km/s) = 6.81758 7.04464 6.93204
#
# Compressibility (1/GPa) = 0.01601628
#
# Stress axis : x y z
#
# Youngs Moduli (GPa) = 70.61787 70.61659 124.06091
#
# Poissons Ratio (x) = 0.46374 0.22430
# Poissons Ratio (y) = 0.46375 0.22430
# Poissons Ratio (z) = 0.12768 0.12767
#
# Static dielectric constant tensor:
#      x y z
#    x 3.762370 0.000000 0.000000 
#    y 0.000000 3.762410 0.000000 
#    z 0.000000 0.000000 3.972040 
# 
# 
# High freq. dielectric constant tensor:
#      x y z
#    x 1.753570 0.000000 0.000000 
#    y 0.000000 1.753570 0.000000 
#    z 0.000000 0.000000 1.793770 
# 
# From -- ./inp_files/5830.got.cif
#   From: 2010.03.12/outbox.cif.g09.slc.cpg/sg131_3_cif.got.tgz:5830.got - 2010.04.06 17:36:35.
