data_PCOD8316548
_publ_section_title
;
Structure prediction by ZEFSAII (Michael W. Deem and Ramdas Pophale) SiO2 
 PCOD8316548
Probable space group: P 42/M C M
;
_chemical_formula_sum "Si O2"
_cell_formula_units_Z 80
_cell_length_a 12.252065
_cell_length_b 12.252065
_cell_length_c 32.650406
_cell_angle_alpha 90.000000
_cell_angle_beta 90.000000
_cell_angle_gamma 90.000000
_cell_volume 4901.253555
_symmetry_space_group_name_H-M "P 42/M C M"
_symmetry_group_IT_number 132
_symmetry_cell_setting 'tetragonal'
loop_
_space_group_symop_operation_xyz
x,y,z
-y,x,1/2+z
-x,-y,z
y,-x,1/2+z
x,-y,1/2-z
-x,y,1/2-z
y,x,-z
-y,-x,-z
-x,-y,-z
y,-x,1/2-z
x,y,-z
-y,x,1/2-z
-x,y,1/2+z
x,-y,1/2+z
-y,-x,z
y,x,z
loop_
_atom_site_type_symbol
_atom_site_label
_atom_site_fract_x
_atom_site_fract_y
_atom_site_fract_z
Si Si1 0.307052 0.131460 0.666064
Si Si2 0.676544 0.500497 0.048002
Si Si3 0.625994 0.199451 0.254112
Si Si4 0.874273 0.508841 0.892153
Si Si5 0.292153 0.112727 0.163569
O O1 0.219524 0.219524 0.650868
O O2 0.328990 0.139367 0.714228
O O3 0.418282 0.151798 0.641764
O O4 0.258153 0.012461 0.656828
O O5 0.606598 0.393403 0.059726
O O6 0.608025 0.608025 0.061026
O O7 0.793357 0.495474 0.069818
O O8 0.700092 0.503028 0.000000
O O9 0.500000 0.226458 0.250000
O O10 0.685154 0.314847 0.261091
O O11 0.648123 0.121517 0.292651
O O12 0.850012 0.625576 0.871919
O O13 0.000000 0.500000 0.907270
O O14 0.183160 0.183160 0.161054
#
# Coordination Sequence:
#
# PCOD8316548 Si02
#       5
#    16  16  16  16  16
#     4  10  20  32  48  69  93 125 160 195 236 275
#     4   9  18  33  52  72  96 125 152 184 230 279
#     4  10  19  32  48  66  94 127 160 199 236 274
#     4  10  19  31  50  72  96 123 154 193 231 276
#     4  10  20  32  48  69  93 125 160 195 236 275
#
# _framework density 16.322355000000002
#
# number of rings (size 3 to 8) (size 9 to 14) (size 15 to 20)
#    0.000    2.200    2.000    2.400    0.000    1.800 
#    0.000    0.000    0.000    3.600    0.000    0.000 
#    0.000    0.000    0.000   37.200    0.000    0.000 
#
# Total GULP energy -992070.265144 kJ/mol
# GULP energy per Si atom -12400.878314 kJ/mol
# Density = 1.628520 g / cm^3
# Si number density = 16.322355 Si / 1000 Ang^3
#
#
#
# Elastic Constant Matrix: (Units=GPa)
#
#
# Indices 1 2 3 4 5 6 
#
# 1 79.7058 32.5590 23.2123 0.0000 0.0000 0.0000
# 2 32.5590 79.7058 23.2123 0.0000 0.0000 0.0000
# 3 23.2123 23.2123 59.6277 0.0000 0.0000 0.0000
# 4 0.0000 0.0000 0.0000 25.5695 0.0000 0.0000
# 5 0.0000 0.0000 0.0000 0.0000 25.5695 0.0000
# 6 0.0000 0.0000 0.0000 0.0000 0.0000 20.0120
#
#
#
# Elastic Compliance Matrix: (Units=1/GPa)
#
#
# Indices 1 2 3 4 5 6 
#
# 1 0.015913 -0.005297 -0.004133 0.000000 0.000000 0.000000
# 2 -0.005297 0.015913 -0.004133 0.000000 0.000000 0.000000
# 3 -0.004133 -0.004133 0.019989 0.000000 0.000000 0.000000
# 4 0.000000 0.000000 0.000000 0.039109 0.000000 0.000000
# 5 0.000000 0.000000 0.000000 0.000000 0.039109 0.000000
# 6 0.000000 0.000000 0.000000 0.000000 0.000000 0.049970
#
#
# Mechanical properties :
#
#
# Convention : Reuss Voigt Hill
#
# Bulk Modulus (GPa) = 40.50209 41.88959 41.19584
# Shear Modulus (GPa) = 23.21703 23.56723 23.39213
#
# Velocity S-wave (km/s) = 3.77557 3.80394 3.78978
# Velocity P-wave (km/s) = 6.62377 6.70917 6.66661
#
# Compressibility (1/GPa) = 0.02469008
#
# Stress axis : x y z
#
# Youngs Moduli (GPa) = 62.83983 62.83983 50.02877
#
# Poissons Ratio (x) = 0.33286 0.20676
# Poissons Ratio (y) = 0.33286 0.20676
# Poissons Ratio (z) = 0.25971 0.25971
#
# Static dielectric constant tensor:
#      x y z
#    x 3.061440 0.000000 0.000000 
#    y 0.000000 3.061440 0.000000 
#    z 0.000000 0.000000 2.921040 
# 
# 
# High freq. dielectric constant tensor:
#      x y z
#    x 1.630060 0.000000 0.000000 
#    y 0.000000 1.630060 0.000000 
#    z 0.000000 0.000000 1.614790 
# 
# From -- ./inp_files/10601.got.cif
#   From: 2010.03.12/outbox.cif.g09.slc.cpg/sg132_6_cif.got.tgz:10601.got - 2010.04.06 17:53:44.
