data_PCOD8316532
_publ_section_title
;
Structure prediction by ZEFSAII (Michael W. Deem and Ramdas Pophale) SiO2 
 PCOD8316532
Probable space group: P 42/M C M
;
_chemical_formula_sum "Si O2"
_cell_formula_units_Z 74
_cell_length_a 24.762799
_cell_length_b 24.762799
_cell_length_c 10.474998
_cell_angle_alpha 90.000000
_cell_angle_beta 90.000000
_cell_angle_gamma 90.000000
_cell_volume 6423.229119
_symmetry_space_group_name_H-M "P 42/M C M"
_symmetry_group_IT_number 132
_symmetry_cell_setting 'tetragonal'
loop_
_space_group_symop_operation_xyz
x,y,z
-y,x,1/2+z
-x,-y,z
y,-x,1/2+z
x,-y,1/2-z
-x,y,1/2-z
y,x,-z
-y,-x,-z
-x,-y,-z
y,-x,1/2-z
x,y,-z
-y,x,1/2-z
-x,y,1/2+z
x,-y,1/2+z
-y,-x,z
y,x,z
loop_
_atom_site_type_symbol
_atom_site_label
_atom_site_fract_x
_atom_site_fract_y
_atom_site_fract_z
Si Si1 0.417024 0.417024 0.649798
Si Si2 0.758283 0.565333 0.500000
Si Si3 0.500000 0.500000 0.250000
Si Si4 0.247358 0.563857 0.500000
Si Si5 0.879947 0.435976 0.000000
Si Si6 0.435500 0.123550 0.000000
Si Si7 0.699928 0.561520 0.744639
Si Si8 0.938914 0.564394 0.751213
O O1 0.406055 0.406055 0.500000
O O2 0.462771 0.462771 0.660153
O O3 0.363988 0.435901 0.724699
O O4 0.751837 0.500831 0.500000
O O5 0.819308 0.585897 0.500000
O O6 0.729668 0.590061 0.625473
O O7 0.185512 0.584698 0.500000
O O8 0.279535 0.587802 0.622695
O O9 0.879093 0.500290 0.000000
O O10 0.909805 0.413281 0.875130
O O11 0.413248 0.092860 0.125232
O O12 0.719000 0.500000 0.750000
O O13 0.938683 0.500000 0.750000
O O14 0.000000 0.586399 0.750000
#
# Coordination Sequence:
#
# PCOD8316532 Si02
#       8
#     8   8   2   8   8   8  16  16
#     4  12  23  38  48  62  72  87  97 120 155 198
#     4   9  16  28  41  54  67  85 104 126 146 173
#     4  12  26  36  52  62  76  82 100 112 146 226
#     4   9  18  28  41  58  67  85 106 128 148 169
#     4   9  15  22  34  47  63  86 110 126 146 168
#     4   9  15  24  34  47  69  86 108 132 148 164
#     4  10  19  31  46  57  71  82 100 122 150 187
#     4   9  15  21  30  46  67  90 110 129 148 166
#
# _framework density 11.520685
#
# number of rings (size 3 to 8) (size 9 to 14) (size 15 to 20)
#    0.000    2.378    2.162    2.108    0.000    8.216 
#    1.946    0.000    0.000    0.000    0.000    0.000 
#    0.000    0.000    0.000    0.000    0.000    0.000 
#
# Total GULP energy -917248.755236 kJ/mol
# GULP energy per Si atom -12395.253449 kJ/mol
# Density = 1.149446 g / cm^3
# Si number density = 11.520685 Si / 1000 Ang^3
#
#
#
# Elastic Constant Matrix: (Units=GPa)
#
#
# Indices 1 2 3 4 5 6 
#
# 1 56.3442 5.4271 33.0715 0.0000 0.0000 0.0000
# 2 5.4271 56.3442 33.0715 0.0000 0.0000 0.0000
# 3 33.0715 33.0715 125.1554 0.0000 0.0000 0.0000
# 4 0.0000 0.0000 0.0000 15.1875 0.0000 0.0000
# 5 0.0000 0.0000 0.0000 0.0000 15.1875 0.0000
# 6 0.0000 0.0000 0.0000 0.0000 0.0000 1.8527
#
#
#
# Elastic Compliance Matrix: (Units=1/GPa)
#
#
# Indices 1 2 3 4 5 6 
#
# 1 0.021108 0.001468 -0.005966 0.000000 0.000000 0.000000
# 2 0.001468 0.021108 -0.005966 0.000000 0.000000 0.000000
# 3 -0.005966 -0.005966 0.011143 0.000000 0.000000 0.000000
# 4 0.000000 0.000000 0.000000 0.065844 0.000000 0.000000
# 5 0.000000 0.000000 0.000000 0.000000 0.065844 0.000000
# 6 0.000000 0.000000 0.000000 0.000000 0.000000 0.539742
#
#
# Mechanical properties :
#
#
# Convention : Reuss Voigt Hill
#
# Bulk Modulus (GPa) = 30.83248 42.33153 36.58201
# Shear Modulus (GPa) = 6.60916 17.53047 12.06982
#
# Velocity S-wave (km/s) = 2.39776 3.90507 3.24028
# Velocity P-wave (km/s) = 5.87252 7.56019 6.76915
#
# Compressibility (1/GPa) = 0.03243333
#
# Stress axis : x y z
#
# Youngs Moduli (GPa) = 47.37488 47.37488 89.74344
#
# Poissons Ratio (x) = -0.06957 0.53539
# Poissons Ratio (y) = -0.06957 0.53539
# Poissons Ratio (z) = 0.28263 0.28263
#
# Static dielectric constant tensor:
#      x y z
#    x 2.154840 0.000000 0.000000 
#    y 0.000000 2.154840 0.000000 
#    z 0.000000 0.000000 2.741000 
# 
# 
# High freq. dielectric constant tensor:
#      x y z
#    x 1.389670 0.000000 0.000000 
#    y 0.000000 1.389670 0.000000 
#    z 0.000000 0.000000 1.462680 
# 
# From -- ./inp_files/3370.got.cif
#   From: 2010.03.12/outbox.cif.g09.slc.cpg/sg132_2_cif.got.tgz:3370.got - 2010.04.06 17:53:44.
