data_PCOD8316422
_publ_section_title
;
Structure prediction by ZEFSAII (Michael W. Deem and Ramdas Pophale) SiO2 
 PCOD8316422
Probable space group: P 42/M C M
;
_chemical_formula_sum "Si O2"
_cell_formula_units_Z 112
_cell_length_a 19.070697
_cell_length_b 19.070697
_cell_length_c 18.189401
_cell_angle_alpha 90.000000
_cell_angle_beta 90.000000
_cell_angle_gamma 90.000000
_cell_volume 6615.330244
_symmetry_space_group_name_H-M "P 42/M C M"
_symmetry_group_IT_number 132
_symmetry_cell_setting 'tetragonal'
loop_
_space_group_symop_operation_xyz
x,y,z
-y,x,1/2+z
-x,-y,z
y,-x,1/2+z
x,-y,1/2-z
-x,y,1/2-z
y,x,-z
-y,-x,-z
-x,-y,-z
y,-x,1/2-z
x,y,-z
-y,x,1/2-z
-x,y,1/2+z
x,-y,1/2+z
-y,-x,z
y,x,z
loop_
_atom_site_type_symbol
_atom_site_label
_atom_site_fract_x
_atom_site_fract_y
_atom_site_fract_z
Si Si1 0.130484 0.755163 0.182973
Si Si2 0.754380 0.352723 0.172845
Si Si3 0.557042 0.940391 0.418036
Si Si4 0.504718 0.194971 0.162639
Si Si5 0.012158 0.288761 0.585100
Si Si6 0.356778 0.249496 0.847006
Si Si7 0.133776 0.753403 0.353265
O O1 0.174401 0.825600 0.171425
O O2 0.174142 0.688191 0.152959
O O3 0.111212 0.746011 0.268361
O O4 0.060886 0.761317 0.134478
O O5 0.687756 0.312245 0.138698
O O6 0.754502 0.430767 0.140175
O O7 0.748417 0.354165 0.259926
O O8 0.567888 0.909417 0.500000
O O9 0.523745 0.881564 0.366286
O O10 0.500000 0.000000 0.419193
O O11 0.630459 0.974316 0.389678
O O12 0.500000 0.187769 0.250000
O O13 0.435757 0.230982 0.126752
O O14 0.031066 0.279115 0.500000
O O15 0.933427 0.261094 0.596712
O O16 0.324921 0.324921 0.875632
O O17 0.306543 0.188552 0.876168
O O18 0.170432 0.829569 0.367719
#
# Coordination Sequence:
#
# PCOD8316422 Si02
#       7
#    16  16  16  16  16  16  16
#     4   9  17  32  51  70  96 127 163 205 244 288
#     4   8  14  26  44  68  96 122 155 203 247 283
#     4  10  21  34  43  63 104 138 154 187 249 304
#     4  10  17  28  48  71  92 125 169 205 238 288
#     4  11  21  32  49  73 101 131 159 198 249 299
#     4   8  15  27  45  69  93 122 164 209 244 273
#     4   9  18  33  51  69  94 130 168 205 241 283
#
# _framework density 16.930371999999998
#
# number of rings (size 3 to 8) (size 9 to 14) (size 15 to 20)
#    0.000    2.714    1.429    3.000    0.000    0.857 
#    2.571    0.000    0.000    2.571    0.000    6.000 
#    0.000    0.000    0.000    1.286    0.000    1.429 
#
# Total GULP energy -1387766.761811 kJ/mol
# GULP energy per Si atom -12390.774659 kJ/mol
# Density = 1.689184 g / cm^3
# Si number density = 16.930372 Si / 1000 Ang^3
#
#
#
# Elastic Constant Matrix: (Units=GPa)
#
#
# Indices 1 2 3 4 5 6 
#
# 1 91.6408 46.9175 19.5469 0.0000 0.0000 0.0000
# 2 46.9175 91.6408 19.5469 0.0000 0.0000 0.0000
# 3 19.5469 19.5469 33.0269 0.0000 0.0000 0.0000
# 4 0.0000 0.0000 0.0000 11.9293 0.0000 0.0000
# 5 0.0000 0.0000 0.0000 0.0000 11.9293 0.0000
# 6 0.0000 0.0000 0.0000 0.0000 0.0000 25.7047
#
#
#
# Elastic Compliance Matrix: (Units=1/GPa)
#
#
# Indices 1 2 3 4 5 6 
#
# 1 0.015512 -0.006848 -0.005128 0.000000 0.000000 0.000000
# 2 -0.006848 0.015512 -0.005128 0.000000 0.000000 0.000000
# 3 -0.005128 -0.005128 0.036348 0.000000 0.000000 0.000000
# 4 0.000000 0.000000 0.000000 0.083828 0.000000 0.000000
# 5 0.000000 0.000000 0.000000 0.000000 0.083828 0.000000
# 6 0.000000 0.000000 0.000000 0.000000 0.000000 0.038903
#
#
# Mechanical properties :
#
#
# Convention : Reuss Voigt Hill
#
# Bulk Modulus (GPa) = 30.15228 43.14790 36.65009
# Shear Modulus (GPa) = 15.66455 18.59912 17.13184
#
# Velocity S-wave (km/s) = 3.04507 3.31806 3.18449
# Velocity P-wave (km/s) = 5.49650 6.34194 5.93429
#
# Compressibility (1/GPa) = 0.03316499
#
# Stress axis : x y z
#
# Youngs Moduli (GPa) = 64.46684 64.46684 27.51178
#
# Poissons Ratio (x) = 0.44146 0.14107
# Poissons Ratio (y) = 0.44146 0.14107
# Poissons Ratio (z) = 0.33057 0.33057
#
# Static dielectric constant tensor:
#      x y z
#    x 3.418130 0.000000 0.000000 
#    y 0.000000 3.418130 0.000000 
#    z 0.000000 0.000000 2.934780 
# 
# 
# High freq. dielectric constant tensor:
#      x y z
#    x 1.646520 0.000000 0.000000 
#    y 0.000000 1.646520 0.000000 
#    z 0.000000 0.000000 1.624540 
# 
# From -- ./inp_files/8181.got.cif
#   From: 2010.03.12/outbox.cif.g09.slc.cpg/sg132_5_cif.got.tgz:8181.got - 2010.04.06 17:53:44.
