data_PCOD8316257
_publ_section_title
;
Structure prediction by ZEFSAII (Michael W. Deem and Ramdas Pophale) SiO2 
 PCOD8316257
Probable space group: P 42/M M C
;
_chemical_formula_sum "Si O2"
_cell_formula_units_Z 104
_cell_length_a 16.266089
_cell_length_b 16.266089
_cell_length_c 19.556602
_cell_angle_alpha 90.000000
_cell_angle_beta 90.000000
_cell_angle_gamma 90.000000
_cell_volume 5174.396278
_symmetry_space_group_name_H-M "P 42/M M C"
_symmetry_group_IT_number 131
_symmetry_cell_setting 'tetragonal'
loop_
_space_group_symop_operation_xyz
x,y,z
-x,-y,z
-y,x,1/2+z
y,-x,1/2+z
-x,y,-z
x,-y,-z
y,x,1/2-z
-y,-x,1/2-z
-x,-y,-z
x,y,-z
y,-x,1/2-z
-y,x,1/2-z
x,-y,z
-x,y,z
-y,-x,1/2+z
y,x,1/2+z
loop_
_atom_site_type_symbol
_atom_site_label
_atom_site_fract_x
_atom_site_fract_y
_atom_site_fract_z
Si Si1 0.143178 0.092843 0.323497
Si Si2 0.797838 0.594101 0.921715
Si Si3 0.597354 0.000000 0.921594
Si Si4 0.096646 0.668045 0.808481
Si Si5 0.257629 0.678906 0.421638
Si Si6 0.222723 0.091655 0.923096
Si Si7 0.152331 0.405938 0.670233
O O1 0.104235 0.104235 0.250000
O O2 0.238492 0.119170 0.324761
O O3 0.087994 0.144272 0.375112
O O4 0.135341 0.000000 0.347773
O O5 0.767466 0.500000 0.911395
O O6 0.874247 0.612019 0.872031
O O7 0.723837 0.656858 0.904047
O O8 0.826730 0.608574 0.000000
O O9 0.626468 0.083231 0.883219
O O10 0.500000 0.000000 0.922841
O O11 0.630868 0.000000 0.000000
O O12 0.145948 0.645272 0.739902
O O13 0.000000 0.652987 0.796745
O O14 0.258389 0.647286 0.500000
O O15 0.176903 0.732719 0.405517
O O16 0.241854 0.604856 0.367284
O O17 0.268552 0.000000 0.912323
O O18 0.190858 0.096762 0.000000
O O19 0.138472 0.500000 0.690096
#
# Coordination Sequence:
#
# PCOD8316257 Si02
#       7
#    16  16   8  16  16  16  16
#     4  11  23  37  55  79 112 156 203 249 293 349
#     4  10  22  41  64  87 113 153 205 258 311 366
#     4   9  18  32  50  78 117 157 194 233 289 371
#     4  11  23  38  58  86 120 157 199 253 310 366
#     4  10  21  38  60  85 117 154 197 246 300 371
#     4  10  21  37  57  82 113 152 200 252 307 360
#     4  11  22  35  55  85 121 158 194 240 303 374
#
# _framework density 20.098963999999999
#
# number of rings (size 3 to 8) (size 9 to 14) (size 15 to 20)
#    0.000    1.615    2.308    2.308    1.077    4.769 
#    0.000    3.077    0.000    0.462    0.000    2.154 
#    0.000    2.462    0.000    0.154    0.000    0.000 
#
# Total GULP energy -1289208.534766 kJ/mol
# GULP energy per Si atom -12396.235911 kJ/mol
# Density = 2.005322 g / cm^3
# Si number density = 20.098964 Si / 1000 Ang^3
#
#
#
# Elastic Constant Matrix: (Units=GPa)
#
#
# Indices 1 2 3 4 5 6 
#
# 1 77.4208 48.0525 33.8813 0.0000 0.0000 0.0000
# 2 48.0525 77.4208 33.8813 0.0000 0.0000 0.0000
# 3 33.8813 33.8813 97.9582 0.0000 0.0000 0.0000
# 4 0.0000 0.0000 0.0000 31.2378 0.0000 0.0000
# 5 0.0000 0.0000 0.0000 0.0000 31.2378 0.0000
# 6 0.0000 0.0000 0.0000 0.0000 0.0000 24.1374
#
#
#
# Elastic Compliance Matrix: (Units=1/GPa)
#
#
# Indices 1 2 3 4 5 6 
#
# 1 0.021925 -0.012125 -0.003390 0.000000 0.000000 0.000000
# 2 -0.012125 0.021925 -0.003390 0.000000 0.000000 0.000000
# 3 -0.003390 -0.003390 0.012553 0.000000 0.000000 0.000000
# 4 0.000000 0.000000 0.000000 0.032012 0.000000 0.000000
# 5 0.000000 0.000000 0.000000 0.000000 0.032012 0.000000
# 6 0.000000 0.000000 0.000000 0.000000 0.000000 0.041429
#
#
# Mechanical properties :
#
#
# Convention : Reuss Voigt Hill
#
# Bulk Modulus (GPa) = 53.77709 53.82555 53.80132
# Shear Modulus (GPa) = 24.28768 26.45492 25.37130
#
# Velocity S-wave (km/s) = 3.47998 3.63193 3.55677
# Velocity P-wave (km/s) = 6.55448 6.66530 6.61013
#
# Compressibility (1/GPa) = 0.01859528
#
# Stress axis : x y z
#
# Youngs Moduli (GPa) = 45.60923 45.60923 79.66042
#
# Poissons Ratio (x) = 0.55301 0.27003
# Poissons Ratio (y) = 0.55301 0.27003
# Poissons Ratio (z) = 0.15460 0.15460
#
# Static dielectric constant tensor:
#      x y z
#    x 3.764410 0.000000 0.000000 
#    y 0.000000 3.764410 0.000000 
#    z 0.000000 0.000000 4.085280 
# 
# 
# High freq. dielectric constant tensor:
#      x y z
#    x 1.778090 0.000000 0.000000 
#    y 0.000000 1.778090 0.000000 
#    z 0.000000 0.000000 1.795480 
# 
# From -- ./inp_files/8089.got.cif
#   From: 2010.03.12/outbox.cif.g09.slc.cpg/sg131_5_cif.got.tgz:8089.got - 2010.04.06 17:36:35.
