data_PCOD8316019
_publ_section_title
;
Structure prediction by ZEFSAII (Michael W. Deem and Ramdas Pophale) SiO2 
 PCOD8316019
Probable space group: P 42/M M C
;
_chemical_formula_sum "Si O2"
_cell_formula_units_Z 52
_cell_length_a 11.711248
_cell_length_b 11.711248
_cell_length_c 19.475799
_cell_angle_alpha 90.000000
_cell_angle_beta 90.000000
_cell_angle_gamma 90.000000
_cell_volume 2671.170682
_symmetry_space_group_name_H-M "P 42/M M C"
_symmetry_group_IT_number 131
_symmetry_cell_setting 'tetragonal'
loop_
_space_group_symop_operation_xyz
x,y,z
-x,-y,z
-y,x,1/2+z
y,-x,1/2+z
-x,y,-z
x,-y,-z
y,x,1/2-z
-y,-x,1/2-z
-x,-y,-z
x,y,-z
y,-x,1/2-z
-y,x,1/2-z
x,-y,z
-x,y,z
-y,-x,1/2+z
y,x,1/2+z
loop_
_atom_site_type_symbol
_atom_site_label
_atom_site_fract_x
_atom_site_fract_y
_atom_site_fract_z
Si Si1 0.774105 0.500000 0.146058
Si Si2 0.500000 0.736866 0.500000
Si Si3 0.500000 0.127585 0.216415
Si Si4 0.248101 0.291149 0.352025
Si Si5 0.866630 0.133371 0.250000
Si Si6 0.365923 0.740139 0.000000
O O1 0.819424 0.500000 0.067013
O O2 0.877176 0.500000 0.200378
O O3 0.698931 0.614779 0.155619
O O4 0.604858 0.649601 0.500000
O O5 0.390282 0.195153 0.193012
O O6 0.500000 0.000000 0.186910
O O7 0.199233 0.174308 0.319154
O O8 0.208871 0.305188 0.431622
O O9 0.000000 0.159316 0.259023
O O10 0.500000 0.771424 0.000000
#
# Coordination Sequence:
#
# PCOD8316019 Si02
#       6
#     8   4   8  16   8   8
#     4  10  20  36  58  89 125 158 198 246 304 368
#     4   8  19  32  55  82 126 172 197 235 296 370
#     4  12  22  36  59  86 123 163 204 258 307 359
#     4  11  22  38  61  93 123 161 199 252 312 372
#     4  11  24  44  66  85 116 164 214 259 302 360
#     4  10  19  36  57  88 129 162 199 243 308 376
#
# _framework density 19.467120000000001
#
# number of rings (size 3 to 8) (size 9 to 14) (size 15 to 20)
#    0.000    1.385    4.615    1.154    0.000    0.615 
#    0.000    6.538    0.000    7.385    0.000    0.000 
#    0.000    0.000    0.000    0.000    0.000    0.000 
#
# Total GULP energy -644384.144981 kJ/mol
# GULP energy per Si atom -12392.002788 kJ/mol
# Density = 1.942281 g / cm^3
# Si number density = 19.467120 Si / 1000 Ang^3
#
#
#
# Elastic Constant Matrix: (Units=GPa)
#
#
# Indices 1 2 3 4 5 6 
#
# 1 103.0705 37.9530 50.2762 0.0000 0.0000 0.0000
# 2 37.9530 103.0697 50.2761 0.0000 0.0000 0.0000
# 3 50.2762 50.2761 185.0188 0.0000 0.0000 0.0000
# 4 0.0000 0.0000 0.0000 13.2569 0.0000 0.0000
# 5 0.0000 0.0000 0.0000 0.0000 13.2561 0.0000
# 6 0.0000 0.0000 0.0000 0.0000 0.0000 18.7593
#
#
#
# Elastic Compliance Matrix: (Units=1/GPa)
#
#
# Indices 1 2 3 4 5 6 
#
# 1 0.012076 -0.003281 -0.002390 0.000000 0.000000 0.000000
# 2 -0.003281 0.012076 -0.002390 0.000000 0.000000 0.000000
# 3 -0.002390 -0.002390 0.006704 0.000000 0.000000 0.000000
# 4 0.000000 0.000000 0.000000 0.075432 0.000000 0.000000
# 5 0.000000 0.000000 0.000000 0.000000 0.075437 0.000000
# 6 0.000000 0.000000 0.000000 0.000000 0.000000 0.053307
#
#
# Mechanical properties :
#
#
# Convention : Reuss Voigt Hill
#
# Bulk Modulus (GPa) = 67.86942 74.24106 71.05524
# Shear Modulus (GPa) = 19.52631 25.89805 22.71218
#
# Velocity S-wave (km/s) = 3.17052 3.65135 3.41940
# Velocity P-wave (km/s) = 6.95286 7.48304 7.22282
#
# Compressibility (1/GPa) = 0.01473418
#
# Stress axis : x y z
#
# Youngs Moduli (GPa) = 82.80900 82.80838 149.17084
#
# Poissons Ratio (x) = 0.27169 0.35651
# Poissons Ratio (y) = 0.27169 0.35651
# Poissons Ratio (z) = 0.19791 0.19791
#
# Static dielectric constant tensor:
#      x y z
#    x 3.686500 0.000000 0.000000 
#    y 0.000000 3.686590 0.000000 
#    z 0.000000 0.000000 4.114090 
# 
# 
# High freq. dielectric constant tensor:
#      x y z
#    x 1.741090 0.000000 0.000000 
#    y 0.000000 1.741090 0.000000 
#    z 0.000000 0.000000 1.779150 
# 
# From -- ./inp_files/9104.got.cif
#   From: 2010.03.12/outbox.cif.g09.slc.cpg/sg131_5_cif.got.tgz:9104.got - 2010.04.06 17:36:35.
