data_PCOD8316181
_publ_section_title
;
Structure prediction by ZEFSAII (Michael W. Deem and Ramdas Pophale) SiO2 
 PCOD8316181
Probable space group: P 42/M M C
;
_chemical_formula_sum "Si O2"
_cell_formula_units_Z 72
_cell_length_a 14.631759
_cell_length_b 14.631759
_cell_length_c 17.095793
_cell_angle_alpha 90.000000
_cell_angle_beta 90.000000
_cell_angle_gamma 90.000000
_cell_volume 3660.010482
_symmetry_space_group_name_H-M "P 42/M M C"
_symmetry_group_IT_number 131
_symmetry_cell_setting 'tetragonal'
loop_
_space_group_symop_operation_xyz
x,y,z
-x,-y,z
-y,x,1/2+z
y,-x,1/2+z
-x,y,-z
x,-y,-z
y,x,1/2-z
-y,-x,1/2-z
-x,-y,-z
x,y,-z
y,-x,1/2-z
-y,x,1/2-z
x,-y,z
-x,y,z
-y,-x,1/2+z
y,x,1/2+z
loop_
_atom_site_type_symbol
_atom_site_label
_atom_site_fract_x
_atom_site_fract_y
_atom_site_fract_z
Si Si1 0.898903 0.898903 0.750000
Si Si2 0.664235 0.187854 0.588867
Si Si3 0.000000 0.392159 0.159663
Si Si4 0.268746 0.159652 0.846042
Si Si5 0.599378 0.267002 0.264584
Si Si6 0.393222 0.000000 0.152626
O O1 0.821511 0.890854 0.815751
O O2 0.000000 0.889005 0.788403
O O3 0.629498 0.189211 0.500000
O O4 0.764791 0.234269 0.592350
O O5 0.596176 0.247694 0.642525
O O6 0.661100 0.085425 0.622717
O O7 0.000000 0.381713 0.253294
O O8 0.000000 0.500000 0.137181
O O9 0.323235 0.203876 0.773431
O O10 0.340569 0.087880 0.883817
O O11 0.627201 0.372800 0.250000
O O12 0.500000 0.247068 0.227946
O O13 0.500000 0.000000 0.128052
#
# Coordination Sequence:
#
# PCOD8316181 Si02
#       6
#     8  16   8  16  16   8
#     4  11  20  32  56  84 111 148 196 242 279 334
#     4  11  23  36  53  83 125 161 189 235 302 371
#     4  11  21  34  57  91 122 149 187 236 297 366
#     4  11  20  36  57  82 115 155 204 245 293 346
#     4  10  20  35  58  84 112 148 193 245 298 353
#     4  11  20  35  64  92 114 144 204 271 304 336
#
# _framework density 19.672073999999999
#
# number of rings (size 3 to 8) (size 9 to 14) (size 15 to 20)
#    0.000    1.222    6.667    1.667    1.556    2.444 
#    0.000    0.556    0.000   17.333    0.000    9.333 
#    0.000    0.000    0.000    0.000    0.000    0.000 
#
# Total GULP energy -892091.246136 kJ/mol
# GULP energy per Si atom -12390.156196 kJ/mol
# Density = 1.962730 g / cm^3
# Si number density = 19.672074 Si / 1000 Ang^3
#
#
#
# Elastic Constant Matrix: (Units=GPa)
#
#
# Indices 1 2 3 4 5 6 
#
# 1 132.2257 50.8443 11.9132 0.0000 0.0000 0.0000
# 2 50.8443 132.2240 11.9125 0.0000 0.0000 0.0000
# 3 11.9132 11.9125 54.3670 0.0000 0.0000 0.0000
# 4 0.0000 0.0000 0.0000 10.2302 0.0000 0.0000
# 5 0.0000 0.0000 0.0000 0.0000 10.2307 0.0000
# 6 0.0000 0.0000 0.0000 0.0000 0.0000 27.2653
#
#
#
# Elastic Compliance Matrix: (Units=1/GPa)
#
#
# Indices 1 2 3 4 5 6 
#
# 1 0.008955 -0.003333 -0.001232 0.000000 0.000000 0.000000
# 2 -0.003333 0.008955 -0.001232 0.000000 0.000000 0.000000
# 3 -0.001232 -0.001232 0.018933 0.000000 0.000000 0.000000
# 4 0.000000 0.000000 0.000000 0.097749 0.000000 0.000000
# 5 0.000000 0.000000 0.000000 0.000000 0.097745 0.000000
# 6 0.000000 0.000000 0.000000 0.000000 0.000000 0.036677
#
#
# Mechanical properties :
#
#
# Convention : Reuss Voigt Hill
#
# Bulk Modulus (GPa) = 39.60277 52.01740 45.81009
# Shear Modulus (GPa) = 17.29948 25.82168 21.56058
#
# Velocity S-wave (km/s) = 2.96867 3.62692 3.31418
# Velocity P-wave (km/s) = 5.65030 6.63619 6.16299
#
# Compressibility (1/GPa) = 0.02525076
#
# Stress axis : x y z
#
# Youngs Moduli (GPa) = 111.66562 111.66437 52.81656
#
# Poissons Ratio (x) = 0.37213 0.06508
# Poissons Ratio (y) = 0.37214 0.06507
# Poissons Ratio (z) = 0.13758 0.13757
#
# Static dielectric constant tensor:
#      x y z
#    x 3.937610 0.000000 0.000000 
#    y 0.000000 3.937610 0.000000 
#    z 0.000000 0.000000 3.080210 
# 
# 
# High freq. dielectric constant tensor:
#      x y z
#    x 1.778220 0.000000 0.000000 
#    y 0.000000 1.778220 0.000000 
#    z 0.000000 0.000000 1.708990 
# 
# From -- ./inp_files/7648.got.cif
#   From: 2010.03.12/outbox.cif.g09.slc.cpg/sg131_4_cif.got.tgz:7648.got - 2010.04.06 17:36:35.
