data_PCOD8316393
_publ_section_title
;
Structure prediction by ZEFSAII (Michael W. Deem and Ramdas Pophale) SiO2 
 PCOD8316393
Probable space group: P 42/M M C
;
_chemical_formula_sum "Si O2"
_cell_formula_units_Z 56
_cell_length_a 19.202204
_cell_length_b 19.202204
_cell_length_c 9.711440
_cell_angle_alpha 90.000000
_cell_angle_beta 90.000000
_cell_angle_gamma 90.000000
_cell_volume 3580.847203
_symmetry_space_group_name_H-M "P 42/M M C"
_symmetry_group_IT_number 131
_symmetry_cell_setting 'tetragonal'
loop_
_space_group_symop_operation_xyz
x,y,z
-x,-y,z
-y,x,1/2+z
y,-x,1/2+z
-x,y,-z
x,-y,-z
y,x,1/2-z
-y,-x,1/2-z
-x,-y,-z
x,y,-z
y,-x,1/2-z
-y,x,1/2-z
x,-y,z
-x,y,z
-y,-x,1/2+z
y,x,1/2+z
loop_
_atom_site_type_symbol
_atom_site_label
_atom_site_fract_x
_atom_site_fract_y
_atom_site_fract_z
Si Si1 0.125531 0.421193 0.343480
Si Si2 0.173272 0.919840 0.159811
Si Si3 0.000000 0.582101 0.846732
Si Si4 0.804182 0.283234 0.344786
O O1 0.096208 0.417422 0.500000
O O2 0.151180 0.500000 0.310593
O O3 0.188138 0.366452 0.325124
O O4 0.067200 0.394750 0.238328
O O5 0.109363 0.890638 0.250000
O O6 0.243292 0.876056 0.193099
O O7 0.187687 0.000000 0.200226
O O8 0.152425 0.913241 0.000000
O O9 0.000000 0.500000 0.859862
O O10 0.000000 0.615914 0.000000
O O11 0.740880 0.259121 0.250000
O O12 0.782849 0.265119 0.500000
#
# Coordination Sequence:
#
# PCOD8316393 Si02
#       4
#    16  16   8  16
#     4   9  17  29  46  66  87 115 149 181 215 259
#     4   9  18  31  45  60  79 105 138 177 219 258
#     4   9  17  27  39  61  91 117 142 177 218 255
#     4   9  18  31  47  64  87 115 144 178 216 262
#
# _framework density 15.638757999999999
#
# number of rings (size 3 to 8) (size 9 to 14) (size 15 to 20)
#    0.000    3.000    0.000    0.429    2.000    3.714 
#    0.000    1.429    0.000    0.000    0.000    0.000 
#    0.000    0.571    0.000    7.143    0.000    0.000 
#
# Total GULP energy -694127.828051 kJ/mol
# GULP energy per Si atom -12395.139787 kJ/mol
# Density = 1.560316 g / cm^3
# Si number density = 15.638758 Si / 1000 Ang^3
#
#
#
# Elastic Constant Matrix: (Units=GPa)
#
#
# Indices 1 2 3 4 5 6 
#
# 1 81.9303 34.9079 42.8903 0.0000 0.0000 0.0000
# 2 34.9079 81.9264 42.8899 0.0000 0.0000 0.0000
# 3 42.8903 42.8899 81.4452 0.0000 0.0000 0.0000
# 4 0.0000 0.0000 0.0000 19.1280 0.0000 0.0000
# 5 0.0000 0.0000 0.0000 0.0000 19.1286 0.0000
# 6 0.0000 0.0000 0.0000 0.0000 0.0000 14.7922
#
#
#
# Elastic Compliance Matrix: (Units=1/GPa)
#
#
# Indices 1 2 3 4 5 6 
#
# 1 0.017610 -0.003657 -0.007348 0.000000 0.000000 0.000000
# 2 -0.003657 0.017611 -0.007349 0.000000 0.000000 0.000000
# 3 -0.007348 -0.007349 0.020018 0.000000 0.000000 0.000000
# 4 0.000000 0.000000 0.000000 0.052279 0.000000 0.000000
# 5 0.000000 0.000000 0.000000 0.000000 0.052278 0.000000
# 6 0.000000 0.000000 0.000000 0.000000 0.000000 0.067603
#
#
# Mechanical properties :
#
#
# Convention : Reuss Voigt Hill
#
# Bulk Modulus (GPa) = 53.95984 54.07537 54.01760
# Shear Modulus (GPa) = 18.49907 18.91735 18.70821
#
# Velocity S-wave (km/s) = 3.44306 3.48177 3.46247
# Velocity P-wave (km/s) = 7.09824 7.12857 7.11342
#
# Compressibility (1/GPa) = 0.01853230
#
# Stress axis : x y z
#
# Youngs Moduli (GPa) = 56.78518 56.78182 49.95565
#
# Poissons Ratio (x) = 0.20763 0.36708
# Poissons Ratio (y) = 0.20764 0.36711
# Poissons Ratio (z) = 0.41727 0.41727
#
# Static dielectric constant tensor:
#      x y z
#    x 2.822280 0.000000 0.000000 
#    y 0.000000 2.822290 0.000000 
#    z 0.000000 0.000000 3.232760 
# 
# 
# High freq. dielectric constant tensor:
#      x y z
#    x 1.574350 0.000000 0.000000 
#    y 0.000000 1.574350 0.000000 
#    z 0.000000 0.000000 1.609280 
# 
# From -- ./inp_files/1472.got.cif
#   From: 2010.03.12/outbox.cif.g09.slc.cpg/sg131_1_cif.got.tgz:1472.got - 2010.04.06 17:36:35.
