data_PCOD8316034
_publ_section_title
;
Structure prediction by ZEFSAII (Michael W. Deem and Ramdas Pophale) SiO2 
 PCOD8316034
Probable space group: P 42/M M C
;
_chemical_formula_sum "Si O2"
_cell_formula_units_Z 80
_cell_length_a 21.767652
_cell_length_b 21.767652
_cell_length_c 13.333042
_cell_angle_alpha 90.000000
_cell_angle_beta 90.000000
_cell_angle_gamma 90.000000
_cell_volume 6317.604272
_symmetry_space_group_name_H-M "P 42/M M C"
_symmetry_group_IT_number 131
_symmetry_cell_setting 'tetragonal'
loop_
_space_group_symop_operation_xyz
x,y,z
-x,-y,z
-y,x,1/2+z
y,-x,1/2+z
-x,y,-z
x,-y,-z
y,x,1/2-z
-y,-x,1/2-z
-x,-y,-z
x,y,-z
y,-x,1/2-z
-y,x,1/2-z
x,-y,z
-x,y,z
-y,-x,1/2+z
y,x,1/2+z
loop_
_atom_site_type_symbol
_atom_site_label
_atom_site_fract_x
_atom_site_fract_y
_atom_site_fract_z
Si Si1 0.115622 0.856244 0.385525
Si Si2 0.926753 0.429996 0.000000
Si Si3 0.932728 0.000000 0.118748
Si Si4 0.430374 0.926976 0.889259
Si Si5 0.926486 0.779885 0.786184
Si Si6 0.360667 0.927440 0.696219
O O1 0.108928 0.835977 0.500000
O O2 0.060784 0.898715 0.344783
O O3 0.177960 0.894990 0.371288
O O4 0.107978 0.794970 0.318901
O O5 0.900608 0.396322 0.900573
O O6 0.903251 0.500000 0.000000
O O7 0.000000 0.427259 0.000000
O O8 0.000000 0.000000 0.167381
O O9 0.936766 0.000000 0.000000
O O10 0.500000 0.905090 0.869753
O O11 0.388140 0.899548 0.799990
O O12 0.427227 0.000000 0.887829
O O13 0.408288 0.903804 0.000000
O O14 0.909707 0.710392 0.813482
O O15 0.000000 0.790025 0.781358
O O16 0.369428 0.000000 0.698738
#
# Coordination Sequence:
#
# PCOD8316034 Si02
#       6
#    16   8   8  16  16  16
#     4  10  20  32  43  54  69  89 112 151 192 234
#     4   9  16  26  40  58  78  99 117 133 157 200
#     4   9  16  28  44  56  61  77 109 144 197 245
#     4   8  13  22  36  54  74  93 111 130 155 192
#     4  10  20  31  41  57  71  87 115 147 187 232
#     4   9  17  26  38  55  74  94 114 136 167 208
#
# _framework density 12.663028000000001
#
# number of rings (size 3 to 8) (size 9 to 14) (size 15 to 20)
#    0.000    2.800    1.000    1.800    1.400    4.400 
#    0.000    2.000    0.000    0.000    0.000    0.000 
#    0.000    0.000    0.000    0.000    0.000    0.000 
#
# Total GULP energy -991413.081877 kJ/mol
# GULP energy per Si atom -12392.663523 kJ/mol
# Density = 1.263421 g / cm^3
# Si number density = 12.663028 Si / 1000 Ang^3
#
#
#
# Elastic Constant Matrix: (Units=GPa)
#
#
# Indices 1 2 3 4 5 6 
#
# 1 62.7691 14.5132 29.1292 0.0000 0.0000 0.0000
# 2 14.5132 62.7691 29.1292 0.0000 0.0000 0.0000
# 3 29.1292 29.1292 95.2486 0.0000 0.0000 0.0000
# 4 0.0000 0.0000 0.0000 12.3575 0.0000 0.0000
# 5 0.0000 0.0000 0.0000 0.0000 12.3575 0.0000
# 6 0.0000 0.0000 0.0000 0.0000 0.0000 2.2430
#
#
#
# Elastic Compliance Matrix: (Units=1/GPa)
#
#
# Indices 1 2 3 4 5 6 
#
# 1 0.018770 -0.001953 -0.005143 0.000000 0.000000 0.000000
# 2 -0.001953 0.018770 -0.005143 0.000000 0.000000 0.000000
# 3 -0.005143 -0.005143 0.013644 0.000000 0.000000 0.000000
# 4 0.000000 0.000000 0.000000 0.080923 0.000000 0.000000
# 5 0.000000 0.000000 0.000000 0.000000 0.080923 0.000000
# 6 0.000000 0.000000 0.000000 0.000000 0.000000 0.445826
#
#
# Mechanical properties :
#
#
# Convention : Reuss Voigt Hill
#
# Bulk Modulus (GPa) = 37.44488 40.70336 39.07412
# Shear Modulus (GPa) = 7.22298 15.25928 11.24113
#
# Velocity S-wave (km/s) = 2.39089 3.47511 2.98268
# Velocity P-wave (km/s) = 6.10379 6.95091 6.54108
#
# Compressibility (1/GPa) = 0.02670592
#
# Stress axis : x y z
#
# Youngs Moduli (GPa) = 53.27749 53.27749 73.28986
#
# Poissons Ratio (x) = 0.10406 0.37692
# Poissons Ratio (y) = 0.10406 0.37692
# Poissons Ratio (z) = 0.27400 0.27400
#
# Static dielectric constant tensor:
#      x y z
#    x 2.373310 0.000000 0.000000 
#    y 0.000000 2.373310 0.000000 
#    z 0.000000 0.000000 2.819770 
# 
# 
# High freq. dielectric constant tensor:
#      x y z
#    x 1.437930 0.000000 0.000000 
#    y 0.000000 1.437930 0.000000 
#    z 0.000000 0.000000 1.505150 
# 
# From -- ./inp_files/6062.got.cif
#   From: 2010.03.12/outbox.cif.g09.slc.cpg/sg131_4_cif.got.tgz:6062.got - 2010.04.06 17:36:35.
