data_PCOD8316724
_publ_section_title
;
Structure prediction by ZEFSAII (Michael W. Deem and Ramdas Pophale) SiO2 
 PCOD8316724
Probable space group: P 42/M C M
;
_chemical_formula_sum "Si O2"
_cell_formula_units_Z 72
_cell_length_a 10.418171
_cell_length_b 10.418171
_cell_length_c 31.331616
_cell_angle_alpha 90.000000
_cell_angle_beta 90.000000
_cell_angle_gamma 90.000000
_cell_volume 3400.679929
_symmetry_space_group_name_H-M "P 42/M C M"
_symmetry_group_IT_number 132
_symmetry_cell_setting 'tetragonal'
loop_
_space_group_symop_operation_xyz
x,y,z
-y,x,1/2+z
-x,-y,z
y,-x,1/2+z
x,-y,1/2-z
-x,y,1/2-z
y,x,-z
-y,-x,-z
-x,-y,-z
y,-x,1/2-z
x,y,-z
-y,x,1/2-z
-x,y,1/2+z
x,-y,1/2+z
-y,-x,z
y,x,z
loop_
_atom_site_type_symbol
_atom_site_label
_atom_site_fract_x
_atom_site_fract_y
_atom_site_fract_z
Si Si1 0.888244 0.325420 0.668809
Si Si2 0.000445 0.799663 0.908017
Si Si3 0.504435 0.292830 0.126125
Si Si4 0.786426 0.000000 0.750000
Si Si5 0.876094 0.414540 0.047394
O O1 0.793243 0.206758 0.669329
O O2 0.979989 0.308722 0.627973
O O3 0.812129 0.460814 0.662158
O O4 0.971660 0.314095 0.711711
O O5 0.866516 0.866516 0.923250
O O6 0.074024 0.731376 0.946801
O O7 0.091312 0.908689 0.887990
O O8 0.623795 0.376206 0.144584
O O9 0.383609 0.383609 0.115858
O O10 0.545721 0.230811 0.081475
O O11 0.877184 0.877184 0.739502
O O12 0.000000 0.500000 0.052860
O O13 0.815910 0.426843 0.000000
#
# Coordination Sequence:
#
# PCOD8316724 Si02
#       5
#    16  16  16   8  16
#     4   9  17  32  54  86 123 154 190 235 288 352
#     4  10  20  35  57  84 117 154 188 233 300 366
#     4  10  21  38  60  85 119 164 207 247 293 346
#     4   9  16  28  54  93 130 156 182 230 296 362
#     4  11  23  38  58  84 116 155 202 256 303 349
#
# _framework density 21.172235000000001
#
# number of rings (size 3 to 8) (size 9 to 14) (size 15 to 20)
#    0.000    2.111    2.222    1.333    0.000    5.333 
#    0.000    4.444    0.000    2.667    0.000    9.333 
#    0.000   12.444    0.000    0.000    0.000    0.000 
#
# Total GULP energy -892199.102072 kJ/mol
# GULP energy per Si atom -12391.654195 kJ/mol
# Density = 2.112405 g / cm^3
# Si number density = 21.172235 Si / 1000 Ang^3
#
#
#
# Elastic Constant Matrix: (Units=GPa)
#
#
# Indices 1 2 3 4 5 6 
#
# 1 93.7616 50.9657 52.7120 0.0000 0.0000 0.0000
# 2 50.9657 93.7616 52.7120 0.0000 0.0000 0.0000
# 3 52.7120 52.7120 110.3415 0.0000 0.0000 0.0000
# 4 0.0000 0.0000 0.0000 4.1786 0.0000 0.0000
# 5 0.0000 0.0000 0.0000 0.0000 4.1786 0.0000
# 6 0.0000 0.0000 0.0000 0.0000 0.0000 40.4141
#
#
#
# Elastic Compliance Matrix: (Units=1/GPa)
#
#
# Indices 1 2 3 4 5 6 
#
# 1 0.016982 -0.006385 -0.005062 0.000000 0.000000 0.000000
# 2 -0.006385 0.016982 -0.005062 0.000000 0.000000 0.000000
# 3 -0.005062 -0.005062 0.013900 0.000000 0.000000 0.000000
# 4 0.000000 0.000000 0.000000 0.239316 0.000000 0.000000
# 5 0.000000 0.000000 0.000000 0.000000 0.239316 0.000000
# 6 0.000000 0.000000 0.000000 0.000000 0.000000 0.024744
#
#
# Mechanical properties :
#
#
# Convention : Reuss Voigt Hill
#
# Bulk Modulus (GPa) = 67.36647 67.84933 67.60790
# Shear Modulus (GPa) = 8.48599 19.18592 13.83596
#
# Velocity S-wave (km/s) = 2.00419 3.01355 2.55913
# Velocity P-wave (km/s) = 6.10271 6.65016 6.38231
#
# Compressibility (1/GPa) = 0.01484418
#
# Stress axis : x y z
#
# Youngs Moduli (GPa) = 58.88596 58.88596 71.94441
#
# Poissons Ratio (x) = 0.37597 0.36422
# Poissons Ratio (y) = 0.37597 0.36422
# Poissons Ratio (z) = 0.29811 0.29811
#
# Static dielectric constant tensor:
#      x y z
#    x 3.904750 0.000000 0.000000 
#    y 0.000000 3.904750 0.000000 
#    z 0.000000 0.000000 3.777530 
# 
# 
# High freq. dielectric constant tensor:
#      x y z
#    x 1.835290 0.000000 0.000000 
#    y 0.000000 1.835290 0.000000 
#    z 0.000000 0.000000 1.798870 
# 
# From -- ./inp_files/9732.got.cif
#   From: 2010.03.12/outbox.cif.g09.slc.cpg/sg132_5_cif.got.tgz:9732.got - 2010.04.06 17:53:44.
