data_PCOD8316289
_publ_section_title
;
Structure prediction by ZEFSAII (Michael W. Deem and Ramdas Pophale) SiO2 
 PCOD8316289
Probable space group: P 42/M M C
;
_chemical_formula_sum "Si O2"
_cell_formula_units_Z 34
_cell_length_a 7.665949
_cell_length_b 7.665949
_cell_length_c 27.666578
_cell_angle_alpha 90.000000
_cell_angle_beta 90.000000
_cell_angle_gamma 90.000000
_cell_volume 1625.875539
_symmetry_space_group_name_H-M "P 42/M M C"
_symmetry_group_IT_number 131
_symmetry_cell_setting 'tetragonal'
loop_
_space_group_symop_operation_xyz
x,y,z
-x,-y,z
-y,x,1/2+z
y,-x,1/2+z
-x,y,-z
x,-y,-z
y,x,1/2-z
-y,-x,1/2-z
-x,-y,-z
x,y,-z
y,-x,1/2-z
-y,x,1/2-z
x,-y,z
-x,y,z
-y,-x,1/2+z
y,x,1/2+z
loop_
_atom_site_type_symbol
_atom_site_label
_atom_site_fract_x
_atom_site_fract_y
_atom_site_fract_z
Si Si1 0.205369 0.193374 0.602283
Si Si2 0.500000 0.500000 0.750000
Si Si3 0.208719 0.500000 0.671620
Si Si4 0.294490 0.198281 0.000000
O O1 0.271857 0.331271 0.641459
O O2 0.290006 0.224180 0.549048
O O3 0.000000 0.220981 0.597083
O O4 0.254875 0.000000 0.620609
O O5 0.319849 0.500000 0.720280
O O6 0.000000 0.500000 0.682820
O O7 0.500000 0.209348 0.000000
O O8 0.227054 0.000000 0.000000
#
# Coordination Sequence:
#
# PCOD8316289 Si02
#       4
#    16   2   8   8
#     4   9  16  28  51  83 118 155 191 229 277 335
#     4  12  28  44  64  86 104 144 192 244 312 354
#     4  10  22  41  60  82 111 142 187 242 292 346
#     4   9  13  21  43  80 124 161 191 225 266 324
#
# _framework density 20.911812000000001
#
# number of rings (size 3 to 8) (size 9 to 14) (size 15 to 20)
#    0.000    2.588    2.353    0.706    0.000    4.706 
#    0.000    0.000    0.000    2.824    0.000    3.294 
#    0.000    0.000    0.000    0.000    0.000    0.000 
#
# Total GULP energy -421345.646069 kJ/mol
# GULP energy per Si atom -12392.519002 kJ/mol
# Density = 2.086422 g / cm^3
# Si number density = 20.911812 Si / 1000 Ang^3
#
#
#
# Elastic Constant Matrix: (Units=GPa)
#
#
# Indices 1 2 3 4 5 6 
#
# 1 95.2869 25.3674 64.7076 0.0000 0.0000 0.0000
# 2 25.3674 95.2869 64.7076 0.0000 0.0000 0.0000
# 3 64.7076 64.7076 164.0241 0.0000 0.0000 0.0000
# 4 0.0000 0.0000 0.0000 -91.1397 0.0000 0.0000
# 5 0.0000 0.0000 0.0000 0.0000 -91.1397 0.0000
# 6 0.0000 0.0000 0.0000 0.0000 0.0000 6.4119
#
#
#
# Elastic Compliance Matrix: (Units=1/GPa)
#
#
# Indices 1 2 3 4 5 6 
#
# 1 0.014335 0.000033 -0.005668 0.000000 0.000000 0.000000
# 2 0.000033 0.014335 -0.005668 0.000000 0.000000 0.000000
# 3 -0.005668 -0.005668 0.010569 0.000000 0.000000 0.000000
# 4 0.000000 0.000000 0.000000 -0.010972 0.000000 0.000000
# 5 0.000000 0.000000 0.000000 0.000000 -0.010972 0.000000
# 6 0.000000 0.000000 0.000000 0.000000 0.000000 0.155960
#
#
# Mechanical properties :
#
#
# Convention : Reuss Voigt Hill
#
# Bulk Modulus (GPa) = 60.12501 73.79592 66.96046
# Shear Modulus (GPa) = 24.82559 -21.85250 1.48655
#
# Velocity S-wave (km/s) = 3.44925 -3.23613 0.84404
# Velocity P-wave (km/s) = 6.68410 4.62627 5.74802
#
# Compressibility (1/GPa) = 0.01663201
#
# Stress axis : x y z
#
# Youngs Moduli (GPa) = 69.75930 69.75930 94.61788
#
# Poissons Ratio (x) = -0.00229 0.53631
# Poissons Ratio (y) = -0.00229 0.53631
# Poissons Ratio (z) = 0.39540 0.39540
#
# Static dielectric constant tensor:
#      x y z
#    x 3.523900 0.000000 0.000000 
#    y 0.000000 3.523900 0.000000 
#    z 0.000000 0.000000 3.780050 
# 
# 
# High freq. dielectric constant tensor:
#      x y z
#    x 1.800880 0.000000 0.000000 
#    y 0.000000 1.800880 0.000000 
#    z 0.000000 0.000000 1.807340 
# 
# From -- ./inp_files/8646.got.cif
#   From: 2010.03.12/outbox.cif.g09.slc.cpg/sg131_5_cif.got.tgz:8646.got - 2010.04.06 17:36:35.
