data_PCOD8316828
_publ_section_title
;
Structure prediction by ZEFSAII (Michael W. Deem and Ramdas Pophale) SiO2 
 PCOD8316828
Probable space group: P 42/M C M
;
_chemical_formula_sum "Si O2"
_cell_formula_units_Z 120
_cell_length_a 19.739659
_cell_length_b 19.739659
_cell_length_c 16.423954
_cell_angle_alpha 90.000000
_cell_angle_beta 90.000000
_cell_angle_gamma 90.000000
_cell_volume 6399.661629
_symmetry_space_group_name_H-M "P 42/M C M"
_symmetry_group_IT_number 132
_symmetry_cell_setting 'tetragonal'
loop_
_space_group_symop_operation_xyz
x,y,z
-y,x,1/2+z
-x,-y,z
y,-x,1/2+z
x,-y,1/2-z
-x,y,1/2-z
y,x,-z
-y,-x,-z
-x,-y,-z
y,-x,1/2-z
x,y,-z
-y,x,1/2-z
-x,y,1/2+z
x,-y,1/2+z
-y,-x,z
y,x,z
loop_
_atom_site_type_symbol
_atom_site_label
_atom_site_fract_x
_atom_site_fract_y
_atom_site_fract_z
Si Si1 0.224497 0.605784 0.669232
Si Si2 0.366502 0.256748 0.656254
Si Si3 0.498280 0.691304 0.410273
Si Si4 0.379236 0.114646 0.405061
Si Si5 0.655343 0.969797 0.095792
Si Si6 0.906118 0.523773 0.833270
Si Si7 0.500000 0.392614 0.750000
Si Si8 0.159214 0.265698 0.903734
O O1 0.271333 0.612134 0.750010
O O2 0.256839 0.564341 0.594467
O O3 0.160763 0.561951 0.697768
O O4 0.208681 0.680370 0.637335
O O5 0.302749 0.302749 0.631796
O O6 0.429065 0.272782 0.597043
O O7 0.347404 0.177736 0.644515
O O8 0.495332 0.656138 0.500000
O O9 0.484440 0.644587 0.333606
O O10 0.366873 0.126884 0.500000
O O11 0.459829 0.107568 0.391310
O O12 0.336841 0.047818 0.374583
O O13 0.578963 0.950615 0.120222
O O14 0.715427 0.918014 0.127132
O O15 0.657546 0.967828 0.000000
O O16 0.942820 0.500000 0.750000
O O17 0.435175 0.435175 0.725827
O O18 0.190117 0.190117 0.881126
O O19 0.161992 0.275205 0.000000
#
# Coordination Sequence:
#
# PCOD8316828 Si02
#       8
#    16  16  16  16  16  16   8  16
#     4  11  20  37  55  80 110 139 174 228 280 327
#     4  12  24  39  57  78 108 144 186 233 280 330
#     4  12  24  40  62  84 105 136 181 230 287 348
#     4  11  22  36  51  75 108 143 183 221 268 328
#     4   9  20  34  51  75 109 145 175 220 272 321
#     4  11  19  33  51  77 105 138 177 214 264 323
#     4  11  26  46  62  78 102 129 168 232 300 359
#     4   9  18  33  54  80 108 142 183 222 269 329
#
# _framework density 18.750990999999999
#
# number of rings (size 3 to 8) (size 9 to 14) (size 15 to 20)
#    0.000    1.267    4.000    2.400    0.000    5.867 
#    0.000    0.667    0.000    0.000    0.000    0.000 
#    0.000    0.533    0.000    5.200    0.000    6.400 
#
# Total GULP energy -1486579.573947 kJ/mol
# GULP energy per Si atom -12388.163116 kJ/mol
# Density = 1.870831 g / cm^3
# Si number density = 18.750991 Si / 1000 Ang^3
#
#
#
# Elastic Constant Matrix: (Units=GPa)
#
#
# Indices 1 2 3 4 5 6 
#
# 1 90.2831 46.4490 19.7481 0.0000 0.0000 0.0000
# 2 46.4490 90.2831 19.7481 0.0000 0.0000 0.0000
# 3 19.7481 19.7481 65.6578 0.0000 0.0000 0.0000
# 4 0.0000 0.0000 0.0000 12.2282 0.0000 0.0000
# 5 0.0000 0.0000 0.0000 0.0000 12.2282 0.0000
# 6 0.0000 0.0000 0.0000 0.0000 0.0000 32.7580
#
#
#
# Elastic Compliance Matrix: (Units=1/GPa)
#
#
# Indices 1 2 3 4 5 6 
#
# 1 0.015411 -0.007402 -0.002409 0.000000 0.000000 0.000000
# 2 -0.007402 0.015411 -0.002409 0.000000 0.000000 0.000000
# 3 -0.002409 -0.002409 0.016680 0.000000 0.000000 0.000000
# 4 0.000000 0.000000 0.000000 0.081778 0.000000 0.000000
# 5 0.000000 0.000000 0.000000 0.000000 0.081778 0.000000
# 6 0.000000 0.000000 0.000000 0.000000 0.000000 0.030527
#
#
# Mechanical properties :
#
#
# Convention : Reuss Voigt Hill
#
# Bulk Modulus (GPa) = 43.36064 46.45718 44.90891
# Shear Modulus (GPa) = 18.26727 22.12812 20.19770
#
# Velocity S-wave (km/s) = 3.12461 3.43899 3.28556
# Velocity P-wave (km/s) = 6.01600 6.37170 6.19640
#
# Compressibility (1/GPa) = 0.02306239
#
# Stress axis : x y z
#
# Youngs Moduli (GPa) = 64.88716 64.88716 59.95340
#
# Poissons Ratio (x) = 0.48029 0.14443
# Poissons Ratio (y) = 0.48029 0.14443
# Poissons Ratio (z) = 0.15631 0.15631
#
# Static dielectric constant tensor:
#      x y z
#    x 3.599130 0.000000 0.000000 
#    y 0.000000 3.599130 0.000000 
#    z 0.000000 0.000000 3.416430 
# 
# 
# High freq. dielectric constant tensor:
#      x y z
#    x 1.705830 0.000000 0.000000 
#    y 0.000000 1.705830 0.000000 
#    z 0.000000 0.000000 1.733610 
# 
# From -- ./inp_files/5120.got.cif
#   From: 2010.03.12/outbox.cif.g09.slc.cpg/sg132_3_cif.got.tgz:5120.got - 2010.04.06 17:53:44.
