data_PCOD8316754
_publ_section_title
;
Structure prediction by ZEFSAII (Michael W. Deem and Ramdas Pophale) SiO2 
 PCOD8316754
Probable space group: P 42/M C M
;
_chemical_formula_sum "Si O2"
_cell_formula_units_Z 52
_cell_length_a 13.779127
_cell_length_b 13.779127
_cell_length_c 13.639994
_cell_angle_alpha 90.000000
_cell_angle_beta 90.000000
_cell_angle_gamma 90.000000
_cell_volume 2589.748470
_symmetry_space_group_name_H-M "P 42/M C M"
_symmetry_group_IT_number 132
_symmetry_cell_setting 'tetragonal'
loop_
_space_group_symop_operation_xyz
x,y,z
-y,x,1/2+z
-x,-y,z
y,-x,1/2+z
x,-y,1/2-z
-x,y,1/2-z
y,x,-z
-y,-x,-z
-x,-y,-z
y,-x,1/2-z
x,y,-z
-y,x,1/2-z
-x,y,1/2+z
x,-y,1/2+z
-y,-x,z
y,x,z
loop_
_atom_site_type_symbol
_atom_site_label
_atom_site_fract_x
_atom_site_fract_y
_atom_site_fract_z
Si Si1 0.396576 0.603424 0.500000
Si Si2 0.579233 0.267908 0.000000
Si Si3 0.143683 0.856318 0.613358
Si Si4 0.592956 0.847215 0.304712
Si Si5 0.703837 0.703837 0.825553
Si Si6 0.000000 0.252871 0.250000
O O1 0.363042 0.490848 0.500000
O O2 0.355254 0.644747 0.402072
O O3 0.563118 0.194414 0.909981
O O4 0.688662 0.311339 0.000000
O O5 0.118500 0.881501 0.500000
O O6 0.225411 0.774590 0.615538
O O7 0.049136 0.816138 0.669131
O O8 0.500000 0.894596 0.250000
O O9 0.626562 0.757415 0.240661
O O10 0.679934 0.925204 0.310595
#
# Coordination Sequence:
#
# PCOD8316754 Si02
#       6
#     4   8   8  16   8   8
#     4  12  21  38  62  94 128 175 230 250 306 383
#     4  12  25  38  64  96 135 179 222 261 323 380
#     4  10  22  43  68  95 126 163 210 263 334 411
#     4  11  22  41  62  93 132 169 219 275 320 386
#     4  10  20  38  61  85 129 175 208 256 323 374
#     4  10  25  43  66  96 128 166 216 273 337 398
#
# _framework density 20.079167999999999
#
# number of rings (size 3 to 8) (size 9 to 14) (size 15 to 20)
#    0.000    1.231    5.385    0.692    2.154    0.308 
#    0.000    3.077    0.000    0.000    0.000    0.000 
#    0.000    0.000    0.000    0.000    0.000    0.000 
#
# Total GULP energy -644618.790554 kJ/mol
# GULP energy per Si atom -12396.515203 kJ/mol
# Density = 2.003347 g / cm^3
# Si number density = 20.079168 Si / 1000 Ang^3
#
#
#
# Elastic Constant Matrix: (Units=GPa)
#
#
# Indices 1 2 3 4 5 6 
#
# 1 101.7120 44.6528 62.4853 0.0000 0.0000 0.0000
# 2 44.6528 101.7129 62.4855 0.0000 0.0000 0.0000
# 3 62.4853 62.4855 154.8460 0.0000 0.0000 0.0000
# 4 0.0000 0.0000 0.0000 16.8064 0.0000 0.0000
# 5 0.0000 0.0000 0.0000 0.0000 16.8060 0.0000
# 6 0.0000 0.0000 0.0000 0.0000 0.0000 46.3509
#
#
#
# Elastic Compliance Matrix: (Units=1/GPa)
#
#
# Indices 1 2 3 4 5 6 
#
# 1 0.013975 -0.003551 -0.004206 0.000000 0.000000 0.000000
# 2 -0.003551 0.013975 -0.004206 0.000000 0.000000 0.000000
# 3 -0.004206 -0.004206 0.009853 0.000000 0.000000 0.000000
# 4 0.000000 0.000000 0.000000 0.059501 0.000000 0.000000
# 5 0.000000 0.000000 0.000000 0.000000 0.059502 0.000000
# 6 0.000000 0.000000 0.000000 0.000000 0.000000 0.021575
#
#
# Mechanical properties :
#
#
# Convention : Reuss Voigt Hill
#
# Bulk Modulus (GPa) = 72.07225 77.50199 74.78712
# Shear Modulus (GPa) = 24.16249 28.56913 26.36581
#
# Velocity S-wave (km/s) = 3.47271 3.77613 3.62759
# Velocity P-wave (km/s) = 7.21468 7.59567 7.40762
#
# Compressibility (1/GPa) = 0.01387497
#
# Stress axis : x y z
#
# Youngs Moduli (GPa) = 71.55806 71.55873 101.49418
#
# Poissons Ratio (x) = 0.25410 0.42692
# Poissons Ratio (y) = 0.25410 0.42691
# Poissons Ratio (z) = 0.30100 0.30100
#
# Static dielectric constant tensor:
#      x y z
#    x 3.660550 0.000000 0.000000 
#    y 0.000000 3.660550 0.000000 
#    z 0.000000 0.000000 3.482340 
# 
# 
# High freq. dielectric constant tensor:
#      x y z
#    x 1.786770 0.000000 0.000000 
#    y 0.000000 1.786770 0.000000 
#    z 0.000000 0.000000 1.786090 
# 
# From -- ./inp_files/2940.got.cif
#   From: 2010.03.12/outbox.cif.g09.slc.cpg/sg132_2_cif.got.tgz:2940.got - 2010.04.06 17:53:44.
