data_PCOD8316953
_publ_section_title
;
Structure prediction by ZEFSAII (Michael W. Deem and Ramdas Pophale) SiO2 
 PCOD8316953
Probable space group: P 42/N B C
;
_chemical_formula_sum "Si O2"
_cell_formula_units_Z 96
_cell_length_a 24.748730
_cell_length_b 24.748730
_cell_length_c 8.818102
_cell_angle_alpha 90.000000
_cell_angle_beta 90.000000
_cell_angle_gamma 90.000000
_cell_volume 5401.084271
_symmetry_space_group_name_H-M "P 42/N B C"
_symmetry_group_IT_number 133
_space_group.IT_coordinate_system_code '2'
_symmetry_cell_setting 'tetragonal'
loop_
_space_group_symop_operation_xyz
x,y,z
1/2-y,x,1/2+z
1/2-x,1/2-y,z
y,1/2-x,1/2+z
x,1/2-y,-z
1/2-x,y,-z
y,x,1/2-z
1/2-y,1/2-x,1/2-z
-x,-y,-z
1/2+y,-x,1/2-z
1/2+x,1/2+y,-z
-y,1/2+x,1/2-z
-x,1/2+y,z
1/2+x,-y,z
-y,-x,1/2+z
1/2+y,1/2+x,1/2+z
loop_
_atom_site_type_symbol
_atom_site_label
_atom_site_fract_x
_atom_site_fract_y
_atom_site_fract_z
Si Si1 0.615303 0.220801 0.142895
Si Si2 0.139684 0.794456 0.621768
Si Si3 0.804404 0.010140 0.192301
Si Si4 0.985900 0.314107 0.648821
Si Si5 0.923747 0.006582 0.681699
Si Si6 0.084946 0.003840 0.676580
O O1 0.651123 0.171460 0.085496
O O2 0.654061 0.266567 0.216862
O O3 0.574116 0.198397 0.269811
O O4 0.585472 0.250000 0.000000
O O5 0.154237 0.750000 0.500000
O O6 0.077475 0.809568 0.630437
O O7 0.742478 0.988690 0.214816
O O8 0.850642 0.986342 0.302514
O O9 0.823997 0.994466 0.023229
O O10 0.001202 0.362537 0.760951
O O11 0.957780 0.957780 0.750000
O O12 0.949609 0.063502 0.737711
O O13 0.926895 0.002957 0.500751
O O14 0.054938 0.054938 0.750000
#
# Coordination Sequence:
#
# PCOD8316953 Si02
#       6
#    16  16  16  16  16  16
#     4  11  23  31  51  66  93 128 180 226 273 324
#     4  11  21  37  45  66  93 133 173 227 277 314
#     4  10  21  37  53  75 104 137 176 221 270 325
#     4  10  20  38  55  72 105 139 174 220 273 325
#     4  11  22  36  58  81 109 141 180 224 278 332
#     4  11  22  36  57  82 110 140 179 226 275 333
#
# _framework density 17.774208999999999
#
# number of rings (size 3 to 8) (size 9 to 14) (size 15 to 20)
#    0.000    1.333    3.333    6.000    4.667    2.000 
#    0.000    0.000    0.000    0.000    0.000    0.000 
#    0.000    0.667    0.000    7.000    0.000    3.000 
#
# Total GULP energy -1189304.229949 kJ/mol
# GULP energy per Si atom -12388.585729 kJ/mol
# Density = 1.773375 g / cm^3
# Si number density = 17.774209 Si / 1000 Ang^3
#
#
#
# Elastic Constant Matrix: (Units=GPa)
#
#
# Indices 1 2 3 4 5 6 
#
# 1 69.2970 16.2870 28.4970 0.0000 0.0000 0.0000
# 2 16.2870 69.2970 28.4970 0.0000 0.0000 0.0000
# 3 28.4970 28.4970 121.3628 0.0000 0.0000 0.0000
# 4 0.0000 0.0000 0.0000 28.5049 0.0000 0.0000
# 5 0.0000 0.0000 0.0000 0.0000 28.5049 0.0000
# 6 0.0000 0.0000 0.0000 0.0000 0.0000 21.5179
#
#
#
# Elastic Compliance Matrix: (Units=1/GPa)
#
#
# Indices 1 2 3 4 5 6 
#
# 1 0.016357 -0.002507 -0.003252 0.000000 0.000000 0.000000
# 2 -0.002507 0.016357 -0.003252 0.000000 0.000000 0.000000
# 3 -0.003252 -0.003252 0.009767 0.000000 0.000000 0.000000
# 4 0.000000 0.000000 0.000000 0.035082 0.000000 0.000000
# 5 0.000000 0.000000 0.000000 0.000000 0.035082 0.000000
# 6 0.000000 0.000000 0.000000 0.000000 0.000000 0.046473
#
#
# Mechanical properties :
#
#
# Convention : Reuss Voigt Hill
#
# Bulk Modulus (GPa) = 40.88508 45.16877 43.02693
# Shear Modulus (GPa) = 26.98420 28.15057 27.56738
#
# Velocity S-wave (km/s) = 3.90059 3.98400 3.94252
# Velocity P-wave (km/s) = 6.58320 6.82867 6.70706
#
# Compressibility (1/GPa) = 0.02445880
#
# Stress axis : x y z
#
# Youngs Moduli (GPa) = 61.13487 61.13487 102.38536
#
# Poissons Ratio (x) = 0.15327 0.33297
# Poissons Ratio (y) = 0.15327 0.33297
# Poissons Ratio (z) = 0.19882 0.19882
#
# Static dielectric constant tensor:
#      x y z
#    x 3.199060 0.000000 0.000000 
#    y 0.000000 3.199060 0.000000 
#    z 0.000000 0.000000 3.563650 
# 
# 
# High freq. dielectric constant tensor:
#      x y z
#    x 1.657560 0.000000 0.000000 
#    y 0.000000 1.657560 0.000000 
#    z 0.000000 0.000000 1.711120 
# 
# From -- ./inp_files/2031.got.cif
#   From: 2010.03.12/outbox.cif.g09.slc.cpg/sg133_2_cif.got.tgz:2031.got - 2010.04.06 18:08:06.
