data_PCOD8316461
_publ_section_title
;
Structure prediction by ZEFSAII (Michael W. Deem and Ramdas Pophale) SiO2 
 PCOD8316461
Probable space group: P 42/M C M
;
_chemical_formula_sum "Si O2"
_cell_formula_units_Z 96
_cell_length_a 20.812655
_cell_length_b 20.812655
_cell_length_c 15.709827
_cell_angle_alpha 90.000000
_cell_angle_beta 90.000000
_cell_angle_gamma 90.000000
_cell_volume 6804.972476
_symmetry_space_group_name_H-M "P 42/M C M"
_symmetry_group_IT_number 132
_symmetry_cell_setting 'tetragonal'
loop_
_space_group_symop_operation_xyz
x,y,z
-y,x,1/2+z
-x,-y,z
y,-x,1/2+z
x,-y,1/2-z
-x,y,1/2-z
y,x,-z
-y,-x,-z
-x,-y,-z
y,-x,1/2-z
x,y,-z
-y,x,1/2-z
-x,y,1/2+z
x,-y,1/2+z
-y,-x,z
y,x,z
loop_
_atom_site_type_symbol
_atom_site_label
_atom_site_fract_x
_atom_site_fract_y
_atom_site_fract_z
Si Si1 0.081279 0.649010 0.906295
Si Si2 0.880476 0.018626 0.094768
Si Si3 0.801843 0.904504 0.833214
Si Si4 0.781557 0.882132 0.357130
Si Si5 0.068067 0.665734 0.596312
Si Si6 0.076300 0.428031 0.753459
O O1 0.124494 0.712343 0.899622
O O2 0.104829 0.601298 0.833216
O O3 0.007929 0.669014 0.890380
O O4 0.090261 0.617607 0.000000
O O5 0.945117 0.054884 0.131531
O O6 0.824605 0.071097 0.086260
O O7 0.855907 0.959248 0.151059
O O8 0.895027 0.992766 0.000000
O O9 0.835831 0.835831 0.848479
O O10 0.777576 0.912619 0.737020
O O11 0.738529 0.906965 0.891688
O O12 0.810869 0.810869 0.354316
O O13 0.085788 0.643648 0.500000
O O14 0.097919 0.613926 0.663567
O O15 0.104757 0.500000 0.750000
O O16 0.000000 0.430702 0.750000
#
# Coordination Sequence:
#
# PCOD8316461 Si02
#       6
#    16  16  16  16  16  16
#     4  10  18  29  47  64  80 102 129 160 200 248
#     4  10  20  31  42  57  75  98 133 174 214 253
#     4  11  21  31  44  59  77 105 140 171 206 253
#     4  10  19  30  44  59  77 101 132 170 206 247
#     4  10  19  30  45  62  82 105 129 160 199 245
#     4   9  18  31  46  63  83 101 121 153 195 247
#
# _framework density 14.107331
#
# number of rings (size 3 to 8) (size 9 to 14) (size 15 to 20)
#    0.000    2.000    3.333    1.500    0.000    3.333 
#    0.000    4.167    0.000    3.000    0.000    0.000 
#    0.000    0.000    0.000    0.000    0.000    0.000 
#
# Total GULP energy -1189726.373315 kJ/mol
# GULP energy per Si atom -12392.983055 kJ/mol
# Density = 1.407522 g / cm^3
# Si number density = 14.107331 Si / 1000 Ang^3
#
#
#
# Elastic Constant Matrix: (Units=GPa)
#
#
# Indices 1 2 3 4 5 6 
#
# 1 57.9887 18.6390 29.7648 0.0000 0.0000 0.0000
# 2 18.6390 57.9887 29.7648 0.0000 0.0000 0.0000
# 3 29.7648 29.7648 102.9585 0.0000 0.0000 0.0000
# 4 0.0000 0.0000 0.0000 8.4324 0.0000 0.0000
# 5 0.0000 0.0000 0.0000 0.0000 8.4324 0.0000
# 6 0.0000 0.0000 0.0000 0.0000 0.0000 5.7747
#
#
#
# Elastic Compliance Matrix: (Units=1/GPa)
#
#
# Indices 1 2 3 4 5 6 
#
# 1 0.021122 -0.004292 -0.004865 0.000000 0.000000 0.000000
# 2 -0.004292 0.021122 -0.004865 0.000000 0.000000 0.000000
# 3 -0.004865 -0.004865 0.012526 0.000000 0.000000 0.000000
# 4 0.000000 0.000000 0.000000 0.118590 0.000000 0.000000
# 5 0.000000 0.000000 0.000000 0.000000 0.118590 0.000000
# 6 0.000000 0.000000 0.000000 0.000000 0.000000 0.173170
#
#
# Mechanical properties :
#
#
# Convention : Reuss Voigt Hill
#
# Bulk Modulus (GPa) = 37.41975 41.69700 39.55837
# Shear Modulus (GPa) = 9.95872 13.91239 11.93556
#
# Velocity S-wave (km/s) = 2.65981 3.14376 2.91186
# Velocity P-wave (km/s) = 6.00128 6.54208 6.27751
#
# Compressibility (1/GPa) = 0.02672386
#
# Stress axis : x y z
#
# Youngs Moduli (GPa) = 47.34508 47.34508 79.83530
#
# Poissons Ratio (x) = 0.20319 0.38843
# Poissons Ratio (y) = 0.20319 0.38843
# Poissons Ratio (z) = 0.23035 0.23035
#
# Static dielectric constant tensor:
#      x y z
#    x 2.567940 0.000000 0.000000 
#    y 0.000000 2.567940 0.000000 
#    z 0.000000 0.000000 2.983910 
# 
# 
# High freq. dielectric constant tensor:
#      x y z
#    x 1.494760 0.000000 0.000000 
#    y 0.000000 1.494760 0.000000 
#    z 0.000000 0.000000 1.560450 
# 
# From -- ./inp_files/4976.got.cif
#   From: 2010.03.12/outbox.cif.g09.slc.cpg/sg132_3_cif.got.tgz:4976.got - 2010.04.06 17:53:44.
