data_PCOD8316814
_publ_section_title
;
Structure prediction by ZEFSAII (Michael W. Deem and Ramdas Pophale) SiO2 
 PCOD8316814
Probable space group: P 42/M C M
;
_chemical_formula_sum "Si O2"
_cell_formula_units_Z 96
_cell_length_a 23.121482
_cell_length_b 23.121482
_cell_length_c 8.937074
_cell_angle_alpha 90.000000
_cell_angle_beta 90.000000
_cell_angle_gamma 90.000000
_cell_volume 4777.785945
_symmetry_space_group_name_H-M "P 42/M C M"
_symmetry_group_IT_number 132
_symmetry_cell_setting 'tetragonal'
loop_
_space_group_symop_operation_xyz
x,y,z
-y,x,1/2+z
-x,-y,z
y,-x,1/2+z
x,-y,1/2-z
-x,y,1/2-z
y,x,-z
-y,-x,-z
-x,-y,-z
y,-x,1/2-z
x,y,-z
-y,x,1/2-z
-x,y,1/2+z
x,-y,1/2+z
-y,-x,z
y,x,z
loop_
_atom_site_type_symbol
_atom_site_label
_atom_site_fract_x
_atom_site_fract_y
_atom_site_fract_z
Si Si1 0.437426 0.270528 0.824991
Si Si2 0.061697 0.841526 0.822842
Si Si3 0.749557 0.749557 0.324177
Si Si4 0.947802 0.560731 0.328496
Si Si5 0.655655 0.344346 0.178180
Si Si6 0.147962 0.613430 0.663283
Si Si7 0.131349 0.257492 0.166278
O O1 0.500000 0.259295 0.750000
O O2 0.406186 0.325324 0.746762
O O3 0.393836 0.216006 0.800172
O O4 0.446407 0.283688 0.000000
O O5 0.107303 0.892698 0.786900
O O6 0.084249 0.781223 0.753105
O O7 0.000000 0.857781 0.750000
O O8 0.053959 0.833407 0.000000
O O9 0.752655 0.752655 0.500000
O O10 0.702922 0.702922 0.270632
O O11 0.811653 0.735264 0.262177
O O12 0.947787 0.500000 0.250000
O O13 0.961720 0.555672 0.500000
O O14 0.884319 0.585243 0.302260
O O15 0.000000 0.597499 0.250000
O O16 0.650369 0.349632 0.000000
O O17 0.137688 0.583356 0.500000
O O18 0.116526 0.675572 0.650269
O O19 0.140725 0.230360 0.000000
#
# Coordination Sequence:
#
# PCOD8316814 Si02
#       7
#    16  16   8  16   8  16  16
#     4  11  23  40  62  92 129 167 210 261 314 371
#     4  11  25  44  66  93 123 159 204 256 314 375
#     4  11  21  35  59  91 125 159 199 243 295 363
#     4  11  22  37  57  77 106 150 199 250 300 354
#     4  11  23  39  63  94 128 168 212 257 309 369
#     4  10  22  38  58  88 122 159 202 248 302 364
#     4  11  22  38  63  91 123 161 198 242 301 363
#
# _framework density 20.092988999999999
#
# number of rings (size 3 to 8) (size 9 to 14) (size 15 to 20)
#    0.000    1.167    2.500    4.500    0.000    6.500 
#    0.000    0.833    0.000    0.250    0.000    1.750 
#    0.000    0.000    0.000    0.000    0.000    0.000 
#
# Total GULP energy -1189293.658679 kJ/mol
# GULP energy per Si atom -12388.475611 kJ/mol
# Density = 2.004726 g / cm^3
# Si number density = 20.092989 Si / 1000 Ang^3
#
#
#
# Elastic Constant Matrix: (Units=GPa)
#
#
# Indices 1 2 3 4 5 6 
#
# 1 100.4885 33.3454 48.3896 0.0000 0.0000 0.0000
# 2 33.3454 100.4885 48.3896 0.0000 0.0000 0.0000
# 3 48.3896 48.3896 130.2555 0.0000 0.0000 0.0000
# 4 0.0000 0.0000 0.0000 38.1981 0.0000 0.0000
# 5 0.0000 0.0000 0.0000 0.0000 38.1980 0.0000
# 6 0.0000 0.0000 0.0000 0.0000 0.0000 28.2238
#
#
#
# Elastic Compliance Matrix: (Units=1/GPa)
#
#
# Indices 1 2 3 4 5 6 
#
# 1 0.012555 -0.002339 -0.003795 0.000000 0.000000 0.000000
# 2 -0.002339 0.012555 -0.003795 0.000000 0.000000 0.000000
# 3 -0.003795 -0.003795 0.010497 0.000000 0.000000 0.000000
# 4 0.000000 0.000000 0.000000 0.026179 0.000000 0.000000
# 5 0.000000 0.000000 0.000000 0.000000 0.026179 0.000000
# 6 0.000000 0.000000 0.000000 0.000000 0.000000 0.035431
#
#
# Mechanical properties :
#
#
# Convention : Reuss Voigt Hill
#
# Bulk Modulus (GPa) = 63.49779 65.72021 64.60900
# Shear Modulus (GPa) = 33.66883 34.33117 34.00000
#
# Velocity S-wave (km/s) = 4.09791 4.13802 4.11802
# Velocity P-wave (km/s) = 7.35262 7.45721 7.40510
#
# Compressibility (1/GPa) = 0.01574858
#
# Stress axis : x y z
#
# Youngs Moduli (GPa) = 79.64924 79.64933 95.26359
#
# Poissons Ratio (x) = 0.18626 0.36157
# Poissons Ratio (y) = 0.18626 0.36156
# Poissons Ratio (z) = 0.30230 0.30230
#
# Static dielectric constant tensor:
#      x y z
#    x 2.559350 0.000000 0.000000 
#    y 0.000000 2.559370 0.000000 
#    z 0.000000 0.000000 4.011500 
# 
# 
# High freq. dielectric constant tensor:
#      x y z
#    x 1.774580 0.000000 0.000000 
#    y 0.000000 1.774580 0.000000 
#    z 0.000000 0.000000 1.803580 
# 
# From -- ./inp_files/1825.got.cif
#   From: 2010.03.12/outbox.cif.g09.slc.cpg/sg132_1_cif.got.tgz:1825.got - 2010.04.06 17:53:44.
