data_PCOD8316047
_publ_section_title
;
Structure prediction by ZEFSAII (Michael W. Deem and Ramdas Pophale) SiO2 
 PCOD8316047
Probable space group: P 42/M M C
;
_chemical_formula_sum "Si O2"
_cell_formula_units_Z 72
_cell_length_a 12.665960
_cell_length_b 12.665960
_cell_length_c 25.062006
_cell_angle_alpha 90.000000
_cell_angle_beta 90.000000
_cell_angle_gamma 90.000000
_cell_volume 4020.610976
_symmetry_space_group_name_H-M "P 42/M M C"
_symmetry_group_IT_number 131
_symmetry_cell_setting 'tetragonal'
loop_
_space_group_symop_operation_xyz
x,y,z
-x,-y,z
-y,x,1/2+z
y,-x,1/2+z
-x,y,-z
x,-y,-z
y,x,1/2-z
-y,-x,1/2-z
-x,-y,-z
x,y,-z
y,-x,1/2-z
-y,x,1/2-z
x,-y,z
-x,y,z
-y,-x,1/2+z
y,x,1/2+z
loop_
_atom_site_type_symbol
_atom_site_label
_atom_site_fract_x
_atom_site_fract_y
_atom_site_fract_z
Si Si1 0.374439 0.000000 0.560556
Si Si2 0.743317 0.376338 0.654593
Si Si3 0.622866 0.169807 0.355311
Si Si4 0.375309 0.883718 0.057974
Si Si5 0.117987 0.715500 0.745549
O O1 0.335253 0.893451 0.592039
O O2 0.500000 0.000000 0.557065
O O3 0.327385 0.000000 0.500000
O O4 0.708173 0.500000 0.650763
O O5 0.645631 0.295910 0.649560
O O6 0.811681 0.334200 0.605154
O O7 0.809462 0.359808 0.708611
O O8 0.500000 0.155987 0.354086
O O9 0.668310 0.110363 0.304215
O O10 0.500000 0.892666 0.062487
O O11 0.325340 0.000000 0.064253
O O12 0.343512 0.836162 0.000000
O O13 0.167865 0.832136 0.750000
O O14 0.000000 0.723253 0.721436
#
# Coordination Sequence:
#
# PCOD8316047 Si02
#       5
#     8  16  16  16  16
#     4   9  18  34  56  76  93 127 184 236 270 307
#     4  10  20  31  48  77 107 137 174 213 261 324
#     4  10  20  34  52  73 101 138 177 221 269 313
#     4   8  14  26  44  66  94 127 162 201 245 295
#     4  10  20  34  53  77 105 135 173 215 268 321
#
# _framework density 17.907724999999999
#
# number of rings (size 3 to 8) (size 9 to 14) (size 15 to 20)
#    0.000    2.556    1.111    2.000    0.000    3.778 
#    0.000    0.000    0.000    4.000    0.000    6.222 
#    0.000    7.111    0.000    0.000    0.000    0.000 
#
# Total GULP energy -891983.264295 kJ/mol
# GULP energy per Si atom -12388.656449 kJ/mol
# Density = 1.786697 g / cm^3
# Si number density = 17.907725 Si / 1000 Ang^3
#
#
#
# Elastic Constant Matrix: (Units=GPa)
#
#
# Indices 1 2 3 4 5 6 
#
# 1 81.0579 21.4236 23.2442 0.0000 0.0000 0.0000
# 2 21.4236 81.0578 23.2444 0.0000 0.0000 0.0000
# 3 23.2442 23.2444 120.3155 0.0000 0.0000 0.0000
# 4 0.0000 0.0000 0.0000 36.1904 0.0000 0.0000
# 5 0.0000 0.0000 0.0000 0.0000 36.1823 0.0000
# 6 0.0000 0.0000 0.0000 0.0000 0.0000 6.2867
#
#
#
# Elastic Compliance Matrix: (Units=1/GPa)
#
#
# Indices 1 2 3 4 5 6 
#
# 1 0.013732 -0.003037 -0.002066 0.000000 0.000000 0.000000
# 2 -0.003037 0.013732 -0.002066 0.000000 0.000000 0.000000
# 3 -0.002066 -0.002066 0.009110 0.000000 0.000000 0.000000
# 4 0.000000 0.000000 0.000000 0.027632 0.000000 0.000000
# 5 0.000000 0.000000 0.000000 0.000000 0.027638 0.000000
# 6 0.000000 0.000000 0.000000 0.000000 0.000000 0.159066
#
#
# Mechanical properties :
#
#
# Convention : Reuss Voigt Hill
#
# Bulk Modulus (GPa) = 44.97372 46.47285 45.72329
# Shear Modulus (GPa) = 18.33787 30.03316 24.18551
#
# Velocity S-wave (km/s) = 3.20350 4.09969 3.67899
# Velocity P-wave (km/s) = 6.23313 6.95827 6.60566
#
# Compressibility (1/GPa) = 0.02223521
#
# Stress axis : x y z
#
# Youngs Moduli (GPa) = 72.82257 72.82238 109.77118
#
# Poissons Ratio (x) = 0.22115 0.22681
# Poissons Ratio (y) = 0.22115 0.22682
# Poissons Ratio (z) = 0.15047 0.15047
#
# Static dielectric constant tensor:
#      x y z
#    x 3.127630 0.000000 0.000000 
#    y 0.000000 3.127620 0.000000 
#    z 0.000000 0.000000 3.570390 
# 
# 
# High freq. dielectric constant tensor:
#      x y z
#    x 1.670570 0.000000 0.000000 
#    y 0.000000 1.670570 0.000000 
#    z 0.000000 0.000000 1.709240 
# 
# From -- ./inp_files/12095.got.cif
#   From: 2010.03.12/outbox.cif.g09.slc.cpg/sg131_7_cif.got.tgz:12095.got - 2010.04.06 17:36:35.
