data_PCOD8316974
_publ_section_title
;
Structure prediction by ZEFSAII (Michael W. Deem and Ramdas Pophale) SiO2 
 PCOD8316974
Probable space group: P 42/N B C
;
_chemical_formula_sum "Si O2"
_cell_formula_units_Z 112
_cell_length_a 32.530066
_cell_length_b 32.530066
_cell_length_c 4.934487
_cell_angle_alpha 90.000000
_cell_angle_beta 90.000000
_cell_angle_gamma 90.000000
_cell_volume 5221.699773
_symmetry_space_group_name_H-M "P 42/N B C"
_symmetry_group_IT_number 133
_space_group.IT_coordinate_system_code '2'
_symmetry_cell_setting 'tetragonal'
loop_
_space_group_symop_operation_xyz
x,y,z
1/2-y,x,1/2+z
1/2-x,1/2-y,z
y,1/2-x,1/2+z
x,1/2-y,-z
1/2-x,y,-z
y,x,1/2-z
1/2-y,1/2-x,1/2-z
-x,-y,-z
1/2+y,-x,1/2-z
1/2+x,1/2+y,-z
-y,1/2+x,1/2-z
-x,1/2+y,z
1/2+x,-y,z
-y,-x,1/2+z
1/2+y,1/2+x,1/2+z
loop_
_atom_site_type_symbol
_atom_site_label
_atom_site_fract_x
_atom_site_fract_y
_atom_site_fract_z
Si Si1 0.162973 0.201866 0.513756
Si Si2 0.089275 0.051045 0.478979
Si Si3 0.097646 0.862579 0.768251
Si Si4 0.528542 0.820430 0.110294
Si Si5 0.569486 0.466778 0.761489
Si Si6 0.073458 0.204534 0.611518
Si Si7 0.778702 0.443228 0.262257
O O1 0.159012 0.250000 0.500000
O O2 0.195132 0.195132 0.750000
O O3 0.118549 0.183844 0.599536
O O4 0.179111 0.179111 0.250000
O O5 0.067136 0.067136 0.750000
O O6 0.135124 0.034286 0.532647
O O7 0.065949 0.013092 0.337527
O O8 0.087117 0.087117 0.250000
O O9 0.130210 0.881648 0.558760
O O10 0.053111 0.885070 0.768191
O O11 0.090272 0.814321 0.702984
O O12 0.544177 0.822551 0.418617
O O13 0.483186 0.801589 0.116346
O O14 0.556743 0.792084 0.917136
O O15 0.536658 0.441456 0.579289
O O16 0.074550 0.250000 0.500000
O O17 0.750000 0.425486 0.500000
O O18 0.750000 0.452416 0.000000
#
# Coordination Sequence:
#
# PCOD8316974 Si02
#       7
#    16  16  16  16  16  16  16
#     4  11  24  41  62  88 112 141 184 240 307 391
#     4  12  26  40  57  86 120 160 217 269 312 366
#     4  10  21  40  65  93 133 178 215 261 326 388
#     4  12  24  42  60  87 125 162 205 261 322 365
#     4  10  21  39  62  83 116 165 213 262 315 364
#     4  11  24  41  63  83 112 151 196 239 297 382
#     4  12  24  40  67 101 133 169 219 270 324 391
#
# _framework density 21.448952999999999
#
# number of rings (size 3 to 8) (size 9 to 14) (size 15 to 20)
#    0.000    0.857    1.429    6.429    0.000    8.286 
#    0.000    0.000    0.000    0.000    0.000    0.000 
#    0.000   20.000    0.000    0.000    0.000    0.000 
#
# Total GULP energy -1388403.017648 kJ/mol
# GULP energy per Si atom -12396.455515 kJ/mol
# Density = 2.140013 g / cm^3
# Si number density = 21.448953 Si / 1000 Ang^3
#
#
#
# Elastic Constant Matrix: (Units=GPa)
#
#
# Indices 1 2 3 4 5 6 
#
# 1 88.5904 30.0843 20.0099 0.0000 0.0000 0.0000
# 2 30.0843 88.5904 20.0099 0.0000 0.0000 0.0000
# 3 20.0099 20.0099 108.3168 0.0000 0.0000 0.0000
# 4 0.0000 0.0000 0.0000 30.7165 0.0000 0.0000
# 5 0.0000 0.0000 0.0000 0.0000 30.7165 0.0000
# 6 0.0000 0.0000 0.0000 0.0000 0.0000 21.5801
#
#
#
# Elastic Compliance Matrix: (Units=1/GPa)
#
#
# Indices 1 2 3 4 5 6 
#
# 1 0.013039 -0.004053 -0.001660 0.000000 0.000000 0.000000
# 2 -0.004053 0.013039 -0.001660 0.000000 0.000000 0.000000
# 3 -0.001660 -0.001660 0.009846 0.000000 0.000000 0.000000
# 4 0.000000 0.000000 0.000000 0.032556 0.000000 0.000000
# 5 0.000000 0.000000 0.000000 0.000000 0.032556 0.000000
# 6 0.000000 0.000000 0.000000 0.000000 0.000000 0.046339
#
#
# Mechanical properties :
#
#
# Convention : Reuss Voigt Hill
#
# Bulk Modulus (GPa) = 47.21956 47.30066 47.26011
# Shear Modulus (GPa) = 29.55429 30.96217 30.25823
#
# Velocity S-wave (km/s) = 3.71602 3.80350 3.76002
# Velocity P-wave (km/s) = 6.36195 6.43346 6.39780
#
# Compressibility (1/GPa) = 0.02117767
#
# Stress axis : x y z
#
# Youngs Moduli (GPa) = 76.69170 76.69170 101.56897
#
# Poissons Ratio (x) = 0.31083 0.16861
# Poissons Ratio (y) = 0.31083 0.16861
# Poissons Ratio (z) = 0.12731 0.12731
#
# Static dielectric constant tensor:
#      x y z
#    x 3.846640 0.000000 0.000000 
#    y 0.000000 3.846640 0.000000 
#    z 0.000000 0.000000 4.102990 
# 
# 
# High freq. dielectric constant tensor:
#      x y z
#    x 1.829220 0.000000 0.000000 
#    y 0.000000 1.829220 0.000000 
#    z 0.000000 0.000000 1.859380 
# 
# From -- ./inp_files/622.got.cif
#   From: 2010.03.12/outbox.cif.g09.slc.cpg/sg133_1_cif.got.tgz:622.got - 2010.04.06 18:08:06.
