data_PCOD8316332
_publ_section_title
;
Structure prediction by ZEFSAII (Michael W. Deem and Ramdas Pophale) SiO2 
 PCOD8316332
Probable space group: P 42/M M C
;
_chemical_formula_sum "Si O2"
_cell_formula_units_Z 64
_cell_length_a 16.341509
_cell_length_b 16.341509
_cell_length_c 15.787438
_cell_angle_alpha 90.000000
_cell_angle_beta 90.000000
_cell_angle_gamma 90.000000
_cell_volume 4215.955061
_symmetry_space_group_name_H-M "P 42/M M C"
_symmetry_group_IT_number 131
_symmetry_cell_setting 'tetragonal'
loop_
_space_group_symop_operation_xyz
x,y,z
-x,-y,z
-y,x,1/2+z
y,-x,1/2+z
-x,y,-z
x,-y,-z
y,x,1/2-z
-y,-x,1/2-z
-x,-y,-z
x,y,-z
y,-x,1/2-z
-y,x,1/2-z
x,-y,z
-x,y,z
-y,-x,1/2+z
y,x,1/2+z
loop_
_atom_site_type_symbol
_atom_site_label
_atom_site_fract_x
_atom_site_fract_y
_atom_site_fract_z
Si Si1 0.165618 0.903388 0.837008
Si Si2 0.500000 0.097344 0.630044
Si Si3 0.096402 0.662477 0.594085
Si Si4 0.097334 0.367335 0.000000
Si Si5 0.184285 0.904163 0.500000
Si Si6 0.500000 0.097999 0.181032
O O1 0.134160 0.865841 0.750000
O O2 0.261611 0.882379 0.845180
O O3 0.149028 0.000000 0.837465
O O4 0.119628 0.864920 0.916469
O O5 0.582344 0.127694 0.582565
O O6 0.500000 0.133759 0.724181
O O7 0.500000 0.000000 0.631906
O O8 0.133441 0.677002 0.500000
O O9 0.133299 0.579831 0.633752
O O10 0.000000 0.652672 0.586080
O O11 0.135271 0.275818 0.000000
O O12 0.000000 0.362843 0.000000
O O13 0.194707 0.000000 0.500000
O O14 0.500000 0.000000 0.182153
#
# Coordination Sequence:
#
# PCOD8316332 Si02
#       6
#    16   8  16   8   8   8
#     4  11  23  36  48  63  86 119 161 208 243 269
#     4   8  14  26  42  64  89 105 126 170 222 281
#     4   9  17  31  46  63  85 107 138 183 233 280
#     4   8  16  28  42  62  86 109 137 176 226 279
#     4  11  22  34  50  64  83 119 162 203 241 271
#     4   9  16  24  46  69  83 103 131 170 223 286
#
# _framework density 15.180427999999999
#
# number of rings (size 3 to 8) (size 9 to 14) (size 15 to 20)
#    0.000    2.500    1.250    2.250    3.500    3.750 
#    0.000    0.000    0.000    0.000    0.000    0.000 
#    0.000    0.000    0.000    0.000    0.000   15.625 
#
# Total GULP energy -793281.675325 kJ/mol
# GULP energy per Si atom -12395.026177 kJ/mol
# Density = 1.514588 g / cm^3
# Si number density = 15.180428 Si / 1000 Ang^3
#
#
#
# Elastic Constant Matrix: (Units=GPa)
#
#
# Indices 1 2 3 4 5 6 
#
# 1 85.0131 28.4592 51.8246 0.0000 0.0000 0.0000
# 2 28.4592 85.0133 51.8237 0.0000 0.0000 0.0000
# 3 51.8246 51.8237 148.8468 0.0000 0.0000 0.0000
# 4 0.0000 0.0000 0.0000 17.8848 0.0000 0.0000
# 5 0.0000 0.0000 0.0000 0.0000 17.8850 0.0000
# 6 0.0000 0.0000 0.0000 0.0000 0.0000 -0.2601
#
#
#
# Elastic Compliance Matrix: (Units=1/GPa)
#
#
# Indices 1 2 3 4 5 6 
#
# 1 0.015302 -0.002380 -0.004499 0.000000 0.000000 0.000000
# 2 -0.002380 0.015302 -0.004499 0.000000 0.000000 0.000000
# 3 -0.004499 -0.004499 0.009851 0.000000 0.000000 0.000000
# 4 0.000000 0.000000 0.000000 0.055914 0.000000 0.000000
# 5 0.000000 0.000000 0.000000 0.000000 0.055913 0.000000
# 6 0.000000 0.000000 0.000000 0.000000 0.000000 -3.844088
#
#
# Mechanical properties :
#
#
# Convention : Reuss Voigt Hill
#
# Bulk Modulus (GPa) = 56.49949 64.78756 60.64352
# Shear Modulus (GPa) = -1.36495 19.55296 9.09401
#
# Velocity S-wave (km/s) = -0.94926 3.59282 2.45023
# Velocity P-wave (km/s) = 6.00816 7.74481 6.93109
#
# Compressibility (1/GPa) = 0.01769927
#
# Stress axis : x y z
#
# Youngs Moduli (GPa) = 65.34922 65.35002 101.50946
#
# Poissons Ratio (x) = 0.15553 0.45672
# Poissons Ratio (y) = 0.15553 0.45670
# Poissons Ratio (z) = 0.29402 0.29402
#
# Static dielectric constant tensor:
#      x y z
#    x 2.830330 0.000000 0.000000 
#    y 0.000000 2.830330 0.000000 
#    z 0.000000 0.000000 3.151310 
# 
# 
# High freq. dielectric constant tensor:
#      x y z
#    x 1.547500 0.000000 0.000000 
#    y 0.000000 1.547500 0.000000 
#    z 0.000000 0.000000 1.601480 
# 
# From -- ./inp_files/7452.got.cif
#   From: 2010.03.12/outbox.cif.g09.slc.cpg/sg131_4_cif.got.tgz:7452.got - 2010.04.06 17:36:35.
