data_PCOD8316593
_publ_section_title
;
Structure prediction by ZEFSAII (Michael W. Deem and Ramdas Pophale) SiO2 
 PCOD8316593
Probable space group: P 42/M C M
;
_chemical_formula_sum "Si O2"
_cell_formula_units_Z 88
_cell_length_a 12.206342
_cell_length_b 12.206342
_cell_length_c 28.474514
_cell_angle_alpha 90.000000
_cell_angle_beta 90.000000
_cell_angle_gamma 90.000000
_cell_volume 4242.554092
_symmetry_space_group_name_H-M "P 42/M C M"
_symmetry_group_IT_number 132
_symmetry_cell_setting 'tetragonal'
loop_
_space_group_symop_operation_xyz
x,y,z
-y,x,1/2+z
-x,-y,z
y,-x,1/2+z
x,-y,1/2-z
-x,y,1/2-z
y,x,-z
-y,-x,-z
-x,-y,-z
y,-x,1/2-z
x,y,-z
-y,x,1/2-z
-x,y,1/2+z
x,-y,1/2+z
-y,-x,z
y,x,z
loop_
_atom_site_type_symbol
_atom_site_label
_atom_site_fract_x
_atom_site_fract_y
_atom_site_fract_z
Si Si1 0.891224 0.290988 0.947824
Si Si2 0.740160 0.438980 0.895807
Si Si3 0.998384 0.179661 0.631844
Si Si4 0.592545 0.592545 0.053390
Si Si5 0.273112 0.449378 0.801297
Si Si6 0.038131 0.620418 0.697534
O O1 0.787883 0.212118 0.952464
O O2 0.855604 0.398951 0.917897
O O3 0.988872 0.227839 0.920780
O O4 0.931848 0.324952 0.000000
O O5 0.652278 0.347723 0.907845
O O6 0.703257 0.551901 0.920880
O O7 0.745901 0.455125 0.839616
O O8 0.097270 0.097270 0.644047
O O9 0.010058 0.281399 0.666925
O O10 0.882242 0.117758 0.635610
O O11 0.500000 0.500000 0.056538
O O12 0.621433 0.621433 0.000000
O O13 0.285661 0.500000 0.750000
O O14 0.382404 0.382404 0.813957
O O15 0.169174 0.369738 0.803256
O O16 0.000000 0.500000 0.679318
O O17 0.000000 0.639488 0.750000
#
# Coordination Sequence:
#
# PCOD8316593 Si02
#       6
#    16  16  16   8  16  16
#     4   9  18  33  58  91 124 161 207 260 315 370
#     4  10  19  33  53  84 126 168 212 258 305 364
#     4  10  22  40  65  96 126 161 208 268 326 375
#     4   9  16  28  50  78 116 166 219 265 305 353
#     4  12  24  38  59  88 123 166 205 250 310 374
#     4  11  23  44  63  88 119 162 211 255 314 385
#
# _framework density 20.742222000000002
#
# number of rings (size 3 to 8) (size 9 to 14) (size 15 to 20)
#    0.000    1.727    2.727    2.727    0.000    4.909 
#    0.000    2.727    0.000    6.000    0.000    0.000 
#    0.000    0.000    0.000    0.000    0.000    0.000 
#
# Total GULP energy -1090950.634192 kJ/mol
# GULP energy per Si atom -12397.166298 kJ/mol
# Density = 2.069501 g / cm^3
# Si number density = 20.742222 Si / 1000 Ang^3
#
#
#
# Elastic Constant Matrix: (Units=GPa)
#
#
# Indices 1 2 3 4 5 6 
#
# 1 92.6715 33.7983 49.6741 0.0000 0.0000 0.0000
# 2 33.7983 92.6715 49.6741 0.0000 0.0000 0.0000
# 3 49.6741 49.6741 143.6207 0.0000 0.0000 0.0000
# 4 0.0000 0.0000 0.0000 13.9099 0.0000 0.0000
# 5 0.0000 0.0000 0.0000 0.0000 13.9099 0.0000
# 6 0.0000 0.0000 0.0000 0.0000 0.0000 25.0513
#
#
#
# Elastic Compliance Matrix: (Units=1/GPa)
#
#
# Indices 1 2 3 4 5 6 
#
# 1 0.013921 -0.003064 -0.003755 0.000000 0.000000 0.000000
# 2 -0.003064 0.013921 -0.003755 0.000000 0.000000 0.000000
# 3 -0.003755 -0.003755 0.009560 0.000000 0.000000 0.000000
# 4 0.000000 0.000000 0.000000 0.071891 0.000000 0.000000
# 5 0.000000 0.000000 0.000000 0.000000 0.071891 0.000000
# 6 0.000000 0.000000 0.000000 0.000000 0.000000 0.039918
#
#
# Mechanical properties :
#
#
# Convention : Reuss Voigt Hill
#
# Bulk Modulus (GPa) = 61.52435 66.13961 63.83198
# Shear Modulus (GPa) = 20.18815 23.62871 21.90843
#
# Velocity S-wave (km/s) = 3.12314 3.37881 3.25349
# Velocity P-wave (km/s) = 6.53691 6.86859 6.70480
#
# Compressibility (1/GPa) = 0.01625373
#
# Stress axis : x y z
#
# Youngs Moduli (GPa) = 71.83281 71.83281 104.59930
#
# Poissons Ratio (x) = 0.22013 0.39277
# Poissons Ratio (y) = 0.22013 0.39277
# Poissons Ratio (z) = 0.26973 0.26973
#
# Static dielectric constant tensor:
#      x y z
#    x 3.592140 0.000000 0.000000 
#    y 0.000000 3.592140 0.000000 
#    z 0.000000 0.000000 3.835650 
# 
# 
# High freq. dielectric constant tensor:
#      x y z
#    x 1.796070 0.000000 0.000000 
#    y 0.000000 1.796070 0.000000 
#    z 0.000000 0.000000 1.820230 
# 
# From -- ./inp_files/10790.got.cif
#   From: 2010.03.12/outbox.cif.g09.slc.cpg/sg132_6_cif.got.tgz:10790.got - 2010.04.06 17:53:44.
