data_PCOD8316175
_publ_section_title
;
Structure prediction by ZEFSAII (Michael W. Deem and Ramdas Pophale) SiO2 
 PCOD8316175
Probable space group: P 42/M M C
;
_chemical_formula_sum "Si O2"
_cell_formula_units_Z 96
_cell_length_a 15.482349
_cell_length_b 15.482349
_cell_length_c 19.780146
_cell_angle_alpha 90.000000
_cell_angle_beta 90.000000
_cell_angle_gamma 90.000000
_cell_volume 4741.362919
_symmetry_space_group_name_H-M "P 42/M M C"
_symmetry_group_IT_number 131
_symmetry_cell_setting 'tetragonal'
loop_
_space_group_symop_operation_xyz
x,y,z
-x,-y,z
-y,x,1/2+z
y,-x,1/2+z
-x,y,-z
x,-y,-z
y,x,1/2-z
-y,-x,1/2-z
-x,-y,-z
x,y,-z
y,-x,1/2-z
-y,x,1/2-z
x,-y,z
-x,y,z
-y,-x,1/2+z
y,x,1/2+z
loop_
_atom_site_type_symbol
_atom_site_label
_atom_site_fract_x
_atom_site_fract_y
_atom_site_fract_z
Si Si1 0.334694 0.259508 0.577356
Si Si2 0.097160 0.639489 0.697391
Si Si3 0.779119 0.095777 0.424115
Si Si4 0.402223 0.265321 0.719753
Si Si5 0.162807 0.904041 0.817171
Si Si6 0.406082 0.803951 0.925825
O O1 0.371872 0.269213 0.500000
O O2 0.295618 0.164747 0.588303
O O3 0.404061 0.268710 0.637487
O O4 0.264277 0.332587 0.592843
O O5 0.168456 0.623442 0.755834
O O6 0.096896 0.736201 0.669788
O O7 0.121145 0.586978 0.629990
O O8 0.000000 0.613611 0.722849
O O9 0.813981 0.102769 0.500000
O O10 0.861746 0.111972 0.378387
O O11 0.741384 0.000000 0.408744
O O12 0.336113 0.336113 0.750000
O O13 0.500000 0.286321 0.744027
O O14 0.149967 0.850033 0.750000
O O15 0.125887 0.000000 0.808251
O O16 0.500000 0.757159 0.926777
O O17 0.386299 0.844014 0.000000
#
# Coordination Sequence:
#
# PCOD8316175 Si02
#       6
#    16  16  16  16  16  16
#     4  10  21  40  64  89 120 159 206 254 305 364
#     4  11  23  39  62  91 124 162 205 256 312 370
#     4  10  20  35  57  83 114 157 205 252 304 358
#     4  12  25  42  65  93 128 164 204 255 310 370
#     4  11  22  35  53  78 113 157 204 252 301 358
#     4  10  20  36  61  90 121 156 194 246 310 374
#
# _framework density 20.247343000000001
#
# number of rings (size 3 to 8) (size 9 to 14) (size 15 to 20)
#    0.000    1.333    3.333    2.500    0.000    5.667 
#    0.000    3.333    0.000    0.000    0.000    7.000 
#    0.000    0.000    0.000    0.000    0.000    0.000 
#
# Total GULP energy -1189688.727526 kJ/mol
# GULP energy per Si atom -12392.590912 kJ/mol
# Density = 2.020126 g / cm^3
# Si number density = 20.247343 Si / 1000 Ang^3
#
#
#
# Elastic Constant Matrix: (Units=GPa)
#
#
# Indices 1 2 3 4 5 6 
#
# 1 110.1451 32.2367 32.4338 0.0000 0.0000 0.0000
# 2 32.2367 110.1451 32.4338 0.0000 0.0000 0.0000
# 3 32.4338 32.4338 126.7638 0.0000 0.0000 0.0000
# 4 0.0000 0.0000 0.0000 23.2246 0.0000 0.0000
# 5 0.0000 0.0000 0.0000 0.0000 23.2246 0.0000
# 6 0.0000 0.0000 0.0000 0.0000 0.0000 7.2161
#
#
#
# Elastic Compliance Matrix: (Units=1/GPa)
#
#
# Indices 1 2 3 4 5 6 
#
# 1 0.010393 -0.002443 -0.002034 0.000000 0.000000 0.000000
# 2 -0.002443 0.010393 -0.002034 0.000000 0.000000 0.000000
# 3 -0.002034 -0.002034 0.008930 0.000000 0.000000 0.000000
# 4 0.000000 0.000000 0.000000 0.043058 0.000000 0.000000
# 5 0.000000 0.000000 0.000000 0.000000 0.043058 0.000000
# 6 0.000000 0.000000 0.000000 0.000000 0.000000 0.138580
#
#
# Mechanical properties :
#
#
# Convention : Reuss Voigt Hill
#
# Bulk Modulus (GPa) = 59.90421 60.14028 60.02225
# Shear Modulus (GPa) = 18.31523 27.39636 22.85580
#
# Velocity S-wave (km/s) = 3.01088 3.68242 3.36345
# Velocity P-wave (km/s) = 6.46047 6.91719 6.69273
#
# Compressibility (1/GPa) = 0.01669332
#
# Stress axis : x y z
#
# Youngs Moduli (GPa) = 96.22013 96.22013 111.98734
#
# Poissons Ratio (x) = 0.23504 0.22779
# Poissons Ratio (y) = 0.23504 0.22779
# Poissons Ratio (z) = 0.19572 0.19572
#
# Static dielectric constant tensor:
#      x y z
#    x 3.681360 0.000000 0.000000 
#    y 0.000000 3.681360 0.000000 
#    z 0.000000 0.000000 3.847220 
# 
# 
# High freq. dielectric constant tensor:
#      x y z
#    x 1.779010 0.000000 0.000000 
#    y 0.000000 1.779010 0.000000 
#    z 0.000000 0.000000 1.807700 
# 
# From -- ./inp_files/9723.got.cif
#   From: 2010.03.12/outbox.cif.g09.slc.cpg/sg131_5_cif.got.tgz:9723.got - 2010.04.06 17:36:35.
