data_PCOD8316200
_publ_section_title
;
Structure prediction by ZEFSAII (Michael W. Deem and Ramdas Pophale) SiO2 
 PCOD8316200
Probable space group: P 42/M M C
;
_chemical_formula_sum "Si O2"
_cell_formula_units_Z 58
_cell_length_a 14.585652
_cell_length_b 14.585652
_cell_length_c 13.972905
_cell_angle_alpha 90.000000
_cell_angle_beta 90.000000
_cell_angle_gamma 90.000000
_cell_volume 2972.613196
_symmetry_space_group_name_H-M "P 42/M M C"
_symmetry_group_IT_number 131
_symmetry_cell_setting 'tetragonal'
loop_
_space_group_symop_operation_xyz
x,y,z
-x,-y,z
-y,x,1/2+z
y,-x,1/2+z
-x,y,-z
x,-y,-z
y,x,1/2-z
-y,-x,1/2-z
-x,-y,-z
x,y,-z
y,-x,1/2-z
-y,x,1/2-z
x,-y,z
-x,y,z
-y,-x,1/2+z
y,x,1/2+z
loop_
_atom_site_type_symbol
_atom_site_label
_atom_site_fract_x
_atom_site_fract_y
_atom_site_fract_z
Si Si1 0.391887 0.240328 0.500000
Si Si2 0.392277 0.100366 0.653940
Si Si3 0.000000 0.000000 0.750000
Si Si4 0.000000 0.166962 0.608205
Si Si5 0.713671 0.834496 0.823501
Si Si6 0.610920 0.256807 0.000000
O O1 0.500000 0.242189 0.500000
O O2 0.351330 0.183071 0.590019
O O3 0.359012 0.345529 0.500000
O O4 0.500000 0.111190 0.655286
O O5 0.356159 0.106345 0.760942
O O6 0.365241 0.000000 0.611815
O O7 0.000000 0.912728 0.683956
O O8 0.094337 0.221303 0.622713
O O9 0.000000 0.129162 0.500000
O O10 0.766778 0.766778 0.750000
O O11 0.650369 0.787151 0.903395
O O12 0.500000 0.259370 0.000000
#
# Coordination Sequence:
#
# PCOD8316200 Si02
#       6
#     8  16   2   8  16   8
#     4  10  21  39  63  92 128 162 209 278 336 393
#     4  10  20  36  62  95 124 158 207 264 326 394
#     4  12  26  44  68  98 132 180 218 264 328 402
#     4  12  25  43  65  98 136 171 220 271 321 391
#     4  12  23  41  65  89 127 173 216 267 325 391
#     4  12  26  43  65  93 128 172 224 275 333 396
#
# _framework density 19.511451999999998
#
# number of rings (size 3 to 8) (size 9 to 14) (size 15 to 20)
#    0.000    0.828    6.897    1.448    0.000    1.931 
#    0.000    0.690    0.000    0.000    0.000    0.000 
#    0.000    0.000    0.000    0.000    0.000    0.000 
#
# Total GULP energy -718662.821022 kJ/mol
# GULP energy per Si atom -12390.738293 kJ/mol
# Density = 1.946704 g / cm^3
# Si number density = 19.511452 Si / 1000 Ang^3
#
#
#
# Elastic Constant Matrix: (Units=GPa)
#
#
# Indices 1 2 3 4 5 6 
#
# 1 125.2255 37.4778 53.5231 0.0000 0.0000 0.0000
# 2 37.4778 125.2255 53.5231 0.0000 0.0000 0.0000
# 3 53.5231 53.5231 128.8425 0.0000 0.0000 0.0000
# 4 0.0000 0.0000 0.0000 35.9210 0.0000 0.0000
# 5 0.0000 0.0000 0.0000 0.0000 35.9210 0.0000
# 6 0.0000 0.0000 0.0000 0.0000 0.0000 29.9517
#
#
#
# Elastic Compliance Matrix: (Units=1/GPa)
#
#
# Indices 1 2 3 4 5 6 
#
# 1 0.009927 -0.001469 -0.003513 0.000000 0.000000 0.000000
# 2 -0.001469 0.009927 -0.003513 0.000000 0.000000 0.000000
# 3 -0.003513 -0.003513 0.010681 0.000000 0.000000 0.000000
# 4 0.000000 0.000000 0.000000 0.027839 0.000000 0.000000
# 5 0.000000 0.000000 0.000000 0.000000 0.027839 0.000000
# 6 0.000000 0.000000 0.000000 0.000000 0.000000 0.033387
#
#
# Mechanical properties :
#
#
# Convention : Reuss Voigt Hill
#
# Bulk Modulus (GPa) = 73.84371 74.26016 74.05193
# Shear Modulus (GPa) = 35.43439 36.01005 35.72222
#
# Velocity S-wave (km/s) = 4.26617 4.30069 4.28347
# Velocity P-wave (km/s) = 7.88641 7.92487 7.90567
#
# Compressibility (1/GPa) = 0.01354212
#
# Stress axis : x y z
#
# Youngs Moduli (GPa) = 100.73506 100.73506 93.62846
#
# Poissons Ratio (x) = 0.14801 0.32896
# Poissons Ratio (y) = 0.14801 0.32896
# Poissons Ratio (z) = 0.35393 0.35393
#
# Static dielectric constant tensor:
#      x y z
#    x 3.711900 0.000000 0.000000 
#    y 0.000000 3.711900 0.000000 
#    z 0.000000 0.000000 3.771400 
# 
# 
# High freq. dielectric constant tensor:
#      x y z
#    x 1.759470 0.000000 0.000000 
#    y 0.000000 1.759470 0.000000 
#    z 0.000000 0.000000 1.779160 
# 
# From -- ./inp_files/5533.got.cif
#   From: 2010.03.12/outbox.cif.g09.slc.cpg/sg131_3_cif.got.tgz:5533.got - 2010.04.06 17:36:35.
