data_PCOD8316281
_publ_section_title
;
Structure prediction by ZEFSAII (Michael W. Deem and Ramdas Pophale) SiO2 
 PCOD8316281
Probable space group: P 42/M M C
;
_chemical_formula_sum "Si O2"
_cell_formula_units_Z 96
_cell_length_a 18.480470
_cell_length_b 18.480470
_cell_length_c 14.675298
_cell_angle_alpha 90.000000
_cell_angle_beta 90.000000
_cell_angle_gamma 90.000000
_cell_volume 5012.021821
_symmetry_space_group_name_H-M "P 42/M M C"
_symmetry_group_IT_number 131
_symmetry_cell_setting 'tetragonal'
loop_
_space_group_symop_operation_xyz
x,y,z
-x,-y,z
-y,x,1/2+z
y,-x,1/2+z
-x,y,-z
x,-y,-z
y,x,1/2-z
-y,-x,1/2-z
-x,-y,-z
x,y,-z
y,-x,1/2-z
-y,x,1/2-z
x,-y,z
-x,y,z
-y,-x,1/2+z
y,x,1/2+z
loop_
_atom_site_type_symbol
_atom_site_label
_atom_site_fract_x
_atom_site_fract_y
_atom_site_fract_z
Si Si1 0.222098 0.360949 0.897160
Si Si2 0.771143 0.919611 0.891507
Si Si3 0.315432 0.219799 0.895870
Si Si4 0.699718 0.078067 0.392329
Si Si5 0.861122 0.079140 0.608636
Si Si6 0.581674 0.301183 0.763043
O O1 0.253085 0.279746 0.888654
O O2 0.140115 0.355101 0.859350
O O3 0.263173 0.418650 0.835374
O O4 0.227315 0.390036 0.000000
O O5 0.716027 0.856742 0.857377
O O6 0.853111 0.907548 0.853285
O O7 0.745101 0.000000 0.859946
O O8 0.773519 0.914716 0.000000
O O9 0.382741 0.246719 0.835850
O O10 0.342135 0.211343 0.000000
O O11 0.708249 0.086115 0.500000
O O12 0.780004 0.086113 0.350131
O O13 0.666688 0.000000 0.365250
O O14 0.858105 0.083302 0.500000
O O15 0.893466 0.000000 0.637262
O O16 0.623409 0.376592 0.750000
O O17 0.500000 0.318045 0.793717
#
# Coordination Sequence:
#
# PCOD8316281 Si02
#       6
#    16  16  16  16  16  16
#     4   9  16  30  53  77 104 136 168 206 247 293
#     4   9  15  23  39  65  99 140 184 228 267 295
#     4   9  17  32  52  73 101 138 180 217 244 282
#     4   8  12  20  39  67  98 133 171 209 249 291
#     4   8  12  18  31  57  96 137 175 218 266 306
#     4  10  22  38  58  84 106 126 154 191 242 310
#
# _framework density 19.153946000000001
#
# number of rings (size 3 to 8) (size 9 to 14) (size 15 to 20)
#    0.000    3.167    1.667    1.000    0.000    1.167 
#    0.000    2.500    0.000    2.000    0.000    9.333 
#    0.000    0.000    0.000    0.000    0.000    0.000 
#
# Total GULP energy -1189452.871018 kJ/mol
# GULP energy per Si atom -12390.134073 kJ/mol
# Density = 1.911035 g / cm^3
# Si number density = 19.153946 Si / 1000 Ang^3
#
#
#
# Elastic Constant Matrix: (Units=GPa)
#
#
# Indices 1 2 3 4 5 6 
#
# 1 114.8328 53.5005 27.1089 0.0000 0.0000 0.0000
# 2 53.5005 114.8319 27.1086 0.0000 0.0000 0.0000
# 3 27.1089 27.1086 41.0252 0.0000 0.0000 0.0000
# 4 0.0000 0.0000 0.0000 14.3544 0.0000 0.0000
# 5 0.0000 0.0000 0.0000 0.0000 14.3549 0.0000
# 6 0.0000 0.0000 0.0000 0.0000 0.0000 15.7527
#
#
#
# Elastic Compliance Matrix: (Units=1/GPa)
#
#
# Indices 1 2 3 4 5 6 
#
# 1 0.011926 -0.004379 -0.004987 0.000000 0.000000 0.000000
# 2 -0.004379 0.011926 -0.004987 0.000000 0.000000 0.000000
# 3 -0.004987 -0.004987 0.030966 0.000000 0.000000 0.000000
# 4 0.000000 0.000000 0.000000 0.069665 0.000000 0.000000
# 5 0.000000 0.000000 0.000000 0.000000 0.069662 0.000000
# 6 0.000000 0.000000 0.000000 0.000000 0.000000 0.063481
#
#
# Mechanical properties :
#
#
# Convention : Reuss Voigt Hill
#
# Bulk Modulus (GPa) = 38.29646 54.01396 46.15521
# Shear Modulus (GPa) = 16.94716 19.75721 18.35219
#
# Velocity S-wave (km/s) = 2.97776 3.21517 3.09874
# Velocity P-wave (km/s) = 5.64448 6.48415 6.07883
#
# Compressibility (1/GPa) = 0.02611208
#
# Stress axis : x y z
#
# Youngs Moduli (GPa) = 83.85233 83.85183 32.29384
#
# Poissons Ratio (x) = 0.36719 0.16104
# Poissons Ratio (y) = 0.36719 0.16104
# Poissons Ratio (z) = 0.41816 0.41815
#
# Static dielectric constant tensor:
#      x y z
#    x 3.328440 0.000000 0.000000 
#    y 0.000000 3.328440 0.000000 
#    z 0.000000 0.000000 3.320520 
# 
# 
# High freq. dielectric constant tensor:
#      x y z
#    x 1.717430 0.000000 0.000000 
#    y 0.000000 1.717430 0.000000 
#    z 0.000000 0.000000 1.728040 
# 
# From -- ./inp_files/7966.got.cif
#   From: 2010.03.12/outbox.cif.g09.slc.cpg/sg131_4_cif.got.tgz:7966.got - 2010.04.06 17:36:35.
