data_PCOD8316172
_publ_section_title
;
Structure prediction by ZEFSAII (Michael W. Deem and Ramdas Pophale) SiO2 
 PCOD8316172
Probable space group: P 42/M M C
;
_chemical_formula_sum "Si O2"
_cell_formula_units_Z 72
_cell_length_a 20.622849
_cell_length_b 20.622849
_cell_length_c 8.709334
_cell_angle_alpha 90.000000
_cell_angle_beta 90.000000
_cell_angle_gamma 90.000000
_cell_volume 3704.096306
_symmetry_space_group_name_H-M "P 42/M M C"
_symmetry_group_IT_number 131
_symmetry_cell_setting 'tetragonal'
loop_
_space_group_symop_operation_xyz
x,y,z
-x,-y,z
-y,x,1/2+z
y,-x,1/2+z
-x,y,-z
x,-y,-z
y,x,1/2-z
-y,-x,1/2-z
-x,-y,-z
x,y,-z
y,-x,1/2-z
-y,x,1/2-z
x,-y,z
-x,y,z
-y,-x,1/2+z
y,x,1/2+z
loop_
_atom_site_type_symbol
_atom_site_label
_atom_site_fract_x
_atom_site_fract_y
_atom_site_fract_z
Si Si1 0.500000 0.924544 0.318229
Si Si2 0.836975 0.070923 0.320644
Si Si3 0.426530 0.676002 0.819382
Si Si4 0.730947 0.175085 0.681461
Si Si5 0.176417 0.403501 0.679554
O O1 0.500000 0.927356 0.500000
O O2 0.439439 0.882584 0.262084
O O3 0.500000 0.000000 0.256258
O O4 0.903767 0.096234 0.250000
O O5 0.846747 0.068876 0.500000
O O6 0.778154 0.116835 0.274795
O O7 0.821792 0.000000 0.253766
O O8 0.373365 0.626636 0.750000
O O9 0.500000 0.652667 0.778519
O O10 0.419434 0.750521 0.758640
O O11 0.414704 0.675540 0.000000
O O12 0.758104 0.241897 0.750000
O O13 0.717080 0.181471 0.500000
O O14 0.669208 0.159352 0.781432
O O15 0.173221 0.419212 0.500000
#
# Coordination Sequence:
#
# PCOD8316172 Si02
#       5
#     8  16  16  16  16
#     4  11  25  43  63  89 120 155 198 245 295 358
#     4   9  19  35  53  75 107 145 184 232 288 345
#     4  10  22  40  60  87 122 160 202 250 300 355
#     4  10  20  35  56  84 115 150 194 243 293 349
#     4  11  22  40  63  87 120 157 197 247 300 359
#
# _framework density 19.437937999999999
#
# number of rings (size 3 to 8) (size 9 to 14) (size 15 to 20)
#    0.000    1.889    1.111    2.333    0.000    7.556 
#    0.000    4.444    0.000    0.000    0.000    0.000 
#    0.000    0.000    0.000    0.000    0.000    0.000 
#
# Total GULP energy -892328.427115 kJ/mol
# GULP energy per Si atom -12393.450377 kJ/mol
# Density = 1.939370 g / cm^3
# Si number density = 19.437938 Si / 1000 Ang^3
#
#
#
# Elastic Constant Matrix: (Units=GPa)
#
#
# Indices 1 2 3 4 5 6 
#
# 1 147.1571 67.5304 33.8199 0.0000 0.0000 0.0000
# 2 67.5304 147.1566 33.8163 0.0000 0.0000 0.0000
# 3 33.8199 33.8163 38.4583 0.0000 0.0000 0.0000
# 4 0.0000 0.0000 0.0000 31.3664 0.0000 0.0000
# 5 0.0000 0.0000 0.0000 0.0000 31.3660 0.0000
# 6 0.0000 0.0000 0.0000 0.0000 0.0000 16.4573
#
#
#
# Elastic Compliance Matrix: (Units=1/GPa)
#
#
# Indices 1 2 3 4 5 6 
#
# 1 0.009501 -0.003058 -0.005666 0.000000 0.000000 0.000000
# 2 -0.003058 0.009500 -0.005665 0.000000 0.000000 0.000000
# 3 -0.005666 -0.005665 0.035966 0.000000 0.000000 0.000000
# 4 0.000000 0.000000 0.000000 0.031881 0.000000 0.000000
# 5 0.000000 0.000000 0.000000 0.000000 0.031882 0.000000
# 6 0.000000 0.000000 0.000000 0.000000 0.000000 0.060763
#
#
# Mechanical properties :
#
#
# Convention : Reuss Voigt Hill
#
# Bulk Modulus (GPa) = 38.18284 67.01169 52.59726
# Shear Modulus (GPa) = 23.04134 29.01163 26.02648
#
# Velocity S-wave (km/s) = 3.44667 3.86751 3.66314
# Velocity P-wave (km/s) = 5.96033 7.38194 6.70890
#
# Compressibility (1/GPa) = 0.02618978
#
# Stress axis : x y z
#
# Youngs Moduli (GPa) = 105.25249 105.25774 27.80404
#
# Poissons Ratio (x) = 0.32187 0.15754
# Poissons Ratio (y) = 0.32185 0.15750
# Poissons Ratio (z) = 0.59639 0.59625
#
# Static dielectric constant tensor:
#      x y z
#    x 3.945080 0.000000 0.000000 
#    y 0.000000 3.945630 0.000000 
#    z 0.000000 0.000000 3.487970 
# 
# 
# High freq. dielectric constant tensor:
#      x y z
#    x 1.765830 0.000000 0.000000 
#    y 0.000000 1.765830 0.000000 
#    z 0.000000 0.000000 1.751370 
# 
# From -- ./inp_files/1790.got.cif
#   From: 2010.03.12/outbox.cif.g09.slc.cpg/sg131_1_cif.got.tgz:1790.got - 2010.04.06 17:36:35.
