data_PCOD8316970
_publ_section_title
;
Structure prediction by ZEFSAII (Michael W. Deem and Ramdas Pophale) SiO2 
 PCOD8316970
Probable space group: P 42/N B C
;
_chemical_formula_sum "Si O2"
_cell_formula_units_Z 88
_cell_length_a 12.700118
_cell_length_b 12.700118
_cell_length_c 26.103647
_cell_angle_alpha 90.000000
_cell_angle_beta 90.000000
_cell_angle_gamma 90.000000
_cell_volume 4210.335463
_symmetry_space_group_name_H-M "P 42/N B C"
_symmetry_group_IT_number 133
_space_group.IT_coordinate_system_code '2'
_symmetry_cell_setting 'tetragonal'
loop_
_space_group_symop_operation_xyz
x,y,z
1/2-y,x,1/2+z
1/2-x,1/2-y,z
y,1/2-x,1/2+z
x,1/2-y,-z
1/2-x,y,-z
y,x,1/2-z
1/2-y,1/2-x,1/2-z
-x,-y,-z
1/2+y,-x,1/2-z
1/2+x,1/2+y,-z
-y,1/2+x,1/2-z
-x,1/2+y,z
1/2+x,-y,z
-y,-x,1/2+z
1/2+y,1/2+x,1/2+z
loop_
_atom_site_type_symbol
_atom_site_label
_atom_site_fract_x
_atom_site_fract_y
_atom_site_fract_z
Si Si1 0.008705 0.385845 0.581270
Si Si2 0.333156 0.501573 0.641145
Si Si3 0.638308 0.085566 0.419765
Si Si4 0.921078 0.279607 0.250309
Si Si5 0.801342 0.534772 0.854956
Si Si6 0.750000 0.390675 0.000000
O O1 0.922316 0.419008 0.622912
O O2 0.075790 0.303001 0.615390
O O3 0.964956 0.326300 0.532203
O O4 0.069816 0.487386 0.559264
O O5 0.235792 0.527824 0.605263
O O6 0.306532 0.514947 0.700006
O O7 0.369675 0.381385 0.636446
O O8 0.573302 0.154515 0.379428
O O9 0.676408 0.168504 0.464196
O O10 0.868696 0.166464 0.241322
O O11 0.006205 0.278379 0.295982
#
# Coordination Sequence:
#
# PCOD8316970 Si02
#       6
#    16  16  16  16  16   8
#     4  10  22  40  60  87 121 159 205 256 315 382
#     4  11  22  37  60  87 125 163 205 258 310 368
#     4  10  22  39  61  90 120 155 206 255 313 381
#     4  11  20  34  61  90 124 163 210 261 310 367
#     4  10  21  38  59  87 124 170 199 252 314 372
#     4  10  22  39  66  89 120 158 200 263 326 371
#
# _framework density 20.900948
#
# number of rings (size 3 to 8) (size 9 to 14) (size 15 to 20)
#    0.000    1.636    3.636    1.091    0.000    5.091 
#    0.000    0.909    0.000   12.000    0.000    0.000 
#    0.000    0.000    0.000    0.000    0.000    0.000 
#
# Total GULP energy -1090705.797725 kJ/mol
# GULP energy per Si atom -12394.384065 kJ/mol
# Density = 2.085338 g / cm^3
# Si number density = 20.900948 Si / 1000 Ang^3
#
#
#
# Elastic Constant Matrix: (Units=GPa)
#
#
# Indices 1 2 3 4 5 6 
#
# 1 72.0760 18.2599 12.4188 0.0000 0.0000 0.0000
# 2 18.2599 72.0760 12.4188 0.0000 0.0000 0.0000
# 3 12.4188 12.4188 50.7807 0.0000 0.0000 0.0000
# 4 0.0000 0.0000 0.0000 29.3627 0.0000 0.0000
# 5 0.0000 0.0000 0.0000 0.0000 29.3627 0.0000
# 6 0.0000 0.0000 0.0000 0.0000 0.0000 5.5396
#
#
#
# Elastic Compliance Matrix: (Units=1/GPa)
#
#
# Indices 1 2 3 4 5 6 
#
# 1 0.015225 -0.003357 -0.002902 0.000000 0.000000 0.000000
# 2 -0.003357 0.015225 -0.002902 0.000000 0.000000 0.000000
# 3 -0.002902 -0.002902 0.021112 0.000000 0.000000 0.000000
# 4 0.000000 0.000000 0.000000 0.034057 0.000000 0.000000
# 5 0.000000 0.000000 0.000000 0.000000 0.034057 0.000000
# 6 0.000000 0.000000 0.000000 0.000000 0.000000 0.180520
#
#
# Mechanical properties :
#
#
# Convention : Reuss Voigt Hill
#
# Bulk Modulus (GPa) = 30.08579 31.23640 30.66110
# Shear Modulus (GPa) = 15.16999 22.97535 19.07267
#
# Velocity S-wave (km/s) = 2.69700 3.31909 3.02408
# Velocity P-wave (km/s) = 4.91163 5.44664 5.18604
#
# Compressibility (1/GPa) = 0.03323828
#
# Stress axis : x y z
#
# Youngs Moduli (GPa) = 65.68227 65.68227 47.36620
#
# Poissons Ratio (x) = 0.22050 0.13747
# Poissons Ratio (y) = 0.22050 0.13747
# Poissons Ratio (z) = 0.19063 0.19063
#
# Static dielectric constant tensor:
#      x y z
#    x 3.998080 0.000000 0.000000 
#    y 0.000000 3.998080 0.000000 
#    z 0.000000 0.000000 4.006020 
# 
# 
# High freq. dielectric constant tensor:
#      x y z
#    x 1.814540 0.000000 0.000000 
#    y 0.000000 1.814540 0.000000 
#    z 0.000000 0.000000 1.829370 
# 
# From -- ./inp_files/7125.got.cif
#   From: 2010.03.12/outbox.cif.g09.slc.cpg/sg133_4_cif.got.tgz:7125.got - 2010.04.06 18:08:06.
