data_PCOD8316284
_publ_section_title
;
Structure prediction by ZEFSAII (Michael W. Deem and Ramdas Pophale) SiO2 
 PCOD8316284
Probable space group: P 42/M M C
;
_chemical_formula_sum "Si O2"
_cell_formula_units_Z 96
_cell_length_a 14.967871
_cell_length_b 14.967871
_cell_length_c 19.225155
_cell_angle_alpha 90.000000
_cell_angle_beta 90.000000
_cell_angle_gamma 90.000000
_cell_volume 4307.149170
_symmetry_space_group_name_H-M "P 42/M M C"
_symmetry_group_IT_number 131
_symmetry_cell_setting 'tetragonal'
loop_
_space_group_symop_operation_xyz
x,y,z
-x,-y,z
-y,x,1/2+z
y,-x,1/2+z
-x,y,-z
x,-y,-z
y,x,1/2-z
-y,-x,1/2-z
-x,-y,-z
x,y,-z
y,-x,1/2-z
-y,x,1/2-z
x,-y,z
-x,y,z
-y,-x,1/2+z
y,x,1/2+z
loop_
_atom_site_type_symbol
_atom_site_label
_atom_site_fract_x
_atom_site_fract_y
_atom_site_fract_z
Si Si1 0.602323 0.160443 0.694539
Si Si2 0.899443 0.723680 0.924789
Si Si3 0.097814 0.100024 0.154147
Si Si4 0.398045 0.238025 0.918380
Si Si5 0.360512 0.404250 0.178310
Si Si6 0.099520 0.294947 0.325269
O O1 0.500000 0.128579 0.684546
O O2 0.658478 0.153807 0.624582
O O3 0.611310 0.263491 0.712413
O O4 0.647159 0.104116 0.755614
O O5 0.897650 0.828509 0.907099
O O6 0.000000 0.688323 0.925331
O O7 0.854134 0.713808 0.000000
O O8 0.190251 0.115505 0.197361
O O9 0.000000 0.112800 0.195164
O O10 0.098678 0.000000 0.122299
O O11 0.500000 0.202932 0.910183
O O12 0.391061 0.331411 0.877580
O O13 0.329110 0.167896 0.884213
O O14 0.374217 0.250731 0.000000
O O15 0.414953 0.414953 0.250000
O O16 0.365907 0.500000 0.138734
O O17 0.000000 0.306384 0.356212
#
# Coordination Sequence:
#
# PCOD8316284 Si02
#       6
#    16  16  16  16  16  16
#     4  11  24  41  63  92 126 168 219 272 325 383
#     4  10  22  39  60  89 125 168 217 268 325 388
#     4   9  20  39  63  93 128 166 212 270 332 392
#     4  11  25  44  66  97 136 173 215 272 330 386
#     4  11  23  41  67  95 126 167 215 269 329 394
#     4  11  23  41  67  95 129 176 222 265 321 390
#
# _framework density 22.288523000000001
#
# number of rings (size 3 to 8) (size 9 to 14) (size 15 to 20)
#    0.000    1.500    1.667    2.500    0.000    7.500 
#    0.000   10.000    0.000    6.000    0.000    0.000 
#    0.000    0.000    0.000    0.000    0.000    0.000 
#
# Total GULP energy -1189282.549119 kJ/mol
# GULP energy per Si atom -12388.359887 kJ/mol
# Density = 2.223779 g / cm^3
# Si number density = 22.288523 Si / 1000 Ang^3
#
#
#
# Elastic Constant Matrix: (Units=GPa)
#
#
# Indices 1 2 3 4 5 6 
#
# 1 142.6452 54.3830 48.7002 0.0000 0.0000 0.0000
# 2 54.3830 142.6452 48.7002 0.0000 0.0000 0.0000
# 3 48.7002 48.7002 129.3777 0.0000 0.0000 0.0000
# 4 0.0000 0.0000 0.0000 19.9435 0.0000 0.0000
# 5 0.0000 0.0000 0.0000 0.0000 19.9435 0.0000
# 6 0.0000 0.0000 0.0000 0.0000 0.0000 27.2191
#
#
#
# Elastic Compliance Matrix: (Units=1/GPa)
#
#
# Indices 1 2 3 4 5 6 
#
# 1 0.008783 -0.002547 -0.002347 0.000000 0.000000 0.000000
# 2 -0.002547 0.008783 -0.002347 0.000000 0.000000 0.000000
# 3 -0.002347 -0.002347 0.009496 0.000000 0.000000 0.000000
# 4 0.000000 0.000000 0.000000 0.050142 0.000000 0.000000
# 5 0.000000 0.000000 0.000000 0.000000 0.050142 0.000000
# 6 0.000000 0.000000 0.000000 0.000000 0.000000 0.036739
#
#
# Mechanical properties :
#
#
# Convention : Reuss Voigt Hill
#
# Bulk Modulus (GPa) = 79.49808 79.80386 79.65097
# Shear Modulus (GPa) = 27.35821 30.94686 29.15253
#
# Velocity S-wave (km/s) = 3.50731 3.73026 3.62050
# Velocity P-wave (km/s) = 7.22127 7.37806 7.30009
#
# Compressibility (1/GPa) = 0.01257892
#
# Stress axis : x y z
#
# Youngs Moduli (GPa) = 113.85853 113.85853 105.30294
#
# Poissons Ratio (x) = 0.29000 0.24717
# Poissons Ratio (y) = 0.29000 0.24717
# Poissons Ratio (z) = 0.26726 0.26726
#
# Static dielectric constant tensor:
#      x y z
#    x 4.318350 0.000000 0.000000 
#    y 0.000000 4.318350 0.000000 
#    z 0.000000 0.000000 3.798640 
# 
# 
# High freq. dielectric constant tensor:
#      x y z
#    x 1.894770 0.000000 0.000000 
#    y 0.000000 1.894770 0.000000 
#    z 0.000000 0.000000 1.851210 
# 
# From -- ./inp_files/9778.got.cif
#   From: 2010.03.12/outbox.cif.g09.slc.cpg/sg131_5_cif.got.tgz:9778.got - 2010.04.06 17:36:35.
