data_PCOD8316012
_publ_section_title
;
Structure prediction by ZEFSAII (Michael W. Deem and Ramdas Pophale) SiO2 
 PCOD8316012
Probable space group: P 42/M M C
;
_chemical_formula_sum "Si O2"
_cell_formula_units_Z 72
_cell_length_a 20.424877
_cell_length_b 20.424877
_cell_length_c 9.457323
_cell_angle_alpha 90.000000
_cell_angle_beta 90.000000
_cell_angle_gamma 90.000000
_cell_volume 3945.364401
_symmetry_space_group_name_H-M "P 42/M M C"
_symmetry_group_IT_number 131
_symmetry_cell_setting 'tetragonal'
loop_
_space_group_symop_operation_xyz
x,y,z
-x,-y,z
-y,x,1/2+z
y,-x,1/2+z
-x,y,-z
x,-y,-z
y,x,1/2-z
-y,-x,1/2-z
-x,-y,-z
x,y,-z
y,-x,1/2-z
-y,x,1/2-z
x,-y,z
-x,y,z
-y,-x,1/2+z
y,x,1/2+z
loop_
_atom_site_type_symbol
_atom_site_label
_atom_site_fract_x
_atom_site_fract_y
_atom_site_fract_z
Si Si1 0.678479 0.891892 0.165042
Si Si2 0.000000 0.573954 0.664780
Si Si3 0.678554 0.233770 0.664731
Si Si4 0.426923 0.341825 0.338289
Si Si5 0.074752 0.828692 0.335127
O O1 0.660017 0.834879 0.271221
O O2 0.751315 0.918528 0.199737
O O3 0.619434 0.939459 0.207439
O O4 0.674784 0.871783 0.000000
O O5 0.000000 0.500000 0.735479
O O6 0.000000 0.562140 0.500000
O O7 0.741804 0.258197 0.750000
O O8 0.696325 0.229161 0.500000
O O9 0.617049 0.279554 0.696324
O O10 0.404568 0.404568 0.250000
O O11 0.421346 0.362760 0.500000
O O12 0.500000 0.322355 0.294858
O O13 0.126712 0.873289 0.250000
O O14 0.088439 0.841085 0.500000
O O15 0.000000 0.849089 0.296271
#
# Coordination Sequence:
#
# PCOD8316012 Si02
#       5
#    16   8  16  16  16
#     4  10  19  35  57  80 110 144 180 225 273 322
#     4   9  18  34  57  83 110 145 186 224 267 325
#     4  10  20  34  53  78 106 138 177 221 268 320
#     4   9  19  35  52  72 102 138 174 216 268 323
#     4  10  21  37  56  79 109 145 182 224 276 326
#
# _framework density 18.249264
#
# number of rings (size 3 to 8) (size 9 to 14) (size 15 to 20)
#    0.000    2.333    1.111    1.333    0.000    5.778 
#    0.000    2.778    0.000    0.667    0.000    0.000 
#    0.000    0.000    0.000    0.000    0.000    0.000 
#
# Total GULP energy -892349.831241 kJ/mol
# GULP energy per Si atom -12393.747656 kJ/mol
# Density = 1.820773 g / cm^3
# Si number density = 18.249264 Si / 1000 Ang^3
#
#
#
# Elastic Constant Matrix: (Units=GPa)
#
#
# Indices 1 2 3 4 5 6 
#
# 1 134.9221 62.1009 57.5314 0.0000 0.0000 0.0000
# 2 62.1009 134.9279 57.5331 0.0000 0.0000 0.0000
# 3 57.5314 57.5331 76.4453 0.0000 0.0000 0.0000
# 4 0.0000 0.0000 0.0000 26.4366 0.0000 0.0000
# 5 0.0000 0.0000 0.0000 0.0000 26.4365 0.0000
# 6 0.0000 0.0000 0.0000 0.0000 0.0000 16.2304
#
#
#
# Elastic Compliance Matrix: (Units=1/GPa)
#
#
# Indices 1 2 3 4 5 6 
#
# 1 0.011394 -0.002338 -0.006815 0.000000 0.000000 0.000000
# 2 -0.002338 0.011393 -0.006815 0.000000 0.000000 0.000000
# 3 -0.006815 -0.006815 0.023339 0.000000 0.000000 0.000000
# 4 0.000000 0.000000 0.000000 0.037826 0.000000 0.000000
# 5 0.000000 0.000000 0.000000 0.000000 0.037827 0.000000
# 6 0.000000 0.000000 0.000000 0.000000 0.000000 0.061613
#
#
# Mechanical properties :
#
#
# Convention : Reuss Voigt Hill
#
# Bulk Modulus (GPa) = 70.47299 77.84734 74.16017
# Shear Modulus (GPa) = 22.72117 25.09603 23.90860
#
# Velocity S-wave (km/s) = 3.53235 3.71237 3.62348
# Velocity P-wave (km/s) = 7.43891 7.81831 7.63097
#
# Compressibility (1/GPa) = 0.01418983
#
# Stress axis : x y z
#
# Youngs Moduli (GPa) = 87.76662 87.76978 42.84604
#
# Poissons Ratio (x) = 0.20521 0.29200
# Poissons Ratio (y) = 0.20520 0.29200
# Poissons Ratio (z) = 0.59815 0.59817
#
# Static dielectric constant tensor:
#      x y z
#    x 3.473210 0.000000 0.000000 
#    y 0.000000 3.473200 0.000000 
#    z 0.000000 0.000000 3.250720 
# 
# 
# High freq. dielectric constant tensor:
#      x y z
#    x 1.712400 0.000000 0.000000 
#    y 0.000000 1.712400 0.000000 
#    z 0.000000 0.000000 1.695060 
# 
# From -- ./inp_files/1760.got.cif
#   From: 2010.03.12/outbox.cif.g09.slc.cpg/sg131_1_cif.got.tgz:1760.got - 2010.04.06 17:36:35.
