data_PCOD8316931
_publ_section_title
;
Structure prediction by ZEFSAII (Michael W. Deem and Ramdas Pophale) SiO2 
 PCOD8316931
Probable space group: P 42/N B C
;
_chemical_formula_sum "Si O2"
_cell_formula_units_Z 96
_cell_length_a 15.243421
_cell_length_b 15.243421
_cell_length_c 19.335695
_cell_angle_alpha 90.000000
_cell_angle_beta 90.000000
_cell_angle_gamma 90.000000
_cell_volume 4492.878514
_symmetry_space_group_name_H-M "P 42/N B C"
_symmetry_group_IT_number 133
_space_group.IT_coordinate_system_code '2'
_symmetry_cell_setting 'tetragonal'
loop_
_space_group_symop_operation_xyz
x,y,z
1/2-y,x,1/2+z
1/2-x,1/2-y,z
y,1/2-x,1/2+z
x,1/2-y,-z
1/2-x,y,-z
y,x,1/2-z
1/2-y,1/2-x,1/2-z
-x,-y,-z
1/2+y,-x,1/2-z
1/2+x,1/2+y,-z
-y,1/2+x,1/2-z
-x,1/2+y,z
1/2+x,-y,z
-y,-x,1/2+z
1/2+y,1/2+x,1/2+z
loop_
_atom_site_type_symbol
_atom_site_label
_atom_site_fract_x
_atom_site_fract_y
_atom_site_fract_z
Si Si1 0.017320 0.574546 0.054149
Si Si2 0.689943 0.881234 0.640358
Si Si3 0.022906 0.880665 0.226817
Si Si4 0.173584 0.173584 0.250000
Si Si5 0.983809 0.865222 0.653817
Si Si6 0.750000 0.553010 0.500000
Si Si7 0.181316 0.992358 0.870898
O O1 0.116631 0.563656 0.080768
O O2 0.945652 0.563509 0.115008
O O3 0.009200 0.667142 0.015504
O O4 0.000000 0.500000 0.000000
O O5 0.743876 0.823208 0.696193
O O6 0.736896 0.883667 0.565949
O O7 0.594657 0.841605 0.629192
O O8 0.682671 0.980854 0.668711
O O9 0.050294 0.825645 0.294221
O O10 0.105429 0.929474 0.194085
O O11 0.951615 0.951615 0.250000
O O12 0.083423 0.177223 0.291976
O O13 0.013912 0.783541 0.604604
#
# Coordination Sequence:
#
# PCOD8316931 Si02
#       7
#    16  16  16   8  16   8  16
#     4  12  24  46  67  97 142 191 242 294 366 443
#     4  11  23  41  64 103 147 179 225 301 365 445
#     4  10  19  39  62  96 136 179 231 287 352 431
#     4  12  22  37  64 108 138 175 234 300 370 433
#     4  12  22  38  71 100 132 188 239 289 364 432
#     4  12  24  44  73  99 140 204 240 286 375 455
#     4  11  24  41  69 102 140 187 241 301 362 435
#
# _framework density 21.367149000000001
#
# number of rings (size 3 to 8) (size 9 to 14) (size 15 to 20)
#    0.000    0.667    9.167    0.000    0.000    2.000 
#    0.000    0.833    0.000   12.500    0.000    0.000 
#    0.000    0.000    0.000    0.000    0.000    0.000 
#
# Total GULP energy -1190180.417687 kJ/mol
# GULP energy per Si atom -12397.712684 kJ/mol
# Density = 2.131852 g / cm^3
# Si number density = 21.367149 Si / 1000 Ang^3
#
#
#
# Elastic Constant Matrix: (Units=GPa)
#
#
# Indices 1 2 3 4 5 6 
#
# 1 93.9773 40.9020 28.8245 0.0000 0.0000 0.0000
# 2 40.9020 93.9773 28.8245 0.0000 0.0000 0.0000
# 3 28.8245 28.8245 105.8628 0.0000 0.0000 0.0000
# 4 0.0000 0.0000 0.0000 34.6401 0.0000 0.0000
# 5 0.0000 0.0000 0.0000 0.0000 34.6401 0.0000
# 6 0.0000 0.0000 0.0000 0.0000 0.0000 19.5503
#
#
#
# Elastic Compliance Matrix: (Units=1/GPa)
#
#
# Indices 1 2 3 4 5 6 
#
# 1 0.013616 -0.005225 -0.002285 0.000000 0.000000 0.000000
# 2 -0.005225 0.013616 -0.002285 0.000000 0.000000 0.000000
# 3 -0.002285 -0.002285 0.010690 0.000000 0.000000 0.000000
# 4 0.000000 0.000000 0.000000 0.028868 0.000000 0.000000
# 5 0.000000 0.000000 0.000000 0.000000 0.028868 0.000000
# 6 0.000000 0.000000 0.000000 0.000000 0.000000 0.051150
#
#
# Mechanical properties :
#
#
# Convention : Reuss Voigt Hill
#
# Bulk Modulus (GPa) = 54.54657 54.54660 54.54659
# Shear Modulus (GPa) = 28.98404 30.78384 29.88394
#
# Velocity S-wave (km/s) = 3.68703 3.79979 3.74383
# Velocity P-wave (km/s) = 6.61130 6.69588 6.65372
#
# Compressibility (1/GPa) = 0.01833296
#
# Stress axis : x y z
#
# Youngs Moduli (GPa) = 73.44394 73.44394 93.54295
#
# Poissons Ratio (x) = 0.38377 0.21371
# Poissons Ratio (y) = 0.38377 0.21371
# Poissons Ratio (z) = 0.16779 0.16779
#
# Static dielectric constant tensor:
#      x y z
#    x 3.415070 0.000000 0.000000 
#    y 0.000000 3.415070 0.000000 
#    z 0.000000 0.000000 4.030670 
# 
# 
# High freq. dielectric constant tensor:
#      x y z
#    x 1.827200 0.000000 0.000000 
#    y 0.000000 1.827200 0.000000 
#    z 0.000000 0.000000 1.842580 
# 
# From -- ./inp_files/6582.got.cif
#   From: 2010.03.12/outbox.cif.g09.slc.cpg/sg133_4_cif.got.tgz:6582.got - 2010.04.06 18:08:06.
