data_PCOD8316865
_publ_section_title
;
Structure prediction by ZEFSAII (Michael W. Deem and Ramdas Pophale) SiO2 
 PCOD8316865
Probable space group: P 42/M C M
;
_chemical_formula_sum "Si O2"
_cell_formula_units_Z 68
_cell_length_a 17.195512
_cell_length_b 17.195512
_cell_length_c 10.357888
_cell_angle_alpha 90.000000
_cell_angle_beta 90.000000
_cell_angle_gamma 90.000000
_cell_volume 3062.678669
_symmetry_space_group_name_H-M "P 42/M C M"
_symmetry_group_IT_number 132
_symmetry_cell_setting 'tetragonal'
loop_
_space_group_symop_operation_xyz
x,y,z
-y,x,1/2+z
-x,-y,z
y,-x,1/2+z
x,-y,1/2-z
-x,y,1/2-z
y,x,-z
-y,-x,-z
-x,-y,-z
y,-x,1/2-z
x,y,-z
-y,x,1/2-z
-x,y,1/2+z
x,-y,1/2+z
-y,-x,z
y,x,z
loop_
_atom_site_type_symbol
_atom_site_label
_atom_site_fract_x
_atom_site_fract_y
_atom_site_fract_z
Si Si1 0.908679 0.908679 0.246150
Si Si2 0.038081 0.585680 0.000000
Si Si3 0.796819 0.796819 0.356067
Si Si4 0.316179 0.441323 0.643447
Si Si5 0.627612 0.843008 0.719062
Si Si6 0.119746 0.345179 0.000000
Si Si7 0.167325 0.832676 0.500000
O O1 0.863685 0.863685 0.360722
O O2 0.000000 0.891464 0.250000
O O3 0.872380 0.872380 0.119968
O O4 0.085071 0.600329 0.868040
O O5 0.000000 0.500000 0.000000
O O6 0.973543 0.653579 0.000000
O O7 0.773335 0.773335 0.500000
O O8 0.829314 0.720156 0.287048
O O9 0.349810 0.500000 0.750000
O O10 0.327606 0.477204 0.500000
O O11 0.360393 0.360393 0.657284
O O12 0.226909 0.423633 0.667079
O O13 0.608306 0.853418 0.871066
O O14 0.152797 0.258744 0.000000
#
# Coordination Sequence:
#
# PCOD8316865 Si02
#       7
#     8   8   8  16  16   8   4
#     4  11  28  43  64  99 142 189 244 317 378 424
#     4  12  30  49  72 107 153 203 246 306 377 448
#     4  12  23  45  77 100 134 196 254 299 361 443
#     4  11  26  49  78 111 148 190 241 298 365 444
#     4  12  25  47  75 107 149 196 250 302 369 449
#     4  12  28  44  68 111 147 194 249 313 367 435
#     4  12  26  47  68 100 150 182 255 320 368 444
#
# _framework density 22.202786
#
# number of rings (size 3 to 8) (size 9 to 14) (size 15 to 20)
#    0.000    0.353    5.882    0.706    9.882    2.118 
#    0.000    1.176    0.000    0.000    0.000    0.000 
#    0.000    0.000    0.000    0.000    0.000    0.000 
#
# Total GULP energy -843229.655500 kJ/mol
# GULP energy per Si atom -12400.436110 kJ/mol
# Density = 2.215225 g / cm^3
# Si number density = 22.202786 Si / 1000 Ang^3
#
#
#
# Elastic Constant Matrix: (Units=GPa)
#
#
# Indices 1 2 3 4 5 6 
#
# 1 99.8572 38.5725 47.1777 0.0000 0.0000 0.0000
# 2 38.5725 99.8567 47.1779 0.0000 0.0000 0.0000
# 3 47.1777 47.1779 194.4093 0.0000 0.0000 0.0000
# 4 0.0000 0.0000 0.0000 33.3286 0.0000 0.0000
# 5 0.0000 0.0000 0.0000 0.0000 33.3283 0.0000
# 6 0.0000 0.0000 0.0000 0.0000 0.0000 21.2994
#
#
#
# Elastic Compliance Matrix: (Units=1/GPa)
#
#
# Indices 1 2 3 4 5 6 
#
# 1 0.012486 -0.003831 -0.002100 0.000000 0.000000 0.000000
# 2 -0.003831 0.012487 -0.002101 0.000000 0.000000 0.000000
# 3 -0.002100 -0.002101 0.006163 0.000000 0.000000 0.000000
# 4 0.000000 0.000000 0.000000 0.030004 0.000000 0.000000
# 5 0.000000 0.000000 0.000000 0.000000 0.030005 0.000000
# 6 0.000000 0.000000 0.000000 0.000000 0.000000 0.046950
#
#
# Mechanical properties :
#
#
# Convention : Reuss Voigt Hill
#
# Bulk Modulus (GPa) = 66.34576 73.33106 69.83841
# Shear Modulus (GPa) = 31.41047 35.00426 33.20736
#
# Velocity S-wave (km/s) = 3.76534 3.97491 3.87155
# Velocity P-wave (km/s) = 6.98930 7.35977 7.17692
#
# Compressibility (1/GPa) = 0.01507255
#
# Stress axis : x y z
#
# Youngs Moduli (GPa) = 80.08690 80.08631 162.25219
#
# Poissons Ratio (x) = 0.30680 0.34080
# Poissons Ratio (y) = 0.30680 0.34081
# Poissons Ratio (z) = 0.16822 0.16822
#
# Static dielectric constant tensor:
#      x y z
#    x 4.107200 0.000000 0.000000 
#    y 0.000000 4.107210 0.000000 
#    z 0.000000 0.000000 4.386560 
# 
# 
# High freq. dielectric constant tensor:
#      x y z
#    x 1.876150 0.000000 0.000000 
#    y 0.000000 1.876150 0.000000 
#    z 0.000000 0.000000 1.898080 
# 
# From -- ./inp_files/3229.got.cif
#   From: 2010.03.12/outbox.cif.g09.slc.cpg/sg132_2_cif.got.tgz:3229.got - 2010.04.06 17:53:44.
