data_PCOD8316883
_publ_section_title
;
Structure prediction by ZEFSAII (Michael W. Deem and Ramdas Pophale) SiO2 
 PCOD8316883
Probable space group: P 42/N B C
;
_chemical_formula_sum "Si O2"
_cell_formula_units_Z 92
_cell_length_a 25.384994
_cell_length_b 25.384994
_cell_length_c 9.269564
_cell_angle_alpha 90.000000
_cell_angle_beta 90.000000
_cell_angle_gamma 90.000000
_cell_volume 5973.287764
_symmetry_space_group_name_H-M "P 42/N B C"
_symmetry_group_IT_number 133
_space_group.IT_coordinate_system_code '2'
_symmetry_cell_setting 'tetragonal'
loop_
_space_group_symop_operation_xyz
x,y,z
1/2-y,x,1/2+z
1/2-x,1/2-y,z
y,1/2-x,1/2+z
x,1/2-y,-z
1/2-x,y,-z
y,x,1/2-z
1/2-y,1/2-x,1/2-z
-x,-y,-z
1/2+y,-x,1/2-z
1/2+x,1/2+y,-z
-y,1/2+x,1/2-z
-x,1/2+y,z
1/2+x,-y,z
-y,-x,1/2+z
1/2+y,1/2+x,1/2+z
loop_
_atom_site_type_symbol
_atom_site_label
_atom_site_fract_x
_atom_site_fract_y
_atom_site_fract_z
Si Si1 0.431076 0.342844 0.248970
Si Si2 0.250000 0.250000 0.750000
Si Si3 0.893493 0.544286 0.524117
Si Si4 0.521027 0.432907 0.746397
Si Si5 0.497248 0.410822 0.432420
Si Si6 0.129208 0.129208 0.750000
Si Si7 0.367053 0.245338 0.338650
O O1 0.388216 0.388216 0.250000
O O2 0.471855 0.354690 0.381380
O O3 0.400359 0.288034 0.250402
O O4 0.461303 0.347531 0.095187
O O5 0.247781 0.303610 0.842677
O O6 0.887967 0.495525 0.636138
O O7 0.951332 0.544435 0.445868
O O8 0.890030 0.600297 0.606281
O O9 0.470922 0.470922 0.750000
O O10 0.527951 0.407168 0.586967
O O11 0.572930 0.462422 0.804415
O O12 0.190565 0.117099 0.768027
O O13 0.387613 0.250000 0.500000
#
# Coordination Sequence:
#
# PCOD8316883 Si02
#       7
#    16   4  16  16  16   8  16
#     4  10  19  31  46  59  83 104 134 175 221 272
#     4  10  22  36  44  64  68  98 136 204 232 298
#     4  10  18  31  43  62  85 106 131 168 212 268
#     4  10  16  25  44  64  89 108 125 150 200 273
#     4  10  17  27  43  67  87 108 128 155 206 275
#     4  11  22  33  48  61  80 110 146 189 228 279
#     4  11  22  34  49  59  78 102 144 187 246 275
#
# _framework density 15.401904
#
# number of rings (size 3 to 8) (size 9 to 14) (size 15 to 20)
#    0.000    1.739    3.478    7.043    0.000    0.696 
#    0.000    0.000    0.000    0.000    0.000    0.000 
#    0.000    0.000    0.000    0.000    0.000    0.000 
#
# Total GULP energy -1139919.931634 kJ/mol
# GULP energy per Si atom -12390.434039 kJ/mol
# Density = 1.536685 g / cm^3
# Si number density = 15.401904 Si / 1000 Ang^3
#
#
#
# Elastic Constant Matrix: (Units=GPa)
#
#
# Indices 1 2 3 4 5 6 
#
# 1 48.1969 39.5721 29.8833 0.0000 0.0000 0.0000
# 2 39.5721 48.1969 29.8833 0.0000 0.0000 0.0000
# 3 29.8833 29.8833 99.1634 0.0000 0.0000 0.0000
# 4 0.0000 0.0000 0.0000 16.4248 0.0000 0.0000
# 5 0.0000 0.0000 0.0000 0.0000 16.4248 0.0000
# 6 0.0000 0.0000 0.0000 0.0000 0.0000 25.7952
#
#
#
# Elastic Compliance Matrix: (Units=1/GPa)
#
#
# Indices 1 2 3 4 5 6 
#
# 1 0.065140 -0.050805 -0.004320 0.000000 0.000000 0.000000
# 2 -0.050805 0.065140 -0.004320 0.000000 0.000000 0.000000
# 3 -0.004320 -0.004320 0.012688 0.000000 0.000000 0.000000
# 4 0.000000 0.000000 0.000000 0.060884 0.000000 0.000000
# 5 0.000000 0.000000 0.000000 0.000000 0.060884 0.000000
# 6 0.000000 0.000000 0.000000 0.000000 0.000000 0.038767
#
#
# Mechanical properties :
#
#
# Convention : Reuss Voigt Hill
#
# Bulk Modulus (GPa) = 41.53062 43.80385 42.66724
# Shear Modulus (GPa) = 11.61662 18.14352 14.88007
#
# Velocity S-wave (km/s) = 2.74931 3.43593 3.11162
# Velocity P-wave (km/s) = 6.09109 6.65155 6.37748
#
# Compressibility (1/GPa) = 0.02407862
#
# Stress axis : x y z
#
# Youngs Moduli (GPa) = 15.35155 15.35155 78.81427
#
# Poissons Ratio (x) = 0.77993 0.34048
# Poissons Ratio (y) = 0.77993 0.34048
# Poissons Ratio (z) = 0.06632 0.06632
#
# Static dielectric constant tensor:
#      x y z
#    x 2.799620 0.000000 0.000000 
#    y 0.000000 2.799620 0.000000 
#    z 0.000000 0.000000 3.492540 
# 
# 
# High freq. dielectric constant tensor:
#      x y z
#    x 1.541940 0.000000 0.000000 
#    y 0.000000 1.541940 0.000000 
#    z 0.000000 0.000000 1.619830 
# 
# From -- ./inp_files/2045.got.cif
#   From: 2010.03.12/outbox.cif.g09.slc.cpg/sg133_2_cif.got.tgz:2045.got - 2010.04.06 18:08:06.
