data_PCOD8316310
_publ_section_title
;
Structure prediction by ZEFSAII (Michael W. Deem and Ramdas Pophale) SiO2 
 PCOD8316310
Probable space group: P 42/M M C
;
_chemical_formula_sum "Si O2"
_cell_formula_units_Z 72
_cell_length_a 15.717209
_cell_length_b 15.717209
_cell_length_c 17.785091
_cell_angle_alpha 90.000000
_cell_angle_beta 90.000000
_cell_angle_gamma 90.000000
_cell_volume 4393.462746
_symmetry_space_group_name_H-M "P 42/M M C"
_symmetry_group_IT_number 131
_symmetry_cell_setting 'tetragonal'
loop_
_space_group_symop_operation_xyz
x,y,z
-x,-y,z
-y,x,1/2+z
y,-x,1/2+z
-x,y,-z
x,-y,-z
y,x,1/2-z
-y,-x,1/2-z
-x,-y,-z
x,y,-z
y,-x,1/2-z
-y,x,1/2-z
x,-y,z
-x,y,z
-y,-x,1/2+z
y,x,1/2+z
loop_
_atom_site_type_symbol
_atom_site_label
_atom_site_fract_x
_atom_site_fract_y
_atom_site_fract_z
Si Si1 0.175004 0.328756 0.590913
Si Si2 0.664396 0.602717 0.328629
Si Si3 0.000000 0.100433 0.917447
Si Si4 0.500000 0.098634 0.082039
Si Si5 0.898403 0.164907 0.326790
Si Si6 0.598911 0.500000 0.919395
O O1 0.174488 0.318429 0.500000
O O2 0.267799 0.343608 0.624084
O O3 0.125603 0.412521 0.621575
O O4 0.128877 0.248668 0.628283
O O5 0.649393 0.649393 0.250000
O O6 0.682461 0.500000 0.322847
O O7 0.580788 0.625233 0.373117
O O8 0.915582 0.130664 0.875554
O O9 0.000000 0.000000 0.923813
O O10 0.000000 0.142308 0.000000
O O11 0.500000 0.000000 0.072952
O O12 0.500000 0.143558 0.000000
O O13 0.845128 0.154873 0.250000
O O14 0.000000 0.165500 0.311533
O O15 0.500000 0.500000 0.934037
O O16 0.646306 0.500000 0.000000
#
# Coordination Sequence:
#
# PCOD8316310 Si02
#       6
#    16  16   8   8  16   8
#     4  11  22  35  54  81 113 145 186 233 279 333
#     4  11  20  34  53  76 109 146 185 230 282 333
#     4   9  18  32  54  80 108 145 186 225 273 334
#     4   9  18  33  50  71 103 142 177 217 265 321
#     4  11  21  36  57  81 114 149 184 230 282 331
#     4   9  18  29  48  72 100 140 183 224 272 331
#
# _framework density 16.387986000000001
#
# number of rings (size 3 to 8) (size 9 to 14) (size 15 to 20)
#    0.000    1.667    3.333    2.667    0.000    3.111 
#    0.000    0.000    0.000    0.000    0.000    0.000 
#    0.000    0.000    0.000    7.444    0.000    0.000 
#
# Total GULP energy -892004.304752 kJ/mol
# GULP energy per Si atom -12388.948677 kJ/mol
# Density = 1.635069 g / cm^3
# Si number density = 16.387986 Si / 1000 Ang^3
#
#
#
# Elastic Constant Matrix: (Units=GPa)
#
#
# Indices 1 2 3 4 5 6 
#
# 1 99.6141 39.8173 45.0628 0.0000 0.0000 0.0000
# 2 39.8173 99.6138 45.0628 0.0000 0.0000 0.0000
# 3 45.0628 45.0628 122.5865 0.0000 0.0000 0.0000
# 4 0.0000 0.0000 0.0000 29.9160 0.0000 0.0000
# 5 0.0000 0.0000 0.0000 0.0000 29.9163 0.0000
# 6 0.0000 0.0000 0.0000 0.0000 0.0000 29.3474
#
#
#
# Elastic Compliance Matrix: (Units=1/GPa)
#
#
# Indices 1 2 3 4 5 6 
#
# 1 0.013065 -0.003658 -0.003458 0.000000 0.000000 0.000000
# 2 -0.003658 0.013065 -0.003458 0.000000 0.000000 0.000000
# 3 -0.003458 -0.003458 0.010700 0.000000 0.000000 0.000000
# 4 0.000000 0.000000 0.000000 0.033427 0.000000 0.000000
# 5 0.000000 0.000000 0.000000 0.000000 0.033427 0.000000
# 6 0.000000 0.000000 0.000000 0.000000 0.000000 0.034075
#
#
# Mechanical properties :
#
#
# Convention : Reuss Voigt Hill
#
# Bulk Modulus (GPa) = 63.76747 64.63335 64.20041
# Shear Modulus (GPa) = 30.46283 30.62737 30.54510
#
# Velocity S-wave (km/s) = 4.31612 4.32776 4.32194
# Velocity P-wave (km/s) = 7.98962 8.03105 8.01036
#
# Compressibility (1/GPa) = 0.01568198
#
# Stress axis : x y z
#
# Youngs Moduli (GPa) = 76.53873 76.53854 93.45879
#
# Poissons Ratio (x) = 0.27998 0.32319
# Poissons Ratio (y) = 0.27998 0.32319
# Poissons Ratio (z) = 0.26468 0.26468
#
# Static dielectric constant tensor:
#      x y z
#    x 3.081370 0.000000 0.000000 
#    y 0.000000 3.081400 0.000000 
#    z 0.000000 0.000000 3.432310 
# 
# 
# High freq. dielectric constant tensor:
#      x y z
#    x 1.624130 0.000000 0.000000 
#    y 0.000000 1.624130 0.000000 
#    z 0.000000 0.000000 1.637170 
# 
# From -- ./inp_files/7646.got.cif
#   From: 2010.03.12/outbox.cif.g09.slc.cpg/sg131_4_cif.got.tgz:7646.got - 2010.04.06 17:36:35.
