data_PCOD8316508
_publ_section_title
;
Structure prediction by ZEFSAII (Michael W. Deem and Ramdas Pophale) SiO2 
 PCOD8316508
Probable space group: P 42/M C M
;
_chemical_formula_sum "Si O2"
_cell_formula_units_Z 96
_cell_length_a 27.084077
_cell_length_b 27.084077
_cell_length_c 8.885639
_cell_angle_alpha 90.000000
_cell_angle_beta 90.000000
_cell_angle_gamma 90.000000
_cell_volume 6518.035848
_symmetry_space_group_name_H-M "P 42/M C M"
_symmetry_group_IT_number 132
_symmetry_cell_setting 'tetragonal'
loop_
_space_group_symop_operation_xyz
x,y,z
-y,x,1/2+z
-x,-y,z
y,-x,1/2+z
x,-y,1/2-z
-x,y,1/2-z
y,x,-z
-y,-x,-z
-x,-y,-z
y,-x,1/2-z
x,y,-z
-y,x,1/2-z
-x,y,1/2+z
x,-y,1/2+z
-y,-x,z
y,x,z
loop_
_atom_site_type_symbol
_atom_site_label
_atom_site_fract_x
_atom_site_fract_y
_atom_site_fract_z
Si Si1 0.156291 0.763087 0.678071
Si Si2 0.877913 0.953336 0.675303
Si Si3 0.621528 0.704733 0.169535
Si Si4 0.448333 0.633202 0.824698
Si Si5 0.050395 0.234042 0.321423
Si Si6 0.771974 0.309569 0.832715
O O1 0.149182 0.764275 0.500000
O O2 0.186176 0.813825 0.729410
O O3 0.103369 0.750751 0.754191
O O4 0.188176 0.715817 0.724744
O O5 0.882841 0.959636 0.500000
O O6 0.903654 0.903654 0.733178
O O7 0.822340 0.950954 0.729063
O O8 0.904826 0.000000 0.750000
O O9 0.664776 0.664776 0.168580
O O10 0.573679 0.683047 0.252828
O O11 0.639391 0.754073 0.256369
O O12 0.606761 0.719337 0.000000
O O13 0.500000 0.619778 0.750000
O O14 0.412686 0.587315 0.792409
O O15 0.455652 0.642797 0.000000
O O16 0.050029 0.243266 0.500000
O O17 0.000000 0.258856 0.250000
O O18 0.724920 0.275081 0.850465
O O19 0.794042 0.319886 0.000000
#
# Coordination Sequence:
#
# PCOD8316508 Si02
#       6
#    16  16  16  16  16  16
#     4  10  19  29  42  61  82 102 127 160 197 237
#     4   9  18  30  41  52  65  82 106 138 177 220
#     4   9  16  27  43  61  82 107 135 170 212 256
#     4  10  20  32  45  61  82 111 149 191 232 270
#     4  10  19  31  44  56  72  95 123 153 188 231
#     4   9  16  26  41  61  83 105 129 159 198 243
#
# _framework density 14.728363999999999
#
# number of rings (size 3 to 8) (size 9 to 14) (size 15 to 20)
#    0.000    2.500    0.000    3.000    0.000    8.000 
#    0.000    1.667    0.000    0.000    0.000    0.000 
#    0.000    0.000    0.000    0.000    0.000    0.833 
#
# Total GULP energy -1189456.842132 kJ/mol
# GULP energy per Si atom -12390.175439 kJ/mol
# Density = 1.469484 g / cm^3
# Si number density = 14.728364 Si / 1000 Ang^3
#
#
#
# Elastic Constant Matrix: (Units=GPa)
#
#
# Indices 1 2 3 4 5 6 
#
# 1 47.9198 40.9942 32.6397 0.0000 0.0000 0.0000
# 2 40.9942 47.9198 32.6397 0.0000 0.0000 0.0000
# 3 32.6397 32.6397 79.1343 0.0000 0.0000 0.0000
# 4 0.0000 0.0000 0.0000 23.8808 0.0000 0.0000
# 5 0.0000 0.0000 0.0000 0.0000 23.8808 0.0000
# 6 0.0000 0.0000 0.0000 0.0000 0.0000 11.1795
#
#
#
# Elastic Compliance Matrix: (Units=1/GPa)
#
#
# Indices 1 2 3 4 5 6 
#
# 1 0.080261 -0.064130 -0.006654 0.000000 0.000000 0.000000
# 2 -0.064130 0.080261 -0.006654 0.000000 0.000000 0.000000
# 3 -0.006654 -0.006654 0.018126 0.000000 0.000000 0.000000
# 4 0.000000 0.000000 0.000000 0.041875 0.000000 0.000000
# 5 0.000000 0.000000 0.000000 0.000000 0.041875 0.000000
# 6 0.000000 0.000000 0.000000 0.000000 0.000000 0.089450
#
#
# Mechanical properties :
#
#
# Convention : Reuss Voigt Hill
#
# Bulk Modulus (GPa) = 42.06215 43.05792 42.56004
# Shear Modulus (GPa) = 9.71541 16.36823 13.04182
#
# Velocity S-wave (km/s) = 2.57113 3.33729 2.97895
# Velocity P-wave (km/s) = 6.11841 6.64441 6.38683
#
# Compressibility (1/GPa) = 0.02377434
#
# Stress axis : x y z
#
# Youngs Moduli (GPa) = 12.45928 12.45928 55.17068
#
# Poissons Ratio (x) = 0.79901 0.36709
# Poissons Ratio (y) = 0.79901 0.36709
# Poissons Ratio (z) = 0.08290 0.08290
#
# Static dielectric constant tensor:
#      x y z
#    x 2.733410 0.000000 0.000000 
#    y 0.000000 2.733410 0.000000 
#    z 0.000000 0.000000 3.020040 
# 
# 
# High freq. dielectric constant tensor:
#      x y z
#    x 1.530330 0.000000 0.000000 
#    y 0.000000 1.530330 0.000000 
#    z 0.000000 0.000000 1.583040 
# 
# From -- ./inp_files/1712.got.cif
#   From: 2010.03.12/outbox.cif.g09.slc.cpg/sg132_1_cif.got.tgz:1712.got - 2010.04.06 17:53:44.
