data_PCOD8316873
_publ_section_title
;
Structure prediction by ZEFSAII (Michael W. Deem and Ramdas Pophale) SiO2 
 PCOD8316873
Probable space group: P 42/M C M
;
_chemical_formula_sum "Si O2"
_cell_formula_units_Z 96
_cell_length_a 24.987083
_cell_length_b 24.987083
_cell_length_c 9.386201
_cell_angle_alpha 90.000000
_cell_angle_beta 90.000000
_cell_angle_gamma 90.000000
_cell_volume 5860.315113
_symmetry_space_group_name_H-M "P 42/M C M"
_symmetry_group_IT_number 132
_symmetry_cell_setting 'tetragonal'
loop_
_space_group_symop_operation_xyz
x,y,z
-y,x,1/2+z
-x,-y,z
y,-x,1/2+z
x,-y,1/2-z
-x,y,1/2-z
y,x,-z
-y,-x,-z
-x,-y,-z
y,-x,1/2-z
x,y,-z
-y,x,1/2-z
-x,y,1/2+z
x,-y,1/2+z
-y,-x,z
y,x,z
loop_
_atom_site_type_symbol
_atom_site_label
_atom_site_fract_x
_atom_site_fract_y
_atom_site_fract_z
Si Si1 0.855153 0.771165 0.157462
Si Si2 0.951014 0.231830 0.841125
Si Si3 0.725681 0.358755 0.330626
Si Si4 0.051878 0.359412 0.337115
Si Si5 0.645461 0.845258 0.837526
Si Si6 0.641115 0.554394 0.165100
O O1 0.798364 0.798364 0.190511
O O2 0.897394 0.791914 0.272713
O O3 0.847831 0.708648 0.166211
O O4 0.876117 0.786746 0.000000
O O5 0.950021 0.295753 0.838761
O O6 0.000000 0.209552 0.750000
O O7 0.956296 0.209597 0.000000
O O8 0.728302 0.354309 0.500000
O O9 0.695397 0.304604 0.273951
O O10 0.786277 0.367724 0.272910
O O11 0.691395 0.410159 0.282905
O O12 0.050627 0.381366 0.500000
O O13 0.106877 0.379002 0.259558
O O14 0.000000 0.381230 0.250000
O O15 0.624226 0.852299 0.000000
O O16 0.639605 0.500000 0.250000
O O17 0.586457 0.586457 0.193836
O O18 0.647273 0.540533 0.000000
#
# Coordination Sequence:
#
# PCOD8316873 Si02
#       6
#    16  16  16  16  16  16
#     4   9  16  24  35  53  75  97 123 155 189 229
#     4   9  16  25  36  48  65  92 124 157 193 232
#     4   8  14  26  44  64  86 114 148 182 216 261
#     4   9  16  25  36  52  76 106 140 176 211 246
#     4   9  15  24  40  59  79 107 141 173 207 248
#     4   9  18  32  49  69  93 121 153 189 227 266
#
# _framework density 16.381371000000001
#
# number of rings (size 3 to 8) (size 9 to 14) (size 15 to 20)
#    0.000    3.167    0.000    2.500    0.000    6.833 
#    0.000    1.667    0.000    2.500    0.000    0.000 
#    0.000    1.000    0.000   11.167    0.000    4.500 
#
# Total GULP energy -1189568.819265 kJ/mol
# GULP energy per Si atom -12391.341867 kJ/mol
# Density = 1.634409 g / cm^3
# Si number density = 16.381371 Si / 1000 Ang^3
#
#
#
# Elastic Constant Matrix: (Units=GPa)
#
#
# Indices 1 2 3 4 5 6 
#
# 1 84.7859 23.4789 38.9246 0.0000 0.0000 0.0000
# 2 23.4789 84.7859 38.9246 0.0000 0.0000 0.0000
# 3 38.9246 38.9246 92.2707 0.0000 0.0000 0.0000
# 4 0.0000 0.0000 0.0000 18.0164 0.0000 0.0000
# 5 0.0000 0.0000 0.0000 0.0000 18.0164 0.0000
# 6 0.0000 0.0000 0.0000 0.0000 0.0000 9.4220
#
#
#
# Elastic Compliance Matrix: (Units=1/GPa)
#
#
# Indices 1 2 3 4 5 6 
#
# 1 0.014785 -0.001526 -0.005593 0.000000 0.000000 0.000000
# 2 -0.001526 0.014785 -0.005593 0.000000 0.000000 0.000000
# 3 -0.005593 -0.005593 0.015557 0.000000 0.000000 0.000000
# 4 0.000000 0.000000 0.000000 0.055505 0.000000 0.000000
# 5 0.000000 0.000000 0.000000 0.000000 0.055505 0.000000
# 6 0.000000 0.000000 0.000000 0.000000 0.000000 0.106135
#
#
# Mechanical properties :
#
#
# Convention : Reuss Voigt Hill
#
# Bulk Modulus (GPa) = 50.75873 51.61096 51.18485
# Shear Modulus (GPa) = 16.99160 19.79193 18.39177
#
# Velocity S-wave (km/s) = 3.22413 3.47968 3.35434
# Velocity P-wave (km/s) = 6.70171 6.90786 6.80557
#
# Compressibility (1/GPa) = 0.01970104
#
# Stress axis : x y z
#
# Youngs Moduli (GPa) = 67.63669 67.63669 64.28147
#
# Poissons Ratio (x) = 0.10325 0.35953
# Poissons Ratio (y) = 0.10325 0.35953
# Poissons Ratio (z) = 0.37830 0.37830
#
# Static dielectric constant tensor:
#      x y z
#    x 3.059300 0.000000 0.000000 
#    y 0.000000 3.059300 0.000000 
#    z 0.000000 0.000000 3.153970 
# 
# 
# High freq. dielectric constant tensor:
#      x y z
#    x 1.604280 0.000000 0.000000 
#    y 0.000000 1.604280 0.000000 
#    z 0.000000 0.000000 1.620020 
# 
# From -- ./inp_files/1788.got.cif
#   From: 2010.03.12/outbox.cif.g09.slc.cpg/sg132_1_cif.got.tgz:1788.got - 2010.04.06 17:53:44.
