data_PCOD8316716
_publ_section_title
;
Structure prediction by ZEFSAII (Michael W. Deem and Ramdas Pophale) SiO2 
 PCOD8316716
Probable space group: P 42/M C M
;
_chemical_formula_sum "Si O2"
_cell_formula_units_Z 96
_cell_length_a 23.377501
_cell_length_b 23.377501
_cell_length_c 8.938827
_cell_angle_alpha 90.000000
_cell_angle_beta 90.000000
_cell_angle_gamma 90.000000
_cell_volume 4885.136471
_symmetry_space_group_name_H-M "P 42/M C M"
_symmetry_group_IT_number 132
_symmetry_cell_setting 'tetragonal'
loop_
_space_group_symop_operation_xyz
x,y,z
-y,x,1/2+z
-x,-y,z
y,-x,1/2+z
x,-y,1/2-z
-x,y,1/2-z
y,x,-z
-y,-x,-z
-x,-y,-z
y,-x,1/2-z
x,y,-z
-y,x,1/2-z
-x,y,1/2+z
x,-y,1/2+z
-y,-x,z
y,x,z
loop_
_atom_site_type_symbol
_atom_site_label
_atom_site_fract_x
_atom_site_fract_y
_atom_site_fract_z
Si Si1 0.052175 0.611363 0.163666
Si Si2 0.762764 0.375986 0.824633
Si Si3 0.560720 0.350576 0.826304
Si Si4 0.824532 0.269092 0.671393
Si Si5 0.443408 0.147320 0.175746
Si Si6 0.054872 0.257881 0.334885
O O1 0.107205 0.608680 0.271583
O O2 0.037489 0.676891 0.138880
O O3 0.000000 0.580245 0.250000
O O4 0.062131 0.582481 0.000000
O O5 0.696434 0.389586 0.793501
O O6 0.786238 0.317658 0.752179
O O7 0.791458 0.431353 0.748153
O O8 0.777268 0.372964 0.000000
O O9 0.500000 0.339468 0.750000
O O10 0.588788 0.411213 0.776032
O O11 0.546676 0.350551 0.000000
O O12 0.834385 0.288930 0.500000
O O13 0.789533 0.210468 0.678824
O O14 0.885462 0.254537 0.745793
O O15 0.500000 0.120681 0.250000
O O16 0.448847 0.151394 0.000000
O O17 0.062189 0.229254 0.500000
O O18 0.000000 0.228864 0.250000
#
# Coordination Sequence:
#
# PCOD8316716 Si02
#       6
#    16  16  16  16  16  16
#     4  10  20  35  54  77 104 140 185 233 284 335
#     4  11  22  39  60  83 112 148 187 229 284 343
#     4  10  23  42  63  87 113 142 178 223 278 343
#     4  11  23  37  57  88 123 157 196 240 285 337
#     4  12  24  37  54  76 106 142 185 236 283 337
#     4  10  20  35  58  83 115 155 196 240 288 341
#
# _framework density 19.651447999999998
#
# number of rings (size 3 to 8) (size 9 to 14) (size 15 to 20)
#    0.000    1.333    1.667    4.500    0.000    6.833 
#    0.000    2.500    0.000    0.000    0.000    0.000 
#    0.000    0.333    0.000    3.500    0.000    1.500 
#
# Total GULP energy -1189704.343495 kJ/mol
# GULP energy per Si atom -12392.753578 kJ/mol
# Density = 1.960672 g / cm^3
# Si number density = 19.651448 Si / 1000 Ang^3
#
#
#
# Elastic Constant Matrix: (Units=GPa)
#
#
# Indices 1 2 3 4 5 6 
#
# 1 80.9346 31.6983 54.5137 0.0000 0.0000 0.0000
# 2 31.6983 80.9346 54.5137 0.0000 0.0000 0.0000
# 3 54.5137 54.5137 171.5560 0.0000 0.0000 0.0000
# 4 0.0000 0.0000 0.0000 24.9461 0.0000 0.0000
# 5 0.0000 0.0000 0.0000 0.0000 24.9461 0.0000
# 6 0.0000 0.0000 0.0000 0.0000 0.0000 12.9162
#
#
#
# Elastic Compliance Matrix: (Units=1/GPa)
#
#
# Indices 1 2 3 4 5 6 
#
# 1 0.016566 -0.003744 -0.004074 0.000000 0.000000 0.000000
# 2 -0.003744 0.016566 -0.004074 0.000000 0.000000 0.000000
# 3 -0.004074 -0.004074 0.008418 0.000000 0.000000 0.000000
# 4 0.000000 0.000000 0.000000 0.040086 0.000000 0.000000
# 5 0.000000 0.000000 0.000000 0.000000 0.040086 0.000000
# 6 0.000000 0.000000 0.000000 0.000000 0.000000 0.077422
#
#
# Mechanical properties :
#
#
# Convention : Reuss Voigt Hill
#
# Bulk Modulus (GPa) = 56.28911 68.31964 62.30437
# Shear Modulus (GPa) = 21.84802 25.40829 23.62816
#
# Velocity S-wave (km/s) = 3.33795 3.59966 3.47127
# Velocity P-wave (km/s) = 6.60014 7.21927 6.91664
#
# Compressibility (1/GPa) = 0.01776543
#
# Stress axis : x y z
#
# Youngs Moduli (GPa) = 60.36342 60.36342 118.78724
#
# Poissons Ratio (x) = 0.22599 0.48399
# Poissons Ratio (y) = 0.22599 0.48399
# Poissons Ratio (z) = 0.24595 0.24595
#
# Static dielectric constant tensor:
#      x y z
#    x 3.461440 0.000000 0.000000 
#    y 0.000000 3.461440 0.000000 
#    z 0.000000 0.000000 3.928080 
# 
# 
# High freq. dielectric constant tensor:
#      x y z
#    x 1.746510 0.000000 0.000000 
#    y 0.000000 1.746510 0.000000 
#    z 0.000000 0.000000 1.784790 
# 
# From -- ./inp_files/1711.got.cif
#   From: 2010.03.12/outbox.cif.g09.slc.cpg/sg132_1_cif.got.tgz:1711.got - 2010.04.06 17:53:44.
