data_PCOD8316468
_publ_section_title
;
Structure prediction by ZEFSAII (Michael W. Deem and Ramdas Pophale) SiO2 
 PCOD8316468
Probable space group: P 42/M C M
;
_chemical_formula_sum "Si O2"
_cell_formula_units_Z 80
_cell_length_a 19.440966
_cell_length_b 19.440966
_cell_length_c 13.417757
_cell_angle_alpha 90.000000
_cell_angle_beta 90.000000
_cell_angle_gamma 90.000000
_cell_volume 5071.256810
_symmetry_space_group_name_H-M "P 42/M C M"
_symmetry_group_IT_number 132
_symmetry_cell_setting 'tetragonal'
loop_
_space_group_symop_operation_xyz
x,y,z
-y,x,1/2+z
-x,-y,z
y,-x,1/2+z
x,-y,1/2-z
-x,y,1/2-z
y,x,-z
-y,-x,-z
-x,-y,-z
y,-x,1/2-z
x,y,-z
-y,x,1/2-z
-x,y,1/2+z
x,-y,1/2+z
-y,-x,z
y,x,z
loop_
_atom_site_type_symbol
_atom_site_label
_atom_site_fract_x
_atom_site_fract_y
_atom_site_fract_z
Si Si1 0.242489 0.964210 0.610050
Si Si2 0.798242 0.311618 0.885028
Si Si3 0.881164 0.574240 0.726089
Si Si4 0.205377 0.901793 0.194491
Si Si5 0.396193 0.014623 0.889935
O O1 0.224874 0.934249 0.500000
O O2 0.238879 0.905532 0.694286
O O3 0.315665 0.003105 0.609520
O O4 0.191017 0.024977 0.642656
O O5 0.724366 0.275635 0.854721
O O6 0.820021 0.376937 0.816001
O O7 0.856541 0.254379 0.874884
O O8 0.795136 0.336096 0.000000
O O9 0.847670 0.500000 0.750000
O O10 0.914300 0.599859 0.829092
O O11 0.947096 0.564913 0.652045
O O12 0.130830 0.869171 0.205482
O O13 0.425112 0.028987 0.000000
#
# Coordination Sequence:
#
# PCOD8316468 Si02
#       5
#    16  16  16  16  16
#     4  10  18  30  47  65  90 116 148 193 234 281
#     4  10  19  32  50  70  93 121 156 197 232 267
#     4  11  20  30  45  67  96 129 161 191 225 271
#     4  10  18  30  48  67  86 113 151 193 238 282
#     4  10  18  30  44  65  96 128 158 188 225 270
#
# _framework density 15.775181999999999
#
# number of rings (size 3 to 8) (size 9 to 14) (size 15 to 20)
#    0.000    1.800    4.000    3.600    0.000    4.000 
#    0.000    0.000    0.000    5.400    0.000    5.600 
#    0.000    0.400    0.000    2.200    0.000    0.000 
#
# Total GULP energy -991134.935604 kJ/mol
# GULP energy per Si atom -12389.186695 kJ/mol
# Density = 1.573928 g / cm^3
# Si number density = 15.775182 Si / 1000 Ang^3
#
#
#
# Elastic Constant Matrix: (Units=GPa)
#
#
# Indices 1 2 3 4 5 6 
#
# 1 61.5876 38.2922 25.9915 0.0000 0.0000 0.0000
# 2 38.2922 61.5876 25.9915 0.0000 0.0000 0.0000
# 3 25.9915 25.9915 110.3037 0.0000 0.0000 0.0000
# 4 0.0000 0.0000 0.0000 9.6090 0.0000 0.0000
# 5 0.0000 0.0000 0.0000 0.0000 9.6090 0.0000
# 6 0.0000 0.0000 0.0000 0.0000 0.0000 6.6010
#
#
#
# Elastic Compliance Matrix: (Units=1/GPa)
#
#
# Indices 1 2 3 4 5 6 
#
# 1 0.027169 -0.015758 -0.002689 0.000000 0.000000 0.000000
# 2 -0.015758 0.027169 -0.002689 0.000000 0.000000 0.000000
# 3 -0.002689 -0.002689 0.010333 0.000000 0.000000 0.000000
# 4 0.000000 0.000000 0.000000 0.104069 0.000000 0.000000
# 5 0.000000 0.000000 0.000000 0.000000 0.104069 0.000000
# 6 0.000000 0.000000 0.000000 0.000000 0.000000 0.151493
#
#
# Mechanical properties :
#
#
# Convention : Reuss Voigt Hill
#
# Bulk Modulus (GPa) = 44.64225 46.00326 45.32275
# Shear Modulus (GPa) = 10.54761 14.71069 12.62915
#
# Velocity S-wave (km/s) = 2.58857 3.05703 2.83251
# Velocity P-wave (km/s) = 6.10694 6.45645 6.28413
#
# Compressibility (1/GPa) = 0.02240031
#
# Stress axis : x y z
#
# Youngs Moduli (GPa) = 36.80636 36.80636 96.77628
#
# Poissons Ratio (x) = 0.57998 0.26023
# Poissons Ratio (y) = 0.57998 0.26023
# Poissons Ratio (z) = 0.09897 0.09897
#
# Static dielectric constant tensor:
#      x y z
#    x 2.848770 0.000000 0.000000 
#    y 0.000000 2.848770 0.000000 
#    z 0.000000 0.000000 3.260280 
# 
# 
# High freq. dielectric constant tensor:
#      x y z
#    x 1.569750 0.000000 0.000000 
#    y 0.000000 1.569750 0.000000 
#    z 0.000000 0.000000 1.622230 
# 
# From -- ./inp_files/4855.got.cif
#   From: 2010.03.12/outbox.cif.g09.slc.cpg/sg132_3_cif.got.tgz:4855.got - 2010.04.06 17:53:44.
