data_PCOD8316563
_publ_section_title
;
Structure prediction by ZEFSAII (Michael W. Deem and Ramdas Pophale) SiO2 
 PCOD8316563
Probable space group: P 42/M C M
;
_chemical_formula_sum "Si O2"
_cell_formula_units_Z 112
_cell_length_a 14.111115
_cell_length_b 14.111115
_cell_length_c 34.876194
_cell_angle_alpha 90.000000
_cell_angle_beta 90.000000
_cell_angle_gamma 90.000000
_cell_volume 6944.672137
_symmetry_space_group_name_H-M "P 42/M C M"
_symmetry_group_IT_number 132
_symmetry_cell_setting 'tetragonal'
loop_
_space_group_symop_operation_xyz
x,y,z
-y,x,1/2+z
-x,-y,z
y,-x,1/2+z
x,-y,1/2-z
-x,y,1/2-z
y,x,-z
-y,-x,-z
-x,-y,-z
y,-x,1/2-z
x,y,-z
-y,x,1/2-z
-x,y,1/2+z
x,-y,1/2+z
-y,-x,z
y,x,z
loop_
_atom_site_type_symbol
_atom_site_label
_atom_site_fract_x
_atom_site_fract_y
_atom_site_fract_z
Si Si1 0.850142 0.702331 0.955600
Si Si2 0.895471 0.387684 0.252475
Si Si3 0.756276 0.603336 0.816990
Si Si4 0.782437 0.372308 0.901573
Si Si5 0.727789 0.420877 0.597969
Si Si6 0.387074 0.766209 0.184230
Si Si7 0.038880 0.395386 0.455391
O O1 0.807228 0.807228 0.944480
O O2 0.790794 0.620459 0.935667
O O3 0.960755 0.686373 0.945730
O O4 0.834827 0.682897 0.000000
O O5 0.903522 0.500000 0.250000
O O6 0.845692 0.357980 0.292528
O O7 0.837037 0.347338 0.216402
O O8 0.000000 0.341941 0.250000
O O9 0.663683 0.663683 0.805857
O O10 0.779018 0.609687 0.862214
O O11 0.736821 0.494513 0.806242
O O12 0.718062 0.281939 0.911500
O O13 0.719896 0.466828 0.907772
O O14 0.816386 0.372819 0.857196
O O15 0.872348 0.370355 0.929171
O O16 0.621489 0.378511 0.596898
O O17 0.331712 0.668289 0.185125
O O18 0.068809 0.391341 0.500000
O O19 0.000000 0.500000 0.445111
#
# Coordination Sequence:
#
# PCOD8316563 Si02
#       7
#    16  16  16  16  16  16  16
#     4   9  17  30  49  70  94 122 154 197 244 284
#     4   9  17  29  42  61  87 117 151 191 233 269
#     4   9  17  28  44  65  90 121 156 192 223 267
#     4  10  20  32  46  69  98 129 161 195 240 289
#     4   9  17  29  45  68  95 126 161 195 233 282
#     4   9  18  31  45  64  93 124 152 185 228 282
#     4  10  19  32  50  72  95 124 164 204 239 284
#
# _framework density 16.127471
#
# number of rings (size 3 to 8) (size 9 to 14) (size 15 to 20)
#    0.000    2.714    1.429    0.429    0.000    2.000 
#    2.571    2.857    0.000    3.000    0.000    5.000 
#    0.000    6.857    0.000    0.000    0.000    0.000 
#
# Total GULP energy -1388093.037002 kJ/mol
# GULP energy per Si atom -12393.687830 kJ/mol
# Density = 1.609076 g / cm^3
# Si number density = 16.127471 Si / 1000 Ang^3
#
#
#
# Elastic Constant Matrix: (Units=GPa)
#
#
# Indices 1 2 3 4 5 6 
#
# 1 87.1318 45.6667 45.8365 0.0000 0.0000 0.0000
# 2 45.6667 87.1318 45.8365 0.0000 0.0000 0.0000
# 3 45.8365 45.8365 63.7020 0.0000 0.0000 0.0000
# 4 0.0000 0.0000 0.0000 24.9837 0.0000 0.0000
# 5 0.0000 0.0000 0.0000 0.0000 24.9837 0.0000
# 6 0.0000 0.0000 0.0000 0.0000 0.0000 14.6985
#
#
#
# Elastic Compliance Matrix: (Units=1/GPa)
#
#
# Indices 1 2 3 4 5 6 
#
# 1 0.019539 -0.004577 -0.010766 0.000000 0.000000 0.000000
# 2 -0.004577 0.019539 -0.010766 0.000000 0.000000 0.000000
# 3 -0.010766 -0.010766 0.031191 0.000000 0.000000 0.000000
# 4 0.000000 0.000000 0.000000 0.040026 0.000000 0.000000
# 5 0.000000 0.000000 0.000000 0.000000 0.040026 0.000000
# 6 0.000000 0.000000 0.000000 0.000000 0.000000 0.068034
#
#
# Mechanical properties :
#
#
# Convention : Reuss Voigt Hill
#
# Bulk Modulus (GPa) = 55.39626 56.96057 56.17841
# Shear Modulus (GPa) = 18.07717 19.64156 18.85937
#
# Velocity S-wave (km/s) = 3.35161 3.49362 3.42335
# Velocity P-wave (km/s) = 7.02860 7.18815 7.10882
#
# Compressibility (1/GPa) = 0.01805176
#
# Stress axis : x y z
#
# Youngs Moduli (GPa) = 51.17866 51.17866 32.06030
#
# Poissons Ratio (x) = 0.23426 0.34516
# Poissons Ratio (y) = 0.23426 0.34516
# Poissons Ratio (z) = 0.55099 0.55099
#
# Static dielectric constant tensor:
#      x y z
#    x 3.026570 0.000000 0.000000 
#    y 0.000000 3.026570 0.000000 
#    z 0.000000 0.000000 3.262710 
# 
# 
# High freq. dielectric constant tensor:
#      x y z
#    x 1.598000 0.000000 0.000000 
#    y 0.000000 1.598000 0.000000 
#    z 0.000000 0.000000 1.633880 
# 
# From -- ./inp_files/11037.got.cif
#   From: 2010.03.12/outbox.cif.g09.slc.cpg/sg132_6_cif.got.tgz:11037.got - 2010.04.06 17:53:44.
