data_PCOD8316097
_publ_section_title
;
Structure prediction by ZEFSAII (Michael W. Deem and Ramdas Pophale) SiO2 
 PCOD8316097
Probable space group: P 42/M M C
;
_chemical_formula_sum "Si O2"
_cell_formula_units_Z 96
_cell_length_a 22.446870
_cell_length_b 22.446870
_cell_length_c 10.157491
_cell_angle_alpha 90.000000
_cell_angle_beta 90.000000
_cell_angle_gamma 90.000000
_cell_volume 5117.973454
_symmetry_space_group_name_H-M "P 42/M M C"
_symmetry_group_IT_number 131
_symmetry_cell_setting 'tetragonal'
loop_
_space_group_symop_operation_xyz
x,y,z
-x,-y,z
-y,x,1/2+z
y,-x,1/2+z
-x,y,-z
x,-y,-z
y,x,1/2-z
-y,-x,1/2-z
-x,-y,-z
x,y,-z
y,-x,1/2-z
-y,x,1/2-z
x,-y,z
-x,y,z
-y,-x,1/2+z
y,x,1/2+z
loop_
_atom_site_type_symbol
_atom_site_label
_atom_site_fract_x
_atom_site_fract_y
_atom_site_fract_z
Si Si1 0.171252 0.431837 0.848586
Si Si2 0.660596 0.728863 0.352748
Si Si3 0.932979 0.860211 0.353897
Si Si4 0.935112 0.270371 0.731300
Si Si5 0.932150 0.600948 0.647063
Si Si6 0.822769 0.236536 0.860195
O O1 0.191913 0.500000 0.839672
O O2 0.228256 0.392742 0.801535
O O3 0.113784 0.423634 0.755282
O O4 0.154437 0.414731 0.000000
O O5 0.674372 0.674372 0.250000
O O6 0.645922 0.703491 0.500000
O O7 0.719666 0.767572 0.362044
O O8 0.888473 0.888473 0.250000
O O9 0.917154 0.883337 0.500000
O O10 0.927645 0.788673 0.355253
O O11 0.000000 0.879297 0.315848
O O12 0.927978 0.327608 0.638598
O O13 0.883590 0.273284 0.841135
O O14 0.000000 0.271258 0.801614
O O15 0.916225 0.577033 0.500000
O O16 0.000000 0.581257 0.684605
O O17 0.814047 0.185954 0.750000
O O18 0.826551 0.202728 0.000000
#
# Coordination Sequence:
#
# PCOD8316097 Si02
#       6
#    16  16  16  16  16  16
#     4  10  21  38  58  80 110 147 187 227 266 313
#     4   9  18  34  53  78 107 139 175 213 260 309
#     4  10  22  39  56  74  97 125 161 208 265 331
#     4  10  20  34  52  74 100 131 168 214 266 318
#     4  10  21  36  54  76 105 143 186 231 277 323
#     4  10  20  33  50  74 100 128 165 210 260 316
#
# _framework density 18.757425000000001
#
# number of rings (size 3 to 8) (size 9 to 14) (size 15 to 20)
#    0.000    2.167    1.667    1.000    0.000    7.833 
#    0.000    5.833    0.000    0.000    0.000    0.000 
#    0.000    0.333    0.000    4.167    0.000    0.000 
#
# Total GULP energy -1189531.051693 kJ/mol
# GULP energy per Si atom -12390.948455 kJ/mol
# Density = 1.871473 g / cm^3
# Si number density = 18.757425 Si / 1000 Ang^3
#
#
#
# Elastic Constant Matrix: (Units=GPa)
#
#
# Indices 1 2 3 4 5 6 
#
# 1 71.8965 19.0332 37.7457 0.0000 0.0000 0.0000
# 2 19.0332 71.8968 37.7461 0.0000 0.0000 0.0000
# 3 37.7457 37.7461 121.4951 0.0000 0.0000 0.0000
# 4 0.0000 0.0000 0.0000 65.2934 0.0000 0.0000
# 5 0.0000 0.0000 0.0000 0.0000 65.5553 0.0000
# 6 0.0000 0.0000 0.0000 0.0000 0.0000 15.8962
#
#
#
# Elastic Compliance Matrix: (Units=1/GPa)
#
#
# Indices 1 2 3 4 5 6 
#
# 1 0.016868 -0.002048 -0.004604 0.000000 0.000000 0.000000
# 2 -0.002048 0.016868 -0.004604 0.000000 0.000000 0.000000
# 3 -0.004604 -0.004604 0.011092 0.000000 0.000000 0.000000
# 4 0.000000 0.000000 0.000000 0.015315 0.000000 0.000000
# 5 0.000000 0.000000 0.000000 0.000000 0.015254 0.000000
# 6 0.000000 0.000000 0.000000 0.000000 0.000000 0.062908
#
#
# Mechanical properties :
#
#
# Convention : Reuss Voigt Hill
#
# Bulk Modulus (GPa) = 44.81353 50.48206 47.64779
# Shear Modulus (GPa) = 29.71619 40.73317 35.22468
#
# Velocity S-wave (km/s) = 3.98456 4.66507 4.33818
# Velocity P-wave (km/s) = 6.71654 7.48256 7.10988
#
# Compressibility (1/GPa) = 0.02231469
#
# Stress axis : x y z
#
# Youngs Moduli (GPa) = 59.28255 59.28257 90.15761
#
# Poissons Ratio (x) = 0.12143 0.41511
# Poissons Ratio (y) = 0.12143 0.41511
# Poissons Ratio (z) = 0.27295 0.27295
#
# Static dielectric constant tensor:
#      x y z
#    x 3.377260 0.000000 0.000000 
#    y 0.000000 3.377260 0.000000 
#    z 0.000000 0.000000 4.368760 
# 
# 
# High freq. dielectric constant tensor:
#      x y z
#    x 1.708450 0.000000 0.000000 
#    y 0.000000 1.708450 0.000000 
#    z 0.000000 0.000000 1.727100 
# 
# From -- ./inp_files/2292.got.cif
#   From: 2010.03.12/outbox.cif.g09.slc.cpg/sg131_2_cif.got.tgz:2292.got - 2010.04.06 17:36:35.
