data_PCOD8316382
_publ_section_title
;
Structure prediction by ZEFSAII (Michael W. Deem and Ramdas Pophale) SiO2 
 PCOD8316382
Probable space group: P 42/M M C
;
_chemical_formula_sum "Si O2"
_cell_formula_units_Z 40
_cell_length_a 10.445288
_cell_length_b 10.445288
_cell_length_c 23.206639
_cell_angle_alpha 90.000000
_cell_angle_beta 90.000000
_cell_angle_gamma 90.000000
_cell_volume 2531.938102
_symmetry_space_group_name_H-M "P 42/M M C"
_symmetry_group_IT_number 131
_symmetry_cell_setting 'tetragonal'
loop_
_space_group_symop_operation_xyz
x,y,z
-x,-y,z
-y,x,1/2+z
y,-x,1/2+z
-x,y,-z
x,-y,-z
y,x,1/2-z
-y,-x,1/2-z
-x,-y,-z
x,y,-z
y,-x,1/2-z
-y,x,1/2-z
x,-y,z
-x,y,z
-y,-x,1/2+z
y,x,1/2+z
loop_
_atom_site_type_symbol
_atom_site_label
_atom_site_fract_x
_atom_site_fract_y
_atom_site_fract_z
Si Si1 0.652823 0.500000 0.064936
Si Si2 0.648280 0.648280 0.750000
Si Si3 0.652825 0.000000 0.934017
Si Si4 0.651736 0.252103 0.871087
O O1 0.500000 0.500000 0.068190
O O2 0.709255 0.626025 0.095493
O O3 0.702615 0.500000 0.000000
O O4 0.669129 0.500000 0.767281
O O5 0.737501 0.689087 0.696317
O O6 0.707304 0.123529 0.900059
O O7 0.500000 0.000000 0.933591
O O8 0.702620 0.000000 0.000000
O O9 0.500000 0.253449 0.877312
#
# Coordination Sequence:
#
# PCOD8316382 Si02
#       4
#     8   8   8  16
#     4   9  14  20  30  46  66  93 130 165 197 233
#     4   9  14  22  34  48  68  93 134 172 202 235
#     4   9  16  24  32  46  72 105 136 161 201 253
#     4   9  15  22  32  47  67  99 132 170 200 238
#
# _framework density 15.798175000000001
#
# number of rings (size 3 to 8) (size 9 to 14) (size 15 to 20)
#    0.000    3.000    2.000    1.200    0.000    4.800 
#    0.000    0.000    0.000    0.000    0.000    0.000 
#    0.000    0.800    0.000   10.800    0.000    5.000 
#
# Total GULP energy -495762.387953 kJ/mol
# GULP energy per Si atom -12394.059699 kJ/mol
# Density = 1.576222 g / cm^3
# Si number density = 15.798175 Si / 1000 Ang^3
#
#
#
# Elastic Constant Matrix: (Units=GPa)
#
#
# Indices 1 2 3 4 5 6 
#
# 1 69.1586 16.2580 51.8318 0.0000 0.0000 0.0000
# 2 16.2580 69.1586 51.8318 0.0000 0.0000 0.0000
# 3 51.8318 51.8318 153.2688 0.0000 0.0000 0.0000
# 4 0.0000 0.0000 0.0000 14.6300 0.0000 0.0000
# 5 0.0000 0.0000 0.0000 0.0000 14.6300 0.0000
# 6 0.0000 0.0000 0.0000 0.0000 0.0000 2.5829
#
#
#
# Elastic Compliance Matrix: (Units=1/GPa)
#
#
# Indices 1 2 3 4 5 6 
#
# 1 0.019380 0.000477 -0.006715 0.000000 0.000000 0.000000
# 2 0.000477 0.019380 -0.006715 0.000000 0.000000 0.000000
# 3 -0.006715 -0.006715 0.011066 0.000000 0.000000 0.000000
# 4 0.000000 0.000000 0.000000 0.068353 0.000000 0.000000
# 5 0.000000 0.000000 0.000000 0.000000 0.068353 0.000000
# 6 0.000000 0.000000 0.000000 0.000000 0.000000 0.387166
#
#
# Mechanical properties :
#
#
# Convention : Reuss Voigt Hill
#
# Bulk Modulus (GPa) = 41.80661 59.04771 50.42716
# Shear Modulus (GPa) = 8.22938 17.81285 13.02112
#
# Velocity S-wave (km/s) = 2.28482 3.36151 2.87403
# Velocity P-wave (km/s) = 5.78627 7.24733 6.55762
#
# Compressibility (1/GPa) = 0.02391966
#
# Stress axis : x y z
#
# Youngs Moduli (GPa) = 51.59906 51.59906 90.36442
#
# Poissons Ratio (x) = -0.02460 0.60681
# Poissons Ratio (y) = -0.02460 0.60681
# Poissons Ratio (z) = 0.34650 0.34650
#
# Static dielectric constant tensor:
#      x y z
#    x 2.669990 0.000000 0.000000 
#    y 0.000000 2.669990 0.000000 
#    z 0.000000 0.000000 3.203690 
# 
# 
# High freq. dielectric constant tensor:
#      x y z
#    x 1.549330 0.000000 0.000000 
#    y 0.000000 1.549330 0.000000 
#    z 0.000000 0.000000 1.629780 
# 
# From -- ./inp_files/10476.got.cif
#   From: 2010.03.12/outbox.cif.g09.slc.cpg/sg131_6_cif.got.tgz:10476.got - 2010.04.06 17:36:35.
