data_PCOD8316770
_publ_section_title
;
Structure prediction by ZEFSAII (Michael W. Deem and Ramdas Pophale) SiO2 
 PCOD8316770
Probable space group: P 42/M C M
;
_chemical_formula_sum "Si O2"
_cell_formula_units_Z 112
_cell_length_a 15.336497
_cell_length_b 15.336497
_cell_length_c 22.894600
_cell_angle_alpha 90.000000
_cell_angle_beta 90.000000
_cell_angle_gamma 90.000000
_cell_volume 5384.996287
_symmetry_space_group_name_H-M "P 42/M C M"
_symmetry_group_IT_number 132
_symmetry_cell_setting 'tetragonal'
loop_
_space_group_symop_operation_xyz
x,y,z
-y,x,1/2+z
-x,-y,z
y,-x,1/2+z
x,-y,1/2-z
-x,y,1/2-z
y,x,-z
-y,-x,-z
-x,-y,-z
y,-x,1/2-z
x,y,-z
-y,x,1/2-z
-x,y,1/2+z
x,-y,1/2+z
-y,-x,z
y,x,z
loop_
_atom_site_type_symbol
_atom_site_label
_atom_site_fract_x
_atom_site_fract_y
_atom_site_fract_z
Si Si1 0.417991 0.098805 0.066791
Si Si2 0.702957 0.434473 0.163471
Si Si3 0.167718 0.308045 0.270660
Si Si4 0.622491 0.765807 0.158049
Si Si5 0.177177 0.599890 0.935494
Si Si6 0.309213 0.959417 0.130360
Si Si7 0.999430 0.857887 0.066096
O O1 0.387378 0.190069 0.094876
O O2 0.522804 0.104010 0.064962
O O3 0.387653 0.022876 0.111053
O O4 0.381602 0.087819 0.000000
O O5 0.603775 0.396226 0.170097
O O6 0.768337 0.378187 0.201483
O O7 0.715549 0.535408 0.181331
O O8 0.733329 0.425579 0.096261
O O9 0.211464 0.211464 0.274142
O O10 0.160414 0.341842 0.203678
O O11 0.071656 0.309421 0.301402
O O12 0.692464 0.692464 0.150289
O O13 0.131355 0.682784 0.905341
O O14 0.204635 0.626443 0.000000
O O15 0.218850 0.004885 0.113283
O O16 0.080922 0.919079 0.080242
O O17 0.006241 0.821187 0.000000
O O18 0.910125 0.910125 0.073506
#
# Coordination Sequence:
#
# PCOD8316770 Si02
#       7
#    16  16  16  16  16  16  16
#     4  10  21  35  52  77 107 140 183 233 280 329
#     4   9  18  33  54  80 109 143 186 233 275 325
#     4   9  19  35  54  80 111 140 177 227 283 339
#     4  10  21  37  55  76 110 152 187 230 285 332
#     4   9  18  32  49  75 111 142 173 225 286 331
#     4  11  19  31  55  79 103 141 183 222 274 344
#     4   9  18  31  46  70 106 141 175 221 271 318
#
# _framework density 20.798528000000001
#
# number of rings (size 3 to 8) (size 9 to 14) (size 15 to 20)
#    0.000    2.429    0.000    3.000    0.000    3.714 
#    0.000    0.000    0.000    7.714    0.000    4.000 
#    0.000    3.429    0.000    0.143    0.000    0.000 
#
# Total GULP energy -1387766.142140 kJ/mol
# GULP energy per Si atom -12390.769126 kJ/mol
# Density = 2.075119 g / cm^3
# Si number density = 20.798528 Si / 1000 Ang^3
#
#
#
# Elastic Constant Matrix: (Units=GPa)
#
#
# Indices 1 2 3 4 5 6 
#
# 1 69.8458 18.2658 22.1740 0.0000 0.0000 0.0000
# 2 18.2658 69.8458 22.1740 0.0000 0.0000 0.0000
# 3 22.1740 22.1740 68.9384 0.0000 0.0000 0.0000
# 4 0.0000 0.0000 0.0000 26.2709 0.0000 0.0000
# 5 0.0000 0.0000 0.0000 0.0000 26.2709 0.0000
# 6 0.0000 0.0000 0.0000 0.0000 0.0000 25.6635
#
#
#
# Elastic Compliance Matrix: (Units=1/GPa)
#
#
# Indices 1 2 3 4 5 6 
#
# 1 0.016464 -0.002923 -0.004356 0.000000 0.000000 0.000000
# 2 -0.002923 0.016464 -0.004356 0.000000 0.000000 0.000000
# 3 -0.004356 -0.004356 0.017308 0.000000 0.000000 0.000000
# 4 0.000000 0.000000 0.000000 0.038065 0.000000 0.000000
# 5 0.000000 0.000000 0.000000 0.000000 0.038065 0.000000
# 6 0.000000 0.000000 0.000000 0.000000 0.000000 0.038966
#
#
# Mechanical properties :
#
#
# Convention : Reuss Voigt Hill
#
# Bulk Modulus (GPa) = 37.08071 37.09529 37.08800
# Shear Modulus (GPa) = 25.30494 25.37548 25.34021
#
# Velocity S-wave (km/s) = 3.49186 3.49673 3.49430
# Velocity P-wave (km/s) = 5.84164 5.84611 5.84388
#
# Compressibility (1/GPa) = 0.02696820
#
# Stress axis : x y z
#
# Youngs Moduli (GPa) = 60.73707 60.73707 57.77788
#
# Poissons Ratio (x) = 0.17753 0.25166
# Poissons Ratio (y) = 0.17753 0.25166
# Poissons Ratio (z) = 0.26455 0.26455
#
# Static dielectric constant tensor:
#      x y z
#    x 3.631290 0.000000 0.000000 
#    y 0.000000 3.631290 0.000000 
#    z 0.000000 0.000000 3.996200 
# 
# 
# High freq. dielectric constant tensor:
#      x y z
#    x 1.800350 0.000000 0.000000 
#    y 0.000000 1.800350 0.000000 
#    z 0.000000 0.000000 1.810790 
# 
# From -- ./inp_files/9150.got.cif
#   From: 2010.03.12/outbox.cif.g09.slc.cpg/sg132_5_cif.got.tgz:9150.got - 2010.04.06 17:53:44.
