data_PCOD8316389
_publ_section_title
;
Structure prediction by ZEFSAII (Michael W. Deem and Ramdas Pophale) SiO2 
 PCOD8316389
Probable space group: P 42/M M C
;
_chemical_formula_sum "Si O2"
_cell_formula_units_Z 88
_cell_length_a 27.899186
_cell_length_b 27.899186
_cell_length_c 9.349476
_cell_angle_alpha 90.000000
_cell_angle_beta 90.000000
_cell_angle_gamma 90.000000
_cell_volume 7277.300955
_symmetry_space_group_name_H-M "P 42/M M C"
_symmetry_group_IT_number 131
_symmetry_cell_setting 'tetragonal'
loop_
_space_group_symop_operation_xyz
x,y,z
-x,-y,z
-y,x,1/2+z
y,-x,1/2+z
-x,y,-z
x,-y,-z
y,x,1/2-z
-y,-x,1/2-z
-x,-y,-z
x,y,-z
y,-x,1/2-z
-y,x,1/2-z
x,-y,z
-x,y,z
-y,-x,1/2+z
y,x,1/2+z
loop_
_atom_site_type_symbol
_atom_site_label
_atom_site_fract_x
_atom_site_fract_y
_atom_site_fract_z
Si Si1 0.321675 0.125502 0.661642
Si Si2 0.056493 0.500000 0.339683
Si Si3 0.947180 0.235421 0.157513
Si Si4 0.944517 0.406379 0.831205
Si Si5 0.806080 0.259994 0.663194
Si Si6 0.822895 0.115189 0.158833
O O1 0.330584 0.144390 0.500000
O O2 0.278693 0.088795 0.664501
O O3 0.366592 0.094277 0.717946
O O4 0.307640 0.171154 0.761284
O O5 0.078896 0.500000 0.500000
O O6 0.072959 0.453312 0.252796
O O7 0.000000 0.500000 0.351201
O O8 0.934172 0.195648 0.273952
O O9 0.000000 0.255332 0.190661
O O10 0.944534 0.211802 0.000000
O O11 0.000000 0.392308 0.792452
O O12 0.941026 0.415888 0.000000
O O13 0.759307 0.240694 0.750000
O O14 0.791166 0.272981 0.500000
O O15 0.845217 0.218473 0.661681
O O16 0.867988 0.132013 0.250000
O O17 0.840694 0.104704 0.000000
#
# Coordination Sequence:
#
# PCOD8316389 Si02
#       6
#    16   8  16  16  16  16
#     4   9  16  25  37  52  68  86 108 132 157 187
#     4   9  17  27  37  49  65  85 109 139 173 203
#     4   9  16  25  36  50  68  86 101 119 145 175
#     4   9  16  26  39  52  66  86 112 139 167 201
#     4   9  16  25  36  49  65  85 107 129 153 182
#     4   9  16  25  36  48  62  81 103 123 142 167
#
# _framework density 12.092395
#
# number of rings (size 3 to 8) (size 9 to 14) (size 15 to 20)
#    0.000    3.000    0.000    1.909    0.000    8.727 
#    0.000    0.000    0.000    3.273    0.000    0.000 
#    0.000    0.364    0.000    3.818    0.000    2.000 
#
# Total GULP energy -1090370.474940 kJ/mol
# GULP energy per Si atom -12390.573579 kJ/mol
# Density = 1.206487 g / cm^3
# Si number density = 12.092395 Si / 1000 Ang^3
#
#
#
# Elastic Constant Matrix: (Units=GPa)
#
#
# Indices 1 2 3 4 5 6 
#
# 1 40.7279 25.8343 31.2864 0.0000 0.0000 0.0000
# 2 25.8343 40.7282 31.2863 0.0000 0.0000 0.0000
# 3 31.2864 31.2863 84.0796 0.0000 0.0000 0.0000
# 4 0.0000 0.0000 0.0000 15.3462 0.0000 0.0000
# 5 0.0000 0.0000 0.0000 0.0000 15.3461 0.0000
# 6 0.0000 0.0000 0.0000 0.0000 0.0000 39.5385
#
#
#
# Elastic Compliance Matrix: (Units=1/GPa)
#
#
# Indices 1 2 3 4 5 6 
#
# 1 0.045124 -0.022018 -0.008598 0.000000 0.000000 0.000000
# 2 -0.022018 0.045124 -0.008598 0.000000 0.000000 0.000000
# 3 -0.008598 -0.008598 0.018292 0.000000 0.000000 0.000000
# 4 0.000000 0.000000 0.000000 0.065163 0.000000 0.000000
# 5 0.000000 0.000000 0.000000 0.000000 0.065163 0.000000
# 6 0.000000 0.000000 0.000000 0.000000 0.000000 0.025292
#
#
# Mechanical properties :
#
#
# Convention : Reuss Voigt Hill
#
# Bulk Modulus (GPa) = 33.20853 38.03884 35.62368
# Shear Modulus (GPa) = 14.17945 19.18807 16.68376
#
# Velocity S-wave (km/s) = 3.42803 3.98777 3.71845
# Velocity P-wave (km/s) = 6.57194 7.26142 6.92527
#
# Compressibility (1/GPa) = 0.03011275
#
# Stress axis : x y z
#
# Youngs Moduli (GPa) = 22.16099 22.16122 54.66858
#
# Poissons Ratio (x) = 0.48795 0.47004
# Poissons Ratio (y) = 0.48794 0.47002
# Poissons Ratio (z) = 0.19054 0.19054
#
# Static dielectric constant tensor:
#      x y z
#    x 2.342820 0.000000 0.000000 
#    y 0.000000 2.342820 0.000000 
#    z 0.000000 0.000000 2.776420 
# 
# 
# High freq. dielectric constant tensor:
#      x y z
#    x 1.419520 0.000000 0.000000 
#    y 0.000000 1.419520 0.000000 
#    z 0.000000 0.000000 1.472450 
# 
# From -- ./inp_files/2453.got.cif
#   From: 2010.03.12/outbox.cif.g09.slc.cpg/sg131_2_cif.got.tgz:2453.got - 2010.04.06 17:36:35.
