data_PCOD8316519
_publ_section_title
;
Structure prediction by ZEFSAII (Michael W. Deem and Ramdas Pophale) SiO2 
 PCOD8316519
Probable space group: P 42/M C M
;
_chemical_formula_sum "Si O2"
_cell_formula_units_Z 96
_cell_length_a 24.878126
_cell_length_b 24.878126
_cell_length_c 9.264053
_cell_angle_alpha 90.000000
_cell_angle_beta 90.000000
_cell_angle_gamma 90.000000
_cell_volume 5733.718367
_symmetry_space_group_name_H-M "P 42/M C M"
_symmetry_group_IT_number 132
_symmetry_cell_setting 'tetragonal'
loop_
_space_group_symop_operation_xyz
x,y,z
-y,x,1/2+z
-x,-y,z
y,-x,1/2+z
x,-y,1/2-z
-x,y,1/2-z
y,x,-z
-y,-x,-z
-x,-y,-z
y,-x,1/2-z
x,y,-z
-y,x,1/2-z
-x,y,1/2+z
x,-y,1/2+z
-y,-x,z
y,x,z
loop_
_atom_site_type_symbol
_atom_site_label
_atom_site_fract_x
_atom_site_fract_y
_atom_site_fract_z
Si Si1 0.449393 0.122545 0.837714
Si Si2 0.658293 0.747930 0.336017
Si Si3 0.740905 0.049679 0.159681
Si Si4 0.254388 0.830831 0.172285
Si Si5 0.249616 0.448345 0.163081
Si Si6 0.950785 0.385020 0.160296
O O1 0.500000 0.098870 0.750000
O O2 0.451143 0.185981 0.840438
O O3 0.396870 0.103598 0.749498
O O4 0.448717 0.099322 0.000000
O O5 0.638900 0.758913 0.500000
O O6 0.696790 0.696790 0.331237
O O7 0.691217 0.800100 0.275920
O O8 0.606975 0.733608 0.239285
O O9 0.750794 0.108306 0.233513
O O10 0.677926 0.040949 0.146316
O O11 0.766383 0.000000 0.250000
O O12 0.767105 0.047998 0.000000
O O13 0.202231 0.797770 0.225406
O O14 0.256962 0.832688 0.000000
O O15 0.272647 0.500000 0.250000
O O16 0.272828 0.449358 0.000000
O O17 0.000000 0.410966 0.250000
O O18 0.947703 0.410430 0.000000
#
# Coordination Sequence:
#
# PCOD8316519 Si02
#       6
#    16  16  16  16  16  16
#     4  10  20  32  44  59  78 104 140 180 221 260
#     4   9  17  30  49  71  94 120 151 188 228 271
#     4   9  17  28  43  62  84 111 141 174 212 256
#     4   8  14  26  45  67  89 116 150 183 217 264
#     4  10  20  32  47  66  90 119 150 185 222 265
#     4  10  19  30  43  58  77 103 136 175 217 260
#
# _framework density 16.743061999999998
#
# number of rings (size 3 to 8) (size 9 to 14) (size 15 to 20)
#    0.000    2.667    0.000    3.500    0.000    4.667 
#    0.000    2.500    0.000    1.500    0.000    0.000 
#    0.000    0.667    0.000    7.667    0.000    1.500 
#
# Total GULP energy -1189767.203044 kJ/mol
# GULP energy per Si atom -12393.408365 kJ/mol
# Density = 1.670495 g / cm^3
# Si number density = 16.743062 Si / 1000 Ang^3
#
#
#
# Elastic Constant Matrix: (Units=GPa)
#
#
# Indices 1 2 3 4 5 6 
#
# 1 74.5299 13.0870 30.4339 0.0000 0.0000 0.0000
# 2 13.0870 74.5299 30.4339 0.0000 0.0000 0.0000
# 3 30.4339 30.4339 104.1456 0.0000 0.0000 0.0000
# 4 0.0000 0.0000 0.0000 20.8714 0.0000 0.0000
# 5 0.0000 0.0000 0.0000 0.0000 20.8714 0.0000
# 6 0.0000 0.0000 0.0000 0.0000 0.0000 17.4203
#
#
#
# Elastic Compliance Matrix: (Units=1/GPa)
#
#
# Indices 1 2 3 4 5 6 
#
# 1 0.015298 -0.000977 -0.004185 0.000000 0.000000 0.000000
# 2 -0.000977 0.015298 -0.004185 0.000000 0.000000 0.000000
# 3 -0.004185 -0.004185 0.012048 0.000000 0.000000 0.000000
# 4 0.000000 0.000000 0.000000 0.047913 0.000000 0.000000
# 5 0.000000 0.000000 0.000000 0.000000 0.047913 0.000000
# 6 0.000000 0.000000 0.000000 0.000000 0.000000 0.057404
#
#
# Mechanical properties :
#
#
# Convention : Reuss Voigt Hill
#
# Bulk Modulus (GPa) = 41.75441 44.56834 43.16138
# Shear Modulus (GPa) = 22.46686 23.78265 23.12475
#
# Velocity S-wave (km/s) = 3.66712 3.77297 3.72042
# Velocity P-wave (km/s) = 6.55155 6.75701 6.65507
#
# Compressibility (1/GPa) = 0.02394956
#
# Stress axis : x y z
#
# Youngs Moduli (GPa) = 65.36843 65.36843 83.00310
#
# Poissons Ratio (x) = 0.06389 0.34735
# Poissons Ratio (y) = 0.06389 0.34735
# Poissons Ratio (z) = 0.27355 0.27355
#
# Static dielectric constant tensor:
#      x y z
#    x 3.004640 0.000000 0.000000 
#    y 0.000000 3.004640 0.000000 
#    z 0.000000 0.000000 3.388590 
# 
# 
# High freq. dielectric constant tensor:
#      x y z
#    x 1.617210 0.000000 0.000000 
#    y 0.000000 1.617210 0.000000 
#    z 0.000000 0.000000 1.641280 
# 
# From -- ./inp_files/1704.got.cif
#   From: 2010.03.12/outbox.cif.g09.slc.cpg/sg132_1_cif.got.tgz:1704.got - 2010.04.06 17:53:44.
