data_PCOD8316967
_publ_section_title
;
Structure prediction by ZEFSAII (Michael W. Deem and Ramdas Pophale) SiO2 
 PCOD8316967
Probable space group: P 42/N B C
;
_chemical_formula_sum "Si O2"
_cell_formula_units_Z 128
_cell_length_a 22.746187
_cell_length_b 22.746187
_cell_length_c 12.068137
_cell_angle_alpha 90.000000
_cell_angle_beta 90.000000
_cell_angle_gamma 90.000000
_cell_volume 6243.921612
_symmetry_space_group_name_H-M "P 42/N B C"
_symmetry_group_IT_number 133
_space_group.IT_coordinate_system_code '2'
_symmetry_cell_setting 'tetragonal'
loop_
_space_group_symop_operation_xyz
x,y,z
1/2-y,x,1/2+z
1/2-x,1/2-y,z
y,1/2-x,1/2+z
x,1/2-y,-z
1/2-x,y,-z
y,x,1/2-z
1/2-y,1/2-x,1/2-z
-x,-y,-z
1/2+y,-x,1/2-z
1/2+x,1/2+y,-z
-y,1/2+x,1/2-z
-x,1/2+y,z
1/2+x,-y,z
-y,-x,1/2+z
1/2+y,1/2+x,1/2+z
loop_
_atom_site_type_symbol
_atom_site_label
_atom_site_fract_x
_atom_site_fract_y
_atom_site_fract_z
Si Si1 0.529068 0.685102 0.513574
Si Si2 0.089376 0.083073 0.627931
Si Si3 0.463581 0.371547 0.252421
Si Si4 0.474572 0.185968 0.983045
Si Si5 0.842640 0.074530 0.128805
Si Si6 0.848439 0.399677 0.541726
Si Si7 0.215973 0.837173 0.723337
Si Si8 0.457921 0.565210 0.201056
O O1 0.558559 0.750000 0.500000
O O2 0.559785 0.633515 0.444635
O O3 0.528080 0.670446 0.642742
O O4 0.463144 0.689850 0.464977
O O5 0.107138 0.107138 0.750000
O O6 0.146282 0.065622 0.560001
O O7 0.050788 0.022292 0.646472
O O8 0.397581 0.397581 0.250000
O O9 0.473999 0.333018 0.144228
O O10 0.506825 0.427449 0.254425
O O11 0.447183 0.250000 0.000000
O O12 0.541082 0.188238 0.026879
O O13 0.793497 0.102554 0.208682
O O14 0.887761 0.033220 0.198799
O O15 0.876997 0.129589 0.076452
O O16 0.807239 0.350108 0.598960
O O17 0.907010 0.413043 0.612786
O O18 0.284423 0.821349 0.721449
#
# Coordination Sequence:
#
# PCOD8316967 Si02
#       8
#    16  16  16  16  16  16  16  16
#     4  12  28  42  67 100 138 180 222 279 346 416
#     4  11  23  45  65 101 138 178 221 269 341 418
#     4  12  24  42  66 102 141 173 221 280 342 421
#     4  11  26  42  70 102 136 179 219 280 349 415
#     4  11  22  39  60  93 128 172 223 281 342 402
#     4  10  22  37  61  92 127 170 221 279 337 402
#     4  10  25  42  59  83 124 186 245 295 333 384
#     4  10  21  37  66  94 135 171 215 274 346 409
#
# _framework density 20.499936000000002
#
# number of rings (size 3 to 8) (size 9 to 14) (size 15 to 20)
#    0.000    1.125    5.000    0.375    5.250    0.500 
#    0.000    1.250    0.000    0.375    0.000    1.750 
#    0.000    0.000    0.000    0.000    0.000    0.000 
#
# Total GULP energy -1587112.753721 kJ/mol
# GULP energy per Si atom -12399.318388 kJ/mol
# Density = 2.045328 g / cm^3
# Si number density = 20.499936 Si / 1000 Ang^3
#
#
#
# Elastic Constant Matrix: (Units=GPa)
#
#
# Indices 1 2 3 4 5 6 
#
# 1 99.2148 50.9777 45.1867 0.0000 0.0000 0.0000
# 2 50.9777 99.2148 45.1867 0.0000 0.0000 0.0000
# 3 45.1867 45.1867 136.5691 0.0000 0.0000 0.0000
# 4 0.0000 0.0000 0.0000 24.9539 0.0000 0.0000
# 5 0.0000 0.0000 0.0000 0.0000 24.9539 0.0000
# 6 0.0000 0.0000 0.0000 0.0000 0.0000 19.5685
#
#
#
# Elastic Compliance Matrix: (Units=1/GPa)
#
#
# Indices 1 2 3 4 5 6 
#
# 1 0.014522 -0.006209 -0.002751 0.000000 0.000000 0.000000
# 2 -0.006209 0.014522 -0.002751 0.000000 0.000000 0.000000
# 3 -0.002751 -0.002751 0.009142 0.000000 0.000000 0.000000
# 4 0.000000 0.000000 0.000000 0.040074 0.000000 0.000000
# 5 0.000000 0.000000 0.000000 0.000000 0.040074 0.000000
# 6 0.000000 0.000000 0.000000 0.000000 0.000000 0.051102
#
#
# Mechanical properties :
#
#
# Convention : Reuss Voigt Hill
#
# Bulk Modulus (GPa) = 67.72079 68.63340 68.17710
# Shear Modulus (GPa) = 25.28072 26.80511 26.04292
#
# Velocity S-wave (km/s) = 3.51552 3.61996 3.56812
# Velocity P-wave (km/s) = 7.04165 7.14315 7.09258
#
# Compressibility (1/GPa) = 0.01476652
#
# Stress axis : x y z
#
# Youngs Moduli (GPa) = 68.86069 68.86069 109.37951
#
# Poissons Ratio (x) = 0.42755 0.30086
# Poissons Ratio (y) = 0.42755 0.30086
# Poissons Ratio (z) = 0.18941 0.18941
#
# Static dielectric constant tensor:
#      x y z
#    x 3.618840 0.000000 0.000000 
#    y 0.000000 3.618840 0.000000 
#    z 0.000000 0.000000 3.916740 
# 
# 
# High freq. dielectric constant tensor:
#      x y z
#    x 1.786220 0.000000 0.000000 
#    y 0.000000 1.786220 0.000000 
#    z 0.000000 0.000000 1.819780 
# 
# From -- ./inp_files/3518.got.cif
#   From: 2010.03.12/outbox.cif.g09.slc.cpg/sg133_2_cif.got.tgz:3518.got - 2010.04.06 18:08:06.
