data_PCOD8316259
_publ_section_title
;
Structure prediction by ZEFSAII (Michael W. Deem and Ramdas Pophale) SiO2 
 PCOD8316259
Probable space group: P 42/M M C
;
_chemical_formula_sum "Si O2"
_cell_formula_units_Z 56
_cell_length_a 16.904008
_cell_length_b 16.904008
_cell_length_c 9.847993
_cell_angle_alpha 90.000000
_cell_angle_beta 90.000000
_cell_angle_gamma 90.000000
_cell_volume 2814.019550
_symmetry_space_group_name_H-M "P 42/M M C"
_symmetry_group_IT_number 131
_symmetry_cell_setting 'tetragonal'
loop_
_space_group_symop_operation_xyz
x,y,z
-x,-y,z
-y,x,1/2+z
y,-x,1/2+z
-x,y,-z
x,-y,-z
y,x,1/2-z
-y,-x,1/2-z
-x,-y,-z
x,y,-z
y,-x,1/2-z
-y,x,1/2-z
x,-y,z
-x,y,z
-y,-x,1/2+z
y,x,1/2+z
loop_
_atom_site_type_symbol
_atom_site_label
_atom_site_fract_x
_atom_site_fract_y
_atom_site_fract_z
Si Si1 0.186937 0.411647 0.720020
Si Si2 0.091381 0.091381 0.750000
Si Si3 0.681687 0.586081 0.500000
Si Si4 0.836400 0.831854 0.500000
Si Si5 0.236728 0.660657 0.000000
Si Si6 0.911387 0.327170 0.500000
O O1 0.153121 0.500000 0.733959
O O2 0.268468 0.412519 0.637923
O O3 0.125425 0.359250 0.638493
O O4 0.197090 0.375850 0.868205
O O5 0.152300 0.111744 0.629421
O O6 0.000000 0.104501 0.706741
O O7 0.634442 0.500000 0.500000
O O8 0.635266 0.669625 0.500000
O O9 0.754464 0.781604 0.500000
O O10 0.905867 0.767316 0.500000
O O11 0.000000 0.356094 0.500000
#
# Coordination Sequence:
#
# PCOD8316259 Si02
#       6
#    16   8   8   8   8   8
#     4  10  21  37  58  88 119 158 201 236 296 360
#     4  11  24  42  60  82 118 160 196 239 300 360
#     4   9  19  35  59  87 117 155 198 235 284 357
#     4  12  23  36  62  90 115 148 201 249 291 346
#     4  12  21  36  62  90 125 153 192 258 298 340
#     4  11  22  39  62  86 118 157 203 250 292 353
#
# _framework density 19.900359000000002
#
# number of rings (size 3 to 8) (size 9 to 14) (size 15 to 20)
#    0.000    1.286    2.857    6.000    0.000    2.286 
#    0.000    2.143    0.000    3.429    0.000    8.000 
#    0.000    2.857    0.000    0.000    0.000    0.000 
#
# Total GULP energy -694078.754334 kJ/mol
# GULP energy per Si atom -12394.263470 kJ/mol
# Density = 1.985506 g / cm^3
# Si number density = 19.900359 Si / 1000 Ang^3
#
#
#
# Elastic Constant Matrix: (Units=GPa)
#
#
# Indices 1 2 3 4 5 6 
#
# 1 79.7302 13.5811 27.4947 0.0000 0.0000 0.0000
# 2 13.5811 79.7302 27.4947 0.0000 0.0000 0.0000
# 3 27.4947 27.4947 157.0208 0.0000 0.0000 0.0000
# 4 0.0000 0.0000 0.0000 17.4123 0.0000 0.0000
# 5 0.0000 0.0000 0.0000 0.0000 17.4123 0.0000
# 6 0.0000 0.0000 0.0000 0.0000 0.0000 10.7990
#
#
#
# Elastic Compliance Matrix: (Units=1/GPa)
#
#
# Indices 1 2 3 4 5 6 
#
# 1 0.013534 -0.001584 -0.002092 0.000000 0.000000 0.000000
# 2 -0.001584 0.013534 -0.002092 0.000000 0.000000 0.000000
# 3 -0.002092 -0.002092 0.007101 0.000000 0.000000 0.000000
# 4 0.000000 0.000000 0.000000 0.057431 0.000000 0.000000
# 5 0.000000 0.000000 0.000000 0.000000 0.057431 0.000000
# 6 0.000000 0.000000 0.000000 0.000000 0.000000 0.092601
#
#
# Mechanical properties :
#
#
# Convention : Reuss Voigt Hill
#
# Bulk Modulus (GPa) = 44.18643 50.40246 47.29444
# Shear Modulus (GPa) = 19.17828 25.65213 22.41521
#
# Velocity S-wave (km/s) = 3.10774 3.59420 3.35979
# Velocity P-wave (km/s) = 5.92701 6.52739 6.23443
#
# Compressibility (1/GPa) = 0.02263138
#
# Stress axis : x y z
#
# Youngs Moduli (GPa) = 73.88996 73.88996 140.81793
#
# Poissons Ratio (x) = 0.11702 0.29466
# Poissons Ratio (y) = 0.11702 0.29466
# Poissons Ratio (z) = 0.15461 0.15461
#
# Static dielectric constant tensor:
#      x y z
#    x 3.625980 0.000000 0.000000 
#    y 0.000000 3.625980 0.000000 
#    z 0.000000 0.000000 3.627720 
# 
# 
# High freq. dielectric constant tensor:
#      x y z
#    x 1.764910 0.000000 0.000000 
#    y 0.000000 1.764910 0.000000 
#    z 0.000000 0.000000 1.789390 
# 
# From -- ./inp_files/1325.got.cif
#   From: 2010.03.12/outbox.cif.g09.slc.cpg/sg131_1_cif.got.tgz:1325.got - 2010.04.06 17:36:35.
