data_PCOD8316916
_publ_section_title
;
Structure prediction by ZEFSAII (Michael W. Deem and Ramdas Pophale) SiO2 
 PCOD8316916
Probable space group: P 42/N B C
;
_chemical_formula_sum "Si O2"
_cell_formula_units_Z 120
_cell_length_a 15.101352
_cell_length_b 15.101352
_cell_length_c 27.228420
_cell_angle_alpha 90.000000
_cell_angle_beta 90.000000
_cell_angle_gamma 90.000000
_cell_volume 6209.463841
_symmetry_space_group_name_H-M "P 42/N B C"
_symmetry_group_IT_number 133
_space_group.IT_coordinate_system_code '2'
_symmetry_cell_setting 'tetragonal'
loop_
_space_group_symop_operation_xyz
x,y,z
1/2-y,x,1/2+z
1/2-x,1/2-y,z
y,1/2-x,1/2+z
x,1/2-y,-z
1/2-x,y,-z
y,x,1/2-z
1/2-y,1/2-x,1/2-z
-x,-y,-z
1/2+y,-x,1/2-z
1/2+x,1/2+y,-z
-y,1/2+x,1/2-z
-x,1/2+y,z
1/2+x,-y,z
-y,-x,1/2+z
1/2+y,1/2+x,1/2+z
loop_
_atom_site_type_symbol
_atom_site_label
_atom_site_fract_x
_atom_site_fract_y
_atom_site_fract_z
Si Si1 0.391670 0.764059 0.927468
Si Si2 0.191506 0.168912 0.429863
Si Si3 0.079958 0.091667 0.807490
Si Si4 0.608232 0.263816 0.555399
Si Si5 0.250000 0.037960 0.500000
Si Si6 0.962727 0.744662 0.365684
Si Si7 0.454112 0.068252 0.692030
Si Si8 0.967749 0.766218 0.853279
O O1 0.345545 0.676228 0.949631
O O2 0.323228 0.843289 0.924604
O O3 0.474270 0.796116 0.960446
O O4 0.432514 0.742540 0.874313
O O5 0.250000 0.250000 0.448572
O O6 0.102950 0.203319 0.405508
O O7 0.249485 0.110963 0.392176
O O8 0.174246 0.101957 0.475882
O O9 0.086655 0.086655 0.750000
O O10 0.173290 0.074589 0.834516
O O11 0.046267 0.191191 0.813372
O O12 0.004165 0.024942 0.826485
O O13 0.568337 0.250000 0.500000
O O14 0.539665 0.282602 0.599148
O O15 0.986330 0.665801 0.326864
O O16 0.437076 0.062925 0.750000
O O17 0.362515 0.040841 0.668560
#
# Coordination Sequence:
#
# PCOD8316916 Si02
#       8
#    16  16  16  16   8  16  16  16
#     4  10  19  38  59  83 113 163 207 249 292 355
#     4  10  20  36  53  79 111 149 189 238 289 339
#     4  11  22  39  63  88 118 158 199 251 316 373
#     4  11  21  37  59  84 123 156 207 250 297 350
#     4  10  19  33  60  74 112 158 204 235 289 348
#     4  11  23  39  58  90 121 155 199 253 298 366
#     4  10  22  39  60  90 122 152 198 254 310 373
#     4  10  20  36  61  82 114 156 193 247 304 362
#
# _framework density 19.325341000000002
#
# number of rings (size 3 to 8) (size 9 to 14) (size 15 to 20)
#    0.000    1.600    2.667    3.000    0.000    1.067 
#    0.000    2.667    0.000    0.000    0.000   11.200 
#    0.000    0.000    0.000    0.000    0.000    0.000 
#
# Total GULP energy -1486845.572381 kJ/mol
# GULP energy per Si atom -12390.379770 kJ/mol
# Density = 1.928136 g / cm^3
# Si number density = 19.325341 Si / 1000 Ang^3
#
#
#
# Elastic Constant Matrix: (Units=GPa)
#
#
# Indices 1 2 3 4 5 6 
#
# 1 74.5174 33.2808 24.9636 0.0000 0.0000 0.0000
# 2 33.2808 74.5176 24.9637 0.0000 0.0000 0.0000
# 3 24.9636 24.9637 67.2391 0.0000 0.0000 0.0000
# 4 0.0000 0.0000 0.0000 28.6677 0.0000 0.0000
# 5 0.0000 0.0000 0.0000 0.0000 28.6676 0.0000
# 6 0.0000 0.0000 0.0000 0.0000 0.0000 23.4547
#
#
#
# Elastic Compliance Matrix: (Units=1/GPa)
#
#
# Indices 1 2 3 4 5 6 
#
# 1 0.017727 -0.006524 -0.004159 0.000000 0.000000 0.000000
# 2 -0.006524 0.017727 -0.004159 0.000000 0.000000 0.000000
# 3 -0.004159 -0.004159 0.017961 0.000000 0.000000 0.000000
# 4 0.000000 0.000000 0.000000 0.034882 0.000000 0.000000
# 5 0.000000 0.000000 0.000000 0.000000 0.034883 0.000000
# 6 0.000000 0.000000 0.000000 0.000000 0.000000 0.042635
#
#
# Mechanical properties :
#
#
# Convention : Reuss Voigt Hill
#
# Bulk Modulus (GPa) = 42.14166 42.52116 42.33141
# Shear Modulus (GPa) = 24.58106 25.02907 24.80506
#
# Velocity S-wave (km/s) = 3.57032 3.60271 3.58655
# Velocity P-wave (km/s) = 6.23298 6.27349 6.25327
#
# Compressibility (1/GPa) = 0.02372949
#
# Stress axis : x y z
#
# Youngs Moduli (GPa) = 56.41231 56.41243 55.67707
#
# Poissons Ratio (x) = 0.36801 0.23158
# Poissons Ratio (y) = 0.36801 0.23158
# Poissons Ratio (z) = 0.23464 0.23464
#
# Static dielectric constant tensor:
#      x y z
#    x 3.598380 0.000000 0.000000 
#    y 0.000000 3.598380 0.000000 
#    z 0.000000 0.000000 4.994280 
# 
# 
# High freq. dielectric constant tensor:
#      x y z
#    x 1.750260 0.000000 0.000000 
#    y 0.000000 1.750260 0.000000 
#    z 0.000000 0.000000 1.760120 
# 
# From -- ./inp_files/8106.got.cif
#   From: 2010.03.12/outbox.cif.g09.slc.cpg/sg133_5_cif.got.tgz:8106.got - 2010.04.06 18:08:06.
