data_PCOD8316982
_publ_section_title
;
Structure prediction by ZEFSAII (Michael W. Deem and Ramdas Pophale) SiO2 
 PCOD8316982
Probable space group: P 42/N B C
;
_chemical_formula_sum "Si O2"
_cell_formula_units_Z 96
_cell_length_a 21.080305
_cell_length_b 21.080305
_cell_length_c 11.598284
_cell_angle_alpha 90.000000
_cell_angle_beta 90.000000
_cell_angle_gamma 90.000000
_cell_volume 5154.036848
_symmetry_space_group_name_H-M "P 42/N B C"
_symmetry_group_IT_number 133
_space_group.IT_coordinate_system_code '2'
_symmetry_cell_setting 'tetragonal'
loop_
_space_group_symop_operation_xyz
x,y,z
1/2-y,x,1/2+z
1/2-x,1/2-y,z
y,1/2-x,1/2+z
x,1/2-y,-z
1/2-x,y,-z
y,x,1/2-z
1/2-y,1/2-x,1/2-z
-x,-y,-z
1/2+y,-x,1/2-z
1/2+x,1/2+y,-z
-y,1/2+x,1/2-z
-x,1/2+y,z
1/2+x,-y,z
-y,-x,1/2+z
1/2+y,1/2+x,1/2+z
loop_
_atom_site_type_symbol
_atom_site_label
_atom_site_fract_x
_atom_site_fract_y
_atom_site_fract_z
Si Si1 0.457949 0.042052 0.750000
Si Si2 0.977236 0.221095 0.760634
Si Si3 0.113079 0.437343 0.513875
Si Si4 0.559042 0.404956 0.854167
Si Si5 0.750000 0.969641 0.500000
Si Si6 0.808751 0.942328 0.060661
Si Si7 0.425915 0.695411 0.572835
O O1 0.415002 0.061790 0.641877
O O2 0.530546 0.055754 0.718457
O O3 0.944390 0.151926 0.762296
O O4 0.935576 0.275595 0.700419
O O5 0.985227 0.243116 0.890605
O O6 0.044030 0.210667 0.693419
O O7 0.094907 0.501924 0.447053
O O8 0.188378 0.426894 0.520114
O O9 0.091351 0.376239 0.442227
O O10 0.626360 0.394314 0.919199
O O11 0.750000 0.903801 0.000000
O O12 0.815512 0.008329 0.993099
O O13 0.387175 0.750000 0.500000
#
# Coordination Sequence:
#
# PCOD8316982 Si02
#       7
#     8  16  16  16   8  16  16
#     4  12  22  30  60  88 119 138 195 246 294 334
#     4   9  20  37  54  79 118 150 186 225 300 348
#     4  11  23  36  56  89 117 149 197 238 291 339
#     4  11  21  33  56  89 116 148 185 257 288 341
#     4  10  22  36  51  82 119 150 186 234 278 344
#     4   9  19  37  57  80 117 156 183 225 291 355
#     4   9  19  35  55  80 111 153 189 222 296 359
#
# _framework density 18.626176999999998
#
# number of rings (size 3 to 8) (size 9 to 14) (size 15 to 20)
#    0.000    2.333    1.667    2.500    7.000    2.000 
#    0.000    0.417    0.000    0.500    0.000    0.000 
#    0.000    0.000    0.000    0.000    0.000    0.000 
#
# Total GULP energy -1189465.356221 kJ/mol
# GULP energy per Si atom -12390.264127 kJ/mol
# Density = 1.858378 g / cm^3
# Si number density = 18.626177 Si / 1000 Ang^3
#
#
#
# Elastic Constant Matrix: (Units=GPa)
#
#
# Indices 1 2 3 4 5 6 
#
# 1 112.3644 28.0013 32.4438 0.0000 0.0000 0.0000
# 2 28.0013 112.3639 32.4442 0.0000 0.0000 0.0000
# 3 32.4438 32.4442 111.4196 0.0000 0.0000 0.0000
# 4 0.0000 0.0000 0.0000 21.2733 0.0000 0.0000
# 5 0.0000 0.0000 0.0000 0.0000 21.2739 0.0000
# 6 0.0000 0.0000 0.0000 0.0000 0.0000 4.8762
#
#
#
# Elastic Compliance Matrix: (Units=1/GPa)
#
#
# Indices 1 2 3 4 5 6 
#
# 1 0.010043 -0.001811 -0.002397 0.000000 0.000000 0.000000
# 2 -0.001811 0.010043 -0.002397 0.000000 0.000000 0.000000
# 3 -0.002397 -0.002397 0.010371 0.000000 0.000000 0.000000
# 4 0.000000 0.000000 0.000000 0.047007 0.000000 0.000000
# 5 0.000000 0.000000 0.000000 0.000000 0.047006 0.000000
# 6 0.000000 0.000000 0.000000 0.000000 0.000000 0.205076
#
#
# Mechanical properties :
#
#
# Convention : Reuss Voigt Hill
#
# Bulk Modulus (GPa) = 57.98016 57.99181 57.98598
# Shear Modulus (GPa) = 14.34697 25.70192 20.02445
#
# Velocity S-wave (km/s) = 2.77836 3.71871 3.28238
# Velocity P-wave (km/s) = 6.44114 7.04560 6.75014
#
# Compressibility (1/GPa) = 0.01724728
#
# Stress axis : x y z
#
# Youngs Moduli (GPa) = 99.57226 99.57162 96.42140
#
# Poissons Ratio (x) = 0.18028 0.23114
# Poissons Ratio (y) = 0.18028 0.23114
# Poissons Ratio (z) = 0.23869 0.23869
#
# Static dielectric constant tensor:
#      x y z
#    x 3.607710 0.000000 0.000000 
#    y 0.000000 3.607730 0.000000 
#    z 0.000000 0.000000 3.623410 
# 
# 
# High freq. dielectric constant tensor:
#      x y z
#    x 1.705670 0.000000 0.000000 
#    y 0.000000 1.705680 0.000000 
#    z 0.000000 0.000000 1.738250 
# 
# From -- ./inp_files/3393.got.cif
#   From: 2010.03.12/outbox.cif.g09.slc.cpg/sg133_2_cif.got.tgz:3393.got - 2010.04.06 18:08:06.
