data_PCOD8316008
_publ_section_title
;
Structure prediction by ZEFSAII (Michael W. Deem and Ramdas Pophale) SiO2 
 PCOD8316008
Probable space group: P 42/M M C
;
_chemical_formula_sum "Si O2"
_cell_formula_units_Z 72
_cell_length_a 11.616147
_cell_length_b 11.616147
_cell_length_c 30.304971
_cell_angle_alpha 90.000000
_cell_angle_beta 90.000000
_cell_angle_gamma 90.000000
_cell_volume 4089.197356
_symmetry_space_group_name_H-M "P 42/M M C"
_symmetry_group_IT_number 131
_symmetry_cell_setting 'tetragonal'
loop_
_space_group_symop_operation_xyz
x,y,z
-x,-y,z
-y,x,1/2+z
y,-x,1/2+z
-x,y,-z
x,-y,-z
y,x,1/2-z
-y,-x,1/2-z
-x,-y,-z
x,y,-z
y,-x,1/2-z
-y,x,1/2-z
x,-y,z
-x,y,z
-y,-x,1/2+z
y,x,1/2+z
loop_
_atom_site_type_symbol
_atom_site_label
_atom_site_fract_x
_atom_site_fract_y
_atom_site_fract_z
Si Si1 0.864224 0.500000 0.791569
Si Si2 0.747194 0.861016 0.912014
Si Si3 0.127679 0.136466 0.000000
Si Si4 0.500000 0.873573 0.100295
Si Si5 0.867047 0.867047 0.750000
Si Si6 0.268734 0.247005 0.324488
Si Si7 0.500000 0.220163 0.808561
O O1 0.817642 0.388001 0.816553
O O2 0.829293 0.500000 0.740473
O O3 0.000000 0.500000 0.795076
O O4 0.615809 0.817119 0.918501
O O5 0.793078 0.786001 0.871062
O O6 0.757480 0.000000 0.903326
O O7 0.811870 0.819549 0.955699
O O8 0.000000 0.187444 0.000000
O O9 0.127580 0.000000 0.000000
O O10 0.500000 0.878958 0.153997
O O11 0.500000 0.000000 0.081025
O O12 0.830911 0.788821 0.709213
O O13 0.000000 0.843232 0.761005
O O14 0.294011 0.383808 0.317797
#
# Coordination Sequence:
#
# PCOD8316008 Si02
#       7
#     8  16   8   8   8  16   8
#     4  12  23  35  53  76 107 145 184 224 268 324
#     4   9  18  33  53  77 105 135 175 221 269 324
#     4   9  18  31  49  74 104 140 174 213 271 329
#     4   8  15  27  49  77 102 133 167 212 268 311
#     4  11  22  34  50  75 106 140 178 217 266 324
#     4  11  22  36  54  78 106 143 179 225 270 320
#     4  10  19  35  53  75 105 141 181 221 269 321
#
# _framework density 17.607368000000001
#
# number of rings (size 3 to 8) (size 9 to 14) (size 15 to 20)
#    0.000    2.000    2.222    1.667    0.000    4.444 
#    0.000    5.556    0.000    0.667    0.000    1.556 
#    0.000    5.333    0.000    0.000    0.000    0.000 
#
# Total GULP energy -892097.316173 kJ/mol
# GULP energy per Si atom -12390.240502 kJ/mol
# Density = 1.756729 g / cm^3
# Si number density = 17.607368 Si / 1000 Ang^3
#
#
#
# Elastic Constant Matrix: (Units=GPa)
#
#
# Indices 1 2 3 4 5 6 
#
# 1 92.3709 26.6911 58.4625 0.0000 0.0000 0.0000
# 2 26.6911 92.3709 58.4625 0.0000 0.0000 0.0000
# 3 58.4625 58.4625 153.4771 0.0000 0.0000 0.0000
# 4 0.0000 0.0000 0.0000 25.2239 0.0000 0.0000
# 5 0.0000 0.0000 0.0000 0.0000 25.2239 0.0000
# 6 0.0000 0.0000 0.0000 0.0000 0.0000 21.6215
#
#
#
# Elastic Compliance Matrix: (Units=1/GPa)
#
#
# Indices 1 2 3 4 5 6 
#
# 1 0.014322 -0.000903 -0.005111 0.000000 0.000000 0.000000
# 2 -0.000903 0.014322 -0.005111 0.000000 0.000000 0.000000
# 3 -0.005111 -0.005111 0.010410 0.000000 0.000000 0.000000
# 4 0.000000 0.000000 0.000000 0.039645 0.000000 0.000000
# 5 0.000000 0.000000 0.000000 0.000000 0.039645 0.000000
# 6 0.000000 0.000000 0.000000 0.000000 0.000000 0.046250
#
#
# Mechanical properties :
#
#
# Convention : Reuss Voigt Hill
#
# Bulk Modulus (GPa) = 59.51910 69.49456 64.50683
# Shear Modulus (GPa) = 25.98121 27.38739 26.68430
#
# Velocity S-wave (km/s) = 3.84550 3.94820 3.89719
# Velocity P-wave (km/s) = 7.32080 7.76782 7.54762
#
# Compressibility (1/GPa) = 0.01680133
#
# Stress axis : x y z
#
# Youngs Moduli (GPa) = 69.82248 69.82248 96.06391
#
# Poissons Ratio (x) = 0.06307 0.49103
# Poissons Ratio (y) = 0.06307 0.49103
# Poissons Ratio (z) = 0.35689 0.35689
#
# Static dielectric constant tensor:
#      x y z
#    x 3.282750 0.000000 0.000000 
#    y 0.000000 3.282750 0.000000 
#    z 0.000000 0.000000 3.275830 
# 
# 
# High freq. dielectric constant tensor:
#      x y z
#    x 1.669150 0.000000 0.000000 
#    y 0.000000 1.669150 0.000000 
#    z 0.000000 0.000000 1.676520 
# 
# From -- ./inp_files/12208.got.cif
#   From: 2010.03.12/outbox.cif.g09.slc.cpg/sg131_7_cif.got.tgz:12208.got - 2010.04.06 17:36:35.
