data_PCOD8316278
_publ_section_title
;
Structure prediction by ZEFSAII (Michael W. Deem and Ramdas Pophale) SiO2 
 PCOD8316278
Probable space group: P 42/M M C
;
_chemical_formula_sum "Si O2"
_cell_formula_units_Z 112
_cell_length_a 14.184715
_cell_length_b 14.184715
_cell_length_c 24.880082
_cell_angle_alpha 90.000000
_cell_angle_beta 90.000000
_cell_angle_gamma 90.000000
_cell_volume 5006.025253
_symmetry_space_group_name_H-M "P 42/M M C"
_symmetry_group_IT_number 131
_symmetry_cell_setting 'tetragonal'
loop_
_space_group_symop_operation_xyz
x,y,z
-x,-y,z
-y,x,1/2+z
y,-x,1/2+z
-x,y,-z
x,-y,-z
y,x,1/2-z
-y,-x,1/2-z
-x,-y,-z
x,y,-z
y,-x,1/2-z
-y,x,1/2-z
x,-y,z
-x,y,z
-y,-x,1/2+z
y,x,1/2+z
loop_
_atom_site_type_symbol
_atom_site_label
_atom_site_fract_x
_atom_site_fract_y
_atom_site_fract_z
Si Si1 0.740000 0.104395 0.147183
Si Si2 0.394663 0.865446 0.439991
Si Si3 0.388288 0.856205 0.760746
Si Si4 0.602600 0.654937 0.586316
Si Si5 0.652243 0.601616 0.696050
Si Si6 0.105201 0.734844 0.159060
Si Si7 0.195498 0.395959 0.439513
O O1 0.671717 0.081615 0.197759
O O2 0.826608 0.174214 0.160819
O O3 0.681083 0.151375 0.099221
O O4 0.777651 0.000000 0.129791
O O5 0.370050 0.902733 0.500000
O O6 0.500000 0.900704 0.423321
O O7 0.394293 0.753466 0.443163
O O8 0.315105 0.900192 0.399034
O O9 0.500000 0.882000 0.759620
O O10 0.367167 0.753589 0.783810
O O11 0.345328 0.863875 0.701422
O O12 0.500000 0.606459 0.575152
O O13 0.612601 0.673110 0.651272
O O14 0.690959 0.595390 0.565621
O O15 0.590844 0.590844 0.750000
O O16 0.654841 0.500000 0.666855
O O17 0.000000 0.771250 0.172910
O O18 0.168023 0.367686 0.500000
O O19 0.155142 0.500000 0.425582
#
# Coordination Sequence:
#
# PCOD8316278 Si02
#       7
#    16  16  16  16  16  16  16
#     4  12  26  46  72  97 130 175 224 284 349 405
#     4  10  21  39  65  95 130 174 220 267 327 400
#     4  11  23  42  69 101 135 172 215 265 324 394
#     4  11  21  36  60  93 135 182 228 271 324 399
#     4  11  21  33  52  83 129 179 224 267 311 370
#     4  12  26  44  69 100 135 174 221 279 341 403
#     4  11  24  43  67  97 135 178 228 282 336 402
#
# _framework density 22.37304
#
# number of rings (size 3 to 8) (size 9 to 14) (size 15 to 20)
#    0.000    0.857    2.857    4.714    0.000    8.714 
#    0.000    2.143    0.000    1.714    0.000    2.000 
#    0.000    0.000    0.000    0.000    0.000    0.000 
#
# Total GULP energy -1387739.955002 kJ/mol
# GULP energy per Si atom -12390.535313 kJ/mol
# Density = 2.232212 g / cm^3
# Si number density = 22.373040 Si / 1000 Ang^3
#
#
#
# Elastic Constant Matrix: (Units=GPa)
#
#
# Indices 1 2 3 4 5 6 
#
# 1 125.3362 53.1049 34.8617 0.0000 0.0000 0.0000
# 2 53.1049 125.3362 34.8617 0.0000 0.0000 0.0000
# 3 34.8617 34.8617 110.6511 0.0000 0.0000 0.0000
# 4 0.0000 0.0000 0.0000 3.3557 0.0000 0.0000
# 5 0.0000 0.0000 0.0000 0.0000 3.3557 0.0000
# 6 0.0000 0.0000 0.0000 0.0000 0.0000 -14.0295
#
#
#
# Elastic Compliance Matrix: (Units=1/GPa)
#
#
# Indices 1 2 3 4 5 6 
#
# 1 0.010118 -0.003727 -0.002013 0.000000 0.000000 0.000000
# 2 -0.003727 0.010118 -0.002013 0.000000 0.000000 0.000000
# 3 -0.002013 -0.002013 0.010306 0.000000 0.000000 0.000000
# 4 0.000000 0.000000 0.000000 0.298000 0.000000 0.000000
# 5 0.000000 0.000000 0.000000 0.000000 0.298000 0.000000
# 6 0.000000 0.000000 0.000000 0.000000 0.000000 -0.071278
#
#
# Mechanical properties :
#
#
# Convention : Reuss Voigt Hill
#
# Bulk Modulus (GPa) = 66.51657 67.44224 66.97940
# Shear Modulus (GPa) = 8.68385 14.43606 11.55995
#
# Velocity S-wave (km/s) = 1.97226 2.54292 2.27555
# Velocity P-wave (km/s) = 5.91453 6.23152 6.07509
#
# Compressibility (1/GPa) = 0.01503385
#
# Stress axis : x y z
#
# Youngs Moduli (GPa) = 98.83742 98.83742 97.02935
#
# Poissons Ratio (x) = 0.36835 0.19537
# Poissons Ratio (y) = 0.36835 0.19537
# Poissons Ratio (z) = 0.19901 0.19901
#
# Static dielectric constant tensor:
#      x y z
#    x 4.139810 0.000000 0.000000 
#    y 0.000000 4.139810 0.000000 
#    z 0.000000 0.000000 4.256460 
# 
# 
# High freq. dielectric constant tensor:
#      x y z
#    x 1.871150 0.000000 0.000000 
#    y 0.000000 1.871150 0.000000 
#    z 0.000000 0.000000 1.893750 
# 
# From -- ./inp_files/11257.got.cif
#   From: 2010.03.12/outbox.cif.g09.slc.cpg/sg131_6_cif.got.tgz:11257.got - 2010.04.06 17:36:35.
