data_PCOD8316877
_publ_section_title
;
Structure prediction by ZEFSAII (Michael W. Deem and Ramdas Pophale) SiO2 
 PCOD8316877
Probable space group: P 42/M C M
;
_chemical_formula_sum "Si O2"
_cell_formula_units_Z 96
_cell_length_a 25.445901
_cell_length_b 25.445901
_cell_length_c 9.109784
_cell_angle_alpha 90.000000
_cell_angle_beta 90.000000
_cell_angle_gamma 90.000000
_cell_volume 5898.529367
_symmetry_space_group_name_H-M "P 42/M C M"
_symmetry_group_IT_number 132
_symmetry_cell_setting 'tetragonal'
loop_
_space_group_symop_operation_xyz
x,y,z
-y,x,1/2+z
-x,-y,z
y,-x,1/2+z
x,-y,1/2-z
-x,y,1/2-z
y,x,-z
-y,-x,-z
-x,-y,-z
y,-x,1/2-z
x,y,-z
-y,x,1/2-z
-x,y,1/2+z
x,-y,1/2+z
-y,-x,z
y,x,z
loop_
_atom_site_type_symbol
_atom_site_label
_atom_site_fract_x
_atom_site_fract_y
_atom_site_fract_z
Si Si1 0.858093 0.335598 0.829570
Si Si2 0.946812 0.742985 0.672613
Si Si3 0.747820 0.664240 0.171142
Si Si4 0.451718 0.747240 0.328644
Si Si5 0.548187 0.858928 0.328933
Si Si6 0.137223 0.947012 0.827971
O O1 0.899581 0.293337 0.768668
O O2 0.803243 0.327347 0.748769
O O3 0.883584 0.393834 0.805167
O O4 0.846425 0.326132 0.000000
O O5 0.954695 0.735991 0.500000
O O6 0.933271 0.802955 0.715603
O O7 0.000000 0.724267 0.750000
O O8 0.706164 0.706164 0.233659
O O9 0.722571 0.606073 0.197745
O O10 0.758091 0.672829 0.000000
O O11 0.500000 0.715130 0.250000
O O12 0.464352 0.752827 0.500000
O O13 0.449715 0.803276 0.250835
O O14 0.500000 0.891236 0.250000
O O15 0.535116 0.852759 0.500000
O O16 0.101058 0.898943 0.774138
O O17 0.117942 0.000000 0.750000
O O18 0.131753 0.956371 0.000000
#
# Coordination Sequence:
#
# PCOD8316877 Si02
#       6
#    16  16  16  16  16  16
#     4   9  18  30  45  65  87 113 145 179 216 258
#     4   9  18  33  50  67  87 112 144 179 212 249
#     4   9  18  30  42  61  91 121 146 175 214 260
#     4   9  15  24  39  57  80 111 145 178 211 250
#     4   9  15  24  39  60  84 108 138 175 213 253
#     4   9  18  32  49  68  89 112 137 167 205 248
#
# _framework density 16.275244000000001
#
# number of rings (size 3 to 8) (size 9 to 14) (size 15 to 20)
#    0.000    3.000    0.000    2.000    0.000    3.500 
#    0.000    2.500    0.000    0.500    0.000    3.500 
#    0.000    0.333    0.000    4.167    0.000    0.000 
#
# Total GULP energy -1189413.573838 kJ/mol
# GULP energy per Si atom -12389.724727 kJ/mol
# Density = 1.623820 g / cm^3
# Si number density = 16.275244 Si / 1000 Ang^3
#
#
#
# Elastic Constant Matrix: (Units=GPa)
#
#
# Indices 1 2 3 4 5 6 
#
# 1 109.0638 74.3132 40.9114 0.0000 0.0000 0.0000
# 2 74.3132 109.0638 40.9114 0.0000 0.0000 0.0000
# 3 40.9114 40.9114 62.2366 0.0000 0.0000 0.0000
# 4 0.0000 0.0000 0.0000 18.9506 0.0000 0.0000
# 5 0.0000 0.0000 0.0000 0.0000 18.9506 0.0000
# 6 0.0000 0.0000 0.0000 0.0000 0.0000 4.1620
#
#
#
# Elastic Compliance Matrix: (Units=1/GPa)
#
#
# Indices 1 2 3 4 5 6 
#
# 1 0.018247 -0.010530 -0.005073 0.000000 0.000000 0.000000
# 2 -0.010530 0.018247 -0.005073 0.000000 0.000000 0.000000
# 3 -0.005073 -0.005073 0.022737 0.000000 0.000000 0.000000
# 4 0.000000 0.000000 0.000000 0.052769 0.000000 0.000000
# 5 0.000000 0.000000 0.000000 0.000000 0.052769 0.000000
# 6 0.000000 0.000000 0.000000 0.000000 0.000000 0.240271
#
#
# Mechanical properties :
#
#
# Convention : Reuss Voigt Hill
#
# Bulk Modulus (GPa) = 55.92936 65.84844 60.88890
# Shear Modulus (GPa) = 11.05343 16.69452 13.87397
#
# Velocity S-wave (km/s) = 2.60889 3.20623 2.92286
# Velocity P-wave (km/s) = 6.59654 7.36571 6.99171
#
# Compressibility (1/GPa) = 0.01787970
#
# Stress axis : x y z
#
# Youngs Moduli (GPa) = 54.80483 54.80483 43.98192
#
# Poissons Ratio (x) = 0.57709 0.22310
# Poissons Ratio (y) = 0.57709 0.22310
# Poissons Ratio (z) = 0.27800 0.27800
#
# Static dielectric constant tensor:
#      x y z
#    x 3.458590 0.000000 0.000000 
#    y 0.000000 3.458590 0.000000 
#    z 0.000000 0.000000 3.107710 
# 
# 
# High freq. dielectric constant tensor:
#      x y z
#    x 1.610250 0.000000 0.000000 
#    y 0.000000 1.610250 0.000000 
#    z 0.000000 0.000000 1.631120 
# 
# From -- ./inp_files/1930.got.cif
#   From: 2010.03.12/outbox.cif.g09.slc.cpg/sg132_1_cif.got.tgz:1930.got - 2010.04.06 17:53:44.
