data_PCOD8316795
_publ_section_title
;
Structure prediction by ZEFSAII (Michael W. Deem and Ramdas Pophale) SiO2 
 PCOD8316795
Probable space group: P 42/M C M
;
_chemical_formula_sum "Si O2"
_cell_formula_units_Z 42
_cell_length_a 10.572896
_cell_length_b 10.572896
_cell_length_c 18.437201
_cell_angle_alpha 90.000000
_cell_angle_beta 90.000000
_cell_angle_gamma 90.000000
_cell_volume 2061.023345
_symmetry_space_group_name_H-M "P 42/M C M"
_symmetry_group_IT_number 132
_symmetry_cell_setting 'tetragonal'
loop_
_space_group_symop_operation_xyz
x,y,z
-y,x,1/2+z
-x,-y,z
y,-x,1/2+z
x,-y,1/2-z
-x,y,1/2-z
y,x,-z
-y,-x,-z
-x,-y,-z
y,-x,1/2-z
x,y,-z
-y,x,1/2-z
-x,y,1/2+z
x,-y,1/2+z
-y,-x,z
y,x,z
loop_
_atom_site_type_symbol
_atom_site_label
_atom_site_fract_x
_atom_site_fract_y
_atom_site_fract_z
Si Si1 0.500000 0.500000 0.250000
Si Si2 0.857102 0.486171 0.416563
Si Si3 0.141026 0.858975 0.224979
Si Si4 0.236151 0.236151 0.582492
Si Si5 0.690299 0.309702 0.677235
O O1 0.587908 0.587908 0.201085
O O2 0.852006 0.444197 0.500000
O O3 0.784294 0.616310 0.403331
O O4 0.796819 0.375519 0.370292
O O5 0.000000 0.500000 0.389442
O O6 0.151683 0.848318 0.137380
O O7 0.241724 0.758277 0.255478
O O8 0.000000 0.823617 0.250000
O O9 0.197947 0.197947 0.500000
#
# Coordination Sequence:
#
# PCOD8316795 Si02
#       5
#     2  16   8   8   8
#     4  12  28  36  54  88 112 148 208 234 288 368
#     4  10  21  37  60  89 117 153 197 236 289 354
#     4  11  24  41  61  89 118 154 202 242 288 349
#     4  10  21  40  61  83 120 159 193 239 291 347
#     4  12  22  38  59  83 121 154 188 250 295 335
#
# _framework density 20.378226000000002
#
# number of rings (size 3 to 8) (size 9 to 14) (size 15 to 20)
#    0.000    1.333    0.000    6.286    0.000    0.000 
#    0.000   11.429    0.000    0.000    0.000    0.000 
#    0.000    0.000    0.000    0.000    0.000    0.000 
#
# Total GULP energy -521014.824663 kJ/mol
# GULP energy per Si atom -12405.114873 kJ/mol
# Density = 2.033184 g / cm^3
# Si number density = 20.378226 Si / 1000 Ang^3
#
#
#
# Elastic Constant Matrix: (Units=GPa)
#
#
# Indices 1 2 3 4 5 6 
#
# 1 119.5346 69.2157 56.1473 0.0000 0.0000 0.0000
# 2 69.2157 119.5346 56.1473 0.0000 0.0000 0.0000
# 3 56.1473 56.1473 120.7021 0.0000 0.0000 0.0000
# 4 0.0000 0.0000 0.0000 266.3235 0.0000 0.0000
# 5 0.0000 0.0000 0.0000 0.0000 266.3235 0.0000
# 6 0.0000 0.0000 0.0000 0.0000 0.0000 32.5851
#
#
#
# Elastic Compliance Matrix: (Units=1/GPa)
#
#
# Indices 1 2 3 4 5 6 
#
# 1 0.013599 -0.006274 -0.003408 0.000000 0.000000 0.000000
# 2 -0.006274 0.013599 -0.003408 0.000000 0.000000 0.000000
# 3 -0.003408 -0.003408 0.011455 0.000000 0.000000 0.000000
# 4 0.000000 0.000000 0.000000 0.003755 0.000000 0.000000
# 5 0.000000 0.000000 0.000000 0.000000 0.003755 0.000000
# 6 0.000000 0.000000 0.000000 0.000000 0.000000 0.030689
#
#
# Mechanical properties :
#
#
# Convention : Reuss Voigt Hill
#
# Bulk Modulus (GPa) = 80.15709 80.31020 80.23365
# Shear Modulus (GPa) = 46.64678 124.93048 85.78863
#
# Velocity S-wave (km/s) = 4.78959 7.83830 6.49535
# Velocity P-wave (km/s) = 8.36702 11.01880 9.78317
#
# Compressibility (1/GPa) = 0.01247550
#
# Stress axis : x y z
#
# Youngs Moduli (GPa) = 73.53348 73.53348 87.29793
#
# Poissons Ratio (x) = 0.46135 0.29747
# Poissons Ratio (y) = 0.46135 0.29747
# Poissons Ratio (z) = 0.25057 0.25057
#
# Static dielectric constant tensor:
#      x y z
#    x 3.964320 0.000000 0.000000 
#    y 0.000000 3.964320 0.000000 
#    z 0.000000 0.000000 3.807320 
# 
# 
# High freq. dielectric constant tensor:
#      x y z
#    x 1.802870 0.000000 0.000000 
#    y 0.000000 1.802870 0.000000 
#    z 0.000000 0.000000 1.805650 
# 
# From -- ./inp_files/5620.got.cif
#   From: 2010.03.12/outbox.cif.g09.slc.cpg/sg132_3_cif.got.tgz:5620.got - 2010.04.06 17:53:44.
