data_PCOD8316474
_publ_section_title
;
Structure prediction by ZEFSAII (Michael W. Deem and Ramdas Pophale) SiO2 
 PCOD8316474
Probable space group: P 42/M C M
;
_chemical_formula_sum "Si O2"
_cell_formula_units_Z 104
_cell_length_a 17.581620
_cell_length_b 17.581620
_cell_length_c 19.081210
_cell_angle_alpha 90.000000
_cell_angle_beta 90.000000
_cell_angle_gamma 90.000000
_cell_volume 5898.256971
_symmetry_space_group_name_H-M "P 42/M C M"
_symmetry_group_IT_number 132
_symmetry_cell_setting 'tetragonal'
loop_
_space_group_symop_operation_xyz
x,y,z
-y,x,1/2+z
-x,-y,z
y,-x,1/2+z
x,-y,1/2-z
-x,y,1/2-z
y,x,-z
-y,-x,-z
-x,-y,-z
y,-x,1/2-z
x,y,-z
-y,x,1/2-z
-x,y,1/2+z
x,-y,1/2+z
-y,-x,z
y,x,z
loop_
_atom_site_type_symbol
_atom_site_label
_atom_site_fract_x
_atom_site_fract_y
_atom_site_fract_z
Si Si1 0.564815 0.310583 0.081682
Si Si2 0.114905 0.761671 0.205265
Si Si3 0.590617 0.282784 0.343059
Si Si4 0.939786 0.939786 0.082560
Si Si5 0.222059 0.042793 0.853244
Si Si6 0.300468 0.176979 0.918594
Si Si7 0.358673 0.234394 0.296751
O O1 0.608514 0.391487 0.089403
O O2 0.483590 0.315685 0.118785
O O3 0.610289 0.245453 0.124324
O O4 0.558442 0.287216 0.000000
O O5 0.176212 0.823789 0.177082
O O6 0.083735 0.790405 0.279254
O O7 0.150538 0.676888 0.211228
O O8 0.044377 0.751007 0.152664
O O9 0.648135 0.351866 0.348079
O O10 0.623657 0.208961 0.382580
O O11 0.577416 0.254450 0.262442
O O12 0.961659 0.856449 0.106404
O O13 0.942260 0.942260 0.000000
O O14 0.000000 0.000000 0.114690
O O15 0.285078 0.090058 0.896516
O O16 0.226835 0.226835 0.896207
O O17 0.315720 0.181687 0.000000
O O18 0.290075 0.290075 0.279319
#
# Coordination Sequence:
#
# PCOD8316474 Si02
#       7
#    16  16  16   8  16  16  16
#     4  10  21  36  54  80 114 149 177 208 266 334
#     4  10  19  33  52  76 103 132 182 238 276 322
#     4  10  19  33  56  85 111 139 181 225 267 321
#     4  11  22  34  46  70 116 158 181 217 285 352
#     4  11  19  31  50  75 103 138 183 226 275 323
#     4  10  18  30  50  76 108 144 181 225 276 327
#     4   9  18  35  56  77 105 139 183 230 269 315
#
# _framework density 17.632327
#
# number of rings (size 3 to 8) (size 9 to 14) (size 15 to 20)
#    0.000    1.923    3.077    1.846    0.000    1.231 
#    0.000    2.308    0.000    7.385    0.000    2.154 
#    0.000    0.000    0.000    0.000    0.000    0.000 
#
# Total GULP energy -1289067.102878 kJ/mol
# GULP energy per Si atom -12394.875989 kJ/mol
# Density = 1.759220 g / cm^3
# Si number density = 17.632327 Si / 1000 Ang^3
#
#
#
# Elastic Constant Matrix: (Units=GPa)
#
#
# Indices 1 2 3 4 5 6 
#
# 1 98.4979 35.6024 42.0306 0.0000 0.0000 0.0000
# 2 35.6024 98.4979 42.0306 0.0000 0.0000 0.0000
# 3 42.0306 42.0306 102.0360 0.0000 0.0000 0.0000
# 4 0.0000 0.0000 0.0000 26.4600 0.0000 0.0000
# 5 0.0000 0.0000 0.0000 0.0000 26.4600 0.0000
# 6 0.0000 0.0000 0.0000 0.0000 0.0000 22.6013
#
#
#
# Elastic Compliance Matrix: (Units=1/GPa)
#
#
# Indices 1 2 3 4 5 6 
#
# 1 0.012976 -0.002923 -0.004141 0.000000 0.000000 0.000000
# 2 -0.002923 0.012976 -0.004141 0.000000 0.000000 0.000000
# 3 -0.004141 -0.004141 0.013212 0.000000 0.000000 0.000000
# 4 0.000000 0.000000 0.000000 0.037793 0.000000 0.000000
# 5 0.000000 0.000000 0.000000 0.000000 0.037793 0.000000
# 6 0.000000 0.000000 0.000000 0.000000 0.000000 0.044245
#
#
# Mechanical properties :
#
#
# Convention : Reuss Voigt Hill
#
# Bulk Modulus (GPa) = 59.68787 59.81767 59.75277
# Shear Modulus (GPa) = 26.73933 27.06212 26.90072
#
# Velocity S-wave (km/s) = 3.89844 3.92190 3.91019
# Velocity P-wave (km/s) = 7.36130 7.38289 7.37210
#
# Compressibility (1/GPa) = 0.01675382
#
# Stress axis : x y z
#
# Youngs Moduli (GPa) = 77.06456 77.06456 75.68898
#
# Poissons Ratio (x) = 0.22528 0.31343
# Poissons Ratio (y) = 0.22528 0.31343
# Poissons Ratio (z) = 0.31912 0.31912
#
# Static dielectric constant tensor:
#      x y z
#    x 3.231110 0.000000 0.000000 
#    y 0.000000 3.231110 0.000000 
#    z 0.000000 0.000000 3.392430 
# 
# 
# High freq. dielectric constant tensor:
#      x y z
#    x 1.666360 0.000000 0.000000 
#    y 0.000000 1.666360 0.000000 
#    z 0.000000 0.000000 1.688930 
# 
# From -- ./inp_files/6567.got.cif
#   From: 2010.03.12/outbox.cif.g09.slc.cpg/sg132_4_cif.got.tgz:6567.got - 2010.04.06 17:53:44.
