data_PCOD8316536
_publ_section_title
;
Structure prediction by ZEFSAII (Michael W. Deem and Ramdas Pophale) SiO2 
 PCOD8316536
Probable space group: P 42/M C M
;
_chemical_formula_sum "Si O2"
_cell_formula_units_Z 104
_cell_length_a 20.235463
_cell_length_b 20.235463
_cell_length_c 17.285201
_cell_angle_alpha 90.000000
_cell_angle_beta 90.000000
_cell_angle_gamma 90.000000
_cell_volume 7077.839752
_symmetry_space_group_name_H-M "P 42/M C M"
_symmetry_group_IT_number 132
_symmetry_cell_setting 'tetragonal'
loop_
_space_group_symop_operation_xyz
x,y,z
-y,x,1/2+z
-x,-y,z
y,-x,1/2+z
x,-y,1/2-z
-x,y,1/2-z
y,x,-z
-y,-x,-z
-x,-y,-z
y,-x,1/2-z
x,y,-z
-y,x,1/2-z
-x,y,1/2+z
x,-y,1/2+z
-y,-x,z
y,x,z
loop_
_atom_site_type_symbol
_atom_site_label
_atom_site_fract_x
_atom_site_fract_y
_atom_site_fract_z
Si Si1 0.135218 0.418128 0.409165
Si Si2 0.138452 0.572280 0.408554
Si Si3 0.265964 0.372810 0.838324
Si Si4 0.255263 0.363393 0.344018
Si Si5 0.998356 0.422132 0.663928
Si Si6 0.310392 0.493354 0.590658
Si Si7 0.449613 0.550388 0.092017
O O1 0.143784 0.410757 0.500000
O O2 0.151452 0.495267 0.384071
O O3 0.177781 0.359442 0.366223
O O4 0.060663 0.398989 0.386227
O O5 0.141707 0.577649 0.500000
O O6 0.192453 0.623364 0.373541
O O7 0.068516 0.599533 0.379108
O O8 0.308977 0.308977 0.867578
O O9 0.263814 0.371481 0.746368
O O10 0.300344 0.440212 0.862657
O O11 0.302722 0.302722 0.373848
O O12 0.263897 0.432071 0.390866
O O13 0.000000 0.500000 0.670878
O O14 0.000000 0.390708 0.750000
O O15 0.307188 0.510362 0.500000
O O16 0.378969 0.467688 0.623311
O O17 0.500000 0.500000 0.129950
O O18 0.451479 0.548522 0.000000
#
# Coordination Sequence:
#
# PCOD8316536 Si02
#       7
#    16  16  16  16  16  16   8
#     4  10  19  31  48  68  88 111 142 180 218 263
#     4  10  19  31  48  68  88 111 142 180 218 263
#     4  11  23  34  46  62  85 114 145 182 225 270
#     4  11  22  34  47  62  86 113 145 182 225 270
#     4   9  17  29  47  69  91 113 135 168 216 265
#     4  11  20  32  47  60  77 103 139 182 226 270
#     4   9  18  30  44  58  70  90 127 177 227 271
#
# _framework density 14.693749
#
# number of rings (size 3 to 8) (size 9 to 14) (size 15 to 20)
#    0.000    1.769    2.308    3.231    0.000    5.846 
#    0.000    0.000    0.000    0.000    0.000    0.000 
#    0.000    0.000    0.000    0.000    0.000    0.769 
#
# Total GULP energy -1288371.656715 kJ/mol
# GULP energy per Si atom -12388.189007 kJ/mol
# Density = 1.466031 g / cm^3
# Si number density = 14.693749 Si / 1000 Ang^3
#
#
#
# Elastic Constant Matrix: (Units=GPa)
#
#
# Indices 1 2 3 4 5 6 
#
# 1 86.8633 46.2676 28.1577 0.0000 0.0000 0.0000
# 2 46.2676 86.8632 28.1577 0.0000 0.0000 0.0000
# 3 28.1577 28.1577 55.9708 0.0000 0.0000 0.0000
# 4 0.0000 0.0000 0.0000 22.3508 0.0000 0.0000
# 5 0.0000 0.0000 0.0000 0.0000 22.3508 0.0000
# 6 0.0000 0.0000 0.0000 0.0000 0.0000 12.9680
#
#
#
# Elastic Compliance Matrix: (Units=1/GPa)
#
#
# Indices 1 2 3 4 5 6 
#
# 1 0.017088 -0.007546 -0.004800 0.000000 0.000000 0.000000
# 2 -0.007546 0.017088 -0.004800 0.000000 0.000000 0.000000
# 3 -0.004800 -0.004800 0.022696 0.000000 0.000000 0.000000
# 4 0.000000 0.000000 0.000000 0.044741 0.000000 0.000000
# 5 0.000000 0.000000 0.000000 0.000000 0.044741 0.000000
# 6 0.000000 0.000000 0.000000 0.000000 0.000000 0.077113
#
#
# Mechanical properties :
#
#
# Convention : Reuss Voigt Hill
#
# Bulk Modulus (GPa) = 44.28916 48.31814 46.30365
# Shear Modulus (GPa) = 18.84762 20.00822 19.42792
#
# Velocity S-wave (km/s) = 3.58536 3.69410 3.64014
# Velocity P-wave (km/s) = 6.88089 7.15192 7.01772
#
# Compressibility (1/GPa) = 0.02257889
#
# Stress axis : x y z
#
# Youngs Moduli (GPa) = 58.52208 58.52200 44.05992
#
# Poissons Ratio (x) = 0.44158 0.21150
# Poissons Ratio (y) = 0.44158 0.21150
# Poissons Ratio (z) = 0.28093 0.28093
#
# Static dielectric constant tensor:
#      x y z
#    x 2.979760 0.000000 0.000000 
#    y 0.000000 2.979760 0.000000 
#    z 0.000000 0.000000 2.872270 
# 
# 
# High freq. dielectric constant tensor:
#      x y z
#    x 1.537050 0.000000 0.000000 
#    y 0.000000 1.537050 0.000000 
#    z 0.000000 0.000000 1.573910 
# 
# From -- ./inp_files/5073.got.cif
#   From: 2010.03.12/outbox.cif.g09.slc.cpg/sg132_3_cif.got.tgz:5073.got - 2010.04.06 17:53:44.
