data_PCOD8316898
_publ_section_title
;
Structure prediction by ZEFSAII (Michael W. Deem and Ramdas Pophale) SiO2 
 PCOD8316898
Probable space group: P 42/N B C
;
_chemical_formula_sum "Si O2"
_cell_formula_units_Z 84
_cell_length_a 13.635125
_cell_length_b 13.635125
_cell_length_c 21.874765
_cell_angle_alpha 90.000000
_cell_angle_beta 90.000000
_cell_angle_gamma 90.000000
_cell_volume 4066.882673
_symmetry_space_group_name_H-M "P 42/N B C"
_symmetry_group_IT_number 133
_space_group.IT_coordinate_system_code '2'
_symmetry_cell_setting 'tetragonal'
loop_
_space_group_symop_operation_xyz
x,y,z
1/2-y,x,1/2+z
1/2-x,1/2-y,z
y,1/2-x,1/2+z
x,1/2-y,-z
1/2-x,y,-z
y,x,1/2-z
1/2-y,1/2-x,1/2-z
-x,-y,-z
1/2+y,-x,1/2-z
1/2+x,1/2+y,-z
-y,1/2+x,1/2-z
-x,1/2+y,z
1/2+x,-y,z
-y,-x,1/2+z
1/2+y,1/2+x,1/2+z
loop_
_atom_site_type_symbol
_atom_site_label
_atom_site_fract_x
_atom_site_fract_y
_atom_site_fract_z
Si Si1 0.426733 0.020264 0.910888
Si Si2 0.408580 0.732705 0.257472
Si Si3 0.222392 0.042600 0.871545
Si Si4 0.750000 0.250000 0.000000
Si Si5 0.392944 0.460908 0.687134
Si Si6 0.115886 0.583713 0.033802
O O1 0.331347 0.082393 0.888048
O O2 0.470725 0.956648 0.856381
O O3 0.507243 0.096733 0.937001
O O4 0.393282 0.942836 0.962558
O O5 0.333646 0.642101 0.259427
O O6 0.453238 0.737643 0.324785
O O7 0.489693 0.711440 0.204307
O O8 0.171693 0.004746 0.933196
O O9 0.148503 0.123330 0.841876
O O10 0.821254 0.183061 0.041826
O O11 0.453701 0.453701 0.750000
#
# Coordination Sequence:
#
# PCOD8316898 Si02
#       6
#    16  16  16   4  16  16
#     4  10  18  37  54  81 117 166 195 248 310 395
#     4  10  19  30  49  83 120 156 201 264 327 366
#     4  10  18  34  55  79 117 158 205 248 302 388
#     4  12  20  36  52  96 132 146 204 280 312 384
#     4   9  19  32  50  80 114 157 206 248 308 374
#     4  10  22  32  56  86 123 152 198 250 325 368
#
# _framework density 20.654641000000002
#
# number of rings (size 3 to 8) (size 9 to 14) (size 15 to 20)
#    0.000    2.095    3.810    0.000    0.000    3.048 
#    0.000    0.000    0.000    0.000    0.000   77.333 
#    0.000    0.000    0.000    0.000    0.000    0.000 
#
# Total GULP energy -1041005.048060 kJ/mol
# GULP energy per Si atom -12392.917239 kJ/mol
# Density = 2.060763 g / cm^3
# Si number density = 20.654641 Si / 1000 Ang^3
#
#
#
# Elastic Constant Matrix: (Units=GPa)
#
#
# Indices 1 2 3 4 5 6 
#
# 1 120.6266 40.6117 30.2913 0.0000 0.0000 0.0000
# 2 40.6117 120.6266 30.2913 0.0000 0.0000 0.0000
# 3 30.2913 30.2913 105.4621 0.0000 0.0000 0.0000
# 4 0.0000 0.0000 0.0000 21.7285 0.0000 0.0000
# 5 0.0000 0.0000 0.0000 0.0000 21.7285 0.0000
# 6 0.0000 0.0000 0.0000 0.0000 0.0000 33.9043
#
#
#
# Elastic Compliance Matrix: (Units=1/GPa)
#
#
# Indices 1 2 3 4 5 6 
#
# 1 0.009725 -0.002773 -0.001997 0.000000 0.000000 0.000000
# 2 -0.002773 0.009725 -0.001997 0.000000 0.000000 0.000000
# 3 -0.001997 -0.001997 0.010629 0.000000 0.000000 0.000000
# 4 0.000000 0.000000 0.000000 0.046023 0.000000 0.000000
# 5 0.000000 0.000000 0.000000 0.000000 0.046023 0.000000
# 6 0.000000 0.000000 0.000000 0.000000 0.000000 0.029495
#
#
# Mechanical properties :
#
#
# Convention : Reuss Voigt Hill
#
# Bulk Modulus (GPa) = 60.43652 61.01154 60.72403
# Shear Modulus (GPa) = 29.29677 31.84032 30.56854
#
# Velocity S-wave (km/s) = 3.77027 3.93053 3.85123
# Velocity P-wave (km/s) = 6.94818 7.08532 7.01709
#
# Compressibility (1/GPa) = 0.01654629
#
# Stress axis : x y z
#
# Youngs Moduli (GPa) = 102.82798 102.82798 94.08064
#
# Poissons Ratio (x) = 0.28511 0.18787
# Poissons Ratio (y) = 0.28511 0.18787
# Poissons Ratio (z) = 0.20533 0.20533
#
# Static dielectric constant tensor:
#      x y z
#    x 3.827670 0.000000 0.000000 
#    y 0.000000 3.827670 0.000000 
#    z 0.000000 0.000000 3.887590 
# 
# 
# High freq. dielectric constant tensor:
#      x y z
#    x 1.788190 0.000000 0.000000 
#    y 0.000000 1.788190 0.000000 
#    z 0.000000 0.000000 1.822350 
# 
# From -- ./inp_files/6395.got.cif
#   From: 2010.03.12/outbox.cif.g09.slc.cpg/sg133_4_cif.got.tgz:6395.got - 2010.04.06 18:08:06.
