data_PCOD8316728
_publ_section_title
;
Structure prediction by ZEFSAII (Michael W. Deem and Ramdas Pophale) SiO2 
 PCOD8316728
Probable space group: P 42/M C M
;
_chemical_formula_sum "Si O2"
_cell_formula_units_Z 112
_cell_length_a 14.542603
_cell_length_b 14.542603
_cell_length_c 28.805806
_cell_angle_alpha 90.000000
_cell_angle_beta 90.000000
_cell_angle_gamma 90.000000
_cell_volume 6092.062193
_symmetry_space_group_name_H-M "P 42/M C M"
_symmetry_group_IT_number 132
_symmetry_cell_setting 'tetragonal'
loop_
_space_group_symop_operation_xyz
x,y,z
-y,x,1/2+z
-x,-y,z
y,-x,1/2+z
x,-y,1/2-z
-x,y,1/2-z
y,x,-z
-y,-x,-z
-x,-y,-z
y,-x,1/2-z
x,y,-z
-y,x,1/2-z
-x,y,1/2+z
x,-y,1/2+z
-y,-x,z
y,x,z
loop_
_atom_site_type_symbol
_atom_site_label
_atom_site_fract_x
_atom_site_fract_y
_atom_site_fract_z
Si Si1 0.035091 0.640582 0.447671
Si Si2 0.385639 0.767692 0.686227
Si Si3 0.329279 0.819659 0.218835
Si Si4 0.427835 0.275975 0.638462
Si Si5 0.744478 0.108307 0.633485
Si Si6 0.038899 0.185901 0.297365
Si Si7 0.848721 0.536879 0.552702
O O1 0.035552 0.678501 0.500000
O O2 0.051737 0.723990 0.412974
O O3 0.117451 0.567448 0.441434
O O4 0.935679 0.600041 0.435570
O O5 0.309530 0.690471 0.686944
O O6 0.402447 0.806595 0.738853
O O7 0.474402 0.717900 0.664286
O O8 0.350523 0.855521 0.656644
O O9 0.244052 0.755949 0.232509
O O10 0.369980 0.795350 0.168849
O O11 0.288083 0.921618 0.213957
O O12 0.375271 0.375271 0.636419
O O13 0.439818 0.235929 0.586703
O O14 0.804838 0.195163 0.619111
O O15 0.803635 0.043645 0.666791
O O16 0.116511 0.116511 0.317722
O O17 0.000000 0.143049 0.250000
O O18 0.814215 0.553739 0.500000
#
# Coordination Sequence:
#
# PCOD8316728 Si02
#       7
#    16  16  16  16  16  16  16
#     4   9  18  35  58  80 105 140 184 232 279 331
#     4  10  20  36  53  75 111 149 188 230 273 327
#     4   9  19  35  53  76 110 145 181 229 273 317
#     4  11  21  34  56  81 110 149 185 229 285 336
#     4  11  21  34  55  81 113 150 181 227 278 324
#     4  11  21  35  55  81 112 148 186 222 276 343
#     4   9  18  34  56  81 108 137 178 236 287 330
#
# _framework density 18.38458
#
# number of rings (size 3 to 8) (size 9 to 14) (size 15 to 20)
#    0.000    2.000    2.857    2.571    0.000    1.857 
#    0.000    0.000    0.000    4.286    0.000    2.000 
#    0.000    0.000    0.000    0.000    0.000    0.000 
#
# Total GULP energy -1388225.390954 kJ/mol
# GULP energy per Si atom -12394.869562 kJ/mol
# Density = 1.834274 g / cm^3
# Si number density = 18.384580 Si / 1000 Ang^3
#
#
#
# Elastic Constant Matrix: (Units=GPa)
#
#
# Indices 1 2 3 4 5 6 
#
# 1 57.6179 9.6015 19.7066 0.0000 0.0000 0.0000
# 2 9.6015 57.6179 19.7066 0.0000 0.0000 0.0000
# 3 19.7066 19.7066 87.6877 0.0000 0.0000 0.0000
# 4 0.0000 0.0000 0.0000 26.3455 0.0000 0.0000
# 5 0.0000 0.0000 0.0000 0.0000 26.3455 0.0000
# 6 0.0000 0.0000 0.0000 0.0000 0.0000 30.0843
#
#
#
# Elastic Compliance Matrix: (Units=1/GPa)
#
#
# Indices 1 2 3 4 5 6 
#
# 1 0.018980 -0.001846 -0.003851 0.000000 0.000000 0.000000
# 2 -0.001846 0.018980 -0.003851 0.000000 0.000000 0.000000
# 3 -0.003851 -0.003851 0.013135 0.000000 0.000000 0.000000
# 4 0.000000 0.000000 0.000000 0.037957 0.000000 0.000000
# 5 0.000000 0.000000 0.000000 0.000000 0.037957 0.000000
# 6 0.000000 0.000000 0.000000 0.000000 0.000000 0.033240
#
#
# Mechanical properties :
#
#
# Convention : Reuss Voigt Hill
#
# Bulk Modulus (GPa) = 31.24907 33.43919 32.34413
# Shear Modulus (GPa) = 26.31418 26.81563 26.56491
#
# Velocity S-wave (km/s) = 3.78738 3.82330 3.80538
# Velocity P-wave (km/s) = 6.01332 6.14153 6.07776
#
# Compressibility (1/GPa) = 0.03200095
#
# Stress axis : x y z
#
# Youngs Moduli (GPa) = 52.68605 52.68605 76.13301
#
# Poissons Ratio (x) = 0.09725 0.29317
# Poissons Ratio (y) = 0.09725 0.29317
# Poissons Ratio (z) = 0.20288 0.20288
#
# Static dielectric constant tensor:
#      x y z
#    x 3.249150 0.000000 0.000000 
#    y 0.000000 3.249150 0.000000 
#    z 0.000000 0.000000 3.420850 
# 
# 
# High freq. dielectric constant tensor:
#      x y z
#    x 1.698320 0.000000 0.000000 
#    y 0.000000 1.698320 0.000000 
#    z 0.000000 0.000000 1.717090 
# 
# From -- ./inp_files/10049.got.cif
#   From: 2010.03.12/outbox.cif.g09.slc.cpg/sg132_6_cif.got.tgz:10049.got - 2010.04.06 17:53:44.
