data_PCOD8316050
_publ_section_title
;
Structure prediction by ZEFSAII (Michael W. Deem and Ramdas Pophale) SiO2 
 PCOD8316050
Probable space group: P 42/M M C
;
_chemical_formula_sum "Si O2"
_cell_formula_units_Z 64
_cell_length_a 16.839079
_cell_length_b 16.839079
_cell_length_c 15.075112
_cell_angle_alpha 90.000000
_cell_angle_beta 90.000000
_cell_angle_gamma 90.000000
_cell_volume 4274.617075
_symmetry_space_group_name_H-M "P 42/M M C"
_symmetry_group_IT_number 131
_symmetry_cell_setting 'tetragonal'
loop_
_space_group_symop_operation_xyz
x,y,z
-x,-y,z
-y,x,1/2+z
y,-x,1/2+z
-x,y,-z
x,-y,-z
y,x,1/2-z
-y,-x,1/2-z
-x,-y,-z
x,y,-z
y,-x,1/2-z
-y,x,1/2-z
x,-y,z
-x,y,z
-y,-x,1/2+z
y,x,1/2+z
loop_
_atom_site_type_symbol
_atom_site_label
_atom_site_fract_x
_atom_site_fract_y
_atom_site_fract_z
Si Si1 0.405689 0.090009 0.903394
Si Si2 0.405327 0.852238 0.283074
Si Si3 0.321355 0.594239 0.171995
Si Si4 0.594624 0.000000 0.398861
Si Si5 0.405355 0.410335 0.500000
O O1 0.500000 0.091143 0.900840
O O2 0.372871 0.138515 0.818305
O O3 0.375268 0.000000 0.893733
O O4 0.377029 0.124429 0.000000
O O5 0.500000 0.854454 0.282762
O O6 0.373333 0.768543 0.320370
O O7 0.373365 0.922207 0.347035
O O8 0.376214 0.623787 0.250000
O O9 0.321276 0.500000 0.173205
O O10 0.361766 0.627652 0.083411
O O11 0.500000 0.000000 0.399742
O O12 0.627126 0.000000 0.500000
O O13 0.500000 0.413790 0.500000
O O14 0.370641 0.500000 0.500000
#
# Coordination Sequence:
#
# PCOD8316050 Si02
#       5
#    16  16  16   8   8
#     4   8  12  20  35  53  74  98 118 140 177 228
#     4   9  16  26  39  58  79  98 125 161 203 253
#     4  10  20  32  45  59  76 101 136 181 224 258
#     4   9  16  24  39  59  81 105 124 153 201 256
#     4   9  18  32  48  59  69  94 136 183 229 271
#
# _framework density 14.972101
#
# number of rings (size 3 to 8) (size 9 to 14) (size 15 to 20)
#    0.000    3.000    1.250    1.500    1.750    1.250 
#    2.250    0.000    0.000    0.000    0.000    0.000 
#    0.000    0.000    0.000    0.000    0.000    0.625 
#
# Total GULP energy -793008.225868 kJ/mol
# GULP energy per Si atom -12390.753529 kJ/mol
# Density = 1.493802 g / cm^3
# Si number density = 14.972101 Si / 1000 Ang^3
#
#
#
# Elastic Constant Matrix: (Units=GPa)
#
#
# Indices 1 2 3 4 5 6 
#
# 1 40.0405 16.0724 40.9827 0.0000 0.0000 0.0000
# 2 16.0724 40.0493 40.9838 0.0000 0.0000 0.0000
# 3 40.9827 40.9838 167.6705 0.0000 0.0000 0.0000
# 4 0.0000 0.0000 0.0000 14.5849 0.0000 0.0000
# 5 0.0000 0.0000 0.0000 0.0000 14.5845 0.0000
# 6 0.0000 0.0000 0.0000 0.0000 0.0000 2.3747
#
#
#
# Elastic Compliance Matrix: (Units=1/GPa)
#
#
# Indices 1 2 3 4 5 6 
#
# 1 0.034719 -0.007000 -0.006775 0.000000 0.000000 0.000000
# 2 -0.007000 0.034710 -0.006773 0.000000 0.000000 0.000000
# 3 -0.006775 -0.006773 0.009276 0.000000 0.000000 0.000000
# 4 0.000000 0.000000 0.000000 0.068564 0.000000 0.000000
# 5 0.000000 0.000000 0.000000 0.000000 0.068566 0.000000
# 6 0.000000 0.000000 0.000000 0.000000 0.000000 0.421101
#
#
# Mechanical properties :
#
#
# Convention : Reuss Voigt Hill
#
# Bulk Modulus (GPa) = 26.59027 49.31534 37.95281
# Shear Modulus (GPa) = 7.24042 16.29025 11.76533
#
# Velocity S-wave (km/s) = 2.20146 3.30212 2.80628
# Velocity P-wave (km/s) = 4.92548 6.89553 5.99202
#
# Compressibility (1/GPa) = 0.03760774
#
# Stress axis : x y z
#
# Youngs Moduli (GPa) = 28.80257 28.81046 107.80918
#
# Poissons Ratio (x) = 0.20167 0.73043
# Poissons Ratio (y) = 0.20162 0.73020
# Poissons Ratio (z) = 0.19514 0.19514
#
# Static dielectric constant tensor:
#      x y z
#    x 2.605690 0.000000 0.000000 
#    y 0.000000 2.605700 0.000000 
#    z 0.000000 0.000000 3.297260 
# 
# 
# High freq. dielectric constant tensor:
#      x y z
#    x 1.520850 0.000000 0.000000 
#    y 0.000000 1.520850 0.000000 
#    z 0.000000 0.000000 1.601420 
# 
# From -- ./inp_files/7389.got.cif
#   From: 2010.03.12/outbox.cif.g09.slc.cpg/sg131_4_cif.got.tgz:7389.got - 2010.04.06 17:36:35.
