data_PCOD8316741
_publ_section_title
;
Structure prediction by ZEFSAII (Michael W. Deem and Ramdas Pophale) SiO2 
 PCOD8316741
Probable space group: P 42/M C M
;
_chemical_formula_sum "Si O2"
_cell_formula_units_Z 58
_cell_length_a 18.934675
_cell_length_b 18.934675
_cell_length_c 8.777486
_cell_angle_alpha 90.000000
_cell_angle_beta 90.000000
_cell_angle_gamma 90.000000
_cell_volume 3146.921110
_symmetry_space_group_name_H-M "P 42/M C M"
_symmetry_group_IT_number 132
_symmetry_cell_setting 'tetragonal'
loop_
_space_group_symop_operation_xyz
x,y,z
-y,x,1/2+z
-x,-y,z
y,-x,1/2+z
x,-y,1/2-z
-x,y,1/2-z
y,x,-z
-y,-x,-z
-x,-y,-z
y,-x,1/2-z
x,y,-z
-y,x,1/2-z
-x,y,1/2+z
x,-y,1/2+z
-y,-x,z
y,x,z
loop_
_atom_site_type_symbol
_atom_site_label
_atom_site_fract_x
_atom_site_fract_y
_atom_site_fract_z
Si Si1 0.295053 0.177892 0.676382
Si Si2 0.428188 0.243581 0.819638
Si Si3 0.500000 0.500000 0.750000
Si Si4 0.808928 0.925270 0.177325
Si Si5 0.389476 0.389476 0.669747
O O1 0.312743 0.166606 0.500000
O O2 0.244480 0.244480 0.703084
O O3 0.365964 0.191613 0.769570
O O4 0.259629 0.107204 0.741151
O O5 0.500000 0.211914 0.750000
O O6 0.418823 0.322513 0.758543
O O7 0.432945 0.246509 0.000000
O O8 0.449435 0.449435 0.650725
O O9 0.876452 0.876452 0.207308
O O10 0.827176 0.000000 0.250000
O O11 0.792189 0.933391 0.000000
O O12 0.366009 0.366009 0.500000
#
# Coordination Sequence:
#
# PCOD8316741 Si02
#       5
#    16  16   2  16   8
#     4  10  20  36  59  83 112 148 192 240 289 343
#     4  12  24  37  55  78 108 144 189 241 293 346
#     4  12  26  36  56  70 110 148 194 232 298 368
#     4  10  21  37  59  89 124 159 196 233 278 334
#     4  12  24  37  52  73 103 142 189 237 291 350
#
# _framework density 18.430713000000001
#
# number of rings (size 3 to 8) (size 9 to 14) (size 15 to 20)
#    0.000    1.103    2.759    4.759    0.000    4.138 
#    0.000    1.379    0.000    0.828    0.000    5.793 
#    0.000    0.000    0.000    0.000    0.000    0.000 
#
# Total GULP energy -719472.296714 kJ/mol
# GULP energy per Si atom -12404.694771 kJ/mol
# Density = 1.838876 g / cm^3
# Si number density = 18.430713 Si / 1000 Ang^3
#
#
#
# Elastic Constant Matrix: (Units=GPa)
#
#
# Indices 1 2 3 4 5 6 
#
# 1 92.9032 47.3684 54.4798 0.0000 0.0000 0.0000
# 2 47.3684 92.9032 54.4798 0.0000 0.0000 0.0000
# 3 54.4798 54.4798 167.4552 0.0000 0.0000 0.0000
# 4 0.0000 0.0000 0.0000 31.0023 0.0000 0.0000
# 5 0.0000 0.0000 0.0000 0.0000 31.0023 0.0000
# 6 0.0000 0.0000 0.0000 0.0000 0.0000 6.3055
#
#
#
# Elastic Compliance Matrix: (Units=1/GPa)
#
#
# Indices 1 2 3 4 5 6 
#
# 1 0.015751 -0.006211 -0.003104 0.000000 0.000000 0.000000
# 2 -0.006211 0.015751 -0.003104 0.000000 0.000000 0.000000
# 3 -0.003104 -0.003104 0.007991 0.000000 0.000000 0.000000
# 4 0.000000 0.000000 0.000000 0.032256 0.000000 0.000000
# 5 0.000000 0.000000 0.000000 0.000000 0.032256 0.000000
# 6 0.000000 0.000000 0.000000 0.000000 0.000000 0.158592
#
#
# Mechanical properties :
#
#
# Convention : Reuss Voigt Hill
#
# Bulk Modulus (GPa) = 68.23026 73.99085 71.11055
# Shear Modulus (GPa) = 17.10471 26.79092 21.94781
#
# Velocity S-wave (km/s) = 3.04970 3.81675 3.45458
# Velocity P-wave (km/s) = 7.03571 7.72373 7.38773
#
# Compressibility (1/GPa) = 0.01465625
#
# Stress axis : x y z
#
# Youngs Moduli (GPa) = 63.48974 63.48974 125.13653
#
# Poissons Ratio (x) = 0.39431 0.38839
# Poissons Ratio (y) = 0.39431 0.38839
# Poissons Ratio (z) = 0.19705 0.19705
#
# Static dielectric constant tensor:
#      x y z
#    x 3.375470 0.000000 0.000000 
#    y 0.000000 3.375470 0.000000 
#    z 0.000000 0.000000 3.526920 
# 
# 
# High freq. dielectric constant tensor:
#      x y z
#    x 1.703430 0.000000 0.000000 
#    y 0.000000 1.703430 0.000000 
#    z 0.000000 0.000000 1.735760 
# 
# From -- ./inp_files/1028.got.cif
#   From: 2010.03.12/outbox.cif.g09.slc.cpg/sg132_1_cif.got.tgz:1028.got - 2010.04.06 17:53:44.
