data_PCOD8316730
_publ_section_title
;
Structure prediction by ZEFSAII (Michael W. Deem and Ramdas Pophale) SiO2 
 PCOD8316730
Probable space group: P 42/M C M
;
_chemical_formula_sum "Si O2"
_cell_formula_units_Z 96
_cell_length_a 24.094584
_cell_length_b 24.094584
_cell_length_c 8.655171
_cell_angle_alpha 90.000000
_cell_angle_beta 90.000000
_cell_angle_gamma 90.000000
_cell_volume 5024.750680
_symmetry_space_group_name_H-M "P 42/M C M"
_symmetry_group_IT_number 132
_symmetry_cell_setting 'tetragonal'
loop_
_space_group_symop_operation_xyz
x,y,z
-y,x,1/2+z
-x,-y,z
y,-x,1/2+z
x,-y,1/2-z
-x,y,1/2-z
y,x,-z
-y,-x,-z
-x,-y,-z
y,-x,1/2-z
x,y,-z
-y,x,1/2-z
-x,y,1/2+z
x,-y,1/2+z
-y,-x,z
y,x,z
loop_
_atom_site_type_symbol
_atom_site_label
_atom_site_fract_x
_atom_site_fract_y
_atom_site_fract_z
Si Si1 0.639707 0.146232 0.818633
Si Si2 0.148958 0.239825 0.180142
Si Si3 0.148814 0.061113 0.182241
Si Si4 0.443634 0.357079 0.181680
Si Si5 0.442612 0.939620 0.682731
Si Si6 0.442059 0.230695 0.816781
O O1 0.704573 0.149322 0.779894
O O2 0.610634 0.095811 0.729828
O O3 0.610319 0.202145 0.762461
O O4 0.632093 0.137984 0.000000
O O5 0.204420 0.204420 0.215319
O O6 0.094991 0.204068 0.229354
O O7 0.146383 0.255369 0.000000
O O8 0.094631 0.094631 0.243560
O O9 0.150618 0.000000 0.250000
O O10 0.145496 0.056675 0.000000
O O11 0.500000 0.382162 0.250000
O O12 0.392344 0.392344 0.247632
O O13 0.435421 0.294122 0.234502
O O14 0.447212 0.361408 0.000000
O O15 0.500000 0.914012 0.750000
O O16 0.447780 0.942048 0.500000
O O17 0.432751 0.000000 0.750000
O O18 0.500000 0.206814 0.750000
O O19 0.440717 0.221056 0.000000
#
# Coordination Sequence:
#
# PCOD8316730 Si02
#       6
#    16  16  16  16  16  16
#     4  12  24  37  56  84 113 144 185 228 273 331
#     4   9  20  40  60  78 107 147 188 231 280 329
#     4   9  19  36  58  84 114 148 184 223 268 317
#     4   9  19  35  54  77 105 138 176 218 268 326
#     4  11  22  39  60  84 115 149 185 227 277 327
#     4  10  20  36  56  78 106 141 181 228 278 326
#
# _framework density 19.105426000000001
#
# number of rings (size 3 to 8) (size 9 to 14) (size 15 to 20)
#    0.000    2.000    0.000    5.500    0.000    4.000 
#    0.000    6.667    0.000    0.000    0.000    0.000 
#    0.000    0.000    0.000    0.000    0.000    0.000 
#
# Total GULP energy -1190443.852505 kJ/mol
# GULP energy per Si atom -12400.456797 kJ/mol
# Density = 1.906194 g / cm^3
# Si number density = 19.105426 Si / 1000 Ang^3
#
#
#
# Elastic Constant Matrix: (Units=GPa)
#
#
# Indices 1 2 3 4 5 6 
#
# 1 134.4428 67.4035 42.7069 0.0000 0.0000 0.0000
# 2 67.4035 134.4428 42.7069 0.0000 0.0000 0.0000
# 3 42.7069 42.7069 95.9440 0.0000 0.0000 0.0000
# 4 0.0000 0.0000 0.0000 33.0520 0.0000 0.0000
# 5 0.0000 0.0000 0.0000 0.0000 33.0520 0.0000
# 6 0.0000 0.0000 0.0000 0.0000 0.0000 33.0515
#
#
#
# Elastic Compliance Matrix: (Units=1/GPa)
#
#
# Indices 1 2 3 4 5 6 
#
# 1 0.010510 -0.004406 -0.002717 0.000000 0.000000 0.000000
# 2 -0.004406 0.010510 -0.002717 0.000000 0.000000 0.000000
# 3 -0.002717 -0.002717 0.012842 0.000000 0.000000 0.000000
# 4 0.000000 0.000000 0.000000 0.030255 0.000000 0.000000
# 5 0.000000 0.000000 0.000000 0.000000 0.030255 0.000000
# 6 0.000000 0.000000 0.000000 0.000000 0.000000 0.030256
#
#
# Mechanical properties :
#
#
# Convention : Reuss Voigt Hill
#
# Bulk Modulus (GPa) = 70.51460 74.49601 72.50531
# Shear Modulus (GPa) = 33.54880 33.96526 33.75703
#
# Velocity S-wave (km/s) = 4.19499 4.22095 4.20799
# Velocity P-wave (km/s) = 7.77510 7.92666 7.85125
#
# Compressibility (1/GPa) = 0.01418146
#
# Stress axis : x y z
#
# Youngs Moduli (GPa) = 95.14455 95.14455 77.87205
#
# Poissons Ratio (x) = 0.41924 0.21158
# Poissons Ratio (y) = 0.41924 0.21158
# Poissons Ratio (z) = 0.25851 0.25851
#
# Static dielectric constant tensor:
#      x y z
#    x 4.211140 0.000000 0.000000 
#    y 0.000000 4.211140 0.000000 
#    z 0.000000 0.000000 3.450980 
# 
# 
# High freq. dielectric constant tensor:
#      x y z
#    x 1.748180 0.000000 0.000000 
#    y 0.000000 1.748180 0.000000 
#    z 0.000000 0.000000 1.744270 
# 
# From -- ./inp_files/1764.got.cif
#   From: 2010.03.12/outbox.cif.g09.slc.cpg/sg132_1_cif.got.tgz:1764.got - 2010.04.06 17:53:44.
