data_PCOD8316071
_publ_section_title
;
Structure prediction by ZEFSAII (Michael W. Deem and Ramdas Pophale) SiO2 
 PCOD8316071
Probable space group: P 42/M M C
;
_chemical_formula_sum "Si O2"
_cell_formula_units_Z 128
_cell_length_a 18.091135
_cell_length_b 18.091135
_cell_length_c 22.531416
_cell_angle_alpha 90.000000
_cell_angle_beta 90.000000
_cell_angle_gamma 90.000000
_cell_volume 7374.288342
_symmetry_space_group_name_H-M "P 42/M M C"
_symmetry_group_IT_number 131
_symmetry_cell_setting 'tetragonal'
loop_
_space_group_symop_operation_xyz
x,y,z
-x,-y,z
-y,x,1/2+z
y,-x,1/2+z
-x,y,-z
x,-y,-z
y,x,1/2-z
-y,-x,1/2-z
-x,-y,-z
x,y,-z
y,-x,1/2-z
-y,x,1/2-z
x,-y,z
-x,y,z
-y,-x,1/2+z
y,x,1/2+z
loop_
_atom_site_type_symbol
_atom_site_label
_atom_site_fract_x
_atom_site_fract_y
_atom_site_fract_z
Si Si1 0.207261 0.279386 0.433191
Si Si2 0.699896 0.080100 0.147787
Si Si3 0.584832 0.838891 0.214815
Si Si4 0.811836 0.351082 0.932273
Si Si5 0.280181 0.585765 0.376689
Si Si6 0.341954 0.087118 0.674431
Si Si7 0.415734 0.342530 0.431296
Si Si8 0.200321 0.079466 0.262210
O O1 0.181361 0.273199 0.500000
O O2 0.136009 0.257713 0.395083
O O3 0.270471 0.220743 0.418007
O O4 0.234277 0.363055 0.421771
O O5 0.617909 0.107990 0.163974
O O6 0.744372 0.074887 0.207981
O O7 0.694316 0.000000 0.116958
O O8 0.500000 0.858345 0.220930
O O9 0.597237 0.753686 0.190584
O O10 0.621115 0.856762 0.278197
O O11 0.882213 0.365964 0.890008
O O12 0.745513 0.408887 0.920076
O O13 0.839953 0.357442 0.000000
O O14 0.272118 0.500000 0.395008
O O15 0.365798 0.611147 0.384317
O O16 0.252834 0.095035 0.680959
O O17 0.365766 0.000000 0.681331
O O18 0.392054 0.359204 0.500000
O O19 0.500000 0.366507 0.419980
O O20 0.141078 0.141078 0.250000
O O21 0.160069 0.000000 0.270340
#
# Coordination Sequence:
#
# PCOD8316071 Si02
#       8
#    16  16  16  16  16  16  16  16
#     4   9  17  29  45  65  91 125 160 192 232 282
#     4   9  17  28  43  64  89 119 154 193 233 268
#     4   9  18  32  48  67  93 124 157 192 233 285
#     4   9  18  33  51  69  93 125 156 190 239 297
#     4   9  17  30  48  70  96 126 163 203 240 281
#     4  10  20  32  50  75  96 119 155 198 240 282
#     4   9  18  32  49  71 101 135 169 206 247 289
#     4   9  17  29  45  66  92 118 147 185 227 274
#
# _framework density 17.357607000000002
#
# number of rings (size 3 to 8) (size 9 to 14) (size 15 to 20)
#    0.000    2.875    0.000    3.000    0.000    4.375 
#    0.000    0.625    0.000    0.000    0.000    6.125 
#    0.000    4.000    0.000   23.500    0.000    2.000 
#
# Total GULP energy -1585725.743563 kJ/mol
# GULP energy per Si atom -12388.482372 kJ/mol
# Density = 1.731810 g / cm^3
# Si number density = 17.357607 Si / 1000 Ang^3
#
#
#
# Elastic Constant Matrix: (Units=GPa)
#
#
# Indices 1 2 3 4 5 6 
#
# 1 86.4296 23.6751 28.0972 0.0000 0.0000 0.0000
# 2 23.6751 86.4296 28.0972 0.0000 0.0000 0.0000
# 3 28.0972 28.0972 69.4461 0.0000 0.0000 0.0000
# 4 0.0000 0.0000 0.0000 27.1586 0.0000 0.0000
# 5 0.0000 0.0000 0.0000 0.0000 27.1586 0.0000
# 6 0.0000 0.0000 0.0000 0.0000 0.0000 15.2726
#
#
#
# Elastic Compliance Matrix: (Units=1/GPa)
#
#
# Indices 1 2 3 4 5 6 
#
# 1 0.013690 -0.002245 -0.004631 0.000000 0.000000 0.000000
# 2 -0.002245 0.013690 -0.004631 0.000000 0.000000 0.000000
# 3 -0.004631 -0.004631 0.018147 0.000000 0.000000 0.000000
# 4 0.000000 0.000000 0.000000 0.036821 0.000000 0.000000
# 5 0.000000 0.000000 0.000000 0.000000 0.036821 0.000000
# 6 0.000000 0.000000 0.000000 0.000000 0.000000 0.065477
#
#
# Mechanical properties :
#
#
# Convention : Reuss Voigt Hill
#
# Bulk Modulus (GPa) = 44.41492 44.67159 44.54325
# Shear Modulus (GPa) = 23.23813 24.74699 23.99256
#
# Velocity S-wave (km/s) = 3.66291 3.77996 3.72190
# Velocity P-wave (km/s) = 6.59795 6.69647 6.64739
#
# Compressibility (1/GPa) = 0.02251496
#
# Stress axis : x y z
#
# Youngs Moduli (GPa) = 73.04378 73.04378 55.10601
#
# Poissons Ratio (x) = 0.16396 0.25519
# Poissons Ratio (y) = 0.16396 0.25519
# Poissons Ratio (z) = 0.33825 0.33825
#
# Static dielectric constant tensor:
#      x y z
#    x 3.330850 0.000000 0.000000 
#    y 0.000000 3.330850 0.000000 
#    z 0.000000 0.000000 3.135750 
# 
# 
# High freq. dielectric constant tensor:
#      x y z
#    x 1.661940 0.000000 0.000000 
#    y 0.000000 1.661940 0.000000 
#    z 0.000000 0.000000 1.653020 
# 
# From -- ./inp_files/11530.got.cif
#   From: 2010.03.12/outbox.cif.g09.slc.cpg/sg131_6_cif.got.tgz:11530.got - 2010.04.06 17:36:35.
