data_PCOD8316772
_publ_section_title
;
Structure prediction by ZEFSAII (Michael W. Deem and Ramdas Pophale) SiO2 
 PCOD8316772
Probable space group: P 42/M C M
;
_chemical_formula_sum "Si O2"
_cell_formula_units_Z 96
_cell_length_a 16.985396
_cell_length_b 16.985396
_cell_length_c 17.632683
_cell_angle_alpha 90.000000
_cell_angle_beta 90.000000
_cell_angle_gamma 90.000000
_cell_volume 5087.093886
_symmetry_space_group_name_H-M "P 42/M C M"
_symmetry_group_IT_number 132
_symmetry_cell_setting 'tetragonal'
loop_
_space_group_symop_operation_xyz
x,y,z
-y,x,1/2+z
-x,-y,z
y,-x,1/2+z
x,-y,1/2-z
-x,y,1/2-z
y,x,-z
-y,-x,-z
-x,-y,-z
y,-x,1/2-z
x,y,-z
-y,x,1/2-z
-x,y,1/2+z
x,-y,1/2+z
-y,-x,z
y,x,z
loop_
_atom_site_type_symbol
_atom_site_label
_atom_site_fract_x
_atom_site_fract_y
_atom_site_fract_z
Si Si1 0.119500 0.583566 0.589359
Si Si2 0.125047 0.999825 0.659958
Si Si3 0.419880 0.705806 0.154776
Si Si4 0.404714 0.132386 0.586513
Si Si5 0.695733 0.990564 0.339724
Si Si6 0.278363 0.403907 0.171753
O O1 0.130985 0.591957 0.500000
O O2 0.103034 0.492228 0.610954
O O3 0.197103 0.614298 0.630559
O O4 0.049642 0.638394 0.617073
O O5 0.078736 0.921265 0.631610
O O6 0.126795 0.000000 0.750000
O O7 0.214691 0.000084 0.629349
O O8 0.077513 0.077513 0.631451
O O9 0.372549 0.627452 0.132980
O O10 0.398405 0.773851 0.095430
O O11 0.398083 0.736438 0.238490
O O12 0.511828 0.685476 0.149179
O O13 0.388020 0.108724 0.500000
O O14 0.337571 0.095226 0.639658
O O15 0.691770 0.000000 0.250000
O O16 0.339802 0.339802 0.142811
#
# Coordination Sequence:
#
# PCOD8316772 Si02
#       6
#    16  16  16  16  16  16
#     4  10  21  36  52  72 103 141 176 211 255 307
#     4   8  16  33  54  75 101 130 159 196 244 297
#     4   9  18  33  53  77 105 137 174 217 263 309
#     4  10  21  36  52  72 103 141 176 211 255 307
#     4  11  21  32  54  84 105 128 168 213 257 307
#     4   9  18  33  53  77 105 137 174 217 263 309
#
# _framework density 18.871285
#
# number of rings (size 3 to 8) (size 9 to 14) (size 15 to 20)
#    0.000    2.500    0.000    2.500    0.000    6.333 
#    0.000    5.000    0.000    3.000    0.000    9.333 
#    0.000    0.000    0.000    0.000    0.000    0.000 
#
# Total GULP energy -1190309.704714 kJ/mol
# GULP energy per Si atom -12399.059424 kJ/mol
# Density = 1.882833 g / cm^3
# Si number density = 18.871285 Si / 1000 Ang^3
#
#
#
# Elastic Constant Matrix: (Units=GPa)
#
#
# Indices 1 2 3 4 5 6 
#
# 1 82.4254 35.2568 13.9185 0.0000 0.0000 0.0000
# 2 35.2568 82.4254 13.9185 0.0000 0.0000 0.0000
# 3 13.9185 13.9185 39.8397 0.0000 0.0000 0.0000
# 4 0.0000 0.0000 0.0000 16.4846 0.0000 0.0000
# 5 0.0000 0.0000 0.0000 0.0000 16.4846 0.0000
# 6 0.0000 0.0000 0.0000 0.0000 0.0000 26.8111
#
#
#
# Elastic Compliance Matrix: (Units=1/GPa)
#
#
# Indices 1 2 3 4 5 6 
#
# 1 0.015232 -0.005969 -0.003236 0.000000 0.000000 0.000000
# 2 -0.005969 0.015232 -0.003236 0.000000 0.000000 0.000000
# 3 -0.003236 -0.003236 0.027362 0.000000 0.000000 0.000000
# 4 0.000000 0.000000 0.000000 0.060663 0.000000 0.000000
# 5 0.000000 0.000000 0.000000 0.000000 0.060663 0.000000
# 6 0.000000 0.000000 0.000000 0.000000 0.000000 0.037298
#
#
# Mechanical properties :
#
#
# Convention : Reuss Voigt Hill
#
# Bulk Modulus (GPa) = 30.35537 36.76426 33.55981
# Shear Modulus (GPa) = 19.81677 21.39584 20.60630
#
# Velocity S-wave (km/s) = 3.24404 3.37081 3.30804
# Velocity P-wave (km/s) = 5.49110 5.88844 5.69324
#
# Compressibility (1/GPa) = 0.03294310
#
# Stress axis : x y z
#
# Youngs Moduli (GPa) = 65.65228 65.65228 36.54738
#
# Poissons Ratio (x) = 0.39187 0.11827
# Poissons Ratio (y) = 0.39187 0.11827
# Poissons Ratio (z) = 0.21246 0.21246
#
# Static dielectric constant tensor:
#      x y z
#    x 3.620530 0.000000 0.000000 
#    y 0.000000 3.620530 0.000000 
#    z 0.000000 0.000000 3.275460 
# 
# 
# High freq. dielectric constant tensor:
#      x y z
#    x 1.734380 0.000000 0.000000 
#    y 0.000000 1.734380 0.000000 
#    z 0.000000 0.000000 1.715740 
# 
# From -- ./inp_files/6441.got.cif
#   From: 2010.03.12/outbox.cif.g09.slc.cpg/sg132_4_cif.got.tgz:6441.got - 2010.04.06 17:53:44.
