data_PCOD8316060
_publ_section_title
;
Structure prediction by ZEFSAII (Michael W. Deem and Ramdas Pophale) SiO2 
 PCOD8316060
Probable space group: P 42/M M C
;
_chemical_formula_sum "Si O2"
_cell_formula_units_Z 104
_cell_length_a 25.090360
_cell_length_b 25.090360
_cell_length_c 9.455335
_cell_angle_alpha 90.000000
_cell_angle_beta 90.000000
_cell_angle_gamma 90.000000
_cell_volume 5952.380781
_symmetry_space_group_name_H-M "P 42/M M C"
_symmetry_group_IT_number 131
_symmetry_cell_setting 'tetragonal'
loop_
_space_group_symop_operation_xyz
x,y,z
-x,-y,z
-y,x,1/2+z
y,-x,1/2+z
-x,y,-z
x,-y,-z
y,x,1/2-z
-y,-x,1/2-z
-x,-y,-z
x,y,-z
y,-x,1/2-z
-y,x,1/2-z
x,-y,z
-x,y,z
-y,-x,1/2+z
y,x,1/2+z
loop_
_atom_site_type_symbol
_atom_site_label
_atom_site_fract_x
_atom_site_fract_y
_atom_site_fract_z
Si Si1 0.500000 0.939686 0.167027
Si Si2 0.060648 0.787897 0.847656
Si Si3 0.595585 0.135675 0.168820
Si Si4 0.561869 0.640639 0.333457
Si Si5 0.437266 0.237252 0.661181
Si Si6 0.059784 0.665967 0.835338
Si Si7 0.938256 0.123720 0.347470
O O1 0.450373 0.904915 0.218909
O O2 0.500000 0.000000 0.232746
O O3 0.500000 0.945053 0.000000
O O4 0.061206 0.727602 0.798633
O O5 0.088506 0.825156 0.730547
O O6 0.000000 0.807606 0.863444
O O7 0.089446 0.794077 0.000000
O O8 0.590221 0.194827 0.234232
O O9 0.646402 0.106507 0.232901
O O10 0.598852 0.141715 0.000000
O O11 0.600025 0.600025 0.250000
O O12 0.569827 0.631222 0.500000
O O13 0.500000 0.629873 0.292250
O O14 0.577381 0.701902 0.294779
O O15 0.418621 0.226485 0.500000
O O16 0.500000 0.229340 0.673783
O O17 0.000000 0.643813 0.799276
O O18 0.072533 0.654064 0.000000
O O19 0.927791 0.072210 0.250000
O O20 0.910366 0.116730 0.500000
O O21 0.000000 0.131787 0.371188
#
# Coordination Sequence:
#
# PCOD8316060 Si02
#       7
#     8  16  16  16  16  16  16
#     4   9  18  30  41  61  99 137 166 205 256 299
#     4   8  15  30  50  68  89 119 155 197 242 288
#     4  11  20  30  47  71 100 134 172 213 257 301
#     4   9  19  35  55  81 110 140 171 206 252 302
#     4   9  18  34  53  71  98 136 176 214 251 298
#     4   9  18  32  49  70  96 127 165 207 254 306
#     4  10  20  32  48  71  97 125 156 189 229 282
#
# _framework density 17.472000999999999
#
# number of rings (size 3 to 8) (size 9 to 14) (size 15 to 20)
#    0.000    2.692    0.769    3.231    0.000    3.692 
#    0.000    4.615    0.000    2.769    0.000    4.308 
#    0.000    0.000    0.000    0.000    0.000    0.000 
#
# Total GULP energy -1288412.847867 kJ/mol
# GULP energy per Si atom -12388.585076 kJ/mol
# Density = 1.743223 g / cm^3
# Si number density = 17.472001 Si / 1000 Ang^3
#
#
#
# Elastic Constant Matrix: (Units=GPa)
#
#
# Indices 1 2 3 4 5 6 
#
# 1 81.3618 48.0519 53.3409 0.0000 0.0000 0.0000
# 2 48.0519 81.3660 53.3424 0.0000 0.0000 0.0000
# 3 53.3409 53.3424 113.8462 0.0000 0.0000 0.0000
# 4 0.0000 0.0000 0.0000 26.5309 0.0000 0.0000
# 5 0.0000 0.0000 0.0000 0.0000 26.5305 0.0000
# 6 0.0000 0.0000 0.0000 0.0000 0.0000 7.5275
#
#
#
# Elastic Compliance Matrix: (Units=1/GPa)
#
#
# Indices 1 2 3 4 5 6 
#
# 1 0.021305 -0.008715 -0.005899 0.000000 0.000000 0.000000
# 2 -0.008715 0.021304 -0.005899 0.000000 0.000000 0.000000
# 3 -0.005899 -0.005899 0.014311 0.000000 0.000000 0.000000
# 4 0.000000 0.000000 0.000000 0.037692 0.000000 0.000000
# 5 0.000000 0.000000 0.000000 0.000000 0.037692 0.000000
# 6 0.000000 0.000000 0.000000 0.000000 0.000000 0.132846
#
#
# Mechanical properties :
#
#
# Convention : Reuss Voigt Hill
#
# Bulk Modulus (GPa) = 62.91038 65.11607 64.01323
# Shear Modulus (GPa) = 16.05272 20.24037 18.14655
#
# Velocity S-wave (km/s) = 3.03441 3.40729 3.22624
# Velocity P-wave (km/s) = 6.95424 7.26837 7.11304
#
# Compressibility (1/GPa) = 0.01589563
#
# Stress axis : x y z
#
# Youngs Moduli (GPa) = 46.93741 46.93975 69.87423
#
# Poissons Ratio (x) = 0.40907 0.41218
# Poissons Ratio (y) = 0.40905 0.41217
# Poissons Ratio (z) = 0.27688 0.27688
#
# Static dielectric constant tensor:
#      x y z
#    x 3.179550 0.000000 0.000000 
#    y 0.000000 3.179550 0.000000 
#    z 0.000000 0.000000 3.442570 
# 
# 
# High freq. dielectric constant tensor:
#      x y z
#    x 1.659470 0.000000 0.000000 
#    y 0.000000 1.659470 0.000000 
#    z 0.000000 0.000000 1.677760 
# 
# From -- ./inp_files/2581.got.cif
#   From: 2010.03.12/outbox.cif.g09.slc.cpg/sg131_2_cif.got.tgz:2581.got - 2010.04.06 17:36:35.
