data_PCOD8316757
_publ_section_title
;
Structure prediction by ZEFSAII (Michael W. Deem and Ramdas Pophale) SiO2 
 PCOD8316757
Probable space group: P 42/M C M
;
_chemical_formula_sum "Si O2"
_cell_formula_units_Z 58
_cell_length_a 16.975831
_cell_length_b 16.975831
_cell_length_c 9.541361
_cell_angle_alpha 90.000000
_cell_angle_beta 90.000000
_cell_angle_gamma 90.000000
_cell_volume 2749.618327
_symmetry_space_group_name_H-M "P 42/M C M"
_symmetry_group_IT_number 132
_symmetry_cell_setting 'tetragonal'
loop_
_space_group_symop_operation_xyz
x,y,z
-y,x,1/2+z
-x,-y,z
y,-x,1/2+z
x,-y,1/2-z
-x,y,1/2-z
y,x,-z
-y,-x,-z
-x,-y,-z
y,-x,1/2-z
x,y,-z
-y,x,1/2-z
-x,y,1/2+z
x,-y,1/2+z
-y,-x,z
y,x,z
loop_
_atom_site_type_symbol
_atom_site_label
_atom_site_fract_x
_atom_site_fract_y
_atom_site_fract_z
Si Si1 0.737332 0.611625 0.000000
Si Si2 0.586683 0.183820 0.223643
Si Si3 0.312790 0.558654 0.000000
Si Si4 0.125416 0.874585 0.336227
Si Si5 0.000000 0.000000 0.750000
Si Si6 0.277068 0.928790 0.839443
O O1 0.796597 0.620114 0.873301
O O2 0.679050 0.535956 0.000000
O O3 0.688558 0.688558 0.000000
O O4 0.500000 0.144987 0.250000
O O5 0.581076 0.264875 0.138095
O O6 0.649707 0.130219 0.144844
O O7 0.397589 0.602412 0.000000
O O8 0.144490 0.855511 0.500000
O O9 0.099127 0.797460 0.251120
O O10 0.057712 0.942289 0.338303
O O11 0.313181 0.000000 0.750000
O O12 0.250422 0.949599 0.000000
#
# Coordination Sequence:
#
# PCOD8316757 Si02
#       6
#     8  16   8   8   2  16
#     4  10  22  37  61  97 129 171 223 275 331 389
#     4  10  23  42  64  93 132 176 223 273 336 398
#     4  10  20  39  63  91 129 177 219 269 335 401
#     4  12  28  47  74 107 137 178 223 277 337 410
#     4  12  26  52  80  94 154 180 206 272 354 392
#     4  12  27  45  68 101 135 174 227 275 337 405
#
# _framework density 21.093837000000001
#
# number of rings (size 3 to 8) (size 9 to 14) (size 15 to 20)
#    0.000    1.103    2.759    2.276    7.724    1.931 
#    0.000    1.379    0.000    4.966    0.000    0.000 
#    0.000    0.000    0.000    0.000    0.000    0.000 
#
# Total GULP energy -718628.765812 kJ/mol
# GULP energy per Si atom -12390.151135 kJ/mol
# Density = 2.104583 g / cm^3
# Si number density = 21.093837 Si / 1000 Ang^3
#
#
#
# Elastic Constant Matrix: (Units=GPa)
#
#
# Indices 1 2 3 4 5 6 
#
# 1 79.0397 30.3966 25.6066 0.0000 0.0000 0.0000
# 2 30.3966 79.0411 25.6066 0.0000 0.0000 0.0000
# 3 25.6066 25.6066 179.2877 0.0000 0.0000 0.0000
# 4 0.0000 0.0000 0.0000 -8.8791 0.0000 0.0000
# 5 0.0000 0.0000 0.0000 0.0000 -8.8322 0.0000
# 6 0.0000 0.0000 0.0000 0.0000 0.0000 35.2008
#
#
#
# Elastic Compliance Matrix: (Units=1/GPa)
#
#
# Indices 1 2 3 4 5 6 
#
# 1 0.015175 -0.005383 -0.001399 0.000000 0.000000 0.000000
# 2 -0.005383 0.015175 -0.001399 0.000000 0.000000 0.000000
# 3 -0.001399 -0.001399 0.005977 0.000000 0.000000 0.000000
# 4 0.000000 0.000000 0.000000 -0.112624 0.000000 0.000000
# 5 0.000000 0.000000 0.000000 0.000000 -0.113222 0.000000
# 6 0.000000 0.000000 0.000000 0.000000 0.000000 0.028408
#
#
# Mechanical properties :
#
#
# Convention : Reuss Voigt Hill
#
# Bulk Modulus (GPa) = 50.08210 55.62090 52.85150
# Shear Modulus (GPa) = -36.20690 20.54848 -7.82921
#
# Velocity S-wave (km/s) = -4.14752 3.12452 -1.92864
# Velocity P-wave (km/s) = 0.92636 6.28032 4.48890
#
# Compressibility (1/GPa) = 0.01996722
#
# Stress axis : x y z
#
# Youngs Moduli (GPa) = 65.89777 65.89895 167.30453
#
# Poissons Ratio (x) = 0.35472 0.23399
# Poissons Ratio (y) = 0.35471 0.23398
# Poissons Ratio (z) = 0.09216 0.09216
#
# Static dielectric constant tensor:
#      x y z
#    x 3.827260 0.000000 0.000000 
#    y 0.000000 3.827260 0.000000 
#    z 0.000000 0.000000 4.099110 
# 
# 
# High freq. dielectric constant tensor:
#      x y z
#    x 1.819610 0.000000 0.000000 
#    y 0.000000 1.819610 0.000000 
#    z 0.000000 0.000000 1.853780 
# 
# From -- ./inp_files/1054.got.cif
#   From: 2010.03.12/outbox.cif.g09.slc.cpg/sg132_1_cif.got.tgz:1054.got - 2010.04.06 17:53:44.
