data_PCOD8316102
_publ_section_title
;
Structure prediction by ZEFSAII (Michael W. Deem and Ramdas Pophale) SiO2 
 PCOD8316102
Probable space group: P 42/M M C
;
_chemical_formula_sum "Si O2"
_cell_formula_units_Z 120
_cell_length_a 27.440900
_cell_length_b 27.440900
_cell_length_c 8.735947
_cell_angle_alpha 90.000000
_cell_angle_beta 90.000000
_cell_angle_gamma 90.000000
_cell_volume 6578.194236
_symmetry_space_group_name_H-M "P 42/M M C"
_symmetry_group_IT_number 131
_symmetry_cell_setting 'tetragonal'
loop_
_space_group_symop_operation_xyz
x,y,z
-x,-y,z
-y,x,1/2+z
y,-x,1/2+z
-x,y,-z
x,-y,-z
y,x,1/2-z
-y,-x,1/2-z
-x,-y,-z
x,y,-z
y,-x,1/2-z
-y,x,1/2-z
x,-y,z
-x,y,z
-y,-x,1/2+z
y,x,1/2+z
loop_
_atom_site_type_symbol
_atom_site_label
_atom_site_fract_x
_atom_site_fract_y
_atom_site_fract_z
Si Si1 0.771280 0.055739 0.678944
Si Si2 0.123857 0.580747 0.680047
Si Si3 0.783273 0.714742 0.672633
Si Si4 0.681509 0.120664 0.679286
Si Si5 0.443401 0.228214 0.322138
Si Si6 0.297649 0.632399 0.328107
Si Si7 0.944374 0.870719 0.679713
Si Si8 0.943806 0.500000 0.181332
O O1 0.780088 0.062413 0.500000
O O2 0.724807 0.085830 0.735000
O O3 0.818989 0.076537 0.763269
O O4 0.761642 0.000000 0.724669
O O5 0.123508 0.572475 0.500000
O O6 0.106310 0.634669 0.722160
O O7 0.178576 0.571131 0.737185
O O8 0.083911 0.546831 0.756871
O O9 0.764305 0.764305 0.750000
O O10 0.802536 0.724885 0.500000
O O11 0.824198 0.695153 0.785144
O O12 0.741142 0.675306 0.667165
O O13 0.670231 0.114641 0.500000
O O14 0.431779 0.220399 0.500000
O O15 0.500000 0.239602 0.293141
O O16 0.413257 0.274773 0.262360
O O17 0.347334 0.652667 0.250000
O O18 0.310476 0.615385 0.500000
O O19 0.914889 0.914889 0.750000
O O20 0.939546 0.873100 0.500000
O O21 0.000000 0.876376 0.735299
O O22 0.000000 0.500000 0.237339
O O23 0.940894 0.500000 0.000000
#
# Coordination Sequence:
#
# PCOD8316102 Si02
#       8
#    16  16  16  16  16  16  16   8
#     4   9  20  39  59  78 102 136 177 220 268 323
#     4  12  24  38  58  84 114 145 185 238 294 351
#     4  10  20  33  50  75 107 142 180 222 272 327
#     4  11  22  36  57  81 108 143 185 231 279 333
#     4  11  22  36  58  85 117 156 199 241 289 346
#     4  10  20  34  54  80 114 153 192 235 285 338
#     4  10  21  37  59  86 114 145 179 218 268 327
#     4  11  25  45  65  83 107 143 187 239 300 359
#
# _framework density 18.242087999999999
#
# number of rings (size 3 to 8) (size 9 to 14) (size 15 to 20)
#    0.000    1.533    2.000    3.400    0.000    5.467 
#    0.000    2.000    0.000    0.000    0.000    0.000 
#    0.000    0.267    0.000    2.800    0.000    1.200 
#
# Total GULP energy -1488295.559972 kJ/mol
# GULP energy per Si atom -12402.463000 kJ/mol
# Density = 1.820057 g / cm^3
# Si number density = 18.242088 Si / 1000 Ang^3
#
#
#
# Elastic Constant Matrix: (Units=GPa)
#
#
# Indices 1 2 3 4 5 6 
#
# 1 96.4733 61.2123 38.1488 0.0000 0.0000 0.0000
# 2 61.2123 96.4746 38.1492 0.0000 0.0000 0.0000
# 3 38.1488 38.1492 81.7039 0.0000 0.0000 0.0000
# 4 0.0000 0.0000 0.0000 24.7165 0.0000 0.0000
# 5 0.0000 0.0000 0.0000 0.0000 24.7171 0.0000
# 6 0.0000 0.0000 0.0000 0.0000 0.0000 37.8485
#
#
#
# Elastic Compliance Matrix: (Units=1/GPa)
#
#
# Indices 1 2 3 4 5 6 
#
# 1 0.018276 -0.010083 -0.003825 0.000000 0.000000 0.000000
# 2 -0.010083 0.018276 -0.003825 0.000000 0.000000 0.000000
# 3 -0.003825 -0.003825 0.015811 0.000000 0.000000 0.000000
# 4 0.000000 0.000000 0.000000 0.040459 0.000000 0.000000
# 5 0.000000 0.000000 0.000000 0.000000 0.040458 0.000000
# 6 0.000000 0.000000 0.000000 0.000000 0.000000 0.026421
#
#
# Mechanical properties :
#
#
# Convention : Reuss Voigt Hill
#
# Bulk Modulus (GPa) = 59.18699 61.07472 60.13086
# Shear Modulus (GPa) = 24.90028 26.59920 25.74974
#
# Velocity S-wave (km/s) = 3.69859 3.82268 3.76114
# Velocity P-wave (km/s) = 7.12426 7.28263 7.20388
#
# Compressibility (1/GPa) = 0.01689561
#
# Stress axis : x y z
#
# Youngs Moduli (GPa) = 54.71618 54.71687 63.24516
#
# Poissons Ratio (x) = 0.55173 0.24193
# Poissons Ratio (y) = 0.55173 0.24193
# Poissons Ratio (z) = 0.20930 0.20931
#
# Static dielectric constant tensor:
#      x y z
#    x 3.404550 0.000000 0.000000 
#    y 0.000000 3.404550 0.000000 
#    z 0.000000 0.000000 3.535250 
# 
# 
# High freq. dielectric constant tensor:
#      x y z
#    x 1.698520 0.000000 0.000000 
#    y 0.000000 1.698520 0.000000 
#    z 0.000000 0.000000 1.722540 
# 
# From -- ./inp_files/2633.got.cif
#   From: 2010.03.12/outbox.cif.g09.slc.cpg/sg131_2_cif.got.tgz:2633.got - 2010.04.06 17:36:35.
