data_PCOD8316138
_publ_section_title
;
Structure prediction by ZEFSAII (Michael W. Deem and Ramdas Pophale) SiO2 
 PCOD8316138
Probable space group: P 42/M M C
;
_chemical_formula_sum "Si O2"
_cell_formula_units_Z 48
_cell_length_a 8.124433
_cell_length_b 8.124433
_cell_length_c 34.000901
_cell_angle_alpha 90.000000
_cell_angle_beta 90.000000
_cell_angle_gamma 90.000000
_cell_volume 2244.277465
_symmetry_space_group_name_H-M "P 42/M M C"
_symmetry_group_IT_number 131
_symmetry_cell_setting 'tetragonal'
loop_
_space_group_symop_operation_xyz
x,y,z
-x,-y,z
-y,x,1/2+z
y,-x,1/2+z
-x,y,-z
x,-y,-z
y,x,1/2-z
-y,-x,1/2-z
-x,-y,-z
x,y,-z
y,-x,1/2-z
-y,x,1/2-z
x,-y,z
-x,y,z
-y,-x,1/2+z
y,x,1/2+z
loop_
_atom_site_type_symbol
_atom_site_label
_atom_site_fract_x
_atom_site_fract_y
_atom_site_fract_z
Si Si1 0.196371 0.000000 0.044892
Si Si2 0.190915 0.809086 0.750000
Si Si3 0.689496 0.187862 0.832648
Si Si4 0.319568 0.809737 0.410765
O O1 0.270445 0.834592 0.065491
O O2 0.000000 0.000000 0.048743
O O3 0.255193 0.000000 0.000000
O O4 0.282860 0.741170 0.788771
O O5 0.000000 0.771460 0.756196
O O6 0.500000 0.199510 0.844125
O O7 0.789884 0.293569 0.864133
O O8 0.754341 0.000000 0.834137
O O9 0.500000 0.733125 0.422121
O O10 0.325155 0.000000 0.421574
#
# Coordination Sequence:
#
# PCOD8316138 Si02
#       4
#     8   8  16  16
#     4   9  18  34  57  85 115 143 177 231 289 341
#     4   9  18  32  52  77 108 148 190 233 277 326
#     4  10  20  34  53  77 108 146 186 229 278 332
#     4  10  20  34  56  83 110 145 185 226 278 343
#
# _framework density 21.387732
#
# number of rings (size 3 to 8) (size 9 to 14) (size 15 to 20)
#    0.000    2.333    1.667    1.000    0.000    4.000 
#    0.000    6.667    0.000    2.000    0.000    2.333 
#    0.000    0.000    0.000    0.000    0.000    0.000 
#
# Total GULP energy -594987.929120 kJ/mol
# GULP energy per Si atom -12395.581857 kJ/mol
# Density = 2.133905 g / cm^3
# Si number density = 21.387732 Si / 1000 Ang^3
#
#
#
# Elastic Constant Matrix: (Units=GPa)
#
#
# Indices 1 2 3 4 5 6 
#
# 1 84.6455 22.2119 42.1645 0.0000 0.0000 0.0000
# 2 22.2119 84.6461 42.1645 0.0000 0.0000 0.0000
# 3 42.1645 42.1645 144.2882 0.0000 0.0000 0.0000
# 4 0.0000 0.0000 0.0000 8.1388 0.0000 0.0000
# 5 0.0000 0.0000 0.0000 0.0000 8.1386 0.0000
# 6 0.0000 0.0000 0.0000 0.0000 0.0000 11.0271
#
#
#
# Elastic Compliance Matrix: (Units=1/GPa)
#
#
# Indices 1 2 3 4 5 6 
#
# 1 0.014090 -0.001927 -0.003554 0.000000 0.000000 0.000000
# 2 -0.001927 0.014090 -0.003554 0.000000 0.000000 0.000000
# 3 -0.003554 -0.003554 0.009008 0.000000 0.000000 0.000000
# 4 0.000000 0.000000 0.000000 0.122869 0.000000 0.000000
# 5 0.000000 0.000000 0.000000 0.000000 0.122872 0.000000
# 6 0.000000 0.000000 0.000000 0.000000 0.000000 0.090686
#
#
# Mechanical properties :
#
#
# Convention : Reuss Voigt Hill
#
# Bulk Modulus (GPa) = 52.30980 58.51796 55.41388
# Shear Modulus (GPa) = 12.56097 19.26347 15.91222
#
# Velocity S-wave (km/s) = 2.42605 3.00439 2.73057
# Velocity P-wave (km/s) = 5.68846 6.28132 5.99223
#
# Compressibility (1/GPa) = 0.01911688
#
# Stress axis : x y z
#
# Youngs Moduli (GPa) = 70.97152 70.97207 111.01317
#
# Poissons Ratio (x) = 0.13675 0.39459
# Poissons Ratio (y) = 0.13675 0.39458
# Poissons Ratio (z) = 0.25226 0.25226
#
# Static dielectric constant tensor:
#      x y z
#    x 3.796120 0.000000 0.000000 
#    y 0.000000 3.796100 0.000000 
#    z 0.000000 0.000000 3.855360 
# 
# 
# High freq. dielectric constant tensor:
#      x y z
#    x 1.817320 0.000000 0.000000 
#    y 0.000000 1.817320 0.000000 
#    z 0.000000 0.000000 1.836680 
# 
# From -- ./inp_files/12909.got.cif
#   From: 2010.03.12/outbox.cif.g09.slc.cpg/sg131_7_cif.got.tgz:12909.got - 2010.04.06 17:36:35.
