data_PCOD8316344
_publ_section_title
;
Structure prediction by ZEFSAII (Michael W. Deem and Ramdas Pophale) SiO2 
 PCOD8316344
Probable space group: P 42/M M C
;
_chemical_formula_sum "Si O2"
_cell_formula_units_Z 72
_cell_length_a 16.866868
_cell_length_b 16.866868
_cell_length_c 16.535819
_cell_angle_alpha 90.000000
_cell_angle_beta 90.000000
_cell_angle_gamma 90.000000
_cell_volume 4704.295588
_symmetry_space_group_name_H-M "P 42/M M C"
_symmetry_group_IT_number 131
_symmetry_cell_setting 'tetragonal'
loop_
_space_group_symop_operation_xyz
x,y,z
-x,-y,z
-y,x,1/2+z
y,-x,1/2+z
-x,y,-z
x,-y,-z
y,x,1/2-z
-y,-x,1/2-z
-x,-y,-z
x,y,-z
y,-x,1/2-z
-y,x,1/2-z
x,-y,z
-x,y,z
-y,-x,1/2+z
y,x,1/2+z
loop_
_atom_site_type_symbol
_atom_site_label
_atom_site_fract_x
_atom_site_fract_y
_atom_site_fract_z
Si Si1 0.088317 0.594043 0.153468
Si Si2 0.594178 0.000000 0.908658
Si Si3 0.593968 0.357548 0.500000
Si Si4 0.330987 0.592482 0.330851
Si Si5 0.593588 0.154493 0.820828
Si Si6 0.821308 0.594584 0.000000
O O1 0.081967 0.500000 0.146843
O O2 0.141511 0.619375 0.228717
O O3 0.000000 0.630009 0.160229
O O4 0.132889 0.629955 0.076578
O O5 0.630470 0.919105 0.871037
O O6 0.500000 0.000000 0.895891
O O7 0.620893 0.000000 0.000000
O O8 0.500000 0.364490 0.500000
O O9 0.622951 0.396410 0.415729
O O10 0.625507 0.268029 0.500000
O O11 0.366590 0.633411 0.250000
O O12 0.330206 0.500000 0.309208
O O13 0.241358 0.624730 0.346594
O O14 0.500000 0.151880 0.832585
O O15 0.821972 0.500000 0.000000
#
# Coordination Sequence:
#
# PCOD8316344 Si02
#       6
#    16   8   8  16  16   8
#     4   9  14  23  40  63  86 106 126 158 211 273
#     4   9  16  26  44  65  85 105 127 165 220 281
#     4  11  23  37  49  62  81 115 161 212 252 273
#     4  11  23  36  50  65  85 116 158 206 247 277
#     4   9  17  29  44  64  86 107 135 176 227 277
#     4   9  17  27  41  59  82 107 139 180 223 265
#
# _framework density 15.305161999999999
#
# number of rings (size 3 to 8) (size 9 to 14) (size 15 to 20)
#    0.000    2.333    1.111    2.667    1.556    6.889 
#    0.000    0.000    0.000    0.000    0.000    0.000 
#    0.000    0.000    0.000    0.000    0.000    0.556 
#
# Total GULP energy -892072.459924 kJ/mol
# GULP energy per Si atom -12389.895277 kJ/mol
# Density = 1.527033 g / cm^3
# Si number density = 15.305162 Si / 1000 Ang^3
#
#
#
# Elastic Constant Matrix: (Units=GPa)
#
#
# Indices 1 2 3 4 5 6 
#
# 1 78.0645 17.1159 33.6535 0.0000 0.0000 0.0000
# 2 17.1159 78.0642 33.6538 0.0000 0.0000 0.0000
# 3 33.6535 33.6538 110.6425 0.0000 0.0000 0.0000
# 4 0.0000 0.0000 0.0000 19.7795 0.0000 0.0000
# 5 0.0000 0.0000 0.0000 0.0000 19.7796 0.0000
# 6 0.0000 0.0000 0.0000 0.0000 0.0000 0.0553
#
#
#
# Elastic Compliance Matrix: (Units=1/GPa)
#
#
# Indices 1 2 3 4 5 6 
#
# 1 0.014896 -0.001511 -0.004071 0.000000 0.000000 0.000000
# 2 -0.001511 0.014896 -0.004071 0.000000 0.000000 0.000000
# 3 -0.004071 -0.004071 0.011515 0.000000 0.000000 0.000000
# 4 0.000000 0.000000 0.000000 0.050557 0.000000 0.000000
# 5 0.000000 0.000000 0.000000 0.000000 0.050557 0.000000
# 6 0.000000 0.000000 0.000000 0.000000 0.000000 18.092538
#
#
# Mechanical properties :
#
#
# Convention : Reuss Voigt Hill
#
# Bulk Modulus (GPa) = 45.45402 48.40195 46.92799
# Shear Modulus (GPa) = 0.27380 20.07941 10.17661
#
# Velocity S-wave (km/s) = 0.42342 3.62600 2.58139
# Velocity P-wave (km/s) = 5.47741 7.01596 6.29388
#
# Compressibility (1/GPa) = 0.02200025
#
# Stress axis : x y z
#
# Youngs Moduli (GPa) = 67.13055 67.13006 86.84416
#
# Poissons Ratio (x) = 0.10143 0.35358
# Poissons Ratio (y) = 0.10143 0.35358
# Poissons Ratio (z) = 0.27331 0.27332
#
# Static dielectric constant tensor:
#      x y z
#    x 2.827670 0.000000 0.000000 
#    y 0.000000 2.827670 0.000000 
#    z 0.000000 0.000000 3.120750 
# 
# 
# High freq. dielectric constant tensor:
#      x y z
#    x 1.548960 0.000000 0.000000 
#    y 0.000000 1.548960 0.000000 
#    z 0.000000 0.000000 1.609520 
# 
# From -- ./inp_files/7643.got.cif
#   From: 2010.03.12/outbox.cif.g09.slc.cpg/sg131_4_cif.got.tgz:7643.got - 2010.04.06 17:36:35.
