data_PCOD8316283
_publ_section_title
;
Structure prediction by ZEFSAII (Michael W. Deem and Ramdas Pophale) SiO2 
 PCOD8316283
Probable space group: P 42/M M C
;
_chemical_formula_sum "Si O2"
_cell_formula_units_Z 96
_cell_length_a 15.804905
_cell_length_b 15.804905
_cell_length_c 18.510370
_cell_angle_alpha 90.000000
_cell_angle_beta 90.000000
_cell_angle_gamma 90.000000
_cell_volume 4623.798282
_symmetry_space_group_name_H-M "P 42/M M C"
_symmetry_group_IT_number 131
_symmetry_cell_setting 'tetragonal'
loop_
_space_group_symop_operation_xyz
x,y,z
-x,-y,z
-y,x,1/2+z
y,-x,1/2+z
-x,y,-z
x,-y,-z
y,x,1/2-z
-y,-x,1/2-z
-x,-y,-z
x,y,-z
y,-x,1/2-z
-y,x,1/2-z
x,-y,z
-x,y,z
-y,-x,1/2+z
y,x,1/2+z
loop_
_atom_site_type_symbol
_atom_site_label
_atom_site_fract_x
_atom_site_fract_y
_atom_site_fract_z
Si Si1 0.593579 0.857286 0.152400
Si Si2 0.593787 0.320415 0.083417
Si Si3 0.092381 0.159540 0.180893
Si Si4 0.904262 0.350138 0.805808
Si Si5 0.401889 0.767452 0.581667
Si Si6 0.095172 0.236242 0.581106
O O1 0.500000 0.888055 0.125611
O O2 0.604487 0.758863 0.135825
O O3 0.596230 0.871319 0.238211
O O4 0.669350 0.906952 0.113955
O O5 0.500000 0.362086 0.095490
O O6 0.670294 0.382734 0.105132
O O7 0.601946 0.291408 0.000000
O O8 0.098620 0.098620 0.250000
O O9 0.095857 0.252282 0.216001
O O10 0.168246 0.150830 0.123928
O O11 0.000000 0.143828 0.143912
O O12 0.839469 0.357606 0.871750
O O13 0.000000 0.379242 0.827362
O O14 0.370803 0.781584 0.500000
O O15 0.500000 0.781771 0.590267
O O16 0.131816 0.241497 0.500000
O O17 0.000000 0.201636 0.581343
#
# Coordination Sequence:
#
# PCOD8316283 Si02
#       6
#    16  16  16  16  16  16
#     4  11  22  38  61  87 119 160 205 252 306 368
#     4   9  19  36  59  88 119 153 196 246 303 368
#     4  11  23  41  65  90 119 160 210 259 311 372
#     4  11  24  40  60  87 118 157 208 259 307 366
#     4  10  22  39  60  88 121 159 202 251 312 374
#     4  11  24  40  59  89 126 160 200 252 310 372
#
# _framework density 20.762152
#
# number of rings (size 3 to 8) (size 9 to 14) (size 15 to 20)
#    0.000    1.500    1.667    3.000    0.000    7.500 
#    0.000    5.833    0.000    0.000    0.000    2.333 
#    0.000    0.000    0.000    0.000    0.000    0.000 
#
# Total GULP energy -1190020.944184 kJ/mol
# GULP energy per Si atom -12396.051502 kJ/mol
# Density = 2.071490 g / cm^3
# Si number density = 20.762152 Si / 1000 Ang^3
#
#
#
# Elastic Constant Matrix: (Units=GPa)
#
#
# Indices 1 2 3 4 5 6 
#
# 1 103.3285 31.1948 41.5691 0.0000 0.0000 0.0000
# 2 31.1948 103.3285 41.5691 0.0000 0.0000 0.0000
# 3 41.5691 41.5691 92.9857 0.0000 0.0000 0.0000
# 4 0.0000 0.0000 0.0000 27.2752 0.0000 0.0000
# 5 0.0000 0.0000 0.0000 0.0000 27.2752 0.0000
# 6 0.0000 0.0000 0.0000 0.0000 0.0000 18.3675
#
#
#
# Elastic Compliance Matrix: (Units=1/GPa)
#
#
# Indices 1 2 3 4 5 6 
#
# 1 0.012067 -0.001796 -0.004592 0.000000 0.000000 0.000000
# 2 -0.001796 0.012067 -0.004592 0.000000 0.000000 0.000000
# 3 -0.004592 -0.004592 0.014860 0.000000 0.000000 0.000000
# 4 0.000000 0.000000 0.000000 0.036663 0.000000 0.000000
# 5 0.000000 0.000000 0.000000 0.000000 0.036663 0.000000
# 6 0.000000 0.000000 0.000000 0.000000 0.000000 0.054444
#
#
# Mechanical properties :
#
#
# Convention : Reuss Voigt Hill
#
# Bulk Modulus (GPa) = 58.70099 58.70099 58.70099
# Shear Modulus (GPa) = 25.71976 26.93754 26.32865
#
# Velocity S-wave (km/s) = 3.52345 3.60590 3.56491
# Velocity P-wave (km/s) = 6.69981 6.75804 6.72899
#
# Compressibility (1/GPa) = 0.01703549
#
# Stress axis : x y z
#
# Youngs Moduli (GPa) = 82.86828 82.86828 67.29506
#
# Poissons Ratio (x) = 0.14882 0.30901
# Poissons Ratio (y) = 0.14882 0.30901
# Poissons Ratio (z) = 0.38052 0.38052
#
# Static dielectric constant tensor:
#      x y z
#    x 3.838060 0.000000 0.000000 
#    y 0.000000 3.838060 0.000000 
#    z 0.000000 0.000000 3.653400 
# 
# 
# High freq. dielectric constant tensor:
#      x y z
#    x 1.818360 0.000000 0.000000 
#    y 0.000000 1.818360 0.000000 
#    z 0.000000 0.000000 1.798910 
# 
# From -- ./inp_files/9752.got.cif
#   From: 2010.03.12/outbox.cif.g09.slc.cpg/sg131_5_cif.got.tgz:9752.got - 2010.04.06 17:36:35.
