data_PCOD8316209
_publ_section_title
;
Structure prediction by ZEFSAII (Michael W. Deem and Ramdas Pophale) SiO2 
 PCOD8316209
Probable space group: P 42/M M C
;
_chemical_formula_sum "Si O2"
_cell_formula_units_Z 72
_cell_length_a 20.393243
_cell_length_b 20.393243
_cell_length_c 9.328996
_cell_angle_alpha 90.000000
_cell_angle_beta 90.000000
_cell_angle_gamma 90.000000
_cell_volume 3879.783531
_symmetry_space_group_name_H-M "P 42/M M C"
_symmetry_group_IT_number 131
_symmetry_cell_setting 'tetragonal'
loop_
_space_group_symop_operation_xyz
x,y,z
-x,-y,z
-y,x,1/2+z
y,-x,1/2+z
-x,y,-z
x,-y,-z
y,x,1/2-z
-y,-x,1/2-z
-x,-y,-z
x,y,-z
y,-x,1/2-z
-y,x,1/2-z
x,-y,z
-x,y,z
-y,-x,1/2+z
y,x,1/2+z
loop_
_atom_site_type_symbol
_atom_site_label
_atom_site_fract_x
_atom_site_fract_y
_atom_site_fract_z
Si Si1 0.841513 0.072733 0.332870
Si Si2 0.574880 0.326392 0.332031
Si Si3 0.740331 0.821485 0.660590
Si Si4 0.500000 0.078273 0.828683
Si Si5 0.591261 0.824940 0.336401
O O1 0.907575 0.092426 0.250000
O O2 0.855209 0.079960 0.500000
O O3 0.782001 0.117899 0.278601
O O4 0.821169 0.000000 0.289982
O O5 0.626252 0.373749 0.250000
O O6 0.592434 0.330658 0.500000
O O7 0.500000 0.350264 0.302796
O O8 0.579636 0.249966 0.281942
O O9 0.755754 0.755754 0.750000
O O10 0.760698 0.804494 0.500000
O O11 0.666423 0.842672 0.672963
O O12 0.560899 0.118633 0.763410
O O13 0.500000 0.000000 0.785448
O O14 0.500000 0.084375 0.000000
O O15 0.564897 0.830950 0.500000
#
# Coordination Sequence:
#
# PCOD8316209 Si02
#       5
#    16  16  16   8  16
#     4   9  18  32  48  70 101 133 171 218 265 319
#     4  10  21  37  57  84 118 152 194 241 284 338
#     4   9  18  32  54  81 107 138 177 222 272 324
#     4  11  25  41  57  83 116 147 184 231 281 336
#     4  10  20  38  61  83 111 147 188 231 276 336
#
# _framework density 18.557735999999998
#
# number of rings (size 3 to 8) (size 9 to 14) (size 15 to 20)
#    0.000    2.333    1.111    1.000    0.000    4.889 
#    0.000    4.444    0.000    0.000    0.000    0.000 
#    0.000    0.000    0.000    0.000    0.000    0.000 
#
# Total GULP energy -892163.547434 kJ/mol
# GULP energy per Si atom -12391.160381 kJ/mol
# Density = 1.851550 g / cm^3
# Si number density = 18.557736 Si / 1000 Ang^3
#
#
#
# Elastic Constant Matrix: (Units=GPa)
#
#
# Indices 1 2 3 4 5 6 
#
# 1 107.3370 66.7401 51.9408 0.0000 0.0000 0.0000
# 2 66.7401 107.3450 51.9331 0.0000 0.0000 0.0000
# 3 51.9408 51.9331 64.6141 0.0000 0.0000 0.0000
# 4 0.0000 0.0000 0.0000 31.1352 0.0000 0.0000
# 5 0.0000 0.0000 0.0000 0.0000 31.1349 0.0000
# 6 0.0000 0.0000 0.0000 0.0000 0.0000 22.3206
#
#
#
# Elastic Compliance Matrix: (Units=1/GPa)
#
#
# Indices 1 2 3 4 5 6 
#
# 1 0.017837 -0.006795 -0.008877 0.000000 0.000000 0.000000
# 2 -0.006795 0.017832 -0.008870 0.000000 0.000000 0.000000
# 3 -0.008877 -0.008870 0.029741 0.000000 0.000000 0.000000
# 4 0.000000 0.000000 0.000000 0.032118 0.000000 0.000000
# 5 0.000000 0.000000 0.000000 0.000000 0.032118 0.000000
# 6 0.000000 0.000000 0.000000 0.000000 0.000000 0.044802
#
#
# Mechanical properties :
#
#
# Convention : Reuss Voigt Hill
#
# Bulk Modulus (GPa) = 61.25060 68.94711 65.09886
# Shear Modulus (GPa) = 21.83652 24.16362 23.00007
#
# Velocity S-wave (km/s) = 3.43400 3.61235 3.52430
# Velocity P-wave (km/s) = 6.98571 7.39136 7.19140
#
# Compressibility (1/GPa) = 0.01632637
#
# Stress axis : x y z
#
# Youngs Moduli (GPa) = 56.06227 56.07966 33.62341
#
# Poissons Ratio (x) = 0.38109 0.29847
# Poissons Ratio (y) = 0.38097 0.29823
# Poissons Ratio (z) = 0.49766 0.49740
#
# Static dielectric constant tensor:
#      x y z
#    x 3.565100 0.000000 0.000000 
#    y 0.000000 3.565100 0.000000 
#    z 0.000000 0.000000 3.405470 
# 
# 
# High freq. dielectric constant tensor:
#      x y z
#    x 1.724950 0.000000 0.000000 
#    y 0.000000 1.724950 0.000000 
#    z 0.000000 0.000000 1.710280 
# 
# From -- ./inp_files/1787.got.cif
#   From: 2010.03.12/outbox.cif.g09.slc.cpg/sg131_1_cif.got.tgz:1787.got - 2010.04.06 17:36:35.
