data_PCOD8316905
_publ_section_title
;
Structure prediction by ZEFSAII (Michael W. Deem and Ramdas Pophale) SiO2 
 PCOD8316905
Probable space group: P 42/N B C
;
_chemical_formula_sum "Si O2"
_cell_formula_units_Z 96
_cell_length_a 17.211231
_cell_length_b 17.211231
_cell_length_c 17.629758
_cell_angle_alpha 90.000000
_cell_angle_beta 90.000000
_cell_angle_gamma 90.000000
_cell_volume 5222.401024
_symmetry_space_group_name_H-M "P 42/N B C"
_symmetry_group_IT_number 133
_space_group.IT_coordinate_system_code '2'
_symmetry_cell_setting 'tetragonal'
loop_
_space_group_symop_operation_xyz
x,y,z
1/2-y,x,1/2+z
1/2-x,1/2-y,z
y,1/2-x,1/2+z
x,1/2-y,-z
1/2-x,y,-z
y,x,1/2-z
1/2-y,1/2-x,1/2-z
-x,-y,-z
1/2+y,-x,1/2-z
1/2+x,1/2+y,-z
-y,1/2+x,1/2-z
-x,1/2+y,z
1/2+x,-y,z
-y,-x,1/2+z
1/2+y,1/2+x,1/2+z
loop_
_atom_site_type_symbol
_atom_site_label
_atom_site_fract_x
_atom_site_fract_y
_atom_site_fract_z
Si Si1 0.839126 0.169580 0.227868
Si Si2 0.339676 0.332251 0.483506
Si Si3 0.146931 0.492741 0.443959
Si Si4 0.611619 0.896147 0.330817
Si Si5 0.451576 0.551119 0.194313
Si Si6 0.684211 0.458213 0.603317
O O1 0.747501 0.150005 0.221103
O O2 0.879893 0.096657 0.267225
O O3 0.873698 0.185723 0.143154
O O4 0.381905 0.250000 0.500000
O O5 0.250000 0.324902 0.500000
O O6 0.372141 0.403897 0.532195
O O7 0.351639 0.343498 0.394556
O O8 0.080939 0.512997 0.384507
O O9 0.231270 0.502753 0.406202
O O10 0.143431 0.546161 0.520286
O O11 0.639005 0.860996 0.250000
O O12 0.518080 0.893962 0.329523
O O13 0.636278 0.986354 0.339991
O O14 0.520139 0.520139 0.250000
#
# Coordination Sequence:
#
# PCOD8316905 Si02
#       6
#    16  16  16  16  16  16
#     4  11  22  39  63  88 125 162 201 257 309 361
#     4  10  20  38  57  83 119 155 196 239 298 359
#     4  10  20  38  63  85 117 165 199 247 302 376
#     4  10  19  36  60  84 112 160 191 249 299 360
#     4  11  22  38  60  91 117 153 206 250 301 368
#     4  10  18  38  62  83 117 162 202 240 308 358
#
# _framework density 18.382349999999999
#
# number of rings (size 3 to 8) (size 9 to 14) (size 15 to 20)
#    0.000    1.667    8.333    0.000    0.000    2.667 
#    6.000    2.500    0.000    0.000    0.000    0.000 
#    0.000    0.000    0.000    0.000    0.000    0.000 
#
# Total GULP energy -1189795.073653 kJ/mol
# GULP energy per Si atom -12393.698684 kJ/mol
# Density = 1.834051 g / cm^3
# Si number density = 18.382350 Si / 1000 Ang^3
#
#
#
# Elastic Constant Matrix: (Units=GPa)
#
#
# Indices 1 2 3 4 5 6 
#
# 1 81.4205 25.3491 55.4701 0.0000 0.0000 0.0000
# 2 25.3491 81.4208 55.4703 0.0000 0.0000 0.0000
# 3 55.4701 55.4703 151.9910 0.0000 0.0000 0.0000
# 4 0.0000 0.0000 0.0000 -49.4330 0.0000 0.0000
# 5 0.0000 0.0000 0.0000 0.0000 -49.4205 0.0000
# 6 0.0000 0.0000 0.0000 0.0000 0.0000 17.6170
#
#
#
# Elastic Compliance Matrix: (Units=1/GPa)
#
#
# Indices 1 2 3 4 5 6 
#
# 1 0.016461 -0.001374 -0.005506 0.000000 0.000000 0.000000
# 2 -0.001374 0.016461 -0.005506 0.000000 0.000000 0.000000
# 3 -0.005506 -0.005506 0.010598 0.000000 0.000000 0.000000
# 4 0.000000 0.000000 0.000000 -0.020229 0.000000 0.000000
# 5 0.000000 0.000000 0.000000 0.000000 -0.020235 0.000000
# 6 0.000000 0.000000 0.000000 0.000000 0.000000 0.056763
#
#
# Mechanical properties :
#
#
# Convention : Reuss Voigt Hill
#
# Bulk Modulus (GPa) = 53.33879 65.26791 59.30335
# Shear Modulus (GPa) = 55.04147 -4.34444 25.34851
#
# Velocity S-wave (km/s) = 5.47792 -1.53900 3.71746
# Velocity P-wave (km/s) = 8.31200 5.69428 7.12440
#
# Compressibility (1/GPa) = 0.01874808
#
# Stress axis : x y z
#
# Youngs Moduli (GPa) = 60.75031 60.75048 94.35395
#
# Poissons Ratio (x) = 0.08344 0.51953
# Poissons Ratio (y) = 0.08344 0.51953
# Poissons Ratio (z) = 0.33450 0.33450
#
# Static dielectric constant tensor:
#      x y z
#    x 3.529840 0.000000 0.000000 
#    y 0.000000 3.529840 0.000000 
#    z 0.000000 0.000000 3.549860 
# 
# 
# High freq. dielectric constant tensor:
#      x y z
#    x 1.702260 0.000000 0.000000 
#    y 0.000000 1.702260 0.000000 
#    z 0.000000 0.000000 1.720670 
# 
# From -- ./inp_files/5507.got.cif
#   From: 2010.03.12/outbox.cif.g09.slc.cpg/sg133_3_cif.got.tgz:5507.got - 2010.04.06 18:08:06.
