data_PCOD8316340
_publ_section_title
;
Structure prediction by ZEFSAII (Michael W. Deem and Ramdas Pophale) SiO2 
 PCOD8316340
Probable space group: P 42/M M C
;
_chemical_formula_sum "Si O2"
_cell_formula_units_Z 40
_cell_length_a 11.586113
_cell_length_b 11.586113
_cell_length_c 15.182028
_cell_angle_alpha 90.000000
_cell_angle_beta 90.000000
_cell_angle_gamma 90.000000
_cell_volume 2038.005294
_symmetry_space_group_name_H-M "P 42/M M C"
_symmetry_group_IT_number 131
_symmetry_cell_setting 'tetragonal'
loop_
_space_group_symop_operation_xyz
x,y,z
-x,-y,z
-y,x,1/2+z
y,-x,1/2+z
-x,y,-z
x,-y,-z
y,x,1/2-z
-y,-x,1/2-z
-x,-y,-z
x,y,-z
y,-x,1/2-z
-y,x,1/2-z
x,-y,z
-x,y,z
-y,-x,1/2+z
y,x,1/2+z
loop_
_atom_site_type_symbol
_atom_site_label
_atom_site_fract_x
_atom_site_fract_y
_atom_site_fract_z
Si Si1 0.774493 0.259508 0.650953
Si Si2 0.864058 0.000000 0.898795
Si Si3 0.500000 0.126883 0.898903
Si Si4 0.636782 0.865835 0.500000
O O1 0.729735 0.270266 0.750000
O O2 0.889939 0.184749 0.650557
O O3 0.796950 0.389466 0.622408
O O4 0.682162 0.197976 0.587350
O O5 0.000000 0.000000 0.892104
O O6 0.821307 0.000000 0.000000
O O7 0.500000 0.000000 0.850402
O O8 0.500000 0.098416 0.000000
O O9 0.500000 0.858455 0.500000
O O10 0.678421 0.000000 0.500000
#
# Coordination Sequence:
#
# PCOD8316340 Si02
#       4
#    16   8   8   8
#     4  12  26  42  67 101 133 173 225 274 331 400
#     4  11  22  39  63  96 137 169 211 276 342 397
#     4  11  22  44  70  97 134 177 219 276 334 395
#     4  11  26  48  69  94 136 182 222 273 336 399
#
# _framework density 19.627033999999998
#
# number of rings (size 3 to 8) (size 9 to 14) (size 15 to 20)
#    0.000    0.600    6.000    1.200    8.400    0.000 
#    0.000    2.000    0.000    0.000    0.000    0.000 
#    0.000    0.000    0.000    0.000    0.000    0.000 
#
# Total GULP energy -496067.174552 kJ/mol
# GULP energy per Si atom -12401.679364 kJ/mol
# Density = 1.958236 g / cm^3
# Si number density = 19.627034 Si / 1000 Ang^3
#
#
#
# Elastic Constant Matrix: (Units=GPa)
#
#
# Indices 1 2 3 4 5 6 
#
# 1 134.9075 57.4280 48.7841 0.0000 0.0000 0.0000
# 2 57.4280 134.9071 48.7837 0.0000 0.0000 0.0000
# 3 48.7841 48.7837 135.3908 0.0000 0.0000 0.0000
# 4 0.0000 0.0000 0.0000 25.1434 0.0000 0.0000
# 5 0.0000 0.0000 0.0000 0.0000 25.1431 0.0000
# 6 0.0000 0.0000 0.0000 0.0000 0.0000 -24.0820
#
#
#
# Elastic Compliance Matrix: (Units=1/GPa)
#
#
# Indices 1 2 3 4 5 6 
#
# 1 0.009634 -0.003272 -0.002292 0.000000 0.000000 0.000000
# 2 -0.003272 0.009634 -0.002292 0.000000 0.000000 0.000000
# 3 -0.002292 -0.002292 0.009038 0.000000 0.000000 0.000000
# 4 0.000000 0.000000 0.000000 0.039772 0.000000 0.000000
# 5 0.000000 0.000000 0.000000 0.000000 0.039772 0.000000
# 6 0.000000 0.000000 0.000000 0.000000 0.000000 -0.041525
#
#
# Mechanical properties :
#
#
# Convention : Reuss Voigt Hill
#
# Bulk Modulus (GPa) = 79.41114 79.46636 79.43875
# Shear Modulus (GPa) = 57.97915 21.92155 39.95035
#
# Velocity S-wave (km/s) = 5.44101 3.34564 4.51652
# Velocity P-wave (km/s) = 8.94543 7.44987 8.23168
#
# Compressibility (1/GPa) = 0.01259269
#
# Stress axis : x y z
#
# Youngs Moduli (GPa) = 103.79468 103.79463 110.64375
#
# Poissons Ratio (x) = 0.33964 0.25364
# Poissons Ratio (y) = 0.33964 0.25364
# Poissons Ratio (z) = 0.23794 0.23794
#
# Static dielectric constant tensor:
#      x y z
#    x 3.647300 0.000000 0.000000 
#    y 0.000000 3.647300 0.000000 
#    z 0.000000 0.000000 3.843800 
# 
# 
# High freq. dielectric constant tensor:
#      x y z
#    x 1.771580 0.000000 0.000000 
#    y 0.000000 1.771580 0.000000 
#    z 0.000000 0.000000 1.767190 
# 
# From -- ./inp_files/5051.got.cif
#   From: 2010.03.12/outbox.cif.g09.slc.cpg/sg131_3_cif.got.tgz:5051.got - 2010.04.06 17:36:35.
