data_PCOD8316002
_publ_section_title
;
Structure prediction by ZEFSAII (Michael W. Deem and Ramdas Pophale) SiO2 
 PCOD8316002
Probable space group: P 42/M M C
;
_chemical_formula_sum "Si O2"
_cell_formula_units_Z 72
_cell_length_a 20.671128
_cell_length_b 20.671128
_cell_length_c 9.028436
_cell_angle_alpha 90.000000
_cell_angle_beta 90.000000
_cell_angle_gamma 90.000000
_cell_volume 3857.810371
_symmetry_space_group_name_H-M "P 42/M M C"
_symmetry_group_IT_number 131
_symmetry_cell_setting 'tetragonal'
loop_
_space_group_symop_operation_xyz
x,y,z
-x,-y,z
-y,x,1/2+z
y,-x,1/2+z
-x,y,-z
x,-y,-z
y,x,1/2-z
-y,-x,1/2-z
-x,-y,-z
x,y,-z
y,-x,1/2-z
-y,x,1/2-z
x,-y,z
-x,y,z
-y,-x,1/2+z
y,x,1/2+z
loop_
_atom_site_type_symbol
_atom_site_label
_atom_site_fract_x
_atom_site_fract_y
_atom_site_fract_z
Si Si1 0.000000 0.425458 0.824959
Si Si2 0.686089 0.093819 0.671366
Si Si3 0.824640 0.074310 0.825518
Si Si4 0.675464 0.760388 0.331453
Si Si5 0.661101 0.428432 0.174787
O O1 0.058938 0.379431 0.772528
O O2 0.000000 0.500000 0.757263
O O3 0.000000 0.434238 0.000000
O O4 0.701392 0.076675 0.500000
O O5 0.751486 0.079519 0.762383
O O6 0.662363 0.165690 0.694544
O O7 0.875094 0.124907 0.750000
O O8 0.848284 0.000000 0.799002
O O9 0.822568 0.090373 0.000000
O O10 0.741676 0.741676 0.250000
O O11 0.686076 0.741982 0.500000
O O12 0.615093 0.720456 0.266485
O O13 0.594907 0.405094 0.250000
O O14 0.676571 0.500000 0.229955
O O15 0.652749 0.425205 0.000000
#
# Coordination Sequence:
#
# PCOD8316002 Si02
#       5
#     8  16  16  16  16
#     4   9  18  32  53  83 114 145 184 229 275 324
#     4  10  19  34  57  82 112 148 187 232 278 328
#     4  11  24  40  60  86 116 152 192 236 287 344
#     4   9  18  31  49  74 100 131 170 214 263 312
#     4   9  18  32  48  68  97 131 168 213 264 318
#
# _framework density 18.663436000000001
#
# number of rings (size 3 to 8) (size 9 to 14) (size 15 to 20)
#    0.000    2.333    1.111    1.333    0.000    5.778 
#    0.000    6.667    0.000    1.333    0.000    3.111 
#    0.000    0.000    0.000    0.000    0.000    0.000 
#
# Total GULP energy -891945.814597 kJ/mol
# GULP energy per Si atom -12388.136314 kJ/mol
# Density = 1.862096 g / cm^3
# Si number density = 18.663436 Si / 1000 Ang^3
#
#
#
# Elastic Constant Matrix: (Units=GPa)
#
#
# Indices 1 2 3 4 5 6 
#
# 1 87.9797 113.4351 50.4989 0.0000 0.0000 0.0000
# 2 113.4351 87.9637 50.5096 0.0000 0.0000 0.0000
# 3 50.4989 50.5096 52.8532 0.0000 0.0000 0.0000
# 4 0.0000 0.0000 0.0000 22.5110 0.0000 0.0000
# 5 0.0000 0.0000 0.0000 0.0000 22.5113 0.0000
# 6 0.0000 0.0000 0.0000 0.0000 0.0000 18.6165
#
#
#
# Elastic Compliance Matrix: (Units=1/GPa)
#
#
# Indices 1 2 3 4 5 6 
#
# 1 -0.014862 0.024403 -0.009121 0.000000 0.000000 0.000000
# 2 0.024403 -0.014876 -0.009100 0.000000 0.000000 0.000000
# 3 -0.009121 -0.009100 0.036331 0.000000 0.000000 0.000000
# 4 0.000000 0.000000 0.000000 0.044423 0.000000 0.000000
# 5 0.000000 0.000000 0.000000 0.000000 0.044422 0.000000
# 6 0.000000 0.000000 0.000000 0.000000 0.000000 0.053716
#
#
# Mechanical properties :
#
#
# Convention : Reuss Voigt Hill
#
# Bulk Modulus (GPa) = 52.74818 73.07598 62.91208
# Shear Modulus (GPa) = 34.93849 13.68462 24.31155
#
# Velocity S-wave (km/s) = 4.33139 2.71076 3.61311
# Velocity P-wave (km/s) = 7.30334 7.00266 7.15458
#
# Compressibility (1/GPa) = 0.01895800
#
# Stress axis : x y z
#
# Youngs Moduli (GPa) = -67.28527 -67.22325 27.52455
#
# Poissons Ratio (x) = 1.64045 0.25105
# Poissons Ratio (y) = 1.64196 0.25047
# Poissons Ratio (z) = -0.61370 -0.61172
#
# Static dielectric constant tensor:
#      x y z
#    x 3.745490 0.000000 0.000000 
#    y 0.000000 3.745470 0.000000 
#    z 0.000000 0.000000 3.369800 
# 
# 
# High freq. dielectric constant tensor:
#      x y z
#    x 1.733060 0.000000 0.000000 
#    y 0.000000 1.733060 0.000000 
#    z 0.000000 0.000000 1.704460 
# 
# From -- ./inp_files/1758.got.cif
#   From: 2010.03.12/outbox.cif.g09.slc.cpg/sg131_1_cif.got.tgz:1758.got - 2010.04.06 17:36:35.
