data_PCOD8316413
_publ_section_title
;
Structure prediction by ZEFSAII (Michael W. Deem and Ramdas Pophale) SiO2 
 PCOD8316413
Probable space group: P 42/M C M
;
_chemical_formula_sum "Si O2"
_cell_formula_units_Z 56
_cell_length_a 12.738933
_cell_length_b 12.738933
_cell_length_c 18.384379
_cell_angle_alpha 90.000000
_cell_angle_beta 90.000000
_cell_angle_gamma 90.000000
_cell_volume 2983.424635
_symmetry_space_group_name_H-M "P 42/M C M"
_symmetry_group_IT_number 132
_symmetry_cell_setting 'tetragonal'
loop_
_space_group_symop_operation_xyz
x,y,z
-y,x,1/2+z
-x,-y,z
y,-x,1/2+z
x,-y,1/2-z
-x,y,1/2-z
y,x,-z
-y,-x,-z
-x,-y,-z
y,-x,1/2-z
x,y,-z
-y,x,1/2-z
-x,y,1/2+z
x,-y,1/2+z
-y,-x,z
y,x,z
loop_
_atom_site_type_symbol
_atom_site_label
_atom_site_fract_x
_atom_site_fract_y
_atom_site_fract_z
Si Si1 0.227379 0.050822 0.825686
Si Si2 0.808930 0.367821 0.581451
Si Si3 0.912095 0.912095 0.580713
Si Si4 0.506118 0.669858 0.668690
O O1 0.136220 0.136220 0.811295
O O2 0.328786 0.099685 0.865010
O O3 0.263658 0.000000 0.750000
O O4 0.187598 0.957661 0.877223
O O5 0.852738 0.387010 0.500000
O O6 0.719745 0.280256 0.579201
O O7 0.761599 0.477293 0.611854
O O8 0.877080 0.877080 0.500000
O O9 0.000000 0.000000 0.574824
O O10 0.500000 0.717216 0.750000
O O11 0.423394 0.576607 0.662674
O O12 0.622042 0.622042 0.651674
#
# Coordination Sequence:
#
# PCOD8316413 Si02
#       4
#    16  16   8  16
#     4  10  17  26  40  60  91 130 172 211 247 288
#     4   9  17  27  41  67 101 127 156 202 250 295
#     4   9  16  24  38  58  84 122 167 214 255 287
#     4   8  14  26  45  69  96 123 152 191 240 299
#
# _framework density 18.770375000000001
#
# number of rings (size 3 to 8) (size 9 to 14) (size 15 to 20)
#    0.000    3.000    1.429    1.714    0.000    4.000 
#    0.000    2.857    0.000    0.857    0.000    6.000 
#    0.000    0.000    0.000    0.000    0.000    0.000 
#
# Total GULP energy -694102.611457 kJ/mol
# GULP energy per Si atom -12394.689490 kJ/mol
# Density = 1.872765 g / cm^3
# Si number density = 18.770375 Si / 1000 Ang^3
#
#
#
# Elastic Constant Matrix: (Units=GPa)
#
#
# Indices 1 2 3 4 5 6 
#
# 1 56.0140 43.5855 60.5258 0.0000 0.0000 0.0000
# 2 43.5855 56.0140 60.5258 0.0000 0.0000 0.0000
# 3 60.5258 60.5258 188.8624 0.0000 0.0000 0.0000
# 4 0.0000 0.0000 0.0000 22.9743 0.0000 0.0000
# 5 0.0000 0.0000 0.0000 0.0000 22.9743 0.0000
# 6 0.0000 0.0000 0.0000 0.0000 0.0000 29.6218
#
#
#
# Elastic Compliance Matrix: (Units=1/GPa)
#
#
# Indices 1 2 3 4 5 6 
#
# 1 0.048453 -0.032007 -0.005271 0.000000 0.000000 0.000000
# 2 -0.032007 0.048453 -0.005271 0.000000 0.000000 0.000000
# 3 -0.005271 -0.005271 0.008673 0.000000 0.000000 0.000000
# 4 0.000000 0.000000 0.000000 0.043527 0.000000 0.000000
# 5 0.000000 0.000000 0.000000 0.000000 0.043527 0.000000
# 6 0.000000 0.000000 0.000000 0.000000 0.000000 0.033759
#
#
# Mechanical properties :
#
#
# Convention : Reuss Voigt Hill
#
# Bulk Modulus (GPa) = 48.82155 70.01828 59.41991
# Shear Modulus (GPa) = 15.70770 24.19764 19.95267
#
# Velocity S-wave (km/s) = 2.89595 3.59435 3.26389
# Velocity P-wave (km/s) = 6.10314 7.38982 6.77708
#
# Compressibility (1/GPa) = 0.02048276
#
# Stress axis : x y z
#
# Youngs Moduli (GPa) = 20.63858 20.63858 115.30043
#
# Poissons Ratio (x) = 0.66058 0.60769
# Poissons Ratio (y) = 0.66058 0.60769
# Poissons Ratio (z) = 0.10878 0.10878
#
# Static dielectric constant tensor:
#      x y z
#    x 3.221690 0.000000 0.000000 
#    y 0.000000 3.221690 0.000000 
#    z 0.000000 0.000000 3.700140 
# 
# 
# High freq. dielectric constant tensor:
#      x y z
#    x 1.686590 0.000000 0.000000 
#    y 0.000000 1.686590 0.000000 
#    z 0.000000 0.000000 1.741740 
# 
# From -- ./inp_files/7290.got.cif
#   From: 2010.03.12/outbox.cif.g09.slc.cpg/sg132_4_cif.got.tgz:7290.got - 2010.04.06 17:53:44.
