data_PCOD8316152
_publ_section_title
;
Structure prediction by ZEFSAII (Michael W. Deem and Ramdas Pophale) SiO2 
 PCOD8316152
Probable space group: P 42/M M C
;
_chemical_formula_sum "Si O2"
_cell_formula_units_Z 96
_cell_length_a 14.399763
_cell_length_b 14.399763
_cell_length_c 25.011155
_cell_angle_alpha 90.000000
_cell_angle_beta 90.000000
_cell_angle_gamma 90.000000
_cell_volume 5186.142386
_symmetry_space_group_name_H-M "P 42/M M C"
_symmetry_group_IT_number 131
_symmetry_cell_setting 'tetragonal'
loop_
_space_group_symop_operation_xyz
x,y,z
-x,-y,z
-y,x,1/2+z
y,-x,1/2+z
-x,y,-z
x,-y,-z
y,x,1/2-z
-y,-x,1/2-z
-x,-y,-z
x,y,-z
y,-x,1/2-z
-y,x,1/2-z
x,-y,z
-x,y,z
-y,-x,1/2+z
y,x,1/2+z
loop_
_atom_site_type_symbol
_atom_site_label
_atom_site_fract_x
_atom_site_fract_y
_atom_site_fract_z
Si Si1 0.737116 0.896329 0.691587
Si Si2 0.601672 0.500000 0.436980
Si Si3 0.607272 0.607272 0.750000
Si Si4 0.234273 0.101287 0.183358
Si Si5 0.249558 0.391452 0.843586
Si Si6 0.607864 0.105259 0.895883
Si Si7 0.712543 0.321932 0.439156
O O1 0.756097 0.898443 0.753827
O O2 0.820017 0.837399 0.663485
O O3 0.637000 0.848379 0.682855
O O4 0.736045 0.000000 0.667326
O O5 0.500000 0.500000 0.409437
O O6 0.591609 0.500000 0.500000
O O7 0.656576 0.410867 0.418129
O O8 0.624994 0.500000 0.734440
O O9 0.668836 0.635074 0.801608
O O10 0.337117 0.118319 0.159577
O O11 0.196765 0.000000 0.164416
O O12 0.250983 0.500000 0.858473
O O13 0.247936 0.326967 0.897059
O O14 0.500000 0.128892 0.886092
O O15 0.654699 0.177615 0.937263
O O16 0.618530 0.000000 0.918473
O O17 0.688387 0.292439 0.500000
#
# Coordination Sequence:
#
# PCOD8316152 Si02
#       7
#    16   8   8  16  16  16  16
#     4  10  20  35  55  81 112 142 180 227 275 328
#     4   9  18  32  49  73 103 139 184 224 260 306
#     4   9  20  36  54  80 112 147 184 224 272 325
#     4   9  18  34  56  84 115 145 177 215 269 332
#     4  11  23  37  55  79 109 147 189 232 275 322
#     4  10  20  34  55  83 115 148 179 215 267 333
#     4  11  22  36  54  77 107 146 186 229 275 321
#
# _framework density 18.510869
#
# number of rings (size 3 to 8) (size 9 to 14) (size 15 to 20)
#    0.000    2.000    2.500    1.500    1.167    2.667 
#    0.000    4.167    0.000    0.500    0.000    1.167 
#    0.000    2.667    0.000    0.000    0.000    0.000 
#
# Total GULP energy -1189719.761358 kJ/mol
# GULP energy per Si atom -12392.914181 kJ/mol
# Density = 1.846874 g / cm^3
# Si number density = 18.510869 Si / 1000 Ang^3
#
#
#
# Elastic Constant Matrix: (Units=GPa)
#
#
# Indices 1 2 3 4 5 6 
#
# 1 103.6392 42.6793 33.9931 0.0000 0.0000 0.0000
# 2 42.6793 103.6392 33.9931 0.0000 0.0000 0.0000
# 3 33.9931 33.9931 63.2599 0.0000 0.0000 0.0000
# 4 0.0000 0.0000 0.0000 16.9939 0.0000 0.0000
# 5 0.0000 0.0000 0.0000 0.0000 16.9939 0.0000
# 6 0.0000 0.0000 0.0000 0.0000 0.0000 27.4227
#
#
#
# Elastic Compliance Matrix: (Units=1/GPa)
#
#
# Indices 1 2 3 4 5 6 
#
# 1 0.012756 -0.003648 -0.004895 0.000000 0.000000 0.000000
# 2 -0.003648 0.012756 -0.004895 0.000000 0.000000 0.000000
# 3 -0.004895 -0.004895 0.021068 0.000000 0.000000 0.000000
# 4 0.000000 0.000000 0.000000 0.058845 0.000000 0.000000
# 5 0.000000 0.000000 0.000000 0.000000 0.058845 0.000000
# 6 0.000000 0.000000 0.000000 0.000000 0.000000 0.036466
#
#
# Mechanical properties :
#
#
# Convention : Reuss Voigt Hill
#
# Bulk Modulus (GPa) = 50.74331 54.65213 52.69772
# Shear Modulus (GPa) = 21.35114 22.94027 22.14570
#
# Velocity S-wave (km/s) = 3.39991 3.52417 3.46260
# Velocity P-wave (km/s) = 6.54865 6.79324 6.67207
#
# Compressibility (1/GPa) = 0.01970703
#
# Stress axis : x y z
#
# Youngs Moduli (GPa) = 78.39181 78.39181 47.46518
#
# Poissons Ratio (x) = 0.28596 0.23232
# Poissons Ratio (y) = 0.28596 0.23232
# Poissons Ratio (z) = 0.38370 0.38370
#
# Static dielectric constant tensor:
#      x y z
#    x 3.626390 0.000000 0.000000 
#    y 0.000000 3.626390 0.000000 
#    z 0.000000 0.000000 3.115530 
# 
# 
# High freq. dielectric constant tensor:
#      x y z
#    x 1.715390 0.000000 0.000000 
#    y 0.000000 1.715390 0.000000 
#    z 0.000000 0.000000 1.691900 
# 
# From -- ./inp_files/11195.got.cif
#   From: 2010.03.12/outbox.cif.g09.slc.cpg/sg131_6_cif.got.tgz:11195.got - 2010.04.06 17:36:35.
