data_PCOD8316160
_publ_section_title
;
Structure prediction by ZEFSAII (Michael W. Deem and Ramdas Pophale) SiO2 
 PCOD8316160
Probable space group: P 42/M M C
;
_chemical_formula_sum "Si O2"
_cell_formula_units_Z 104
_cell_length_a 17.335875
_cell_length_b 17.335875
_cell_length_c 19.014120
_cell_angle_alpha 90.000000
_cell_angle_beta 90.000000
_cell_angle_gamma 90.000000
_cell_volume 5714.362198
_symmetry_space_group_name_H-M "P 42/M M C"
_symmetry_group_IT_number 131
_symmetry_cell_setting 'tetragonal'
loop_
_space_group_symop_operation_xyz
x,y,z
-x,-y,z
-y,x,1/2+z
y,-x,1/2+z
-x,y,-z
x,-y,-z
y,x,1/2-z
-y,-x,1/2-z
-x,-y,-z
x,y,-z
y,-x,1/2-z
-y,x,1/2-z
x,-y,z
-x,y,z
-y,-x,1/2+z
y,x,1/2+z
loop_
_atom_site_type_symbol
_atom_site_label
_atom_site_fract_x
_atom_site_fract_y
_atom_site_fract_z
Si Si1 0.911200 0.589422 0.920670
Si Si2 0.500000 0.415171 0.583669
Si Si3 0.210069 0.683522 0.658370
Si Si4 0.144884 0.913042 0.678461
Si Si5 0.222743 0.911020 0.918361
Si Si6 0.698025 0.164905 0.310717
Si Si7 0.666509 0.408366 0.420988
O O1 0.890718 0.500000 0.914707
O O2 0.858082 0.633716 0.866240
O O3 0.000000 0.604275 0.901575
O O4 0.894279 0.618595 0.000000
O O5 0.500000 0.500000 0.618020
O O6 0.500000 0.422163 0.500000
O O7 0.417952 0.374782 0.605600
O O8 0.137911 0.703849 0.608406
O O9 0.264960 0.756788 0.662638
O O10 0.176876 0.659153 0.734439
O O11 0.262313 0.615086 0.628145
O O12 0.097481 0.902520 0.750000
O O13 0.113527 0.856243 0.619080
O O14 0.235000 0.898938 0.695315
O O15 0.134099 0.000000 0.650888
O O16 0.241164 0.000000 0.902773
O O17 0.210285 0.894688 0.000000
O O18 0.682958 0.378070 0.500000
O O19 0.660708 0.500000 0.420601
#
# Coordination Sequence:
#
# PCOD8316160 Si02
#       7
#    16   8  16  16  16  16  16
#     4   9  19  36  57  82 111 141 176 223 277 329
#     4   7  12  26  48  76 106 132 166 214 264 317
#     4  10  20  35  53  75 107 143 182 225 264 318
#     4  11  21  35  55  78 103 137 180 227 276 329
#     4  10  21  36  53  76 108 145 180 220 272 325
#     4  10  20  36  53  76 106 140 182 218 265 321
#     4   9  17  31  54  81 107 138 177 220 268 320
#
# _framework density 18.199757000000002
#
# number of rings (size 3 to 8) (size 9 to 14) (size 15 to 20)
#    0.000    2.385    3.077    2.769    0.000    5.692 
#    1.385    0.769    1.692    0.462    0.000    2.154 
#    0.000    0.000    0.000    0.000    0.000    0.000 
#
# Total GULP energy -1289104.554950 kJ/mol
# GULP energy per Si atom -12395.236105 kJ/mol
# Density = 1.815833 g / cm^3
# Si number density = 18.199757 Si / 1000 Ang^3
#
#
#
# Elastic Constant Matrix: (Units=GPa)
#
#
# Indices 1 2 3 4 5 6 
#
# 1 66.9424 41.9614 48.3669 0.0000 0.0000 0.0000
# 2 41.9614 66.9418 48.3670 0.0000 0.0000 0.0000
# 3 48.3669 48.3670 115.6344 0.0000 0.0000 0.0000
# 4 0.0000 0.0000 0.0000 28.6267 0.0000 0.0000
# 5 0.0000 0.0000 0.0000 0.0000 28.6267 0.0000
# 6 0.0000 0.0000 0.0000 0.0000 0.0000 22.2523
#
#
#
# Elastic Compliance Matrix: (Units=1/GPa)
#
#
# Indices 1 2 3 4 5 6 
#
# 1 0.027321 -0.012710 -0.006111 0.000000 0.000000 0.000000
# 2 -0.012710 0.027321 -0.006111 0.000000 0.000000 0.000000
# 3 -0.006111 -0.006111 0.013760 0.000000 0.000000 0.000000
# 4 0.000000 0.000000 0.000000 0.034932 0.000000 0.000000
# 5 0.000000 0.000000 0.000000 0.000000 0.034932 0.000000
# 6 0.000000 0.000000 0.000000 0.000000 0.000000 0.044939
#
#
# Mechanical properties :
#
#
# Convention : Reuss Voigt Hill
#
# Bulk Modulus (GPa) = 53.94701 58.54546 56.24624
# Shear Modulus (GPa) = 20.89859 23.28935 22.09397
#
# Velocity S-wave (km/s) = 3.39232 3.58110 3.48799
# Velocity P-wave (km/s) = 6.71191 7.02404 6.86975
#
# Compressibility (1/GPa) = 0.01853671
#
# Stress axis : x y z
#
# Youngs Moduli (GPa) = 36.60231 36.60177 72.67233
#
# Poissons Ratio (x) = 0.46521 0.44412
# Poissons Ratio (y) = 0.46522 0.44413
# Poissons Ratio (z) = 0.22369 0.22369
#
# Static dielectric constant tensor:
#      x y z
#    x 3.347220 0.000000 0.000000 
#    y 0.000000 3.347220 0.000000 
#    z 0.000000 0.000000 3.348210 
# 
# 
# High freq. dielectric constant tensor:
#      x y z
#    x 1.696450 0.000000 0.000000 
#    y 0.000000 1.696450 0.000000 
#    z 0.000000 0.000000 1.700880 
# 
# From -- ./inp_files/8081.got.cif
#   From: 2010.03.12/outbox.cif.g09.slc.cpg/sg131_5_cif.got.tgz:8081.got - 2010.04.06 17:36:35.
