data_PCOD8316796
_publ_section_title
;
Structure prediction by ZEFSAII (Michael W. Deem and Ramdas Pophale) SiO2 
 PCOD8316796
Probable space group: P 42/M C M
;
_chemical_formula_sum "Si O2"
_cell_formula_units_Z 88
_cell_length_a 12.184124
_cell_length_b 12.184124
_cell_length_c 29.450744
_cell_angle_alpha 90.000000
_cell_angle_beta 90.000000
_cell_angle_gamma 90.000000
_cell_volume 4372.047696
_symmetry_space_group_name_H-M "P 42/M C M"
_symmetry_group_IT_number 132
_symmetry_cell_setting 'tetragonal'
loop_
_space_group_symop_operation_xyz
x,y,z
-y,x,1/2+z
-x,-y,z
y,-x,1/2+z
x,-y,1/2-z
-x,y,1/2-z
y,x,-z
-y,-x,-z
-x,-y,-z
y,-x,1/2-z
x,y,-z
-y,x,1/2-z
-x,y,1/2+z
x,-y,1/2+z
-y,-x,z
y,x,z
loop_
_atom_site_type_symbol
_atom_site_label
_atom_site_fract_x
_atom_site_fract_y
_atom_site_fract_z
Si Si1 0.781061 0.598926 0.717471
Si Si2 0.574616 0.753539 0.611185
Si Si3 0.797383 0.377101 0.550920
Si Si4 0.711827 0.000000 0.750000
Si Si5 0.826233 0.998964 0.838819
Si Si6 0.014205 0.621347 0.099538
O O1 0.743322 0.500000 0.750000
O O2 0.699210 0.699210 0.725592
O O3 0.778150 0.561289 0.664855
O O4 0.903110 0.635531 0.730872
O O5 0.644756 0.644756 0.602326
O O6 0.456327 0.739079 0.587732
O O7 0.633132 0.857574 0.585939
O O8 0.777766 0.422169 0.500000
O O9 0.742392 0.257609 0.556858
O O10 0.929084 0.367705 0.557844
O O11 0.795335 0.960875 0.788598
O O12 0.915970 0.915970 0.858951
O O13 0.714716 0.985580 0.865467
O O14 0.876849 0.123152 0.840242
O O15 0.000000 0.500000 0.122055
#
# Coordination Sequence:
#
# PCOD8316796 Si02
#       6
#    16  16  16   8  16  16
#     4  11  25  41  60  87 125 167 208 254 301 356
#     4  10  22  41  62  88 122 159 200 250 303 358
#     4  10  23  42  64  92 122 152 195 251 309 369
#     4  12  23  37  58  86 122 161 205 256 298 350
#     4  11  22  36  56  85 121 160 203 249 297 351
#     4  10  21  37  61  87 118 156 192 245 296 362
#
# _framework density 20.127870000000001
#
# number of rings (size 3 to 8) (size 9 to 14) (size 15 to 20)
#    0.000    1.455    1.818    3.000    5.091    5.636 
#    0.000    2.727    0.000    1.636    0.000    6.364 
#    0.000    0.000    0.000    0.000    0.000    0.000 
#
# Total GULP energy -1090682.720489 kJ/mol
# GULP energy per Si atom -12394.121824 kJ/mol
# Density = 2.008206 g / cm^3
# Si number density = 20.127870 Si / 1000 Ang^3
#
#
#
# Elastic Constant Matrix: (Units=GPa)
#
#
# Indices 1 2 3 4 5 6 
#
# 1 94.0883 32.0194 54.5926 0.0000 0.0000 0.0000
# 2 32.0194 94.0883 54.5926 0.0000 0.0000 0.0000
# 3 54.5926 54.5926 101.5922 0.0000 0.0000 0.0000
# 4 0.0000 0.0000 0.0000 24.4402 0.0000 0.0000
# 5 0.0000 0.0000 0.0000 0.0000 24.4402 0.0000
# 6 0.0000 0.0000 0.0000 0.0000 0.0000 23.8603
#
#
#
# Elastic Compliance Matrix: (Units=1/GPa)
#
#
# Indices 1 2 3 4 5 6 
#
# 1 0.015470 -0.000641 -0.007969 0.000000 0.000000 0.000000
# 2 -0.000641 0.015470 -0.007969 0.000000 0.000000 0.000000
# 3 -0.007969 -0.007969 0.018408 0.000000 0.000000 0.000000
# 4 0.000000 0.000000 0.000000 0.040916 0.000000 0.000000
# 5 0.000000 0.000000 0.000000 0.000000 0.040916 0.000000
# 6 0.000000 0.000000 0.000000 0.000000 0.000000 0.041911
#
#
# Mechanical properties :
#
#
# Convention : Reuss Voigt Hill
#
# Bulk Modulus (GPa) = 61.76298 63.57534 62.66916
# Shear Modulus (GPa) = 23.62448 24.45241 24.03845
#
# Velocity S-wave (km/s) = 3.42968 3.48926 3.45959
# Velocity P-wave (km/s) = 6.81436 6.92008 6.86742
#
# Compressibility (1/GPa) = 0.01619093
#
# Stress axis : x y z
#
# Youngs Moduli (GPa) = 64.64063 64.64063 54.32536
#
# Poissons Ratio (x) = 0.04143 0.43290
# Poissons Ratio (y) = 0.04143 0.43290
# Poissons Ratio (z) = 0.51510 0.51510
#
# Static dielectric constant tensor:
#      x y z
#    x 3.811460 0.000000 0.000000 
#    y 0.000000 3.811460 0.000000 
#    z 0.000000 0.000000 3.575760 
# 
# 
# High freq. dielectric constant tensor:
#      x y z
#    x 1.792560 0.000000 0.000000 
#    y 0.000000 1.792560 0.000000 
#    z 0.000000 0.000000 1.766590 
# 
# From -- ./inp_files/10758.got.cif
#   From: 2010.03.12/outbox.cif.g09.slc.cpg/sg132_6_cif.got.tgz:10758.got - 2010.04.06 17:53:44.
