data_PCOD8316510
_publ_section_title
;
Structure prediction by ZEFSAII (Michael W. Deem and Ramdas Pophale) SiO2 
 PCOD8316510
Probable space group: P 42/M C M
;
_chemical_formula_sum "Si O2"
_cell_formula_units_Z 64
_cell_length_a 21.213382
_cell_length_b 21.213382
_cell_length_c 8.881317
_cell_angle_alpha 90.000000
_cell_angle_beta 90.000000
_cell_angle_gamma 90.000000
_cell_volume 3996.659934
_symmetry_space_group_name_H-M "P 42/M C M"
_symmetry_group_IT_number 132
_symmetry_cell_setting 'tetragonal'
loop_
_space_group_symop_operation_xyz
x,y,z
-y,x,1/2+z
-x,-y,z
y,-x,1/2+z
x,-y,1/2-z
-x,y,1/2-z
y,x,-z
-y,-x,-z
-x,-y,-z
y,-x,1/2-z
x,y,-z
-y,x,1/2-z
-x,y,1/2+z
x,-y,1/2+z
-y,-x,z
y,x,z
loop_
_atom_site_type_symbol
_atom_site_label
_atom_site_fract_x
_atom_site_fract_y
_atom_site_fract_z
Si Si1 0.934732 0.431386 0.319242
Si Si2 0.339032 0.160436 0.330829
Si Si3 0.854801 0.854801 0.832093
Si Si4 0.251692 0.251692 0.829239
Si Si5 0.940763 0.230990 0.165109
O O1 0.924581 0.500000 0.250000
O O2 0.940049 0.433537 0.500000
O O3 0.873501 0.391453 0.271511
O O4 0.000000 0.402993 0.250000
O O5 0.364846 0.174601 0.500000
O O6 0.314671 0.225427 0.254221
O O7 0.280418 0.114663 0.342932
O O8 0.801434 0.801434 0.829132
O O9 0.831296 0.917701 0.750484
O O10 0.873207 0.873207 0.000000
O O11 0.269948 0.269948 0.000000
O O12 0.000000 0.261680 0.250000
O O13 0.962822 0.210918 0.000000
#
# Coordination Sequence:
#
# PCOD8316510 Si02
#       5
#    16  16   8   8  16
#     4  11  21  33  47  64  88 119 154 190 226 267
#     4  10  19  31  46  65  88 113 142 178 217 257
#     4   9  17  29  43  58  78  99 123 157 198 242
#     4   9  17  29  45  65  86 110 139 174 216 259
#     4  10  19  29  43  61  80 101 127 159 199 244
#
# _framework density 16.013370999999999
#
# number of rings (size 3 to 8) (size 9 to 14) (size 15 to 20)
#    0.000    2.000    0.000    6.000    0.000    8.000 
#    0.000    0.000    0.000    0.375    0.000    2.625 
#    0.000    0.000    0.000    0.000    0.000    0.625 
#
# Total GULP energy -793320.049063 kJ/mol
# GULP energy per Si atom -12395.625767 kJ/mol
# Density = 1.597692 g / cm^3
# Si number density = 16.013371 Si / 1000 Ang^3
#
#
#
# Elastic Constant Matrix: (Units=GPa)
#
#
# Indices 1 2 3 4 5 6 
#
# 1 47.7818 26.3830 35.0761 0.0000 0.0000 0.0000
# 2 26.3830 47.7818 35.0761 0.0000 0.0000 0.0000
# 3 35.0761 35.0761 165.2581 0.0000 0.0000 0.0000
# 4 0.0000 0.0000 0.0000 24.7502 0.0000 0.0000
# 5 0.0000 0.0000 0.0000 0.0000 24.7502 0.0000
# 6 0.0000 0.0000 0.0000 0.0000 0.0000 26.7845
#
#
#
# Elastic Compliance Matrix: (Units=1/GPa)
#
#
# Indices 1 2 3 4 5 6 
#
# 1 0.031801 -0.014931 -0.003581 0.000000 0.000000 0.000000
# 2 -0.014931 0.031801 -0.003581 0.000000 0.000000 0.000000
# 3 -0.003581 -0.003581 0.007571 0.000000 0.000000 0.000000
# 4 0.000000 0.000000 0.000000 0.040404 0.000000 0.000000
# 5 0.000000 0.000000 0.000000 0.000000 0.040404 0.000000
# 6 0.000000 0.000000 0.000000 0.000000 0.000000 0.037335
#
#
# Mechanical properties :
#
#
# Convention : Reuss Voigt Hill
#
# Bulk Modulus (GPa) = 37.05192 50.43246 43.74219
# Shear Modulus (GPa) = 20.61886 26.20940 23.41413
#
# Velocity S-wave (km/s) = 3.59221 4.05003 3.82797
# Velocity P-wave (km/s) = 6.35560 7.30976 6.84932
#
# Compressibility (1/GPa) = 0.02698915
#
# Stress axis : x y z
#
# Youngs Moduli (GPa) = 31.44548 31.44548 132.07971
#
# Poissons Ratio (x) = 0.46950 0.47295
# Poissons Ratio (y) = 0.46950 0.47295
# Poissons Ratio (z) = 0.11260 0.11260
#
# Static dielectric constant tensor:
#      x y z
#    x 2.835950 0.000000 0.000000 
#    y 0.000000 2.835950 0.000000 
#    z 0.000000 0.000000 3.461610 
# 
# 
# High freq. dielectric constant tensor:
#      x y z
#    x 1.577450 0.000000 0.000000 
#    y 0.000000 1.577450 0.000000 
#    z 0.000000 0.000000 1.644170 
# 
# From -- ./inp_files/1269.got.cif
#   From: 2010.03.12/outbox.cif.g09.slc.cpg/sg132_1_cif.got.tgz:1269.got - 2010.04.06 17:53:44.
