data_PCOD8316785
_publ_section_title
;
Structure prediction by ZEFSAII (Michael W. Deem and Ramdas Pophale) SiO2 
 PCOD8316785
Probable space group: P 42/M C M
;
_chemical_formula_sum "Si O2"
_cell_formula_units_Z 96
_cell_length_a 24.184771
_cell_length_b 24.184771
_cell_length_c 8.549787
_cell_angle_alpha 90.000000
_cell_angle_beta 90.000000
_cell_angle_gamma 90.000000
_cell_volume 5000.797334
_symmetry_space_group_name_H-M "P 42/M C M"
_symmetry_group_IT_number 132
_symmetry_cell_setting 'tetragonal'
loop_
_space_group_symop_operation_xyz
x,y,z
-y,x,1/2+z
-x,-y,z
y,-x,1/2+z
x,-y,1/2-z
-x,y,1/2-z
y,x,-z
-y,-x,-z
-x,-y,-z
y,-x,1/2-z
x,y,-z
-y,x,1/2-z
-x,y,1/2+z
x,-y,1/2+z
-y,-x,z
y,x,z
loop_
_atom_site_type_symbol
_atom_site_label
_atom_site_fract_x
_atom_site_fract_y
_atom_site_fract_z
Si Si1 0.643086 0.150217 0.183875
Si Si2 0.147014 0.233500 0.313963
Si Si3 0.146407 0.060215 0.684341
Si Si4 0.441073 0.351648 0.322533
Si Si5 0.560459 0.940654 0.815151
Si Si6 0.358075 0.269087 0.817885
O O1 0.704808 0.140329 0.251485
O O2 0.602033 0.108314 0.269706
O O3 0.630730 0.214063 0.218641
O O4 0.638428 0.139094 0.000000
O O5 0.148179 0.234727 0.500000
O O6 0.203694 0.203694 0.254646
O O7 0.094691 0.198721 0.252139
O O8 0.148705 0.057961 0.500000
O O9 0.090074 0.090074 0.740093
O O10 0.148784 0.000000 0.750000
O O11 0.500000 0.363179 0.250000
O O12 0.445053 0.329149 0.500000
O O13 0.409586 0.409586 0.318290
O O14 0.410599 0.307138 0.214619
O O15 0.500000 0.925855 0.750000
O O16 0.581204 0.000000 0.750000
O O17 0.556844 0.945110 0.000000
O O18 0.301933 0.301933 0.765795
O O19 0.355336 0.254096 0.000000
#
# Coordination Sequence:
#
# PCOD8316785 Si02
#       6
#    16  16  16  16  16  16
#     4  11  21  35  59  88 113 143 183 222 268 330
#     4   8  16  32  53  77 107 142 178 219 266 316
#     4   9  18  33  51  72 101 137 177 220 265 311
#     4  10  21  37  57  81 110 146 187 230 278 330
#     4  11  23  42  63  84 112 144 180 223 273 325
#     4  10  21  37  56  81 115 150 185 230 280 326
#
# _framework density 19.196937999999999
#
# number of rings (size 3 to 8) (size 9 to 14) (size 15 to 20)
#    0.000    2.167    0.000    5.000    0.000    4.667 
#    0.000    8.333    0.000    2.000    0.000    0.000 
#    0.000    0.000    0.000    0.000    0.000    0.000 
#
# Total GULP energy -1190185.355921 kJ/mol
# GULP energy per Si atom -12397.764124 kJ/mol
# Density = 1.915324 g / cm^3
# Si number density = 19.196938 Si / 1000 Ang^3
#
#
#
# Elastic Constant Matrix: (Units=GPa)
#
#
# Indices 1 2 3 4 5 6 
#
# 1 161.8693 45.7056 33.9582 0.0000 0.0000 0.0000
# 2 45.7056 161.8693 33.9582 0.0000 0.0000 0.0000
# 3 33.9582 33.9582 75.9086 0.0000 0.0000 0.0000
# 4 0.0000 0.0000 0.0000 28.6276 0.0000 0.0000
# 5 0.0000 0.0000 0.0000 0.0000 28.6276 0.0000
# 6 0.0000 0.0000 0.0000 0.0000 0.0000 24.7159
#
#
#
# Elastic Compliance Matrix: (Units=1/GPa)
#
#
# Indices 1 2 3 4 5 6 
#
# 1 0.007126 -0.001482 -0.002525 0.000000 0.000000 0.000000
# 2 -0.001482 0.007126 -0.002525 0.000000 0.000000 0.000000
# 3 -0.002525 -0.002525 0.015433 0.000000 0.000000 0.000000
# 4 0.000000 0.000000 0.000000 0.034931 0.000000 0.000000
# 5 0.000000 0.000000 0.000000 0.000000 0.034931 0.000000
# 6 0.000000 0.000000 0.000000 0.000000 0.000000 0.040460
#
#
# Mechanical properties :
#
#
# Convention : Reuss Voigt Hill
#
# Bulk Modulus (GPa) = 60.16479 69.65455 64.90967
# Shear Modulus (GPa) = 31.52362 35.46257 33.49310
#
# Velocity S-wave (km/s) = 4.05670 4.30269 4.18150
# Velocity P-wave (km/s) = 7.30420 7.81327 7.56302
#
# Compressibility (1/GPa) = 0.01662102
#
# Stress axis : x y z
#
# Youngs Moduli (GPa) = 140.32990 140.32990 64.79785
#
# Poissons Ratio (x) = 0.20804 0.16359
# Poissons Ratio (y) = 0.20804 0.16359
# Poissons Ratio (z) = 0.35429 0.35429
#
# Static dielectric constant tensor:
#      x y z
#    x 3.498740 0.000000 0.000000 
#    y 0.000000 3.498740 0.000000 
#    z 0.000000 0.000000 3.502830 
# 
# 
# High freq. dielectric constant tensor:
#      x y z
#    x 1.751000 0.000000 0.000000 
#    y 0.000000 1.751000 0.000000 
#    z 0.000000 0.000000 1.740020 
# 
# From -- ./inp_files/1762.got.cif
#   From: 2010.03.12/outbox.cif.g09.slc.cpg/sg132_1_cif.got.tgz:1762.got - 2010.04.06 17:53:44.
