data_PCOD8316080
_publ_section_title
;
Structure prediction by ZEFSAII (Michael W. Deem and Ramdas Pophale) SiO2 
 PCOD8316080
Probable space group: P 42/M M C
;
_chemical_formula_sum "Si O2"
_cell_formula_units_Z 72
_cell_length_a 16.815655
_cell_length_b 16.815655
_cell_length_c 17.222483
_cell_angle_alpha 90.000000
_cell_angle_beta 90.000000
_cell_angle_gamma 90.000000
_cell_volume 4869.936987
_symmetry_space_group_name_H-M "P 42/M M C"
_symmetry_group_IT_number 131
_symmetry_cell_setting 'tetragonal'
loop_
_space_group_symop_operation_xyz
x,y,z
-x,-y,z
-y,x,1/2+z
y,-x,1/2+z
-x,y,-z
x,-y,-z
y,x,1/2-z
-y,-x,1/2-z
-x,-y,-z
x,y,-z
y,-x,1/2-z
-y,x,1/2-z
x,-y,z
-x,y,z
-y,-x,1/2+z
y,x,1/2+z
loop_
_atom_site_type_symbol
_atom_site_label
_atom_site_fract_x
_atom_site_fract_y
_atom_site_fract_z
Si Si1 0.000000 0.405565 0.089219
Si Si2 0.327278 0.649173 0.837994
Si Si3 0.086849 0.594214 0.500000
Si Si4 0.407600 0.188791 0.143759
Si Si5 0.844139 0.407201 0.818823
Si Si6 0.411992 0.500000 0.091078
O O1 0.921621 0.375146 0.135145
O O2 0.000000 0.500000 0.090057
O O3 0.000000 0.374052 0.000000
O O4 0.357293 0.642708 0.750000
O O5 0.355177 0.733248 0.870868
O O6 0.232039 0.642835 0.846878
O O7 0.366044 0.578351 0.884718
O O8 0.081138 0.500000 0.500000
O O9 0.129602 0.623115 0.577886
O O10 0.000000 0.633309 0.500000
O O11 0.500000 0.212442 0.134080
O O12 0.393631 0.145833 0.226477
O O13 0.829391 0.500000 0.836914
O O14 0.500000 0.500000 0.128519
O O15 0.418516 0.500000 0.000000
#
# Coordination Sequence:
#
# PCOD8316080 Si02
#       6
#     8  16   8  16  16   8
#     4   9  18  30  46  65  85 109 145 190 233 272
#     4  10  20  33  48  64  87 123 158 191 233 268
#     4   9  18  30  46  67  85 114 149 185 235 272
#     4   9  18  30  46  65  90 115 150 192 225 269
#     4   9  17  31  46  65  85 114 152 187 227 273
#     4  11  24  32  42  63  87 121 164 202 232 258
#
# _framework density 14.784585999999999
#
# number of rings (size 3 to 8) (size 9 to 14) (size 15 to 20)
#    0.000    2.556    1.111    0.667    6.222    0.889 
#    0.000    0.000    0.000    0.000    0.000    0.000 
#    0.000    0.000    0.000    2.000    4.222    0.000 
#
# Total GULP energy -892652.287134 kJ/mol
# GULP energy per Si atom -12397.948432 kJ/mol
# Density = 1.475094 g / cm^3
# Si number density = 14.784586 Si / 1000 Ang^3
#
#
#
# Elastic Constant Matrix: (Units=GPa)
#
#
# Indices 1 2 3 4 5 6 
#
# 1 89.2475 46.0296 54.5647 0.0000 0.0000 0.0000
# 2 46.0296 89.2476 54.5648 0.0000 0.0000 0.0000
# 3 54.5647 54.5648 94.0831 0.0000 0.0000 0.0000
# 4 0.0000 0.0000 0.0000 2.5148 0.0000 0.0000
# 5 0.0000 0.0000 0.0000 0.0000 2.5097 0.0000
# 6 0.0000 0.0000 0.0000 0.0000 0.0000 7.9827
#
#
#
# Elastic Compliance Matrix: (Units=1/GPa)
#
#
# Indices 1 2 3 4 5 6 
#
# 1 0.018515 -0.004623 -0.008057 0.000000 0.000000 0.000000
# 2 -0.004623 0.018515 -0.008057 0.000000 0.000000 0.000000
# 3 -0.008057 -0.008057 0.019974 0.000000 0.000000 0.000000
# 4 0.000000 0.000000 0.000000 0.397646 0.000000 0.000000
# 5 0.000000 0.000000 0.000000 0.000000 0.398455 0.000000
# 6 0.000000 0.000000 0.000000 0.000000 0.000000 0.125271
#
#
# Mechanical properties :
#
#
# Convention : Reuss Voigt Hill
#
# Bulk Modulus (GPa) = 64.38854 64.76625 64.57740
# Shear Modulus (GPa) = 4.87792 10.42938 7.65365
#
# Velocity S-wave (km/s) = 1.81838 2.65886 2.27772
# Velocity P-wave (km/s) = 6.93212 7.30259 7.11976
#
# Compressibility (1/GPa) = 0.01553071
#
# Stress axis : x y z
#
# Youngs Moduli (GPa) = 54.01012 54.01007 50.06521
#
# Poissons Ratio (x) = 0.24971 0.40335
# Poissons Ratio (y) = 0.24971 0.40336
# Poissons Ratio (z) = 0.43514 0.43514
#
# Static dielectric constant tensor:
#      x y z
#    x 2.761390 0.000000 0.000000 
#    y 0.000000 2.761400 0.000000 
#    z 0.000000 0.000000 2.997990 
# 
# 
# High freq. dielectric constant tensor:
#      x y z
#    x 1.539710 0.000000 0.000000 
#    y 0.000000 1.539710 0.000000 
#    z 0.000000 0.000000 1.578750 
# 
# From -- ./inp_files/7650.got.cif
#   From: 2010.03.12/outbox.cif.g09.slc.cpg/sg131_4_cif.got.tgz:7650.got - 2010.04.06 17:36:35.
