data_PCOD8316403
_publ_section_title
;
Structure prediction by ZEFSAII (Michael W. Deem and Ramdas Pophale) SiO2 
 PCOD8316403
Probable space group: P 42/M C M
;
_chemical_formula_sum "Si O2"
_cell_formula_units_Z 48
_cell_length_a 20.714795
_cell_length_b 20.714795
_cell_length_c 8.597086
_cell_angle_alpha 90.000000
_cell_angle_beta 90.000000
_cell_angle_gamma 90.000000
_cell_volume 3689.033089
_symmetry_space_group_name_H-M "P 42/M C M"
_symmetry_group_IT_number 132
_symmetry_cell_setting 'tetragonal'
loop_
_space_group_symop_operation_xyz
x,y,z
-y,x,1/2+z
-x,-y,z
y,-x,1/2+z
x,-y,1/2-z
-x,y,1/2-z
y,x,-z
-y,-x,-z
-x,-y,-z
y,-x,1/2-z
x,y,-z
-y,x,1/2-z
-x,y,1/2+z
x,-y,1/2+z
-y,-x,z
y,x,z
loop_
_atom_site_type_symbol
_atom_site_label
_atom_site_fract_x
_atom_site_fract_y
_atom_site_fract_z
Si Si1 0.064759 0.572182 0.184059
Si Si2 0.193977 0.571868 0.683895
Si Si3 0.429706 0.675594 0.817809
O O1 0.066105 0.500000 0.250000
O O2 0.130330 0.607298 0.244521
O O3 0.000000 0.607148 0.250000
O O4 0.062785 0.571644 0.000000
O O5 0.197295 0.500000 0.750000
O O6 0.188165 0.572127 0.500000
O O7 0.261118 0.603930 0.739595
O O8 0.500000 0.660129 0.750000
O O9 0.385198 0.614803 0.778833
O O10 0.436063 0.688582 0.000000
#
# Coordination Sequence:
#
# PCOD8316403 Si02
#       3
#    16  16  16
#     4  10  16  23  34  50  71  91 111 131 155 189
#     4  10  17  26  39  53  69  88 109 133 165 203
#     4  10  20  32  44  56  69  86 110 142 181 222
#
# _framework density 13.011540999999999
#
# number of rings (size 3 to 8) (size 9 to 14) (size 15 to 20)
#    0.000    2.000    0.000   12.000    0.000    3.000 
#    0.000    1.667    0.000    0.000    0.000    0.000 
#    0.000    0.000    0.000    0.000    0.000    0.000 
#
# Total GULP energy -594779.028434 kJ/mol
# GULP energy per Si atom -12391.229759 kJ/mol
# Density = 1.298193 g / cm^3
# Si number density = 13.011541 Si / 1000 Ang^3
#
#
#
# Elastic Constant Matrix: (Units=GPa)
#
#
# Indices 1 2 3 4 5 6 
#
# 1 70.9108 31.0902 39.1138 0.0000 0.0000 0.0000
# 2 31.0902 70.9108 39.1138 0.0000 0.0000 0.0000
# 3 39.1138 39.1138 134.8297 0.0000 0.0000 0.0000
# 4 0.0000 0.0000 0.0000 19.4855 0.0000 0.0000
# 5 0.0000 0.0000 0.0000 0.0000 19.4855 0.0000
# 6 0.0000 0.0000 0.0000 0.0000 0.0000 0.1953
#
#
#
# Elastic Compliance Matrix: (Units=1/GPa)
#
#
# Indices 1 2 3 4 5 6 
#
# 1 0.018861 -0.006252 -0.003658 0.000000 0.000000 0.000000
# 2 -0.006252 0.018861 -0.003658 0.000000 0.000000 0.000000
# 3 -0.003658 -0.003658 0.009539 0.000000 0.000000 0.000000
# 4 0.000000 0.000000 0.000000 0.051320 0.000000 0.000000
# 5 0.000000 0.000000 0.000000 0.000000 0.051320 0.000000
# 6 0.000000 0.000000 0.000000 0.000000 0.000000 5.120563
#
#
# Mechanical properties :
#
#
# Convention : Reuss Voigt Hill
#
# Bulk Modulus (GPa) = 49.68740 55.03189 52.35965
# Shear Modulus (GPa) = 0.94263 18.98880 9.96572
#
# Velocity S-wave (km/s) = 0.85207 3.82433 2.77052
# Velocity P-wave (km/s) = 6.26403 7.86684 7.11074
#
# Compressibility (1/GPa) = 0.02012583
#
# Stress axis : x y z
#
# Youngs Moduli (GPa) = 53.01970 53.01970 104.83211
#
# Poissons Ratio (x) = 0.33147 0.38347
# Poissons Ratio (y) = 0.33147 0.38347
# Poissons Ratio (z) = 0.19394 0.19394
#
# Static dielectric constant tensor:
#      x y z
#    x 3.113540 0.000000 0.000000 
#    y 0.000000 3.113540 0.000000 
#    z 0.000000 0.000000 2.782550 
# 
# 
# High freq. dielectric constant tensor:
#      x y z
#    x 1.459090 0.000000 0.000000 
#    y 0.000000 1.459090 0.000000 
#    z 0.000000 0.000000 1.522810 
# 
# From -- ./inp_files/1094.got.cif
#   From: 2010.03.12/outbox.cif.g09.slc.cpg/sg132_1_cif.got.tgz:1094.got - 2010.04.06 17:53:44.
