data_PCOD8316168
_publ_section_title
;
Structure prediction by ZEFSAII (Michael W. Deem and Ramdas Pophale) SiO2 
 PCOD8316168
Probable space group: P 42/M M C
;
_chemical_formula_sum "Si O2"
_cell_formula_units_Z 88
_cell_length_a 17.631806
_cell_length_b 17.631806
_cell_length_c 13.818483
_cell_angle_alpha 90.000000
_cell_angle_beta 90.000000
_cell_angle_gamma 90.000000
_cell_volume 4295.898049
_symmetry_space_group_name_H-M "P 42/M M C"
_symmetry_group_IT_number 131
_symmetry_cell_setting 'tetragonal'
loop_
_space_group_symop_operation_xyz
x,y,z
-x,-y,z
-y,x,1/2+z
y,-x,1/2+z
-x,y,-z
x,-y,-z
y,x,1/2-z
-y,-x,1/2-z
-x,-y,-z
x,y,-z
y,-x,1/2-z
-y,x,1/2-z
x,-y,z
-x,y,z
-y,-x,1/2+z
y,x,1/2+z
loop_
_atom_site_type_symbol
_atom_site_label
_atom_site_fract_x
_atom_site_fract_y
_atom_site_fract_z
Si Si1 0.185495 0.584160 0.892578
Si Si2 0.699965 0.586615 0.721119
Si Si3 0.914505 0.306131 0.212959
Si Si4 0.164946 0.861135 0.389995
Si Si5 0.914220 0.000000 0.886123
Si Si6 0.813147 0.686180 0.390769
O O1 0.150247 0.500000 0.882648
O O2 0.253824 0.594453 0.819402
O O3 0.120241 0.645125 0.873882
O O4 0.218029 0.598134 0.000000
O O5 0.616485 0.616485 0.750000
O O6 0.695323 0.500000 0.683509
O O7 0.737369 0.640446 0.639034
O O8 0.907148 0.217014 0.185567
O O9 0.879196 0.332420 0.315129
O O10 0.000000 0.329360 0.223940
O O11 0.172023 0.892716 0.500000
O O12 0.198422 0.776377 0.385383
O O13 0.076820 0.868955 0.354835
O O14 0.000000 0.000000 0.842353
O O15 0.919774 0.000000 0.000000
O O16 0.836620 0.662391 0.500000
#
# Coordination Sequence:
#
# PCOD8316168 Si02
#       6
#    16  16  16  16   8  16
#     4   9  19  37  59  83 115 152 186 227 288 358
#     4  10  21  38  62  93 124 153 189 232 285 351
#     4  11  22  34  54  84 115 147 194 252 306 358
#     4  10  20  35  56  81 113 153 199 251 310 375
#     4   9  18  32  52  80 114 152 194 247 316 384
#     4  10  22  40  60  80 111 159 210 250 286 345
#
# _framework density 20.484656999999999
#
# number of rings (size 3 to 8) (size 9 to 14) (size 15 to 20)
#    0.000    2.091    0.000    3.818    1.273    5.636 
#    0.000    0.909    0.000    0.000    0.000    8.909 
#    0.000    0.000    0.000    0.000    0.000    0.000 
#
# Total GULP energy -1090794.045246 kJ/mol
# GULP energy per Si atom -12395.386878 kJ/mol
# Density = 2.043803 g / cm^3
# Si number density = 20.484657 Si / 1000 Ang^3
#
#
#
# Elastic Constant Matrix: (Units=GPa)
#
#
# Indices 1 2 3 4 5 6 
#
# 1 110.1149 49.3722 27.9487 0.0000 0.0000 0.0000
# 2 49.3722 110.1149 27.9487 0.0000 0.0000 0.0000
# 3 27.9487 27.9487 112.1381 0.0000 0.0000 0.0000
# 4 0.0000 0.0000 0.0000 20.1313 0.0000 0.0000
# 5 0.0000 0.0000 0.0000 0.0000 20.1313 0.0000
# 6 0.0000 0.0000 0.0000 0.0000 0.0000 20.5817
#
#
#
# Elastic Compliance Matrix: (Units=1/GPa)
#
#
# Indices 1 2 3 4 5 6 
#
# 1 0.011667 -0.004796 -0.001712 0.000000 0.000000 0.000000
# 2 -0.004796 0.011667 -0.001712 0.000000 0.000000 0.000000
# 3 -0.001712 -0.001712 0.009771 0.000000 0.000000 0.000000
# 4 0.000000 0.000000 0.000000 0.049674 0.000000 0.000000
# 5 0.000000 0.000000 0.000000 0.000000 0.049674 0.000000
# 6 0.000000 0.000000 0.000000 0.000000 0.000000 0.048587
#
#
# Mechanical properties :
#
#
# Convention : Reuss Voigt Hill
#
# Bulk Modulus (GPa) = 60.01550 60.32303 60.16926
# Shear Modulus (GPa) = 24.62633 27.30876 25.96755
#
# Velocity S-wave (km/s) = 3.47101 3.65517 3.56428
# Velocity P-wave (km/s) = 6.73983 6.87935 6.80995
#
# Compressibility (1/GPa) = 0.01666236
#
# Stress axis : x y z
#
# Youngs Moduli (GPa) = 85.71518 85.71518 102.34255
#
# Poissons Ratio (x) = 0.41112 0.17524
# Poissons Ratio (y) = 0.41112 0.17524
# Poissons Ratio (z) = 0.14677 0.14677
#
# Static dielectric constant tensor:
#      x y z
#    x 3.714020 0.000000 0.000000 
#    y 0.000000 3.714020 0.000000 
#    z 0.000000 0.000000 3.912380 
# 
# 
# High freq. dielectric constant tensor:
#      x y z
#    x 1.787300 0.000000 0.000000 
#    y 0.000000 1.787300 0.000000 
#    z 0.000000 0.000000 1.811500 
# 
# From -- ./inp_files/5890.got.cif
#   From: 2010.03.12/outbox.cif.g09.slc.cpg/sg131_3_cif.got.tgz:5890.got - 2010.04.06 17:36:35.
