data_PCOD8316083
_publ_section_title
;
Structure prediction by ZEFSAII (Michael W. Deem and Ramdas Pophale) SiO2 
 PCOD8316083
Probable space group: P 42/M M C
;
_chemical_formula_sum "Si O2"
_cell_formula_units_Z 92
_cell_length_a 15.644314
_cell_length_b 15.644314
_cell_length_c 20.204725
_cell_angle_alpha 90.000000
_cell_angle_beta 90.000000
_cell_angle_gamma 90.000000
_cell_volume 4944.996541
_symmetry_space_group_name_H-M "P 42/M M C"
_symmetry_group_IT_number 131
_symmetry_cell_setting 'tetragonal'
loop_
_space_group_symop_operation_xyz
x,y,z
-x,-y,z
-y,x,1/2+z
y,-x,1/2+z
-x,y,-z
x,-y,-z
y,x,1/2-z
-y,-x,1/2-z
-x,-y,-z
x,y,-z
y,-x,1/2-z
-y,x,1/2-z
x,-y,z
-x,y,z
-y,-x,1/2+z
y,x,1/2+z
loop_
_atom_site_type_symbol
_atom_site_label
_atom_site_fract_x
_atom_site_fract_y
_atom_site_fract_z
Si Si1 0.000000 0.406828 0.924024
Si Si2 0.192536 0.000000 0.867126
Si Si3 0.406246 0.266725 0.690286
Si Si4 0.829120 0.724840 0.423593
Si Si5 0.000000 0.000000 0.340940
Si Si6 0.714333 0.595924 0.346189
Si Si7 0.714520 0.863066 0.366805
Si Si8 0.000000 0.183384 0.212080
O O1 0.917684 0.352143 0.907541
O O2 0.000000 0.500000 0.887299
O O3 0.000000 0.426517 0.000000
O O4 0.241614 0.919312 0.897077
O O5 0.089322 0.000000 0.884119
O O6 0.207627 0.000000 0.788613
O O7 0.500000 0.245717 0.661242
O O8 0.372286 0.348016 0.647144
O O9 0.412259 0.276859 0.768119
O O10 0.339958 0.190268 0.684937
O O11 0.837221 0.696898 0.500000
O O12 0.794577 0.643599 0.381272
O O13 0.763646 0.803563 0.418620
O O14 0.081970 0.000000 0.293737
O O15 0.704765 0.500000 0.376627
O O16 0.781493 0.916144 0.323679
#
# Coordination Sequence:
#
# PCOD8316083 Si02
#       8
#     8   8  16  16   4  16  16   8
#     4  10  20  33  49  70 100 136 172 209 253 319
#     4  12  23  38  57  81 110 143 189 235 285 333
#     4   9  17  32  56  86 114 138 172 225 286 339
#     4  11  23  38  55  76 109 151 192 230 269 326
#     4  12  23  36  57  86 113 142 176 225 288 343
#     4   9  19  35  56  82 110 142 181 228 281 332
#     4  10  20  34  53  78 107 140 179 220 275 331
#     4  11  21  35  57  83 111 142 179 235 289 338
#
# _framework density 18.604664
#
# number of rings (size 3 to 8) (size 9 to 14) (size 15 to 20)
#    0.000    1.826    1.739    3.130    0.000    2.087 
#    0.000    3.913    0.000    8.870    0.000    4.870 
#    0.000    0.000    0.000    0.000    0.000    0.000 
#
# Total GULP energy -1140044.834760 kJ/mol
# GULP energy per Si atom -12391.791682 kJ/mol
# Density = 1.856232 g / cm^3
# Si number density = 18.604664 Si / 1000 Ang^3
#
#
#
# Elastic Constant Matrix: (Units=GPa)
#
#
# Indices 1 2 3 4 5 6 
#
# 1 130.8255 57.7156 33.6272 0.0000 0.0000 0.0000
# 2 57.7156 130.8255 33.6272 0.0000 0.0000 0.0000
# 3 33.6272 33.6272 64.9189 0.0000 0.0000 0.0000
# 4 0.0000 0.0000 0.0000 17.2315 0.0000 0.0000
# 5 0.0000 0.0000 0.0000 0.0000 17.2315 0.0000
# 6 0.0000 0.0000 0.0000 0.0000 0.0000 123.5011
#
#
#
# Elastic Compliance Matrix: (Units=1/GPa)
#
#
# Indices 1 2 3 4 5 6 
#
# 1 0.010092 -0.003586 -0.003370 0.000000 0.000000 0.000000
# 2 -0.003586 0.010092 -0.003370 0.000000 0.000000 0.000000
# 3 -0.003370 -0.003370 0.018895 0.000000 0.000000 0.000000
# 4 0.000000 0.000000 0.000000 0.058033 0.000000 0.000000
# 5 0.000000 0.000000 0.000000 0.000000 0.058033 0.000000
# 6 0.000000 0.000000 0.000000 0.000000 0.000000 0.008097
#
#
# Mechanical properties :
#
#
# Convention : Reuss Voigt Hill
#
# Bulk Modulus (GPa) = 54.26821 64.05663 59.16242
# Shear Modulus (GPa) = 26.31065 45.03284 35.67174
#
# Velocity S-wave (km/s) = 3.76466 4.92521 4.38351
# Velocity P-wave (km/s) = 6.93753 8.17611 7.58215
#
# Compressibility (1/GPa) = 0.01842699
#
# Stress axis : x y z
#
# Youngs Moduli (GPa) = 99.08820 99.08820 52.92382
#
# Poissons Ratio (x) = 0.35533 0.17835
# Poissons Ratio (y) = 0.35533 0.17835
# Poissons Ratio (z) = 0.33393 0.33393
#
# Static dielectric constant tensor:
#      x y z
#    x 3.547600 0.000000 0.000000 
#    y 0.000000 3.547600 0.000000 
#    z 0.000000 0.000000 3.160030 
# 
# 
# High freq. dielectric constant tensor:
#      x y z
#    x 1.731980 0.000000 0.000000 
#    y 0.000000 1.731980 0.000000 
#    z 0.000000 0.000000 1.699970 
# 
# From -- ./inp_files/9825.got.cif
#   From: 2010.03.12/outbox.cif.g09.slc.cpg/sg131_5_cif.got.tgz:9825.got - 2010.04.06 17:36:35.
