data_PCOD8316507
_publ_section_title
;
Structure prediction by ZEFSAII (Michael W. Deem and Ramdas Pophale) SiO2 
 PCOD8316507
Probable space group: P 42/M C M
;
_chemical_formula_sum "Si O2"
_cell_formula_units_Z 58
_cell_length_a 18.817298
_cell_length_b 18.817298
_cell_length_c 9.346952
_cell_angle_alpha 90.000000
_cell_angle_beta 90.000000
_cell_angle_gamma 90.000000
_cell_volume 3309.668814
_symmetry_space_group_name_H-M "P 42/M C M"
_symmetry_group_IT_number 132
_symmetry_cell_setting 'tetragonal'
loop_
_space_group_symop_operation_xyz
x,y,z
-y,x,1/2+z
-x,-y,z
y,-x,1/2+z
x,-y,1/2-z
-x,y,1/2-z
y,x,-z
-y,-x,-z
-x,-y,-z
y,-x,1/2-z
x,y,-z
-y,x,1/2-z
-x,y,1/2+z
x,-y,1/2+z
-y,-x,z
y,x,z
loop_
_atom_site_type_symbol
_atom_site_label
_atom_site_fract_x
_atom_site_fract_y
_atom_site_fract_z
Si Si1 0.810872 0.929121 0.334686
Si Si2 0.714837 0.169106 0.336714
Si Si3 0.567664 0.762400 0.167475
Si Si4 0.500000 0.500000 0.750000
Si Si5 0.389216 0.389216 0.160420
O O1 0.795784 0.946375 0.500000
O O2 0.877497 0.877497 0.315386
O O3 0.740647 0.893353 0.267657
O O4 0.830166 0.000000 0.250000
O O5 0.724172 0.143236 0.500000
O O6 0.758988 0.241013 0.310143
O O7 0.633205 0.185441 0.301228
O O8 0.500000 0.794282 0.250000
O O9 0.583437 0.683603 0.233024
O O10 0.550066 0.758287 0.000000
O O11 0.550303 0.449698 0.655470
O O12 0.367852 0.367852 0.000000
#
# Coordination Sequence:
#
# PCOD8316507 Si02
#       5
#    16  16  16   2   8
#     4  10  21  36  56  84 115 143 173 206 244 297
#     4   9  17  32  54  74  99 137 179 220 263 311
#     4  10  19  32  48  69  97 132 175 222 269 316
#     4  12  18  28  44  58 100 140 178 216 266 328
#     4  10  19  29  41  62  93 131 173 215 264 317
#
# _framework density 17.524412999999999
#
# number of rings (size 3 to 8) (size 9 to 14) (size 15 to 20)
#    0.000    2.207    2.759    1.034    0.000    3.034 
#    0.000    2.069    0.000    0.828    0.000    5.793 
#    0.000    0.000    0.000    0.000    0.000    0.000 
#
# Total GULP energy -719212.987126 kJ/mol
# GULP energy per Si atom -12400.223916 kJ/mol
# Density = 1.748453 g / cm^3
# Si number density = 17.524413 Si / 1000 Ang^3
#
#
#
# Elastic Constant Matrix: (Units=GPa)
#
#
# Indices 1 2 3 4 5 6 
#
# 1 87.6335 41.3762 53.2547 0.0000 0.0000 0.0000
# 2 41.3762 87.6335 53.2547 0.0000 0.0000 0.0000
# 3 53.2547 53.2547 98.1149 0.0000 0.0000 0.0000
# 4 0.0000 0.0000 0.0000 28.9859 0.0000 0.0000
# 5 0.0000 0.0000 0.0000 0.0000 28.9859 0.0000
# 6 0.0000 0.0000 0.0000 0.0000 0.0000 14.7157
#
#
#
# Elastic Compliance Matrix: (Units=1/GPa)
#
#
# Indices 1 2 3 4 5 6 
#
# 1 0.017832 -0.003786 -0.007623 0.000000 0.000000 0.000000
# 2 -0.003786 0.017832 -0.007623 0.000000 0.000000 0.000000
# 3 -0.007623 -0.007623 0.018468 0.000000 0.000000 0.000000
# 4 0.000000 0.000000 0.000000 0.034500 0.000000 0.000000
# 5 0.000000 0.000000 0.000000 0.000000 0.034500 0.000000
# 6 0.000000 0.000000 0.000000 0.000000 0.000000 0.067955
#
#
# Mechanical properties :
#
#
# Convention : Reuss Voigt Hill
#
# Bulk Modulus (GPa) = 62.24918 63.23923 62.74420
# Shear Modulus (GPa) = 21.32137 22.90392 22.11264
#
# Velocity S-wave (km/s) = 3.49186 3.61913 3.55606
# Velocity P-wave (km/s) = 7.20111 7.32317 7.26240
#
# Compressibility (1/GPa) = 0.01606447
#
# Stress axis : x y z
#
# Youngs Moduli (GPa) = 56.07984 56.07984 54.14815
#
# Poissons Ratio (x) = 0.21235 0.41280
# Poissons Ratio (y) = 0.21235 0.41280
# Poissons Ratio (z) = 0.42752 0.42752
#
# Static dielectric constant tensor:
#      x y z
#    x 3.133820 0.000000 0.000000 
#    y 0.000000 3.133820 0.000000 
#    z 0.000000 0.000000 3.168820 
# 
# 
# High freq. dielectric constant tensor:
#      x y z
#    x 1.665870 0.000000 0.000000 
#    y 0.000000 1.665870 0.000000 
#    z 0.000000 0.000000 1.668590 
# 
# From -- ./inp_files/1019.got.cif
#   From: 2010.03.12/outbox.cif.g09.slc.cpg/sg132_1_cif.got.tgz:1019.got - 2010.04.06 17:53:44.
