data_PCOD8316813
_publ_section_title
;
Structure prediction by ZEFSAII (Michael W. Deem and Ramdas Pophale) SiO2 
 PCOD8316813
Probable space group: P 42/M C M
;
_chemical_formula_sum "Si O2"
_cell_formula_units_Z 128
_cell_length_a 19.961264
_cell_length_b 19.961264
_cell_length_c 18.561450
_cell_angle_alpha 90.000000
_cell_angle_beta 90.000000
_cell_angle_gamma 90.000000
_cell_volume 7395.847998
_symmetry_space_group_name_H-M "P 42/M C M"
_symmetry_group_IT_number 132
_symmetry_cell_setting 'tetragonal'
loop_
_space_group_symop_operation_xyz
x,y,z
-y,x,1/2+z
-x,-y,z
y,-x,1/2+z
x,-y,1/2-z
-x,y,1/2-z
y,x,-z
-y,-x,-z
-x,-y,-z
y,-x,1/2-z
x,y,-z
-y,x,1/2-z
-x,y,1/2+z
x,-y,1/2+z
-y,-x,z
y,x,z
loop_
_atom_site_type_symbol
_atom_site_label
_atom_site_fract_x
_atom_site_fract_y
_atom_site_fract_z
Si Si1 0.623055 0.902638 0.416416
Si Si2 0.819576 0.284990 0.416106
Si Si3 0.610695 0.225360 0.691566
Si Si4 0.636580 0.946976 0.082853
Si Si5 0.315581 0.424186 0.581410
Si Si6 0.892041 0.514545 0.170661
Si Si7 0.642992 0.539525 0.180080
Si Si8 0.673925 0.783025 0.339908
O O1 0.609558 0.888378 0.500000
O O2 0.552887 0.892126 0.375607
O O3 0.678692 0.851643 0.385255
O O4 0.656022 0.975834 0.404885
O O5 0.808807 0.295361 0.500000
O O6 0.789221 0.210780 0.394271
O O7 0.776153 0.342553 0.378485
O O8 0.898255 0.300039 0.396091
O O9 0.542719 0.183217 0.679798
O O10 0.591194 0.301174 0.708178
O O11 0.654306 0.197945 0.758455
O O12 0.571373 0.935550 0.131727
O O13 0.615947 0.933904 0.000000
O O14 0.289578 0.433302 0.500000
O O15 0.385831 0.385831 0.583454
O O16 0.326816 0.496324 0.615767
O O17 0.260235 0.385036 0.625798
O O18 0.922414 0.500000 0.250000
O O19 0.618118 0.500000 0.250000
O O20 0.579909 0.579909 0.148817
O O21 0.745053 0.745053 0.343459
#
# Coordination Sequence:
#
# PCOD8316813 Si02
#       8
#    16  16  16  16  16  16  16  16
#     4  11  22  35  51  76 107 138 170 209 256 306
#     4   9  18  34  55  77 102 135 170 202 242 293
#     4  11  21  36  53  75  99 125 164 213 252 294
#     4   9  20  35  51  75 109 140 168 208 253 298
#     4  10  22  38  53  68  87 115 155 204 253 305
#     4  11  20  34  53  75 101 137 174 204 249 309
#     4  12  23  35  52  69  89 117 152 198 257 314
#     4  11  21  37  56  74  96 129 170 211 253 298
#
# _framework density 17.307006999999999
#
# number of rings (size 3 to 8) (size 9 to 14) (size 15 to 20)
#    0.000    1.500    2.500    3.750    0.000    4.875 
#    0.000    0.625    0.000    0.000    0.000    0.000 
#    0.000    0.500    0.000    4.875    0.000    6.000 
#
# Total GULP energy -1586851.059036 kJ/mol
# GULP energy per Si atom -12397.273899 kJ/mol
# Density = 1.726762 g / cm^3
# Si number density = 17.307007 Si / 1000 Ang^3
#
#
#
# Elastic Constant Matrix: (Units=GPa)
#
#
# Indices 1 2 3 4 5 6 
#
# 1 89.0070 54.9895 31.8073 0.0000 0.0000 0.0000
# 2 54.9895 89.0070 31.8073 0.0000 0.0000 0.0000
# 3 31.8073 31.8073 72.0833 0.0000 0.0000 0.0000
# 4 0.0000 0.0000 0.0000 20.7273 0.0000 0.0000
# 5 0.0000 0.0000 0.0000 0.0000 20.7273 0.0000
# 6 0.0000 0.0000 0.0000 0.0000 0.0000 19.8992
#
#
#
# Elastic Compliance Matrix: (Units=1/GPa)
#
#
# Indices 1 2 3 4 5 6 
#
# 1 0.019011 -0.010385 -0.003806 0.000000 0.000000 0.000000
# 2 -0.010385 0.019011 -0.003806 0.000000 0.000000 0.000000
# 3 -0.003806 -0.003806 0.017232 0.000000 0.000000 0.000000
# 4 0.000000 0.000000 0.000000 0.048245 0.000000 0.000000
# 5 0.000000 0.000000 0.000000 0.000000 0.048245 0.000000
# 6 0.000000 0.000000 0.000000 0.000000 0.000000 0.050253
#
#
# Mechanical properties :
#
#
# Convention : Reuss Voigt Hill
#
# Bulk Modulus (GPa) = 51.92403 54.14506 53.03454
# Shear Modulus (GPa) = 20.45704 21.03699 20.74702
#
# Velocity S-wave (km/s) = 3.44177 3.49021 3.46607
# Velocity P-wave (km/s) = 6.77209 6.89892 6.83580
#
# Compressibility (1/GPa) = 0.01925891
#
# Stress axis : x y z
#
# Youngs Moduli (GPa) = 52.59992 52.59992 58.03155
#
# Poissons Ratio (x) = 0.54626 0.22089
# Poissons Ratio (y) = 0.54626 0.22089
# Poissons Ratio (z) = 0.20021 0.20021
#
# Static dielectric constant tensor:
#      x y z
#    x 3.264760 0.000000 0.000000 
#    y 0.000000 3.264760 0.000000 
#    z 0.000000 0.000000 3.407360 
# 
# 
# High freq. dielectric constant tensor:
#      x y z
#    x 1.646160 0.000000 0.000000 
#    y 0.000000 1.646160 0.000000 
#    z 0.000000 0.000000 1.684930 
# 
# From -- ./inp_files/6854.got.cif
#   From: 2010.03.12/outbox.cif.g09.slc.cpg/sg132_4_cif.got.tgz:6854.got - 2010.04.06 17:53:44.
