data_PCOD8316874
_publ_section_title
;
Structure prediction by ZEFSAII (Michael W. Deem and Ramdas Pophale) SiO2 
 PCOD8316874
Probable space group: P 42/M C M
;
_chemical_formula_sum "Si O2"
_cell_formula_units_Z 48
_cell_length_a 10.044034
_cell_length_b 10.044034
_cell_length_c 21.148759
_cell_angle_alpha 90.000000
_cell_angle_beta 90.000000
_cell_angle_gamma 90.000000
_cell_volume 2133.542196
_symmetry_space_group_name_H-M "P 42/M C M"
_symmetry_group_IT_number 132
_symmetry_cell_setting 'tetragonal'
loop_
_space_group_symop_operation_xyz
x,y,z
-y,x,1/2+z
-x,-y,z
y,-x,1/2+z
x,-y,1/2-z
-x,y,1/2-z
y,x,-z
-y,-x,-z
-x,-y,-z
y,-x,1/2-z
x,y,-z
-y,x,1/2-z
-x,y,1/2+z
x,-y,1/2+z
-y,-x,z
y,x,z
loop_
_atom_site_type_symbol
_atom_site_label
_atom_site_fract_x
_atom_site_fract_y
_atom_site_fract_z
Si Si1 0.280975 0.500000 0.750000
Si Si2 0.505367 0.719436 0.000000
Si Si3 0.991436 0.785344 0.179023
Si Si4 0.179816 0.404628 0.374955
O O1 0.368054 0.631947 0.746225
O O2 0.192458 0.499559 0.686425
O O3 0.491865 0.813330 0.061547
O O4 0.649570 0.649570 0.000000
O O5 0.391747 0.608254 0.000000
O O6 0.094460 0.905541 0.175322
O O7 0.036460 0.670575 0.129485
O O8 0.000000 0.725505 0.250000
O O9 0.843977 0.843977 0.163116
O O10 0.299521 0.299521 0.374633
#
# Coordination Sequence:
#
# PCOD8316874 Si02
#       4
#     8   8  16  16
#     4   9  16  26  41  64  96 132 171 215 256 300
#     4   9  16  26  41  65 102 145 181 213 256 313
#     4   8  14  26  44  65  90 121 161 216 277 324
#     4   9  16  26  42  66  96 132 173 213 258 316
#
# _framework density 22.497796999999998
#
# number of rings (size 3 to 8) (size 9 to 14) (size 15 to 20)
#    0.000    3.333    0.000    2.000    0.000    4.000 
#    0.000    1.667    0.000    5.000    0.000    4.667 
#    0.000   10.667    0.000    4.333    0.000    5.333 
#
# Total GULP energy -594876.800081 kJ/mol
# GULP energy per Si atom -12393.266668 kJ/mol
# Density = 2.244659 g / cm^3
# Si number density = 22.497797 Si / 1000 Ang^3
#
#
#
# Elastic Constant Matrix: (Units=GPa)
#
#
# Indices 1 2 3 4 5 6 
#
# 1 60.0540 40.8359 68.9566 0.0000 0.0000 0.0000
# 2 40.8359 60.0540 68.9566 0.0000 0.0000 0.0000
# 3 68.9566 68.9566 203.7357 0.0000 0.0000 0.0000
# 4 0.0000 0.0000 0.0000 21.4595 0.0000 0.0000
# 5 0.0000 0.0000 0.0000 0.0000 21.4595 0.0000
# 6 0.0000 0.0000 0.0000 0.0000 0.0000 -16.5569
#
#
#
# Elastic Compliance Matrix: (Units=1/GPa)
#
#
# Indices 1 2 3 4 5 6 
#
# 1 0.035240 -0.016794 -0.006243 0.000000 0.000000 0.000000
# 2 -0.016794 0.035240 -0.006243 0.000000 0.000000 0.000000
# 3 -0.006243 -0.006243 0.009135 0.000000 0.000000 0.000000
# 4 0.000000 0.000000 0.000000 0.046599 0.000000 0.000000
# 5 0.000000 0.000000 0.000000 0.000000 0.046599 0.000000
# 6 0.000000 0.000000 0.000000 0.000000 0.000000 -0.060398
#
#
# Mechanical properties :
#
#
# Convention : Reuss Voigt Hill
#
# Bulk Modulus (GPa) = 47.49756 75.70462 61.60109
# Shear Modulus (GPa) = 28.09061 14.94539 21.51800
#
# Velocity S-wave (km/s) = 3.53738 2.58021 3.09601
# Velocity P-wave (km/s) = 6.15158 6.52683 6.34198
#
# Compressibility (1/GPa) = 0.02105371
#
# Stress axis : x y z
#
# Youngs Moduli (GPa) = 28.37664 28.37662 109.47428
#
# Poissons Ratio (x) = 0.47656 0.68348
# Poissons Ratio (y) = 0.47656 0.68348
# Poissons Ratio (z) = 0.17716 0.17716
#
# Static dielectric constant tensor:
#      x y z
#    x 4.024270 0.000000 0.000000 
#    y 0.000000 4.024270 0.000000 
#    z 0.000000 0.000000 4.263520 
# 
# 
# High freq. dielectric constant tensor:
#      x y z
#    x 1.873640 0.000000 0.000000 
#    y 0.000000 1.873640 0.000000 
#    z 0.000000 0.000000 1.861590 
# 
# From -- ./inp_files/5756.got.cif
#   From: 2010.03.12/outbox.cif.g09.slc.cpg/sg132_3_cif.got.tgz:5756.got - 2010.04.06 17:53:44.
