data_PCOD8316018
_publ_section_title
;
Structure prediction by ZEFSAII (Michael W. Deem and Ramdas Pophale) SiO2 
 PCOD8316018
Probable space group: P 42/M M C
;
_chemical_formula_sum "Si O2"
_cell_formula_units_Z 84
_cell_length_a 11.649905
_cell_length_b 11.649905
_cell_length_c 34.671877
_cell_angle_alpha 90.000000
_cell_angle_beta 90.000000
_cell_angle_gamma 90.000000
_cell_volume 4705.677080
_symmetry_space_group_name_H-M "P 42/M M C"
_symmetry_group_IT_number 131
_symmetry_cell_setting 'tetragonal'
loop_
_space_group_symop_operation_xyz
x,y,z
-x,-y,z
-y,x,1/2+z
y,-x,1/2+z
-x,y,-z
x,-y,-z
y,x,1/2-z
-y,-x,1/2-z
-x,-y,-z
x,y,-z
y,-x,1/2-z
-y,x,1/2-z
x,-y,z
-x,y,z
-y,-x,1/2+z
y,x,1/2+z
loop_
_atom_site_type_symbol
_atom_site_label
_atom_site_fract_x
_atom_site_fract_y
_atom_site_fract_z
Si Si1 0.000000 0.244205 0.402495
Si Si2 0.760867 0.368429 0.282604
Si Si3 0.000000 0.365857 0.320297
Si Si4 0.630105 0.632434 0.861009
Si Si5 0.630445 0.364438 0.500000
Si Si6 0.248335 0.750632 0.928751
Si Si7 0.240998 0.000000 0.455981
Si Si8 0.000000 0.000000 0.924990
O O1 0.000000 0.302749 0.361086
O O2 0.112845 0.274768 0.427677
O O3 0.000000 0.107276 0.395804
O O4 0.719001 0.281000 0.250000
O O5 0.759685 0.500000 0.267490
O O6 0.673529 0.354525 0.317627
O O7 0.888549 0.331903 0.295549
O O8 0.000000 0.500000 0.330330
O O9 0.662152 0.500000 0.863157
O O10 0.500000 0.654954 0.875212
O O11 0.717541 0.700586 0.887615
O O12 0.500000 0.316881 0.500000
O O13 0.629272 0.500000 0.500000
O O14 0.696339 0.323316 0.537690
O O15 0.115173 0.715724 0.934863
O O16 0.284236 0.000000 0.500000
O O17 0.104152 0.000000 0.454869
#
# Coordination Sequence:
#
# PCOD8316018 Si02
#       8
#     8  16   8  16   8  16   8   4
#     4  10  20  36  59  85 113 148 188 235 283 340
#     4  10  20  36  59  87 117 149 189 232 279 337
#     4  10  20  36  58  86 121 154 180 229 296 340
#     4  10  20  35  57  83 113 150 190 233 281 335
#     4  11  24  40  56  77 112 152 190 239 292 342
#     4  11  21  37  58  83 112 148 192 235 283 341
#     4  10  19  36  55  78 109 147 188 234 280 332
#     4   8  19  32  58  82 103 144 192 234 275 326
#
# _framework density 17.850778999999999
#
# number of rings (size 3 to 8) (size 9 to 14) (size 15 to 20)
#    0.000    1.810    2.857    1.857    0.000    3.619 
#    0.000    4.762    0.000    0.000    0.000    0.000 
#    0.000    0.000    0.000    0.000    0.000    0.000 
#
# Total GULP energy -1041565.219415 kJ/mol
# GULP energy per Si atom -12399.585945 kJ/mol
# Density = 1.781015 g / cm^3
# Si number density = 17.850779 Si / 1000 Ang^3
#
#
#
# Elastic Constant Matrix: (Units=GPa)
#
#
# Indices 1 2 3 4 5 6 
#
# 1 105.0509 53.1542 49.3617 0.0000 0.0000 0.0000
# 2 53.1542 105.0516 49.3617 0.0000 0.0000 0.0000
# 3 49.3617 49.3617 82.2640 0.0000 0.0000 0.0000
# 4 0.0000 0.0000 0.0000 27.0872 0.0000 0.0000
# 5 0.0000 0.0000 0.0000 0.0000 27.0875 0.0000
# 6 0.0000 0.0000 0.0000 0.0000 0.0000 25.8607
#
#
#
# Elastic Compliance Matrix: (Units=1/GPa)
#
#
# Indices 1 2 3 4 5 6 
#
# 1 0.014687 -0.004582 -0.006063 0.000000 0.000000 0.000000
# 2 -0.004582 0.014687 -0.006063 0.000000 0.000000 0.000000
# 3 -0.006063 -0.006063 0.019432 0.000000 0.000000 0.000000
# 4 0.000000 0.000000 0.000000 0.036918 0.000000 0.000000
# 5 0.000000 0.000000 0.000000 0.000000 0.036917 0.000000
# 6 0.000000 0.000000 0.000000 0.000000 0.000000 0.038669
#
#
# Mechanical properties :
#
#
# Convention : Reuss Voigt Hill
#
# Bulk Modulus (GPa) = 64.98267 66.23576 65.60921
# Shear Modulus (GPa) = 25.01808 25.37301 25.19555
#
# Velocity S-wave (km/s) = 3.74774 3.77423 3.76101
# Velocity P-wave (km/s) = 7.43032 7.49526 7.46286
#
# Compressibility (1/GPa) = 0.01538872
#
# Stress axis : x y z
#
# Youngs Moduli (GPa) = 68.08887 68.08949 51.46130
#
# Poissons Ratio (x) = 0.31201 0.31201
# Poissons Ratio (y) = 0.31200 0.31201
# Poissons Ratio (z) = 0.41283 0.41282
#
# Static dielectric constant tensor:
#      x y z
#    x 3.465730 0.000000 0.000000 
#    y 0.000000 3.465730 0.000000 
#    z 0.000000 0.000000 3.171050 
# 
# 
# High freq. dielectric constant tensor:
#      x y z
#    x 1.695040 0.000000 0.000000 
#    y 0.000000 1.695040 0.000000 
#    z 0.000000 0.000000 1.684480 
# 
# From -- ./inp_files/13630.got.cif
#   From: 2010.03.12/outbox.cif.g09.slc.cpg/sg131_7_cif.got.tgz:13630.got - 2010.04.06 17:36:35.
