data_PCOD8316969
_publ_section_title
;
Structure prediction by ZEFSAII (Michael W. Deem and Ramdas Pophale) SiO2 
 PCOD8316969
Probable space group: P 42/N B C
;
_chemical_formula_sum "Si O2"
_cell_formula_units_Z 112
_cell_length_a 14.446241
_cell_length_b 14.446241
_cell_length_c 28.430175
_cell_angle_alpha 90.000000
_cell_angle_beta 90.000000
_cell_angle_gamma 90.000000
_cell_volume 5933.203502
_symmetry_space_group_name_H-M "P 42/N B C"
_symmetry_group_IT_number 133
_space_group.IT_coordinate_system_code '2'
_symmetry_cell_setting 'tetragonal'
loop_
_space_group_symop_operation_xyz
x,y,z
1/2-y,x,1/2+z
1/2-x,1/2-y,z
y,1/2-x,1/2+z
x,1/2-y,-z
1/2-x,y,-z
y,x,1/2-z
1/2-y,1/2-x,1/2-z
-x,-y,-z
1/2+y,-x,1/2-z
1/2+x,1/2+y,-z
-y,1/2+x,1/2-z
-x,1/2+y,z
1/2+x,-y,z
-y,-x,1/2+z
1/2+y,1/2+x,1/2+z
loop_
_atom_site_type_symbol
_atom_site_label
_atom_site_fract_x
_atom_site_fract_y
_atom_site_fract_z
Si Si1 0.300372 0.604924 0.302028
Si Si2 0.884867 0.532342 0.926509
Si Si3 0.291381 0.488871 0.544394
Si Si4 0.586462 0.151351 0.515784
Si Si5 0.505531 0.870400 0.114838
Si Si6 0.301963 0.610623 0.194755
Si Si7 0.520730 0.683446 0.609346
O O1 0.337713 0.520095 0.332816
O O2 0.312645 0.574784 0.248022
O O3 0.193480 0.625645 0.313752
O O4 0.356978 0.697413 0.314159
O O5 0.788110 0.551649 0.900527
O O6 0.933184 0.631669 0.927293
O O7 0.946415 0.461473 0.896874
O O8 0.874611 0.495944 0.979793
O O9 0.250000 0.429721 0.500000
O O10 0.332372 0.577461 0.516580
O O11 0.211866 0.521451 0.579803
O O12 0.628460 0.250000 0.500000
O O13 0.547555 0.151755 0.568340
O O14 0.615135 0.890975 0.111321
O O15 0.326528 0.529005 0.159378
#
# Coordination Sequence:
#
# PCOD8316969 Si02
#       7
#    16  16  16  16  16  16  16
#     4   9  19  35  61  93 121 149 198 257 318 367
#     4  11  23  42  58  85 125 157 205 251 297 360
#     4  12  23  38  61  85 124 160 198 253 296 360
#     4  10  21  38  58  89 117 154 201 249 300 354
#     4  12  23  38  61  90 117 164 205 244 305 364
#     4   9  18  37  61  90 122 153 195 259 315 362
#     4  11  22  38  62  85 120 163 200 248 295 364
#
# _framework density 18.876816999999999
#
# number of rings (size 3 to 8) (size 9 to 14) (size 15 to 20)
#    0.000    1.429    4.286    3.000    0.000    1.429 
#    0.000    0.714    0.000    0.857    0.000    2.000 
#    0.000    0.000    0.000    0.000    0.000    0.000 
#
# Total GULP energy -1388837.749110 kJ/mol
# GULP energy per Si atom -12400.337046 kJ/mol
# Density = 1.883385 g / cm^3
# Si number density = 18.876817 Si / 1000 Ang^3
#
#
#
# Elastic Constant Matrix: (Units=GPa)
#
#
# Indices 1 2 3 4 5 6 
#
# 1 97.9914 49.7900 43.5705 0.0000 0.0000 0.0000
# 2 49.7900 97.9914 43.5705 0.0000 0.0000 0.0000
# 3 43.5705 43.5705 119.9945 0.0000 0.0000 0.0000
# 4 0.0000 0.0000 0.0000 25.6369 0.0000 0.0000
# 5 0.0000 0.0000 0.0000 0.0000 25.6369 0.0000
# 6 0.0000 0.0000 0.0000 0.0000 0.0000 16.7638
#
#
#
# Elastic Compliance Matrix: (Units=1/GPa)
#
#
# Indices 1 2 3 4 5 6 
#
# 1 0.014678 -0.006068 -0.003126 0.000000 0.000000 0.000000
# 2 -0.006068 0.014678 -0.003126 0.000000 0.000000 0.000000
# 3 -0.003126 -0.003126 0.010604 0.000000 0.000000 0.000000
# 4 0.000000 0.000000 0.000000 0.039006 0.000000 0.000000
# 5 0.000000 0.000000 0.000000 0.000000 0.039006 0.000000
# 6 0.000000 0.000000 0.000000 0.000000 0.000000 0.059652
#
#
# Mechanical properties :
#
#
# Convention : Reuss Voigt Hill
#
# Bulk Modulus (GPa) = 65.27840 65.53771 65.40806
# Shear Modulus (GPa) = 24.11109 25.54396 24.82753
#
# Velocity S-wave (km/s) = 3.57779 3.68257 3.63056
# Velocity P-wave (km/s) = 7.19192 7.27157 7.23186
#
# Compressibility (1/GPa) = 0.01531900
#
# Stress axis : x y z
#
# Youngs Moduli (GPa) = 68.12789 68.12789 94.30262
#
# Poissons Ratio (x) = 0.41340 0.29483
# Poissons Ratio (y) = 0.41340 0.29483
# Poissons Ratio (z) = 0.21300 0.21300
#
# Static dielectric constant tensor:
#      x y z
#    x 3.380320 0.000000 0.000000 
#    y 0.000000 3.380320 0.000000 
#    z 0.000000 0.000000 3.486910 
# 
# 
# High freq. dielectric constant tensor:
#      x y z
#    x 1.722980 0.000000 0.000000 
#    y 0.000000 1.722980 0.000000 
#    z 0.000000 0.000000 1.740740 
# 
# From -- ./inp_files/7667.got.cif
#   From: 2010.03.12/outbox.cif.g09.slc.cpg/sg133_4_cif.got.tgz:7667.got - 2010.04.06 18:08:06.
