data_PCOD8316066
_publ_section_title
;
Structure prediction by ZEFSAII (Michael W. Deem and Ramdas Pophale) SiO2 
 PCOD8316066
Probable space group: P 42/M M C
;
_chemical_formula_sum "Si O2"
_cell_formula_units_Z 104
_cell_length_a 25.336359
_cell_length_b 25.336359
_cell_length_c 9.231630
_cell_angle_alpha 90.000000
_cell_angle_beta 90.000000
_cell_angle_gamma 90.000000
_cell_volume 5926.070284
_symmetry_space_group_name_H-M "P 42/M M C"
_symmetry_group_IT_number 131
_symmetry_cell_setting 'tetragonal'
loop_
_space_group_symop_operation_xyz
x,y,z
-x,-y,z
-y,x,1/2+z
y,-x,1/2+z
-x,y,-z
x,-y,-z
y,x,1/2-z
-y,-x,1/2-z
-x,-y,-z
x,y,-z
y,-x,1/2-z
-y,x,1/2-z
x,-y,z
-x,y,z
-y,-x,1/2+z
y,x,1/2+z
loop_
_atom_site_type_symbol
_atom_site_label
_atom_site_fract_x
_atom_site_fract_y
_atom_site_fract_z
Si Si1 0.152269 0.701578 0.662347
Si Si2 0.415668 0.113035 0.161654
Si Si3 0.442276 0.212264 0.666555
Si Si4 0.253858 0.670443 0.826949
Si Si5 0.943243 0.126601 0.839814
Si Si6 0.000000 0.562044 0.337694
Si Si7 0.941142 0.749269 0.838667
O O1 0.166405 0.722392 0.500000
O O2 0.130879 0.643507 0.651777
O O3 0.204035 0.703278 0.764303
O O4 0.104609 0.734773 0.727713
O O5 0.446905 0.156520 0.252386
O O6 0.418590 0.054782 0.237388
O O7 0.440794 0.109861 0.000000
O O8 0.432946 0.198310 0.500000
O O9 0.500000 0.240721 0.689676
O O10 0.392164 0.248314 0.716149
O O11 0.306720 0.693281 0.750000
O O12 0.257537 0.678250 0.000000
O O13 0.894796 0.105205 0.750000
O O14 0.939836 0.188653 0.846516
O O15 0.000000 0.109640 0.772657
O O16 0.938529 0.102922 0.000000
O O17 0.000000 0.500000 0.335522
O O18 0.000000 0.585530 0.500000
O O19 0.000000 0.730347 0.787366
O O20 0.929811 0.726054 0.000000
#
# Coordination Sequence:
#
# PCOD8316066 Si02
#       7
#    16  16  16  16  16   8  16
#     4  10  20  32  49  72  97 127 166 207 251 296
#     4   9  18  30  45  66  93 126 165 207 247 291
#     4   9  18  33  52  73  99 131 165 203 248 296
#     4  10  20  35  54  75 104 135 168 207 248 297
#     4   9  19  35  52  70  91 113 139 174 218 274
#     4   9  16  26  41  61  87 121 159 201 248 285
#     4   9  19  35  51  67  92 126 162 202 249 298
#
# _framework density 17.549571
#
# number of rings (size 3 to 8) (size 9 to 14) (size 15 to 20)
#    0.000    2.692    0.000    2.308    1.077    4.154 
#    0.000    4.231    0.000    1.385    0.000    0.000 
#    0.000    0.308    0.000    3.846    0.000    0.000 
#
# Total GULP energy -1288387.106349 kJ/mol
# GULP energy per Si atom -12388.337561 kJ/mol
# Density = 1.750963 g / cm^3
# Si number density = 17.549571 Si / 1000 Ang^3
#
#
#
# Elastic Constant Matrix: (Units=GPa)
#
#
# Indices 1 2 3 4 5 6 
#
# 1 73.8629 44.1923 36.7932 0.0000 0.0000 0.0000
# 2 44.1923 73.8632 36.7936 0.0000 0.0000 0.0000
# 3 36.7932 36.7936 75.8777 0.0000 0.0000 0.0000
# 4 0.0000 0.0000 0.0000 24.1699 0.0000 0.0000
# 5 0.0000 0.0000 0.0000 0.0000 24.1665 0.0000
# 6 0.0000 0.0000 0.0000 0.0000 0.0000 65.5741
#
#
#
# Elastic Compliance Matrix: (Units=1/GPa)
#
#
# Indices 1 2 3 4 5 6 
#
# 1 0.022922 -0.010782 -0.005887 0.000000 0.000000 0.000000
# 2 -0.010782 0.022922 -0.005887 0.000000 0.000000 0.000000
# 3 -0.005887 -0.005887 0.018888 0.000000 0.000000 0.000000
# 4 0.000000 0.000000 0.000000 0.041374 0.000000 0.000000
# 5 0.000000 0.000000 0.000000 0.000000 0.041380 0.000000
# 6 0.000000 0.000000 0.000000 0.000000 0.000000 0.015250
#
#
# Mechanical properties :
#
#
# Convention : Reuss Voigt Hill
#
# Bulk Modulus (GPa) = 50.96548 51.01801 50.99175
# Shear Modulus (GPa) = 23.32254 29.83709 26.57981
#
# Velocity S-wave (km/s) = 3.64943 4.12777 3.89595
# Velocity P-wave (km/s) = 6.84556 7.20083 7.02544
#
# Compressibility (1/GPa) = 0.01962112
#
# Stress axis : x y z
#
# Youngs Moduli (GPa) = 43.62709 43.62704 52.94348
#
# Poissons Ratio (x) = 0.47037 0.31166
# Poissons Ratio (y) = 0.47037 0.31167
# Poissons Ratio (z) = 0.25682 0.25682
#
# Static dielectric constant tensor:
#      x y z
#    x 7.185690 0.000000 0.000000 
#    y 0.000000 7.180310 0.000000 
#    z 0.000000 0.000000 3.568420 
# 
# 
# High freq. dielectric constant tensor:
#      x y z
#    x 1.665850 0.000000 0.000000 
#    y 0.000000 1.665850 0.000000 
#    z 0.000000 0.000000 1.672570 
# 
# From -- ./inp_files/2553.got.cif
#   From: 2010.03.12/outbox.cif.g09.slc.cpg/sg131_2_cif.got.tgz:2553.got - 2010.04.06 17:36:35.
