data_PCOD8316491
_publ_section_title
;
Structure prediction by ZEFSAII (Michael W. Deem and Ramdas Pophale) SiO2 
 PCOD8316491
Probable space group: P 42/M C M
;
_chemical_formula_sum "Si O2"
_cell_formula_units_Z 112
_cell_length_a 15.443448
_cell_length_b 15.443448
_cell_length_c 25.593925
_cell_angle_alpha 90.000000
_cell_angle_beta 90.000000
_cell_angle_gamma 90.000000
_cell_volume 6104.153317
_symmetry_space_group_name_H-M "P 42/M C M"
_symmetry_group_IT_number 132
_symmetry_cell_setting 'tetragonal'
loop_
_space_group_symop_operation_xyz
x,y,z
-y,x,1/2+z
-x,-y,z
y,-x,1/2+z
x,-y,1/2-z
-x,y,1/2-z
y,x,-z
-y,-x,-z
-x,-y,-z
y,-x,1/2-z
x,y,-z
-y,x,1/2-z
-x,y,1/2+z
x,-y,1/2+z
-y,-x,z
y,x,z
loop_
_atom_site_type_symbol
_atom_site_label
_atom_site_fract_x
_atom_site_fract_y
_atom_site_fract_z
Si Si1 0.677888 0.458393 0.697050
Si Si2 0.261556 0.125372 0.500000
Si Si3 0.544348 0.216594 0.109689
Si Si4 0.922962 0.316508 0.892963
Si Si5 0.218254 0.919762 0.211105
Si Si6 0.181817 0.681561 0.709977
Si Si7 0.062809 0.429493 0.143861
Si Si8 0.730852 0.408235 0.000000
O O1 0.640708 0.500000 0.750000
O O2 0.602176 0.397825 0.672592
O O3 0.709464 0.528293 0.653832
O O4 0.758783 0.402003 0.716932
O O5 0.168972 0.168972 0.500000
O O6 0.265666 0.069631 0.447324
O O7 0.339411 0.192775 0.500000
O O8 0.638920 0.171915 0.116027
O O9 0.470647 0.143964 0.114368
O O10 0.534476 0.260721 0.052647
O O11 0.944961 0.250461 0.846406
O O12 0.997097 0.389141 0.898216
O O13 0.124543 0.875458 0.206405
O O14 0.288628 0.852281 0.233788
O O15 0.207979 0.000000 0.250000
O O16 0.238359 0.761642 0.684462
O O17 0.096680 0.650677 0.678621
O O18 0.000000 0.500000 0.174525
O O19 0.637682 0.362318 0.000000
#
# Coordination Sequence:
#
# PCOD8316491 Si02
#       8
#    16   8  16  16  16  16  16   8
#     4  10  20  34  51  72 100 135 176 219 265 315
#     4   9  18  31  49  74 103 137 174 213 258 314
#     4   9  19  33  52  76 103 134 173 214 268 319
#     4  10  18  32  51  77 107 135 171 213 268 316
#     4  11  21  33  51  75 105 138 174 211 254 310
#     4   9  18  33  50  72 104 141 173 208 260 326
#     4   9  17  30  50  79 106 132 167 218 271 312
#     4   9  18  33  52  73 101 137 173 216 261 319
#
# _framework density 18.348164000000001
#
# number of rings (size 3 to 8) (size 9 to 14) (size 15 to 20)
#    0.000    2.429    1.429    1.286    0.000    2.000 
#    0.000    5.357    0.000    0.429    0.000    3.000 
#    0.000    3.429    0.000    0.000    0.000    0.000 
#
# Total GULP energy -1387672.169627 kJ/mol
# GULP energy per Si atom -12389.930086 kJ/mol
# Density = 1.830640 g / cm^3
# Si number density = 18.348164 Si / 1000 Ang^3
#
#
#
# Elastic Constant Matrix: (Units=GPa)
#
#
# Indices 1 2 3 4 5 6 
#
# 1 61.0465 30.6731 43.6166 0.0000 0.0000 0.0000
# 2 30.6731 61.0466 43.6164 0.0000 0.0000 0.0000
# 3 43.6166 43.6164 140.5866 0.0000 0.0000 0.0000
# 4 0.0000 0.0000 0.0000 19.7654 0.0000 0.0000
# 5 0.0000 0.0000 0.0000 0.0000 19.7655 0.0000
# 6 0.0000 0.0000 0.0000 0.0000 0.0000 25.8168
#
#
#
# Elastic Compliance Matrix: (Units=1/GPa)
#
#
# Indices 1 2 3 4 5 6 
#
# 1 0.024195 -0.008728 -0.004798 0.000000 0.000000 0.000000
# 2 -0.008728 0.024195 -0.004798 0.000000 0.000000 0.000000
# 3 -0.004798 -0.004798 0.010090 0.000000 0.000000 0.000000
# 4 0.000000 0.000000 0.000000 0.050593 0.000000 0.000000
# 5 0.000000 0.000000 0.000000 0.000000 0.050593 0.000000
# 6 0.000000 0.000000 0.000000 0.000000 0.000000 0.038735
#
#
# Mechanical properties :
#
#
# Convention : Reuss Voigt Hill
#
# Bulk Modulus (GPa) = 45.80910 55.38800 50.59855
# Shear Modulus (GPa) = 20.63313 22.72111 21.67712
#
# Velocity S-wave (km/s) = 3.35704 3.52281 3.44093
# Velocity P-wave (km/s) = 6.32828 6.84103 6.58964
#
# Compressibility (1/GPa) = 0.02182972
#
# Stress axis : x y z
#
# Youngs Moduli (GPa) = 41.33086 41.33100 99.10368
#
# Poissons Ratio (x) = 0.36076 0.47554
# Poissons Ratio (y) = 0.36075 0.47554
# Poissons Ratio (z) = 0.19832 0.19832
#
# Static dielectric constant tensor:
#      x y z
#    x 3.384830 0.000000 0.000000 
#    y 0.000000 3.384830 0.000000 
#    z 0.000000 0.000000 3.313540 
# 
# 
# High freq. dielectric constant tensor:
#      x y z
#    x 1.702580 0.000000 0.000000 
#    y 0.000000 1.702580 0.000000 
#    z 0.000000 0.000000 1.690610 
# 
# From -- ./inp_files/10105.got.cif
#   From: 2010.03.12/outbox.cif.g09.slc.cpg/sg132_6_cif.got.tgz:10105.got - 2010.04.06 17:53:44.
