data_PCOD8316410
_publ_section_title
;
Structure prediction by ZEFSAII (Michael W. Deem and Ramdas Pophale) SiO2 
 PCOD8316410
Probable space group: P 42/M C M
;
_chemical_formula_sum "Si O2"
_cell_formula_units_Z 104
_cell_length_a 14.890171
_cell_length_b 14.890171
_cell_length_c 23.722783
_cell_angle_alpha 90.000000
_cell_angle_beta 90.000000
_cell_angle_gamma 90.000000
_cell_volume 5259.748843
_symmetry_space_group_name_H-M "P 42/M C M"
_symmetry_group_IT_number 132
_symmetry_cell_setting 'tetragonal'
loop_
_space_group_symop_operation_xyz
x,y,z
-y,x,1/2+z
-x,-y,z
y,-x,1/2+z
x,-y,1/2-z
-x,y,1/2-z
y,x,-z
-y,-x,-z
-x,-y,-z
y,-x,1/2-z
x,y,-z
-y,x,1/2-z
-x,y,1/2+z
x,-y,1/2+z
-y,-x,z
y,x,z
loop_
_atom_site_type_symbol
_atom_site_label
_atom_site_fract_x
_atom_site_fract_y
_atom_site_fract_z
Si Si1 0.449304 0.301877 0.565990
Si Si2 0.764048 0.000000 0.250000
Si Si3 0.817653 0.669631 0.634039
Si Si4 0.817678 0.666915 0.756958
Si Si5 0.381736 0.765050 0.628477
Si Si6 0.116310 0.261939 0.061792
Si Si7 0.957291 0.188455 0.130010
O O1 0.470391 0.299488 0.500000
O O2 0.391904 0.391904 0.581445
O O3 0.395148 0.212444 0.583499
O O4 0.541015 0.296744 0.600841
O O5 0.701715 0.917596 0.231221
O O6 0.826478 0.975411 0.303461
O O7 0.753974 0.753974 0.638629
O O8 0.814730 0.619353 0.695076
O O9 0.914116 0.712209 0.620840
O O10 0.752279 0.752279 0.757994
O O11 0.792281 0.595762 0.806478
O O12 0.293515 0.706486 0.630974
O O13 0.355161 0.855666 0.593692
O O14 0.206623 0.206623 0.053366
O O15 0.047959 0.196017 0.094527
O O16 0.076898 0.287295 0.000000
O O17 0.894336 0.105665 0.108776
#
# Coordination Sequence:
#
# PCOD8316410 Si02
#       7
#    16   8  16  16  16  16  16
#     4  10  21  37  58  83 110 141 185 239 287 340
#     4  10  16  30  54  80 110 140 184 238 278 332
#     4   8  17  34  54  79 109 142 179 224 283 343
#     4   9  17  31  55  81 108 147 187 224 277 345
#     4  10  20  36  58  82 111 149 186 227 289 353
#     4  10  21  36  52  73 108 152 192 228 274 340
#     4  10  20  33  54  80 108 144 188 237 283 329
#
# _framework density 19.772805999999999
#
# number of rings (size 3 to 8) (size 9 to 14) (size 15 to 20)
#    0.000    2.462    1.538    1.846    0.000    3.692 
#    0.000    3.846    0.000    4.846    0.000    4.308 
#    0.000    0.000    0.000    0.000    0.000    0.000 
#
# Total GULP energy -1288391.876900 kJ/mol
# GULP energy per Si atom -12388.383432 kJ/mol
# Density = 1.972780 g / cm^3
# Si number density = 19.772806 Si / 1000 Ang^3
#
#
#
# Elastic Constant Matrix: (Units=GPa)
#
#
# Indices 1 2 3 4 5 6 
#
# 1 48.8449 13.8961 20.0153 0.0000 0.0000 0.0000
# 2 13.8961 48.8449 20.0153 0.0000 0.0000 0.0000
# 3 20.0153 20.0153 75.1597 0.0000 0.0000 0.0000
# 4 0.0000 0.0000 0.0000 27.7645 0.0000 0.0000
# 5 0.0000 0.0000 0.0000 0.0000 27.7645 0.0000
# 6 0.0000 0.0000 0.0000 0.0000 0.0000 23.8756
#
#
#
# Elastic Compliance Matrix: (Units=1/GPa)
#
#
# Indices 1 2 3 4 5 6 
#
# 1 0.023907 -0.004706 -0.005113 0.000000 0.000000 0.000000
# 2 -0.004706 0.023907 -0.005113 0.000000 0.000000 0.000000
# 3 -0.005113 -0.005113 0.016028 0.000000 0.000000 0.000000
# 4 0.000000 0.000000 0.000000 0.036017 0.000000 0.000000
# 5 0.000000 0.000000 0.000000 0.000000 0.036017 0.000000
# 6 0.000000 0.000000 0.000000 0.000000 0.000000 0.041884
#
#
# Mechanical properties :
#
#
# Convention : Reuss Voigt Hill
#
# Bulk Modulus (GPa) = 29.43151 31.18919 30.31035
# Shear Modulus (GPa) = 22.83606 23.80911 23.32258
#
# Velocity S-wave (km/s) = 3.40210 3.47383 3.43815
# Velocity P-wave (km/s) = 5.50904 5.64783 5.57887
#
# Compressibility (1/GPa) = 0.03397719
#
# Stress axis : x y z
#
# Youngs Moduli (GPa) = 41.82852 41.82852 62.38935
#
# Poissons Ratio (x) = 0.19685 0.31901
# Poissons Ratio (y) = 0.19685 0.31901
# Poissons Ratio (z) = 0.21388 0.21388
#
# Static dielectric constant tensor:
#      x y z
#    x 3.400000 0.000000 0.000000 
#    y 0.000000 3.400000 0.000000 
#    z 0.000000 0.000000 3.973430 
# 
# 
# High freq. dielectric constant tensor:
#      x y z
#    x 1.746480 0.000000 0.000000 
#    y 0.000000 1.746480 0.000000 
#    z 0.000000 0.000000 1.783800 
# 
# From -- ./inp_files/9128.got.cif
#   From: 2010.03.12/outbox.cif.g09.slc.cpg/sg132_5_cif.got.tgz:9128.got - 2010.04.06 17:53:44.
