data_PCOD8316237
_publ_section_title
;
Structure prediction by ZEFSAII (Michael W. Deem and Ramdas Pophale) SiO2 
 PCOD8316237
Probable space group: P 42/M M C
;
_chemical_formula_sum "Si O2"
_cell_formula_units_Z 96
_cell_length_a 25.201982
_cell_length_b 25.201982
_cell_length_c 9.278996
_cell_angle_alpha 90.000000
_cell_angle_beta 90.000000
_cell_angle_gamma 90.000000
_cell_volume 5893.460561
_symmetry_space_group_name_H-M "P 42/M M C"
_symmetry_group_IT_number 131
_symmetry_cell_setting 'tetragonal'
loop_
_space_group_symop_operation_xyz
x,y,z
-x,-y,z
-y,x,1/2+z
y,-x,1/2+z
-x,y,-z
x,-y,-z
y,x,1/2-z
-y,-x,1/2-z
-x,-y,-z
x,y,-z
y,-x,1/2-z
-y,x,1/2-z
x,-y,z
-x,y,z
-y,-x,1/2+z
y,x,1/2+z
loop_
_atom_site_type_symbol
_atom_site_label
_atom_site_fract_x
_atom_site_fract_y
_atom_site_fract_z
Si Si1 0.745876 0.329625 0.835652
Si Si2 0.937694 0.137581 0.333704
Si Si3 0.938598 0.242483 0.166843
Si Si4 0.868728 0.341223 0.831560
Si Si5 0.861414 0.558129 0.667632
Si Si6 0.556476 0.245595 0.663968
O O1 0.714033 0.285968 0.750000
O O2 0.807618 0.329651 0.789457
O O3 0.721359 0.389228 0.807193
O O4 0.740068 0.312682 0.000000
O O5 0.910232 0.089769 0.250000
O O6 0.920043 0.137836 0.500000
O O7 0.920243 0.192893 0.262341
O O8 0.000000 0.128562 0.316764
O O9 0.904213 0.292169 0.220333
O O10 0.000000 0.256333 0.192547
O O11 0.927359 0.228945 0.000000
O O12 0.890714 0.394090 0.751523
O O13 0.875551 0.351184 0.000000
O O14 0.860509 0.572338 0.500000
O O15 0.888646 0.500000 0.693282
O O16 0.801698 0.554639 0.723794
O O17 0.561208 0.222727 0.500000
O O18 0.500000 0.277846 0.679107
#
# Coordination Sequence:
#
# PCOD8316237 Si02
#       6
#    16  16  16  16  16  16
#     4   9  17  27  39  59  88 116 140 170 210 258
#     4  10  21  36  54  76 100 125 153 186 227 274
#     4   9  18  34  54  72  91 117 153 196 232 264
#     4   9  18  31  46  65  88 118 153 183 221 272
#     4   9  16  25  40  64  89 112 144 186 227 265
#     4   8  14  26  42  57  77 110 149 183 216 257
#
# _framework density 16.289241000000001
#
# number of rings (size 3 to 8) (size 9 to 14) (size 15 to 20)
#    0.000    3.000    0.000    2.000    0.000    6.167 
#    0.000    2.500    0.000    0.500    0.000    3.500 
#    0.000    0.333    0.000    4.167    0.000    0.167 
#
# Total GULP energy -1189379.983703 kJ/mol
# GULP energy per Si atom -12389.374830 kJ/mol
# Density = 1.625217 g / cm^3
# Si number density = 16.289241 Si / 1000 Ang^3
#
#
#
# Elastic Constant Matrix: (Units=GPa)
#
#
# Indices 1 2 3 4 5 6 
#
# 1 76.4623 51.6315 44.9896 0.0000 0.0000 0.0000
# 2 51.6315 76.4776 44.9914 0.0000 0.0000 0.0000
# 3 44.9896 44.9914 77.7166 0.0000 0.0000 0.0000
# 4 0.0000 0.0000 0.0000 24.1928 0.0000 0.0000
# 5 0.0000 0.0000 0.0000 0.0000 24.1922 0.0000
# 6 0.0000 0.0000 0.0000 0.0000 0.0000 2.1365
#
#
#
# Elastic Compliance Matrix: (Units=1/GPa)
#
#
# Indices 1 2 3 4 5 6 
#
# 1 0.026712 -0.013552 -0.007618 0.000000 0.000000 0.000000
# 2 -0.013552 0.026705 -0.007615 0.000000 0.000000 0.000000
# 3 -0.007618 -0.007615 0.021685 0.000000 0.000000 0.000000
# 4 0.000000 0.000000 0.000000 0.041335 0.000000 0.000000
# 5 0.000000 0.000000 0.000000 0.000000 0.041336 0.000000
# 6 0.000000 0.000000 0.000000 0.000000 0.000000 0.468061
#
#
# Mechanical properties :
#
#
# Convention : Reuss Voigt Hill
#
# Bulk Modulus (GPa) = 57.03550 57.09793 57.06671
# Shear Modulus (GPa) = 7.25431 16.04056 11.64743
#
# Velocity S-wave (km/s) = 2.11261 3.14145 2.67692
# Velocity P-wave (km/s) = 6.40633 6.94888 6.68311
#
# Compressibility (1/GPa) = 0.01753294
#
# Stress axis : x y z
#
# Youngs Moduli (GPa) = 37.43699 37.44672 46.11439
#
# Poissons Ratio (x) = 0.50748 0.35128
# Poissons Ratio (y) = 0.50735 0.35114
# Poissons Ratio (z) = 0.28518 0.28514
#
# Static dielectric constant tensor:
#      x y z
#    x 3.117840 0.000000 0.000000 
#    y 0.000000 3.117840 0.000000 
#    z 0.000000 0.000000 3.115140 
# 
# 
# High freq. dielectric constant tensor:
#      x y z
#    x 1.608670 0.000000 0.000000 
#    y 0.000000 1.608670 0.000000 
#    z 0.000000 0.000000 1.632310 
# 
# From -- ./inp_files/2175.got.cif
#   From: 2010.03.12/outbox.cif.g09.slc.cpg/sg131_2_cif.got.tgz:2175.got - 2010.04.06 17:36:35.
