data_PCOD8316372
_publ_section_title
;
Structure prediction by ZEFSAII (Michael W. Deem and Ramdas Pophale) SiO2 
 PCOD8316372
Probable space group: P 42/M M C
;
_chemical_formula_sum "Si O2"
_cell_formula_units_Z 96
_cell_length_a 24.257822
_cell_length_b 24.257822
_cell_length_c 9.552710
_cell_angle_alpha 90.000000
_cell_angle_beta 90.000000
_cell_angle_gamma 90.000000
_cell_volume 5621.215092
_symmetry_space_group_name_H-M "P 42/M M C"
_symmetry_group_IT_number 131
_symmetry_cell_setting 'tetragonal'
loop_
_space_group_symop_operation_xyz
x,y,z
-x,-y,z
-y,x,1/2+z
y,-x,1/2+z
-x,y,-z
x,-y,-z
y,x,1/2-z
-y,-x,1/2-z
-x,-y,-z
x,y,-z
y,-x,1/2-z
-y,x,1/2-z
x,-y,z
-x,y,z
-y,-x,1/2+z
y,x,1/2+z
loop_
_atom_site_type_symbol
_atom_site_label
_atom_site_fract_x
_atom_site_fract_y
_atom_site_fract_z
Si Si1 0.349963 0.855543 0.333359
Si Si2 0.060817 0.561197 0.166543
Si Si3 0.563714 0.640276 0.337428
Si Si4 0.270049 0.347016 0.835936
Si Si5 0.063778 0.862958 0.155974
Si Si6 0.061043 0.740667 0.166859
O O1 0.350646 0.855171 0.500000
O O2 0.401750 0.889802 0.272836
O O3 0.352362 0.792632 0.279503
O O4 0.296979 0.889052 0.276212
O O5 0.070099 0.500000 0.225738
O O6 0.000000 0.582988 0.212676
O O7 0.063339 0.561150 0.000000
O O8 0.590379 0.590379 0.250000
O O9 0.568626 0.624326 0.500000
O O10 0.500000 0.648123 0.292962
O O11 0.595750 0.697584 0.306812
O O12 0.297695 0.297695 0.750000
O O13 0.271697 0.332020 0.000000
O O14 0.092694 0.907307 0.250000
O O15 0.073287 0.802209 0.220322
O O16 0.000000 0.877817 0.153086
O O17 0.088588 0.866016 0.000000
O O18 0.000000 0.721175 0.219665
O O19 0.059709 0.739902 0.000000
#
# Coordination Sequence:
#
# PCOD8316372 Si02
#       6
#    16  16  16  16  16  16
#     4   9  15  23  39  60  81 112 150 178 205 250
#     4   8  13  20  31  53  87 119 142 170 211 253
#     4   9  18  32  48  66  90 118 145 176 215 255
#     4   9  18  31  45  63  88 116 145 177 213 252
#     4   9  18  31  45  62  84 109 138 173 213 257
#     4   8  14  25  40  58  81 108 139 176 214 250
#
# _framework density 17.078157999999998
#
# number of rings (size 3 to 8) (size 9 to 14) (size 15 to 20)
#    0.000    3.333    0.000    2.000    0.000    4.333 
#    0.000    5.000    0.000    0.000    0.000    0.000 
#    0.000    2.000    0.000    1.833    0.000    3.167 
#
# Total GULP energy -1189604.261783 kJ/mol
# GULP energy per Si atom -12391.711060 kJ/mol
# Density = 1.703929 g / cm^3
# Si number density = 17.078158 Si / 1000 Ang^3
#
#
#
# Elastic Constant Matrix: (Units=GPa)
#
#
# Indices 1 2 3 4 5 6 
#
# 1 134.9001 78.0891 31.5024 0.0000 0.0000 0.0000
# 2 78.0891 134.8884 31.5031 0.0000 0.0000 0.0000
# 3 31.5024 31.5031 25.0893 0.0000 0.0000 0.0000
# 4 0.0000 0.0000 0.0000 14.4454 0.0000 0.0000
# 5 0.0000 0.0000 0.0000 0.0000 14.4461 0.0000
# 6 0.0000 0.0000 0.0000 0.0000 0.0000 13.9646
#
#
#
# Elastic Compliance Matrix: (Units=1/GPa)
#
#
# Indices 1 2 3 4 5 6 
#
# 1 0.012536 -0.005067 -0.009378 0.000000 0.000000 0.000000
# 2 -0.005067 0.012538 -0.009381 0.000000 0.000000 0.000000
# 3 -0.009378 -0.009381 0.063411 0.000000 0.000000 0.000000
# 4 0.000000 0.000000 0.000000 0.069226 0.000000 0.000000
# 5 0.000000 0.000000 0.000000 0.000000 0.069223 0.000000
# 6 0.000000 0.000000 0.000000 0.000000 0.000000 0.071610
#
#
# Mechanical properties :
#
#
# Convention : Reuss Voigt Hill
#
# Bulk Modulus (GPa) = 24.48954 64.11856 44.30405
# Shear Modulus (GPa) = 13.89636 18.82343 16.35990
#
# Velocity S-wave (km/s) = 2.85562 3.32353 3.09842
# Velocity P-wave (km/s) = 5.02430 7.23557 6.22885
#
# Compressibility (1/GPa) = 0.04083377
#
# Stress axis : x y z
#
# Youngs Moduli (GPa) = 79.77003 79.75875 15.77008
#
# Poissons Ratio (x) = 0.40415 0.14789
# Poissons Ratio (y) = 0.40420 0.14793
# Poissons Ratio (z) = 0.74808 0.74819
#
# Static dielectric constant tensor:
#      x y z
#    x 3.391150 0.000000 0.000000 
#    y 0.000000 3.391150 0.000000 
#    z 0.000000 0.000000 2.668970 
# 
# 
# High freq. dielectric constant tensor:
#      x y z
#    x 1.665380 0.000000 0.000000 
#    y 0.000000 1.665380 0.000000 
#    z 0.000000 0.000000 1.595780 
# 
# From -- ./inp_files/2220.got.cif
#   From: 2010.03.12/outbox.cif.g09.slc.cpg/sg131_2_cif.got.tgz:2220.got - 2010.04.06 17:36:35.
