data_PCOD8316379
_publ_section_title
;
Structure prediction by ZEFSAII (Michael W. Deem and Ramdas Pophale) SiO2 
 PCOD8316379
Probable space group: P 42/M M C
;
_chemical_formula_sum "Si O2"
_cell_formula_units_Z 96
_cell_length_a 22.994272
_cell_length_b 22.994272
_cell_length_c 10.065382
_cell_angle_alpha 90.000000
_cell_angle_beta 90.000000
_cell_angle_gamma 90.000000
_cell_volume 5321.935301
_symmetry_space_group_name_H-M "P 42/M M C"
_symmetry_group_IT_number 131
_symmetry_cell_setting 'tetragonal'
loop_
_space_group_symop_operation_xyz
x,y,z
-x,-y,z
-y,x,1/2+z
y,-x,1/2+z
-x,y,-z
x,-y,-z
y,x,1/2-z
-y,-x,1/2-z
-x,-y,-z
x,y,-z
y,-x,1/2-z
-y,x,1/2-z
x,-y,z
-x,y,z
-y,-x,1/2+z
y,x,1/2+z
loop_
_atom_site_type_symbol
_atom_site_label
_atom_site_fract_x
_atom_site_fract_y
_atom_site_fract_z
Si Si1 0.642389 0.432103 0.848188
Si Si2 0.771916 0.568900 0.145987
Si Si3 0.064498 0.321588 0.345283
Si Si4 0.155493 0.772186 0.652979
Si Si5 0.873739 0.063879 0.145185
Si Si6 0.566262 0.869322 0.847612
O O1 0.598760 0.401241 0.750000
O O2 0.639008 0.500000 0.817491
O O3 0.707428 0.407761 0.821369
O O4 0.624266 0.419226 0.000000
O O5 0.768899 0.500000 0.142794
O O6 0.816257 0.589796 0.258531
O O7 0.792010 0.591497 0.000000
O O8 0.061205 0.306523 0.500000
O O9 0.119186 0.283624 0.289706
O O10 0.076943 0.390262 0.321973
O O11 0.000000 0.308403 0.282632
O O12 0.210052 0.789949 0.750000
O O13 0.177695 0.762699 0.500000
O O14 0.109106 0.822723 0.659729
O O15 0.924529 0.075471 0.250000
O O16 0.847082 0.000000 0.169325
O O17 0.902467 0.068624 0.000000
O O18 0.500000 0.887955 0.810509
O O19 0.569488 0.848459 0.000000
#
# Coordination Sequence:
#
# PCOD8316379 Si02
#       6
#    16  16  16  16  16  16
#     4   9  18  31  46  66  92 124 164 208 256 311
#     4   8  15  30  49  65  86 120 158 193 233 285
#     4   9  17  30  50  75 102 132 163 195 236 290
#     4   9  17  31  50  68  88 119 158 195 230 269
#     4   9  17  28  42  60  81 107 141 179 217 259
#     4   9  17  29  48  75 101 124 156 199 243 287
#
# _framework density 18.038550000000001
#
# number of rings (size 3 to 8) (size 9 to 14) (size 15 to 20)
#    0.000    3.167    0.000    1.500    0.000    4.000 
#    0.000    6.667    0.000    7.000    0.000    2.333 
#    0.000    0.000    0.000    0.000    0.000    0.000 
#
# Total GULP energy -1189293.844696 kJ/mol
# GULP energy per Si atom -12388.477549 kJ/mol
# Density = 1.799749 g / cm^3
# Si number density = 18.038550 Si / 1000 Ang^3
#
#
#
# Elastic Constant Matrix: (Units=GPa)
#
#
# Indices 1 2 3 4 5 6 
#
# 1 73.8653 34.1845 37.0388 0.0000 0.0000 0.0000
# 2 34.1845 73.8624 37.0408 0.0000 0.0000 0.0000
# 3 37.0388 37.0408 70.7920 0.0000 0.0000 0.0000
# 4 0.0000 0.0000 0.0000 21.5193 0.0000 0.0000
# 5 0.0000 0.0000 0.0000 0.0000 21.5192 0.0000
# 6 0.0000 0.0000 0.0000 0.0000 0.0000 6.4650
#
#
#
# Elastic Compliance Matrix: (Units=1/GPa)
#
#
# Indices 1 2 3 4 5 6 
#
# 1 0.019816 -0.005385 -0.007551 0.000000 0.000000 0.000000
# 2 -0.005385 0.019818 -0.007552 0.000000 0.000000 0.000000
# 3 -0.007551 -0.007552 0.022028 0.000000 0.000000 0.000000
# 4 0.000000 0.000000 0.000000 0.046470 0.000000 0.000000
# 5 0.000000 0.000000 0.000000 0.000000 0.046470 0.000000
# 6 0.000000 0.000000 0.000000 0.000000 0.000000 0.154678
#
#
# Mechanical properties :
#
#
# Convention : Reuss Voigt Hill
#
# Bulk Modulus (GPa) = 48.33856 48.33867 48.33861
# Shear Modulus (GPa) = 13.99965 17.25106 15.62536
#
# Velocity S-wave (km/s) = 2.78887 3.09584 2.94635
# Velocity P-wave (km/s) = 6.10131 6.29560 6.19921
#
# Compressibility (1/GPa) = 0.02068742
#
# Stress axis : x y z
#
# Youngs Moduli (GPa) = 50.46341 50.45884 45.39699
#
# Poissons Ratio (x) = 0.27171 0.34277
# Poissons Ratio (y) = 0.27174 0.34285
# Poissons Ratio (z) = 0.38102 0.38107
#
# Static dielectric constant tensor:
#      x y z
#    x 3.334240 0.000000 0.000000 
#    y 0.000000 3.334230 0.000000 
#    z 0.000000 0.000000 3.558650 
# 
# 
# High freq. dielectric constant tensor:
#      x y z
#    x 1.685930 0.000000 0.000000 
#    y 0.000000 1.685930 0.000000 
#    z 0.000000 0.000000 1.681310 
# 
# From -- ./inp_files/2239.got.cif
#   From: 2010.03.12/outbox.cif.g09.slc.cpg/sg131_2_cif.got.tgz:2239.got - 2010.04.06 17:36:35.
