data_PCOD8316620
_publ_section_title
;
Structure prediction by ZEFSAII (Michael W. Deem and Ramdas Pophale) SiO2 
 PCOD8316620
Probable space group: P 42/M C M
;
_chemical_formula_sum "Si O2"
_cell_formula_units_Z 88
_cell_length_a 12.698839
_cell_length_b 12.698839
_cell_length_c 27.074669
_cell_angle_alpha 90.000000
_cell_angle_beta 90.000000
_cell_angle_gamma 90.000000
_cell_volume 4366.074984
_symmetry_space_group_name_H-M "P 42/M C M"
_symmetry_group_IT_number 132
_symmetry_cell_setting 'tetragonal'
loop_
_space_group_symop_operation_xyz
x,y,z
-y,x,1/2+z
-x,-y,z
y,-x,1/2+z
x,-y,1/2-z
-x,y,1/2-z
y,x,-z
-y,-x,-z
-x,-y,-z
y,-x,1/2-z
x,y,-z
-y,x,1/2-z
-x,y,1/2+z
x,-y,1/2+z
-y,-x,z
y,x,z
loop_
_atom_site_type_symbol
_atom_site_label
_atom_site_fract_x
_atom_site_fract_y
_atom_site_fract_z
Si Si1 0.719439 0.883291 0.597805
Si Si2 0.248658 0.581036 0.356716
Si Si3 0.374250 0.204675 0.301595
Si Si4 0.000000 0.316732 0.750000
Si Si5 0.080638 0.244531 0.152967
Si Si6 0.880403 0.510902 0.555480
O O1 0.829783 0.829783 0.583675
O O2 0.672765 0.836349 0.647716
O O3 0.636506 0.860240 0.554352
O O4 0.735109 0.007955 0.605328
O O5 0.363864 0.636137 0.362201
O O6 0.253381 0.489159 0.315116
O O7 0.164848 0.664663 0.337974
O O8 0.207722 0.543091 0.410383
O O9 0.297287 0.297287 0.279976
O O10 0.385373 0.105601 0.263312
O O11 0.984009 0.239076 0.703792
O O12 0.132927 0.132927 0.142691
O O13 0.870633 0.465127 0.500000
O O14 0.000000 0.500000 0.576710
#
# Coordination Sequence:
#
# PCOD8316620 Si02
#       6
#    16  16  16   8  16  16
#     4   9  18  33  53  78 111 145 180 231 291 347
#     4  10  21  36  55  81 115 153 191 237 294 356
#     4   9  19  34  54  82 112 147 192 239 289 344
#     4  10  20  33  56  79 108 146 194 247 281 330
#     4  10  20  34  52  78 109 145 191 234 283 346
#     4  10  19  34  58  83 107 144 195 246 291 348
#
# _framework density 20.155401999999999
#
# number of rings (size 3 to 8) (size 9 to 14) (size 15 to 20)
#    0.000    2.364    1.818    0.545    0.000    3.636 
#    0.000    0.000    0.000    4.091    0.000    8.909 
#    0.000    0.000    0.000    0.000    0.000    0.000 
#
# Total GULP energy -1090360.075889 kJ/mol
# GULP energy per Si atom -12390.455408 kJ/mol
# Density = 2.010953 g / cm^3
# Si number density = 20.155402 Si / 1000 Ang^3
#
#
#
# Elastic Constant Matrix: (Units=GPa)
#
#
# Indices 1 2 3 4 5 6 
#
# 1 109.3950 69.6223 23.3111 0.0000 0.0000 0.0000
# 2 69.6223 109.3950 23.3111 0.0000 0.0000 0.0000
# 3 23.3111 23.3111 52.9662 0.0000 0.0000 0.0000
# 4 0.0000 0.0000 0.0000 21.6578 0.0000 0.0000
# 5 0.0000 0.0000 0.0000 0.0000 21.6578 0.0000
# 6 0.0000 0.0000 0.0000 0.0000 0.0000 32.6764
#
#
#
# Elastic Compliance Matrix: (Units=1/GPa)
#
#
# Indices 1 2 3 4 5 6 
#
# 1 0.015726 -0.009417 -0.002777 0.000000 0.000000 0.000000
# 2 -0.009417 0.015726 -0.002777 0.000000 0.000000 0.000000
# 3 -0.002777 -0.002777 0.021324 0.000000 0.000000 0.000000
# 4 0.000000 0.000000 0.000000 0.046173 0.000000 0.000000
# 5 0.000000 0.000000 0.000000 0.000000 0.046173 0.000000
# 6 0.000000 0.000000 0.000000 0.000000 0.000000 0.030603
#
#
# Mechanical properties :
#
#
# Convention : Reuss Voigt Hill
#
# Bulk Modulus (GPa) = 43.79146 56.02726 49.90936
# Shear Modulus (GPa) = 23.44363 25.56583 24.50473
#
# Velocity S-wave (km/s) = 3.41419 3.56537 3.49060
# Velocity P-wave (km/s) = 6.10871 6.69382 6.40794
#
# Compressibility (1/GPa) = 0.02283550
#
# Stress axis : x y z
#
# Youngs Moduli (GPa) = 63.58867 63.58867 46.89517
#
# Poissons Ratio (x) = 0.59881 0.13022
# Poissons Ratio (y) = 0.59881 0.13022
# Poissons Ratio (z) = 0.17657 0.17657
#
# Static dielectric constant tensor:
#      x y z
#    x 3.792560 0.000000 0.000000 
#    y 0.000000 3.792560 0.000000 
#    z 0.000000 0.000000 3.372760 
# 
# 
# High freq. dielectric constant tensor:
#      x y z
#    x 1.778250 0.000000 0.000000 
#    y 0.000000 1.778250 0.000000 
#    z 0.000000 0.000000 1.767370 
# 
# From -- ./inp_files/10757.got.cif
#   From: 2010.03.12/outbox.cif.g09.slc.cpg/sg132_6_cif.got.tgz:10757.got - 2010.04.06 17:53:44.
