data_PCOD8316938
_publ_section_title
;
Structure prediction by ZEFSAII (Michael W. Deem and Ramdas Pophale) SiO2 
 PCOD8316938
Probable space group: P 42/N B C
;
_chemical_formula_sum "Si O2"
_cell_formula_units_Z 112
_cell_length_a 14.834476
_cell_length_b 14.834476
_cell_length_c 27.005289
_cell_angle_alpha 90.000000
_cell_angle_beta 90.000000
_cell_angle_gamma 90.000000
_cell_volume 5942.829217
_symmetry_space_group_name_H-M "P 42/N B C"
_symmetry_group_IT_number 133
_space_group.IT_coordinate_system_code '2'
_symmetry_cell_setting 'tetragonal'
loop_
_space_group_symop_operation_xyz
x,y,z
1/2-y,x,1/2+z
1/2-x,1/2-y,z
y,1/2-x,1/2+z
x,1/2-y,-z
1/2-x,y,-z
y,x,1/2-z
1/2-y,1/2-x,1/2-z
-x,-y,-z
1/2+y,-x,1/2-z
1/2+x,1/2+y,-z
-y,1/2+x,1/2-z
-x,1/2+y,z
1/2+x,-y,z
-y,-x,1/2+z
1/2+y,1/2+x,1/2+z
loop_
_atom_site_type_symbol
_atom_site_label
_atom_site_fract_x
_atom_site_fract_y
_atom_site_fract_z
Si Si1 0.101858 0.612673 0.697929
Si Si2 0.342262 0.784114 0.109387
Si Si3 0.945638 0.903182 0.373595
Si Si4 0.049613 0.728877 0.556379
Si Si5 0.805994 0.033857 0.788992
Si Si6 0.347905 0.206482 0.301221
Si Si7 0.397818 0.593610 0.112722
O O1 0.167619 0.600851 0.651416
O O2 0.094212 0.715699 0.717115
O O3 0.135480 0.542618 0.739079
O O4 0.005797 0.585608 0.675812
O O5 0.250000 0.750000 0.134521
O O6 0.315054 0.850705 0.063798
O O7 0.397666 0.696724 0.092696
O O8 0.856316 0.858979 0.349268
O O9 0.980205 0.838581 0.417317
O O10 0.935967 0.000613 0.398031
O O11 0.026706 0.750000 0.500000
O O12 0.036824 0.826110 0.581499
O O13 0.869134 0.079116 0.830535
O O14 0.781119 0.929174 0.800262
O O15 0.250000 0.250000 0.306614
O O16 0.350424 0.149577 0.250000
#
# Coordination Sequence:
#
# PCOD8316938 Si02
#       7
#    16  16  16  16  16  16  16
#     4  10  20  33  54  84 125 155 209 240 303 363
#     4   9  17  34  53  89 115 151 192 242 309 360
#     4  10  23  40  57  92 121 161 213 251 303 377
#     4  10  21  43  66  87 123 157 199 262 318 370
#     4  11  21  35  57  89 119 171 196 257 304 358
#     4  10  23  41  56  80 124 170 212 242 298 363
#     4  11  21  36  60  89 128 154 203 253 305 370
#
# _framework density 18.846243000000001
#
# number of rings (size 3 to 8) (size 9 to 14) (size 15 to 20)
#    0.000    1.857    5.714    0.857    6.000    5.429 
#    2.571    0.000    0.000    2.143    0.000    0.000 
#    0.000    0.000    0.000    0.000    0.000    0.000 
#
# Total GULP energy -1387633.697147 kJ/mol
# GULP energy per Si atom -12389.586582 kJ/mol
# Density = 1.880335 g / cm^3
# Si number density = 18.846243 Si / 1000 Ang^3
#
#
#
# Elastic Constant Matrix: (Units=GPa)
#
#
# Indices 1 2 3 4 5 6 
#
# 1 101.5909 43.9821 41.8533 0.0000 0.0000 0.0000
# 2 43.9821 101.5909 41.8533 0.0000 0.0000 0.0000
# 3 41.8533 41.8533 106.4092 0.0000 0.0000 0.0000
# 4 0.0000 0.0000 0.0000 18.1590 0.0000 0.0000
# 5 0.0000 0.0000 0.0000 0.0000 18.1590 0.0000
# 6 0.0000 0.0000 0.0000 0.0000 0.0000 18.2901
#
#
#
# Elastic Compliance Matrix: (Units=1/GPa)
#
#
# Indices 1 2 3 4 5 6 
#
# 1 0.013118 -0.004241 -0.003492 0.000000 0.000000 0.000000
# 2 -0.004241 0.013118 -0.003492 0.000000 0.000000 0.000000
# 3 -0.003492 -0.003492 0.012144 0.000000 0.000000 0.000000
# 4 0.000000 0.000000 0.000000 0.055069 0.000000 0.000000
# 5 0.000000 0.000000 0.000000 0.000000 0.055069 0.000000
# 6 0.000000 0.000000 0.000000 0.000000 0.000000 0.054675
#
#
# Mechanical properties :
#
#
# Convention : Reuss Voigt Hill
#
# Bulk Modulus (GPa) = 62.76583 62.77425 62.77004
# Shear Modulus (GPa) = 21.64961 23.04843 22.34902
#
# Velocity S-wave (km/s) = 3.39300 3.50090 3.44737
# Velocity P-wave (km/s) = 6.98043 7.05143 7.01602
#
# Compressibility (1/GPa) = 0.01593223
#
# Stress axis : x y z
#
# Youngs Moduli (GPa) = 76.23241 76.23238 82.34295
#
# Poissons Ratio (x) = 0.32328 0.28751
# Poissons Ratio (y) = 0.32328 0.28751
# Poissons Ratio (z) = 0.26617 0.26617
#
# Static dielectric constant tensor:
#      x y z
#    x 3.551090 0.000000 0.000000 
#    y 0.000000 3.551090 0.000000 
#    z 0.000000 0.000000 3.258650 
# 
# 
# High freq. dielectric constant tensor:
#      x y z
#    x 1.726130 0.000000 0.000000 
#    y 0.000000 1.726130 0.000000 
#    z 0.000000 0.000000 1.707260 
# 
# From -- ./inp_files/7653.got.cif
#   From: 2010.03.12/outbox.cif.g09.slc.cpg/sg133_4_cif.got.tgz:7653.got - 2010.04.06 18:08:06.
