data_PCOD8316036
_publ_section_title
;
Structure prediction by ZEFSAII (Michael W. Deem and Ramdas Pophale) SiO2 
 PCOD8316036
Probable space group: P 42/M M C
;
_chemical_formula_sum "Si O2"
_cell_formula_units_Z 72
_cell_length_a 22.711977
_cell_length_b 22.711977
_cell_length_c 11.929953
_cell_angle_alpha 90.000000
_cell_angle_beta 90.000000
_cell_angle_gamma 90.000000
_cell_volume 6153.874174
_symmetry_space_group_name_H-M "P 42/M M C"
_symmetry_group_IT_number 131
_symmetry_cell_setting 'tetragonal'
loop_
_space_group_symop_operation_xyz
x,y,z
-x,-y,z
-y,x,1/2+z
y,-x,1/2+z
-x,y,-z
x,-y,-z
y,x,1/2-z
-y,-x,1/2-z
-x,-y,-z
x,y,-z
y,-x,1/2-z
-y,x,1/2-z
x,-y,z
-x,y,z
-y,-x,1/2+z
y,x,1/2+z
loop_
_atom_site_type_symbol
_atom_site_label
_atom_site_fract_x
_atom_site_fract_y
_atom_site_fract_z
Si Si1 0.614004 0.929850 0.757878
Si Si2 0.070086 0.646064 0.500000
Si Si3 0.930403 0.222172 0.500000
Si Si4 0.930090 0.272759 0.125614
Si Si5 0.163098 0.930592 0.228221
Si Si6 0.070229 0.500000 0.127642
O O1 0.612563 0.908124 0.887545
O O2 0.672676 0.905012 0.697777
O O3 0.557211 0.905133 0.692456
O O4 0.614210 0.000000 0.753697
O O5 0.096447 0.712145 0.500000
O O6 0.000000 0.649181 0.500000
O O7 0.909356 0.186929 0.391536
O O8 0.000000 0.228520 0.500000
O O9 0.910893 0.211077 0.179915
O O10 0.000000 0.276983 0.123964
O O11 0.904345 0.276204 0.000000
O O12 0.101609 0.898392 0.250000
O O13 0.150616 0.000000 0.232330
O O14 0.000000 0.500000 0.127555
O O15 0.093843 0.500000 0.000000
#
# Coordination Sequence:
#
# PCOD8316036 Si02
#       6
#    16   8   8  16  16   8
#     4   9  15  23  35  50  67  87 107 126 148 176
#     4   9  14  23  38  50  64  85 109 129 148 179
#     4   9  16  30  44  54  66  84 105 126 159 203
#     4   9  16  26  39  52  65  82 104 127 152 189
#     4  10  20  31  43  55  67  83 103 132 170 212
#     4   9  16  23  31  47  71  92 107 125 149 173
#
# _framework density 11.699947
#
# number of rings (size 3 to 8) (size 9 to 14) (size 15 to 20)
#    0.000    2.778    2.222    0.667    1.556    3.333 
#    0.000    2.222    0.000    2.000    0.000    0.000 
#    0.000    0.000    0.000    0.000    0.000    0.000 
#
# Total GULP energy -892441.803897 kJ/mol
# GULP energy per Si atom -12395.025054 kJ/mol
# Density = 1.167332 g / cm^3
# Si number density = 11.699947 Si / 1000 Ang^3
#
#
#
# Elastic Constant Matrix: (Units=GPa)
#
#
# Indices 1 2 3 4 5 6 
#
# 1 44.2937 21.9374 31.0371 0.0000 0.0000 0.0000
# 2 21.9374 44.2897 31.0356 0.0000 0.0000 0.0000
# 3 31.0371 31.0356 122.3851 0.0000 0.0000 0.0000
# 4 0.0000 0.0000 0.0000 12.7434 0.0000 0.0000
# 5 0.0000 0.0000 0.0000 0.0000 12.7432 0.0000
# 6 0.0000 0.0000 0.0000 0.0000 0.0000 0.5425
#
#
#
# Elastic Compliance Matrix: (Units=1/GPa)
#
#
# Indices 1 2 3 4 5 6 
#
# 1 0.032269 -0.012464 -0.005023 0.000000 0.000000 0.000000
# 2 -0.012464 0.032272 -0.005023 0.000000 0.000000 0.000000
# 3 -0.005023 -0.005023 0.010719 0.000000 0.000000 0.000000
# 4 0.000000 0.000000 0.000000 0.078472 0.000000 0.000000
# 5 0.000000 0.000000 0.000000 0.000000 0.078473 0.000000
# 6 0.000000 0.000000 0.000000 0.000000 0.000000 1.843441
#
#
# Mechanical properties :
#
#
# Convention : Reuss Voigt Hill
#
# Bulk Modulus (GPa) = 33.06832 42.10985 37.58909
# Shear Modulus (GPa) = 2.34660 13.66971 8.00815
#
# Velocity S-wave (km/s) = 1.41775 3.42183 2.61906
# Velocity P-wave (km/s) = 5.56821 7.18899 6.42987
#
# Compressibility (1/GPa) = 0.03024042
#
# Stress axis : x y z
#
# Youngs Moduli (GPa) = 30.98948 30.98668 93.29651
#
# Poissons Ratio (x) = 0.38621 0.46861
# Poissons Ratio (y) = 0.38624 0.46863
# Poissons Ratio (z) = 0.15565 0.15565
#
# Static dielectric constant tensor:
#      x y z
#    x 2.162220 0.000000 0.000000 
#    y 0.000000 2.162220 0.000000 
#    z 0.000000 0.000000 2.832650 
# 
# 
# High freq. dielectric constant tensor:
#      x y z
#    x 1.396380 0.000000 0.000000 
#    y 0.000000 1.396380 0.000000 
#    z 0.000000 0.000000 1.469100 
# 
# From -- ./inp_files/4203.got.cif
#   From: 2010.03.12/outbox.cif.g09.slc.cpg/sg131_3_cif.got.tgz:4203.got - 2010.04.06 17:36:35.
