data_PCOD8316855
_publ_section_title
;
Structure prediction by ZEFSAII (Michael W. Deem and Ramdas Pophale) SiO2 
 PCOD8316855
Probable space group: P 42/M C M
;
_chemical_formula_sum "Si O2"
_cell_formula_units_Z 58
_cell_length_a 16.612907
_cell_length_b 16.612907
_cell_length_c 10.293063
_cell_angle_alpha 90.000000
_cell_angle_beta 90.000000
_cell_angle_gamma 90.000000
_cell_volume 2840.768860
_symmetry_space_group_name_H-M "P 42/M C M"
_symmetry_group_IT_number 132
_symmetry_cell_setting 'tetragonal'
loop_
_space_group_symop_operation_xyz
x,y,z
-y,x,1/2+z
-x,-y,z
y,-x,1/2+z
x,-y,1/2-z
-x,y,1/2-z
y,x,-z
-y,-x,-z
-x,-y,-z
y,-x,1/2-z
x,y,-z
-y,x,1/2-z
-x,y,1/2+z
x,-y,1/2+z
-y,-x,z
y,x,z
loop_
_atom_site_type_symbol
_atom_site_label
_atom_site_fract_x
_atom_site_fract_y
_atom_site_fract_z
Si Si1 0.208716 0.409008 0.257906
Si Si2 0.164833 0.697025 0.000000
Si Si3 0.230201 0.012192 0.000000
Si Si4 0.128092 0.000000 0.750000
Si Si5 0.500000 0.500000 0.250000
Si Si6 0.311051 0.823594 0.500000
Si Si7 0.380471 0.619530 0.852499
O O1 0.173210 0.500000 0.250000
O O2 0.167928 0.358470 0.372988
O O3 0.303356 0.415235 0.280501
O O4 0.196288 0.363665 0.124278
O O5 0.077812 0.737091 0.000000
O O6 0.234634 0.765367 0.000000
O O7 0.179775 0.028761 0.128957
O O8 0.297996 0.080564 0.000000
O O9 0.074271 0.925730 0.798465
O O10 0.448016 0.448016 0.349553
O O11 0.228052 0.771949 0.500000
O O12 0.357516 0.642485 0.000000
#
# Coordination Sequence:
#
# PCOD8316855 Si02
#       7
#    16   8   8   8   2   8   8
#     4  12  24  43  67  95 131 177 226 275 336 403
#     4  12  23  45  70  94 131 184 223 276 345 412
#     4  12  26  43  67 102 134 176 236 274 326 413
#     4  11  22  40  66 100 139 172 206 278 359 418
#     4  12  26  36  68 110 148 158 212 300 366 430
#     4  12  25  43  68  98 133 176 223 284 337 396
#     4  12  23  42  64 100 138 179 216 272 353 422
#
# _framework density 20.417006000000001
#
# number of rings (size 3 to 8) (size 9 to 14) (size 15 to 20)
#    0.000    0.138    5.517    5.172    0.000    1.103 
#    2.483    4.138    0.000    0.000    0.000    0.000 
#    0.000    0.000    0.000    0.000    0.000    0.000 
#
# Total GULP energy -719397.258169 kJ/mol
# GULP energy per Si atom -12403.401003 kJ/mol
# Density = 2.037054 g / cm^3
# Si number density = 20.417006 Si / 1000 Ang^3
#
#
#
# Elastic Constant Matrix: (Units=GPa)
#
#
# Indices 1 2 3 4 5 6 
#
# 1 1089.1985 -925.1108 46.0304 0.0000 0.0000 0.0000
# 2 -925.1108 1088.6551 45.7809 0.0000 0.0000 0.0000
# 3 46.0304 45.7809 167.3925 0.0000 0.0000 0.0000
# 4 0.0000 0.0000 0.0000 30.5892 0.0000 0.0000
# 5 0.0000 0.0000 0.0000 0.0000 30.5915 0.0000
# 6 0.0000 0.0000 0.0000 0.0000 0.0000 30.6736
#
#
#
# Elastic Compliance Matrix: (Units=1/GPa)
#
#
# Indices 1 2 3 4 5 6 
#
# 1 0.003854 0.003358 -0.001978 0.000000 0.000000 0.000000
# 2 0.003358 0.003856 -0.001978 0.000000 0.000000 0.000000
# 3 -0.001978 -0.001978 0.007059 0.000000 0.000000 0.000000
# 4 0.000000 0.000000 0.000000 0.032691 0.000000 0.000000
# 5 0.000000 0.000000 0.000000 0.000000 0.032689 0.000000
# 6 0.000000 0.000000 0.000000 0.000000 0.000000 0.032601
#
#
# Mechanical properties :
#
#
# Convention : Reuss Voigt Hill
#
# Bulk Modulus (GPa) = 73.67776 75.40522 74.54149
# Shear Modulus (GPa) = 42.20476 230.27388 136.23932
#
# Velocity S-wave (km/s) = 4.55151 10.63157 8.17760
# Velocity P-wave (km/s) = 7.98664 13.70108 11.21397
#
# Compressibility (1/GPa) = 0.01357262
#
# Stress axis : x y z
#
# Youngs Moduli (GPa) = 259.46705 259.36906 141.66445
#
# Poissons Ratio (x) = -0.87103 0.28025
# Poissons Ratio (y) = -0.87136 0.28020
# Poissons Ratio (z) = 0.51330 0.51301
#
# Static dielectric constant tensor:
#      x y z
#    x 3.756030 0.000000 0.000000 
#    y 0.000000 3.756030 0.000000 
#    z 0.000000 0.000000 4.605660 
# 
# 
# High freq. dielectric constant tensor:
#      x y z
#    x 1.802790 0.000000 0.000000 
#    y 0.000000 1.802790 0.000000 
#    z 0.000000 0.000000 1.816470 
# 
# From -- ./inp_files/1071.got.cif
#   From: 2010.03.12/outbox.cif.g09.slc.cpg/sg132_1_cif.got.tgz:1071.got - 2010.04.06 17:53:44.
