data_PCOD8316731
_publ_section_title
;
Structure prediction by ZEFSAII (Michael W. Deem and Ramdas Pophale) SiO2 
 PCOD8316731
Probable space group: P 42/M C M
;
_chemical_formula_sum "Si O2"
_cell_formula_units_Z 64
_cell_length_a 20.003360
_cell_length_b 20.003360
_cell_length_c 8.638847
_cell_angle_alpha 90.000000
_cell_angle_beta 90.000000
_cell_angle_gamma 90.000000
_cell_volume 3456.699959
_symmetry_space_group_name_H-M "P 42/M C M"
_symmetry_group_IT_number 132
_symmetry_cell_setting 'tetragonal'
loop_
_space_group_symop_operation_xyz
x,y,z
-y,x,1/2+z
-x,-y,z
y,-x,1/2+z
x,-y,1/2-z
-x,y,1/2-z
y,x,-z
-y,-x,-z
-x,-y,-z
y,-x,1/2-z
x,y,-z
-y,x,1/2-z
-x,y,1/2+z
x,-y,1/2+z
-y,-x,z
y,x,z
loop_
_atom_site_type_symbol
_atom_site_label
_atom_site_fract_x
_atom_site_fract_y
_atom_site_fract_z
Si Si1 0.179386 0.070045 0.682412
Si Si2 0.569944 0.323892 0.182497
Si Si3 0.322676 0.071314 0.183152
Si Si4 0.429305 0.171393 0.683264
O O1 0.189900 0.063136 0.500000
O O2 0.125857 0.125857 0.726599
O O3 0.249116 0.090740 0.759021
O O4 0.153188 0.000000 0.750000
O O5 0.500000 0.349885 0.250000
O O6 0.629518 0.370483 0.247315
O O7 0.584140 0.247859 0.234034
O O8 0.565331 0.328942 0.000000
O O9 0.371859 0.128134 0.240695
O O10 0.345660 0.000000 0.250000
O O11 0.323395 0.067126 0.000000
O O12 0.500000 0.146718 0.750000
O O13 0.428745 0.162147 0.500000
#
# Coordination Sequence:
#
# PCOD8316731 Si02
#       4
#    16  16  16  16
#     4  10  21  37  57  81 110 144 181 222 268 317
#     4   9  19  35  54  77 106 140 176 216 262 311
#     4  11  22  37  57  81 109 141 178 220 267 319
#     4  10  20  36  56  79 108 141 179 222 268 319
#
# _framework density 18.514769000000001
#
# number of rings (size 3 to 8) (size 9 to 14) (size 15 to 20)
#    0.000    2.000    0.000    5.250    0.000    5.500 
#    0.000    7.500    0.000    0.000    0.000    0.000 
#    0.000    0.000    0.000    0.000    0.000    0.000 
#
# Total GULP energy -793800.630357 kJ/mol
# GULP energy per Si atom -12403.134849 kJ/mol
# Density = 1.847263 g / cm^3
# Si number density = 18.514769 Si / 1000 Ang^3
#
#
#
# Elastic Constant Matrix: (Units=GPa)
#
#
# Indices 1 2 3 4 5 6 
#
# 1 128.2638 101.5328 57.2114 0.0000 0.0000 0.0000
# 2 101.5328 128.2638 57.2114 0.0000 0.0000 0.0000
# 3 57.2114 57.2114 105.6041 0.0000 0.0000 0.0000
# 4 0.0000 0.0000 0.0000 28.8070 0.0000 0.0000
# 5 0.0000 0.0000 0.0000 0.0000 28.8070 0.0000
# 6 0.0000 0.0000 0.0000 0.0000 0.0000 11.5480
#
#
#
# Elastic Compliance Matrix: (Units=1/GPa)
#
#
# Indices 1 2 3 4 5 6 
#
# 1 0.021684 -0.015725 -0.003228 0.000000 0.000000 0.000000
# 2 -0.015725 0.021684 -0.003228 0.000000 0.000000 0.000000
# 3 -0.003228 -0.003228 0.012967 0.000000 0.000000 0.000000
# 4 0.000000 0.000000 0.000000 0.034714 0.000000 0.000000
# 5 0.000000 0.000000 0.000000 0.000000 0.034714 0.000000
# 6 0.000000 0.000000 0.000000 0.000000 0.000000 0.086595
#
#
# Mechanical properties :
#
#
# Convention : Reuss Voigt Hill
#
# Bulk Modulus (GPa) = 83.52772 88.22699 85.87736
# Shear Modulus (GPa) = 19.17812 23.57746 21.37779
#
# Velocity S-wave (km/s) = 3.22192 3.57240 3.40168
# Velocity P-wave (km/s) = 7.68460 8.04809 7.86844
#
# Compressibility (1/GPa) = 0.01197207
#
# Stress axis : x y z
#
# Youngs Moduli (GPa) = 46.11591 46.11591 77.11673
#
# Poissons Ratio (x) = 0.72519 0.24897
# Poissons Ratio (y) = 0.72519 0.24897
# Poissons Ratio (z) = 0.14888 0.14888
#
# Static dielectric constant tensor:
#      x y z
#    x 3.546910 0.000000 0.000000 
#    y 0.000000 3.546910 0.000000 
#    z 0.000000 0.000000 3.502750 
# 
# 
# High freq. dielectric constant tensor:
#      x y z
#    x 1.722550 0.000000 0.000000 
#    y 0.000000 1.722550 0.000000 
#    z 0.000000 0.000000 1.731420 
# 
# From -- ./inp_files/1256.got.cif
#   From: 2010.03.12/outbox.cif.g09.slc.cpg/sg132_1_cif.got.tgz:1256.got - 2010.04.06 17:53:44.
