data_PCOD8316780
_publ_section_title
;
Structure prediction by ZEFSAII (Michael W. Deem and Ramdas Pophale) SiO2 
 PCOD8316780
Probable space group: P 42/M C M
;
_chemical_formula_sum "Si O2"
_cell_formula_units_Z 96
_cell_length_a 24.005308
_cell_length_b 24.005308
_cell_length_c 8.820309
_cell_angle_alpha 90.000000
_cell_angle_beta 90.000000
_cell_angle_gamma 90.000000
_cell_volume 5082.745506
_symmetry_space_group_name_H-M "P 42/M C M"
_symmetry_group_IT_number 132
_symmetry_cell_setting 'tetragonal'
loop_
_space_group_symop_operation_xyz
x,y,z
-y,x,1/2+z
-x,-y,z
y,-x,1/2+z
x,-y,1/2-z
-x,y,1/2-z
y,x,-z
-y,-x,-z
-x,-y,-z
y,-x,1/2-z
x,y,-z
-y,x,1/2-z
-x,y,1/2+z
x,-y,1/2+z
-y,-x,z
y,x,z
loop_
_atom_site_type_symbol
_atom_site_label
_atom_site_fract_x
_atom_site_fract_y
_atom_site_fract_z
Si Si1 0.259871 0.351113 0.824063
Si Si2 0.560521 0.351209 0.321278
Si Si3 0.943509 0.441235 0.176774
Si Si4 0.145905 0.054363 0.675459
Si Si5 0.141044 0.345311 0.324069
Si Si6 0.942849 0.735918 0.821314
O O1 0.295190 0.295190 0.793041
O O2 0.296122 0.404881 0.775636
O O3 0.204952 0.350772 0.722999
O O4 0.243189 0.354753 0.000000
O O5 0.500000 0.349259 0.250000
O O6 0.554192 0.354001 0.500000
O O7 0.594180 0.405821 0.263744
O O8 0.928623 0.500000 0.250000
O O9 0.890808 0.402575 0.210505
O O10 0.000000 0.416072 0.250000
O O11 0.954615 0.448873 0.000000
O O12 0.159667 0.042972 0.500000
O O13 0.106156 0.106156 0.697333
O O14 0.201751 0.067301 0.765891
O O15 0.117183 0.000000 0.750000
O O16 0.137687 0.329324 0.500000
O O17 0.111453 0.297548 0.228212
O O18 0.000000 0.711232 0.750000
O O19 0.949136 0.733772 0.000000
#
# Coordination Sequence:
#
# PCOD8316780 Si02
#       6
#    16  16  16  16  16  16
#     4   9  20  39  58  77 106 144 183 224 272 321
#     4   9  19  36  57  82 113 147 183 225 272 323
#     4  10  21  36  55  79 109 143 177 217 265 314
#     4  10  21  37  57  81 110 143 179 222 271 324
#     4  11  23  37  56  83 110 141 183 225 269 324
#     4  11  22  37  58  81 108 142 179 224 275 324
#
# _framework density 18.887429000000001
#
# number of rings (size 3 to 8) (size 9 to 14) (size 15 to 20)
#    0.000    2.000    0.000    6.000    0.000    8.333 
#    0.000    6.667    0.000    0.000    0.000    0.000 
#    0.000    0.000    0.000    0.000    0.000    0.000 
#
# Total GULP energy -1190494.206878 kJ/mol
# GULP energy per Si atom -12400.981322 kJ/mol
# Density = 1.884444 g / cm^3
# Si number density = 18.887429 Si / 1000 Ang^3
#
#
#
# Elastic Constant Matrix: (Units=GPa)
#
#
# Indices 1 2 3 4 5 6 
#
# 1 120.2191 63.7535 61.5578 0.0000 0.0000 0.0000
# 2 63.7535 120.2191 61.5578 0.0000 0.0000 0.0000
# 3 61.5578 61.5578 125.7830 0.0000 0.0000 0.0000
# 4 0.0000 0.0000 0.0000 27.2528 0.0000 0.0000
# 5 0.0000 0.0000 0.0000 0.0000 27.2528 0.0000
# 6 0.0000 0.0000 0.0000 0.0000 0.0000 29.7515
#
#
#
# Elastic Compliance Matrix: (Units=1/GPa)
#
#
# Indices 1 2 3 4 5 6 
#
# 1 0.012896 -0.004814 -0.003956 0.000000 0.000000 0.000000
# 2 -0.004814 0.012896 -0.003956 0.000000 0.000000 0.000000
# 3 -0.003956 -0.003956 0.011822 0.000000 0.000000 0.000000
# 4 0.000000 0.000000 0.000000 0.036694 0.000000 0.000000
# 5 0.000000 0.000000 0.000000 0.000000 0.036694 0.000000
# 6 0.000000 0.000000 0.000000 0.000000 0.000000 0.033612
#
#
# Mechanical properties :
#
#
# Convention : Reuss Voigt Hill
#
# Bulk Modulus (GPa) = 82.20440 82.21772 82.21106
# Shear Modulus (GPa) = 28.71613 28.80822 28.76217
#
# Velocity S-wave (km/s) = 3.90344 3.90969 3.90657
# Velocity P-wave (km/s) = 7.99585 8.00036 7.99811
#
# Compressibility (1/GPa) = 0.01216480
#
# Stress axis : x y z
#
# Youngs Moduli (GPa) = 77.54142 77.54142 84.58813
#
# Poissons Ratio (x) = 0.37325 0.33460
# Poissons Ratio (y) = 0.37325 0.33460
# Poissons Ratio (z) = 0.30673 0.30673
#
# Static dielectric constant tensor:
#      x y z
#    x 3.483740 0.000000 0.000000 
#    y 0.000000 3.483740 0.000000 
#    z 0.000000 0.000000 3.364550 
# 
# 
# High freq. dielectric constant tensor:
#      x y z
#    x 1.737120 0.000000 0.000000 
#    y 0.000000 1.737120 0.000000 
#    z 0.000000 0.000000 1.743200 
# 
# From -- ./inp_files/1783.got.cif
#   From: 2010.03.12/outbox.cif.g09.slc.cpg/sg132_1_cif.got.tgz:1783.got - 2010.04.06 17:53:44.
