data_PCOD8316366
_publ_section_title
;
Structure prediction by ZEFSAII (Michael W. Deem and Ramdas Pophale) SiO2 
 PCOD8316366
Probable space group: P 42/M M C
;
_chemical_formula_sum "Si O2"
_cell_formula_units_Z 48
_cell_length_a 9.532852
_cell_length_b 9.532852
_cell_length_c 31.225703
_cell_angle_alpha 90.000000
_cell_angle_beta 90.000000
_cell_angle_gamma 90.000000
_cell_volume 2837.644105
_symmetry_space_group_name_H-M "P 42/M M C"
_symmetry_group_IT_number 131
_symmetry_cell_setting 'tetragonal'
loop_
_space_group_symop_operation_xyz
x,y,z
-x,-y,z
-y,x,1/2+z
y,-x,1/2+z
-x,y,-z
x,-y,-z
y,x,1/2-z
-y,-x,1/2-z
-x,-y,-z
x,y,-z
y,-x,1/2-z
-y,x,1/2-z
x,-y,z
-x,y,z
-y,-x,1/2+z
y,x,1/2+z
loop_
_atom_site_type_symbol
_atom_site_label
_atom_site_fract_x
_atom_site_fract_y
_atom_site_fract_z
Si Si1 0.832398 0.658069 0.374933
Si Si2 0.156485 0.833089 0.797208
Si Si3 0.157346 0.833204 0.952496
O O1 0.774035 0.500000 0.374590
O O2 0.773706 0.738001 0.333033
O O3 0.772834 0.735520 0.417248
O O4 0.000000 0.658931 0.374941
O O5 0.211647 0.788354 0.750000
O O6 0.000000 0.772980 0.805850
O O7 0.149868 0.000000 0.799179
O O8 0.000000 0.779636 0.942174
O O9 0.158549 0.000000 0.950898
O O10 0.203447 0.782200 0.000000
#
# Coordination Sequence:
#
# PCOD8316366 Si02
#       3
#    16  16  16
#     4   9  15  20  27  41  60  79 102 140 187 224
#     4   8  13  21  32  43  55  76 108 142 174 213
#     4   8  13  20  28  37  52  79 114 146 175 213
#
# _framework density 16.915441999999999
#
# number of rings (size 3 to 8) (size 9 to 14) (size 15 to 20)
#    0.000    3.667    0.000    3.000    0.000    4.667 
#    0.000    3.333    0.000    0.000    0.000    0.000 
#    0.000    0.667    0.000    0.000    0.000    1.667 
#
# Total GULP energy -594754.312910 kJ/mol
# GULP energy per Si atom -12390.714852 kJ/mol
# Density = 1.687694 g / cm^3
# Si number density = 16.915442 Si / 1000 Ang^3
#
#
#
# Elastic Constant Matrix: (Units=GPa)
#
#
# Indices 1 2 3 4 5 6 
#
# 1 57.6993 18.2758 58.2271 0.0000 0.0000 0.0000
# 2 18.2758 57.6996 58.2272 0.0000 0.0000 0.0000
# 3 58.2271 58.2272 187.5456 0.0000 0.0000 0.0000
# 4 0.0000 0.0000 0.0000 3.1980 0.0000 0.0000
# 5 0.0000 0.0000 0.0000 0.0000 3.1979 0.0000
# 6 0.0000 0.0000 0.0000 0.0000 0.0000 1.8605
#
#
#
# Elastic Compliance Matrix: (Units=1/GPa)
#
#
# Indices 1 2 3 4 5 6 
#
# 1 0.025239 -0.000126 -0.007797 0.000000 0.000000 0.000000
# 2 -0.000126 0.025239 -0.007797 0.000000 0.000000 0.000000
# 3 -0.007797 -0.007797 0.010173 0.000000 0.000000 0.000000
# 4 0.000000 0.000000 0.000000 0.312696 0.000000 0.000000
# 5 0.000000 0.000000 0.000000 0.000000 0.312701 0.000000
# 6 0.000000 0.000000 0.000000 0.000000 0.000000 0.537483
#
#
# Mechanical properties :
#
#
# Convention : Reuss Voigt Hill
#
# Bulk Modulus (GPa) = 34.23217 63.60052 48.91634
# Shear Modulus (GPa) = 3.95348 12.86559 8.40953
#
# Velocity S-wave (km/s) = 1.53045 2.76086 2.23211
# Velocity P-wave (km/s) = 4.83779 6.91692 5.96859
#
# Compressibility (1/GPa) = 0.02921229
#
# Stress axis : x y z
#
# Youngs Moduli (GPa) = 39.62060 39.62080 98.29545
#
# Poissons Ratio (x) = 0.00500 0.76640
# Poissons Ratio (y) = 0.00500 0.76640
# Poissons Ratio (z) = 0.30892 0.30892
#
# Static dielectric constant tensor:
#      x y z
#    x 2.761930 0.000000 0.000000 
#    y 0.000000 2.761930 0.000000 
#    z 0.000000 0.000000 3.673650 
# 
# 
# High freq. dielectric constant tensor:
#      x y z
#    x 1.590230 0.000000 0.000000 
#    y 0.000000 1.590230 0.000000 
#    z 0.000000 0.000000 1.675810 
# 
# From -- ./inp_files/12707.got.cif
#   From: 2010.03.12/outbox.cif.g09.slc.cpg/sg131_7_cif.got.tgz:12707.got - 2010.04.06 17:36:35.
