data_PCOD8316937
_publ_section_title
;
Structure prediction by ZEFSAII (Michael W. Deem and Ramdas Pophale) SiO2 
 PCOD8316937
Probable space group: P 42/N B C
;
_chemical_formula_sum "Si O2"
_cell_formula_units_Z 64
_cell_length_a 18.166568
_cell_length_b 18.166568
_cell_length_c 10.417657
_cell_angle_alpha 90.000000
_cell_angle_beta 90.000000
_cell_angle_gamma 90.000000
_cell_volume 3438.078843
_symmetry_space_group_name_H-M "P 42/N B C"
_symmetry_group_IT_number 133
_space_group.IT_coordinate_system_code '2'
_symmetry_cell_setting 'tetragonal'
loop_
_space_group_symop_operation_xyz
x,y,z
1/2-y,x,1/2+z
1/2-x,1/2-y,z
y,1/2-x,1/2+z
x,1/2-y,-z
1/2-x,y,-z
y,x,1/2-z
1/2-y,1/2-x,1/2-z
-x,-y,-z
1/2+y,-x,1/2-z
1/2+x,1/2+y,-z
-y,1/2+x,1/2-z
-x,1/2+y,z
1/2+x,-y,z
-y,-x,1/2+z
1/2+y,1/2+x,1/2+z
loop_
_atom_site_type_symbol
_atom_site_label
_atom_site_fract_x
_atom_site_fract_y
_atom_site_fract_z
Si Si1 0.511061 0.819307 0.431611
Si Si2 0.971544 0.460780 0.125867
Si Si3 0.861391 0.592263 0.555020
Si Si4 0.389376 0.279473 0.199929
O O1 0.470116 0.750000 0.500000
O O2 0.453470 0.882589 0.386231
O O3 0.569760 0.853128 0.533721
O O4 0.550473 0.783613 0.310020
O O5 0.990035 0.509966 0.250000
O O6 0.015032 0.383458 0.125694
O O7 0.000000 0.500000 0.000000
O O8 0.826219 0.575893 0.416964
O O9 0.803022 0.629079 0.652125
O O10 0.312759 0.312759 0.250000
#
# Coordination Sequence:
#
# PCOD8316937 Si02
#       4
#    16  16  16  16
#     4  10  20  32  49  76 109 135 179 231 269 317
#     4  10  20  34  55  76 103 141 190 230 270 322
#     4   9  19  34  55  74 103 150 181 219 271 334
#     4   9  18  35  50  75 112 138 179 219 267 331
#
# _framework density 18.615047000000001
#
# number of rings (size 3 to 8) (size 9 to 14) (size 15 to 20)
#    0.000    2.500    0.000    3.750    7.000    0.000 
#    0.000   15.000    0.000    0.000    0.000    3.500 
#    0.000    0.000    0.000    0.000    0.000    0.000 
#
# Total GULP energy -792954.722888 kJ/mol
# GULP energy per Si atom -12389.917545 kJ/mol
# Density = 1.857268 g / cm^3
# Si number density = 18.615047 Si / 1000 Ang^3
#
#
#
# Elastic Constant Matrix: (Units=GPa)
#
#
# Indices 1 2 3 4 5 6 
#
# 1 83.3723 42.9298 36.8422 0.0000 0.0000 0.0000
# 2 42.9298 83.3725 36.8419 0.0000 0.0000 0.0000
# 3 36.8422 36.8419 97.5159 0.0000 0.0000 0.0000
# 4 0.0000 0.0000 0.0000 22.4085 0.0000 0.0000
# 5 0.0000 0.0000 0.0000 0.0000 22.4084 0.0000
# 6 0.0000 0.0000 0.0000 0.0000 0.0000 22.2081
#
#
#
# Elastic Compliance Matrix: (Units=1/GPa)
#
#
# Indices 1 2 3 4 5 6 
#
# 1 0.017441 -0.007285 -0.003837 0.000000 0.000000 0.000000
# 2 -0.007285 0.017441 -0.003837 0.000000 0.000000 0.000000
# 3 -0.003837 -0.003837 0.013154 0.000000 0.000000 0.000000
# 4 0.000000 0.000000 0.000000 0.044626 0.000000 0.000000
# 5 0.000000 0.000000 0.000000 0.000000 0.044626 0.000000
# 6 0.000000 0.000000 0.000000 0.000000 0.000000 0.045029
#
#
# Mechanical properties :
#
#
# Convention : Reuss Voigt Hill
#
# Bulk Modulus (GPa) = 55.19362 55.27651 55.23507
# Shear Modulus (GPa) = 22.90691 23.24813 23.07752
#
# Velocity S-wave (km/s) = 3.51174 3.53780 3.52479
# Velocity P-wave (km/s) = 6.79393 6.81520 6.80457
#
# Compressibility (1/GPa) = 0.01811804
#
# Stress axis : x y z
#
# Youngs Moduli (GPa) = 57.33536 57.33570 76.02241
#
# Poissons Ratio (x) = 0.41770 0.29170
# Poissons Ratio (y) = 0.41770 0.29169
# Poissons Ratio (z) = 0.22000 0.21999
#
# Static dielectric constant tensor:
#      x y z
#    x 3.846830 0.000000 0.000000 
#    y 0.000000 3.846830 0.000000 
#    z 0.000000 0.000000 3.662130 
# 
# 
# High freq. dielectric constant tensor:
#      x y z
#    x 1.689090 0.000000 0.000000 
#    y 0.000000 1.689100 0.000000 
#    z 0.000000 0.000000 1.752570 
# 
# From -- ./inp_files/2974.got.cif
#   From: 2010.03.12/outbox.cif.g09.slc.cpg/sg133_2_cif.got.tgz:2974.got - 2010.04.06 18:08:06.
