data_PCOD8316108
_publ_section_title
;
Structure prediction by ZEFSAII (Michael W. Deem and Ramdas Pophale) SiO2 
 PCOD8316108
Probable space group: P 42/M M C
;
_chemical_formula_sum "Si O2"
_cell_formula_units_Z 104
_cell_length_a 18.283232
_cell_length_b 18.283232
_cell_length_c 17.911481
_cell_angle_alpha 90.000000
_cell_angle_beta 90.000000
_cell_angle_gamma 90.000000
_cell_volume 5987.388475
_symmetry_space_group_name_H-M "P 42/M M C"
_symmetry_group_IT_number 131
_symmetry_cell_setting 'tetragonal'
loop_
_space_group_symop_operation_xyz
x,y,z
-x,-y,z
-y,x,1/2+z
y,-x,1/2+z
-x,y,-z
x,-y,-z
y,x,1/2-z
-y,-x,1/2-z
-x,-y,-z
x,y,-z
y,-x,1/2-z
-y,x,1/2-z
x,-y,z
-x,y,z
-y,-x,1/2+z
y,x,1/2+z
loop_
_atom_site_type_symbol
_atom_site_label
_atom_site_fract_x
_atom_site_fract_y
_atom_site_fract_z
Si Si1 0.416479 0.084288 0.810866
Si Si2 0.845174 0.416884 0.847968
Si Si3 0.705999 0.153370 0.912152
Si Si4 0.915631 0.819750 0.195041
Si Si5 0.920867 0.586228 0.000000
Si Si6 0.221911 0.275608 0.175182
Si Si7 0.079871 0.854613 0.587191
O O1 0.500000 0.099424 0.835864
O O2 0.408048 0.101670 0.723134
O O3 0.364933 0.134026 0.863075
O O4 0.395521 0.000000 0.823471
O O5 0.816655 0.500000 0.855174
O O6 0.882721 0.388912 0.923914
O O7 0.776701 0.362205 0.840801
O O8 0.737007 0.233759 0.891908
O O9 0.771018 0.098164 0.888992
O O10 0.686533 0.149908 0.000000
O O11 0.879832 0.879832 0.250000
O O12 0.863083 0.748838 0.190438
O O13 0.913135 0.860972 0.115682
O O14 0.000000 0.799101 0.215334
O O15 0.928752 0.500000 0.000000
O O16 0.000000 0.624012 0.000000
O O17 0.267110 0.267110 0.250000
O O18 0.080805 0.861355 0.500000
O O19 0.000000 0.872683 0.620060
#
# Coordination Sequence:
#
# PCOD8316108 Si02
#       7
#    16  16  16  16   8  16  16
#     4  10  20  33  52  79 109 142 180 218 258 312
#     4  10  20  35  55  78 105 136 173 217 263 314
#     4  10  20  34  52  73 103 137 172 213 259 312
#     4  10  21  33  46  66  90 120 162 211 257 301
#     4   9  18  32  50  76 108 138 168 209 262 312
#     4  10  20  37  53  74  98 133 171 212 259 313
#     4   9  18  32  48  64  86 121 164 208 255 299
#
# _framework density 17.369842999999999
#
# number of rings (size 3 to 8) (size 9 to 14) (size 15 to 20)
#    0.000    2.231    1.538    1.385    1.077    5.692 
#    0.000    1.538    0.000    0.000    0.000    0.000 
#    0.000    2.154    0.000    1.385    0.000    0.000 
#
# Total GULP energy -1288794.387261 kJ/mol
# GULP energy per Si atom -12392.253724 kJ/mol
# Density = 1.733031 g / cm^3
# Si number density = 17.369843 Si / 1000 Ang^3
#
#
#
# Elastic Constant Matrix: (Units=GPa)
#
#
# Indices 1 2 3 4 5 6 
#
# 1 88.6434 34.9354 32.9597 0.0000 0.0000 0.0000
# 2 34.9354 88.6434 32.9597 0.0000 0.0000 0.0000
# 3 32.9597 32.9597 81.4423 0.0000 0.0000 0.0000
# 4 0.0000 0.0000 0.0000 21.6746 0.0000 0.0000
# 5 0.0000 0.0000 0.0000 0.0000 21.6746 0.0000
# 6 0.0000 0.0000 0.0000 0.0000 0.0000 16.3855
#
#
#
# Elastic Compliance Matrix: (Units=1/GPa)
#
#
# Indices 1 2 3 4 5 6 
#
# 1 0.014470 -0.004150 -0.004176 0.000000 0.000000 0.000000
# 2 -0.004150 0.014470 -0.004176 0.000000 0.000000 0.000000
# 3 -0.004176 -0.004176 0.015659 0.000000 0.000000 0.000000
# 4 0.000000 0.000000 0.000000 0.046137 0.000000 0.000000
# 5 0.000000 0.000000 0.000000 0.000000 0.046137 0.000000
# 6 0.000000 0.000000 0.000000 0.000000 0.000000 0.061030
#
#
# Mechanical properties :
#
#
# Convention : Reuss Voigt Hill
#
# Bulk Modulus (GPa) = 51.03882 51.15985 51.09934
# Shear Modulus (GPa) = 21.79239 22.47187 22.13213
#
# Velocity S-wave (km/s) = 3.54589 3.60075 3.57342
# Velocity P-wave (km/s) = 6.79793 6.84137 6.81968
#
# Compressibility (1/GPa) = 0.01959293
#
# Stress axis : x y z
#
# Youngs Moduli (GPa) = 69.11084 69.11084 63.86091
#
# Poissons Ratio (x) = 0.28679 0.26671
# Poissons Ratio (y) = 0.28679 0.26671
# Poissons Ratio (z) = 0.28864 0.28864
#
# Static dielectric constant tensor:
#      x y z
#    x 3.200610 0.000000 0.000000 
#    y 0.000000 3.200610 0.000000 
#    z 0.000000 0.000000 3.531850 
# 
# 
# High freq. dielectric constant tensor:
#      x y z
#    x 1.646380 0.000000 0.000000 
#    y 0.000000 1.646380 0.000000 
#    z 0.000000 0.000000 1.688810 
# 
# From -- ./inp_files/8108.got.cif
#   From: 2010.03.12/outbox.cif.g09.slc.cpg/sg131_5_cif.got.tgz:8108.got - 2010.04.06 17:36:35.
