data_PCOD8316911
_publ_section_title
;
Structure prediction by ZEFSAII (Michael W. Deem and Ramdas Pophale) SiO2 
 PCOD8316911
Probable space group: P 42/N B C
;
_chemical_formula_sum "Si O2"
_cell_formula_units_Z 128
_cell_length_a 20.165033
_cell_length_b 20.165033
_cell_length_c 17.058069
_cell_angle_alpha 90.000000
_cell_angle_beta 90.000000
_cell_angle_gamma 90.000000
_cell_volume 6936.297964
_symmetry_space_group_name_H-M "P 42/N B C"
_symmetry_group_IT_number 133
_space_group.IT_coordinate_system_code '2'
_symmetry_cell_setting 'tetragonal'
loop_
_space_group_symop_operation_xyz
x,y,z
1/2-y,x,1/2+z
1/2-x,1/2-y,z
y,1/2-x,1/2+z
x,1/2-y,-z
1/2-x,y,-z
y,x,1/2-z
1/2-y,1/2-x,1/2-z
-x,-y,-z
1/2+y,-x,1/2-z
1/2+x,1/2+y,-z
-y,1/2+x,1/2-z
-x,1/2+y,z
1/2+x,-y,z
-y,-x,1/2+z
1/2+y,1/2+x,1/2+z
loop_
_atom_site_type_symbol
_atom_site_label
_atom_site_fract_x
_atom_site_fract_y
_atom_site_fract_z
Si Si1 0.930953 0.300368 0.783641
Si Si2 0.176595 0.458867 0.968670
Si Si3 0.320881 0.603287 0.976985
Si Si4 0.372244 0.463208 0.199325
Si Si5 0.071026 0.514534 0.305152
Si Si6 0.534109 0.930619 0.976229
Si Si7 0.913421 0.168303 0.707064
Si Si8 0.448543 0.682633 0.961501
O O1 0.897200 0.239716 0.739857
O O2 0.880966 0.357914 0.763454
O O3 0.934852 0.292094 0.875309
O O4 0.004370 0.314316 0.751082
O O5 0.162671 0.435287 0.879503
O O6 0.250000 0.434715 0.000000
O O7 0.173943 0.538619 0.968682
O O8 0.114338 0.431899 0.019446
O O9 0.328425 0.578771 0.886867
O O10 0.379700 0.654279 0.998462
O O11 0.250000 0.637054 0.000000
O O12 0.403930 0.403930 0.250000
O O13 0.425662 0.519782 0.178101
O O14 0.090621 0.484000 0.388543
O O15 0.138551 0.525132 0.255549
O O16 0.037430 0.462571 0.250000
O O17 0.504930 0.874148 0.034449
O O18 0.500000 0.000000 0.000000
O O19 0.473541 0.750000 0.000000
#
# Coordination Sequence:
#
# PCOD8316911 Si02
#       8
#    16  16  16  16  16  16  16  16
#     4  10  21  34  52  72 111 150 191 237 282 344
#     4  11  21  34  57  87 118 150 193 246 295 352
#     4  10  20  35  56  81 117 160 199 240 292 354
#     4  10  19  33  52  79 108 146 186 234 293 348
#     4  10  20  32  55  80 111 143 190 242 295 336
#     4  12  21  36  60  85 114 155 195 246 296 348
#     4  10  21  35  50  77 109 152 194 238 285 341
#     4  11  23  37  55  82 117 155 201 249 295 345
#
# _framework density 18.453647
#
# number of rings (size 3 to 8) (size 9 to 14) (size 15 to 20)
#    0.000    1.500    2.500    3.750    3.500    3.500 
#    0.000    2.500    0.000    0.375    0.000    0.000 
#    0.000    6.500    0.000    0.000    0.000    0.000 
#
# Total GULP energy -1586212.838316 kJ/mol
# GULP energy per Si atom -12392.287799 kJ/mol
# Density = 1.841165 g / cm^3
# Si number density = 18.453647 Si / 1000 Ang^3
#
#
#
# Elastic Constant Matrix: (Units=GPa)
#
#
# Indices 1 2 3 4 5 6 
#
# 1 80.2831 26.0896 26.0933 0.0000 0.0000 0.0000
# 2 26.0896 80.2829 26.0934 0.0000 0.0000 0.0000
# 3 26.0933 26.0934 74.9592 0.0000 0.0000 0.0000
# 4 0.0000 0.0000 0.0000 27.7490 0.0000 0.0000
# 5 0.0000 0.0000 0.0000 0.0000 27.7491 0.0000
# 6 0.0000 0.0000 0.0000 0.0000 0.0000 -203.5906
#
#
#
# Elastic Compliance Matrix: (Units=1/GPa)
#
#
# Indices 1 2 3 4 5 6 
#
# 1 0.014895 -0.003558 -0.003946 0.000000 0.000000 0.000000
# 2 -0.003558 0.014895 -0.003946 0.000000 0.000000 0.000000
# 3 -0.003946 -0.003946 0.016088 0.000000 0.000000 0.000000
# 4 0.000000 0.000000 0.000000 0.036037 0.000000 0.000000
# 5 0.000000 0.000000 0.000000 0.000000 0.036037 0.000000
# 6 0.000000 0.000000 0.000000 0.000000 0.000000 -0.004912
#
#
# Mechanical properties :
#
#
# Convention : Reuss Voigt Hill
#
# Bulk Modulus (GPa) = 43.52281 43.56421 43.54351
# Shear Modulus (GPa) = 34.81888 -19.13524 7.84182
#
# Velocity S-wave (km/s) = 4.34848 -3.22364 2.06366
# Velocity P-wave (km/s) = 6.98917 3.13094 5.41531
#
# Compressibility (1/GPa) = 0.02297646
#
# Stress axis : x y z
#
# Youngs Moduli (GPa) = 67.13796 67.13759 62.15774
#
# Poissons Ratio (x) = 0.23886 0.24530
# Poissons Ratio (y) = 0.23886 0.24530
# Poissons Ratio (z) = 0.26495 0.26496
#
# Static dielectric constant tensor:
#      x y z
#    x 3.452350 0.000000 0.000000 
#    y 0.000000 3.452330 0.000000 
#    z 0.000000 0.000000 3.436670 
# 
# 
# High freq. dielectric constant tensor:
#      x y z
#    x 1.695050 0.000000 0.000000 
#    y 0.000000 1.695050 0.000000 
#    z 0.000000 0.000000 1.733010 
# 
# From -- ./inp_files/5752.got.cif
#   From: 2010.03.12/outbox.cif.g09.slc.cpg/sg133_3_cif.got.tgz:5752.got - 2010.04.06 18:08:06.
