data_PCOD8316499
_publ_section_title
;
Structure prediction by ZEFSAII (Michael W. Deem and Ramdas Pophale) SiO2 
 PCOD8316499
Probable space group: P 42/M C M
;
_chemical_formula_sum "Si O2"
_cell_formula_units_Z 96
_cell_length_a 24.946658
_cell_length_b 24.946658
_cell_length_c 9.349809
_cell_angle_alpha 90.000000
_cell_angle_beta 90.000000
_cell_angle_gamma 90.000000
_cell_volume 5818.720353
_symmetry_space_group_name_H-M "P 42/M C M"
_symmetry_group_IT_number 132
_symmetry_cell_setting 'tetragonal'
loop_
_space_group_symop_operation_xyz
x,y,z
-y,x,1/2+z
-x,-y,z
y,-x,1/2+z
x,-y,1/2-z
-x,y,1/2-z
y,x,-z
-y,-x,-z
-x,-y,-z
y,-x,1/2-z
x,y,-z
-y,x,1/2-z
-x,y,1/2+z
x,-y,1/2+z
-y,-x,z
y,x,z
loop_
_atom_site_type_symbol
_atom_site_label
_atom_site_fract_x
_atom_site_fract_y
_atom_site_fract_z
Si Si1 0.339009 0.165231 0.665989
Si Si2 0.852358 0.235844 0.340955
Si Si3 0.356164 0.049249 0.657830
Si Si4 0.715872 0.370645 0.836875
Si Si5 0.771916 0.950544 0.661344
Si Si6 0.553915 0.642292 0.164779
O O1 0.320380 0.160084 0.500000
O O2 0.288591 0.170565 0.768049
O O3 0.372400 0.110384 0.706472
O O4 0.371247 0.220154 0.690088
O O5 0.875098 0.249455 0.500000
O O6 0.803955 0.196046 0.355488
O O7 0.897762 0.208539 0.243581
O O8 0.378422 0.038407 0.500000
O O9 0.292162 0.047829 0.662398
O O10 0.380419 0.000000 0.750000
O O11 0.687274 0.312727 0.807029
O O12 0.692899 0.415307 0.731332
O O13 0.704029 0.387715 0.000000
O O14 0.794477 0.951226 0.500000
O O15 0.795916 0.000000 0.750000
O O16 0.500000 0.631135 0.250000
O O17 0.589212 0.589212 0.180406
O O18 0.541213 0.655392 0.000000
#
# Coordination Sequence:
#
# PCOD8316499 Si02
#       6
#    16  16  16  16  16  16
#     4   9  17  28  42  60  84 118 156 189 224 268
#     4  10  19  27  36  54  80 108 139 175 211 250
#     4   8  14  23  35  53  77 107 144 183 220 258
#     4   9  17  30  48  68  92 123 157 193 234 280
#     4   9  16  26  39  52  69  96 130 168 211 259
#     4  10  21  36  54  76 101 128 158 193 232 274
#
# _framework density 16.498474000000002
#
# number of rings (size 3 to 8) (size 9 to 14) (size 15 to 20)
#    0.000    2.833    0.000    3.000    0.000    7.833 
#    0.000    2.500    0.000    0.000    0.000    0.000 
#    0.000    1.000    0.000   11.167    0.000    4.167 
#
# Total GULP energy -1189620.721104 kJ/mol
# GULP energy per Si atom -12391.882512 kJ/mol
# Density = 1.646092 g / cm^3
# Si number density = 16.498474 Si / 1000 Ang^3
#
#
#
# Elastic Constant Matrix: (Units=GPa)
#
#
# Indices 1 2 3 4 5 6 
#
# 1 80.9729 28.0991 49.8185 0.0000 0.0000 0.0000
# 2 28.0991 80.9729 49.8185 0.0000 0.0000 0.0000
# 3 49.8185 49.8185 129.1270 0.0000 0.0000 0.0000
# 4 0.0000 0.0000 0.0000 22.6597 0.0000 0.0000
# 5 0.0000 0.0000 0.0000 0.0000 22.6597 0.0000
# 6 0.0000 0.0000 0.0000 0.0000 0.0000 7.7930
#
#
#
# Elastic Compliance Matrix: (Units=1/GPa)
#
#
# Indices 1 2 3 4 5 6 
#
# 1 0.016536 -0.002377 -0.005462 0.000000 0.000000 0.000000
# 2 -0.002377 0.016536 -0.005462 0.000000 0.000000 0.000000
# 3 -0.005462 -0.005462 0.011959 0.000000 0.000000 0.000000
# 4 0.000000 0.000000 0.000000 0.044131 0.000000 0.000000
# 5 0.000000 0.000000 0.000000 0.000000 0.044131 0.000000
# 6 0.000000 0.000000 0.000000 0.000000 0.000000 0.128320
#
#
# Mechanical properties :
#
#
# Convention : Reuss Voigt Hill
#
# Bulk Modulus (GPa) = 54.27110 60.72719 57.49914
# Shear Modulus (GPa) = 16.98610 21.51161 19.24886
#
# Velocity S-wave (km/s) = 3.21215 3.61481 3.41941
# Velocity P-wave (km/s) = 6.83544 7.36954 7.10751
#
# Compressibility (1/GPa) = 0.01842601
#
# Stress axis : x y z
#
# Youngs Moduli (GPa) = 60.47588 60.47588 83.61801
#
# Poissons Ratio (x) = 0.14378 0.45675
# Poissons Ratio (y) = 0.14378 0.45675
# Poissons Ratio (z) = 0.33034 0.33034
#
# Static dielectric constant tensor:
#      x y z
#    x 2.941830 0.000000 0.000000 
#    y 0.000000 2.941830 0.000000 
#    z 0.000000 0.000000 3.411630 
# 
# 
# High freq. dielectric constant tensor:
#      x y z
#    x 1.605090 0.000000 0.000000 
#    y 0.000000 1.605090 0.000000 
#    z 0.000000 0.000000 1.650990 
# 
# From -- ./inp_files/1800.got.cif
#   From: 2010.03.12/outbox.cif.g09.slc.cpg/sg132_1_cif.got.tgz:1800.got - 2010.04.06 17:53:44.
