data_PCOD8316653
_publ_section_title
;
Structure prediction by ZEFSAII (Michael W. Deem and Ramdas Pophale) SiO2 
 PCOD8316653
Probable space group: P 42/M C M
;
_chemical_formula_sum "Si O2"
_cell_formula_units_Z 80
_cell_length_a 16.605519
_cell_length_b 16.605519
_cell_length_c 17.978395
_cell_angle_alpha 90.000000
_cell_angle_beta 90.000000
_cell_angle_gamma 90.000000
_cell_volume 4957.421270
_symmetry_space_group_name_H-M "P 42/M C M"
_symmetry_group_IT_number 132
_symmetry_cell_setting 'tetragonal'
loop_
_space_group_symop_operation_xyz
x,y,z
-y,x,1/2+z
-x,-y,z
y,-x,1/2+z
x,-y,1/2-z
-x,y,1/2-z
y,x,-z
-y,-x,-z
-x,-y,-z
y,-x,1/2-z
x,y,-z
-y,x,1/2-z
-x,y,1/2+z
x,-y,1/2+z
-y,-x,z
y,x,z
loop_
_atom_site_type_symbol
_atom_site_label
_atom_site_fract_x
_atom_site_fract_y
_atom_site_fract_z
Si Si1 0.354049 0.771760 0.916083
Si Si2 0.098207 0.410272 0.168570
Si Si3 0.657751 0.527396 0.334792
Si Si4 0.599101 0.919948 0.337092
Si Si5 0.386949 0.259367 0.916514
O O1 0.264295 0.735706 0.912133
O O2 0.409694 0.727084 0.855872
O O3 0.350122 0.864989 0.893579
O O4 0.388731 0.761928 0.000000
O O5 0.102077 0.505561 0.159397
O O6 0.098853 0.376673 0.252411
O O7 0.175616 0.375883 0.126748
O O8 0.011312 0.382469 0.136600
O O9 0.666154 0.500000 0.250000
O O10 0.569974 0.569974 0.348806
O O11 0.674057 0.448514 0.383558
O O12 0.299209 0.299209 0.915271
O O13 0.415323 0.239556 0.000000
#
# Coordination Sequence:
#
# PCOD8316653 Si02
#       5
#    16  16  16  16  16
#     4  10  20  32  48  72  98 122 152 194 242 286
#     4   9  18  32  49  72  94 118 157 196 233 280
#     4  11  22  35  49  64  85 119 166 209 242 277
#     4   9  17  31  52  72  93 119 153 197 236 279
#     4  11  23  35  47  67  96 126 158 197 237 280
#
# _framework density 16.137422999999998
#
# number of rings (size 3 to 8) (size 9 to 14) (size 15 to 20)
#    0.000    2.000    2.000    3.600    0.000    5.800 
#    0.000    3.000    0.000    0.000    0.000    0.000 
#    0.000    0.800    0.000    8.800    0.000    6.400 
#
# Total GULP energy -991273.048718 kJ/mol
# GULP energy per Si atom -12390.913109 kJ/mol
# Density = 1.610069 g / cm^3
# Si number density = 16.137423 Si / 1000 Ang^3
#
#
#
# Elastic Constant Matrix: (Units=GPa)
#
#
# Indices 1 2 3 4 5 6 
#
# 1 87.3950 44.2712 46.7563 0.0000 0.0000 0.0000
# 2 44.2712 87.3950 46.7563 0.0000 0.0000 0.0000
# 3 46.7563 46.7563 86.8474 0.0000 0.0000 0.0000
# 4 0.0000 0.0000 0.0000 24.2453 0.0000 0.0000
# 5 0.0000 0.0000 0.0000 0.0000 24.2453 0.0000
# 6 0.0000 0.0000 0.0000 0.0000 0.0000 14.3953
#
#
#
# Elastic Compliance Matrix: (Units=1/GPa)
#
#
# Indices 1 2 3 4 5 6 
#
# 1 0.017743 -0.005446 -0.006620 0.000000 0.000000 0.000000
# 2 -0.005446 0.017743 -0.006620 0.000000 0.000000 0.000000
# 3 -0.006620 -0.006620 0.018643 0.000000 0.000000 0.000000
# 4 0.000000 0.000000 0.000000 0.041245 0.000000 0.000000
# 5 0.000000 0.000000 0.000000 0.000000 0.041245 0.000000
# 6 0.000000 0.000000 0.000000 0.000000 0.000000 0.069467
#
#
# Mechanical properties :
#
#
# Convention : Reuss Voigt Hill
#
# Bulk Modulus (GPa) = 59.68243 59.68948 59.68596
# Shear Modulus (GPa) = 20.07673 20.83409 20.45541
#
# Velocity S-wave (km/s) = 3.53102 3.59701 3.56417
# Velocity P-wave (km/s) = 7.32723 7.37020 7.34874
#
# Compressibility (1/GPa) = 0.01675535
#
# Stress axis : x y z
#
# Youngs Moduli (GPa) = 56.36038 56.36038 53.63991
#
# Poissons Ratio (x) = 0.30694 0.35511
# Poissons Ratio (y) = 0.30694 0.35511
# Poissons Ratio (z) = 0.37312 0.37312
#
# Static dielectric constant tensor:
#      x y z
#    x 3.050100 0.000000 0.000000 
#    y 0.000000 3.050100 0.000000 
#    z 0.000000 0.000000 3.174550 
# 
# 
# High freq. dielectric constant tensor:
#      x y z
#    x 1.597390 0.000000 0.000000 
#    y 0.000000 1.597390 0.000000 
#    z 0.000000 0.000000 1.629380 
# 
# From -- ./inp_files/4624.got.cif
#   From: 2010.03.12/outbox.cif.g09.slc.cpg/sg132_3_cif.got.tgz:4624.got - 2010.04.06 17:53:44.
