data_PCOD8316928
_publ_section_title
;
Structure prediction by ZEFSAII (Michael W. Deem and Ramdas Pophale) SiO2 
 PCOD8316928
Probable space group: P 42/N B C
;
_chemical_formula_sum "Si O2"
_cell_formula_units_Z 112
_cell_length_a 13.872550
_cell_length_b 13.872550
_cell_length_c 27.307301
_cell_angle_alpha 90.000000
_cell_angle_beta 90.000000
_cell_angle_gamma 90.000000
_cell_volume 5255.225728
_symmetry_space_group_name_H-M "P 42/N B C"
_symmetry_group_IT_number 133
_space_group.IT_coordinate_system_code '2'
_symmetry_cell_setting 'tetragonal'
loop_
_space_group_symop_operation_xyz
x,y,z
1/2-y,x,1/2+z
1/2-x,1/2-y,z
y,1/2-x,1/2+z
x,1/2-y,-z
1/2-x,y,-z
y,x,1/2-z
1/2-y,1/2-x,1/2-z
-x,-y,-z
1/2+y,-x,1/2-z
1/2+x,1/2+y,-z
-y,1/2+x,1/2-z
-x,1/2+y,z
1/2+x,-y,z
-y,-x,1/2+z
1/2+y,1/2+x,1/2+z
loop_
_atom_site_type_symbol
_atom_site_label
_atom_site_fract_x
_atom_site_fract_y
_atom_site_fract_z
Si Si1 0.822209 0.903051 0.064523
Si Si2 0.312101 0.920927 0.132096
Si Si3 0.780785 0.858007 0.342867
Si Si4 0.406734 0.391250 0.458906
Si Si5 0.039263 0.057183 0.695942
Si Si6 0.286494 0.521615 0.395237
Si Si7 0.094036 0.921317 0.114656
O O1 0.864543 0.830809 0.104017
O O2 0.714066 0.864788 0.054603
O O3 0.822399 0.009963 0.085729
O O4 0.891982 0.912275 0.017648
O O5 0.375422 0.827397 0.121003
O O6 0.198813 0.897992 0.138293
O O7 0.354570 0.968849 0.181566
O O8 0.750000 0.750000 0.328119
O O9 0.852787 0.898271 0.301885
O O10 0.697169 0.938822 0.351931
O O11 0.335772 0.478133 0.443833
O O12 0.509642 0.403002 0.432497
O O13 0.016325 0.016325 0.750000
O O14 0.028729 0.970639 0.656881
O O15 0.174573 0.542925 0.404502
#
# Coordination Sequence:
#
# PCOD8316928 Si02
#       7
#    16  16  16  16  16  16  16
#     4   9  20  37  60  90 124 166 215 260 313 391
#     4  10  21  41  65  86 126 176 204 271 333 392
#     4  10  20  38  62  93 129 163 213 269 323 382
#     4  10  19  38  62  88 126 170 211 260 322 378
#     4  10  22  42  64  93 127 163 215 278 336 405
#     4  11  21  37  62  91 125 171 212 254 329 385
#     4  10  22  42  64  92 129 167 215 271 323 401
#
# _framework density 21.31212
#
# number of rings (size 3 to 8) (size 9 to 14) (size 15 to 20)
#    0.000    2.000    2.857    0.429    0.000    1.429 
#    7.714    0.000    0.000    3.429    0.000    0.000 
#    0.000    0.000    0.000    0.000    0.000    0.000 
#
# Total GULP energy -1387922.376637 kJ/mol
# GULP energy per Si atom -12392.164077 kJ/mol
# Density = 2.126361 g / cm^3
# Si number density = 21.312120 Si / 1000 Ang^3
#
#
#
# Elastic Constant Matrix: (Units=GPa)
#
#
# Indices 1 2 3 4 5 6 
#
# 1 96.4307 22.8986 12.1982 0.0000 0.0000 0.0000
# 2 22.8986 96.4307 12.1982 0.0000 0.0000 0.0000
# 3 12.1982 12.1982 85.1286 0.0000 0.0000 0.0000
# 4 0.0000 0.0000 0.0000 18.8128 0.0000 0.0000
# 5 0.0000 0.0000 0.0000 0.0000 18.8128 0.0000
# 6 0.0000 0.0000 0.0000 0.0000 0.0000 41.1539
#
#
#
# Elastic Compliance Matrix: (Units=1/GPa)
#
#
# Indices 1 2 3 4 5 6 
#
# 1 0.011116 -0.002483 -0.001237 0.000000 0.000000 0.000000
# 2 -0.002483 0.011116 -0.001237 0.000000 0.000000 0.000000
# 3 -0.001237 -0.001237 0.012101 0.000000 0.000000 0.000000
# 4 0.000000 0.000000 0.000000 0.053155 0.000000 0.000000
# 5 0.000000 0.000000 0.000000 0.000000 0.053155 0.000000
# 6 0.000000 0.000000 0.000000 0.000000 0.000000 0.024299
#
#
# Mechanical properties :
#
#
# Convention : Reuss Voigt Hill
#
# Bulk Modulus (GPa) = 40.95098 41.39775 41.17436
# Shear Modulus (GPa) = 27.32267 31.13556 29.22912
#
# Velocity S-wave (km/s) = 3.58442 3.82636 3.70737
# Velocity P-wave (km/s) = 6.03219 6.24404 6.13903
#
# Compressibility (1/GPa) = 0.02441944
#
# Stress axis : x y z
#
# Youngs Moduli (GPa) = 89.95808 89.95808 82.63470
#
# Poissons Ratio (x) = 0.22338 0.10222
# Poissons Ratio (y) = 0.22338 0.10222
# Poissons Ratio (z) = 0.11128 0.11128
#
# Static dielectric constant tensor:
#      x y z
#    x 4.038420 0.000000 0.000000 
#    y 0.000000 4.038420 0.000000 
#    z 0.000000 0.000000 3.466950 
# 
# 
# High freq. dielectric constant tensor:
#      x y z
#    x 1.844250 0.000000 0.000000 
#    y 0.000000 1.844250 0.000000 
#    z 0.000000 0.000000 1.799950 
# 
# From -- ./inp_files/7633.got.cif
#   From: 2010.03.12/outbox.cif.g09.slc.cpg/sg133_4_cif.got.tgz:7633.got - 2010.04.06 18:08:06.
