data_PCOD8316560
_publ_section_title
;
Structure prediction by ZEFSAII (Michael W. Deem and Ramdas Pophale) SiO2 
 PCOD8316560
Probable space group: P 42/M C M
;
_chemical_formula_sum "Si O2"
_cell_formula_units_Z 104
_cell_length_a 20.687449
_cell_length_b 20.687449
_cell_length_c 15.523594
_cell_angle_alpha 90.000000
_cell_angle_beta 90.000000
_cell_angle_gamma 90.000000
_cell_volume 6643.641002
_symmetry_space_group_name_H-M "P 42/M C M"
_symmetry_group_IT_number 132
_symmetry_cell_setting 'tetragonal'
loop_
_space_group_symop_operation_xyz
x,y,z
-y,x,1/2+z
-x,-y,z
y,-x,1/2+z
x,-y,1/2-z
-x,y,1/2-z
y,x,-z
-y,-x,-z
-x,-y,-z
y,-x,1/2-z
x,y,-z
-y,x,1/2-z
-x,y,1/2+z
x,-y,1/2+z
-y,-x,z
y,x,z
loop_
_atom_site_type_symbol
_atom_site_label
_atom_site_fract_x
_atom_site_fract_y
_atom_site_fract_z
Si Si1 0.724615 0.000000 0.250000
Si Si2 0.864563 0.235296 0.250000
Si Si3 0.426601 0.135410 0.149939
Si Si4 0.374525 0.000000 0.903559
Si Si5 0.864590 0.573399 0.350061
Si Si6 0.305533 0.204037 0.597403
Si Si7 0.305534 0.204038 0.097403
O O1 0.772963 0.940451 0.249999
O O2 0.682559 0.999999 0.335709
O O3 0.836089 0.163912 0.250000
O O4 0.844533 0.272566 0.163652
O O5 0.844532 0.272566 0.336348
O O6 0.500000 0.157463 0.133934
O O7 0.410009 0.127584 0.250000
O O8 0.382470 0.193738 0.110893
O O9 0.416688 0.065154 0.107202
O O10 0.416689 0.934847 0.892798
O O11 0.345724 1.000000 0.000000
O O12 0.806263 0.617531 0.389108
O O13 0.287870 0.183611 0.500000
O O14 0.277516 0.277516 0.614467
O O15 0.277517 0.277517 0.114467
O O16 0.287871 0.183612 0.000000
#
# Coordination Sequence:
#
# PCOD8316560 Si02
#       7
#     8  16  16  16  16  16  16
#     4  12  20  34  49  73  96 120 158 204 228 290
#     4  10  20  34  50  69  94 122 152 197 246 280
#     4  11  21  33  47  67  98 133 163 192 230 280
#     4  12  21  31  47  68  95 131 160 189 230 275
#     4  11  21  33  47  67  98 133 163 192 230 280
#     4  10  19  32  50  69  90 122 162 200 238 279
#     4  10  19  32  50  69  90 122 162 200 238 279
#
# _framework density 15.654067
#
# number of rings (size 3 to 8) (size 9 to 14) (size 15 to 20)
#    0.000    1.231    6.154    1.385    0.000    4.308 
#    0.000    0.000    0.000    0.231    0.000    0.000 
#    0.000    0.615    0.000   15.846    0.000    4.923 
#
# Total GULP energy -1288648.138562 kJ/mol
# GULP energy per Si atom -12390.847486 kJ/mol
# Density = 1.561844 g / cm^3
# Si number density = 15.654067 Si / 1000 Ang^3
#
#
#
# Elastic Constant Matrix: (Units=GPa)
#
#
# Indices 1 2 3 4 5 6 
#
# 1 101.3416 66.4006 36.5011 0.0000 0.0000 0.0000
# 2 66.4006 101.3416 36.5011 0.0000 0.0000 0.0000
# 3 36.5011 36.5011 120.7923 0.0000 0.0000 0.0000
# 4 0.0000 0.0000 0.0000 11.7845 0.0000 0.0000
# 5 0.0000 0.0000 0.0000 0.0000 11.7845 0.0000
# 6 0.0000 0.0000 0.0000 0.0000 0.0000 24.3931
#
#
#
# Elastic Compliance Matrix: (Units=1/GPa)
#
#
# Indices 1 2 3 4 5 6 
#
# 1 0.017742 -0.010878 -0.002074 0.000000 0.000000 0.000000
# 2 -0.010878 0.017742 -0.002074 0.000000 0.000000 0.000000
# 3 -0.002074 -0.002074 0.009532 0.000000 0.000000 0.000000
# 4 0.000000 0.000000 0.000000 0.084857 0.000000 0.000000
# 5 0.000000 0.000000 0.000000 0.000000 0.084857 0.000000
# 6 0.000000 0.000000 0.000000 0.000000 0.000000 0.040995
#
#
# Mechanical properties :
#
#
# Convention : Reuss Voigt Hill
#
# Bulk Modulus (GPa) = 66.82798 66.92012 66.87405
# Shear Modulus (GPa) = 17.19597 21.86395 19.52996
#
# Velocity S-wave (km/s) = 3.31796 3.74129 3.53597
# Velocity P-wave (km/s) = 7.58034 7.84252 7.71255
#
# Compressibility (1/GPa) = 0.01496379
#
# Stress axis : x y z
#
# Youngs Moduli (GPa) = 56.36358 56.36358 104.90691
#
# Poissons Ratio (x) = 0.61311 0.21760
# Poissons Ratio (y) = 0.61311 0.21760
# Poissons Ratio (z) = 0.11691 0.11691
#
# Static dielectric constant tensor:
#      x y z
#    x 3.052580 0.000000 0.000000 
#    y 0.000000 3.052580 0.000000 
#    z 0.000000 0.000000 3.296050 
# 
# 
# High freq. dielectric constant tensor:
#      x y z
#    x 1.575600 0.000000 0.000000 
#    y 0.000000 1.575600 0.000000 
#    z 0.000000 0.000000 1.628790 
# 
# From -- ./inp_files/5080.got.cif
#   From: 2010.03.12/outbox.cif.g09.slc.cpg/sg132_3_cif.got.tgz:5080.got - 2010.04.06 17:53:44.
