data_PCOD8316185
_publ_section_title
;
Structure prediction by ZEFSAII (Michael W. Deem and Ramdas Pophale) SiO2 
 PCOD8316185
Probable space group: P 42/M M C
;
_chemical_formula_sum "Si O2"
_cell_formula_units_Z 72
_cell_length_a 14.444163
_cell_length_b 14.444163
_cell_length_c 17.997634
_cell_angle_alpha 90.000000
_cell_angle_beta 90.000000
_cell_angle_gamma 90.000000
_cell_volume 3754.915578
_symmetry_space_group_name_H-M "P 42/M M C"
_symmetry_group_IT_number 131
_symmetry_cell_setting 'tetragonal'
loop_
_space_group_symop_operation_xyz
x,y,z
-x,-y,z
-y,x,1/2+z
y,-x,1/2+z
-x,y,-z
x,-y,-z
y,x,1/2-z
-y,-x,1/2-z
-x,-y,-z
x,y,-z
y,-x,1/2-z
-y,x,1/2-z
x,-y,z
-x,y,z
-y,-x,1/2+z
y,x,1/2+z
loop_
_atom_site_type_symbol
_atom_site_label
_atom_site_fract_x
_atom_site_fract_y
_atom_site_fract_z
Si Si1 0.000000 0.609337 0.081437
Si Si2 0.102782 0.897522 0.587947
Si Si3 0.233377 0.736234 0.587463
Si Si4 0.894353 0.608304 0.329179
Si Si5 0.391579 0.181224 0.331564
O O1 0.908551 0.641135 0.123091
O O2 0.000000 0.500000 0.075481
O O3 0.000000 0.656116 0.000000
O O4 0.097569 0.889215 0.500000
O O5 0.176162 0.824272 0.618368
O O6 0.000000 0.877463 0.620473
O O7 0.135799 0.000000 0.612063
O O8 0.256167 0.738546 0.500000
O O9 0.168058 0.648494 0.604261
O O10 0.329661 0.734816 0.634656
O O11 0.900287 0.500000 0.341598
O O12 0.840013 0.631844 0.253533
O O13 0.000000 0.647920 0.328755
O O14 0.500000 0.205251 0.342679
#
# Coordination Sequence:
#
# PCOD8316185 Si02
#       5
#     8  16  16  16  16
#     4   9  16  28  50  78 106 138 176 219 270 326
#     4   8  15  28  44  66 102 143 177 212 259 317
#     4  11  22  33  53  84 113 145 188 237 285 338
#     4  10  21  39  60  80 109 152 197 238 282 332
#     4  10  20  36  55  79 113 149 184 229 284 343
#
# _framework density 19.174866000000002
#
# number of rings (size 3 to 8) (size 9 to 14) (size 15 to 20)
#    0.000    2.333    1.111    2.667    1.556    3.111 
#    0.000    1.111    0.000    0.667    0.000    7.778 
#    0.000    0.000    0.000    0.000    0.000    0.000 
#
# Total GULP energy -892468.105532 kJ/mol
# GULP energy per Si atom -12395.390355 kJ/mol
# Density = 1.913122 g / cm^3
# Si number density = 19.174866 Si / 1000 Ang^3
#
#
#
# Elastic Constant Matrix: (Units=GPa)
#
#
# Indices 1 2 3 4 5 6 
#
# 1 62.4263 34.3529 30.6442 0.0000 0.0000 0.0000
# 2 34.3529 62.4263 30.6442 0.0000 0.0000 0.0000
# 3 30.6442 30.6442 52.7098 0.0000 0.0000 0.0000
# 4 0.0000 0.0000 0.0000 28.0147 0.0000 0.0000
# 5 0.0000 0.0000 0.0000 0.0000 28.0147 0.0000
# 6 0.0000 0.0000 0.0000 0.0000 0.0000 28.0465
#
#
#
# Elastic Compliance Matrix: (Units=1/GPa)
#
#
# Indices 1 2 3 4 5 6 
#
# 1 0.025987 -0.009633 -0.009508 0.000000 0.000000 0.000000
# 2 -0.009633 0.025987 -0.009508 0.000000 0.000000 0.000000
# 3 -0.009508 -0.009508 0.030027 0.000000 0.000000 0.000000
# 4 0.000000 0.000000 0.000000 0.035696 0.000000 0.000000
# 5 0.000000 0.000000 0.000000 0.000000 0.035696 0.000000
# 6 0.000000 0.000000 0.000000 0.000000 0.000000 0.035655
#
#
# Mechanical properties :
#
#
# Convention : Reuss Voigt Hill
#
# Bulk Modulus (GPa) = 40.47974 40.98278 40.73126
# Shear Modulus (GPa) = 19.64018 22.27660 20.95839
#
# Velocity S-wave (km/s) = 3.20389 3.41216 3.30966
# Velocity P-wave (km/s) = 5.90281 6.07810 5.99110
#
# Compressibility (1/GPa) = 0.02470371
#
# Stress axis : x y z
#
# Youngs Moduli (GPa) = 38.48028 38.48028 33.30346
#
# Poissons Ratio (x) = 0.37070 0.31664
# Poissons Ratio (y) = 0.37070 0.31664
# Poissons Ratio (z) = 0.36586 0.36586
#
# Static dielectric constant tensor:
#      x y z
#    x 3.470300 0.000000 0.000000 
#    y 0.000000 3.470300 0.000000 
#    z 0.000000 0.000000 3.358000 
# 
# 
# High freq. dielectric constant tensor:
#      x y z
#    x 1.733880 0.000000 0.000000 
#    y 0.000000 1.733880 0.000000 
#    z 0.000000 0.000000 1.730060 
# 
# From -- ./inp_files/7520.got.cif
#   From: 2010.03.12/outbox.cif.g09.slc.cpg/sg131_4_cif.got.tgz:7520.got - 2010.04.06 17:36:35.
