data_PCOD8316758
_publ_section_title
;
Structure prediction by ZEFSAII (Michael W. Deem and Ramdas Pophale) SiO2 
 PCOD8316758
Probable space group: P 42/M C M
;
_chemical_formula_sum "Si O2"
_cell_formula_units_Z 58
_cell_length_a 17.607076
_cell_length_b 17.607076
_cell_length_c 9.543619
_cell_angle_alpha 90.000000
_cell_angle_beta 90.000000
_cell_angle_gamma 90.000000
_cell_volume 2958.608978
_symmetry_space_group_name_H-M "P 42/M C M"
_symmetry_group_IT_number 132
_symmetry_cell_setting 'tetragonal'
loop_
_space_group_symop_operation_xyz
x,y,z
-y,x,1/2+z
-x,-y,z
y,-x,1/2+z
x,-y,1/2-z
-x,y,1/2-z
y,x,-z
-y,-x,-z
-x,-y,-z
y,-x,1/2-z
x,y,-z
-y,x,1/2-z
-x,y,1/2+z
x,-y,1/2+z
-y,-x,z
y,x,z
loop_
_atom_site_type_symbol
_atom_site_label
_atom_site_fract_x
_atom_site_fract_y
_atom_site_fract_z
Si Si1 0.500000 0.500000 0.750000
Si Si2 0.431025 0.764775 0.337006
Si Si3 0.770829 0.102062 0.000000
Si Si4 0.810782 0.930946 0.000000
Si Si5 0.618059 0.381942 0.837875
Si Si6 0.157385 0.280734 0.223182
O O1 0.553405 0.446595 0.845492
O O2 0.500000 0.802924 0.250000
O O3 0.451318 0.744973 0.500000
O O4 0.411516 0.690041 0.248247
O O5 0.363526 0.826125 0.338153
O O6 0.714094 0.116174 0.128118
O O7 0.839292 0.160709 0.000000
O O8 0.812636 0.021263 0.000000
O O9 0.765704 0.902204 0.866613
O O10 0.896627 0.896627 0.000000
O O11 0.639224 0.360777 0.000000
O O12 0.238173 0.238173 0.230245
#
# Coordination Sequence:
#
# PCOD8316758 Si02
#       6
#     2  16   8   8   8  16
#     4  12  26  44  56  86 142 172 194 240 354 400
#     4  12  25  40  62  90 123 165 216 272 321 365
#     4  10  22  37  63 101 129 163 205 257 307 377
#     4  10  20  39  65  95 129 171 201 245 315 385
#     4  12  26  39  62  87 125 168 211 259 313 388
#     4  10  21  38  63  88 126 166 216 255 308 376
#
# _framework density 19.603807
#
# number of rings (size 3 to 8) (size 9 to 14) (size 15 to 20)
#    0.000    1.103    4.138    2.276    3.862    1.379 
#    0.000    0.000    0.000    9.931    0.000    0.000 
#    0.000    0.000    0.000    0.000    0.000    0.000 
#
# Total GULP energy -718963.876219 kJ/mol
# GULP energy per Si atom -12395.928900 kJ/mol
# Density = 1.955919 g / cm^3
# Si number density = 19.603807 Si / 1000 Ang^3
#
#
#
# Elastic Constant Matrix: (Units=GPa)
#
#
# Indices 1 2 3 4 5 6 
#
# 1 74.8186 16.4669 26.2300 0.0000 0.0000 0.0000
# 2 16.4669 74.8189 26.2301 0.0000 0.0000 0.0000
# 3 26.2300 26.2301 172.5229 0.0000 0.0000 0.0000
# 4 0.0000 0.0000 0.0000 23.2803 0.0000 0.0000
# 5 0.0000 0.0000 0.0000 0.0000 23.2799 0.0000
# 6 0.0000 0.0000 0.0000 0.0000 0.0000 18.3347
#
#
#
# Elastic Compliance Matrix: (Units=1/GPa)
#
#
# Indices 1 2 3 4 5 6 
#
# 1 0.014570 -0.002567 -0.001825 0.000000 0.000000 0.000000
# 2 -0.002567 0.014570 -0.001825 0.000000 0.000000 0.000000
# 3 -0.001825 -0.001825 0.006351 0.000000 0.000000 0.000000
# 4 0.000000 0.000000 0.000000 0.042955 0.000000 0.000000
# 5 0.000000 0.000000 0.000000 0.000000 0.042956 0.000000
# 6 0.000000 0.000000 0.000000 0.000000 0.000000 0.054541
#
#
# Mechanical properties :
#
#
# Convention : Reuss Voigt Hill
#
# Bulk Modulus (GPa) = 43.36857 51.11270 47.24063
# Shear Modulus (GPa) = 25.50190 29.86120 27.68155
#
# Velocity S-wave (km/s) = 3.61066 3.90710 3.76180
# Velocity P-wave (km/s) = 6.28912 6.81787 6.55883
#
# Compressibility (1/GPa) = 0.02305817
#
# Stress axis : x y z
#
# Youngs Moduli (GPa) = 68.63211 68.63242 157.44900
#
# Poissons Ratio (x) = 0.17618 0.28734
# Poissons Ratio (y) = 0.17618 0.28734
# Poissons Ratio (z) = 0.12525 0.12525
#
# Static dielectric constant tensor:
#      x y z
#    x 3.500610 0.000000 0.000000 
#    y 0.000000 3.500610 0.000000 
#    z 0.000000 0.000000 4.022270 
# 
# 
# High freq. dielectric constant tensor:
#      x y z
#    x 1.746550 0.000000 0.000000 
#    y 0.000000 1.746550 0.000000 
#    z 0.000000 0.000000 1.788080 
# 
# From -- ./inp_files/1049.got.cif
#   From: 2010.03.12/outbox.cif.g09.slc.cpg/sg132_1_cif.got.tgz:1049.got - 2010.04.06 17:53:44.
