data_PCOD8316843
_publ_section_title
;
Structure prediction by ZEFSAII (Michael W. Deem and Ramdas Pophale) SiO2 
 PCOD8316843
Probable space group: P 42/M C M
;
_chemical_formula_sum "Si O2"
_cell_formula_units_Z 64
_cell_length_a 14.164280
_cell_length_b 14.164280
_cell_length_c 18.108326
_cell_angle_alpha 90.000000
_cell_angle_beta 90.000000
_cell_angle_gamma 90.000000
_cell_volume 3633.016004
_symmetry_space_group_name_H-M "P 42/M C M"
_symmetry_group_IT_number 132
_symmetry_cell_setting 'tetragonal'
loop_
_space_group_symop_operation_xyz
x,y,z
-y,x,1/2+z
-x,-y,z
y,-x,1/2+z
x,-y,1/2-z
-x,y,1/2-z
y,x,-z
-y,-x,-z
-x,-y,-z
y,-x,1/2-z
x,y,-z
-y,x,1/2-z
-x,y,1/2+z
x,-y,1/2+z
-y,-x,z
y,x,z
loop_
_atom_site_type_symbol
_atom_site_label
_atom_site_fract_x
_atom_site_fract_y
_atom_site_fract_z
Si Si1 0.073528 0.636187 0.412740
Si Si2 0.873035 0.425549 0.912933
Si Si3 0.610821 0.389180 0.416018
Si Si4 0.231085 0.768916 0.583509
Si Si5 0.298359 0.448173 0.677884
O O1 0.084367 0.641576 0.500000
O O2 0.112552 0.534343 0.388409
O O3 0.136103 0.723278 0.378329
O O4 0.962930 0.639954 0.390638
O O5 0.783799 0.391752 0.865687
O O6 0.853423 0.417274 0.000000
O O7 0.585202 0.414799 0.500000
O O8 0.689943 0.310058 0.413398
O O9 0.517155 0.351569 0.377764
O O10 0.204308 0.795693 0.500000
O O11 0.256947 0.500000 0.750000
O O12 0.371485 0.371485 0.708383
#
# Coordination Sequence:
#
# PCOD8316843 Si02
#       5
#    16  16   8   8  16
#     4   8  14  26  47  74 100 123 161 217 260 292
#     4   9  17  31  50  71  95 128 172 216 251 298
#     4  11  21  34  53  72  92 131 182 212 242 309
#     4   9  14  25  50  79  99 124 163 211 264 304
#     4  12  24  36  47  65 100 139 172 217 269 310
#
# _framework density 17.616216999999999
#
# number of rings (size 3 to 8) (size 9 to 14) (size 15 to 20)
#    0.000    2.250    3.750    2.625    0.000    2.500 
#    0.000    2.500    0.000    0.000    0.000    0.875 
#    0.000    5.000    0.000    0.000   12.250    0.000 
#
# Total GULP energy -792939.554570 kJ/mol
# GULP energy per Si atom -12389.680540 kJ/mol
# Density = 1.757612 g / cm^3
# Si number density = 17.616217 Si / 1000 Ang^3
#
#
#
# Elastic Constant Matrix: (Units=GPa)
#
#
# Indices 1 2 3 4 5 6 
#
# 1 185.6438 -46.8703 26.6983 0.0000 0.0000 0.0000
# 2 -46.8703 185.6443 26.6977 0.0000 0.0000 0.0000
# 3 26.6983 26.6977 55.5031 0.0000 0.0000 0.0000
# 4 0.0000 0.0000 0.0000 10.0845 0.0000 0.0000
# 5 0.0000 0.0000 0.0000 0.0000 10.0846 0.0000
# 6 0.0000 0.0000 0.0000 0.0000 0.0000 37.2556
#
#
#
# Elastic Compliance Matrix: (Units=1/GPa)
#
#
# Indices 1 2 3 4 5 6 
#
# 1 0.006572 0.002271 -0.004253 0.000000 0.000000 0.000000
# 2 0.002271 0.006572 -0.004253 0.000000 0.000000 0.000000
# 3 -0.004253 -0.004253 0.022109 0.000000 0.000000 0.000000
# 4 0.000000 0.000000 0.000000 0.099162 0.000000 0.000000
# 5 0.000000 0.000000 0.000000 0.000000 0.099161 0.000000
# 6 0.000000 0.000000 0.000000 0.000000 0.000000 0.026842
#
#
# Mechanical properties :
#
#
# Convention : Reuss Voigt Hill
#
# Bulk Modulus (GPa) = 43.89745 48.87140 46.38442
# Shear Modulus (GPa) = 17.82642 39.50264 28.66453
#
# Velocity S-wave (km/s) = 3.18454 4.74054 4.03819
# Velocity P-wave (km/s) = 6.20440 7.60040 6.93760
#
# Compressibility (1/GPa) = 0.02278037
#
# Stress axis : x y z
#
# Youngs Moduli (GPa) = 152.16741 152.16838 45.23053
#
# Poissons Ratio (x) = -0.34556 0.19239
# Poissons Ratio (y) = -0.34555 0.19238
# Poissons Ratio (z) = 0.64724 0.64723
#
# Static dielectric constant tensor:
#      x y z
#    x 3.855290 0.000000 0.000000 
#    y 0.000000 3.855280 0.000000 
#    z 0.000000 0.000000 2.999720 
# 
# 
# High freq. dielectric constant tensor:
#      x y z
#    x 1.661510 0.000000 0.000000 
#    y 0.000000 1.661510 0.000000 
#    z 0.000000 0.000000 1.652170 
# 
# From -- ./inp_files/5989.got.cif
#   From: 2010.03.12/outbox.cif.g09.slc.cpg/sg132_3_cif.got.tgz:5989.got - 2010.04.06 17:53:44.
