data_PCOD8316182
_publ_section_title
;
Structure prediction by ZEFSAII (Michael W. Deem and Ramdas Pophale) SiO2 
 PCOD8316182
Probable space group: P 42/M M C
;
_chemical_formula_sum "Si O2"
_cell_formula_units_Z 112
_cell_length_a 14.518199
_cell_length_b 14.518199
_cell_length_c 25.806383
_cell_angle_alpha 90.000000
_cell_angle_beta 90.000000
_cell_angle_gamma 90.000000
_cell_volume 5439.420433
_symmetry_space_group_name_H-M "P 42/M M C"
_symmetry_group_IT_number 131
_symmetry_cell_setting 'tetragonal'
loop_
_space_group_symop_operation_xyz
x,y,z
-x,-y,z
-y,x,1/2+z
y,-x,1/2+z
-x,y,-z
x,-y,-z
y,x,1/2-z
-y,-x,1/2-z
-x,-y,-z
x,y,-z
y,-x,1/2-z
-y,x,1/2-z
x,-y,z
-x,y,z
-y,-x,1/2+z
y,x,1/2+z
loop_
_atom_site_type_symbol
_atom_site_label
_atom_site_fract_x
_atom_site_fract_y
_atom_site_fract_z
Si Si1 0.392776 0.107224 0.750000
Si Si2 0.102468 0.898750 0.890795
Si Si3 0.398750 0.602468 0.390795
Si Si4 0.605427 0.793713 0.147602
Si Si5 0.788737 0.604576 0.941808
Si Si6 0.104576 0.711263 0.441808
Si Si7 0.894573 0.293713 0.852398
O O1 0.500000 0.126831 0.740017
O O2 0.355178 0.162493 0.799756
O O3 0.337507 0.144822 0.700244
O O4 0.373169 0.000000 0.759983
O O5 0.178241 0.888607 0.935694
O O6 0.116111 0.817254 0.848618
O O7 0.000000 0.889340 0.915634
O O8 0.112857 0.000000 0.863784
O O9 0.389340 0.500000 0.415634
O O10 0.500000 0.612857 0.363784
O O11 0.317254 0.616111 0.348618
O O12 0.388607 0.678241 0.435694
O O13 0.500000 0.824709 0.140269
O O14 0.661550 0.828715 0.098240
O O15 0.822333 0.500000 0.932179
O O16 0.838450 0.671285 0.901760
O O17 0.813358 0.636358 0.000000
O O18 0.136358 0.686642 0.500000
O O19 0.000000 0.677667 0.432179
O O20 0.000000 0.324709 0.859731
#
# Coordination Sequence:
#
# PCOD8316182 Si02
#       7
#    16  16  16  16  16  16  16
#     4   9  18  34  57  84 112 142 179 223 272 330
#     4   9  19  36  56  79 108 143 186 231 272 321
#     4   9  19  36  56  79 108 143 186 231 272 321
#     4  10  20  35  58  85 112 145 183 225 276 331
#     4  10  21  36  55  81 113 147 183 227 278 330
#     4  10  21  36  55  81 113 147 183 227 278 330
#     4  10  20  35  58  85 112 145 183 225 276 331
#
# _framework density 20.590430000000001
#
# number of rings (size 3 to 8) (size 9 to 14) (size 15 to 20)
#    0.000    2.429    0.000    1.714    0.000    5.143 
#    0.000   10.000    0.000    5.143    0.000   12.000 
#    0.000    0.000    0.000    0.000    0.000    0.000 
#
# Total GULP energy -1388173.628028 kJ/mol
# GULP energy per Si atom -12394.407393 kJ/mol
# Density = 2.054357 g / cm^3
# Si number density = 20.590430 Si / 1000 Ang^3
#
#
#
# Elastic Constant Matrix: (Units=GPa)
#
#
# Indices 1 2 3 4 5 6 
#
# 1 110.4301 45.2068 68.1146 0.0000 0.0000 0.0000
# 2 45.2068 110.4301 68.1146 0.0000 0.0000 0.0000
# 3 68.1146 68.1146 146.9612 0.0000 0.0000 0.0000
# 4 0.0000 0.0000 0.0000 21.1966 0.0000 0.0000
# 5 0.0000 0.0000 0.0000 0.0000 21.1966 0.0000
# 6 0.0000 0.0000 0.0000 0.0000 0.0000 27.2966
#
#
#
# Elastic Compliance Matrix: (Units=1/GPa)
#
#
# Indices 1 2 3 4 5 6 
#
# 1 0.013072 -0.002260 -0.005011 0.000000 0.000000 0.000000
# 2 -0.002260 0.013072 -0.005011 0.000000 0.000000 0.000000
# 3 -0.005011 -0.005011 0.011449 0.000000 0.000000 0.000000
# 4 0.000000 0.000000 0.000000 0.047177 0.000000 0.000000
# 5 0.000000 0.000000 0.000000 0.000000 0.047177 0.000000
# 6 0.000000 0.000000 0.000000 0.000000 0.000000 0.036635
#
#
# Mechanical properties :
#
#
# Convention : Reuss Voigt Hill
#
# Bulk Modulus (GPa) = 76.75504 81.18814 78.97159
# Shear Modulus (GPa) = 25.31789 26.36367 25.84078
#
# Velocity S-wave (km/s) = 3.51036 3.58213 3.54643
# Velocity P-wave (km/s) = 7.33404 7.52492 7.43010
#
# Compressibility (1/GPa) = 0.01302846
#
# Stress axis : x y z
#
# Youngs Moduli (GPa) = 76.50181 76.50181 87.34041
#
# Poissons Ratio (x) = 0.17292 0.43765
# Poissons Ratio (y) = 0.17292 0.43765
# Poissons Ratio (z) = 0.38334 0.38334
#
# Static dielectric constant tensor:
#      x y z
#    x 3.973590 0.000000 0.000000 
#    y 0.000000 3.973590 0.000000 
#    z 0.000000 0.000000 3.373680 
# 
# 
# High freq. dielectric constant tensor:
#      x y z
#    x 1.817250 0.000000 0.000000 
#    y 0.000000 1.817250 0.000000 
#    z 0.000000 0.000000 1.764520 
# 
# From -- ./inp_files/11291.got.cif
#   From: 2010.03.12/outbox.cif.g09.slc.cpg/sg131_6_cif.got.tgz:11291.got - 2010.04.06 17:36:35.
