data_PCOD8316810
_publ_section_title
;
Structure prediction by ZEFSAII (Michael W. Deem and Ramdas Pophale) SiO2 
 PCOD8316810
Probable space group: P 42/M C M
;
_chemical_formula_sum "Si O2"
_cell_formula_units_Z 80
_cell_length_a 12.546182
_cell_length_b 12.546182
_cell_length_c 27.802024
_cell_angle_alpha 90.000000
_cell_angle_beta 90.000000
_cell_angle_gamma 90.000000
_cell_volume 4376.224372
_symmetry_space_group_name_H-M "P 42/M C M"
_symmetry_group_IT_number 132
_symmetry_cell_setting 'tetragonal'
loop_
_space_group_symop_operation_xyz
x,y,z
-y,x,1/2+z
-x,-y,z
y,-x,1/2+z
x,-y,1/2-z
-x,y,1/2-z
y,x,-z
-y,-x,-z
-x,-y,-z
y,-x,1/2-z
x,y,-z
-y,x,1/2-z
-x,y,1/2+z
x,-y,1/2+z
-y,-x,z
y,x,z
loop_
_atom_site_type_symbol
_atom_site_label
_atom_site_fract_x
_atom_site_fract_y
_atom_site_fract_z
Si Si1 0.235830 0.932094 0.295925
Si Si2 0.628035 0.198269 0.056165
Si Si3 0.237765 0.586583 0.396910
Si Si4 0.993950 0.377822 0.379231
Si Si5 0.756575 0.591559 0.786639
O O1 0.131258 0.868743 0.315581
O O2 0.289908 0.005544 0.337012
O O3 0.322289 0.847512 0.278883
O O4 0.200382 0.000000 0.250000
O O5 0.723523 0.276478 0.070745
O O6 0.517064 0.254962 0.070380
O O7 0.644227 0.086627 0.082891
O O8 0.627195 0.173832 0.000000
O O9 0.325805 0.674196 0.410667
O O10 0.120490 0.637365 0.405469
O O11 0.245843 0.549955 0.341350
O O12 0.000000 0.500000 0.359179
O O13 0.783988 0.500000 0.750000
O O14 0.642183 0.642183 0.773790
#
# Coordination Sequence:
#
# PCOD8316810 Si02
#       5
#    16  16  16  16  16
#     4  10  22  35  52  79 110 142 179 223 269 322
#     4  10  22  38  56  82 113 143 181 229 280 333
#     4   9  19  36  56  81 111 144 183 228 276 328
#     4   9  19  35  58  81 106 142 183 229 269 318
#     4   9  19  33  50  76 111 146 182 220 261 317
#
# _framework density 18.280598000000001
#
# number of rings (size 3 to 8) (size 9 to 14) (size 15 to 20)
#    0.000    2.600    0.000    1.800    8.400    6.400 
#    0.000    3.000    0.000    3.600    0.000    5.600 
#    0.000    0.000    0.000    0.000    0.000    0.000 
#
# Total GULP energy -991751.676703 kJ/mol
# GULP energy per Si atom -12396.895959 kJ/mol
# Density = 1.823899 g / cm^3
# Si number density = 18.280598 Si / 1000 Ang^3
#
#
#
# Elastic Constant Matrix: (Units=GPa)
#
#
# Indices 1 2 3 4 5 6 
#
# 1 95.2699 60.0499 60.5086 0.0000 0.0000 0.0000
# 2 60.0499 95.2699 60.5086 0.0000 0.0000 0.0000
# 3 60.5086 60.5086 79.0971 0.0000 0.0000 0.0000
# 4 0.0000 0.0000 0.0000 16.5620 0.0000 0.0000
# 5 0.0000 0.0000 0.0000 0.0000 16.5620 0.0000
# 6 0.0000 0.0000 0.0000 0.0000 0.0000 25.6360
#
#
#
# Elastic Compliance Matrix: (Units=1/GPa)
#
#
# Indices 1 2 3 4 5 6 
#
# 1 0.022166 -0.006227 -0.012193 0.000000 0.000000 0.000000
# 2 -0.006227 0.022166 -0.012193 0.000000 0.000000 0.000000
# 3 -0.012193 -0.012193 0.031297 0.000000 0.000000 0.000000
# 4 0.000000 0.000000 0.000000 0.060379 0.000000 0.000000
# 5 0.000000 0.000000 0.000000 0.000000 0.060379 0.000000
# 6 0.000000 0.000000 0.000000 0.000000 0.000000 0.039008
#
#
# Mechanical properties :
#
#
# Convention : Reuss Voigt Hill
#
# Bulk Modulus (GPa) = 69.42908 70.19677 69.81293
# Shear Modulus (GPa) = 16.58814 17.65665 17.12240
#
# Velocity S-wave (km/s) = 3.01561 3.11121 3.06378
# Velocity P-wave (km/s) = 7.08430 7.16862 7.12659
#
# Compressibility (1/GPa) = 0.01440319
#
# Stress axis : x y z
#
# Youngs Moduli (GPa) = 45.11513 45.11513 31.95190
#
# Poissons Ratio (x) = 0.28095 0.38957
# Poissons Ratio (y) = 0.28095 0.38957
# Poissons Ratio (z) = 0.55007 0.55007
#
# Static dielectric constant tensor:
#      x y z
#    x 3.504750 0.000000 0.000000 
#    y 0.000000 3.504750 0.000000 
#    z 0.000000 0.000000 3.191260 
# 
# 
# High freq. dielectric constant tensor:
#      x y z
#    x 1.708930 0.000000 0.000000 
#    y 0.000000 1.708930 0.000000 
#    z 0.000000 0.000000 1.692120 
# 
# From -- ./inp_files/10567.got.cif
#   From: 2010.03.12/outbox.cif.g09.slc.cpg/sg132_6_cif.got.tgz:10567.got - 2010.04.06 17:53:44.
