data_PCOD8316229
_publ_section_title
;
Structure prediction by ZEFSAII (Michael W. Deem and Ramdas Pophale) SiO2 
 PCOD8316229
Probable space group: P 42/M M C
;
_chemical_formula_sum "Si O2"
_cell_formula_units_Z 44
_cell_length_a 7.538203
_cell_length_b 7.538203
_cell_length_c 39.786668
_cell_angle_alpha 90.000000
_cell_angle_beta 90.000000
_cell_angle_gamma 90.000000
_cell_volume 2260.857694
_symmetry_space_group_name_H-M "P 42/M M C"
_symmetry_group_IT_number 131
_symmetry_cell_setting 'tetragonal'
loop_
_space_group_symop_operation_xyz
x,y,z
-x,-y,z
-y,x,1/2+z
y,-x,1/2+z
-x,y,-z
x,-y,-z
y,x,1/2-z
-y,-x,1/2-z
-x,-y,-z
x,y,-z
y,-x,1/2-z
-y,x,1/2-z
x,-y,z
-x,y,z
-y,-x,1/2+z
y,x,1/2+z
loop_
_atom_site_type_symbol
_atom_site_label
_atom_site_fract_x
_atom_site_fract_y
_atom_site_fract_z
Si Si1 0.702558 0.297443 0.750000
Si Si2 0.000000 0.000000 0.142375
Si Si3 0.302933 0.289761 0.962843
Si Si4 0.000000 0.288230 0.086754
Si Si5 0.000000 0.295116 0.302813
O O1 0.500000 0.264932 0.738546
O O2 0.825390 0.248178 0.718611
O O3 0.177560 0.000000 0.164175
O O4 0.000000 0.818518 0.121291
O O5 0.297144 0.500000 0.963949
O O6 0.500000 0.222344 0.953506
O O7 0.169640 0.222462 0.934447
O O8 0.249297 0.218259 0.000000
O O9 0.000000 0.500000 0.093891
O O10 0.000000 0.500000 0.313922
#
# Coordination Sequence:
#
# PCOD8316229 Si02
#       5
#     8   4  16   8   8
#     4   9  18  35  62  90 108 129 168 215 262 304
#     4  12  26  37  49  76 110 148 186 204 236 310
#     4   8  14  28  53  79  98 124 169 224 278 320
#     4  10  21  36  52  71 102 142 177 213 256 306
#     4  10  21  37  57  81 110 139 168 211 256 295
#
# _framework density 19.461642000000001
#
# number of rings (size 3 to 8) (size 9 to 14) (size 15 to 20)
#    0.000    2.727    0.000    2.727    0.000    5.091 
#    0.000    1.818    0.000    2.182    0.000    0.000 
#    0.000    0.000    0.000    0.000    0.000    0.000 
#
# Total GULP energy -545466.793574 kJ/mol
# GULP energy per Si atom -12396.972581 kJ/mol
# Density = 1.941735 g / cm^3
# Si number density = 19.461642 Si / 1000 Ang^3
#
#
#
# Elastic Constant Matrix: (Units=GPa)
#
#
# Indices 1 2 3 4 5 6 
#
# 1 108.1148 47.1586 79.4882 0.0000 0.0000 0.0000
# 2 47.1586 108.1156 79.4880 0.0000 0.0000 0.0000
# 3 79.4882 79.4880 154.7298 0.0000 0.0000 0.0000
# 4 0.0000 0.0000 0.0000 75.8704 0.0000 0.0000
# 5 0.0000 0.0000 0.0000 0.0000 75.8810 0.0000
# 6 0.0000 0.0000 0.0000 0.0000 0.0000 14.3089
#
#
#
# Elastic Compliance Matrix: (Units=1/GPa)
#
#
# Indices 1 2 3 4 5 6 
#
# 1 0.014996 -0.001409 -0.006980 0.000000 0.000000 0.000000
# 2 -0.001409 0.014996 -0.006979 0.000000 0.000000 0.000000
# 3 -0.006980 -0.006979 0.013634 0.000000 0.000000 0.000000
# 4 0.000000 0.000000 0.000000 0.013180 0.000000 0.000000
# 5 0.000000 0.000000 0.000000 0.000000 0.013179 0.000000
# 6 0.000000 0.000000 0.000000 0.000000 0.000000 0.069887
#
#
# Mechanical properties :
#
#
# Convention : Reuss Voigt Hill
#
# Bulk Modulus (GPa) = 77.59020 87.02553 82.30787
# Shear Modulus (GPa) = 28.58714 44.20043 36.39379
#
# Velocity S-wave (km/s) = 3.83678 4.77084 4.32907
# Velocity P-wave (km/s) = 7.71898 8.66956 8.20804
#
# Compressibility (1/GPa) = 0.01288822
#
# Stress axis : x y z
#
# Youngs Moduli (GPa) = 66.68551 66.68659 73.34638
#
# Poissons Ratio (x) = 0.09399 0.51193
# Poissons Ratio (y) = 0.09399 0.51192
# Poissons Ratio (z) = 0.46544 0.46544
#
# Static dielectric constant tensor:
#      x y z
#    x 3.680560 0.000000 0.000000 
#    y 0.000000 3.680540 0.000000 
#    z 0.000000 0.000000 3.381630 
# 
# 
# High freq. dielectric constant tensor:
#      x y z
#    x 1.762360 0.000000 0.000000 
#    y 0.000000 1.762360 0.000000 
#    z 0.000000 0.000000 1.734900 
# 
# From -- ./inp_files/12795.got.cif
#   From: 2010.03.12/outbox.cif.g09.slc.cpg/sg131_7_cif.got.tgz:12795.got - 2010.04.06 17:36:35.
