data_PCOD8316830
_publ_section_title
;
Structure prediction by ZEFSAII (Michael W. Deem and Ramdas Pophale) SiO2 
 PCOD8316830
Probable space group: P 42/M C M
;
_chemical_formula_sum "Si O2"
_cell_formula_units_Z 56
_cell_length_a 11.013371
_cell_length_b 11.013371
_cell_length_c 26.636088
_cell_angle_alpha 90.000000
_cell_angle_beta 90.000000
_cell_angle_gamma 90.000000
_cell_volume 3230.806735
_symmetry_space_group_name_H-M "P 42/M C M"
_symmetry_group_IT_number 132
_symmetry_cell_setting 'tetragonal'
loop_
_space_group_symop_operation_xyz
x,y,z
-y,x,1/2+z
-x,-y,z
y,-x,1/2+z
x,-y,1/2-z
-x,y,1/2-z
y,x,-z
-y,-x,-z
-x,-y,-z
y,-x,1/2-z
x,y,-z
-y,x,1/2-z
-x,y,1/2+z
x,-y,1/2+z
-y,-x,z
y,x,z
loop_
_atom_site_type_symbol
_atom_site_label
_atom_site_fract_x
_atom_site_fract_y
_atom_site_fract_z
Si Si1 0.355979 0.644022 0.442677
Si Si2 0.590106 0.590106 0.395497
Si Si3 0.751275 0.248726 0.176128
Si Si4 0.643077 0.002265 0.309742
Si Si5 0.750408 0.249593 0.350015
Si Si6 0.365386 0.365386 0.235503
O O1 0.325677 0.674324 0.500000
O O2 0.499516 0.670913 0.430749
O O3 0.268988 0.731013 0.409380
O O4 0.500000 0.500000 0.362626
O O5 0.669273 0.669273 0.359343
O O6 0.716244 0.109963 0.165714
O O7 0.723574 0.276427 0.234321
O O8 0.500000 0.000000 0.324558
O O9 0.656746 0.000000 0.250000
O O10 0.713185 0.115242 0.333626
O O11 0.656765 0.343236 0.323141
O O12 0.328180 0.500000 0.250000
#
# Coordination Sequence:
#
# PCOD8316830 Si02
#       6
#     8   8   8  16   8   8
#     4   9  18  34  59  84 109 140 188 251 309 343
#     4   8  18  32  57  84 103 141 181 244 310 346
#     4  12  21  35  53  80 119 152 187 227 281 346
#     4  11  22  36  53  80 119 157 190 234 281 343
#     4  12  22  36  53  80 114 156 196 225 278 347
#     4  11  20  28  50  79 108 140 176 233 286 342
#
# _framework density 17.333131000000002
#
# number of rings (size 3 to 8) (size 9 to 14) (size 15 to 20)
#    0.857    0.429    2.857    6.000    2.000    0.571 
#    0.000    1.429    0.000    9.429    0.000    1.000 
#    0.000    0.000    0.000    0.000    0.000    0.000 
#
# Total GULP energy -693884.566459 kJ/mol
# GULP energy per Si atom -12390.795830 kJ/mol
# Density = 1.729368 g / cm^3
# Si number density = 17.333131 Si / 1000 Ang^3
#
#
#
# Elastic Constant Matrix: (Units=GPa)
#
#
# Indices 1 2 3 4 5 6 
#
# 1 99.1014 97.0201 44.2008 0.0000 0.0000 0.0000
# 2 97.0201 99.1012 44.2006 0.0000 0.0000 0.0000
# 3 44.2008 44.2006 101.0366 0.0000 0.0000 0.0000
# 4 0.0000 0.0000 0.0000 8.9695 0.0000 0.0000
# 5 0.0000 0.0000 0.0000 0.0000 8.9695 0.0000
# 6 0.0000 0.0000 0.0000 0.0000 0.0000 30.4191
#
#
#
# Elastic Compliance Matrix: (Units=1/GPa)
#
#
# Indices 1 2 3 4 5 6 
#
# 1 0.243419 -0.237068 -0.002779 0.000000 0.000000 0.000000
# 2 -0.237068 0.243420 -0.002778 0.000000 0.000000 0.000000
# 3 -0.002779 -0.002778 0.012328 0.000000 0.000000 0.000000
# 4 0.000000 0.000000 0.000000 0.111489 0.000000 0.000000
# 5 0.000000 0.000000 0.000000 0.000000 0.111488 0.000000
# 6 0.000000 0.000000 0.000000 0.000000 0.000000 0.032874
#
#
# Mechanical properties :
#
#
# Convention : Reuss Voigt Hill
#
# Bulk Modulus (GPa) = 71.85468 74.45358 73.15413
# Shear Modulus (GPa) = 4.01636 17.25948 10.63792
#
# Velocity S-wave (km/s) = 1.52387 3.15897 2.48005
# Velocity P-wave (km/s) = 6.68142 7.50688 7.10614
#
# Compressibility (1/GPa) = 0.01391698
#
# Stress axis : x y z
#
# Youngs Moduli (GPa) = 4.10813 4.10813 81.11320
#
# Poissons Ratio (x) = 0.97391 0.22540
# Poissons Ratio (y) = 0.97391 0.22535
# Poissons Ratio (z) = 0.01142 0.01141
#
# Static dielectric constant tensor:
#      x y z
#    x 3.292920 0.000000 0.000000 
#    y 0.000000 3.292920 0.000000 
#    z 0.000000 0.000000 2.912260 
# 
# 
# High freq. dielectric constant tensor:
#      x y z
#    x 1.663510 0.000000 0.000000 
#    y 0.000000 1.663510 0.000000 
#    z 0.000000 0.000000 1.634220 
# 
# From -- ./inp_files/8680.got.cif
#   From: 2010.03.12/outbox.cif.g09.slc.cpg/sg132_5_cif.got.tgz:8680.got - 2010.04.06 17:53:44.
