data_PCOD8316880
_publ_section_title
;
Structure prediction by ZEFSAII (Michael W. Deem and Ramdas Pophale) SiO2 
 PCOD8316880
Probable space group: P 42/M C M
;
_chemical_formula_sum "Si O2"
_cell_formula_units_Z 88
_cell_length_a 14.533258
_cell_length_b 14.533258
_cell_length_c 23.065522
_cell_angle_alpha 90.000000
_cell_angle_beta 90.000000
_cell_angle_gamma 90.000000
_cell_volume 4871.797794
_symmetry_space_group_name_H-M "P 42/M C M"
_symmetry_group_IT_number 132
_symmetry_cell_setting 'tetragonal'
loop_
_space_group_symop_operation_xyz
x,y,z
-y,x,1/2+z
-x,-y,z
y,-x,1/2+z
x,-y,1/2-z
-x,y,1/2-z
y,x,-z
-y,-x,-z
-x,-y,-z
y,-x,1/2-z
x,y,-z
-y,x,1/2-z
-x,y,1/2+z
x,-y,1/2+z
-y,-x,z
y,x,z
loop_
_atom_site_type_symbol
_atom_site_label
_atom_site_fract_x
_atom_site_fract_y
_atom_site_fract_z
Si Si1 0.189916 0.431340 0.065445
Si Si2 0.767125 0.624494 0.715817
Si Si3 0.039172 0.718275 0.433854
Si Si4 0.925196 0.925196 0.931150
Si Si5 0.694440 0.447779 0.328074
Si Si6 0.426746 0.926622 0.134832
O O1 0.135825 0.335070 0.068846
O O2 0.278225 0.423139 0.106393
O O3 0.129877 0.518628 0.085848
O O4 0.222761 0.450292 0.000000
O O5 0.727907 0.727907 0.706318
O O6 0.694586 0.556224 0.683774
O O7 0.769217 0.599706 0.784255
O O8 0.867319 0.610978 0.688613
O O9 0.002730 0.720071 0.500000
O O10 0.049521 0.822272 0.409339
O O11 0.967123 0.664397 0.394174
O O12 0.924564 0.924564 0.000000
O O13 0.000000 0.000000 0.907845
O O14 0.593307 0.406694 0.316127
O O15 0.500000 0.000000 0.160062
#
# Coordination Sequence:
#
# PCOD8316880 Si02
#       6
#    16  16  16   8  16  16
#     4   9  17  29  48  74 100 125 158 202 252 306
#     4   9  18  33  50  71  99 130 168 208 244 296
#     4   9  17  29  46  68  95 128 163 203 253 302
#     4   9  18  30  42  62  94 128 167 211 246 290
#     4   9  18  31  48  72 101 130 161 203 243 290
#     4   9  17  31  50  73 100 128 162 209 256 303
#
# _framework density 18.063146
#
# number of rings (size 3 to 8) (size 9 to 14) (size 15 to 20)
#    0.000    3.000    0.000    0.545    1.273    3.636 
#    0.000   17.273    0.000   13.091    0.000    5.091 
#    0.000    0.000    0.000    0.000    0.000    0.000 
#
# Total GULP energy -1090526.410103 kJ/mol
# GULP energy per Si atom -12392.345569 kJ/mol
# Density = 1.802203 g / cm^3
# Si number density = 18.063146 Si / 1000 Ang^3
#
#
#
# Elastic Constant Matrix: (Units=GPa)
#
#
# Indices 1 2 3 4 5 6 
#
# 1 80.2416 33.2931 21.7652 0.0000 0.0000 0.0000
# 2 33.2931 80.2416 21.7652 0.0000 0.0000 0.0000
# 3 21.7652 21.7652 89.0285 0.0000 0.0000 0.0000
# 4 0.0000 0.0000 0.0000 16.8161 0.0000 0.0000
# 5 0.0000 0.0000 0.0000 0.0000 16.8161 0.0000
# 6 0.0000 0.0000 0.0000 0.0000 0.0000 23.0755
#
#
#
# Elastic Compliance Matrix: (Units=1/GPa)
#
#
# Indices 1 2 3 4 5 6 
#
# 1 0.015509 -0.005791 -0.002376 0.000000 0.000000 0.000000
# 2 -0.005791 0.015509 -0.002376 0.000000 0.000000 0.000000
# 3 -0.002376 -0.002376 0.012394 0.000000 0.000000 0.000000
# 4 0.000000 0.000000 0.000000 0.059467 0.000000 0.000000
# 5 0.000000 0.000000 0.000000 0.000000 0.059467 0.000000
# 6 0.000000 0.000000 0.000000 0.000000 0.000000 0.043336
#
#
# Mechanical properties :
#
#
# Convention : Reuss Voigt Hill
#
# Bulk Modulus (GPa) = 44.78727 44.79543 44.79135
# Shear Modulus (GPa) = 21.34835 22.85410 22.10122
#
# Velocity S-wave (km/s) = 3.44157 3.56087 3.50173
# Velocity P-wave (km/s) = 6.37504 6.46217 6.41875
#
# Compressibility (1/GPa) = 0.02232777
#
# Stress axis : x y z
#
# Youngs Moduli (GPa) = 64.47705 64.47705 80.68351
#
# Poissons Ratio (x) = 0.37336 0.19171
# Poissons Ratio (y) = 0.37336 0.19171
# Poissons Ratio (z) = 0.15320 0.15320
#
# Static dielectric constant tensor:
#      x y z
#    x 3.243950 0.000000 0.000000 
#    y 0.000000 3.243950 0.000000 
#    z 0.000000 0.000000 3.247590 
# 
# 
# High freq. dielectric constant tensor:
#      x y z
#    x 1.686070 0.000000 0.000000 
#    y 0.000000 1.686070 0.000000 
#    z 0.000000 0.000000 1.685670 
# 
# From -- ./inp_files/8950.got.cif
#   From: 2010.03.12/outbox.cif.g09.slc.cpg/sg132_5_cif.got.tgz:8950.got - 2010.04.06 17:53:44.
