data_PCOD8316004
_publ_section_title
;
Structure prediction by ZEFSAII (Michael W. Deem and Ramdas Pophale) SiO2 
 PCOD8316004
Probable space group: P 42/M M C
;
_chemical_formula_sum "Si O2"
_cell_formula_units_Z 112
_cell_length_a 13.744344
_cell_length_b 13.744344
_cell_length_c 31.308006
_cell_angle_alpha 90.000000
_cell_angle_beta 90.000000
_cell_angle_gamma 90.000000
_cell_volume 5914.301239
_symmetry_space_group_name_H-M "P 42/M M C"
_symmetry_group_IT_number 131
_symmetry_cell_setting 'tetragonal'
loop_
_space_group_symop_operation_xyz
x,y,z
-x,-y,z
-y,x,1/2+z
y,-x,1/2+z
-x,y,-z
x,-y,-z
y,x,1/2-z
-y,-x,1/2-z
-x,-y,-z
x,y,-z
y,-x,1/2-z
-y,x,1/2-z
x,-y,z
-x,y,z
-y,-x,1/2+z
y,x,1/2+z
loop_
_atom_site_type_symbol
_atom_site_label
_atom_site_fract_x
_atom_site_fract_y
_atom_site_fract_z
Si Si1 0.386849 0.238959 0.324756
Si Si2 0.386766 0.892225 0.248977
Si Si3 0.612624 0.226673 0.836174
Si Si4 0.234394 0.113385 0.122904
Si Si5 0.883996 0.108426 0.297073
Si Si6 0.391968 0.889809 0.406717
Si Si7 0.198009 0.112212 0.451696
O O1 0.500000 0.262212 0.316706
O O2 0.341216 0.173440 0.286666
O O3 0.332175 0.342067 0.326475
O O4 0.368496 0.182172 0.368359
O O5 0.500000 0.902642 0.259086
O O6 0.369193 0.844294 0.203489
O O7 0.338307 0.000000 0.248663
O O8 0.500000 0.241612 0.847040
O O9 0.664817 0.174177 0.876574
O O10 0.175114 0.154111 0.164153
O O11 0.176190 0.132296 0.079526
O O12 0.257311 0.000000 0.126359
O O13 0.850946 0.149055 0.250000
O O14 0.000000 0.104825 0.297548
O O15 0.842600 0.000000 0.304773
O O16 0.500000 0.869644 0.425513
O O17 0.313014 0.871827 0.443593
O O18 0.385496 0.000000 0.389077
O O19 0.175645 0.144746 0.500000
O O20 0.169121 0.000000 0.444514
#
# Coordination Sequence:
#
# PCOD8316004 Si02
#       7
#    16  16  16  16  16  16  16
#     4  10  19  34  57  84 114 149 191 237 287 342
#     4   9  18  33  53  78 110 148 189 233 279 331
#     4  11  23  38  54  77 111 151 197 246 294 342
#     4  11  22  37  55  77 107 148 195 239 286 340
#     4   8  15  29  49  75 108 142 176 218 269 327
#     4   9  17  32  56  87 120 149 179 222 279 342
#     4  10  21  37  58  87 120 151 184 225 283 354
#
# _framework density 18.937147
#
# number of rings (size 3 to 8) (size 9 to 14) (size 15 to 20)
#    0.000    2.286    1.429    2.143    0.000    5.429 
#    0.000    3.571    0.000    3.000    0.000    1.000 
#    0.000    3.429    0.000    0.000    0.000    0.000 
#
# Total GULP energy -1388822.677587 kJ/mol
# GULP energy per Si atom -12400.202478 kJ/mol
# Density = 1.889405 g / cm^3
# Si number density = 18.937147 Si / 1000 Ang^3
#
#
#
# Elastic Constant Matrix: (Units=GPa)
#
#
# Indices 1 2 3 4 5 6 
#
# 1 89.1537 48.6476 37.3880 0.0000 0.0000 0.0000
# 2 48.6476 89.1534 37.3880 0.0000 0.0000 0.0000
# 3 37.3880 37.3880 94.6952 0.0000 0.0000 0.0000
# 4 0.0000 0.0000 0.0000 22.1269 0.0000 0.0000
# 5 0.0000 0.0000 0.0000 0.0000 22.1270 0.0000
# 6 0.0000 0.0000 0.0000 0.0000 0.0000 27.1839
#
#
#
# Elastic Compliance Matrix: (Units=1/GPa)
#
#
# Indices 1 2 3 4 5 6 
#
# 1 0.016962 -0.007726 -0.003646 0.000000 0.000000 0.000000
# 2 -0.007726 0.016962 -0.003646 0.000000 0.000000 0.000000
# 3 -0.003646 -0.003646 0.013440 0.000000 0.000000 0.000000
# 4 0.000000 0.000000 0.000000 0.045194 0.000000 0.000000
# 5 0.000000 0.000000 0.000000 0.000000 0.045194 0.000000
# 6 0.000000 0.000000 0.000000 0.000000 0.000000 0.036786
#
#
# Mechanical properties :
#
#
# Convention : Reuss Voigt Hill
#
# Bulk Modulus (GPa) = 57.72017 57.76107 57.74062
# Shear Modulus (GPa) = 23.76994 24.25947 24.01470
#
# Velocity S-wave (km/s) = 3.54673 3.58306 3.56494
# Velocity P-wave (km/s) = 6.87884 6.90547 6.89216
#
# Compressibility (1/GPa) = 0.01732497
#
# Stress axis : x y z
#
# Youngs Moduli (GPa) = 58.95675 58.95651 74.40702
#
# Poissons Ratio (x) = 0.45550 0.27132
# Poissons Ratio (y) = 0.45551 0.27132
# Poissons Ratio (z) = 0.21498 0.21498
#
# Static dielectric constant tensor:
#      x y z
#    x 3.475930 0.000000 0.000000 
#    y 0.000000 3.475930 0.000000 
#    z 0.000000 0.000000 3.272380 
# 
# 
# High freq. dielectric constant tensor:
#      x y z
#    x 1.734620 0.000000 0.000000 
#    y 0.000000 1.734620 0.000000 
#    z 0.000000 0.000000 1.708640 
# 
# From -- ./inp_files/12480.got.cif
#   From: 2010.03.12/outbox.cif.g09.slc.cpg/sg131_7_cif.got.tgz:12480.got - 2010.04.06 17:36:35.
