data_PCOD8316196
_publ_section_title
;
Structure prediction by ZEFSAII (Michael W. Deem and Ramdas Pophale) SiO2 
 PCOD8316196
Probable space group: P 42/M M C
;
_chemical_formula_sum "Si O2"
_cell_formula_units_Z 80
_cell_length_a 13.731741
_cell_length_b 13.731741
_cell_length_c 20.627485
_cell_angle_alpha 90.000000
_cell_angle_beta 90.000000
_cell_angle_gamma 90.000000
_cell_volume 3889.533235
_symmetry_space_group_name_H-M "P 42/M M C"
_symmetry_group_IT_number 131
_symmetry_cell_setting 'tetragonal'
loop_
_space_group_symop_operation_xyz
x,y,z
-x,-y,z
-y,x,1/2+z
y,-x,1/2+z
-x,y,-z
x,-y,-z
y,x,1/2-z
-y,-x,1/2-z
-x,-y,-z
x,y,-z
y,-x,1/2-z
-y,x,1/2-z
x,-y,z
-x,y,z
-y,-x,1/2+z
y,x,1/2+z
loop_
_atom_site_type_symbol
_atom_site_label
_atom_site_fract_x
_atom_site_fract_y
_atom_site_fract_z
Si Si1 0.610318 0.769992 0.750687
Si Si2 0.392611 0.108608 0.879455
Si Si3 0.884909 0.771307 0.806356
Si Si4 0.760279 0.232364 0.072438
Si Si5 0.609166 0.607874 0.423109
O O1 0.667023 0.667023 0.750000
O O2 0.500000 0.752612 0.727502
O O3 0.615926 0.814535 0.821877
O O4 0.660436 0.850632 0.704566
O O5 0.500000 0.112084 0.910860
O O6 0.313991 0.140992 0.932950
O O7 0.369073 0.000000 0.853916
O O8 0.839071 0.839071 0.750000
O O9 0.846655 0.797624 0.878510
O O10 0.000000 0.783183 0.804867
O O11 0.696856 0.323527 0.100887
O O12 0.802029 0.252866 0.000000
O O13 0.612529 0.605016 0.500000
O O14 0.643469 0.500000 0.397344
O O15 0.500000 0.628512 0.398138
#
# Coordination Sequence:
#
# PCOD8316196 Si02
#       5
#    16  16  16  16  16
#     4  10  20  38  64  94 126 161 204 251 299 357
#     4  10  20  36  59  88 123 161 201 246 301 368
#     4  11  24  44  67  89 117 161 213 257 306 369
#     4  11  22  37  60  92 127 157 196 256 315 367
#     4   8  15  30  53  82 120 167 210 243 286 357
#
# _framework density 20.568020000000001
#
# number of rings (size 3 to 8) (size 9 to 14) (size 15 to 20)
#    0.000    2.000    4.000    1.800    0.000    4.400 
#    0.000    1.000    0.000    0.000    0.000    7.000 
#    0.000    0.000    0.000    0.000    0.000    0.000 
#
# Total GULP energy -991302.500067 kJ/mol
# GULP energy per Si atom -12391.281251 kJ/mol
# Density = 2.052121 g / cm^3
# Si number density = 20.568020 Si / 1000 Ang^3
#
#
#
# Elastic Constant Matrix: (Units=GPa)
#
#
# Indices 1 2 3 4 5 6 
#
# 1 141.4910 60.3859 40.9808 0.0000 0.0000 0.0000
# 2 60.3859 141.4910 40.9808 0.0000 0.0000 0.0000
# 3 40.9808 40.9808 88.6315 0.0000 0.0000 0.0000
# 4 0.0000 0.0000 0.0000 15.9953 0.0000 0.0000
# 5 0.0000 0.0000 0.0000 0.0000 15.9953 0.0000
# 6 0.0000 0.0000 0.0000 0.0000 0.0000 16.4492
#
#
#
# Elastic Compliance Matrix: (Units=1/GPa)
#
#
# Indices 1 2 3 4 5 6 
#
# 1 0.009214 -0.003116 -0.002820 0.000000 0.000000 0.000000
# 2 -0.003116 0.009214 -0.002820 0.000000 0.000000 0.000000
# 3 -0.002820 -0.002820 0.013890 0.000000 0.000000 0.000000
# 4 0.000000 0.000000 0.000000 0.062518 0.000000 0.000000
# 5 0.000000 0.000000 0.000000 0.000000 0.062518 0.000000
# 6 0.000000 0.000000 0.000000 0.000000 0.000000 0.060793
#
#
# Mechanical properties :
#
#
# Convention : Reuss Voigt Hill
#
# Bulk Modulus (GPa) = 67.53102 72.92318 70.22710
# Shear Modulus (GPa) = 20.78189 24.97236 22.87713
#
# Velocity S-wave (km/s) = 3.18212 3.48822 3.33868
# Velocity P-wave (km/s) = 6.81216 7.19411 7.00574
#
# Compressibility (1/GPa) = 0.01480801
#
# Stress axis : x y z
#
# Youngs Moduli (GPa) = 108.53059 108.53059 71.99334
#
# Poissons Ratio (x) = 0.33815 0.20300
# Poissons Ratio (y) = 0.33815 0.20300
# Poissons Ratio (z) = 0.30602 0.30602
#
# Static dielectric constant tensor:
#      x y z
#    x 3.823430 0.000000 0.000000 
#    y 0.000000 3.823430 0.000000 
#    z 0.000000 0.000000 3.534460 
# 
# 
# High freq. dielectric constant tensor:
#      x y z
#    x 1.793730 0.000000 0.000000 
#    y 0.000000 1.793730 0.000000 
#    z 0.000000 0.000000 1.794280 
# 
# From -- ./inp_files/9368.got.cif
#   From: 2010.03.12/outbox.cif.g09.slc.cpg/sg131_5_cif.got.tgz:9368.got - 2010.04.06 17:36:35.
