data_PCOD8316208
_publ_section_title
;
Structure prediction by ZEFSAII (Michael W. Deem and Ramdas Pophale) SiO2 
 PCOD8316208
Probable space group: P 42/M M C
;
_chemical_formula_sum "Si O2"
_cell_formula_units_Z 88
_cell_length_a 18.206064
_cell_length_b 18.206064
_cell_length_c 14.117387
_cell_angle_alpha 90.000000
_cell_angle_beta 90.000000
_cell_angle_gamma 90.000000
_cell_volume 4679.359914
_symmetry_space_group_name_H-M "P 42/M M C"
_symmetry_group_IT_number 131
_symmetry_cell_setting 'tetragonal'
loop_
_space_group_symop_operation_xyz
x,y,z
-x,-y,z
-y,x,1/2+z
y,-x,1/2+z
-x,y,-z
x,-y,-z
y,x,1/2-z
-y,-x,1/2-z
-x,-y,-z
x,y,-z
y,-x,1/2-z
-y,x,1/2-z
x,-y,z
-x,y,z
-y,-x,1/2+z
y,x,1/2+z
loop_
_atom_site_type_symbol
_atom_site_label
_atom_site_fract_x
_atom_site_fract_y
_atom_site_fract_z
Si Si1 0.188424 0.585174 0.895766
Si Si2 0.700807 0.587260 0.735124
Si Si3 0.915293 0.330948 0.224214
Si Si4 0.191501 0.847311 0.350876
Si Si5 0.084519 0.913062 0.500000
Si Si6 0.803359 0.682241 0.391037
O O1 0.192151 0.500000 0.912637
O O2 0.256724 0.610060 0.831019
O O3 0.113753 0.601370 0.838320
O O4 0.191902 0.623743 0.000000
O O5 0.618291 0.618291 0.750000
O O6 0.698625 0.500000 0.716354
O O7 0.739611 0.628240 0.646842
O O8 0.900936 0.261091 0.156075
O O9 0.875774 0.326653 0.326306
O O10 0.000000 0.341589 0.246221
O O11 0.155388 0.844613 0.250000
O O12 0.126072 0.880608 0.410819
O O13 0.220937 0.767766 0.385920
O O14 0.000000 0.886141 0.500000
O O15 0.088837 0.000000 0.500000
O O16 0.821081 0.661169 0.500000
#
# Coordination Sequence:
#
# PCOD8316208 Si02
#       6
#    16  16  16  16   8  16
#     4   9  19  36  56  79 110 149 186 222 274 340
#     4  10  21  37  59  88 119 151 189 233 284 345
#     4  10  21  34  53  82 112 143 184 240 295 342
#     4  10  21  38  56  79 107 147 195 244 291 346
#     4  11  24  38  54  80 112 150 194 243 308 372
#     4  10  20  38  60  82 111 152 199 243 289 349
#
# _framework density 18.805990999999999
#
# number of rings (size 3 to 8) (size 9 to 14) (size 15 to 20)
#    0.000    2.091    0.909    3.273    1.273    7.455 
#    0.000    1.818    0.000    0.000    0.000    8.909 
#    0.000    0.000    0.000    0.000    0.000    0.000 
#
# Total GULP energy -1090700.874418 kJ/mol
# GULP energy per Si atom -12394.328118 kJ/mol
# Density = 1.876319 g / cm^3
# Si number density = 18.805991 Si / 1000 Ang^3
#
#
#
# Elastic Constant Matrix: (Units=GPa)
#
#
# Indices 1 2 3 4 5 6 
#
# 1 87.2050 47.0297 41.0446 0.0000 0.0000 0.0000
# 2 47.0297 87.2050 41.0447 0.0000 0.0000 0.0000
# 3 41.0446 41.0447 151.0221 0.0000 0.0000 0.0000
# 4 0.0000 0.0000 0.0000 18.9378 0.0000 0.0000
# 5 0.0000 0.0000 0.0000 0.0000 18.9387 0.0000
# 6 0.0000 0.0000 0.0000 0.0000 0.0000 26.7566
#
#
#
# Elastic Compliance Matrix: (Units=1/GPa)
#
#
# Indices 1 2 3 4 5 6 
#
# 1 0.016913 -0.007978 -0.002428 0.000000 0.000000 0.000000
# 2 -0.007978 0.016913 -0.002428 0.000000 0.000000 0.000000
# 3 -0.002428 -0.002428 0.007941 0.000000 0.000000 0.000000
# 4 0.000000 0.000000 0.000000 0.052804 0.000000 0.000000
# 5 0.000000 0.000000 0.000000 0.000000 0.052802 0.000000
# 6 0.000000 0.000000 0.000000 0.000000 0.000000 0.037374
#
#
# Mechanical properties :
#
#
# Convention : Reuss Voigt Hill
#
# Bulk Modulus (GPa) = 62.12077 64.85224 63.48650
# Shear Modulus (GPa) = 23.17152 26.01418 24.59285
#
# Velocity S-wave (km/s) = 3.51399 3.72330 3.62016
# Velocity P-wave (km/s) = 7.04047 7.28311 7.16282
#
# Compressibility (1/GPa) = 0.01609768
#
# Stress axis : x y z
#
# Youngs Moduli (GPa) = 59.12710 59.12702 125.92187
#
# Poissons Ratio (x) = 0.47172 0.30577
# Poissons Ratio (y) = 0.47172 0.30577
# Poissons Ratio (z) = 0.14357 0.14358
#
# Static dielectric constant tensor:
#      x y z
#    x 3.379230 0.000000 0.000000 
#    y 0.000000 3.379220 0.000000 
#    z 0.000000 0.000000 4.141360 
# 
# 
# High freq. dielectric constant tensor:
#      x y z
#    x 1.722670 0.000000 0.000000 
#    y 0.000000 1.722670 0.000000 
#    z 0.000000 0.000000 1.741300 
# 
# From -- ./inp_files/5893.got.cif
#   From: 2010.03.12/outbox.cif.g09.slc.cpg/sg131_3_cif.got.tgz:5893.got - 2010.04.06 17:36:35.
