data_PCOD8316625
_publ_section_title
;
Structure prediction by ZEFSAII (Michael W. Deem and Ramdas Pophale) SiO2 
 PCOD8316625
Probable space group: P 42/M C M
;
_chemical_formula_sum "Si O2"
_cell_formula_units_Z 112
_cell_length_a 14.846804
_cell_length_b 14.846804
_cell_length_c 26.009749
_cell_angle_alpha 90.000000
_cell_angle_beta 90.000000
_cell_angle_gamma 90.000000
_cell_volume 5733.266263
_symmetry_space_group_name_H-M "P 42/M C M"
_symmetry_group_IT_number 132
_symmetry_cell_setting 'tetragonal'
loop_
_space_group_symop_operation_xyz
x,y,z
-y,x,1/2+z
-x,-y,z
y,-x,1/2+z
x,-y,1/2-z
-x,y,1/2-z
y,x,-z
-y,-x,-z
-x,-y,-z
y,-x,1/2-z
x,y,-z
-y,x,1/2-z
-x,y,1/2+z
x,-y,1/2+z
-y,-x,z
y,x,z
loop_
_atom_site_type_symbol
_atom_site_label
_atom_site_fract_x
_atom_site_fract_y
_atom_site_fract_z
Si Si1 0.217751 0.073514 0.631932
Si Si2 0.263343 0.885074 0.649505
Si Si3 0.463210 0.762871 0.197533
Si Si4 0.351736 0.351736 0.442311
Si Si5 0.856338 0.623226 0.560002
Si Si6 0.852385 0.288945 0.234678
Si Si7 0.094735 0.461756 0.872810
Si Si8 0.426157 0.573844 0.149169
O O1 0.130625 0.130625 0.613536
O O2 0.301855 0.096020 0.594994
O O3 0.235777 0.090973 0.692211
O O4 0.198332 0.966379 0.630478
O O5 0.209423 0.790578 0.640109
O O6 0.291342 0.900846 0.709605
O O7 0.354481 0.900166 0.615302
O O8 0.500000 0.723235 0.250000
O O9 0.383372 0.831758 0.208604
O O10 0.533835 0.824824 0.168224
O O11 0.446103 0.674244 0.165810
O O12 0.374332 0.374332 0.500000
O O13 0.370608 0.248718 0.428323
O O14 0.418944 0.418944 0.412347
O O15 0.879253 0.639137 0.500000
O O16 0.887132 0.522706 0.576495
O O17 0.756318 0.243683 0.244524
O O18 0.000000 0.500000 0.849926
O O19 0.500000 0.500000 0.166518
#
# Coordination Sequence:
#
# PCOD8316625 Si02
#       8
#    16  16  16   8  16  16  16   8
#     4  11  21  38  64  91 124 159 200 254 313 370
#     4  11  24  40  58  90 129 168 206 244 301 379
#     4  12  23  36  57  85 125 163 204 253 302 358
#     4  10  20  41  66  90 117 152 206 269 323 364
#     4  11  22  38  66  96 120 151 202 265 320 367
#     4  10  19  35  59  85 121 163 203 247 301 358
#     4  12  23  39  62  91 120 158 207 258 308 368
#     4  12  26  39  58  86 126 171 217 254 300 376
#
# _framework density 19.535112000000002
#
# number of rings (size 3 to 8) (size 9 to 14) (size 15 to 20)
#    0.000    0.857    7.143    0.429    1.000    1.571 
#    0.000    0.000    0.000    4.286    0.000    1.000 
#    0.000    0.000    0.000    0.000    0.000    0.000 
#
# Total GULP energy -1387489.950699 kJ/mol
# GULP energy per Si atom -12388.303131 kJ/mol
# Density = 1.949065 g / cm^3
# Si number density = 19.535112 Si / 1000 Ang^3
#
#
#
# Elastic Constant Matrix: (Units=GPa)
#
#
# Indices 1 2 3 4 5 6 
#
# 1 118.6651 39.7090 29.7611 0.0000 0.0000 0.0000
# 2 39.7090 118.6651 29.7611 0.0000 0.0000 0.0000
# 3 29.7611 29.7611 80.3138 0.0000 0.0000 0.0000
# 4 0.0000 0.0000 0.0000 14.6351 0.0000 0.0000
# 5 0.0000 0.0000 0.0000 0.0000 14.6351 0.0000
# 6 0.0000 0.0000 0.0000 0.0000 0.0000 33.9002
#
#
#
# Elastic Compliance Matrix: (Units=1/GPa)
#
#
# Indices 1 2 3 4 5 6 
#
# 1 0.010001 -0.002665 -0.002718 0.000000 0.000000 0.000000
# 2 -0.002665 0.010001 -0.002718 0.000000 0.000000 0.000000
# 3 -0.002718 -0.002718 0.014466 0.000000 0.000000 0.000000
# 4 0.000000 0.000000 0.000000 0.068329 0.000000 0.000000
# 5 0.000000 0.000000 0.000000 0.000000 0.068329 0.000000
# 6 0.000000 0.000000 0.000000 0.000000 0.000000 0.029498
#
#
# Mechanical properties :
#
#
# Convention : Reuss Voigt Hill
#
# Bulk Modulus (GPa) = 54.75259 57.34516 56.04887
# Shear Modulus (GPa) = 22.43022 27.19496 24.81259
#
# Velocity S-wave (km/s) = 3.39219 3.73514 3.56779
# Velocity P-wave (km/s) = 6.59024 6.92967 6.76208
#
# Compressibility (1/GPa) = 0.01826398
#
# Stress axis : x y z
#
# Youngs Moduli (GPa) = 99.99466 99.99466 69.12861
#
# Poissons Ratio (x) = 0.26646 0.18792
# Poissons Ratio (y) = 0.26646 0.18792
# Poissons Ratio (z) = 0.27182 0.27182
#
# Static dielectric constant tensor:
#      x y z
#    x 3.619350 0.000000 0.000000 
#    y 0.000000 3.619350 0.000000 
#    z 0.000000 0.000000 3.232800 
# 
# 
# High freq. dielectric constant tensor:
#      x y z
#    x 1.759200 0.000000 0.000000 
#    y 0.000000 1.759200 0.000000 
#    z 0.000000 0.000000 1.746070 
# 
# From -- ./inp_files/10097.got.cif
#   From: 2010.03.12/outbox.cif.g09.slc.cpg/sg132_6_cif.got.tgz:10097.got - 2010.04.06 17:53:44.
