data_PCOD8316797
_publ_section_title
;
Structure prediction by ZEFSAII (Michael W. Deem and Ramdas Pophale) SiO2 
 PCOD8316797
Probable space group: P 42/M C M
;
_chemical_formula_sum "Si O2"
_cell_formula_units_Z 96
_cell_length_a 23.664110
_cell_length_b 23.664110
_cell_length_c 8.810983
_cell_angle_alpha 90.000000
_cell_angle_beta 90.000000
_cell_angle_gamma 90.000000
_cell_volume 4934.063270
_symmetry_space_group_name_H-M "P 42/M C M"
_symmetry_group_IT_number 132
_symmetry_cell_setting 'tetragonal'
loop_
_space_group_symop_operation_xyz
x,y,z
-y,x,1/2+z
-x,-y,z
y,-x,1/2+z
x,-y,1/2-z
-x,y,1/2-z
y,x,-z
-y,-x,-z
-x,-y,-z
y,-x,1/2-z
x,y,-z
-y,x,1/2-z
-x,y,1/2+z
x,-y,1/2+z
-y,-x,z
y,x,z
loop_
_atom_site_type_symbol
_atom_site_label
_atom_site_fract_x
_atom_site_fract_y
_atom_site_fract_z
Si Si1 0.653565 0.437374 0.322031
Si Si2 0.825071 0.736101 0.671197
Si Si3 0.754655 0.642348 0.831848
Si Si4 0.842270 0.451695 0.333622
Si Si5 0.941801 0.287438 0.680004
Si Si6 0.409345 0.945771 0.822655
O O1 0.654548 0.500000 0.250000
O O2 0.663954 0.446065 0.500000
O O3 0.593228 0.406773 0.288999
O O4 0.703201 0.395006 0.260133
O O5 0.839382 0.716286 0.500000
O O6 0.798826 0.798826 0.673434
O O7 0.775091 0.694979 0.732628
O O8 0.883432 0.741106 0.764271
O O9 0.810225 0.605901 0.847399
O O10 0.736157 0.663259 0.000000
O O11 0.803927 0.500000 0.250000
O O12 0.863398 0.470177 0.500000
O O13 0.892695 0.448040 0.211980
O O14 0.945144 0.281782 0.500000
O O15 0.937580 0.351930 0.729366
O O16 0.000000 0.260501 0.750000
O O17 0.440317 0.000000 0.750000
O O18 0.397051 0.953214 0.000000
#
# Coordination Sequence:
#
# PCOD8316797 Si02
#       6
#    16  16  16  16  16  16
#     4  10  22  40  61  85 111 141 179 224 280 346
#     4  11  23  37  57  88 122 155 194 237 281 334
#     4  10  21  38  59  81 110 146 184 226 281 342
#     4  11  22  35  52  76 103 139 184 231 281 337
#     4  11  21  36  58  83 114 154 196 238 286 339
#     4  11  21  35  54  75 103 139 183 234 282 334
#
# _framework density 19.456579999999999
#
# number of rings (size 3 to 8) (size 9 to 14) (size 15 to 20)
#    0.000    1.333    1.667    6.000    0.000    4.167 
#    0.000    2.500    0.000    0.000    0.000    0.000 
#    0.000    0.333    0.000    3.500    0.000    1.500 
#
# Total GULP energy -1189312.694542 kJ/mol
# GULP energy per Si atom -12388.673901 kJ/mol
# Density = 1.941230 g / cm^3
# Si number density = 19.456580 Si / 1000 Ang^3
#
#
#
# Elastic Constant Matrix: (Units=GPa)
#
#
# Indices 1 2 3 4 5 6 
#
# 1 85.8746 53.0931 46.5302 0.0000 0.0000 0.0000
# 2 53.0931 85.8746 46.5302 0.0000 0.0000 0.0000
# 3 46.5302 46.5302 141.8154 0.0000 0.0000 0.0000
# 4 0.0000 0.0000 0.0000 0.4248 0.0000 0.0000
# 5 0.0000 0.0000 0.0000 0.0000 0.4248 0.0000
# 6 0.0000 0.0000 0.0000 0.0000 0.0000 15.8906
#
#
#
# Elastic Compliance Matrix: (Units=1/GPa)
#
#
# Indices 1 2 3 4 5 6 
#
# 1 0.019864 -0.010641 -0.003026 0.000000 0.000000 0.000000
# 2 -0.010641 0.019864 -0.003026 0.000000 0.000000 0.000000
# 3 -0.003026 -0.003026 0.009037 0.000000 0.000000 0.000000
# 4 0.000000 0.000000 0.000000 2.354052 0.000000 0.000000
# 5 0.000000 0.000000 0.000000 0.000000 2.354052 0.000000
# 6 0.000000 0.000000 0.000000 0.000000 0.000000 0.062930
#
#
# Mechanical properties :
#
#
# Convention : Reuss Voigt Hill
#
# Bulk Modulus (GPa) = 65.02789 67.31909 66.17349
# Shear Modulus (GPa) = 1.02916 14.50878 7.76897
#
# Velocity S-wave (km/s) = 0.72808 2.73371 2.00041
# Velocity P-wave (km/s) = 5.84820 6.68124 6.27855
#
# Compressibility (1/GPa) = 0.01537802
#
# Stress axis : x y z
#
# Youngs Moduli (GPa) = 50.34332 50.34332 110.65616
#
# Poissons Ratio (x) = 0.53572 0.33483
# Poissons Ratio (y) = 0.53572 0.33483
# Poissons Ratio (z) = 0.15233 0.15233
#
# Static dielectric constant tensor:
#      x y z
#    x 3.742900 0.000000 0.000000 
#    y 0.000000 3.742900 0.000000 
#    z 0.000000 0.000000 3.897780 
# 
# 
# High freq. dielectric constant tensor:
#      x y z
#    x 1.747730 0.000000 0.000000 
#    y 0.000000 1.747730 0.000000 
#    z 0.000000 0.000000 1.765810 
# 
# From -- ./inp_files/1752.got.cif
#   From: 2010.03.12/outbox.cif.g09.slc.cpg/sg132_1_cif.got.tgz:1752.got - 2010.04.06 17:53:44.
