data_PCOD8316842
_publ_section_title
;
Structure prediction by ZEFSAII (Michael W. Deem and Ramdas Pophale) SiO2 
 PCOD8316842
Probable space group: P 42/M C M
;
_chemical_formula_sum "Si O2"
_cell_formula_units_Z 58
_cell_length_a 19.295699
_cell_length_b 19.295699
_cell_length_c 8.965765
_cell_angle_alpha 90.000000
_cell_angle_beta 90.000000
_cell_angle_gamma 90.000000
_cell_volume 3338.169487
_symmetry_space_group_name_H-M "P 42/M C M"
_symmetry_group_IT_number 132
_symmetry_cell_setting 'tetragonal'
loop_
_space_group_symop_operation_xyz
x,y,z
-y,x,1/2+z
-x,-y,z
y,-x,1/2+z
x,-y,1/2-z
-x,y,1/2-z
y,x,-z
-y,-x,-z
-x,-y,-z
y,-x,1/2-z
x,y,-z
-y,x,1/2-z
-x,y,1/2+z
x,-y,1/2+z
-y,-x,z
y,x,z
loop_
_atom_site_type_symbol
_atom_site_label
_atom_site_fract_x
_atom_site_fract_y
_atom_site_fract_z
Si Si1 0.749001 0.930965 0.677583
Si Si2 0.890997 0.890997 0.168043
Si Si3 0.000000 0.000000 0.750000
Si Si4 0.426654 0.686462 0.174884
Si Si5 0.683210 0.208475 0.176539
O O1 0.755728 0.937672 0.500000
O O2 0.824959 0.919046 0.743369
O O3 0.694932 0.870722 0.725792
O O4 0.717122 0.000000 0.750000
O O5 0.950050 0.950050 0.153873
O O6 0.869917 0.869917 0.000000
O O7 0.500000 0.677277 0.250000
O O8 0.378092 0.621909 0.219530
O O9 0.389735 0.758178 0.230514
O O10 0.438901 0.688509 0.000000
O O11 0.746660 0.253341 0.243495
O O12 0.686001 0.214591 0.000000
#
# Coordination Sequence:
#
# PCOD8316842 Si02
#       5
#    16   8   2  16  16
#     4  11  21  34  52  72  97 128 169 216 265 308
#     4  12  24  35  48  67  95 132 173 211 257 312
#     4  12  26  36  48  62 102 140 170 200 258 320
#     4   9  18  33  54  79 108 140 173 204 244 298
#     4   8  15  31  53  72  94 133 174 207 251 307
#
# _framework density 17.374791999999999
#
# number of rings (size 3 to 8) (size 9 to 14) (size 15 to 20)
#    0.000    2.207    2.759    3.103    0.000    1.931 
#    0.000    4.138    0.000    0.828    0.000    5.793 
#    0.000    0.000    0.000    0.000    0.000    0.000 
#
# Total GULP energy -718746.526102 kJ/mol
# GULP energy per Si atom -12392.181485 kJ/mol
# Density = 1.733525 g / cm^3
# Si number density = 17.374792 Si / 1000 Ang^3
#
#
#
# Elastic Constant Matrix: (Units=GPa)
#
#
# Indices 1 2 3 4 5 6 
#
# 1 129.1773 87.1239 42.8982 0.0000 0.0000 0.0000
# 2 87.1239 129.1773 42.8982 0.0000 0.0000 0.0000
# 3 42.8982 42.8982 63.0828 0.0000 0.0000 0.0000
# 4 0.0000 0.0000 0.0000 2.0554 0.0000 0.0000
# 5 0.0000 0.0000 0.0000 0.0000 2.0554 0.0000
# 6 0.0000 0.0000 0.0000 0.0000 0.0000 61.4261
#
#
#
# Elastic Compliance Matrix: (Units=1/GPa)
#
#
# Indices 1 2 3 4 5 6 
#
# 1 0.015055 -0.008724 -0.004305 0.000000 0.000000 0.000000
# 2 -0.008724 0.015055 -0.004305 0.000000 0.000000 0.000000
# 3 -0.004305 -0.004305 0.021707 0.000000 0.000000 0.000000
# 4 0.000000 0.000000 0.000000 0.486534 0.000000 0.000000
# 5 0.000000 0.000000 0.000000 0.000000 0.486534 0.000000
# 6 0.000000 0.000000 0.000000 0.000000 0.000000 0.016280
#
#
# Mechanical properties :
#
#
# Convention : Reuss Voigt Hill
#
# Bulk Modulus (GPa) = 58.31415 74.14201 66.22808
# Shear Modulus (GPa) = 4.62299 23.00851 13.81575
#
# Velocity S-wave (km/s) = 1.63295 3.64297 2.82292
# Velocity P-wave (km/s) = 6.09842 7.77559 6.98751
#
# Compressibility (1/GPa) = 0.01714850
#
# Stress axis : x y z
#
# Youngs Moduli (GPa) = 66.42282 66.42282 46.06710
#
# Poissons Ratio (x) = 0.57949 0.19833
# Poissons Ratio (y) = 0.57949 0.19833
# Poissons Ratio (z) = 0.28596 0.28596
#
# Static dielectric constant tensor:
#      x y z
#    x 3.463010 0.000000 0.000000 
#    y 0.000000 3.463010 0.000000 
#    z 0.000000 0.000000 3.003470 
# 
# 
# High freq. dielectric constant tensor:
#      x y z
#    x 1.662890 0.000000 0.000000 
#    y 0.000000 1.662890 0.000000 
#    z 0.000000 0.000000 1.652170 
# 
# From -- ./inp_files/1043.got.cif
#   From: 2010.03.12/outbox.cif.g09.slc.cpg/sg132_1_cif.got.tgz:1043.got - 2010.04.06 17:53:44.
