data_PCOD8316490
_publ_section_title
;
Structure prediction by ZEFSAII (Michael W. Deem and Ramdas Pophale) SiO2 
 PCOD8316490
Probable space group: P 42/M C M
;
_chemical_formula_sum "Si O2"
_cell_formula_units_Z 96
_cell_length_a 24.474178
_cell_length_b 24.474178
_cell_length_c 9.006987
_cell_angle_alpha 90.000000
_cell_angle_beta 90.000000
_cell_angle_gamma 90.000000
_cell_volume 5395.053610
_symmetry_space_group_name_H-M "P 42/M C M"
_symmetry_group_IT_number 132
_symmetry_cell_setting 'tetragonal'
loop_
_space_group_symop_operation_xyz
x,y,z
-y,x,1/2+z
-x,-y,z
y,-x,1/2+z
x,-y,1/2-z
-x,y,1/2-z
y,x,-z
-y,-x,-z
-x,-y,-z
y,-x,1/2-z
x,y,-z
-y,x,1/2-z
-x,y,1/2+z
x,-y,1/2+z
-y,-x,z
y,x,z
loop_
_atom_site_type_symbol
_atom_site_label
_atom_site_fract_x
_atom_site_fract_y
_atom_site_fract_z
Si Si1 0.549526 0.696541 0.162957
Si Si2 0.261253 0.261253 0.332230
Si Si3 0.056078 0.856358 0.325987
Si Si4 0.268378 0.056812 0.824353
Si Si5 0.824551 0.554371 0.832144
Si Si6 0.661931 0.338070 0.675511
Si Si7 0.670752 0.154398 0.826155
O O1 0.500000 0.669281 0.250000
O O2 0.543559 0.760920 0.153967
O O3 0.604823 0.679979 0.247454
O O4 0.549073 0.670599 0.000000
O O5 0.277609 0.277609 0.500000
O O6 0.293696 0.293696 0.210460
O O7 0.198689 0.280013 0.303257
O O8 0.047228 0.862603 0.500000
O O9 0.105039 0.894962 0.268587
O O10 0.071497 0.794271 0.283739
O O11 0.000000 0.875049 0.250000
O O12 0.308676 0.100807 0.755632
O O13 0.284890 0.000000 0.750000
O O14 0.277216 0.053415 0.000000
O O15 0.849979 0.500000 0.750000
O O16 0.831803 0.611354 0.743206
O O17 0.849307 0.559164 0.000000
O O18 0.658705 0.341296 0.500000
O O19 0.661531 0.143660 0.000000
#
# Coordination Sequence:
#
# PCOD8316490 Si02
#       7
#    16   8  16  16  16   8  16
#     4   9  18  30  47  69  97 132 173 215 260 314
#     4  10  22  34  48  78 115 145 173 215 267 318
#     4   9  19  35  53  76 105 138 179 224 270 321
#     4  10  21  38  59  80 106 143 184 226 270 320
#     4  10  19  33  53  78 108 143 178 217 265 317
#     4  10  18  32  50  71 101 136 173 217 263 320
#     4  11  22  36  54  81 114 146 181 222 267 320
#
# _framework density 17.794077000000001
#
# number of rings (size 3 to 8) (size 9 to 14) (size 15 to 20)
#    0.000    2.167    1.667    1.500    1.167    3.167 
#    0.000    0.833    0.000    0.750    0.000    5.250 
#    0.000    0.000    0.000    0.000    0.000    0.000 
#
# Total GULP energy -1189560.822223 kJ/mol
# GULP energy per Si atom -12391.258565 kJ/mol
# Density = 1.775358 g / cm^3
# Si number density = 17.794077 Si / 1000 Ang^3
#
#
#
# Elastic Constant Matrix: (Units=GPa)
#
#
# Indices 1 2 3 4 5 6 
#
# 1 84.4742 38.3949 42.3187 0.0000 0.0000 0.0000
# 2 38.3949 84.4743 42.3186 0.0000 0.0000 0.0000
# 3 42.3187 42.3186 88.6584 0.0000 0.0000 0.0000
# 4 0.0000 0.0000 0.0000 28.6468 0.0000 0.0000
# 5 0.0000 0.0000 0.0000 0.0000 28.6468 0.0000
# 6 0.0000 0.0000 0.0000 0.0000 0.0000 19.4108
#
#
#
# Elastic Compliance Matrix: (Units=1/GPa)
#
#
# Indices 1 2 3 4 5 6 
#
# 1 0.016914 -0.004788 -0.005788 0.000000 0.000000 0.000000
# 2 -0.004788 0.016914 -0.005788 0.000000 0.000000 0.000000
# 3 -0.005788 -0.005788 0.016805 0.000000 0.000000 0.000000
# 4 0.000000 0.000000 0.000000 0.034908 0.000000 0.000000
# 5 0.000000 0.000000 0.000000 0.000000 0.034908 0.000000
# 6 0.000000 0.000000 0.000000 0.000000 0.000000 0.051518
#
#
# Mechanical properties :
#
#
# Convention : Reuss Voigt Hill
#
# Bulk Modulus (GPa) = 55.85190 55.96349 55.90769
# Shear Modulus (GPa) = 23.73480 24.31252 24.02366
#
# Velocity S-wave (km/s) = 3.65617 3.70040 3.67835
# Velocity P-wave (km/s) = 7.01993 7.05522 7.03760
#
# Compressibility (1/GPa) = 0.01790449
#
# Stress axis : x y z
#
# Youngs Moduli (GPa) = 59.12375 59.12387 59.50759
#
# Poissons Ratio (x) = 0.28309 0.34442
# Poissons Ratio (y) = 0.28309 0.34442
# Poissons Ratio (z) = 0.34220 0.34220
#
# Static dielectric constant tensor:
#      x y z
#    x 5.088390 0.000000 0.000000 
#    y 0.000000 5.090410 0.000000 
#    z 0.000000 0.000000 3.495440 
# 
# 
# High freq. dielectric constant tensor:
#      x y z
#    x 1.677580 0.000000 0.000000 
#    y 0.000000 1.677580 0.000000 
#    z 0.000000 0.000000 1.696820 
# 
# From -- ./inp_files/1817.got.cif
#   From: 2010.03.12/outbox.cif.g09.slc.cpg/sg132_1_cif.got.tgz:1817.got - 2010.04.06 17:53:44.
