data_PCOD8316327
_publ_section_title
;
Structure prediction by ZEFSAII (Michael W. Deem and Ramdas Pophale) SiO2 
 PCOD8316327
Probable space group: P 42/M M C
;
_chemical_formula_sum "Si O2"
_cell_formula_units_Z 112
_cell_length_a 21.126385
_cell_length_b 21.126385
_cell_length_c 20.617888
_cell_angle_alpha 90.000000
_cell_angle_beta 90.000000
_cell_angle_gamma 90.000000
_cell_volume 9202.261196
_symmetry_space_group_name_H-M "P 42/M M C"
_symmetry_group_IT_number 131
_symmetry_cell_setting 'tetragonal'
loop_
_space_group_symop_operation_xyz
x,y,z
-x,-y,z
-y,x,1/2+z
y,-x,1/2+z
-x,y,-z
x,-y,-z
y,x,1/2-z
-y,-x,1/2-z
-x,-y,-z
x,y,-z
y,-x,1/2-z
-y,x,1/2-z
x,-y,z
-x,y,z
-y,-x,1/2+z
y,x,1/2+z
loop_
_atom_site_type_symbol
_atom_site_label
_atom_site_fract_x
_atom_site_fract_y
_atom_site_fract_z
Si Si1 0.924588 0.631290 0.928183
Si Si2 0.500000 0.924587 0.372482
Si Si3 0.925296 0.142290 0.190820
Si Si4 0.075519 0.363980 0.311748
Si Si5 0.714414 0.075303 0.311201
Si Si6 0.075190 0.281373 0.571352
Si Si7 0.500000 0.924705 0.226246
Si Si8 0.862157 0.073940 0.074653
O O1 0.898728 0.561943 0.909082
O O2 0.898605 0.683165 0.877537
O O3 0.000000 0.630077 0.926616
O O4 0.899768 0.648893 0.000000
O O5 0.500000 0.898293 0.299275
O O6 0.500000 0.000000 0.371391
O O7 0.895287 0.104714 0.250000
O O8 0.899780 0.214079 0.193303
O O9 0.908068 0.112663 0.121458
O O10 0.000000 0.139644 0.199642
O O11 0.101356 0.326109 0.249342
O O12 0.103194 0.330379 0.376165
O O13 0.099657 0.436701 0.310214
O O14 0.000000 0.361702 0.311960
O O15 0.713074 0.000000 0.311106
O O16 0.101772 0.299293 0.500000
O O17 0.094739 0.209894 0.589729
O O18 0.000000 0.285008 0.570012
O O19 0.500000 0.000000 0.228165
O O20 0.871515 0.000000 0.088919
O O21 0.879627 0.089244 0.000000
#
# Coordination Sequence:
#
# PCOD8316327 Si02
#       8
#    16   8  16  16  16  16   8  16
#     4   9  15  22  33  49  68  88 108 126 142 166
#     4   9  13  20  31  47  70  90 109 125 136 158
#     4  11  22  32  42  55  68  81 101 134 176 219
#     4   9  14  22  35  49  66  86 105 122 142 172
#     4   9  17  27  37  48  63  84 104 124 154 193
#     4   8  14  25  40  53  63  78 101 126 152 188
#     4   9  14  19  31  49  69  89 107 123 139 163
#     4   9  18  32  46  56  65  80 103 131 168 217
#
# _framework density 12.170921
#
# number of rings (size 3 to 8) (size 9 to 14) (size 15 to 20)
#    0.000    2.857    1.429    2.357    0.000    5.000 
#    0.000    2.500    0.000    2.143    0.000    0.000 
#    0.000    0.000    0.000    0.000    0.000    0.000 
#
# Total GULP energy -1388196.698233 kJ/mol
# GULP energy per Si atom -12394.613377 kJ/mol
# Density = 1.214322 g / cm^3
# Si number density = 12.170921 Si / 1000 Ang^3
#
#
#
# Elastic Constant Matrix: (Units=GPa)
#
#
# Indices 1 2 3 4 5 6 
#
# 1 54.0552 17.6034 33.3830 0.0000 0.0000 0.0000
# 2 17.6034 54.0563 33.3840 0.0000 0.0000 0.0000
# 3 33.3830 33.3840 90.4124 0.0000 0.0000 0.0000
# 4 0.0000 0.0000 0.0000 16.8064 0.0000 0.0000
# 5 0.0000 0.0000 0.0000 0.0000 16.8063 0.0000
# 6 0.0000 0.0000 0.0000 0.0000 0.0000 -0.0651
#
#
#
# Elastic Compliance Matrix: (Units=1/GPa)
#
#
# Indices 1 2 3 4 5 6 
#
# 1 0.024353 -0.003080 -0.007855 0.000000 0.000000 0.000000
# 2 -0.003080 0.024353 -0.007855 0.000000 0.000000 0.000000
# 3 -0.007855 -0.007855 0.016861 0.000000 0.000000 0.000000
# 4 0.000000 0.000000 0.000000 0.059501 0.000000 0.000000
# 5 0.000000 0.000000 0.000000 0.000000 0.059501 0.000000
# 6 0.000000 0.000000 0.000000 0.000000 0.000000-15.358549
#
#
# Mechanical properties :
#
#
# Convention : Reuss Voigt Hill
#
# Bulk Modulus (GPa) = 35.72894 40.80716 38.26805
# Shear Modulus (GPa) = -0.33053 14.31975 6.99461
#
# Velocity S-wave (km/s) = -0.52170 3.43382 2.39989
# Velocity P-wave (km/s) = 5.39044 7.02301 6.26017
#
# Compressibility (1/GPa) = 0.02798851
#
# Stress axis : x y z
#
# Youngs Moduli (GPa) = 41.06186 41.06223 59.30795
#
# Poissons Ratio (x) = 0.12646 0.46586
# Poissons Ratio (y) = 0.12646 0.46587
# Poissons Ratio (z) = 0.32254 0.32255
#
# Static dielectric constant tensor:
#      x y z
#    x 2.304170 0.000000 0.000000 
#    y 0.000000 2.304170 0.000000 
#    z 0.000000 0.000000 2.789780 
# 
# 
# High freq. dielectric constant tensor:
#      x y z
#    x 1.418480 0.000000 0.000000 
#    y 0.000000 1.418480 0.000000 
#    z 0.000000 0.000000 1.481210 
# 
# From -- ./inp_files/10211.got.cif
#   From: 2010.03.12/outbox.cif.g09.slc.cpg/sg131_6_cif.got.tgz:10211.got - 2010.04.06 17:36:35.
