data_PCOD8316711
_publ_section_title
;
Structure prediction by ZEFSAII (Michael W. Deem and Ramdas Pophale) SiO2 
 PCOD8316711
Probable space group: P 42/M C M
;
_chemical_formula_sum "Si O2"
_cell_formula_units_Z 112
_cell_length_a 15.118990
_cell_length_b 15.118990
_cell_length_c 25.039865
_cell_angle_alpha 90.000000
_cell_angle_beta 90.000000
_cell_angle_gamma 90.000000
_cell_volume 5723.708961
_symmetry_space_group_name_H-M "P 42/M C M"
_symmetry_group_IT_number 132
_symmetry_cell_setting 'tetragonal'
loop_
_space_group_symop_operation_xyz
x,y,z
-y,x,1/2+z
-x,-y,z
y,-x,1/2+z
x,-y,1/2-z
-x,y,1/2-z
y,x,-z
-y,-x,-z
-x,-y,-z
y,-x,1/2-z
x,y,-z
-y,x,1/2-z
-x,y,1/2+z
x,-y,1/2+z
-y,-x,z
y,x,z
loop_
_atom_site_type_symbol
_atom_site_label
_atom_site_fract_x
_atom_site_fract_y
_atom_site_fract_z
Si Si1 0.187499 0.326553 0.560072
Si Si2 0.334106 0.525423 0.059270
Si Si3 0.870412 0.273060 0.561315
Si Si4 0.236835 0.908168 0.230396
Si Si5 0.100112 0.580175 0.708291
Si Si6 0.972117 0.674831 0.367946
Si Si7 0.749727 0.387645 0.630667
O O1 0.154797 0.308393 0.500000
O O2 0.237271 0.237271 0.581496
O O3 0.255328 0.405811 0.561436
O O4 0.103577 0.362039 0.593372
O O5 0.426800 0.573201 0.071227
O O6 0.320726 0.454332 0.105529
O O7 0.337265 0.482017 0.000000
O O8 0.895396 0.292377 0.500000
O O9 0.820498 0.179503 0.567042
O O10 0.810225 0.353289 0.582140
O O11 0.957116 0.269732 0.597908
O O12 0.171503 0.828498 0.242766
O O13 0.328626 0.889028 0.260328
O O14 0.254887 0.919466 0.167976
O O15 0.193700 0.000000 0.250000
O O16 0.082637 0.500000 0.750000
O O17 0.190714 0.564275 0.675716
O O18 0.016800 0.595368 0.667363
O O19 0.694185 0.305816 0.656093
#
# Coordination Sequence:
#
# PCOD8316711 Si02
#       7
#    16  16  16  16  16  16  16
#     4   9  18  34  55  82 117 153 188 226 272 335
#     4   9  19  35  54  81 115 148 182 223 273 335
#     4   9  18  34  56  83 116 149 180 223 279 338
#     4  10  22  39  59  83 111 147 194 245 295 343
#     4  10  23  41  58  80 114 149 192 247 298 342
#     4  10  20  34  57  84 112 147 191 228 282 343
#     4  10  20  36  59  83 107 144 190 233 284 342
#
# _framework density 19.567733
#
# number of rings (size 3 to 8) (size 9 to 14) (size 15 to 20)
#    0.000    2.429    0.000    2.571    2.000    7.286 
#    2.571    1.429    0.000    5.571    0.000    5.000 
#    0.000    0.000    0.000    0.000    0.000    0.000 
#
# Total GULP energy -1388036.909781 kJ/mol
# GULP energy per Si atom -12393.186694 kJ/mol
# Density = 1.952320 g / cm^3
# Si number density = 19.567733 Si / 1000 Ang^3
#
#
#
# Elastic Constant Matrix: (Units=GPa)
#
#
# Indices 1 2 3 4 5 6 
#
# 1 86.1046 52.4309 48.2900 0.0000 0.0000 0.0000
# 2 52.4309 86.1046 48.2900 0.0000 0.0000 0.0000
# 3 48.2900 48.2900 105.3715 0.0000 0.0000 0.0000
# 4 0.0000 0.0000 0.0000 28.2372 0.0000 0.0000
# 5 0.0000 0.0000 0.0000 0.0000 28.2372 0.0000
# 6 0.0000 0.0000 0.0000 0.0000 0.0000 15.0680
#
#
#
# Elastic Compliance Matrix: (Units=1/GPa)
#
#
# Indices 1 2 3 4 5 6 
#
# 1 0.020152 -0.009545 -0.004861 0.000000 0.000000 0.000000
# 2 -0.009545 0.020152 -0.004861 0.000000 0.000000 0.000000
# 3 -0.004861 -0.004861 0.013946 0.000000 0.000000 0.000000
# 4 0.000000 0.000000 0.000000 0.035414 0.000000 0.000000
# 5 0.000000 0.000000 0.000000 0.000000 0.035414 0.000000
# 6 0.000000 0.000000 0.000000 0.000000 0.000000 0.066366
#
#
# Mechanical properties :
#
#
# Convention : Reuss Voigt Hill
#
# Bulk Modulus (GPa) = 63.63015 63.95582 63.79299
# Shear Modulus (GPa) = 21.25698 22.87980 22.06839
#
# Velocity S-wave (km/s) = 3.29953 3.42316 3.36191
# Velocity P-wave (km/s) = 6.86326 6.95552 6.90954
#
# Compressibility (1/GPa) = 0.01571582
#
# Stress axis : x y z
#
# Youngs Moduli (GPa) = 49.62283 49.62283 71.70622
#
# Poissons Ratio (x) = 0.47364 0.34857
# Poissons Ratio (y) = 0.47364 0.34857
# Poissons Ratio (z) = 0.24122 0.24122
#
# Static dielectric constant tensor:
#      x y z
#    x 3.568610 0.000000 0.000000 
#    y 0.000000 3.568610 0.000000 
#    z 0.000000 0.000000 3.781550 
# 
# 
# High freq. dielectric constant tensor:
#      x y z
#    x 1.755490 0.000000 0.000000 
#    y 0.000000 1.755490 0.000000 
#    z 0.000000 0.000000 1.764720 
# 
# From -- ./inp_files/9114.got.cif
#   From: 2010.03.12/outbox.cif.g09.slc.cpg/sg132_5_cif.got.tgz:9114.got - 2010.04.06 17:53:44.
