data_PCOD8316857
_publ_section_title
;
Structure prediction by ZEFSAII (Michael W. Deem and Ramdas Pophale) SiO2 
 PCOD8316857
Probable space group: P 42/M C M
;
_chemical_formula_sum "Si O2"
_cell_formula_units_Z 80
_cell_length_a 11.473129
_cell_length_b 11.473129
_cell_length_c 31.755493
_cell_angle_alpha 90.000000
_cell_angle_beta 90.000000
_cell_angle_gamma 90.000000
_cell_volume 4180.060936
_symmetry_space_group_name_H-M "P 42/M C M"
_symmetry_group_IT_number 132
_symmetry_cell_setting 'tetragonal'
loop_
_space_group_symop_operation_xyz
x,y,z
-y,x,1/2+z
-x,-y,z
y,-x,1/2+z
x,-y,1/2-z
-x,y,1/2-z
y,x,-z
-y,-x,-z
-x,-y,-z
y,-x,1/2-z
x,y,-z
-y,x,1/2-z
-x,y,1/2+z
x,-y,1/2+z
-y,-x,z
y,x,z
loop_
_atom_site_type_symbol
_atom_site_label
_atom_site_fract_x
_atom_site_fract_y
_atom_site_fract_z
Si Si1 0.864964 0.318924 0.249488
Si Si2 0.569944 0.241298 0.595628
Si Si3 0.830800 0.169201 0.950655
Si Si4 0.863706 0.499610 0.819354
Si Si5 0.268978 0.926106 0.547809
Si Si6 0.360069 0.360069 0.549236
O O1 0.804955 0.195046 0.250554
O O2 0.828596 0.385090 0.206768
O O3 0.828612 0.390426 0.290822
O O4 0.000000 0.294322 0.250000
O O5 0.679423 0.320578 0.607863
O O6 0.500657 0.207349 0.637537
O O7 0.618634 0.123751 0.572909
O O8 0.483720 0.316835 0.566776
O O9 0.735552 0.264449 0.939462
O O10 0.954189 0.216553 0.931847
O O11 0.850393 0.149608 0.000000
O O12 0.000000 0.500000 0.829438
O O13 0.311070 0.949635 0.500000
O O14 0.166953 0.833048 0.548694
O O15 0.377006 0.377006 0.500000
#
# Coordination Sequence:
#
# PCOD8316857 Si02
#       6
#    16  16   8  16  16   8
#     4   9  18  36  60  86 116 145 177 220 278 346
#     4  11  23  37  57  81 111 154 197 241 288 346
#     4   9  19  35  55  81 109 141 191 245 299 353
#     4   9  20  36  58  84 110 147 185 228 282 330
#     4   9  18  34  57  82 109 146 190 241 298 348
#     4  11  25  39  53  79 117 159 201 249 291 343
#
# _framework density 19.138476000000001
#
# number of rings (size 3 to 8) (size 9 to 14) (size 15 to 20)
#    0.000    2.400    0.000    3.000    4.200    3.000 
#    0.000    3.000    0.000    1.200    0.000    0.000 
#    0.000    0.000    0.000    0.000    0.000    0.000 
#
# Total GULP energy -991809.388258 kJ/mol
# GULP energy per Si atom -12397.617353 kJ/mol
# Density = 1.909492 g / cm^3
# Si number density = 19.138476 Si / 1000 Ang^3
#
#
#
# Elastic Constant Matrix: (Units=GPa)
#
#
# Indices 1 2 3 4 5 6 
#
# 1 86.2288 54.6273 42.3982 0.0000 0.0000 0.0000
# 2 54.6273 86.2289 42.3983 0.0000 0.0000 0.0000
# 3 42.3982 42.3983 105.4166 0.0000 0.0000 0.0000
# 4 0.0000 0.0000 0.0000 21.5973 0.0000 0.0000
# 5 0.0000 0.0000 0.0000 0.0000 21.5973 0.0000
# 6 0.0000 0.0000 0.0000 0.0000 0.0000 39.7550
#
#
#
# Elastic Compliance Matrix: (Units=1/GPa)
#
#
# Indices 1 2 3 4 5 6 
#
# 1 0.020506 -0.011138 -0.003768 0.000000 0.000000 0.000000
# 2 -0.011138 0.020506 -0.003768 0.000000 0.000000 0.000000
# 3 -0.003768 -0.003768 0.012517 0.000000 0.000000 0.000000
# 4 0.000000 0.000000 0.000000 0.046302 0.000000 0.000000
# 5 0.000000 0.000000 0.000000 0.000000 0.046302 0.000000
# 6 0.000000 0.000000 0.000000 0.000000 0.000000 0.025154
#
#
# Mechanical properties :
#
#
# Convention : Reuss Voigt Hill
#
# Bulk Modulus (GPa) = 61.79892 61.85802 61.82847
# Shear Modulus (GPa) = 23.36149 25.81994 24.59072
#
# Velocity S-wave (km/s) = 3.49758 3.67701 3.58842
# Velocity P-wave (km/s) = 6.97648 7.10061 7.03882
#
# Compressibility (1/GPa) = 0.01618151
#
# Stress axis : x y z
#
# Youngs Moduli (GPa) = 48.76672 48.76670 79.89252
#
# Poissons Ratio (x) = 0.54317 0.30100
# Poissons Ratio (y) = 0.54317 0.30101
# Poissons Ratio (z) = 0.18373 0.18373
#
# Static dielectric constant tensor:
#      x y z
#    x 3.459550 0.000000 0.000000 
#    y 0.000000 3.459550 0.000000 
#    z 0.000000 0.000000 3.421980 
# 
# 
# High freq. dielectric constant tensor:
#      x y z
#    x 1.745370 0.000000 0.000000 
#    y 0.000000 1.745370 0.000000 
#    z 0.000000 0.000000 1.731660 
# 
# From -- ./inp_files/10666.got.cif
#   From: 2010.03.12/outbox.cif.g09.slc.cpg/sg132_6_cif.got.tgz:10666.got - 2010.04.06 17:53:44.
