data_PCOD8316117
_publ_section_title
;
Structure prediction by ZEFSAII (Michael W. Deem and Ramdas Pophale) SiO2 
 PCOD8316117
Probable space group: P 42/M M C
;
_chemical_formula_sum "Si O2"
_cell_formula_units_Z 96
_cell_length_a 24.309659
_cell_length_b 24.309659
_cell_length_c 8.657698
_cell_angle_alpha 90.000000
_cell_angle_beta 90.000000
_cell_angle_gamma 90.000000
_cell_volume 5116.349060
_symmetry_space_group_name_H-M "P 42/M M C"
_symmetry_group_IT_number 131
_symmetry_cell_setting 'tetragonal'
loop_
_space_group_symop_operation_xyz
x,y,z
-x,-y,z
-y,x,1/2+z
y,-x,1/2+z
-x,y,-z
x,-y,-z
y,x,1/2-z
-y,-x,1/2-z
-x,-y,-z
x,y,-z
y,-x,1/2-z
-y,x,1/2-z
x,-y,z
-x,y,z
-y,-x,1/2+z
y,x,1/2+z
loop_
_atom_site_type_symbol
_atom_site_label
_atom_site_fract_x
_atom_site_fract_y
_atom_site_fract_z
Si Si1 0.061641 0.257375 0.182274
Si Si2 0.060623 0.561039 0.183689
Si Si3 0.935943 0.856194 0.325978
Si Si4 0.731324 0.647178 0.184243
Si Si5 0.143319 0.650498 0.183991
Si Si6 0.647735 0.564026 0.682970
O O1 0.081112 0.197124 0.229429
O O2 0.108437 0.297896 0.248421
O O3 0.000000 0.270163 0.249112
O O4 0.059069 0.262641 0.000000
O O5 0.069359 0.500000 0.250076
O O6 0.110163 0.597860 0.249078
O O7 0.000000 0.583333 0.234200
O O8 0.063020 0.560520 0.000000
O O9 0.908762 0.908762 0.250000
O O10 0.915205 0.847915 0.500000
O O11 0.000000 0.867571 0.318560
O O12 0.700627 0.700627 0.250000
O O13 0.794165 0.649520 0.245931
O O14 0.702464 0.591751 0.246364
O O15 0.728215 0.647432 0.000000
O O16 0.144689 0.651004 0.000000
O O17 0.593258 0.593258 0.750000
O O18 0.648496 0.572032 0.500000
O O19 0.646659 0.500000 0.730112
#
# Coordination Sequence:
#
# PCOD8316117 Si02
#       6
#    16  16  16  16  16  16
#     4   9  17  31  51  73 100 133 168 209 255 300
#     4   8  13  22  38  63  97 131 159 194 242 291
#     4  10  21  36  53  74 100 128 161 202 248 302
#     4  10  20  34  51  71 100 135 170 209 250 292
#     4   9  17  28  45  71  98 129 171 210 246 293
#     4  10  21  37  57  80 106 135 167 204 246 294
#
# _framework density 18.763380000000002
#
# number of rings (size 3 to 8) (size 9 to 14) (size 15 to 20)
#    0.000    2.667    0.000    3.500    0.000    6.000 
#    0.000    6.667    0.000    0.000    0.000    0.000 
#    0.000    0.000    0.000   17.000    0.000   15.333 
#
# Total GULP energy -1189948.713161 kJ/mol
# GULP energy per Si atom -12395.299095 kJ/mol
# Density = 1.872067 g / cm^3
# Si number density = 18.763380 Si / 1000 Ang^3
#
#
#
# Elastic Constant Matrix: (Units=GPa)
#
#
# Indices 1 2 3 4 5 6 
#
# 1 -2.0172 235.7119 30.7725 0.0000 0.0000 0.0000
# 2 235.7119 -2.0172 30.7725 0.0000 0.0000 0.0000
# 3 30.7725 30.7725 36.8187 0.0000 0.0000 0.0000
# 4 0.0000 0.0000 0.0000 15.5120 0.0000 0.0000
# 5 0.0000 0.0000 0.0000 0.0000 15.5120 0.0000
# 6 0.0000 0.0000 0.0000 0.0000 0.0000 19.2164
#
#
#
# Elastic Compliance Matrix: (Units=1/GPa)
#
#
# Indices 1 2 3 4 5 6 
#
# 1 0.000640 0.004847 -0.004586 0.000000 0.000000 0.000000
# 2 0.004847 0.000640 -0.004586 0.000000 0.000000 0.000000
# 3 -0.004586 -0.004586 0.034826 0.000000 0.000000 0.000000
# 4 0.000000 0.000000 0.000000 0.064466 0.000000 0.000000
# 5 0.000000 0.000000 0.000000 0.000000 0.064466 0.000000
# 6 0.000000 0.000000 0.000000 0.000000 0.000000 0.052039
#
#
# Mechanical properties :
#
#
# Convention : Reuss Voigt Hill
#
# Bulk Modulus (GPa) = 36.42186 69.69979 53.06083
# Shear Modulus (GPa) = 21.28753 -7.58345 6.85204
#
# Velocity S-wave (km/s) = 3.37193 -2.01256 1.91305
# Velocity P-wave (km/s) = 5.88329 5.64153 5.76368
#
# Compressibility (1/GPa) = 0.02745604
#
# Stress axis : x y z
#
# Youngs Moduli (GPa) = 1562.12547 1562.12547 28.71457
#
# Poissons Ratio (x) = -7.57103 0.13168
# Poissons Ratio (y) = -7.57103 0.13168
# Poissons Ratio (z) = 7.16353 7.16353
#
# Static dielectric constant tensor:
#      x y z
#    x 3.641390 0.000000 0.000000 
#    y 0.000000 3.641390 0.000000 
#    z 0.000000 0.000000 3.156030 
# 
# 
# High freq. dielectric constant tensor:
#      x y z
#    x 1.733740 0.000000 0.000000 
#    y 0.000000 1.733740 0.000000 
#    z 0.000000 0.000000 1.696980 
# 
# From -- ./inp_files/2285.got.cif
#   From: 2010.03.12/outbox.cif.g09.slc.cpg/sg131_2_cif.got.tgz:2285.got - 2010.04.06 17:36:35.
