data_PCOD8316183
_publ_section_title
;
Structure prediction by ZEFSAII (Michael W. Deem and Ramdas Pophale) SiO2 
 PCOD8316183
Probable space group: P 42/M M C
;
_chemical_formula_sum "Si O2"
_cell_formula_units_Z 88
_cell_length_a 13.099260
_cell_length_b 13.099260
_cell_length_c 28.023403
_cell_angle_alpha 90.000000
_cell_angle_beta 90.000000
_cell_angle_gamma 90.000000
_cell_volume 4808.552886
_symmetry_space_group_name_H-M "P 42/M M C"
_symmetry_group_IT_number 131
_symmetry_cell_setting 'tetragonal'
loop_
_space_group_symop_operation_xyz
x,y,z
-x,-y,z
-y,x,1/2+z
y,-x,1/2+z
-x,y,-z
x,-y,-z
y,x,1/2-z
-y,-x,1/2-z
-x,-y,-z
x,y,-z
y,-x,1/2-z
-y,x,1/2-z
x,-y,z
-x,y,z
-y,-x,1/2+z
y,x,1/2+z
loop_
_atom_site_type_symbol
_atom_site_label
_atom_site_fract_x
_atom_site_fract_y
_atom_site_fract_z
Si Si1 0.266087 0.618069 0.710998
Si Si2 0.878331 0.000000 0.052990
Si Si3 0.193496 0.882666 0.610976
Si Si4 0.615410 0.386120 0.615766
Si Si5 0.805076 0.617246 0.944409
Si Si6 0.208895 0.881459 0.205315
O O1 0.349362 0.650639 0.750000
O O2 0.240582 0.500000 0.717604
O O3 0.309792 0.642540 0.658707
O O4 0.160236 0.678906 0.719043
O O5 0.837016 0.102513 0.078391
O O6 0.000000 0.000000 0.051429
O O7 0.832249 0.000000 0.000000
O O8 0.304138 0.872686 0.586098
O O9 0.189137 0.828194 0.661859
O O10 0.171400 0.000000 0.620719
O O11 0.637595 0.500000 0.596957
O O12 0.500000 0.376410 0.635194
O O13 0.633575 0.312184 0.570913
O O14 0.840223 0.500000 0.934297
O O15 0.816713 0.643272 0.000000
O O16 0.132952 0.867049 0.250000
O O17 0.213107 0.000000 0.190916
#
# Coordination Sequence:
#
# PCOD8316183 Si02
#       6
#    16   8  16  16  16  16
#     4  10  20  35  58  86 114 144 180 224 275 331
#     4   9  18  32  54  80 103 135 185 241 286 323
#     4  11  21  36  56  80 110 145 191 239 284 337
#     4   9  17  31  53  80 109 141 179 223 270 324
#     4  10  21  36  54  79 113 150 188 233 288 347
#     4  11  23  39  59  84 113 148 187 230 282 341
#
# _framework density 18.300725
#
# number of rings (size 3 to 8) (size 9 to 14) (size 15 to 20)
#    0.000    1.909    2.727    1.636    0.000    4.000 
#    0.000    2.727    0.000    2.182    0.000    0.000 
#    0.000    5.818    0.000    0.000    0.000    0.000 
#
# Total GULP energy -1091149.533352 kJ/mol
# GULP energy per Si atom -12399.426515 kJ/mol
# Density = 1.825907 g / cm^3
# Si number density = 18.300725 Si / 1000 Ang^3
#
#
#
# Elastic Constant Matrix: (Units=GPa)
#
#
# Indices 1 2 3 4 5 6 
#
# 1 85.9553 30.9081 33.1993 0.0000 0.0000 0.0000
# 2 30.9081 85.9550 33.1996 0.0000 0.0000 0.0000
# 3 33.1993 33.1996 106.1369 0.0000 0.0000 0.0000
# 4 0.0000 0.0000 0.0000 26.7681 0.0000 0.0000
# 5 0.0000 0.0000 0.0000 0.0000 26.7681 0.0000
# 6 0.0000 0.0000 0.0000 0.0000 0.0000 21.3270
#
#
#
# Elastic Compliance Matrix: (Units=1/GPa)
#
#
# Indices 1 2 3 4 5 6 
#
# 1 0.014286 -0.003880 -0.003255 0.000000 0.000000 0.000000
# 2 -0.003880 0.014286 -0.003255 0.000000 0.000000 0.000000
# 3 -0.003255 -0.003255 0.011458 0.000000 0.000000 0.000000
# 4 0.000000 0.000000 0.000000 0.037358 0.000000 0.000000
# 5 0.000000 0.000000 0.000000 0.000000 0.037358 0.000000
# 6 0.000000 0.000000 0.000000 0.000000 0.000000 0.046889
#
#
# Mechanical properties :
#
#
# Convention : Reuss Voigt Hill
#
# Bulk Modulus (GPa) = 51.94629 52.51791 52.23210
# Shear Modulus (GPa) = 26.47844 27.02199 26.75022
#
# Velocity S-wave (km/s) = 3.80788 3.84676 3.82737
# Velocity P-wave (km/s) = 6.91229 6.96345 6.93791
#
# Compressibility (1/GPa) = 0.01925065
#
# Stress axis : x y z
#
# Youngs Moduli (GPa) = 69.99693 69.99650 87.27381
#
# Poissons Ratio (x) = 0.27158 0.28409
# Poissons Ratio (y) = 0.27158 0.28409
# Poissons Ratio (z) = 0.22785 0.22785
#
# Static dielectric constant tensor:
#      x y z
#    x 3.288150 0.000000 0.000000 
#    y 0.000000 3.288160 0.000000 
#    z 0.000000 0.000000 3.386670 
# 
# 
# High freq. dielectric constant tensor:
#      x y z
#    x 1.702100 0.000000 0.000000 
#    y 0.000000 1.702100 0.000000 
#    z 0.000000 0.000000 1.713690 
# 
# From -- ./inp_files/13557.got.cif
#   From: 2010.03.12/outbox.cif.g09.slc.cpg/sg131_7_cif.got.tgz:13557.got - 2010.04.06 17:36:35.
