data_PCOD8316308
_publ_section_title
;
Structure prediction by ZEFSAII (Michael W. Deem and Ramdas Pophale) SiO2 
 PCOD8316308
Probable space group: P 42/M M C
;
_chemical_formula_sum "Si O2"
_cell_formula_units_Z 56
_cell_length_a 13.327520
_cell_length_b 13.327520
_cell_length_c 18.484967
_cell_angle_alpha 90.000000
_cell_angle_beta 90.000000
_cell_angle_gamma 90.000000
_cell_volume 3283.351400
_symmetry_space_group_name_H-M "P 42/M M C"
_symmetry_group_IT_number 131
_symmetry_cell_setting 'tetragonal'
loop_
_space_group_symop_operation_xyz
x,y,z
-x,-y,z
-y,x,1/2+z
y,-x,1/2+z
-x,y,-z
x,-y,-z
y,x,1/2-z
-y,-x,1/2-z
-x,-y,-z
x,y,-z
y,-x,1/2-z
-y,x,1/2-z
x,-y,z
-x,y,z
-y,-x,1/2+z
y,x,1/2+z
loop_
_atom_site_type_symbol
_atom_site_label
_atom_site_fract_x
_atom_site_fract_y
_atom_site_fract_z
Si Si1 0.882465 0.113404 0.167069
Si Si2 0.615979 0.385953 0.166994
Si Si3 0.500000 0.887561 0.414096
Si Si4 0.295873 0.215919 0.414309
O O1 0.858829 0.141172 0.250000
O O2 0.830283 0.193460 0.115380
O O3 0.000000 0.118565 0.152159
O O4 0.843994 0.000000 0.149918
O O5 0.639990 0.360011 0.250000
O O6 0.649238 0.500000 0.149160
O O7 0.500000 0.372663 0.150435
O O8 0.671273 0.306902 0.115079
O O9 0.500000 0.881459 0.500000
O O10 0.603610 0.839507 0.384955
O O11 0.500000 0.000000 0.384900
O O12 0.289051 0.214189 0.500000
#
# Coordination Sequence:
#
# PCOD8316308 Si02
#       4
#    16  16   8  16
#     4   9  19  36  56  76 100 135 177 216 253 299
#     4   9  18  33  52  74 101 135 174 213 253 301
#     4   9  18  30  43  67 103 135 159 194 254 312
#     4  11  20  31  50  77 108 137 166 210 262 310
#
# _framework density 17.055744000000001
#
# number of rings (size 3 to 8) (size 9 to 14) (size 15 to 20)
#    0.000    2.429    1.429    3.429    0.000    2.857 
#    0.000    2.857    0.000    0.857    0.000    2.000 
#    0.000    0.000    0.000    0.000    0.000    0.000 
#
# Total GULP energy -694194.340738 kJ/mol
# GULP energy per Si atom -12396.327513 kJ/mol
# Density = 1.701692 g / cm^3
# Si number density = 17.055744 Si / 1000 Ang^3
#
#
#
# Elastic Constant Matrix: (Units=GPa)
#
#
# Indices 1 2 3 4 5 6 
#
# 1 94.6880 53.2655 56.7469 0.0000 0.0000 0.0000
# 2 53.2655 94.6881 56.7469 0.0000 0.0000 0.0000
# 3 56.7469 56.7469 82.7539 0.0000 0.0000 0.0000
# 4 0.0000 0.0000 0.0000 25.0055 0.0000 0.0000
# 5 0.0000 0.0000 0.0000 0.0000 25.0054 0.0000
# 6 0.0000 0.0000 0.0000 0.0000 0.0000 33.0076
#
#
#
# Elastic Compliance Matrix: (Units=1/GPa)
#
#
# Indices 1 2 3 4 5 6 
#
# 1 0.019201 -0.004941 -0.009778 0.000000 0.000000 0.000000
# 2 -0.004941 0.019201 -0.009778 0.000000 0.000000 0.000000
# 3 -0.009778 -0.009778 0.025495 0.000000 0.000000 0.000000
# 4 0.000000 0.000000 0.000000 0.039991 0.000000 0.000000
# 5 0.000000 0.000000 0.000000 0.000000 0.039991 0.000000
# 6 0.000000 0.000000 0.000000 0.000000 0.000000 0.030296
#
#
# Mechanical properties :
#
#
# Convention : Reuss Voigt Hill
#
# Bulk Modulus (GPa) = 67.11069 67.29430 67.20249
# Shear Modulus (GPa) = 21.91670 23.62840 22.77255
#
# Velocity S-wave (km/s) = 3.58858 3.72609 3.65798
# Velocity P-wave (km/s) = 7.52355 7.61924 7.57155
#
# Compressibility (1/GPa) = 0.01490076
#
# Stress axis : x y z
#
# Youngs Moduli (GPa) = 52.08165 52.08176 39.22392
#
# Poissons Ratio (x) = 0.25733 0.38355
# Poissons Ratio (y) = 0.25733 0.38354
# Poissons Ratio (z) = 0.50927 0.50927
#
# Static dielectric constant tensor:
#      x y z
#    x 3.197200 0.000000 0.000000 
#    y 0.000000 3.197200 0.000000 
#    z 0.000000 0.000000 3.179590 
# 
# 
# High freq. dielectric constant tensor:
#      x y z
#    x 1.655390 0.000000 0.000000 
#    y 0.000000 1.655390 0.000000 
#    z 0.000000 0.000000 1.644240 
# 
# From -- ./inp_files/9171.got.cif
#   From: 2010.03.12/outbox.cif.g09.slc.cpg/sg131_5_cif.got.tgz:9171.got - 2010.04.06 17:36:35.
