data_PCOD8316571
_publ_section_title
;
Structure prediction by ZEFSAII (Michael W. Deem and Ramdas Pophale) SiO2 
 PCOD8316571
Probable space group: P 42/M C M
;
_chemical_formula_sum "Si O2"
_cell_formula_units_Z 112
_cell_length_a 14.544089
_cell_length_b 14.544089
_cell_length_c 27.859439
_cell_angle_alpha 90.000000
_cell_angle_beta 90.000000
_cell_angle_gamma 90.000000
_cell_volume 5893.121753
_symmetry_space_group_name_H-M "P 42/M C M"
_symmetry_group_IT_number 132
_symmetry_cell_setting 'tetragonal'
loop_
_space_group_symop_operation_xyz
x,y,z
-y,x,1/2+z
-x,-y,z
y,-x,1/2+z
x,-y,1/2-z
-x,y,1/2-z
y,x,-z
-y,-x,-z
-x,-y,-z
y,-x,1/2-z
x,y,-z
-y,x,1/2-z
-x,y,1/2+z
x,-y,1/2+z
-y,-x,z
y,x,z
loop_
_atom_site_type_symbol
_atom_site_label
_atom_site_fract_x
_atom_site_fract_y
_atom_site_fract_z
Si Si1 0.870091 0.727436 0.056903
Si Si2 0.520584 0.106657 0.553450
Si Si3 0.131858 0.642026 0.122066
Si Si4 0.064952 0.792318 0.055079
Si Si5 0.768130 0.382200 0.298472
Si Si6 0.581810 0.277048 0.808695
Si Si7 0.978368 0.392522 0.302877
O O1 0.780227 0.780227 0.077838
O O2 0.875262 0.622572 0.075047
O O3 0.960156 0.785062 0.073153
O O4 0.865689 0.726269 0.000000
O O5 0.510003 0.151050 0.500000
O O6 0.451297 0.146343 0.592074
O O7 0.500000 0.000000 0.548844
O O8 0.130738 0.726314 0.085600
O O9 0.221968 0.645578 0.154398
O O10 0.040968 0.649517 0.155213
O O11 0.103421 0.896580 0.060632
O O12 0.071743 0.758880 0.000000
O O13 0.706360 0.293641 0.312533
O O14 0.723986 0.474064 0.322139
O O15 0.772314 0.399168 0.241770
O O16 0.872652 0.369851 0.316685
O O17 0.617420 0.382581 0.807395
O O18 0.000000 0.500000 0.302059
O O19 0.000000 0.350634 0.250000
#
# Coordination Sequence:
#
# PCOD8316571 Si02
#       7
#    16  16  16  16  16  16  16
#     4   9  18  33  52  75 103 136 175 216 263 320
#     4  10  19  32  52  77 106 140 174 215 269 322
#     4  12  20  32  54  80 106 140 180 218 272 316
#     4  10  21  35  51  76 108 142 181 222 264 316
#     4  10  20  36  54  79 107 139 176 221 271 325
#     4  10  20  34  52  76 105 139 179 219 262 321
#     4  11  19  34  55  78 107 140 174 223 275 318
#
# _framework density 19.005206000000001
#
# number of rings (size 3 to 8) (size 9 to 14) (size 15 to 20)
#    0.000    1.714    4.286    2.143    0.000    0.571 
#    0.000    5.714    0.000    0.000    0.000    0.000 
#    0.000    1.429    0.000   12.857    0.000    0.286 
#
# Total GULP energy -1388140.773217 kJ/mol
# GULP energy per Si atom -12394.114047 kJ/mol
# Density = 1.896195 g / cm^3
# Si number density = 19.005206 Si / 1000 Ang^3
#
#
#
# Elastic Constant Matrix: (Units=GPa)
#
#
# Indices 1 2 3 4 5 6 
#
# 1 89.5968 48.5503 17.3005 0.0000 0.0000 0.0000
# 2 48.5503 89.5968 17.3005 0.0000 0.0000 0.0000
# 3 17.3005 17.3005 56.4636 0.0000 0.0000 0.0000
# 4 0.0000 0.0000 0.0000 27.0283 0.0000 0.0000
# 5 0.0000 0.0000 0.0000 0.0000 27.0283 0.0000
# 6 0.0000 0.0000 0.0000 0.0000 0.0000 32.5731
#
#
#
# Elastic Compliance Matrix: (Units=1/GPa)
#
#
# Indices 1 2 3 4 5 6 
#
# 1 0.016101 -0.008261 -0.002402 0.000000 0.000000 0.000000
# 2 -0.008261 0.016101 -0.002402 0.000000 0.000000 0.000000
# 3 -0.002402 -0.002402 0.019183 0.000000 0.000000 0.000000
# 4 0.000000 0.000000 0.000000 0.036998 0.000000 0.000000
# 5 0.000000 0.000000 0.000000 0.000000 0.036998 0.000000
# 6 0.000000 0.000000 0.000000 0.000000 0.000000 0.030700
#
#
# Mechanical properties :
#
#
# Convention : Reuss Voigt Hill
#
# Bulk Modulus (GPa) = 39.59740 44.66221 42.12981
# Shear Modulus (GPa) = 26.22858 27.49301 26.86079
#
# Velocity S-wave (km/s) = 3.71896 3.80755 3.76352
# Velocity P-wave (km/s) = 6.27066 6.54835 6.41101
#
# Compressibility (1/GPa) = 0.02525418
#
# Stress axis : x y z
#
# Youngs Moduli (GPa) = 62.10602 62.10602 52.13044
#
# Poissons Ratio (x) = 0.51307 0.12523
# Poissons Ratio (y) = 0.51307 0.12523
# Poissons Ratio (z) = 0.14920 0.14920
#
# Static dielectric constant tensor:
#      x y z
#    x 3.480400 0.000000 0.000000 
#    y 0.000000 3.480400 0.000000 
#    z 0.000000 0.000000 3.644520 
# 
# 
# High freq. dielectric constant tensor:
#      x y z
#    x 1.721480 0.000000 0.000000 
#    y 0.000000 1.721480 0.000000 
#    z 0.000000 0.000000 1.738850 
# 
# From -- ./inp_files/10040.got.cif
#   From: 2010.03.12/outbox.cif.g09.slc.cpg/sg132_6_cif.got.tgz:10040.got - 2010.04.06 17:53:44.
