data_PCOD8316067
_publ_section_title
;
Structure prediction by ZEFSAII (Michael W. Deem and Ramdas Pophale) SiO2 
 PCOD8316067
Probable space group: P 42/M M C
;
_chemical_formula_sum "Si O2"
_cell_formula_units_Z 112
_cell_length_a 14.716138
_cell_length_b 14.716138
_cell_length_c 29.600204
_cell_angle_alpha 90.000000
_cell_angle_beta 90.000000
_cell_angle_gamma 90.000000
_cell_volume 6410.359821
_symmetry_space_group_name_H-M "P 42/M M C"
_symmetry_group_IT_number 131
_symmetry_cell_setting 'tetragonal'
loop_
_space_group_symop_operation_xyz
x,y,z
-x,-y,z
-y,x,1/2+z
y,-x,1/2+z
-x,y,-z
x,-y,-z
y,x,1/2-z
-y,-x,1/2-z
-x,-y,-z
x,y,-z
y,-x,1/2-z
-y,x,1/2-z
x,-y,z
-x,y,z
-y,-x,1/2+z
y,x,1/2+z
loop_
_atom_site_type_symbol
_atom_site_label
_atom_site_fract_x
_atom_site_fract_y
_atom_site_fract_z
Si Si1 0.276498 0.106530 0.049009
Si Si2 0.604834 0.246814 0.304711
Si Si3 0.394754 0.103763 0.129928
Si Si4 0.212450 0.101547 0.550129
Si Si5 0.894881 0.276871 0.854278
Si Si6 0.898955 0.107125 0.300903
Si Si7 0.603156 0.747033 0.799749
O O1 0.340205 0.147598 0.087885
O O2 0.171141 0.130110 0.056664
O O3 0.287059 0.000000 0.050080
O O4 0.308669 0.144305 0.000000
O O5 0.500000 0.264179 0.317573
O O6 0.640965 0.161151 0.332803
O O7 0.662276 0.336748 0.316354
O O8 0.617023 0.225653 0.252028
O O9 0.500000 0.110547 0.117344
O O10 0.369269 0.162189 0.173634
O O11 0.366324 0.000000 0.140206
O O12 0.258350 0.113641 0.500000
O O13 0.283069 0.117710 0.591227
O O14 0.171435 0.000000 0.554681
O O15 0.857972 0.178888 0.835556
O O16 0.000000 0.290013 0.840557
O O17 0.867336 0.132665 0.250000
O O18 0.000000 0.148824 0.312073
O O19 0.907882 0.000000 0.304637
O O20 0.500000 0.717474 0.809612
#
# Coordination Sequence:
#
# PCOD8316067 Si02
#       7
#    16  16  16  16  16  16  16
#     4   9  17  28  42  64  95 130 167 202 234 273
#     4  10  21  35  52  73  97 125 159 202 245 289
#     4   9  17  30  49  73 101 131 158 187 229 283
#     4   9  18  32  48  65  89 124 165 209 252 289
#     4  10  20  32  49  73  99 130 165 203 248 295
#     4   8  15  28  44  65  96 131 165 199 233 276
#     4   9  19  35  53  73  98 127 161 198 235 285
#
# _framework density 17.471717999999999
#
# number of rings (size 3 to 8) (size 9 to 14) (size 15 to 20)
#    0.000    2.857    0.000    1.286    2.000    2.286 
#    0.000    7.857    0.000    0.429    0.000    2.000 
#    0.000    0.000    0.000   12.286    0.000    0.429 
#
# Total GULP energy -1388098.885884 kJ/mol
# GULP energy per Si atom -12393.740053 kJ/mol
# Density = 1.743195 g / cm^3
# Si number density = 17.471718 Si / 1000 Ang^3
#
#
#
# Elastic Constant Matrix: (Units=GPa)
#
#
# Indices 1 2 3 4 5 6 
#
# 1 77.9654 42.7382 53.4978 0.0000 0.0000 0.0000
# 2 42.7382 77.9654 53.4978 0.0000 0.0000 0.0000
# 3 53.4978 53.4978 105.9944 0.0000 0.0000 0.0000
# 4 0.0000 0.0000 0.0000 20.8101 0.0000 0.0000
# 5 0.0000 0.0000 0.0000 0.0000 20.8101 0.0000
# 6 0.0000 0.0000 0.0000 0.0000 0.0000 26.2662
#
#
#
# Elastic Compliance Matrix: (Units=1/GPa)
#
#
# Indices 1 2 3 4 5 6 
#
# 1 0.021690 -0.006697 -0.007567 0.000000 0.000000 0.000000
# 2 -0.006697 0.021690 -0.007567 0.000000 0.000000 0.000000
# 3 -0.007567 -0.007567 0.017073 0.000000 0.000000 0.000000
# 4 0.000000 0.000000 0.000000 0.048054 0.000000 0.000000
# 5 0.000000 0.000000 0.000000 0.000000 0.048054 0.000000
# 6 0.000000 0.000000 0.000000 0.000000 0.000000 0.038072
#
#
# Mechanical properties :
#
#
# Convention : Reuss Voigt Hill
#
# Bulk Modulus (GPa) = 59.56028 62.37697 60.96862
# Shear Modulus (GPa) = 20.50097 21.05669 20.77883
#
# Velocity S-wave (km/s) = 3.42918 3.47535 3.45234
# Velocity P-wave (km/s) = 7.05993 7.20300 7.13182
#
# Compressibility (1/GPa) = 0.01678971
#
# Stress axis : x y z
#
# Youngs Moduli (GPa) = 46.10471 46.10468 58.57220
#
# Poissons Ratio (x) = 0.30878 0.44322
# Poissons Ratio (y) = 0.30878 0.44322
# Poissons Ratio (z) = 0.34887 0.34887
#
# Static dielectric constant tensor:
#      x y z
#    x 3.172580 0.000000 0.000000 
#    y 0.000000 3.172590 0.000000 
#    z 0.000000 0.000000 3.589050 
# 
# 
# High freq. dielectric constant tensor:
#      x y z
#    x 1.654820 0.000000 0.000000 
#    y 0.000000 1.654820 0.000000 
#    z 0.000000 0.000000 1.681090 
# 
# From -- ./inp_files/13902.got.cif
#   From: 2010.03.12/outbox.cif.g09.slc.cpg/sg131_7_cif.got.tgz:13902.got - 2010.04.06 17:36:35.
