data_PCOD8316466
_publ_section_title
;
Structure prediction by ZEFSAII (Michael W. Deem and Ramdas Pophale) SiO2 
 PCOD8316466
Probable space group: P 42/M C M
;
_chemical_formula_sum "Si O2"
_cell_formula_units_Z 64
_cell_length_a 14.178998
_cell_length_b 14.178998
_cell_length_c 18.802226
_cell_angle_alpha 90.000000
_cell_angle_beta 90.000000
_cell_angle_gamma 90.000000
_cell_volume 3780.074428
_symmetry_space_group_name_H-M "P 42/M C M"
_symmetry_group_IT_number 132
_symmetry_cell_setting 'tetragonal'
loop_
_space_group_symop_operation_xyz
x,y,z
-y,x,1/2+z
-x,-y,z
y,-x,1/2+z
x,-y,1/2-z
-x,y,1/2-z
y,x,-z
-y,-x,-z
-x,-y,-z
y,-x,1/2-z
x,y,-z
-y,x,1/2-z
-x,y,1/2+z
x,-y,1/2+z
-y,-x,z
y,x,z
loop_
_atom_site_type_symbol
_atom_site_label
_atom_site_fract_x
_atom_site_fract_y
_atom_site_fract_z
Si Si1 0.516011 0.892278 0.333146
Si Si2 0.357532 0.792988 0.417911
Si Si3 0.725838 0.123432 0.814586
Si Si4 0.078092 0.225461 0.158687
O O1 0.500000 0.884238 0.250000
O O2 0.451466 0.815232 0.373092
O O3 0.623785 0.865385 0.349849
O O4 0.500000 0.000000 0.359641
O O5 0.386086 0.788938 0.500000
O O6 0.305902 0.694099 0.394895
O O7 0.282906 0.877765 0.406802
O O8 0.783377 0.216624 0.833877
O O9 0.716778 0.107890 0.729726
O O10 0.780413 0.034064 0.848695
O O11 0.119285 0.119285 0.162305
#
# Coordination Sequence:
#
# PCOD8316466 Si02
#       4
#    16  16  16  16
#     4  11  18  31  52  76 102 132 169 213 258 296
#     4  10  20  33  51  75 102 134 172 209 248 300
#     4  10  18  29  48  76 104 131 165 209 256 298
#     4   9  16  30  48  71 105 138 166 198 245 303
#
# _framework density 16.930883000000001
#
# number of rings (size 3 to 8) (size 9 to 14) (size 15 to 20)
#    0.000    2.000    5.000    1.500    0.000    1.000 
#    0.000    2.500    0.000    3.750    0.000    7.000 
#    0.000    0.000    0.000    0.000    0.000    0.000 
#
# Total GULP energy -793329.812110 kJ/mol
# GULP energy per Si atom -12395.778314 kJ/mol
# Density = 1.689235 g / cm^3
# Si number density = 16.930883 Si / 1000 Ang^3
#
#
#
# Elastic Constant Matrix: (Units=GPa)
#
#
# Indices 1 2 3 4 5 6 
#
# 1 124.2099 72.1584 33.3925 0.0000 0.0000 0.0000
# 2 72.1584 124.2099 33.3925 0.0000 0.0000 0.0000
# 3 33.3925 33.3925 43.0911 0.0000 0.0000 0.0000
# 4 0.0000 0.0000 0.0000 14.8140 0.0000 0.0000
# 5 0.0000 0.0000 0.0000 0.0000 14.8140 0.0000
# 6 0.0000 0.0000 0.0000 0.0000 0.0000 25.7680
#
#
#
# Elastic Compliance Matrix: (Units=1/GPa)
#
#
# Indices 1 2 3 4 5 6 
#
# 1 0.013063 -0.006148 -0.005359 0.000000 0.000000 0.000000
# 2 -0.006148 0.013063 -0.005359 0.000000 0.000000 0.000000
# 3 -0.005359 -0.005359 0.031512 0.000000 0.000000 0.000000
# 4 0.000000 0.000000 0.000000 0.067504 0.000000 0.000000
# 5 0.000000 0.000000 0.000000 0.000000 0.067504 0.000000
# 6 0.000000 0.000000 0.000000 0.000000 0.000000 0.038808
#
#
# Mechanical properties :
#
#
# Convention : Reuss Voigt Hill
#
# Bulk Modulus (GPa) = 41.82835 63.26643 52.54739
# Shear Modulus (GPa) = 18.30468 21.25035 19.77751
#
# Velocity S-wave (km/s) = 3.29164 3.54662 3.42150
# Velocity P-wave (km/s) = 6.26143 7.36342 6.83467
#
# Compressibility (1/GPa) = 0.02390723
#
# Stress axis : x y z
#
# Youngs Moduli (GPa) = 76.55008 76.55008 31.73425
#
# Poissons Ratio (x) = 0.47066 0.17005
# Poissons Ratio (y) = 0.47066 0.17005
# Poissons Ratio (z) = 0.41020 0.41020
#
# Static dielectric constant tensor:
#      x y z
#    x 3.186530 0.000000 0.000000 
#    y 0.000000 3.186530 0.000000 
#    z 0.000000 0.000000 2.928210 
# 
# 
# High freq. dielectric constant tensor:
#      x y z
#    x 1.643590 0.000000 0.000000 
#    y 0.000000 1.643590 0.000000 
#    z 0.000000 0.000000 1.621680 
# 
# From -- ./inp_files/4407.got.cif
#   From: 2010.03.12/outbox.cif.g09.slc.cpg/sg132_3_cif.got.tgz:4407.got - 2010.04.06 17:53:44.
