data_PCOD8316989
_publ_section_title
;
Structure prediction by ZEFSAII (Michael W. Deem and Ramdas Pophale) SiO2 
 PCOD8316989
Probable space group: P 42/N B C
;
_chemical_formula_sum "Si O2"
_cell_formula_units_Z 112
_cell_length_a 14.441051
_cell_length_b 14.441051
_cell_length_c 27.008100
_cell_angle_alpha 90.000000
_cell_angle_beta 90.000000
_cell_angle_gamma 90.000000
_cell_volume 5632.375964
_symmetry_space_group_name_H-M "P 42/N B C"
_symmetry_group_IT_number 133
_space_group.IT_coordinate_system_code '2'
_symmetry_cell_setting 'tetragonal'
loop_
_space_group_symop_operation_xyz
x,y,z
1/2-y,x,1/2+z
1/2-x,1/2-y,z
y,1/2-x,1/2+z
x,1/2-y,-z
1/2-x,y,-z
y,x,1/2-z
1/2-y,1/2-x,1/2-z
-x,-y,-z
1/2+y,-x,1/2-z
1/2+x,1/2+y,-z
-y,1/2+x,1/2-z
-x,1/2+y,z
1/2+x,-y,z
-y,-x,1/2+z
1/2+y,1/2+x,1/2+z
loop_
_atom_site_type_symbol
_atom_site_label
_atom_site_fract_x
_atom_site_fract_y
_atom_site_fract_z
Si Si1 0.303796 0.835303 0.847134
Si Si2 0.555537 0.879875 0.200903
Si Si3 0.888607 0.508817 0.108776
Si Si4 0.998345 0.812146 0.193884
Si Si5 0.050042 0.084023 0.616167
Si Si6 0.356663 0.245601 0.441571
Si Si7 0.561842 0.349641 0.702030
O O1 0.250000 0.750000 0.874413
O O2 0.395164 0.796544 0.820755
O O3 0.237451 0.869394 0.802373
O O4 0.330874 0.913062 0.888170
O O5 0.616095 0.883906 0.250000
O O6 0.598039 0.955306 0.164485
O O7 0.562715 0.777075 0.178715
O O8 0.448116 0.893572 0.214927
O O9 0.833653 0.585375 0.077665
O O10 0.993684 0.492413 0.087348
O O11 0.990127 0.829954 0.253088
O O12 0.955380 0.893758 0.162612
O O13 0.104307 0.147150 0.577189
O O14 0.977319 0.147814 0.645364
O O15 0.250000 0.250000 0.424134
O O16 0.364783 0.250000 0.500000
#
# Coordination Sequence:
#
# PCOD8316989 Si02
#       7
#    16  16  16  16  16  16  16
#     4  11  21  34  57  87 119 161 212 253 297 360
#     4  11  21  34  51  82 126 164 198 251 297 357
#     4  10  22  41  62  89 122 160 206 254 313 378
#     4  11  21  33  53  86 122 161 210 243 295 362
#     4  10  22  39  63  86 119 162 199 258 310 369
#     4  11  24  44  69  94 121 159 208 265 325 388
#     4  11  19  34  53  82 120 160 202 243 296 358
#
# _framework density 19.885037000000001
#
# number of rings (size 3 to 8) (size 9 to 14) (size 15 to 20)
#    0.000    1.286    2.857    5.571    0.000    0.571 
#    0.000    0.000    0.000    0.429    0.000    0.000 
#    0.000    0.000    0.000    0.000    0.000    0.000 
#
# Total GULP energy -1388108.428001 kJ/mol
# GULP energy per Si atom -12393.825250 kJ/mol
# Density = 1.983978 g / cm^3
# Si number density = 19.885037 Si / 1000 Ang^3
#
#
#
# Elastic Constant Matrix: (Units=GPa)
#
#
# Indices 1 2 3 4 5 6 
#
# 1 108.3732 47.3262 35.5392 0.0000 0.0000 0.0000
# 2 47.3262 108.3732 35.5394 0.0000 0.0000 0.0000
# 3 35.5392 35.5394 62.1739 0.0000 0.0000 0.0000
# 4 0.0000 0.0000 0.0000 23.3918 0.0000 0.0000
# 5 0.0000 0.0000 0.0000 0.0000 23.3917 0.0000
# 6 0.0000 0.0000 0.0000 0.0000 0.0000 38.1291
#
#
#
# Elastic Compliance Matrix: (Units=1/GPa)
#
#
# Indices 1 2 3 4 5 6 
#
# 1 0.012536 -0.003845 -0.004967 0.000000 0.000000 0.000000
# 2 -0.003845 0.012536 -0.004968 0.000000 0.000000 0.000000
# 3 -0.004967 -0.004968 0.021763 0.000000 0.000000 0.000000
# 4 0.000000 0.000000 0.000000 0.042750 0.000000 0.000000
# 5 0.000000 0.000000 0.000000 0.000000 0.042750 0.000000
# 6 0.000000 0.000000 0.000000 0.000000 0.000000 0.026227
#
#
# Mechanical properties :
#
#
# Convention : Reuss Voigt Hill
#
# Bulk Modulus (GPa) = 51.88450 57.30332 54.59391
# Shear Modulus (GPa) = 25.96784 27.68356 26.82570
#
# Velocity S-wave (km/s) = 3.61764 3.73524 3.67691
# Velocity P-wave (km/s) = 6.60293 6.89076 6.74838
#
# Compressibility (1/GPa) = 0.01927358
#
# Stress axis : x y z
#
# Youngs Moduli (GPa) = 79.77299 79.77274 45.94981
#
# Poissons Ratio (x) = 0.30675 0.22825
# Poissons Ratio (y) = 0.30675 0.22826
# Poissons Ratio (z) = 0.39627 0.39627
#
# Static dielectric constant tensor:
#      x y z
#    x 3.912930 0.000000 0.000000 
#    y 0.000000 3.912930 0.000000 
#    z 0.000000 0.000000 3.111240 
# 
# 
# High freq. dielectric constant tensor:
#      x y z
#    x 1.789520 0.000000 0.000000 
#    y 0.000000 1.789520 0.000000 
#    z 0.000000 0.000000 1.724150 
# 
# From -- ./inp_files/8083.got.cif
#   From: 2010.03.12/outbox.cif.g09.slc.cpg/sg133_5_cif.got.tgz:8083.got - 2010.04.06 18:08:06.
