data_PCOD8316831
_publ_section_title
;
Structure prediction by ZEFSAII (Michael W. Deem and Ramdas Pophale) SiO2 
 PCOD8316831
Probable space group: P 42/M C M
;
_chemical_formula_sum "Si O2"
_cell_formula_units_Z 80
_cell_length_a 12.052465
_cell_length_b 12.052465
_cell_length_c 31.719348
_cell_angle_alpha 90.000000
_cell_angle_beta 90.000000
_cell_angle_gamma 90.000000
_cell_volume 4607.613156
_symmetry_space_group_name_H-M "P 42/M C M"
_symmetry_group_IT_number 132
_symmetry_cell_setting 'tetragonal'
loop_
_space_group_symop_operation_xyz
x,y,z
-y,x,1/2+z
-x,-y,z
y,-x,1/2+z
x,-y,1/2-z
-x,y,1/2-z
y,x,-z
-y,-x,-z
-x,-y,-z
y,-x,1/2-z
x,y,-z
-y,x,1/2-z
-x,y,1/2+z
x,-y,1/2+z
-y,-x,z
y,x,z
loop_
_atom_site_type_symbol
_atom_site_label
_atom_site_fract_x
_atom_site_fract_y
_atom_site_fract_z
Si Si1 0.369868 0.184945 0.254100
Si Si2 0.905102 0.734558 0.450227
Si Si3 0.112554 0.705224 0.600465
Si Si4 0.006080 0.371177 0.183996
Si Si5 0.503401 0.868617 0.046735
O O1 0.500000 0.217780 0.250000
O O2 0.296528 0.296528 0.253239
O O3 0.339751 0.105983 0.215165
O O4 0.340033 0.114042 0.296204
O O5 0.909666 0.739372 0.500000
O O6 0.834693 0.834693 0.430697
O O7 0.840985 0.620661 0.436894
O O8 0.031379 0.750040 0.435500
O O9 0.209071 0.790930 0.611455
O O10 0.032418 0.690147 0.640588
O O11 0.169426 0.592268 0.582223
O O12 0.000000 0.500000 0.174314
O O13 0.500000 0.000000 0.042004
O O14 0.529446 0.816943 0.000000
#
# Coordination Sequence:
#
# PCOD8316831 Si02
#       5
#    16  16  16  16  16
#     4   9  18  33  53  75  97 121 151 190 234 277
#     4   9  18  32  48  66  92 127 163 198 239 288
#     4  11  20  29  47  73  98 124 157 199 239 275
#     4   9  18  33  51  69  93 128 162 187 220 276
#     4   8  15  29  47  66  89 121 163 202 234 274
#
# _framework density 17.362570000000002
#
# number of rings (size 3 to 8) (size 9 to 14) (size 15 to 20)
#    0.000    2.800    0.000    5.400    0.000    3.000 
#    0.000    1.000    0.000   10.200    0.000    2.800 
#    0.000    0.000    0.000    0.000    0.000    0.000 
#
# Total GULP energy -991073.901369 kJ/mol
# GULP energy per Si atom -12388.423767 kJ/mol
# Density = 1.732305 g / cm^3
# Si number density = 17.362570 Si / 1000 Ang^3
#
#
#
# Elastic Constant Matrix: (Units=GPa)
#
#
# Indices 1 2 3 4 5 6 
#
# 1 63.1287 33.1505 24.5895 0.0000 0.0000 0.0000
# 2 33.1505 63.1287 24.5895 0.0000 0.0000 0.0000
# 3 24.5895 24.5895 60.4068 0.0000 0.0000 0.0000
# 4 0.0000 0.0000 0.0000 11.6738 0.0000 0.0000
# 5 0.0000 0.0000 0.0000 0.0000 11.6738 0.0000
# 6 0.0000 0.0000 0.0000 0.0000 0.0000 27.3178
#
#
#
# Elastic Compliance Matrix: (Units=1/GPa)
#
#
# Indices 1 2 3 4 5 6 
#
# 1 0.023235 -0.010122 -0.005338 0.000000 0.000000 0.000000
# 2 -0.010122 0.023235 -0.005338 0.000000 0.000000 0.000000
# 3 -0.005338 -0.005338 0.020900 0.000000 0.000000 0.000000
# 4 0.000000 0.000000 0.000000 0.085662 0.000000 0.000000
# 5 0.000000 0.000000 0.000000 0.000000 0.085662 0.000000
# 6 0.000000 0.000000 0.000000 0.000000 0.000000 0.036606
#
#
# Mechanical properties :
#
#
# Convention : Reuss Voigt Hill
#
# Bulk Modulus (GPa) = 38.79764 39.03590 38.91677
# Shear Modulus (GPa) = 15.36157 17.08874 16.22516
#
# Velocity S-wave (km/s) = 2.97771 3.14065 3.06026
# Velocity P-wave (km/s) = 5.84948 5.97354 5.91183
#
# Compressibility (1/GPa) = 0.02577476
#
# Stress axis : x y z
#
# Youngs Moduli (GPa) = 43.03798 43.03798 47.84657
#
# Poissons Ratio (x) = 0.43564 0.25540
# Poissons Ratio (y) = 0.43564 0.25540
# Poissons Ratio (z) = 0.22973 0.22973
#
# Static dielectric constant tensor:
#      x y z
#    x 3.455390 0.000000 0.000000 
#    y 0.000000 3.455390 0.000000 
#    z 0.000000 0.000000 3.335130 
# 
# 
# High freq. dielectric constant tensor:
#      x y z
#    x 1.649260 0.000000 0.000000 
#    y 0.000000 1.649260 0.000000 
#    z 0.000000 0.000000 1.674410 
# 
# From -- ./inp_files/10622.got.cif
#   From: 2010.03.12/outbox.cif.g09.slc.cpg/sg132_6_cif.got.tgz:10622.got - 2010.04.06 17:53:44.
