data_PCOD8316101
_publ_section_title
;
Structure prediction by ZEFSAII (Michael W. Deem and Ramdas Pophale) SiO2 
 PCOD8316101
Probable space group: P 42/M M C
;
_chemical_formula_sum "Si O2"
_cell_formula_units_Z 58
_cell_length_a 17.392538
_cell_length_b 17.392538
_cell_length_c 8.680607
_cell_angle_alpha 90.000000
_cell_angle_beta 90.000000
_cell_angle_gamma 90.000000
_cell_volume 2625.886899
_symmetry_space_group_name_H-M "P 42/M M C"
_symmetry_group_IT_number 131
_symmetry_cell_setting 'tetragonal'
loop_
_space_group_symop_operation_xyz
x,y,z
-x,-y,z
-y,x,1/2+z
y,-x,1/2+z
-x,y,-z
x,-y,-z
y,x,1/2-z
-y,-x,1/2-z
-x,-y,-z
x,y,-z
y,-x,1/2-z
-y,x,1/2-z
x,-y,z
-x,y,z
-y,-x,1/2+z
y,x,1/2+z
loop_
_atom_site_type_symbol
_atom_site_label
_atom_site_fract_x
_atom_site_fract_y
_atom_site_fract_z
Si Si1 0.500000 0.331258 0.329564
Si Si2 0.195867 0.085585 0.169557
Si Si3 0.500000 0.500000 0.750000
Si Si4 0.639421 0.247090 0.181777
Si Si5 0.085809 0.355110 0.179679
O O1 0.500000 0.293946 0.500000
O O2 0.500000 0.423048 0.352486
O O3 0.574856 0.305804 0.236535
O O4 0.126614 0.126614 0.250000
O O5 0.265342 0.089506 0.288233
O O6 0.167271 0.000000 0.144437
O O7 0.218184 0.120417 0.000000
O O8 0.722065 0.277936 0.250000
O O9 0.611957 0.160882 0.232928
O O10 0.646096 0.249106 0.000000
O O11 0.000000 0.386124 0.234527
O O12 0.095036 0.372667 0.000000
#
# Coordination Sequence:
#
# PCOD8316101 Si02
#       5
#     8  16   2  16  16
#     4  12  26  45  71 104 141 177 221 267 322 388
#     4  10  20  33  50  74 106 146 194 250 314 382
#     4  12  26  44  80 106 146 184 214 268 318 380
#     4  12  25  42  66  97 135 175 221 271 325 390
#     4  10  21  39  63  89 120 161 211 267 326 384
#
# _framework density 22.087776999999999
#
# number of rings (size 3 to 8) (size 9 to 14) (size 15 to 20)
#    0.000    1.103    1.379    5.586    0.000    4.690 
#    0.000    2.069    0.000    4.138    0.000    0.000 
#    0.000    0.000    0.000    0.000    0.000    0.000 
#
# Total GULP energy -718604.496308 kJ/mol
# GULP energy per Si atom -12389.732695 kJ/mol
# Density = 2.203750 g / cm^3
# Si number density = 22.087777 Si / 1000 Ang^3
#
#
#
# Elastic Constant Matrix: (Units=GPa)
#
#
# Indices 1 2 3 4 5 6 
#
# 1 108.8481 35.2604 36.9562 0.0000 0.0000 0.0000
# 2 35.2604 108.8504 36.9564 0.0000 0.0000 0.0000
# 3 36.9562 36.9564 145.5432 0.0000 0.0000 0.0000
# 4 0.0000 0.0000 0.0000 28.1769 0.0000 0.0000
# 5 0.0000 0.0000 0.0000 0.0000 28.1768 0.0000
# 6 0.0000 0.0000 0.0000 0.0000 0.0000 33.0907
#
#
#
# Elastic Compliance Matrix: (Units=1/GPa)
#
#
# Indices 1 2 3 4 5 6 
#
# 1 0.010784 -0.002805 -0.002026 0.000000 0.000000 0.000000
# 2 -0.002805 0.010783 -0.002026 0.000000 0.000000 0.000000
# 3 -0.002026 -0.002026 0.007900 0.000000 0.000000 0.000000
# 4 0.000000 0.000000 0.000000 0.035490 0.000000 0.000000
# 5 0.000000 0.000000 0.000000 0.000000 0.035490 0.000000
# 6 0.000000 0.000000 0.000000 0.000000 0.000000 0.030220
#
#
# Mechanical properties :
#
#
# Convention : Reuss Voigt Hill
#
# Bulk Modulus (GPa) = 63.48119 64.62085 64.05102
# Shear Modulus (GPa) = 33.41529 34.82678 34.12103
#
# Velocity S-wave (km/s) = 3.89375 3.97513 3.93465
# Velocity P-wave (km/s) = 7.00127 7.09851 7.05006
#
# Compressibility (1/GPa) = 0.01575270
#
# Stress axis : x y z
#
# Youngs Moduli (GPa) = 92.73231 92.73436 126.58857
#
# Poissons Ratio (x) = 0.26016 0.25645
# Poissons Ratio (y) = 0.26015 0.25644
# Poissons Ratio (z) = 0.18786 0.18786
#
# Static dielectric constant tensor:
#      x y z
#    x 4.154660 0.000000 0.000000 
#    y 0.000000 4.154660 0.000000 
#    z 0.000000 0.000000 4.076630 
# 
# 
# High freq. dielectric constant tensor:
#      x y z
#    x 1.866120 0.000000 0.000000 
#    y 0.000000 1.866120 0.000000 
#    z 0.000000 0.000000 1.877680 
# 
# From -- ./inp_files/1295.got.cif
#   From: 2010.03.12/outbox.cif.g09.slc.cpg/sg131_1_cif.got.tgz:1295.got - 2010.04.06 17:36:35.
