data_PCOD8316705
_publ_section_title
;
Structure prediction by ZEFSAII (Michael W. Deem and Ramdas Pophale) SiO2 
 PCOD8316705
Probable space group: P 42/M C M
;
_chemical_formula_sum "Si O2"
_cell_formula_units_Z 96
_cell_length_a 24.079287
_cell_length_b 24.079287
_cell_length_c 8.868346
_cell_angle_alpha 90.000000
_cell_angle_beta 90.000000
_cell_angle_gamma 90.000000
_cell_volume 5141.973985
_symmetry_space_group_name_H-M "P 42/M C M"
_symmetry_group_IT_number 132
_symmetry_cell_setting 'tetragonal'
loop_
_space_group_symop_operation_xyz
x,y,z
-y,x,1/2+z
-x,-y,z
y,-x,1/2+z
x,-y,1/2-z
-x,y,1/2-z
y,x,-z
-y,-x,-z
-x,-y,-z
y,-x,1/2-z
x,y,-z
-y,x,1/2-z
-x,y,1/2+z
x,-y,1/2+z
-y,-x,z
y,x,z
loop_
_atom_site_type_symbol
_atom_site_label
_atom_site_fract_x
_atom_site_fract_y
_atom_site_fract_z
Si Si1 0.640383 0.140958 0.176411
Si Si2 0.055144 0.267731 0.324783
Si Si3 0.055817 0.143309 0.678288
Si Si4 0.440463 0.349830 0.176777
Si Si5 0.560199 0.943757 0.820426
Si Si6 0.358255 0.268727 0.676815
O O1 0.697780 0.110067 0.214188
O O2 0.593288 0.111382 0.274614
O O3 0.647550 0.204767 0.227156
O O4 0.625070 0.136438 0.000000
O O5 0.042832 0.267339 0.500000
O O6 0.065831 0.205823 0.262990
O O7 0.000000 0.293947 0.250000
O O8 0.050481 0.140809 0.500000
O O9 0.107276 0.107276 0.736893
O O10 0.000000 0.118494 0.750000
O O11 0.500000 0.358897 0.250000
O O12 0.403233 0.403233 0.217840
O O13 0.411423 0.294441 0.239800
O O14 0.447972 0.342474 0.000000
O O15 0.500000 0.936583 0.750000
O O16 0.587532 0.000000 0.750000
O O17 0.557282 0.949340 0.000000
O O18 0.369307 0.273495 0.500000
O O19 0.302044 0.302044 0.721758
#
# Coordination Sequence:
#
# PCOD8316705 Si02
#       6
#    16  16  16  16  16  16
#     4  10  20  34  54  80 106 136 177 218 258 310
#     4   9  18  32  50  72  99 130 165 208 256 305
#     4   9  18  32  49  70  97 129 165 206 253 305
#     4  10  21  37  58  83 111 143 177 215 259 306
#     4  11  22  37  56  78 107 140 174 215 264 313
#     4   9  19  36  56  78 107 142 178 218 262 307
#
# _framework density 18.669871000000001
#
# number of rings (size 3 to 8) (size 9 to 14) (size 15 to 20)
#    0.000    2.333    0.000    3.000    0.000    5.667 
#    0.000    5.000    0.000    0.000    0.000    4.667 
#    0.000    0.000    0.000    0.000    0.000    0.000 
#
# Total GULP energy -1190430.740174 kJ/mol
# GULP energy per Si atom -12400.320210 kJ/mol
# Density = 1.862738 g / cm^3
# Si number density = 18.669871 Si / 1000 Ang^3
#
#
#
# Elastic Constant Matrix: (Units=GPa)
#
#
# Indices 1 2 3 4 5 6 
#
# 1 139.9260 72.3471 51.7796 0.0000 0.0000 0.0000
# 2 72.3471 139.9260 51.7796 0.0000 0.0000 0.0000
# 3 51.7796 51.7796 70.0874 0.0000 0.0000 0.0000
# 4 0.0000 0.0000 0.0000 27.1028 0.0000 0.0000
# 5 0.0000 0.0000 0.0000 0.0000 27.1028 0.0000
# 6 0.0000 0.0000 0.0000 0.0000 0.0000 -5.5128
#
#
#
# Elastic Compliance Matrix: (Units=1/GPa)
#
#
# Indices 1 2 3 4 5 6 
#
# 1 0.011082 -0.003716 -0.005442 0.000000 0.000000 0.000000
# 2 -0.003716 0.011082 -0.005442 0.000000 0.000000 0.000000
# 3 -0.005442 -0.005442 0.022308 0.000000 0.000000 0.000000
# 4 0.000000 0.000000 0.000000 0.036897 0.000000 0.000000
# 5 0.000000 0.000000 0.000000 0.000000 0.036897 0.000000
# 6 0.000000 0.000000 0.000000 0.000000 0.000000 -0.181395
#
#
# Mechanical properties :
#
#
# Convention : Reuss Voigt Hill
#
# Bulk Modulus (GPa) = 65.47479 77.97246 71.72362
# Shear Modulus (GPa) = -173.36555 21.34077 -76.01239
#
# Velocity S-wave (km/s) = -9.64676 3.38458 -6.38767
# Velocity P-wave (km/s) = 9.43049 7.55833 3.98785
#
# Compressibility (1/GPa) = 0.01527305
#
# Stress axis : x y z
#
# Youngs Moduli (GPa) = 90.23976 90.23976 44.82634
#
# Poissons Ratio (x) = 0.33532 0.24393
# Poissons Ratio (y) = 0.33532 0.24393
# Poissons Ratio (z) = 0.49105 0.49105
#
# Static dielectric constant tensor:
#      x y z
#    x 3.612200 0.000000 0.000000 
#    y 0.000000 3.612200 0.000000 
#    z 0.000000 0.000000 3.399800 
# 
# 
# High freq. dielectric constant tensor:
#      x y z
#    x 1.727270 0.000000 0.000000 
#    y 0.000000 1.727270 0.000000 
#    z 0.000000 0.000000 1.720270 
# 
# From -- ./inp_files/1761.got.cif
#   From: 2010.03.12/outbox.cif.g09.slc.cpg/sg132_1_cif.got.tgz:1761.got - 2010.04.06 17:53:44.
