data_PCOD8316251
_publ_section_title
;
Structure prediction by ZEFSAII (Michael W. Deem and Ramdas Pophale) SiO2 
 PCOD8316251
Probable space group: P 42/M M C
;
_chemical_formula_sum "Si O2"
_cell_formula_units_Z 96
_cell_length_a 24.174476
_cell_length_b 24.174476
_cell_length_c 8.669027
_cell_angle_alpha 90.000000
_cell_angle_beta 90.000000
_cell_angle_gamma 90.000000
_cell_volume 5066.225237
_symmetry_space_group_name_H-M "P 42/M M C"
_symmetry_group_IT_number 131
_symmetry_cell_setting 'tetragonal'
loop_
_space_group_symop_operation_xyz
x,y,z
-x,-y,z
-y,x,1/2+z
y,-x,1/2+z
-x,y,-z
x,-y,-z
y,x,1/2-z
-y,-x,1/2-z
-x,-y,-z
x,y,-z
y,-x,1/2-z
-y,x,1/2-z
x,-y,z
-x,y,z
-y,-x,1/2+z
y,x,1/2+z
loop_
_atom_site_type_symbol
_atom_site_label
_atom_site_fract_x
_atom_site_fract_y
_atom_site_fract_z
Si Si1 0.438967 0.061420 0.316556
Si Si2 0.937023 0.146242 0.317514
Si Si3 0.765170 0.847967 0.818171
Si Si4 0.761603 0.562958 0.320001
Si Si5 0.563397 0.354603 0.674404
Si Si6 0.643771 0.847618 0.318223
O O1 0.438689 0.062978 0.500000
O O2 0.500000 0.079842 0.257575
O O3 0.391989 0.101423 0.250738
O O4 0.425625 0.000000 0.256166
O O5 0.908998 0.091003 0.250000
O O6 0.936510 0.140867 0.500000
O O7 0.902494 0.200588 0.264274
O O8 0.000000 0.151447 0.255469
O O9 0.793152 0.793152 0.750000
O O10 0.702765 0.850737 0.761570
O O11 0.765645 0.842666 0.000000
O O12 0.772295 0.572743 0.500000
O O13 0.778674 0.500000 0.272029
O O14 0.698061 0.573312 0.282039
O O15 0.793450 0.608923 0.221945
O O16 0.595160 0.404841 0.750000
O O17 0.583778 0.342237 0.500000
O O18 0.500000 0.372360 0.673447
O O19 0.652861 0.850929 0.500000
#
# Coordination Sequence:
#
# PCOD8316251 Si02
#       6
#    16  16  16  16  16  16
#     4   8  15  29  49  75 108 142 174 211 254 300
#     4   9  19  36  57  81 110 144 179 218 266 316
#     4  10  21  38  56  75 104 140 178 220 265 314
#     4  10  21  37  56  78 106 139 176 220 269 319
#     4  10  21  37  57  81 109 140 175 216 263 316
#     4  11  21  33  54  82 108 138 179 222 265 317
#
# _framework density 18.949019
#
# number of rings (size 3 to 8) (size 9 to 14) (size 15 to 20)
#    0.000    2.333    0.000    3.000    0.000    5.333 
#    0.000    5.000    0.000    1.500    0.000    5.833 
#    0.000    0.000    0.000    0.000    0.000    0.000 
#
# Total GULP energy -1190279.481023 kJ/mol
# GULP energy per Si atom -12398.744594 kJ/mol
# Density = 1.890589 g / cm^3
# Si number density = 18.949019 Si / 1000 Ang^3
#
#
#
# Elastic Constant Matrix: (Units=GPa)
#
#
# Indices 1 2 3 4 5 6 
#
# 1 128.9920 85.2082 27.9947 0.0000 0.0000 0.0000
# 2 85.2082 128.9866 27.9984 0.0000 0.0000 0.0000
# 3 27.9947 27.9984 48.0633 0.0000 0.0000 0.0000
# 4 0.0000 0.0000 0.0000 26.0016 0.0000 0.0000
# 5 0.0000 0.0000 0.0000 0.0000 26.0013 0.0000
# 6 0.0000 0.0000 0.0000 0.0000 0.0000 -83.3299
#
#
#
# Elastic Compliance Matrix: (Units=1/GPa)
#
#
# Indices 1 2 3 4 5 6 
#
# 1 0.014173 -0.008667 -0.003207 0.000000 0.000000 0.000000
# 2 -0.008667 0.014175 -0.003209 0.000000 0.000000 0.000000
# 3 -0.003207 -0.003209 0.024543 0.000000 0.000000 0.000000
# 4 0.000000 0.000000 0.000000 0.038459 0.000000 0.000000
# 5 0.000000 0.000000 0.000000 0.000000 0.038460 0.000000
# 6 0.000000 0.000000 0.000000 0.000000 0.000000 -0.012000
#
#
# Mechanical properties :
#
#
# Convention : Reuss Voigt Hill
#
# Bulk Modulus (GPa) = 44.00280 65.38272 54.69276
# Shear Modulus (GPa) = 32.14401 4.72397 18.43399
#
# Velocity S-wave (km/s) = 4.12314 1.58063 3.12239
# Velocity P-wave (km/s) = 6.77784 6.15716 6.47494
#
# Compressibility (1/GPa) = 0.02272583
#
# Stress axis : x y z
#
# Youngs Moduli (GPa) = 70.55458 70.54852 40.74471
#
# Poissons Ratio (x) = 0.61144 0.13065
# Poissons Ratio (y) = 0.61149 0.13075
# Poissons Ratio (z) = 0.22624 0.22640
#
# Static dielectric constant tensor:
#      x y z
#    x 3.590670 0.000000 0.000000 
#    y 0.000000 3.590670 0.000000 
#    z 0.000000 0.000000 3.369680 
# 
# 
# High freq. dielectric constant tensor:
#      x y z
#    x 1.739660 0.000000 0.000000 
#    y 0.000000 1.739660 0.000000 
#    z 0.000000 0.000000 1.728470 
# 
# From -- ./inp_files/2224.got.cif
#   From: 2010.03.12/outbox.cif.g09.slc.cpg/sg131_2_cif.got.tgz:2224.got - 2010.04.06 17:36:35.
