data_PCOD8316405
_publ_section_title
;
Structure prediction by ZEFSAII (Michael W. Deem and Ramdas Pophale) SiO2 
 PCOD8316405
Probable space group: P 42/M C M
;
_chemical_formula_sum "Si O2"
_cell_formula_units_Z 112
_cell_length_a 17.389659
_cell_length_b 17.389659
_cell_length_c 24.712192
_cell_angle_alpha 90.000000
_cell_angle_beta 90.000000
_cell_angle_gamma 90.000000
_cell_volume 7472.972795
_symmetry_space_group_name_H-M "P 42/M C M"
_symmetry_group_IT_number 132
_symmetry_cell_setting 'tetragonal'
loop_
_space_group_symop_operation_xyz
x,y,z
-y,x,1/2+z
-x,-y,z
y,-x,1/2+z
x,-y,1/2-z
-x,y,1/2-z
y,x,-z
-y,-x,-z
-x,-y,-z
y,-x,1/2-z
x,y,-z
-y,x,1/2-z
-x,y,1/2+z
x,-y,1/2+z
-y,-x,z
y,x,z
loop_
_atom_site_type_symbol
_atom_site_label
_atom_site_fract_x
_atom_site_fract_y
_atom_site_fract_z
Si Si1 0.573740 0.917324 0.277763
Si Si2 0.078137 0.199938 0.361205
Si Si3 0.093898 0.356661 0.062627
Si Si4 0.516775 0.083423 0.899324
Si Si5 0.097133 0.222093 0.137482
Si Si6 0.141510 0.264851 0.744666
Si Si7 0.913272 0.669974 0.440093
O O1 0.500000 0.877861 0.250000
O O2 0.549146 0.929443 0.339273
O O3 0.645153 0.858789 0.271529
O O4 0.592710 0.000000 0.250000
O O5 0.119535 0.119535 0.375522
O O6 0.089494 0.219184 0.298247
O O7 0.117002 0.267246 0.397491
O O8 0.988878 0.194042 0.375434
O O9 0.126310 0.434875 0.091907
O O10 0.129725 0.284840 0.095079
O O11 0.003019 0.346256 0.069614
O O12 0.119714 0.355399 0.000000
O O13 0.586122 0.126661 0.931237
O O14 0.500000 0.000000 0.925714
O O15 0.146535 0.146535 0.131179
O O16 0.101564 0.256942 0.197398
O O17 0.228073 0.228073 0.744931
O O18 0.895428 0.700934 0.500000
#
# Coordination Sequence:
#
# PCOD8316405 Si02
#       7
#    16  16  16  16  16  16  16
#     4  11  18  25  44  71  93 118 146 186 229 279
#     4  10  19  31  46  61  84 115 151 199 241 275
#     4   9  18  30  44  62  86 113 141 179 227 278
#     4  10  16  26  41  67  88 108 136 172 220 276
#     4  10  20  32  46  62  83 115 158 201 236 272
#     4  10  20  32  45  64  92 123 153 186 230 284
#     4   9  17  28  42  60  83 110 140 175 219 273
#
# _framework density 14.987341000000001
#
# number of rings (size 3 to 8) (size 9 to 14) (size 15 to 20)
#    0.000    2.143    2.857    2.571    2.000    2.571 
#    0.000    0.000    0.000    2.571    0.000    4.000 
#    0.000    0.286    0.000    0.000    0.000    0.857 
#
# Total GULP energy -1387736.576760 kJ/mol
# GULP energy per Si atom -12390.505150 kJ/mol
# Density = 1.495323 g / cm^3
# Si number density = 14.987341 Si / 1000 Ang^3
#
#
#
# Elastic Constant Matrix: (Units=GPa)
#
#
# Indices 1 2 3 4 5 6 
#
# 1 73.1198 36.6463 28.3556 0.0000 0.0000 0.0000
# 2 36.6463 73.1198 28.3556 0.0000 0.0000 0.0000
# 3 28.3556 28.3556 96.4421 0.0000 0.0000 0.0000
# 4 0.0000 0.0000 0.0000 14.4209 0.0000 0.0000
# 5 0.0000 0.0000 0.0000 0.0000 14.4209 0.0000
# 6 0.0000 0.0000 0.0000 0.0000 0.0000 7.3547
#
#
#
# Elastic Compliance Matrix: (Units=1/GPa)
#
#
# Indices 1 2 3 4 5 6 
#
# 1 0.019080 -0.008338 -0.003158 0.000000 0.000000 0.000000
# 2 -0.008338 0.019080 -0.003158 0.000000 0.000000 0.000000
# 3 -0.003158 -0.003158 0.012226 0.000000 0.000000 0.000000
# 4 0.000000 0.000000 0.000000 0.069344 0.000000 0.000000
# 5 0.000000 0.000000 0.000000 0.000000 0.069344 0.000000
# 6 0.000000 0.000000 0.000000 0.000000 0.000000 0.135967
#
#
# Mechanical properties :
#
#
# Convention : Reuss Voigt Hill
#
# Bulk Modulus (GPa) = 47.44539 47.71073 47.57806
# Shear Modulus (GPa) = 13.83605 17.19423 15.51514
#
# Velocity S-wave (km/s) = 3.04169 3.39078 3.22097
# Velocity P-wave (km/s) = 6.63789 6.87263 6.75628
#
# Compressibility (1/GPa) = 0.02107686
#
# Stress axis : x y z
#
# Youngs Moduli (GPa) = 52.41191 52.41191 81.79201
#
# Poissons Ratio (x) = 0.43699 0.25833
# Poissons Ratio (y) = 0.43699 0.25833
# Poissons Ratio (z) = 0.16554 0.16554
#
# Static dielectric constant tensor:
#      x y z
#    x 2.805250 0.000000 0.000000 
#    y 0.000000 2.805250 0.000000 
#    z 0.000000 0.000000 3.062440 
# 
# 
# High freq. dielectric constant tensor:
#      x y z
#    x 1.540270 0.000000 0.000000 
#    y 0.000000 1.540270 0.000000 
#    z 0.000000 0.000000 1.593060 
# 
# From -- ./inp_files/9267.got.cif
#   From: 2010.03.12/outbox.cif.g09.slc.cpg/sg132_5_cif.got.tgz:9267.got - 2010.04.06 17:53:44.
