data_PCOD8316354
_publ_section_title
;
Structure prediction by ZEFSAII (Michael W. Deem and Ramdas Pophale) SiO2 
 PCOD8316354
Probable space group: P 42/M M C
;
_chemical_formula_sum "Si O2"
_cell_formula_units_Z 40
_cell_length_a 8.139908
_cell_length_b 8.139908
_cell_length_c 28.642408
_cell_angle_alpha 90.000000
_cell_angle_beta 90.000000
_cell_angle_gamma 90.000000
_cell_volume 1897.791598
_symmetry_space_group_name_H-M "P 42/M M C"
_symmetry_group_IT_number 131
_symmetry_cell_setting 'tetragonal'
loop_
_space_group_symop_operation_xyz
x,y,z
-x,-y,z
-y,x,1/2+z
y,-x,1/2+z
-x,y,-z
x,-y,-z
y,x,1/2-z
-y,-x,1/2-z
-x,-y,-z
x,y,-z
y,-x,1/2-z
-y,x,1/2-z
x,-y,z
-x,y,z
-y,-x,1/2+z
y,x,1/2+z
loop_
_atom_site_type_symbol
_atom_site_label
_atom_site_fract_x
_atom_site_fract_y
_atom_site_fract_z
Si Si1 0.310212 0.500000 0.551078
Si Si2 0.312476 0.693799 0.802164
Si Si3 0.189321 0.818012 0.394991
O O1 0.500000 0.500000 0.542424
O O2 0.221896 0.500000 0.500000
O O3 0.272894 0.332729 0.578552
O O4 0.255939 0.744062 0.750000
O O5 0.295494 0.500000 0.809107
O O6 0.500000 0.748570 0.810403
O O7 0.199086 0.785366 0.839439
O O8 0.000000 0.809241 0.407473
O O9 0.257143 0.000000 0.409880
#
# Coordination Sequence:
#
# PCOD8316354 Si02
#       3
#     8  16  16
#     4  11  25  45  69  93 119 157 209 267 319 374
#     4   9  18  34  58  88 123 165 210 254 305 367
#     4  11  24  40  61  92 129 165 203 254 314 380
#
# _framework density 21.07713
#
# number of rings (size 3 to 8) (size 9 to 14) (size 15 to 20)
#    0.000    1.800    2.000    3.000    0.000    7.200 
#    0.000   10.000    0.000    0.000    0.000    0.000 
#    0.000    0.000    0.000    0.000    0.000    0.000 
#
# Total GULP energy -495756.465867 kJ/mol
# GULP energy per Si atom -12393.911647 kJ/mol
# Density = 2.102916 g / cm^3
# Si number density = 21.077130 Si / 1000 Ang^3
#
#
#
# Elastic Constant Matrix: (Units=GPa)
#
#
# Indices 1 2 3 4 5 6 
#
# 1 100.8834 37.7986 45.5448 0.0000 0.0000 0.0000
# 2 37.7986 100.8831 45.5447 0.0000 0.0000 0.0000
# 3 45.5448 45.5447 130.1831 0.0000 0.0000 0.0000
# 4 0.0000 0.0000 0.0000 -1.5362 0.0000 0.0000
# 5 0.0000 0.0000 0.0000 0.0000 -1.5361 0.0000
# 6 0.0000 0.0000 0.0000 0.0000 0.0000 24.6069
#
#
#
# Elastic Compliance Matrix: (Units=1/GPa)
#
#
# Indices 1 2 3 4 5 6 
#
# 1 0.012607 -0.003245 -0.003275 0.000000 0.000000 0.000000
# 2 -0.003245 0.012607 -0.003275 0.000000 0.000000 0.000000
# 3 -0.003275 -0.003275 0.009973 0.000000 0.000000 0.000000
# 4 0.000000 0.000000 0.000000 -0.650955 0.000000 0.000000
# 5 0.000000 0.000000 0.000000 0.000000 -0.651006 0.000000
# 6 0.000000 0.000000 0.000000 0.000000 0.000000 0.040639
#
#
# Mechanical properties :
#
#
# Convention : Reuss Voigt Hill
#
# Bulk Modulus (GPa) = 64.11881 65.52510 64.82196
# Shear Modulus (GPa) = -4.16200 17.84434 6.84117
#
# Velocity S-wave (km/s) = -1.40675 2.91283 1.80356
# Velocity P-wave (km/s) = 5.27717 6.51679 5.92946
#
# Compressibility (1/GPa) = 0.01559605
#
# Stress axis : x y z
#
# Youngs Moduli (GPa) = 79.32174 79.32158 100.26815
#
# Poissons Ratio (x) = 0.25738 0.32841
# Poissons Ratio (y) = 0.25739 0.32841
# Poissons Ratio (z) = 0.25981 0.25980
#
# Static dielectric constant tensor:
#      x y z
#    x 3.851270 0.000000 0.000000 
#    y 0.000000 3.851270 0.000000 
#    z 0.000000 0.000000 4.053100 
# 
# 
# High freq. dielectric constant tensor:
#      x y z
#    x 1.820350 0.000000 0.000000 
#    y 0.000000 1.820350 0.000000 
#    z 0.000000 0.000000 1.828740 
# 
# From -- ./inp_files/11702.got.cif
#   From: 2010.03.12/outbox.cif.g09.slc.cpg/sg131_6_cif.got.tgz:11702.got - 2010.04.06 17:36:35.
