data_PCOD8316345
_publ_section_title
;
Structure prediction by ZEFSAII (Michael W. Deem and Ramdas Pophale) SiO2 
 PCOD8316345
Probable space group: P 42/M M C
;
_chemical_formula_sum "Si O2"
_cell_formula_units_Z 96
_cell_length_a 23.662551
_cell_length_b 23.662551
_cell_length_c 8.736458
_cell_angle_alpha 90.000000
_cell_angle_beta 90.000000
_cell_angle_gamma 90.000000
_cell_volume 4891.685412
_symmetry_space_group_name_H-M "P 42/M M C"
_symmetry_group_IT_number 131
_symmetry_cell_setting 'tetragonal'
loop_
_space_group_symop_operation_xyz
x,y,z
-x,-y,z
-y,x,1/2+z
y,-x,1/2+z
-x,y,-z
x,-y,-z
y,x,1/2-z
-y,-x,1/2-z
-x,-y,-z
x,y,-z
y,-x,1/2-z
-y,x,1/2-z
x,-y,z
-x,y,z
-y,-x,1/2+z
y,x,1/2+z
loop_
_atom_site_type_symbol
_atom_site_label
_atom_site_fract_x
_atom_site_fract_y
_atom_site_fract_z
Si Si1 0.062924 0.715374 0.672881
Si Si2 0.062023 0.581868 0.330426
Si Si3 0.351037 0.434043 0.818167
Si Si4 0.248450 0.637126 0.676644
Si Si5 0.739927 0.819193 0.319758
Si Si6 0.168532 0.438415 0.166587
O O1 0.073508 0.737295 0.500000
O O2 0.063339 0.648692 0.675831
O O3 0.114583 0.734525 0.779651
O O4 0.000000 0.736423 0.728873
O O5 0.079714 0.561322 0.500000
O O6 0.102622 0.555677 0.203138
O O7 0.000000 0.559151 0.290825
O O8 0.410126 0.410126 0.750000
O O9 0.342826 0.500000 0.766049
O O10 0.301541 0.391809 0.761105
O O11 0.352882 0.430648 0.000000
O O12 0.263675 0.647193 0.500000
O O13 0.225275 0.694423 0.750961
O O14 0.196428 0.594392 0.693485
O O15 0.799903 0.799903 0.250000
O O16 0.738509 0.812626 0.500000
O O17 0.196470 0.500000 0.155530
O O18 0.176845 0.408201 0.000000
#
# Coordination Sequence:
#
# PCOD8316345 Si02
#       6
#    16  16  16  16  16  16
#     4   9  18  35  58  84 116 153 193 239 290 342
#     4   9  18  33  53  75 102 140 186 234 284 338
#     4  11  25  45  68  93 120 148 182 227 281 345
#     4  12  24  40  61  85 115 150 190 234 286 344
#     4  12  24  38  59  88 122 157 197 241 288 341
#     4  11  23  36  51  75 107 143 187 238 288 339
#
# _framework density 19.625139000000001
#
# number of rings (size 3 to 8) (size 9 to 14) (size 15 to 20)
#    0.000    1.333    1.667    6.000    0.000    5.833 
#    0.000    4.167    0.000    0.000    0.000    0.000 
#    0.000    0.333    0.000    3.500    0.000    1.500 
#
# Total GULP energy -1189418.585342 kJ/mol
# GULP energy per Si atom -12389.776931 kJ/mol
# Density = 1.958047 g / cm^3
# Si number density = 19.625139 Si / 1000 Ang^3
#
#
#
# Elastic Constant Matrix: (Units=GPa)
#
#
# Indices 1 2 3 4 5 6 
#
# 1 83.2527 56.8773 41.1938 0.0000 0.0000 0.0000
# 2 56.8773 83.2527 41.1938 0.0000 0.0000 0.0000
# 3 41.1938 41.1938 119.4063 0.0000 0.0000 0.0000
# 4 0.0000 0.0000 0.0000 34.3928 0.0000 0.0000
# 5 0.0000 0.0000 0.0000 0.0000 34.3928 0.0000
# 6 0.0000 0.0000 0.0000 0.0000 0.0000 24.2540
#
#
#
# Elastic Compliance Matrix: (Units=1/GPa)
#
#
# Indices 1 2 3 4 5 6 
#
# 1 0.023433 -0.014481 -0.003088 0.000000 0.000000 0.000000
# 2 -0.014481 0.023433 -0.003088 0.000000 0.000000 0.000000
# 3 -0.003088 -0.003088 0.010506 0.000000 0.000000 0.000000
# 4 0.000000 0.000000 0.000000 0.029076 0.000000 0.000000
# 5 0.000000 0.000000 0.000000 0.000000 0.029076 0.000000
# 6 0.000000 0.000000 0.000000 0.000000 0.000000 0.041230
#
#
# Mechanical properties :
#
#
# Convention : Reuss Voigt Hill
#
# Bulk Modulus (GPa) = 62.28096 62.71575 62.49835
# Shear Modulus (GPa) = 24.57955 28.38438 26.48197
#
# Velocity S-wave (km/s) = 3.54284 3.80719 3.67739
# Velocity P-wave (km/s) = 6.96705 7.16606 7.06726
#
# Compressibility (1/GPa) = 0.01605627
#
# Stress axis : x y z
#
# Youngs Moduli (GPa) = 42.67482 42.67482 95.18688
#
# Poissons Ratio (x) = 0.61798 0.29397
# Poissons Ratio (y) = 0.61798 0.29397
# Poissons Ratio (z) = 0.13179 0.13179
#
# Static dielectric constant tensor:
#      x y z
#    x 3.865300 0.000000 0.000000 
#    y 0.000000 3.865300 0.000000 
#    z 0.000000 0.000000 3.641600 
# 
# 
# High freq. dielectric constant tensor:
#      x y z
#    x 1.754560 0.000000 0.000000 
#    y 0.000000 1.754560 0.000000 
#    z 0.000000 0.000000 1.767870 
# 
# From -- ./inp_files/2226.got.cif
#   From: 2010.03.12/outbox.cif.g09.slc.cpg/sg131_2_cif.got.tgz:2226.got - 2010.04.06 17:36:35.
