data_PCOD8316973
_publ_section_title
;
Structure prediction by ZEFSAII (Michael W. Deem and Ramdas Pophale) SiO2 
 PCOD8316973
Probable space group: P 42/N B C
;
_chemical_formula_sum "Si O2"
_cell_formula_units_Z 64
_cell_length_a 13.369766
_cell_length_b 13.369766
_cell_length_c 16.352941
_cell_angle_alpha 90.000000
_cell_angle_beta 90.000000
_cell_angle_gamma 90.000000
_cell_volume 2923.098717
_symmetry_space_group_name_H-M "P 42/N B C"
_symmetry_group_IT_number 133
_space_group.IT_coordinate_system_code '2'
_symmetry_cell_setting 'tetragonal'
loop_
_space_group_symop_operation_xyz
x,y,z
1/2-y,x,1/2+z
1/2-x,1/2-y,z
y,1/2-x,1/2+z
x,1/2-y,-z
1/2-x,y,-z
y,x,1/2-z
1/2-y,1/2-x,1/2-z
-x,-y,-z
1/2+y,-x,1/2-z
1/2+x,1/2+y,-z
-y,1/2+x,1/2-z
-x,1/2+y,z
1/2+x,-y,z
-y,-x,1/2+z
1/2+y,1/2+x,1/2+z
loop_
_atom_site_type_symbol
_atom_site_label
_atom_site_fract_x
_atom_site_fract_y
_atom_site_fract_z
Si Si1 0.338246 0.498383 0.112162
Si Si2 0.873848 0.460682 0.928675
Si Si3 0.036619 0.195414 0.086558
Si Si4 0.487103 0.106584 0.171318
O O1 0.220448 0.513644 0.131115
O O2 0.374014 0.382088 0.109950
O O3 0.397875 0.567564 0.177726
O O4 0.348057 0.544658 0.022687
O O5 0.951147 0.550620 0.911790
O O6 0.928085 0.356446 0.908698
O O7 0.029674 0.276087 0.159382
O O8 0.058042 0.250000 0.000000
O O9 0.426182 0.073819 0.250000
#
# Coordination Sequence:
#
# PCOD8316973 Si02
#       4
#    16  16  16  16
#     4  10  21  39  63  92 129 167 220 274 327 392
#     4  10  21  38  62  95 123 167 228 263 326 394
#     4  11  19  39  65  90 126 171 219 276 328 395
#     4  11  23  39  60  92 131 172 210 272 340 389
#
# _framework density 21.894573000000001
#
# number of rings (size 3 to 8) (size 9 to 14) (size 15 to 20)
#    0.000    1.500    5.000    1.500    0.000    6.000 
#    0.000    1.250    0.000    6.000    0.000    0.000 
#    0.000    0.000    0.000    0.000    0.000    0.000 
#
# Total GULP energy -793131.208380 kJ/mol
# GULP energy per Si atom -12392.675131 kJ/mol
# Density = 2.184474 g / cm^3
# Si number density = 21.894573 Si / 1000 Ang^3
#
#
#
# Elastic Constant Matrix: (Units=GPa)
#
#
# Indices 1 2 3 4 5 6 
#
# 1 118.4408 38.8400 18.7558 0.0000 0.0000 0.0000
# 2 38.8400 118.4400 18.7563 0.0000 0.0000 0.0000
# 3 18.7558 18.7563 34.7482 0.0000 0.0000 0.0000
# 4 0.0000 0.0000 0.0000 30.5727 0.0000 0.0000
# 5 0.0000 0.0000 0.0000 0.0000 30.5731 0.0000
# 6 0.0000 0.0000 0.0000 0.0000 0.0000 20.3112
#
#
#
# Elastic Compliance Matrix: (Units=1/GPa)
#
#
# Indices 1 2 3 4 5 6 
#
# 1 0.009930 -0.002633 -0.003939 0.000000 0.000000 0.000000
# 2 -0.002633 0.009930 -0.003939 0.000000 0.000000 0.000000
# 3 -0.003939 -0.003939 0.033031 0.000000 0.000000 0.000000
# 4 0.000000 0.000000 0.000000 0.032709 0.000000 0.000000
# 5 0.000000 0.000000 0.000000 0.000000 0.032708 0.000000
# 6 0.000000 0.000000 0.000000 0.000000 0.000000 0.049234
#
#
# Mechanical properties :
#
#
# Convention : Reuss Voigt Hill
#
# Bulk Modulus (GPa) = 31.37761 47.14814 39.26287
# Shear Modulus (GPa) = 25.10207 29.30988 27.20598
#
# Velocity S-wave (km/s) = 3.38967 3.66277 3.52886
# Velocity P-wave (km/s) = 5.44813 6.28242 5.88009
#
# Compressibility (1/GPa) = 0.03186986
#
# Stress axis : x y z
#
# Youngs Moduli (GPa) = 100.70408 100.70286 30.27483
#
# Poissons Ratio (x) = 0.26511 0.11925
# Poissons Ratio (y) = 0.26511 0.11926
# Poissons Ratio (z) = 0.39666 0.39668
#
# Static dielectric constant tensor:
#      x y z
#    x 4.386430 0.000000 0.000000 
#    y 0.000000 4.386440 0.000000 
#    z 0.000000 0.000000 3.614390 
# 
# 
# High freq. dielectric constant tensor:
#      x y z
#    x 1.861940 0.000000 0.000000 
#    y 0.000000 1.861940 0.000000 
#    z 0.000000 0.000000 1.842850 
# 
# From -- ./inp_files/4162.got.cif
#   From: 2010.03.12/outbox.cif.g09.slc.cpg/sg133_3_cif.got.tgz:4162.got - 2010.04.06 18:08:06.
