data_PCOD8316221
_publ_section_title
;
Structure prediction by ZEFSAII (Michael W. Deem and Ramdas Pophale) SiO2 
 PCOD8316221
Probable space group: P 42/M M C
;
_chemical_formula_sum "Si O2"
_cell_formula_units_Z 56
_cell_length_a 12.930512
_cell_length_b 12.930512
_cell_length_c 18.023047
_cell_angle_alpha 90.000000
_cell_angle_beta 90.000000
_cell_angle_gamma 90.000000
_cell_volume 3013.419946
_symmetry_space_group_name_H-M "P 42/M M C"
_symmetry_group_IT_number 131
_symmetry_cell_setting 'tetragonal'
loop_
_space_group_symop_operation_xyz
x,y,z
-x,-y,z
-y,x,1/2+z
y,-x,1/2+z
-x,y,-z
x,-y,-z
y,x,1/2-z
-y,-x,1/2-z
-x,-y,-z
x,y,-z
y,-x,1/2-z
-y,x,1/2-z
x,-y,z
-x,y,z
-y,-x,1/2+z
y,x,1/2+z
loop_
_atom_site_type_symbol
_atom_site_label
_atom_site_fract_x
_atom_site_fract_y
_atom_site_fract_z
Si Si1 0.806794 0.882128 0.676582
Si Si2 0.620349 0.188839 0.586131
Si Si3 0.000000 0.877372 0.418033
Si Si4 0.621630 0.387637 0.669127
O O1 0.810658 0.810658 0.750000
O O2 0.695072 0.881208 0.636316
O O3 0.895861 0.838983 0.622275
O O4 0.830610 0.000000 0.700190
O O5 0.641388 0.166323 0.500000
O O6 0.500000 0.165606 0.605885
O O7 0.650706 0.307627 0.604266
O O8 0.000000 0.828139 0.500000
O O9 0.000000 0.000000 0.423104
O O10 0.656453 0.343547 0.750000
O O11 0.672656 0.500000 0.651311
O O12 0.500000 0.402007 0.673458
#
# Coordination Sequence:
#
# PCOD8316221 Si02
#       4
#    16  16   8  16
#     4  11  21  36  57  79 105 137 181 231 276 324
#     4  10  21  34  50  79 116 149 182 220 271 337
#     4   9  18  32  54  80 103 130 169 225 282 326
#     4   8  14  27  48  73 103 140 183 229 270 313
#
# _framework density 18.583538000000001
#
# number of rings (size 3 to 8) (size 9 to 14) (size 15 to 20)
#    0.000    2.429    1.429    2.571    0.000    2.857 
#    0.000    4.286    0.000    0.000    0.000    0.000 
#    0.000    4.571    0.000    0.000    0.000    0.000 
#
# Total GULP energy -694008.366615 kJ/mol
# GULP energy per Si atom -12393.006547 kJ/mol
# Density = 1.854124 g / cm^3
# Si number density = 18.583538 Si / 1000 Ang^3
#
#
#
# Elastic Constant Matrix: (Units=GPa)
#
#
# Indices 1 2 3 4 5 6 
#
# 1 71.8135 19.1975 39.1001 0.0000 0.0000 0.0000
# 2 19.1975 71.8135 39.1001 0.0000 0.0000 0.0000
# 3 39.1001 39.1001 124.4540 0.0000 0.0000 0.0000
# 4 0.0000 0.0000 0.0000 26.3515 0.0000 0.0000
# 5 0.0000 0.0000 0.0000 0.0000 26.3514 0.0000
# 6 0.0000 0.0000 0.0000 0.0000 0.0000 21.1408
#
#
#
# Elastic Compliance Matrix: (Units=1/GPa)
#
#
# Indices 1 2 3 4 5 6 
#
# 1 0.017028 -0.001978 -0.004729 0.000000 0.000000 0.000000
# 2 -0.001978 0.017028 -0.004728 0.000000 0.000000 0.000000
# 3 -0.004729 -0.004728 0.011006 0.000000 0.000000 0.000000
# 4 0.000000 0.000000 0.000000 0.037949 0.000000 0.000000
# 5 0.000000 0.000000 0.000000 0.000000 0.037949 0.000000
# 6 0.000000 0.000000 0.000000 0.000000 0.000000 0.047302
#
#
# Mechanical properties :
#
#
# Convention : Reuss Voigt Hill
#
# Bulk Modulus (GPa) = 45.05836 51.43071 48.24454
# Shear Modulus (GPa) = 25.18534 26.14764 25.66649
#
# Velocity S-wave (km/s) = 3.68537 3.75511 3.72040
# Velocity P-wave (km/s) = 6.51216 6.82178 6.66877
#
# Compressibility (1/GPa) = 0.02219344
#
# Stress axis : x y z
#
# Youngs Moduli (GPa) = 58.72639 58.72650 90.85766
#
# Poissons Ratio (x) = 0.11613 0.42962
# Poissons Ratio (y) = 0.11613 0.42962
# Poissons Ratio (z) = 0.27769 0.27769
#
# Static dielectric constant tensor:
#      x y z
#    x 3.315880 0.000000 0.000000 
#    y 0.000000 3.315870 0.000000 
#    z 0.000000 0.000000 3.540360 
# 
# 
# High freq. dielectric constant tensor:
#      x y z
#    x 1.699160 0.000000 0.000000 
#    y 0.000000 1.699160 0.000000 
#    z 0.000000 0.000000 1.724400 
# 
# From -- ./inp_files/7178.got.cif
#   From: 2010.03.12/outbox.cif.g09.slc.cpg/sg131_4_cif.got.tgz:7178.got - 2010.04.06 17:36:35.
