data_PCOD8316839
_publ_section_title
;
Structure prediction by ZEFSAII (Michael W. Deem and Ramdas Pophale) SiO2 
 PCOD8316839
Probable space group: P 42/M C M
;
_chemical_formula_sum "Si O2"
_cell_formula_units_Z 48
_cell_length_a 12.801775
_cell_length_b 12.801775
_cell_length_c 14.936666
_cell_angle_alpha 90.000000
_cell_angle_beta 90.000000
_cell_angle_gamma 90.000000
_cell_volume 2447.902127
_symmetry_space_group_name_H-M "P 42/M C M"
_symmetry_group_IT_number 132
_symmetry_cell_setting 'tetragonal'
loop_
_space_group_symop_operation_xyz
x,y,z
-y,x,1/2+z
-x,-y,z
y,-x,1/2+z
x,-y,1/2-z
-x,y,1/2-z
y,x,-z
-y,-x,-z
-x,-y,-z
y,-x,1/2-z
x,y,-z
-y,x,1/2-z
-x,y,1/2+z
x,-y,1/2+z
-y,-x,z
y,x,z
loop_
_atom_site_type_symbol
_atom_site_label
_atom_site_fract_x
_atom_site_fract_y
_atom_site_fract_z
Si Si1 0.476937 0.119892 0.648217
Si Si2 0.036706 0.204958 0.000000
Si Si3 0.617985 0.792809 0.000000
Si Si4 0.084136 0.249538 0.672956
O O1 0.500000 0.146169 0.750000
O O2 0.544075 0.199298 0.587369
O O3 0.353810 0.139809 0.636050
O O4 0.500000 0.000000 0.621648
O O5 0.968776 0.196247 0.911315
O O6 0.101769 0.101769 0.000000
O O7 0.107626 0.307487 0.000000
O O8 0.684366 0.684366 0.000000
O O9 0.170873 0.170873 0.713365
O O10 0.000000 0.277760 0.750000
#
# Coordination Sequence:
#
# PCOD8316839 Si02
#       4
#    16   8   8  16
#     4  11  20  39  63  87 123 165 211 264 310 367
#     4  11  22  36  54  82 121 162 199 243 308 370
#     4  11  22  38  67  97 123 163 219 272 321 374
#     4  12  24  38  59  88 122 164 205 249 310 381
#
# _framework density 19.608626999999998
#
# number of rings (size 3 to 8) (size 9 to 14) (size 15 to 20)
#    0.000    0.667    6.667    3.000    0.000    7.000 
#    0.000    0.000    0.000    2.000    0.000    2.333 
#    0.000    0.000    0.000    0.000    0.000    0.000 
#
# Total GULP energy -595228.224941 kJ/mol
# GULP energy per Si atom -12400.588020 kJ/mol
# Density = 1.956400 g / cm^3
# Si number density = 19.608627 Si / 1000 Ang^3
#
#
#
# Elastic Constant Matrix: (Units=GPa)
#
#
# Indices 1 2 3 4 5 6 
#
# 1 107.1174 65.7239 40.8783 0.0000 0.0000 0.0000
# 2 65.7239 107.1174 40.8783 0.0000 0.0000 0.0000
# 3 40.8783 40.8783 117.7710 0.0000 0.0000 0.0000
# 4 0.0000 0.0000 0.0000 32.0450 0.0000 0.0000
# 5 0.0000 0.0000 0.0000 0.0000 32.0450 0.0000
# 6 0.0000 0.0000 0.0000 0.0000 0.0000 32.0439
#
#
#
# Elastic Compliance Matrix: (Units=1/GPa)
#
#
# Indices 1 2 3 4 5 6 
#
# 1 0.015540 -0.008618 -0.002403 0.000000 0.000000 0.000000
# 2 -0.008618 0.015540 -0.002403 0.000000 0.000000 0.000000
# 3 -0.002403 -0.002403 0.010159 0.000000 0.000000 0.000000
# 4 0.000000 0.000000 0.000000 0.031206 0.000000 0.000000
# 5 0.000000 0.000000 0.000000 0.000000 0.031206 0.000000
# 6 0.000000 0.000000 0.000000 0.000000 0.000000 0.031207
#
#
# Mechanical properties :
#
#
# Convention : Reuss Voigt Hill
#
# Bulk Modulus (GPa) = 69.48021 69.66300 69.57160
# Shear Modulus (GPa) = 30.02938 31.52844 30.77891
#
# Velocity S-wave (km/s) = 3.91760 4.01420 3.96619
# Velocity P-wave (km/s) = 7.48157 7.55572 7.51874
#
# Compressibility (1/GPa) = 0.01439259
#
# Stress axis : x y z
#
# Youngs Moduli (GPa) = 64.34884 64.34884 98.43494
#
# Poissons Ratio (x) = 0.55457 0.23651
# Poissons Ratio (y) = 0.55457 0.23651
# Poissons Ratio (z) = 0.15461 0.15461
#
# Static dielectric constant tensor:
#      x y z
#    x 3.568090 0.000000 0.000000 
#    y 0.000000 3.568090 0.000000 
#    z 0.000000 0.000000 3.549370 
# 
# 
# High freq. dielectric constant tensor:
#      x y z
#    x 1.749230 0.000000 0.000000 
#    y 0.000000 1.749230 0.000000 
#    z 0.000000 0.000000 1.778400 
# 
# From -- ./inp_files/5745.got.cif
#   From: 2010.03.12/outbox.cif.g09.slc.cpg/sg132_3_cif.got.tgz:5745.got - 2010.04.06 17:53:44.
