data_PCOD8316604
_publ_section_title
;
Structure prediction by ZEFSAII (Michael W. Deem and Ramdas Pophale) SiO2 
 PCOD8316604
Probable space group: P 42/M C M
;
_chemical_formula_sum "Si O2"
_cell_formula_units_Z 112
_cell_length_a 14.280891
_cell_length_b 14.280891
_cell_length_c 28.590238
_cell_angle_alpha 90.000000
_cell_angle_beta 90.000000
_cell_angle_gamma 90.000000
_cell_volume 5830.803146
_symmetry_space_group_name_H-M "P 42/M C M"
_symmetry_group_IT_number 132
_symmetry_cell_setting 'tetragonal'
loop_
_space_group_symop_operation_xyz
x,y,z
-y,x,1/2+z
-x,-y,z
y,-x,1/2+z
x,-y,1/2-z
-x,y,1/2-z
y,x,-z
-y,-x,-z
-x,-y,-z
y,-x,1/2-z
x,y,-z
-y,x,1/2-z
-x,y,1/2+z
x,-y,1/2+z
-y,-x,z
y,x,z
loop_
_atom_site_type_symbol
_atom_site_label
_atom_site_fract_x
_atom_site_fract_y
_atom_site_fract_z
Si Si1 0.463205 0.314824 0.798745
Si Si2 0.405616 0.742403 0.122190
Si Si3 0.056107 0.788508 0.353496
Si Si4 0.715962 0.867789 0.322861
Si Si5 0.270405 0.422439 0.053978
Si Si6 0.725893 0.881522 0.050470
Si Si7 0.321522 0.833780 0.278006
O O1 0.500000 0.355253 0.750000
O O2 0.385492 0.385492 0.819585
O O3 0.549989 0.308672 0.833196
O O4 0.421127 0.210416 0.791509
O O5 0.320635 0.679366 0.102947
O O6 0.366338 0.845342 0.138882
O O7 0.482101 0.745633 0.081619
O O8 0.111200 0.888801 0.348585
O O9 0.051072 0.752977 0.406973
O O10 0.102328 0.709748 0.321179
O O11 0.948228 0.790350 0.337808
O O12 0.771755 0.771755 0.318981
O O13 0.672969 0.890699 0.271284
O O14 0.357661 0.357661 0.072235
O O15 0.171977 0.370136 0.061158
O O16 0.288228 0.446810 0.000000
O O17 0.803908 0.803908 0.045612
O O18 0.719544 0.935522 0.000000
O O19 0.249117 0.750884 0.270924
#
# Coordination Sequence:
#
# PCOD8316604 Si02
#       7
#    16  16  16  16  16  16  16
#     4  11  20  32  51  74 102 140 182 217 250 300
#     4  11  22  35  50  71 106 148 180 217 268 313
#     4  10  19  33  59  84  99 130 176 218 264 327
#     4  10  21  37  52  72 108 144 172 214 273 325
#     4   9  18  34  56  79 104 137 179 226 267 306
#     4   8  15  31  55  82 108 132 164 211 268 321
#     4   9  18  34  53  74 105 140 173 214 267 319
#
# _framework density 19.20833
#
# number of rings (size 3 to 8) (size 9 to 14) (size 15 to 20)
#    0.000    2.286    1.429    3.000    0.000    4.714 
#    0.000    4.286    0.000    5.571    0.000    2.000 
#    0.000    0.000    0.000    0.000    0.000    0.000 
#
# Total GULP energy -1387631.313750 kJ/mol
# GULP energy per Si atom -12389.565301 kJ/mol
# Density = 1.916461 g / cm^3
# Si number density = 19.208330 Si / 1000 Ang^3
#
#
#
# Elastic Constant Matrix: (Units=GPa)
#
#
# Indices 1 2 3 4 5 6 
#
# 1 46.5282 19.7273 15.0087 0.0000 0.0000 0.0000
# 2 19.7273 46.5282 15.0087 0.0000 0.0000 0.0000
# 3 15.0087 15.0087 81.1984 0.0000 0.0000 0.0000
# 4 0.0000 0.0000 0.0000 30.0266 0.0000 0.0000
# 5 0.0000 0.0000 0.0000 0.0000 30.0266 0.0000
# 6 0.0000 0.0000 0.0000 0.0000 0.0000 23.5791
#
#
#
# Elastic Compliance Matrix: (Units=1/GPa)
#
#
# Indices 1 2 3 4 5 6 
#
# 1 0.026892 -0.010420 -0.003045 0.000000 0.000000 0.000000
# 2 -0.010420 0.026892 -0.003045 0.000000 0.000000 0.000000
# 3 -0.003045 -0.003045 0.013441 0.000000 0.000000 0.000000
# 4 0.000000 0.000000 0.000000 0.033304 0.000000 0.000000
# 5 0.000000 0.000000 0.000000 0.000000 0.033304 0.000000
# 6 0.000000 0.000000 0.000000 0.000000 0.000000 0.042410
#
#
# Mechanical properties :
#
#
# Convention : Reuss Voigt Hill
#
# Bulk Modulus (GPa) = 29.23373 30.41602 29.82487
# Shear Modulus (GPa) = 22.65877 25.02713 23.84295
#
# Velocity S-wave (km/s) = 3.43830 3.61353 3.52701
# Velocity P-wave (km/s) = 5.56910 5.76882 5.66984
#
# Compressibility (1/GPa) = 0.03420707
#
# Stress axis : x y z
#
# Youngs Moduli (GPa) = 37.18522 37.18522 74.39857
#
# Poissons Ratio (x) = 0.38746 0.22653
# Poissons Ratio (y) = 0.38746 0.22653
# Poissons Ratio (z) = 0.11322 0.11322
#
# Static dielectric constant tensor:
#      x y z
#    x 3.338080 0.000000 0.000000 
#    y 0.000000 3.338080 0.000000 
#    z 0.000000 0.000000 3.320440 
# 
# 
# High freq. dielectric constant tensor:
#      x y z
#    x 1.722260 0.000000 0.000000 
#    y 0.000000 1.722260 0.000000 
#    z 0.000000 0.000000 1.755100 
# 
# From -- ./inp_files/10062.got.cif
#   From: 2010.03.12/outbox.cif.g09.slc.cpg/sg132_6_cif.got.tgz:10062.got - 2010.04.06 17:53:44.
