data_PCOD8316701
_publ_section_title
;
Structure prediction by ZEFSAII (Michael W. Deem and Ramdas Pophale) SiO2 
 PCOD8316701
Probable space group: P 42/M C M
;
_chemical_formula_sum "Si O2"
_cell_formula_units_Z 64
_cell_length_a 20.068810
_cell_length_b 20.068810
_cell_length_c 8.751052
_cell_angle_alpha 90.000000
_cell_angle_beta 90.000000
_cell_angle_gamma 90.000000
_cell_volume 3524.548630
_symmetry_space_group_name_H-M "P 42/M C M"
_symmetry_group_IT_number 132
_symmetry_cell_setting 'tetragonal'
loop_
_space_group_symop_operation_xyz
x,y,z
-y,x,1/2+z
-x,-y,z
y,-x,1/2+z
x,-y,1/2-z
-x,y,1/2-z
y,x,-z
-y,-x,-z
-x,-y,-z
y,-x,1/2-z
x,y,-z
-y,x,1/2-z
-x,y,1/2+z
x,-y,1/2+z
-y,-x,z
y,x,z
loop_
_atom_site_type_symbol
_atom_site_label
_atom_site_fract_x
_atom_site_fract_y
_atom_site_fract_z
Si Si1 0.930612 0.175711 0.680766
Si Si2 0.673613 0.930912 0.180223
Si Si3 0.429234 0.819701 0.318331
Si Si4 0.678917 0.430219 0.820000
O O1 0.936165 0.172041 0.500000
O O2 0.871316 0.128685 0.741805
O O3 0.915413 0.251103 0.735777
O O4 0.000000 0.149996 0.750000
O O5 0.626017 0.872007 0.238225
O O6 0.647613 0.000000 0.250000
O O7 0.670470 0.937555 0.000000
O O8 0.500000 0.841914 0.250000
O O9 0.434491 0.816352 0.500000
O O10 0.407306 0.748122 0.254701
O O11 0.654611 0.500000 0.750000
O O12 0.624376 0.375625 0.777734
O O13 0.688898 0.438588 0.000000
#
# Coordination Sequence:
#
# PCOD8316701 Si02
#       4
#    16  16  16  16
#     4   9  18  33  51  71  97 127 161 201 242 288
#     4   9  19  34  52  74  99 131 168 206 249 295
#     4  10  20  34  53  76 102 133 168 206 250 298
#     4  10  21  36  54  77 104 134 169 208 251 299
#
# _framework density 18.158353000000002
#
# number of rings (size 3 to 8) (size 9 to 14) (size 15 to 20)
#    0.000    2.500    0.000    3.000    0.000    6.500 
#    0.000    7.500    0.000    0.000    0.000    0.000 
#    0.000    0.000    0.000    0.000    0.000    0.000 
#
# Total GULP energy -793685.805943 kJ/mol
# GULP energy per Si atom -12401.340718 kJ/mol
# Density = 1.811702 g / cm^3
# Si number density = 18.158353 Si / 1000 Ang^3
#
#
#
# Elastic Constant Matrix: (Units=GPa)
#
#
# Indices 1 2 3 4 5 6 
#
# 1 142.4147 115.0503 44.4884 0.0000 0.0000 0.0000
# 2 115.0503 142.4147 44.4884 0.0000 0.0000 0.0000
# 3 44.4884 44.4884 54.7489 0.0000 0.0000 0.0000
# 4 0.0000 0.0000 0.0000 24.7637 0.0000 0.0000
# 5 0.0000 0.0000 0.0000 0.0000 24.7637 0.0000
# 6 0.0000 0.0000 0.0000 0.0000 0.0000 42.9488
#
#
#
# Elastic Compliance Matrix: (Units=1/GPa)
#
#
# Indices 1 2 3 4 5 6 
#
# 1 0.020972 -0.015572 -0.004388 0.000000 0.000000 0.000000
# 2 -0.015572 0.020972 -0.004388 0.000000 0.000000 0.000000
# 3 -0.004388 -0.004388 0.025397 0.000000 0.000000 0.000000
# 4 0.000000 0.000000 0.000000 0.040382 0.000000 0.000000
# 5 0.000000 0.000000 0.000000 0.000000 0.040382 0.000000
# 6 0.000000 0.000000 0.000000 0.000000 0.000000 0.023284
#
#
# Mechanical properties :
#
#
# Convention : Reuss Voigt Hill
#
# Bulk Modulus (GPa) = 53.63492 83.07026 68.35259
# Shear Modulus (GPa) = 22.09449 27.53198 24.81323
#
# Velocity S-wave (km/s) = 3.49200 3.89809 3.70062
# Velocity P-wave (km/s) = 6.77202 8.13063 7.48222
#
# Compressibility (1/GPa) = 0.01864457
#
# Stress axis : x y z
#
# Youngs Moduli (GPa) = 47.68212 47.68212 39.37429
#
# Poissons Ratio (x) = 0.74249 0.17279
# Poissons Ratio (y) = 0.74249 0.17279
# Poissons Ratio (z) = 0.20925 0.20925
#
# Static dielectric constant tensor:
#      x y z
#    x 3.499590 0.000000 0.000000 
#    y 0.000000 3.499590 0.000000 
#    z 0.000000 0.000000 3.312810 
# 
# 
# High freq. dielectric constant tensor:
#      x y z
#    x 1.706630 0.000000 0.000000 
#    y 0.000000 1.706630 0.000000 
#    z 0.000000 0.000000 1.705580 
# 
# From -- ./inp_files/1246.got.cif
#   From: 2010.03.12/outbox.cif.g09.slc.cpg/sg132_1_cif.got.tgz:1246.got - 2010.04.06 17:53:44.
