data_PCOD8316838
_publ_section_title
;
Structure prediction by ZEFSAII (Michael W. Deem and Ramdas Pophale) SiO2 
 PCOD8316838
Probable space group: P 42/M C M
;
_chemical_formula_sum "Si O2"
_cell_formula_units_Z 56
_cell_length_a 13.511130
_cell_length_b 13.511130
_cell_length_c 15.407373
_cell_angle_alpha 90.000000
_cell_angle_beta 90.000000
_cell_angle_gamma 90.000000
_cell_volume 2812.625708
_symmetry_space_group_name_H-M "P 42/M C M"
_symmetry_group_IT_number 132
_symmetry_cell_setting 'tetragonal'
loop_
_space_group_symop_operation_xyz
x,y,z
-y,x,1/2+z
-x,-y,z
y,-x,1/2+z
x,-y,1/2-z
-x,y,1/2-z
y,x,-z
-y,-x,-z
-x,-y,-z
y,-x,1/2-z
x,y,-z
-y,x,1/2-z
-x,y,1/2+z
x,-y,1/2+z
-y,-x,z
y,x,z
loop_
_atom_site_type_symbol
_atom_site_label
_atom_site_fract_x
_atom_site_fract_y
_atom_site_fract_z
Si Si1 0.498580 0.172272 0.902502
Si Si2 0.000364 0.842542 0.401068
Si Si3 0.630856 0.999088 0.346300
Si Si4 0.666815 0.500000 0.750000
O O1 0.594099 0.101466 0.892036
O O2 0.498125 0.263713 0.835356
O O3 0.403737 0.100151 0.892760
O O4 0.498488 0.217092 0.000000
O O5 0.979185 0.811455 0.500000
O O6 0.917117 0.917117 0.366825
O O7 0.997662 0.748115 0.340558
O O8 0.107268 0.892733 0.393536
O O9 0.586564 0.000000 0.250000
O O10 0.598262 0.401739 0.751511
#
# Coordination Sequence:
#
# PCOD8316838 Si02
#       4
#    16  16  16   8
#     4  11  22  42  68  93 122 159 200 252 315 371
#     4   9  19  35  53  80 122 165 203 243 286 343
#     4  11  20  37  63  92 127 161 199 253 304 357
#     4  11  26  47  66  90 124 159 208 269 320 376
#
# _framework density 19.910222999999998
#
# number of rings (size 3 to 8) (size 9 to 14) (size 15 to 20)
#    0.000    1.571    2.857    5.143    0.000    4.571 
#    0.000    2.857    0.000    0.000    0.000    0.000 
#    0.000    0.000    0.000    0.000    0.000    0.000 
#
# Total GULP energy -694180.619763 kJ/mol
# GULP energy per Si atom -12396.082496 kJ/mol
# Density = 1.986491 g / cm^3
# Si number density = 19.910223 Si / 1000 Ang^3
#
#
#
# Elastic Constant Matrix: (Units=GPa)
#
#
# Indices 1 2 3 4 5 6 
#
# 1 140.1741 46.7336 45.2140 0.0000 0.0000 0.0000
# 2 46.7336 140.1741 45.2140 0.0000 0.0000 0.0000
# 3 45.2140 45.2140 146.4125 0.0000 0.0000 0.0000
# 4 0.0000 0.0000 0.0000 23.7441 0.0000 0.0000
# 5 0.0000 0.0000 0.0000 0.0000 23.7441 0.0000
# 6 0.0000 0.0000 0.0000 0.0000 0.0000 11.3798
#
#
#
# Elastic Compliance Matrix: (Units=1/GPa)
#
#
# Indices 1 2 3 4 5 6 
#
# 1 0.008496 -0.002206 -0.001942 0.000000 0.000000 0.000000
# 2 -0.002206 0.008496 -0.001942 0.000000 0.000000 0.000000
# 3 -0.001942 -0.001942 0.008030 0.000000 0.000000 0.000000
# 4 0.000000 0.000000 0.000000 0.042116 0.000000 0.000000
# 5 0.000000 0.000000 0.000000 0.000000 0.042116 0.000000
# 6 0.000000 0.000000 0.000000 0.000000 0.000000 0.087875
#
#
# Mechanical properties :
#
#
# Convention : Reuss Voigt Hill
#
# Bulk Modulus (GPa) = 77.88167 77.89823 77.88995
# Shear Modulus (GPa) = 23.40933 31.08019 27.24476
#
# Velocity S-wave (km/s) = 3.43263 3.95526 3.70318
# Velocity P-wave (km/s) = 7.41026 7.75038 7.58223
#
# Compressibility (1/GPa) = 0.01283999
#
# Stress axis : x y z
#
# Youngs Moduli (GPa) = 117.70240 117.70240 124.53741
#
# Poissons Ratio (x) = 0.25965 0.24191
# Poissons Ratio (y) = 0.25965 0.24191
# Poissons Ratio (z) = 0.22863 0.22863
#
# Static dielectric constant tensor:
#      x y z
#    x 3.523080 0.000000 0.000000 
#    y 0.000000 3.523080 0.000000 
#    z 0.000000 0.000000 3.632410 
# 
# 
# High freq. dielectric constant tensor:
#      x y z
#    x 1.770970 0.000000 0.000000 
#    y 0.000000 1.770970 0.000000 
#    z 0.000000 0.000000 1.785950 
# 
# From -- ./inp_files/4263.got.cif
#   From: 2010.03.12/outbox.cif.g09.slc.cpg/sg132_3_cif.got.tgz:4263.got - 2010.04.06 17:53:44.
