data_PCOD8316914
_publ_section_title
;
Structure prediction by ZEFSAII (Michael W. Deem and Ramdas Pophale) SiO2 
 PCOD8316914
Probable space group: P 42/N B C
;
_chemical_formula_sum "Si O2"
_cell_formula_units_Z 112
_cell_length_a 31.112098
_cell_length_b 31.112098
_cell_length_c 5.542741
_cell_angle_alpha 90.000000
_cell_angle_beta 90.000000
_cell_angle_gamma 90.000000
_cell_volume 5365.166222
_symmetry_space_group_name_H-M "P 42/N B C"
_symmetry_group_IT_number 133
_space_group.IT_coordinate_system_code '2'
_symmetry_cell_setting 'tetragonal'
loop_
_space_group_symop_operation_xyz
x,y,z
1/2-y,x,1/2+z
1/2-x,1/2-y,z
y,1/2-x,1/2+z
x,1/2-y,-z
1/2-x,y,-z
y,x,1/2-z
1/2-y,1/2-x,1/2-z
-x,-y,-z
1/2+y,-x,1/2-z
1/2+x,1/2+y,-z
-y,1/2+x,1/2-z
-x,1/2+y,z
1/2+x,-y,z
-y,-x,1/2+z
1/2+y,1/2+x,1/2+z
loop_
_atom_site_type_symbol
_atom_site_label
_atom_site_fract_x
_atom_site_fract_y
_atom_site_fract_z
Si Si1 0.893253 0.365032 0.784030
Si Si2 0.831868 0.798875 0.011081
Si Si3 0.959321 0.706763 0.392138
Si Si4 0.853338 0.908401 0.581933
Si Si5 0.511664 0.857229 0.779530
Si Si6 0.705154 0.457203 0.601311
Si Si7 0.043982 0.937465 0.308057
O O1 0.864553 0.366567 0.538058
O O2 0.919653 0.320635 0.762548
O O3 0.925359 0.405576 0.789814
O O4 0.810691 0.810691 0.750000
O O5 0.869711 0.833273 0.072989
O O6 0.848380 0.750000 0.000000
O O7 0.801332 0.801332 0.250000
O O8 0.939339 0.750000 0.500000
O O9 0.924560 0.690378 0.205874
O O10 0.963769 0.668297 0.576551
O O11 0.005255 0.719010 0.281235
O O12 0.891697 0.891697 0.750000
O O13 0.874086 0.949440 0.446976
O O14 0.486911 0.896900 0.662864
O O15 0.476259 0.826770 0.900724
O O16 0.750000 0.438195 0.500000
O O17 0.037956 0.966156 0.553038
#
# Coordination Sequence:
#
# PCOD8316914 Si02
#       7
#    16  16  16  16  16  16  16
#     4  10  19  33  55  79 122 169 210 248 305 380
#     4  11  26  46  72  99 129 164 209 262 319 380
#     4  11  23  36  62  91 124 161 203 258 324 392
#     4  10  27  42  60  89 122 166 211 256 315 387
#     4  11  22  37  61  86 123 163 203 256 316 383
#     4  11  21  34  52  93 130 162 202 260 323 382
#     4  10  19  34  59  85 116 159 207 249 308 371
#
# _framework density 20.875402000000001
#
# number of rings (size 3 to 8) (size 9 to 14) (size 15 to 20)
#    0.000    1.429    4.286    2.143    8.000    0.857 
#    0.000    0.000    0.000    0.857    0.000    0.000 
#    0.000    1.714    0.000    0.000    0.000    0.000 
#
# Total GULP energy -1387850.308942 kJ/mol
# GULP energy per Si atom -12391.520616 kJ/mol
# Density = 2.082789 g / cm^3
# Si number density = 20.875402 Si / 1000 Ang^3
#
#
#
# Elastic Constant Matrix: (Units=GPa)
#
#
# Indices 1 2 3 4 5 6 
#
# 1 64.8939 33.1939 17.6098 0.0000 0.0000 0.0000
# 2 33.1939 64.8939 17.6098 0.0000 0.0000 0.0000
# 3 17.6098 17.6098 132.0753 0.0000 0.0000 0.0000
# 4 0.0000 0.0000 0.0000 -40.4535 0.0000 0.0000
# 5 0.0000 0.0000 0.0000 0.0000 -40.4535 0.0000
# 6 0.0000 0.0000 0.0000 0.0000 0.0000 2.6386
#
#
#
# Elastic Compliance Matrix: (Units=1/GPa)
#
#
# Indices 1 2 3 4 5 6 
#
# 1 0.021127 -0.010419 -0.001428 0.000000 0.000000 0.000000
# 2 -0.010419 0.021127 -0.001428 0.000000 0.000000 0.000000
# 3 -0.001428 -0.001428 0.007952 0.000000 0.000000 0.000000
# 4 0.000000 0.000000 0.000000 -0.024720 0.000000 0.000000
# 5 0.000000 0.000000 0.000000 0.000000 -0.024720 0.000000
# 6 0.000000 0.000000 0.000000 0.000000 0.000000 0.378990
#
#
# Mechanical properties :
#
#
# Convention : Reuss Voigt Hill
#
# Bulk Modulus (GPa) = 42.27140 44.29888 43.28514
# Shear Modulus (GPa) = 12.07175 -2.75702 4.65736
#
# Velocity S-wave (km/s) = 2.40735 -1.15047 1.49528
# Velocity P-wave (km/s) = 5.29343 4.41610 4.87454
#
# Compressibility (1/GPa) = 0.02365666
#
# Stress axis : x y z
#
# Youngs Moduli (GPa) = 47.33351 47.33351 125.75232
#
# Poissons Ratio (x) = 0.49317 0.17953
# Poissons Ratio (y) = 0.49317 0.17953
# Poissons Ratio (z) = 0.06758 0.06758
#
# Static dielectric constant tensor:
#      x y z
#    x 3.557210 0.000000 0.000000 
#    y 0.000000 3.557210 0.000000 
#    z 0.000000 0.000000 9.785990 
# 
# 
# High freq. dielectric constant tensor:
#      x y z
#    x 1.792180 0.000000 0.000000 
#    y 0.000000 1.792180 0.000000 
#    z 0.000000 0.000000 1.836770 
# 
# From -- ./inp_files/609.got.cif
#   From: 2010.03.12/outbox.cif.g09.slc.cpg/sg133_1_cif.got.tgz:609.got - 2010.04.06 18:08:06.
