data_PCOD8316794
_publ_section_title
;
Structure prediction by ZEFSAII (Michael W. Deem and Ramdas Pophale) SiO2 
 PCOD8316794
Probable space group: P 42/M C M
;
_chemical_formula_sum "Si O2"
_cell_formula_units_Z 64
_cell_length_a 13.877502
_cell_length_b 13.877502
_cell_length_c 17.431121
_cell_angle_alpha 90.000000
_cell_angle_beta 90.000000
_cell_angle_gamma 90.000000
_cell_volume 3356.973514
_symmetry_space_group_name_H-M "P 42/M C M"
_symmetry_group_IT_number 132
_symmetry_cell_setting 'tetragonal'
loop_
_space_group_symop_operation_xyz
x,y,z
-y,x,1/2+z
-x,-y,z
y,-x,1/2+z
x,-y,1/2-z
-x,y,1/2-z
y,x,-z
-y,-x,-z
-x,-y,-z
y,-x,1/2-z
x,y,-z
-y,x,1/2-z
-x,y,1/2+z
x,-y,1/2+z
-y,-x,z
y,x,z
loop_
_atom_site_type_symbol
_atom_site_label
_atom_site_fract_x
_atom_site_fract_y
_atom_site_fract_z
Si Si1 0.816189 0.664258 0.088155
Si Si2 0.284215 0.131168 0.585512
Si Si3 0.110323 0.482759 0.661237
Si Si4 0.805672 0.961439 0.835472
O O1 0.708571 0.708571 0.097935
O O2 0.819220 0.552390 0.112282
O O3 0.888202 0.719831 0.144961
O O4 0.850156 0.676106 0.000000
O O5 0.321543 0.107773 0.500000
O O6 0.235277 0.235277 0.588575
O O7 0.372704 0.135017 0.643686
O O8 0.203672 0.052200 0.608404
O O9 0.129334 0.500000 0.750000
O O10 0.000000 0.500000 0.637516
O O11 0.909189 0.909189 0.845958
O O12 0.792004 0.000000 0.750000
#
# Coordination Sequence:
#
# PCOD8316794 Si02
#       4
#    16  16  16  16
#     4  10  21  37  60  87 113 147 193 242 287 337
#     4  11  24  39  57  84 117 153 191 236 289 340
#     4  11  22  37  60  88 114 150 192 235 289 340
#     4  11  22  36  54  79 113 155 198 237 280 333
#
# _framework density 19.064789999999999
#
# number of rings (size 3 to 8) (size 9 to 14) (size 15 to 20)
#    0.000    1.250    2.500    3.750    0.000    7.250 
#    0.000    1.250    0.000    0.750    0.000    5.250 
#    0.000    0.000    0.000    0.000    0.000    0.000 
#
# Total GULP energy -793673.139589 kJ/mol
# GULP energy per Si atom -12401.142806 kJ/mol
# Density = 1.902140 g / cm^3
# Si number density = 19.064790 Si / 1000 Ang^3
#
#
#
# Elastic Constant Matrix: (Units=GPa)
#
#
# Indices 1 2 3 4 5 6 
#
# 1 98.7563 53.7807 54.3054 0.0000 0.0000 0.0000
# 2 53.7807 98.7563 54.3054 0.0000 0.0000 0.0000
# 3 54.3054 54.3054 117.2547 0.0000 0.0000 0.0000
# 4 0.0000 0.0000 0.0000 20.7081 0.0000 0.0000
# 5 0.0000 0.0000 0.0000 0.0000 20.7081 0.0000
# 6 0.0000 0.0000 0.0000 0.0000 0.0000 24.4473
#
#
#
# Elastic Compliance Matrix: (Units=1/GPa)
#
#
# Indices 1 2 3 4 5 6 
#
# 1 0.016008 -0.006226 -0.004530 0.000000 0.000000 0.000000
# 2 -0.006226 0.016008 -0.004530 0.000000 0.000000 0.000000
# 3 -0.004530 -0.004530 0.012725 0.000000 0.000000 0.000000
# 4 0.000000 0.000000 0.000000 0.048290 0.000000 0.000000
# 5 0.000000 0.000000 0.000000 0.000000 0.048290 0.000000
# 6 0.000000 0.000000 0.000000 0.000000 0.000000 0.040904
#
#
# Mechanical properties :
#
#
# Convention : Reuss Voigt Hill
#
# Bulk Modulus (GPa) = 70.58763 71.06116 70.82440
# Shear Modulus (GPa) = 22.98627 23.33107 23.15867
#
# Velocity S-wave (km/s) = 3.47608 3.50205 3.48909
# Velocity P-wave (km/s) = 7.29495 7.32850 7.31174
#
# Compressibility (1/GPa) = 0.01416679
#
# Stress axis : x y z
#
# Youngs Moduli (GPa) = 62.46937 62.46937 78.58758
#
# Poissons Ratio (x) = 0.38896 0.35601
# Poissons Ratio (y) = 0.38896 0.35601
# Poissons Ratio (z) = 0.28300 0.28300
#
# Static dielectric constant tensor:
#      x y z
#    x 3.452280 0.000000 0.000000 
#    y 0.000000 3.452280 0.000000 
#    z 0.000000 0.000000 -2.824310 
# 
# 
# High freq. dielectric constant tensor:
#      x y z
#    x 1.726590 0.000000 0.000000 
#    y 0.000000 1.726590 0.000000 
#    z 0.000000 0.000000 1.758680 
# 
# From -- ./inp_files/4393.got.cif
#   From: 2010.03.12/outbox.cif.g09.slc.cpg/sg132_3_cif.got.tgz:4393.got - 2010.04.06 17:53:44.
