data_PCOD8316026
_publ_section_title
;
Structure prediction by ZEFSAII (Michael W. Deem and Ramdas Pophale) SiO2 
 PCOD8316026
Probable space group: P 42/M M C
;
_chemical_formula_sum "Si O2"
_cell_formula_units_Z 50
_cell_length_a 7.676866
_cell_length_b 7.676866
_cell_length_c 41.206281
_cell_angle_alpha 90.000000
_cell_angle_beta 90.000000
_cell_angle_gamma 90.000000
_cell_volume 2428.462155
_symmetry_space_group_name_H-M "P 42/M M C"
_symmetry_group_IT_number 131
_symmetry_cell_setting 'tetragonal'
loop_
_space_group_symop_operation_xyz
x,y,z
-x,-y,z
-y,x,1/2+z
y,-x,1/2+z
-x,y,-z
x,-y,-z
y,x,1/2-z
-y,-x,1/2-z
-x,-y,-z
x,y,-z
y,-x,1/2-z
-y,x,1/2-z
x,-y,z
-x,y,z
-y,-x,1/2+z
y,x,1/2+z
loop_
_atom_site_type_symbol
_atom_site_label
_atom_site_fract_x
_atom_site_fract_y
_atom_site_fract_z
Si Si1 0.306901 0.706678 0.418825
Si Si2 0.000000 0.291809 0.463482
Si Si3 0.307726 0.000000 0.699656
Si Si4 0.000000 0.000000 0.750000
Si Si5 0.698687 0.205112 0.152576
O O1 0.298710 0.500000 0.419567
O O2 0.500000 0.774732 0.427805
O O3 0.256794 0.769451 0.382885
O O4 0.170667 0.781558 0.445040
O O5 0.000000 0.500000 0.463476
O O6 0.000000 0.218281 0.500000
O O7 0.290832 0.825312 0.678567
O O8 0.500000 0.000000 0.715176
O O9 0.172014 0.000000 0.728598
O O10 0.500000 0.271801 0.157908
O O11 0.707944 0.000000 0.156625
#
# Coordination Sequence:
#
# PCOD8316026 Si02
#       5
#    16   8   8   2  16
#     4   9  16  27  46  74 107 145 192 246 302 356
#     4   9  16  25  38  63 104 153 200 245 299 362
#     4  12  26  44  68  95 124 160 201 241 289 351
#     4  12  28  48  60  92 128 160 194 232 280 344
#     4  10  19  37  65  92 122 156 195 251 308 353
#
# _framework density 20.589162000000002
#
# number of rings (size 3 to 8) (size 9 to 14) (size 15 to 20)
#    0.000    2.080    3.200    0.960    0.000    3.840 
#    0.000    3.200    0.000    0.000    0.000    2.240 
#    0.000    3.840    0.000    0.320    0.000    0.000 
#
# Total GULP energy -619934.109239 kJ/mol
# GULP energy per Si atom -12398.682185 kJ/mol
# Density = 2.054230 g / cm^3
# Si number density = 20.589162 Si / 1000 Ang^3
#
#
#
# Elastic Constant Matrix: (Units=GPa)
#
#
# Indices 1 2 3 4 5 6 
#
# 1 118.3491 32.8919 64.0012 0.0000 0.0000 0.0000
# 2 32.8919 118.3491 64.0012 0.0000 0.0000 0.0000
# 3 64.0012 64.0012 157.0068 0.0000 0.0000 0.0000
# 4 0.0000 0.0000 0.0000 -7.4692 0.0000 0.0000
# 5 0.0000 0.0000 0.0000 0.0000 -7.4692 0.0000
# 6 0.0000 0.0000 0.0000 0.0000 0.0000 10.7789
#
#
#
# Elastic Compliance Matrix: (Units=1/GPa)
#
#
# Indices 1 2 3 4 5 6 
#
# 1 0.010898 -0.000804 -0.004115 0.000000 0.000000 0.000000
# 2 -0.000804 0.010898 -0.004115 0.000000 0.000000 0.000000
# 3 -0.004115 -0.004115 0.009724 0.000000 0.000000 0.000000
# 4 0.000000 0.000000 0.000000 -0.133883 0.000000 0.000000
# 5 0.000000 0.000000 0.000000 0.000000 -0.133883 0.000000
# 6 0.000000 0.000000 0.000000 0.000000 0.000000 0.092773
#
#
# Mechanical properties :
#
#
# Convention : Reuss Voigt Hill
#
# Bulk Modulus (GPa) = 74.33011 79.49928 76.91470
# Shear Modulus (GPa) = -41.34898 14.68883 -13.33008
#
# Velocity S-wave (km/s) = -4.48626 2.67390 -2.54723
# Velocity P-wave (km/s) = 3.05690 6.94471 5.36534
#
# Compressibility (1/GPa) = 0.01345350
#
# Stress axis : x y z
#
# Youngs Moduli (GPa) = 91.75849 91.75849 102.83961
#
# Poissons Ratio (x) = 0.07374 0.42317
# Poissons Ratio (y) = 0.07374 0.42317
# Poissons Ratio (z) = 0.37758 0.37758
#
# Static dielectric constant tensor:
#      x y z
#    x 1.945930 0.000000 0.000000 
#    y 0.000000 1.945930 0.000000 
#    z 0.000000 0.000000 3.697600 
# 
# 
# High freq. dielectric constant tensor:
#      x y z
#    x 1.801690 0.000000 0.000000 
#    y 0.000000 1.801690 0.000000 
#    z 0.000000 0.000000 1.789840 
# 
# From -- ./inp_files/12972.got.cif
#   From: 2010.03.12/outbox.cif.g09.slc.cpg/sg131_7_cif.got.tgz:12972.got - 2010.04.06 17:36:35.
