data_PCOD8316692
_publ_section_title
;
Structure prediction by ZEFSAII (Michael W. Deem and Ramdas Pophale) SiO2 
 PCOD8316692
Probable space group: P 42/M C M
;
_chemical_formula_sum "Si O2"
_cell_formula_units_Z 112
_cell_length_a 15.518271
_cell_length_b 15.518271
_cell_length_c 25.553443
_cell_angle_alpha 90.000000
_cell_angle_beta 90.000000
_cell_angle_gamma 90.000000
_cell_volume 6153.696707
_symmetry_space_group_name_H-M "P 42/M C M"
_symmetry_group_IT_number 132
_symmetry_cell_setting 'tetragonal'
loop_
_space_group_symop_operation_xyz
x,y,z
-y,x,1/2+z
-x,-y,z
y,-x,1/2+z
x,-y,1/2-z
-x,y,1/2-z
y,x,-z
-y,-x,-z
-x,-y,-z
y,-x,1/2-z
x,y,-z
-y,x,1/2-z
-x,y,1/2+z
x,-y,1/2+z
-y,-x,z
y,x,z
loop_
_atom_site_type_symbol
_atom_site_label
_atom_site_fract_x
_atom_site_fract_y
_atom_site_fract_z
Si Si1 0.213284 0.509777 0.364183
Si Si2 0.289814 0.990746 0.366642
Si Si3 0.139680 0.996114 0.056960
Si Si4 0.681159 0.178588 0.303052
Si Si5 0.360834 0.504178 0.942918
Si Si6 0.321613 0.179996 0.679273
Si Si7 0.433004 0.927753 0.443192
O O1 0.206224 0.586043 0.321864
O O2 0.302304 0.519417 0.394193
O O3 0.209569 0.416876 0.337064
O O4 0.141026 0.518502 0.407855
O O5 0.197306 0.987471 0.392843
O O6 0.295162 0.917092 0.322613
O O7 0.354459 0.970308 0.413136
O O8 0.304818 0.084969 0.342919
O O9 0.066557 0.066557 0.058311
O O10 0.187641 0.001052 0.000000
O O11 0.098399 0.901602 0.062637
O O12 0.751930 0.248070 0.323402
O O13 0.680949 0.174795 0.241217
O O14 0.400838 0.599163 0.934422
O O15 0.435931 0.435931 0.943828
O O16 0.313122 0.502338 0.000000
O O17 0.249227 0.249227 0.659593
O O18 0.402737 0.889298 0.500000
O O19 0.500000 0.000000 0.456269
#
# Coordination Sequence:
#
# PCOD8316692 Si02
#       7
#    16  16  16  16  16  16  16
#     4  11  20  36  57  78 106 145 178 217 268 321
#     4  11  20  36  57  78 106 145 178 217 268 321
#     4   9  18  33  54  81 111 141 175 216 262 317
#     4  10  23  38  57  80 105 136 184 234 272 312
#     4   9  18  33  54  81 111 141 175 216 262 317
#     4  11  23  38  54  80 108 140 182 227 269 319
#     4  10  20  34  51  76 108 137 171 211 254 304
#
# _framework density 18.200443
#
# number of rings (size 3 to 8) (size 9 to 14) (size 15 to 20)
#    0.000    1.857    1.429    4.286    0.000    0.000 
#    0.000    1.429    0.000   10.286    0.000   12.000 
#    0.000    0.000    0.000    0.000    0.000    0.000 
#
# Total GULP energy -1388007.836530 kJ/mol
# GULP energy per Si atom -12392.927112 kJ/mol
# Density = 1.815902 g / cm^3
# Si number density = 18.200443 Si / 1000 Ang^3
#
#
#
# Elastic Constant Matrix: (Units=GPa)
#
#
# Indices 1 2 3 4 5 6 
#
# 1 82.3323 14.4374 18.4849 0.0000 0.0000 0.0000
# 2 14.4374 82.3323 18.4849 0.0000 0.0000 0.0000
# 3 18.4849 18.4849 74.7093 0.0000 0.0000 0.0000
# 4 0.0000 0.0000 0.0000 16.5517 0.0000 0.0000
# 5 0.0000 0.0000 0.0000 0.0000 16.5517 0.0000
# 6 0.0000 0.0000 0.0000 0.0000 0.0000 22.8262
#
#
#
# Elastic Compliance Matrix: (Units=1/GPa)
#
#
# Indices 1 2 3 4 5 6 
#
# 1 0.013071 -0.001658 -0.002824 0.000000 0.000000 0.000000
# 2 -0.001658 0.013071 -0.002824 0.000000 0.000000 0.000000
# 3 -0.002824 -0.002824 0.014783 0.000000 0.000000 0.000000
# 4 0.000000 0.000000 0.000000 0.060417 0.000000 0.000000
# 5 0.000000 0.000000 0.000000 0.000000 0.060417 0.000000
# 6 0.000000 0.000000 0.000000 0.000000 0.000000 0.043809
#
#
# Mechanical properties :
#
#
# Convention : Reuss Voigt Hill
#
# Bulk Modulus (GPa) = 38.00441 38.02090 38.01266
# Shear Modulus (GPa) = 21.83898 23.71704 22.77801
#
# Velocity S-wave (km/s) = 3.46774 3.61377 3.54150
# Velocity P-wave (km/s) = 6.07947 6.19257 6.13628
#
# Compressibility (1/GPa) = 0.02631274
#
# Stress axis : x y z
#
# Youngs Moduli (GPa) = 76.50747 76.50747 67.64732
#
# Poissons Ratio (x) = 0.12685 0.19102
# Poissons Ratio (y) = 0.12685 0.19102
# Poissons Ratio (z) = 0.21604 0.21604
#
# Static dielectric constant tensor:
#      x y z
#    x 3.427450 0.000000 0.000000 
#    y 0.000000 3.427450 0.000000 
#    z 0.000000 0.000000 3.451930 
# 
# 
# High freq. dielectric constant tensor:
#      x y z
#    x 1.707300 0.000000 0.000000 
#    y 0.000000 1.707300 0.000000 
#    z 0.000000 0.000000 1.717390 
# 
# From -- ./inp_files/9120.got.cif
#   From: 2010.03.12/outbox.cif.g09.slc.cpg/sg132_5_cif.got.tgz:9120.got - 2010.04.06 17:53:44.
