data_PCOD8316840
_publ_section_title
;
Structure prediction by ZEFSAII (Michael W. Deem and Ramdas Pophale) SiO2 
 PCOD8316840
Probable space group: P 42/M C M
;
_chemical_formula_sum "Si O2"
_cell_formula_units_Z 88
_cell_length_a 12.315806
_cell_length_b 12.315806
_cell_length_c 28.302312
_cell_angle_alpha 90.000000
_cell_angle_beta 90.000000
_cell_angle_gamma 90.000000
_cell_volume 4292.868573
_symmetry_space_group_name_H-M "P 42/M C M"
_symmetry_group_IT_number 132
_symmetry_cell_setting 'tetragonal'
loop_
_space_group_symop_operation_xyz
x,y,z
-y,x,1/2+z
-x,-y,z
y,-x,1/2+z
x,-y,1/2-z
-x,y,1/2-z
y,x,-z
-y,-x,-z
-x,-y,-z
y,-x,1/2-z
x,y,-z
-y,x,1/2-z
-x,y,1/2+z
x,-y,1/2+z
-y,-x,z
y,x,z
loop_
_atom_site_type_symbol
_atom_site_label
_atom_site_fract_x
_atom_site_fract_y
_atom_site_fract_z
Si Si1 0.540034 0.877293 0.800245
Si Si2 0.808101 0.471054 0.897021
Si Si3 0.865633 0.309933 0.554814
Si Si4 0.248121 0.927937 0.894309
Si Si5 0.590271 0.590271 0.553217
Si Si6 0.049515 0.224527 0.198704
O O1 0.500000 0.831807 0.750000
O O2 0.491089 0.800095 0.840724
O O3 0.670044 0.873750 0.801874
O O4 0.500000 0.000000 0.808479
O O5 0.867710 0.573633 0.920139
O O6 0.875819 0.363295 0.907440
O O7 0.689682 0.459890 0.918452
O O8 0.887893 0.328002 0.500000
O O9 0.751569 0.248432 0.563362
O O10 0.960941 0.235984 0.576554
O O11 0.153602 0.846399 0.910294
O O12 0.238124 0.951588 0.838420
O O13 0.500000 0.500000 0.549521
O O14 0.625350 0.625350 0.500000
O O15 0.121094 0.121094 0.184267
O O16 0.000000 0.206620 0.250000
#
# Coordination Sequence:
#
# PCOD8316840 Si02
#       6
#    16  16  16  16   8  16
#     4  11  20  40  69  97 131 175 224 277 338 405
#     4  12  22  43  72  97 133 176 229 286 345 412
#     4  11  25  44  68  97 131 173 224 280 341 410
#     4  12  25  42  63  97 136 178 226 278 336 409
#     4  11  26  46  72 104 137 177 229 297 366 422
#     4  12  24  40  65  99 135 177 229 279 334 401
#
# _framework density 20.499115
#
# number of rings (size 3 to 8) (size 9 to 14) (size 15 to 20)
#    0.000    0.455    6.364    2.727    0.000    7.091 
#    1.636    0.909    0.000    0.000    0.000    0.000 
#    0.000    0.000    0.000    0.000    0.000    0.000 
#
# Total GULP energy -1091690.533805 kJ/mol
# GULP energy per Si atom -12405.574248 kJ/mol
# Density = 2.045246 g / cm^3
# Si number density = 20.499115 Si / 1000 Ang^3
#
#
#
# Elastic Constant Matrix: (Units=GPa)
#
#
# Indices 1 2 3 4 5 6 
#
# 1 103.2139 36.7729 45.1504 0.0000 0.0000 0.0000
# 2 36.7729 103.2139 45.1504 0.0000 0.0000 0.0000
# 3 45.1504 45.1504 152.7704 0.0000 0.0000 0.0000
# 4 0.0000 0.0000 0.0000 15.1933 0.0000 0.0000
# 5 0.0000 0.0000 0.0000 0.0000 15.1933 0.0000
# 6 0.0000 0.0000 0.0000 0.0000 0.0000 27.6690
#
#
#
# Elastic Compliance Matrix: (Units=1/GPa)
#
#
# Indices 1 2 3 4 5 6 
#
# 1 0.011939 -0.003112 -0.002609 0.000000 0.000000 0.000000
# 2 -0.003112 0.011939 -0.002609 0.000000 0.000000 0.000000
# 3 -0.002609 -0.002609 0.008088 0.000000 0.000000 0.000000
# 4 0.000000 0.000000 0.000000 0.065819 0.000000 0.000000
# 5 0.000000 0.000000 0.000000 0.000000 0.065819 0.000000
# 6 0.000000 0.000000 0.000000 0.000000 0.000000 0.036141
#
#
# Mechanical properties :
#
#
# Convention : Reuss Voigt Hill
#
# Bulk Modulus (GPa) = 65.33416 68.14950 66.74183
# Shear Modulus (GPa) = 22.57291 27.08608 24.82950
#
# Velocity S-wave (km/s) = 3.32198 3.63895 3.48407
# Velocity P-wave (km/s) = 6.83044 7.13955 6.98671
#
# Compressibility (1/GPa) = 0.01530593
#
# Stress axis : x y z
#
# Youngs Moduli (GPa) = 83.76207 83.76207 123.64539
#
# Poissons Ratio (x) = 0.26070 0.32253
# Poissons Ratio (y) = 0.26070 0.32253
# Poissons Ratio (z) = 0.21850 0.21850
#
# Static dielectric constant tensor:
#      x y z
#    x 3.804090 0.000000 0.000000 
#    y 0.000000 3.804090 0.000000 
#    z 0.000000 0.000000 3.929210 
# 
# 
# High freq. dielectric constant tensor:
#      x y z
#    x 1.798900 0.000000 0.000000 
#    y 0.000000 1.798900 0.000000 
#    z 0.000000 0.000000 1.815250 
# 
# From -- ./inp_files/10761.got.cif
#   From: 2010.03.12/outbox.cif.g09.slc.cpg/sg132_6_cif.got.tgz:10761.got - 2010.04.06 17:53:44.
