data_PCOD8316981
_publ_section_title
;
Structure prediction by ZEFSAII (Michael W. Deem and Ramdas Pophale) SiO2 
 PCOD8316981
Probable space group: P 42/N B C
;
_chemical_formula_sum "Si O2"
_cell_formula_units_Z 80
_cell_length_a 13.421899
_cell_length_b 13.421899
_cell_length_c 23.166391
_cell_angle_alpha 90.000000
_cell_angle_beta 90.000000
_cell_angle_gamma 90.000000
_cell_volume 4173.364475
_symmetry_space_group_name_H-M "P 42/N B C"
_symmetry_group_IT_number 133
_space_group.IT_coordinate_system_code '2'
_symmetry_cell_setting 'tetragonal'
loop_
_space_group_symop_operation_xyz
x,y,z
1/2-y,x,1/2+z
1/2-x,1/2-y,z
y,1/2-x,1/2+z
x,1/2-y,-z
1/2-x,y,-z
y,x,1/2-z
1/2-y,1/2-x,1/2-z
-x,-y,-z
1/2+y,-x,1/2-z
1/2+x,1/2+y,-z
-y,1/2+x,1/2-z
-x,1/2+y,z
1/2+x,-y,z
-y,-x,1/2+z
1/2+y,1/2+x,1/2+z
loop_
_atom_site_type_symbol
_atom_site_label
_atom_site_fract_x
_atom_site_fract_y
_atom_site_fract_z
Si Si1 0.258555 0.865579 0.567974
Si Si2 0.207778 0.354512 0.685210
Si Si3 0.982029 0.408628 0.864713
Si Si4 0.849261 0.373760 0.251591
Si Si5 0.508318 0.126709 0.152336
O O1 0.250000 0.750000 0.588087
O O2 0.250000 0.874126 0.500000
O O3 0.363622 0.916881 0.583311
O O4 0.175452 0.930970 0.600024
O O5 0.250000 0.250000 0.660928
O O6 0.162394 0.337607 0.750000
O O7 0.125295 0.400625 0.640091
O O8 0.303572 0.427702 0.683497
O O9 0.943947 0.358641 0.805984
O O10 0.960457 0.525251 0.871707
O O11 0.879143 0.263217 0.270949
O O12 0.916787 0.414087 0.200535
#
# Coordination Sequence:
#
# PCOD8316981 Si02
#       5
#    16  16  16  16  16
#     4  10  22  44  65  85 115 153 202 255 301 347
#     4  10  22  36  50  80 125 165 188 230 291 355
#     4  11  23  36  59  89 117 157 198 244 294 356
#     4  11  20  33  58  89 126 151 191 248 301 353
#     4  11  23  36  58  89 119 159 198 244 293 360
#
# _framework density 19.169187000000001
#
# number of rings (size 3 to 8) (size 9 to 14) (size 15 to 20)
#    0.000    1.400    4.000    3.000    5.600    2.400 
#    0.000    0.000    0.000    9.600    0.000    0.000 
#    0.000    0.000    0.000    0.000    0.000    0.000 
#
# Total GULP energy -991385.116266 kJ/mol
# GULP energy per Si atom -12392.313953 kJ/mol
# Density = 1.912556 g / cm^3
# Si number density = 19.169187 Si / 1000 Ang^3
#
#
#
# Elastic Constant Matrix: (Units=GPa)
#
#
# Indices 1 2 3 4 5 6 
#
# 1 121.9710 43.9140 35.1850 0.0000 0.0000 0.0000
# 2 43.9140 121.9706 35.1850 0.0000 0.0000 0.0000
# 3 35.1850 35.1850 78.8226 0.0000 0.0000 0.0000
# 4 0.0000 0.0000 0.0000 -10.9002 0.0000 0.0000
# 5 0.0000 0.0000 0.0000 0.0000 -10.9010 0.0000
# 6 0.0000 0.0000 0.0000 0.0000 0.0000 24.7418
#
#
#
# Elastic Compliance Matrix: (Units=1/GPa)
#
#
# Indices 1 2 3 4 5 6 
#
# 1 0.010124 -0.002687 -0.003319 0.000000 0.000000 0.000000
# 2 -0.002687 0.010124 -0.003319 0.000000 0.000000 0.000000
# 3 -0.003319 -0.003319 0.015650 0.000000 0.000000 0.000000
# 4 0.000000 0.000000 0.000000 -0.091741 0.000000 0.000000
# 5 0.000000 0.000000 0.000000 0.000000 -0.091735 0.000000
# 6 0.000000 0.000000 0.000000 0.000000 0.000000 0.040417
#
#
# Mechanical properties :
#
#
# Convention : Reuss Voigt Hill
#
# Bulk Modulus (GPa) = 57.98732 61.25913 59.62323
# Shear Modulus (GPa) = -60.41600 14.48680 -22.96460
#
# Velocity S-wave (km/s) = -5.62011 2.75204 -3.46496
# Velocity P-wave (km/s) = 3.43486 6.49036 3.89400
#
# Compressibility (1/GPa) = 0.01724515
#
# Stress axis : x y z
#
# Youngs Moduli (GPa) = 98.77720 98.77684 63.89681
#
# Poissons Ratio (x) = 0.26545 0.21210
# Poissons Ratio (y) = 0.26545 0.21211
# Poissons Ratio (z) = 0.32789 0.32789
#
# Static dielectric constant tensor:
#      x y z
#    x 3.834330 0.000000 0.000000 
#    y 0.000000 3.834330 0.000000 
#    z 0.000000 0.000000 3.258590 
# 
# 
# High freq. dielectric constant tensor:
#      x y z
#    x 1.759120 0.000000 0.000000 
#    y 0.000000 1.759120 0.000000 
#    z 0.000000 0.000000 1.707710 
# 
# From -- ./inp_files/7103.got.cif
#   From: 2010.03.12/outbox.cif.g09.slc.cpg/sg133_4_cif.got.tgz:7103.got - 2010.04.06 18:08:06.
