data_PCOD8316909
_publ_section_title
;
Structure prediction by ZEFSAII (Michael W. Deem and Ramdas Pophale) SiO2 
 PCOD8316909
Probable space group: P 42/N B C
;
_chemical_formula_sum "Si O2"
_cell_formula_units_Z 80
_cell_length_a 13.583876
_cell_length_b 13.583876
_cell_length_c 20.795084
_cell_angle_alpha 90.000000
_cell_angle_beta 90.000000
_cell_angle_gamma 90.000000
_cell_volume 3837.143985
_symmetry_space_group_name_H-M "P 42/N B C"
_symmetry_group_IT_number 133
_space_group.IT_coordinate_system_code '2'
_symmetry_cell_setting 'tetragonal'
loop_
_space_group_symop_operation_xyz
x,y,z
1/2-y,x,1/2+z
1/2-x,1/2-y,z
y,1/2-x,1/2+z
x,1/2-y,-z
1/2-x,y,-z
y,x,1/2-z
1/2-y,1/2-x,1/2-z
-x,-y,-z
1/2+y,-x,1/2-z
1/2+x,1/2+y,-z
-y,1/2+x,1/2-z
-x,1/2+y,z
1/2+x,-y,z
-y,-x,1/2+z
1/2+y,1/2+x,1/2+z
loop_
_atom_site_type_symbol
_atom_site_label
_atom_site_fract_x
_atom_site_fract_y
_atom_site_fract_z
Si Si1 0.492707 0.812868 0.614923
Si Si2 0.570300 0.992760 0.679778
Si Si3 0.221855 0.594978 0.247800
Si Si4 0.106711 0.471800 0.922091
Si Si5 0.862485 0.435194 0.478167
O O1 0.571181 0.898909 0.631394
O O2 0.461785 0.763123 0.681655
O O3 0.546198 0.724836 0.575198
O O4 0.399206 0.856100 0.575412
O O5 0.529495 0.970506 0.750000
O O6 0.682131 0.030511 0.691563
O O7 0.495853 0.073520 0.650693
O O8 0.140067 0.676350 0.229711
O O9 0.046929 0.378939 0.951374
O O10 0.079293 0.571556 0.959350
O O11 0.750000 0.418154 0.500000
#
# Coordination Sequence:
#
# PCOD8316909 Si02
#       5
#    16  16  16  16  16
#     4  10  20  35  58  84 120 163 200 249 311 364
#     4   9  19  35  53  84 118 159 192 243 303 363
#     4  10  19  30  53  89 120 152 199 256 306 362
#     4  10  20  39  58  85 124 157 199 254 305 360
#     4  10  23  37  60  91 117 161 206 251 307 363
#
# _framework density 20.848842000000001
#
# number of rings (size 3 to 8) (size 9 to 14) (size 15 to 20)
#    0.000    2.200    2.000    0.600    2.800    1.600 
#    0.000    0.000    0.000   21.600    0.000    5.600 
#    0.000    0.000    0.000    0.000    0.000    0.000 
#
# Total GULP energy -991179.600670 kJ/mol
# GULP energy per Si atom -12389.745008 kJ/mol
# Density = 2.080139 g / cm^3
# Si number density = 20.848842 Si / 1000 Ang^3
#
#
#
# Elastic Constant Matrix: (Units=GPa)
#
#
# Indices 1 2 3 4 5 6 
#
# 1 97.1765 29.2777 17.5236 0.0000 0.0000 0.0000
# 2 29.2777 97.1761 17.5236 0.0000 0.0000 0.0000
# 3 17.5236 17.5236 63.9882 0.0000 0.0000 0.0000
# 4 0.0000 0.0000 0.0000 20.4860 0.0000 0.0000
# 5 0.0000 0.0000 0.0000 0.0000 20.4854 0.0000
# 6 0.0000 0.0000 0.0000 0.0000 0.0000 23.9618
#
#
#
# Elastic Compliance Matrix: (Units=1/GPa)
#
#
# Indices 1 2 3 4 5 6 
#
# 1 0.011643 -0.003085 -0.002344 0.000000 0.000000 0.000000
# 2 -0.003085 0.011643 -0.002344 0.000000 0.000000 0.000000
# 3 -0.002344 -0.002344 0.016911 0.000000 0.000000 0.000000
# 4 0.000000 0.000000 0.000000 0.048814 0.000000 0.000000
# 5 0.000000 0.000000 0.000000 0.000000 0.048815 0.000000
# 6 0.000000 0.000000 0.000000 0.000000 0.000000 0.041733
#
#
# Mechanical properties :
#
#
# Convention : Reuss Voigt Hill
#
# Bulk Modulus (GPa) = 40.56404 42.99897 41.78150
# Shear Modulus (GPa) = 24.59169 25.92105 25.25637
#
# Velocity S-wave (km/s) = 3.43814 3.52985 3.48430
# Velocity P-wave (km/s) = 5.93798 6.10590 6.02253
#
# Compressibility (1/GPa) = 0.02465238
#
# Stress axis : x y z
#
# Youngs Moduli (GPa) = 85.89103 85.89060 59.13152
#
# Poissons Ratio (x) = 0.26499 0.13858
# Poissons Ratio (y) = 0.26499 0.13858
# Poissons Ratio (z) = 0.20129 0.20129
#
# Static dielectric constant tensor:
#      x y z
#    x 3.762180 0.000000 0.000000 
#    y 0.000000 3.762180 0.000000 
#    z 0.000000 0.000000 4.057020 
# 
# 
# High freq. dielectric constant tensor:
#      x y z
#    x 1.795260 0.000000 0.000000 
#    y 0.000000 1.795260 0.000000 
#    z 0.000000 0.000000 1.834390 
# 
# From -- ./inp_files/6333.got.cif
#   From: 2010.03.12/outbox.cif.g09.slc.cpg/sg133_4_cif.got.tgz:6333.got - 2010.04.06 18:08:06.
