data_PCOD8316063
_publ_section_title
;
Structure prediction by ZEFSAII (Michael W. Deem and Ramdas Pophale) SiO2 
 PCOD8316063
Probable space group: P 42/M M C
;
_chemical_formula_sum "Si O2"
_cell_formula_units_Z 96
_cell_length_a 23.060961
_cell_length_b 23.060961
_cell_length_c 8.915376
_cell_angle_alpha 90.000000
_cell_angle_beta 90.000000
_cell_angle_gamma 90.000000
_cell_volume 4741.267587
_symmetry_space_group_name_H-M "P 42/M M C"
_symmetry_group_IT_number 131
_symmetry_cell_setting 'tetragonal'
loop_
_space_group_symop_operation_xyz
x,y,z
-x,-y,z
-y,x,1/2+z
y,-x,1/2+z
-x,y,-z
x,-y,-z
y,x,1/2-z
-y,-x,1/2-z
-x,-y,-z
x,y,-z
y,-x,1/2-z
-y,x,1/2-z
x,-y,z
-x,y,z
-y,-x,1/2+z
y,x,1/2+z
loop_
_atom_site_type_symbol
_atom_site_label
_atom_site_fract_x
_atom_site_fract_y
_atom_site_fract_z
Si Si1 0.892360 0.433801 0.677906
Si Si2 0.431984 0.348643 0.671184
Si Si3 0.431721 0.763100 0.164212
Si Si4 0.676569 0.065614 0.323541
Si Si5 0.230037 0.145973 0.822257
Si Si6 0.066235 0.860647 0.830530
O O1 0.899358 0.425545 0.500000
O O2 0.908346 0.500000 0.721989
O O3 0.826683 0.418384 0.729245
O O4 0.933646 0.389943 0.766968
O O5 0.402985 0.402985 0.750000
O O6 0.415039 0.351935 0.500000
O O7 0.500000 0.353768 0.700311
O O8 0.406650 0.287397 0.730382
O O9 0.500000 0.756014 0.148823
O O10 0.403026 0.756008 0.000000
O O11 0.680051 0.077059 0.500000
O O12 0.710596 0.118631 0.243126
O O13 0.700317 0.000000 0.288243
O O14 0.207829 0.207829 0.750000
O O15 0.182840 0.097997 0.781113
O O16 0.236892 0.154172 0.000000
O O17 0.076806 0.923195 0.750000
O O18 0.000000 0.844268 0.835786
O O19 0.091693 0.857671 0.000000
#
# Coordination Sequence:
#
# PCOD8316063 Si02
#       6
#    16  16  16  16  16  16
#     4   9  19  37  61  88 117 151 192 238 290 348
#     4  10  20  32  48  72 102 139 184 234 290 353
#     4   8  15  31  54  76 100 132 171 218 271 327
#     4  11  24  40  59  87 124 162 199 240 287 342
#     4  11  22  38  61  84 109 144 187 235 285 336
#     4  10  20  33  50  73 102 136 175 220 269 322
#
# _framework density 20.247751000000001
#
# number of rings (size 3 to 8) (size 9 to 14) (size 15 to 20)
#    0.000    2.167    0.000    5.500    0.000    7.333 
#    0.000    5.833    0.000    4.000    0.000    0.000 
#    0.000    0.000    0.000    0.000    0.000    0.000 
#
# Total GULP energy -1189497.997909 kJ/mol
# GULP energy per Si atom -12390.604145 kJ/mol
# Density = 2.020167 g / cm^3
# Si number density = 20.247751 Si / 1000 Ang^3
#
#
#
# Elastic Constant Matrix: (Units=GPa)
#
#
# Indices 1 2 3 4 5 6 
#
# 1 80.4271 27.8192 46.5024 0.0000 0.0000 0.0000
# 2 27.8192 80.4256 46.5033 0.0000 0.0000 0.0000
# 3 46.5024 46.5033 117.4356 0.0000 0.0000 0.0000
# 4 0.0000 0.0000 0.0000 28.8214 0.0000 0.0000
# 5 0.0000 0.0000 0.0000 0.0000 28.8216 0.0000
# 6 0.0000 0.0000 0.0000 0.0000 0.0000 27.8089
#
#
#
# Elastic Compliance Matrix: (Units=1/GPa)
#
#
# Indices 1 2 3 4 5 6 
#
# 1 0.016505 -0.002503 -0.005545 0.000000 0.000000 0.000000
# 2 -0.002503 0.016506 -0.005545 0.000000 0.000000 0.000000
# 3 -0.005545 -0.005545 0.012907 0.000000 0.000000 0.000000
# 4 0.000000 0.000000 0.000000 0.034696 0.000000 0.000000
# 5 0.000000 0.000000 0.000000 0.000000 0.034696 0.000000
# 6 0.000000 0.000000 0.000000 0.000000 0.000000 0.035960
#
#
# Mechanical properties :
#
#
# Convention : Reuss Voigt Hill
#
# Bulk Modulus (GPa) = 53.38361 57.77091 55.57726
# Shear Modulus (GPa) = 27.07097 27.58793 27.32945
#
# Velocity S-wave (km/s) = 3.66045 3.69524 3.67788
# Velocity P-wave (km/s) = 6.65490 6.84107 6.74863
#
# Compressibility (1/GPa) = 0.01873234
#
# Stress axis : x y z
#
# Youngs Moduli (GPa) = 60.58661 60.58441 77.47983
#
# Poissons Ratio (x) = 0.15166 0.42959
# Poissons Ratio (y) = 0.15166 0.42962
# Poissons Ratio (z) = 0.33593 0.33594
#
# Static dielectric constant tensor:
#      x y z
#    x 3.826950 0.000000 0.000000 
#    y 0.000000 3.826950 0.000000 
#    z 0.000000 0.000000 3.852710 
# 
# 
# High freq. dielectric constant tensor:
#      x y z
#    x 1.780830 0.000000 0.000000 
#    y 0.000000 1.780830 0.000000 
#    z 0.000000 0.000000 1.794430 
# 
# From -- ./inp_files/2201.got.cif
#   From: 2010.03.12/outbox.cif.g09.slc.cpg/sg131_2_cif.got.tgz:2201.got - 2010.04.06 17:36:35.
