data_PCOD8316077
_publ_section_title
;
Structure prediction by ZEFSAII (Michael W. Deem and Ramdas Pophale) SiO2 
 PCOD8316077
Probable space group: P 42/M M C
;
_chemical_formula_sum "Si O2"
_cell_formula_units_Z 88
_cell_length_a 26.766067
_cell_length_b 26.766067
_cell_length_c 8.924523
_cell_angle_alpha 90.000000
_cell_angle_beta 90.000000
_cell_angle_gamma 90.000000
_cell_volume 6393.727675
_symmetry_space_group_name_H-M "P 42/M M C"
_symmetry_group_IT_number 131
_symmetry_cell_setting 'tetragonal'
loop_
_space_group_symop_operation_xyz
x,y,z
-x,-y,z
-y,x,1/2+z
y,-x,1/2+z
-x,y,-z
x,-y,-z
y,x,1/2-z
-y,-x,1/2-z
-x,-y,-z
x,y,-z
y,-x,1/2-z
-y,x,1/2-z
x,-y,z
-x,y,z
-y,-x,1/2+z
y,x,1/2+z
loop_
_atom_site_type_symbol
_atom_site_label
_atom_site_fract_x
_atom_site_fract_y
_atom_site_fract_z
Si Si1 0.650121 0.137076 0.677968
Si Si2 0.804858 0.871867 0.836125
Si Si3 0.557482 0.101211 0.823296
Si Si4 0.942146 0.721020 0.321608
Si Si5 0.211218 0.720606 0.667582
Si Si6 0.000000 0.558673 0.166799
O O1 0.650468 0.135450 0.500000
O O2 0.593434 0.140640 0.740600
O O3 0.676306 0.087119 0.741448
O O4 0.676797 0.187101 0.734461
O O5 0.855075 0.855075 0.750000
O O6 0.774522 0.919122 0.766413
O O7 0.766861 0.826061 0.843364
O O8 0.823838 0.886861 0.000000
O O9 0.500000 0.113246 0.782230
O O10 0.575241 0.047677 0.761741
O O11 0.566066 0.102342 0.000000
O O12 0.934047 0.715675 0.500000
O O13 0.000000 0.718522 0.275489
O O14 0.261916 0.738085 0.750000
O O15 0.223645 0.701244 0.500000
O O16 0.000000 0.500000 0.147286
O O17 0.000000 0.583340 0.000000
#
# Coordination Sequence:
#
# PCOD8316077 Si02
#       6
#    16  16  16  16  16   8
#     4  11  21  30  42  60  81 103 129 160 197 235
#     4   8  14  24  39  56  72  93 117 141 172 213
#     4  10  20  33  46  57  72  99 133 166 201 239
#     4   9  18  31  43  55  75 101 126 152 184 226
#     4   9  16  28  44  61  80 100 125 153 187 229
#     4   9  17  29  43  57  71  89 119 161 203 239
#
# _framework density 13.763489999999999
#
# number of rings (size 3 to 8) (size 9 to 14) (size 15 to 20)
#    0.000    2.636    0.000    4.091    1.273    6.909 
#    0.000    0.000    0.000    0.000    0.000    0.000 
#    0.000    0.364    0.000    4.545    0.000    0.182 
#
# Total GULP energy -1090647.441872 kJ/mol
# GULP energy per Si atom -12393.720930 kJ/mol
# Density = 1.373216 g / cm^3
# Si number density = 13.763490 Si / 1000 Ang^3
#
#
#
# Elastic Constant Matrix: (Units=GPa)
#
#
# Indices 1 2 3 4 5 6 
#
# 1 59.8038 45.3068 38.3612 0.0000 0.0000 0.0000
# 2 45.3068 59.8047 38.3617 0.0000 0.0000 0.0000
# 3 38.3612 38.3617 92.9702 0.0000 0.0000 0.0000
# 4 0.0000 0.0000 0.0000 19.5221 0.0000 0.0000
# 5 0.0000 0.0000 0.0000 0.0000 19.5220 0.0000
# 6 0.0000 0.0000 0.0000 0.0000 0.0000 14.4233
#
#
#
# Elastic Compliance Matrix: (Units=1/GPa)
#
#
# Indices 1 2 3 4 5 6 
#
# 1 0.041296 -0.027682 -0.005617 0.000000 0.000000 0.000000
# 2 -0.027682 0.041296 -0.005618 0.000000 0.000000 0.000000
# 3 -0.005617 -0.005618 0.015392 0.000000 0.000000 0.000000
# 4 0.000000 0.000000 0.000000 0.051224 0.000000 0.000000
# 5 0.000000 0.000000 0.000000 0.000000 0.051224 0.000000
# 6 0.000000 0.000000 0.000000 0.000000 0.000000 0.069332
#
#
# Mechanical properties :
#
#
# Convention : Reuss Voigt Hill
#
# Bulk Modulus (GPa) = 49.62728 50.73758 50.18243
# Shear Modulus (GPa) = 14.11179 16.73009 15.42094
#
# Velocity S-wave (km/s) = 3.20551 3.49024 3.35090
# Velocity P-wave (km/s) = 7.05945 7.29289 7.17712
#
# Compressibility (1/GPa) = 0.02015021
#
# Stress axis : x y z
#
# Youngs Moduli (GPa) = 24.21543 24.21571 64.96929
#
# Poissons Ratio (x) = 0.67033 0.36496
# Poissons Ratio (y) = 0.67032 0.36497
# Poissons Ratio (z) = 0.13603 0.13603
#
# Static dielectric constant tensor:
#      x y z
#    x 2.614320 0.000000 0.000000 
#    y 0.000000 2.614320 0.000000 
#    z 0.000000 0.000000 2.905130 
# 
# 
# High freq. dielectric constant tensor:
#      x y z
#    x 1.491010 0.000000 0.000000 
#    y 0.000000 1.491010 0.000000 
#    z 0.000000 0.000000 1.539040 
# 
# From -- ./inp_files/2408.got.cif
#   From: 2010.03.12/outbox.cif.g09.slc.cpg/sg131_2_cif.got.tgz:2408.got - 2010.04.06 17:36:35.
