data_PCOD8316957
_publ_section_title
;
Structure prediction by ZEFSAII (Michael W. Deem and Ramdas Pophale) SiO2 
 PCOD8316957
Probable space group: P 42/N B C
;
_chemical_formula_sum "Si O2"
_cell_formula_units_Z 80
_cell_length_a 12.819146
_cell_length_b 12.819146
_cell_length_c 25.846820
_cell_angle_alpha 90.000000
_cell_angle_beta 90.000000
_cell_angle_gamma 90.000000
_cell_volume 4247.420962
_symmetry_space_group_name_H-M "P 42/N B C"
_symmetry_group_IT_number 133
_space_group.IT_coordinate_system_code '2'
_symmetry_cell_setting 'tetragonal'
loop_
_space_group_symop_operation_xyz
x,y,z
1/2-y,x,1/2+z
1/2-x,1/2-y,z
y,1/2-x,1/2+z
x,1/2-y,-z
1/2-x,y,-z
y,x,1/2-z
1/2-y,1/2-x,1/2-z
-x,-y,-z
1/2+y,-x,1/2-z
1/2+x,1/2+y,-z
-y,1/2+x,1/2-z
-x,1/2+y,z
1/2+x,-y,z
-y,-x,1/2+z
1/2+y,1/2+x,1/2+z
loop_
_atom_site_type_symbol
_atom_site_label
_atom_site_fract_x
_atom_site_fract_y
_atom_site_fract_z
Si Si1 0.891117 0.552684 0.369067
Si Si2 0.815115 0.030519 0.798512
Si Si3 0.040407 0.373313 0.356438
Si Si4 0.630579 0.764915 0.444139
Si Si5 0.296840 0.512818 0.692188
O O1 0.890027 0.620990 0.420905
O O2 0.778624 0.500000 0.357633
O O3 0.930889 0.620729 0.319759
O O4 0.974765 0.465059 0.381592
O O5 0.878454 0.138880 0.805536
O O6 0.783445 0.007183 0.739731
O O7 0.707223 0.039847 0.830029
O O8 0.100094 0.323434 0.403828
O O9 0.120147 0.417409 0.312226
O O10 0.750000 0.750000 0.454782
O O11 0.572702 0.750000 0.500000
#
# Coordination Sequence:
#
# PCOD8316957 Si02
#       5
#    16  16  16  16  16
#     4  10  21  36  56  83 110 145 183 227 277 322
#     4  10  22  33  54  81 111 151 187 217 269 327
#     4  10  21  37  55  82 112 142 184 229 272 329
#     4  10  20  38  61  82 105 141 188 231 279 330
#     4  11  20  36  53  79 115 149 183 225 265 319
#
# _framework density 18.834959000000001
#
# number of rings (size 3 to 8) (size 9 to 14) (size 15 to 20)
#    0.000    1.800    2.000    2.400    0.000    6.800 
#    0.000    2.000    0.000    0.000    0.000    1.400 
#    0.000    0.000    0.000    0.000    0.000    0.000 
#
# Total GULP energy -991462.510633 kJ/mol
# GULP energy per Si atom -12393.281383 kJ/mol
# Density = 1.879209 g / cm^3
# Si number density = 18.834959 Si / 1000 Ang^3
#
#
#
# Elastic Constant Matrix: (Units=GPa)
#
#
# Indices 1 2 3 4 5 6 
#
# 1 98.5558 48.6950 49.0110 0.0000 0.0000 0.0000
# 2 48.6950 98.5558 49.0110 0.0000 0.0000 0.0000
# 3 49.0110 49.0110 118.0254 0.0000 0.0000 0.0000
# 4 0.0000 0.0000 0.0000 15.9042 0.0000 0.0000
# 5 0.0000 0.0000 0.0000 0.0000 15.9042 0.0000
# 6 0.0000 0.0000 0.0000 0.0000 0.0000 27.1040
#
#
#
# Elastic Compliance Matrix: (Units=1/GPa)
#
#
# Indices 1 2 3 4 5 6 
#
# 1 0.014721 -0.005335 -0.003897 0.000000 0.000000 0.000000
# 2 -0.005335 0.014721 -0.003897 0.000000 0.000000 0.000000
# 3 -0.003897 -0.003897 0.011710 0.000000 0.000000 0.000000
# 4 0.000000 0.000000 0.000000 0.062877 0.000000 0.000000
# 5 0.000000 0.000000 0.000000 0.000000 0.062877 0.000000
# 6 0.000000 0.000000 0.000000 0.000000 0.000000 0.036895
#
#
# Mechanical properties :
#
#
# Convention : Reuss Voigt Hill
#
# Bulk Modulus (GPa) = 67.15446 67.61903 67.38674
# Shear Modulus (GPa) = 21.27453 23.01046 22.14250
#
# Velocity S-wave (km/s) = 3.36448 3.49906 3.43243
# Velocity P-wave (km/s) = 7.12914 7.23210 7.18080
#
# Compressibility (1/GPa) = 0.01489104
#
# Stress axis : x y z
#
# Youngs Moduli (GPa) = 67.93142 67.93142 85.39971
#
# Poissons Ratio (x) = 0.36242 0.33284
# Poissons Ratio (y) = 0.36242 0.33284
# Poissons Ratio (z) = 0.26476 0.26476
#
# Static dielectric constant tensor:
#      x y z
#    x 3.360210 0.000000 0.000000 
#    y 0.000000 3.360210 0.000000 
#    z 0.000000 0.000000 3.475180 
# 
# 
# High freq. dielectric constant tensor:
#      x y z
#    x 1.735190 0.000000 0.000000 
#    y 0.000000 1.735190 0.000000 
#    z 0.000000 0.000000 1.714560 
# 
# From -- ./inp_files/7861.got.cif
#   From: 2010.03.12/outbox.cif.g09.slc.cpg/sg133_4_cif.got.tgz:7861.got - 2010.04.06 18:08:06.
