data_PCOD8316848
_publ_section_title
;
Structure prediction by ZEFSAII (Michael W. Deem and Ramdas Pophale) SiO2 
 PCOD8316848
Probable space group: P 42/M C M
;
_chemical_formula_sum "Si O2"
_cell_formula_units_Z 56
_cell_length_a 13.323147
_cell_length_b 13.323147
_cell_length_c 18.045127
_cell_angle_alpha 90.000000
_cell_angle_beta 90.000000
_cell_angle_gamma 90.000000
_cell_volume 3203.122752
_symmetry_space_group_name_H-M "P 42/M C M"
_symmetry_group_IT_number 132
_symmetry_cell_setting 'tetragonal'
loop_
_space_group_symop_operation_xyz
x,y,z
-y,x,1/2+z
-x,-y,z
y,-x,1/2+z
x,-y,1/2-z
-x,y,1/2-z
y,x,-z
-y,-x,-z
-x,-y,-z
y,-x,1/2-z
x,y,-z
-y,x,1/2-z
-x,y,1/2+z
x,-y,1/2+z
-y,-x,z
y,x,z
loop_
_atom_site_type_symbol
_atom_site_label
_atom_site_fract_x
_atom_site_fract_y
_atom_site_fract_z
Si Si1 0.992953 0.723224 0.662680
Si Si2 0.190874 0.351208 0.086557
Si Si3 0.106272 0.553962 0.081448
Si Si4 0.916914 0.916914 0.582566
O O1 0.102906 0.700068 0.632321
O O2 0.000000 0.728987 0.750000
O O3 0.905793 0.642823 0.640852
O O4 0.961725 0.827550 0.629357
O O5 0.297574 0.297574 0.106072
O O6 0.190955 0.471156 0.105475
O O7 0.165447 0.337263 0.000000
O O8 0.000000 0.500000 0.076360
O O9 0.133670 0.597983 0.000000
O O10 0.882447 0.882447 0.500000
O O11 0.000000 0.000000 0.573614
#
# Coordination Sequence:
#
# PCOD8316848 Si02
#       4
#    16  16  16   8
#     4  11  22  31  49  70 105 137 175 226 267 314
#     4   9  17  31  52  74  98 131 171 215 265 321
#     4   8  15  30  49  70  95 128 170 211 258 317
#     4  11  24  38  52  68  97 149 193 217 258 317
#
# _framework density 17.482938000000001
#
# number of rings (size 3 to 8) (size 9 to 14) (size 15 to 20)
#    0.000    2.429    0.000    5.143    4.000    7.429 
#    0.000    0.000    0.000    0.000    0.000    1.000 
#    0.000    5.714    0.000    0.000    0.571    0.000 
#
# Total GULP energy -693883.463595 kJ/mol
# GULP energy per Si atom -12390.776136 kJ/mol
# Density = 1.744315 g / cm^3
# Si number density = 17.482938 Si / 1000 Ang^3
#
#
#
# Elastic Constant Matrix: (Units=GPa)
#
#
# Indices 1 2 3 4 5 6 
#
# 1 85.6553 32.0364 47.9236 0.0000 0.0000 0.0000
# 2 32.0364 85.6553 47.9236 0.0000 0.0000 0.0000
# 3 47.9236 47.9236 129.7182 0.0000 0.0000 0.0000
# 4 0.0000 0.0000 0.0000 17.2553 0.0000 0.0000
# 5 0.0000 0.0000 0.0000 0.0000 17.2553 0.0000
# 6 0.0000 0.0000 0.0000 0.0000 0.0000 38.5089
#
#
#
# Elastic Compliance Matrix: (Units=1/GPa)
#
#
# Indices 1 2 3 4 5 6 
#
# 1 0.015402 -0.003248 -0.004490 0.000000 0.000000 0.000000
# 2 -0.003248 0.015402 -0.004490 0.000000 0.000000 0.000000
# 3 -0.004490 -0.004490 0.011027 0.000000 0.000000 0.000000
# 4 0.000000 0.000000 0.000000 0.057953 0.000000 0.000000
# 5 0.000000 0.000000 0.000000 0.000000 0.057953 0.000000
# 6 0.000000 0.000000 0.000000 0.000000 0.000000 0.025968
#
#
# Mechanical properties :
#
#
# Convention : Reuss Voigt Hill
#
# Bulk Modulus (GPa) = 57.55919 61.86624 59.71272
# Shear Modulus (GPa) = 23.36970 26.14692 24.75831
#
# Velocity S-wave (km/s) = 3.66008 3.87145 3.76725
# Velocity P-wave (km/s) = 7.13135 7.44632 7.29053
#
# Compressibility (1/GPa) = 0.01737342
#
# Stress axis : x y z
#
# Youngs Moduli (GPa) = 64.92759 64.92759 90.68956
#
# Poissons Ratio (x) = 0.21091 0.40720
# Poissons Ratio (y) = 0.21091 0.40720
# Poissons Ratio (z) = 0.29153 0.29153
#
# Static dielectric constant tensor:
#      x y z
#    x 3.488840 0.000000 0.000000 
#    y 0.000000 3.488840 0.000000 
#    z 0.000000 0.000000 3.269290 
# 
# 
# High freq. dielectric constant tensor:
#      x y z
#    x 1.655970 0.000000 0.000000 
#    y 0.000000 1.655970 0.000000 
#    z 0.000000 0.000000 1.675180 
# 
# From -- ./inp_files/4251.got.cif
#   From: 2010.03.12/outbox.cif.g09.slc.cpg/sg132_3_cif.got.tgz:4251.got - 2010.04.06 17:53:44.
