data_PCOD8316743
_publ_section_title
;
Structure prediction by ZEFSAII (Michael W. Deem and Ramdas Pophale) SiO2 
 PCOD8316743
Probable space group: P 42/M C M
;
_chemical_formula_sum "Si O2"
_cell_formula_units_Z 48
_cell_length_a 9.352931
_cell_length_b 9.352931
_cell_length_c 27.816401
_cell_angle_alpha 90.000000
_cell_angle_beta 90.000000
_cell_angle_gamma 90.000000
_cell_volume 2433.304164
_symmetry_space_group_name_H-M "P 42/M C M"
_symmetry_group_IT_number 132
_symmetry_cell_setting 'tetragonal'
loop_
_space_group_symop_operation_xyz
x,y,z
-y,x,1/2+z
-x,-y,z
y,-x,1/2+z
x,-y,1/2-z
-x,y,1/2-z
y,x,-z
-y,-x,-z
-x,-y,-z
y,-x,1/2-z
x,y,-z
-y,x,1/2-z
-x,y,1/2+z
x,-y,1/2+z
-y,-x,z
y,x,z
loop_
_atom_site_type_symbol
_atom_site_label
_atom_site_fract_x
_atom_site_fract_y
_atom_site_fract_z
Si Si1 0.578931 0.815034 0.300506
Si Si2 0.913467 0.318551 0.650728
Si Si3 0.232917 0.993391 0.947785
O O1 0.500000 0.831413 0.250000
O O2 0.671545 0.671545 0.302192
O O3 0.453057 0.808227 0.340404
O O4 0.676805 0.954370 0.311541
O O5 0.830494 0.169507 0.658725
O O6 0.971952 0.337757 0.596385
O O7 0.110099 0.110099 0.949015
O O8 0.312744 0.994144 0.000000
O O9 0.161719 0.838282 0.938898
#
# Coordination Sequence:
#
# PCOD8316743 Si02
#       3
#    16  16  16
#     4  11  24  40  56  78 110 146 184 226 278 335
#     4  10  20  36  60  86 110 140 183 230 268 315
#     4   8  14  27  51  83 115 145 176 214 268 328
#
# _framework density 19.726261999999998
#
# number of rings (size 3 to 8) (size 9 to 14) (size 15 to 20)
#    0.000    2.333    0.000    5.000    0.000    4.333 
#    0.000    5.000    0.000   15.000    0.000    4.667 
#    0.000    0.000    0.000    0.000    0.000    0.000 
#
# Total GULP energy -594656.904550 kJ/mol
# GULP energy per Si atom -12388.685511 kJ/mol
# Density = 1.968136 g / cm^3
# Si number density = 19.726262 Si / 1000 Ang^3
#
#
#
# Elastic Constant Matrix: (Units=GPa)
#
#
# Indices 1 2 3 4 5 6 
#
# 1 81.6448 41.4794 75.7827 0.0000 0.0000 0.0000
# 2 41.4794 81.6448 75.7827 0.0000 0.0000 0.0000
# 3 75.7827 75.7827 190.1463 0.0000 0.0000 0.0000
# 4 0.0000 0.0000 0.0000 26.5391 0.0000 0.0000
# 5 0.0000 0.0000 0.0000 0.0000 26.5391 0.0000
# 6 0.0000 0.0000 0.0000 0.0000 0.0000 50.3097
#
#
#
# Elastic Compliance Matrix: (Units=1/GPa)
#
#
# Indices 1 2 3 4 5 6 
#
# 1 0.020421 -0.004476 -0.006355 0.000000 0.000000 0.000000
# 2 -0.004476 0.020421 -0.006355 0.000000 0.000000 0.000000
# 3 -0.006355 -0.006355 0.010324 0.000000 0.000000 0.000000
# 4 0.000000 0.000000 0.000000 0.037680 0.000000 0.000000
# 5 0.000000 0.000000 0.000000 0.000000 0.037680 0.000000
# 6 0.000000 0.000000 0.000000 0.000000 0.000000 0.019877
#
#
# Mechanical properties :
#
#
# Convention : Reuss Voigt Hill
#
# Bulk Modulus (GPa) = 59.54275 82.16953 70.85614
# Shear Modulus (GPa) = 26.82797 31.37031 29.09914
#
# Velocity S-wave (km/s) = 3.69184 3.99216 3.84493
# Velocity P-wave (km/s) = 6.95866 7.93695 7.46385
#
# Compressibility (1/GPa) = 0.01679465
#
# Stress axis : x y z
#
# Youngs Moduli (GPa) = 48.96982 48.96982 96.85809
#
# Poissons Ratio (x) = 0.21921 0.61550
# Poissons Ratio (y) = 0.21921 0.61550
# Poissons Ratio (z) = 0.31119 0.31119
#
# Static dielectric constant tensor:
#      x y z
#    x 3.500480 0.000000 0.000000 
#    y 0.000000 3.500480 0.000000 
#    z 0.000000 0.000000 4.240480 
# 
# 
# High freq. dielectric constant tensor:
#      x y z
#    x 1.747640 0.000000 0.000000 
#    y 0.000000 1.747640 0.000000 
#    z 0.000000 0.000000 1.784220 
# 
# From -- ./inp_files/10226.got.cif
#   From: 2010.03.12/outbox.cif.g09.slc.cpg/sg132_6_cif.got.tgz:10226.got - 2010.04.06 17:53:44.
