data_PCOD8316220
_publ_section_title
;
Structure prediction by ZEFSAII (Michael W. Deem and Ramdas Pophale) SiO2 
 PCOD8316220
Probable space group: P 42/M M C
;
_chemical_formula_sum "Si O2"
_cell_formula_units_Z 88
_cell_length_a 13.209499
_cell_length_b 13.209499
_cell_length_c 27.885871
_cell_angle_alpha 90.000000
_cell_angle_beta 90.000000
_cell_angle_gamma 90.000000
_cell_volume 4865.829719
_symmetry_space_group_name_H-M "P 42/M M C"
_symmetry_group_IT_number 131
_symmetry_cell_setting 'tetragonal'
loop_
_space_group_symop_operation_xyz
x,y,z
-x,-y,z
-y,x,1/2+z
y,-x,1/2+z
-x,y,-z
x,-y,-z
y,x,1/2-z
-y,-x,1/2-z
-x,-y,-z
x,y,-z
y,-x,1/2-z
-y,x,1/2-z
x,-y,z
-x,y,z
-y,-x,1/2+z
y,x,1/2+z
loop_
_atom_site_type_symbol
_atom_site_label
_atom_site_fract_x
_atom_site_fract_y
_atom_site_fract_z
Si Si1 0.114581 0.268393 0.179242
Si Si2 0.500000 0.612816 0.943279
Si Si3 0.617597 0.885902 0.584213
Si Si4 0.694980 0.738220 0.054403
Si Si5 0.389099 0.881030 0.767894
Si Si6 0.117921 0.269194 0.360715
O O1 0.124151 0.358060 0.140455
O O2 0.164199 0.310874 0.228590
O O3 0.168370 0.167931 0.160303
O O4 0.000000 0.234396 0.188032
O O5 0.500000 0.500000 0.920645
O O6 0.397842 0.669560 0.926381
O O7 0.500000 0.604548 0.000000
O O8 0.500000 0.865463 0.575915
O O9 0.678207 0.801268 0.554733
O O10 0.646646 0.000000 0.566442
O O11 0.699623 0.836407 0.088097
O O12 0.674711 0.774586 0.000000
O O13 0.500000 0.832063 0.760826
O O14 0.356946 0.859520 0.822378
O O15 0.394637 0.000000 0.757950
O O16 0.000000 0.248195 0.367993
#
# Coordination Sequence:
#
# PCOD8316220 Si02
#       6
#    16   8  16  16  16  16
#     4   9  17  31  51  76 106 136 170 208 256 318
#     4   9  18  34  55  75  97 129 172 224 275 321
#     4   9  17  30  51  79 108 134 165 212 269 325
#     4  10  21  35  51  73 102 138 181 225 269 315
#     4   9  17  30  50  74 100 129 163 208 259 310
#     4  10  21  34  50  74 104 138 179 221 258 305
#
# _framework density 18.085303
#
# number of rings (size 3 to 8) (size 9 to 14) (size 15 to 20)
#    0.000    2.636    0.000    1.636    1.273    4.364 
#    0.000    0.909    0.000    4.909    0.000    5.091 
#    0.000    0.000    0.000    0.000    0.000    0.000 
#
# Total GULP energy -1090886.246262 kJ/mol
# GULP energy per Si atom -12396.434617 kJ/mol
# Density = 1.804414 g / cm^3
# Si number density = 18.085303 Si / 1000 Ang^3
#
#
#
# Elastic Constant Matrix: (Units=GPa)
#
#
# Indices 1 2 3 4 5 6 
#
# 1 105.2358 47.0787 45.8326 0.0000 0.0000 0.0000
# 2 47.0787 105.2358 45.8326 0.0000 0.0000 0.0000
# 3 45.8326 45.8326 104.2390 0.0000 0.0000 0.0000
# 4 0.0000 0.0000 0.0000 20.7626 0.0000 0.0000
# 5 0.0000 0.0000 0.0000 0.0000 20.7626 0.0000
# 6 0.0000 0.0000 0.0000 0.0000 0.0000 21.7329
#
#
#
# Elastic Compliance Matrix: (Units=1/GPa)
#
#
# Indices 1 2 3 4 5 6 
#
# 1 0.013061 -0.004134 -0.003925 0.000000 0.000000 0.000000
# 2 -0.004134 0.013061 -0.003925 0.000000 0.000000 0.000000
# 3 -0.003925 -0.003925 0.013045 0.000000 0.000000 0.000000
# 4 0.000000 0.000000 0.000000 0.048163 0.000000 0.000000
# 5 0.000000 0.000000 0.000000 0.000000 0.048163 0.000000
# 6 0.000000 0.000000 0.000000 0.000000 0.000000 0.046013
#
#
# Mechanical properties :
#
#
# Convention : Reuss Voigt Hill
#
# Bulk Modulus (GPa) = 65.79354 65.79984 65.79669
# Shear Modulus (GPa) = 23.74812 24.38275 24.06543
#
# Velocity S-wave (km/s) = 3.62763 3.67578 3.65178
# Velocity P-wave (km/s) = 7.34879 7.38086 7.36485
#
# Compressibility (1/GPa) = 0.01519906
#
# Stress axis : x y z
#
# Youngs Moduli (GPa) = 76.56226 76.56226 76.65628
#
# Poissons Ratio (x) = 0.31647 0.30091
# Poissons Ratio (y) = 0.31647 0.30091
# Poissons Ratio (z) = 0.30054 0.30054
#
# Static dielectric constant tensor:
#      x y z
#    x 3.319070 0.000000 0.000000 
#    y 0.000000 3.319070 0.000000 
#    z 0.000000 0.000000 3.302090 
# 
# 
# High freq. dielectric constant tensor:
#      x y z
#    x 1.690900 0.000000 0.000000 
#    y 0.000000 1.690900 0.000000 
#    z 0.000000 0.000000 1.698600 
# 
# From -- ./inp_files/13555.got.cif
#   From: 2010.03.12/outbox.cif.g09.slc.cpg/sg131_7_cif.got.tgz:13555.got - 2010.04.06 17:36:35.
