data_PCOD8316721
_publ_section_title
;
Structure prediction by ZEFSAII (Michael W. Deem and Ramdas Pophale) SiO2 
 PCOD8316721
Probable space group: P 42/M C M
;
_chemical_formula_sum "Si O2"
_cell_formula_units_Z 96
_cell_length_a 23.340029
_cell_length_b 23.340029
_cell_length_c 9.396429
_cell_angle_alpha 90.000000
_cell_angle_beta 90.000000
_cell_angle_gamma 90.000000
_cell_volume 5118.770038
_symmetry_space_group_name_H-M "P 42/M C M"
_symmetry_group_IT_number 132
_symmetry_cell_setting 'tetragonal'
loop_
_space_group_symop_operation_xyz
x,y,z
-y,x,1/2+z
-x,-y,z
y,-x,1/2+z
x,-y,1/2-z
-x,y,1/2-z
y,x,-z
-y,-x,-z
-x,-y,-z
y,-x,1/2-z
x,y,-z
-y,x,1/2-z
-x,y,1/2+z
x,-y,1/2+z
-y,-x,z
y,x,z
loop_
_atom_site_type_symbol
_atom_site_label
_atom_site_fract_x
_atom_site_fract_y
_atom_site_fract_z
Si Si1 0.363246 0.764118 0.830786
Si Si2 0.731020 0.180970 0.661097
Si Si3 0.705312 0.054834 0.666505
Si Si4 0.450033 0.826101 0.659456
Si Si5 0.439491 0.653367 0.166674
Si Si6 0.048061 0.425382 0.154955
O O1 0.300750 0.772407 0.763445
O O2 0.393650 0.816626 0.750763
O O3 0.395778 0.704880 0.790455
O O4 0.360884 0.772004 0.000000
O O5 0.704046 0.181765 0.500000
O O6 0.796380 0.203621 0.656284
O O7 0.732805 0.115369 0.717318
O O8 0.715959 0.044688 0.500000
O O9 0.638743 0.061061 0.707447
O O10 0.731958 0.000000 0.750000
O O11 0.500000 0.795162 0.750000
O O12 0.447430 0.799782 0.500000
O O13 0.461795 0.893756 0.652444
O O14 0.500000 0.656007 0.250000
O O15 0.406181 0.593820 0.201259
O O16 0.453917 0.657500 0.000000
O O17 0.000000 0.455986 0.250000
O O18 0.020243 0.423340 0.000000
#
# Coordination Sequence:
#
# PCOD8316721 Si02
#       6
#    16  16  16  16  16  16
#     4  11  22  37  57  80 108 142 175 215 264 316
#     4  10  20  35  56  82 113 146 181 222 266 317
#     4   9  17  32  51  75 104 141 181 218 264 315
#     4  11  22  36  51  72 101 134 176 224 268 316
#     4  10  23  42  61  83 109 134 165 208 258 316
#     4   9  18  32  49  67  95 130 171 220 263 312
#
# _framework density 18.754505000000002
#
# number of rings (size 3 to 8) (size 9 to 14) (size 15 to 20)
#    0.000    2.000    1.667    2.000    0.000    6.500 
#    0.000    2.500    0.000    0.000    0.000    0.000 
#    0.000    0.333    0.000    4.167    0.000    0.000 
#
# Total GULP energy -1189307.172633 kJ/mol
# GULP energy per Si atom -12388.616382 kJ/mol
# Density = 1.871182 g / cm^3
# Si number density = 18.754505 Si / 1000 Ang^3
#
#
#
# Elastic Constant Matrix: (Units=GPa)
#
#
# Indices 1 2 3 4 5 6 
#
# 1 85.0236 48.4650 47.0834 0.0000 0.0000 0.0000
# 2 48.4650 85.0236 47.0834 0.0000 0.0000 0.0000
# 3 47.0834 47.0834 96.7114 0.0000 0.0000 0.0000
# 4 0.0000 0.0000 0.0000 20.5544 0.0000 0.0000
# 5 0.0000 0.0000 0.0000 0.0000 20.5544 0.0000
# 6 0.0000 0.0000 0.0000 0.0000 0.0000 10.6804
#
#
#
# Elastic Compliance Matrix: (Units=1/GPa)
#
#
# Indices 1 2 3 4 5 6 
#
# 1 0.019382 -0.007972 -0.005555 0.000000 0.000000 0.000000
# 2 -0.007972 0.019382 -0.005555 0.000000 0.000000 0.000000
# 3 -0.005555 -0.005555 0.015749 0.000000 0.000000 0.000000
# 4 0.000000 0.000000 0.000000 0.048651 0.000000 0.000000
# 5 0.000000 0.000000 0.000000 0.000000 0.048651 0.000000
# 6 0.000000 0.000000 0.000000 0.000000 0.000000 0.093630
#
#
# Mechanical properties :
#
#
# Convention : Reuss Voigt Hill
#
# Bulk Modulus (GPa) = 61.16548 61.33581 61.25065
# Shear Modulus (GPa) = 17.29766 18.63296 17.96531
#
# Velocity S-wave (km/s) = 3.04027 3.15543 3.09839
# Velocity P-wave (km/s) = 6.70886 6.78611 6.74760
#
# Compressibility (1/GPa) = 0.01634909
#
# Stress axis : x y z
#
# Youngs Moduli (GPa) = 51.59536 51.59536 63.49734
#
# Poissons Ratio (x) = 0.41131 0.35271
# Poissons Ratio (y) = 0.41131 0.35271
# Poissons Ratio (z) = 0.28660 0.28660
#
# Static dielectric constant tensor:
#      x y z
#    x 3.396830 0.000000 0.000000 
#    y 0.000000 3.396830 0.000000 
#    z 0.000000 0.000000 3.536720 
# 
# 
# High freq. dielectric constant tensor:
#      x y z
#    x 1.711090 0.000000 0.000000 
#    y 0.000000 1.711090 0.000000 
#    z 0.000000 0.000000 1.731350 
# 
# From -- ./inp_files/1743.got.cif
#   From: 2010.03.12/outbox.cif.g09.slc.cpg/sg132_1_cif.got.tgz:1743.got - 2010.04.06 17:53:44.
