data_PCOD8316400
_publ_section_title
;
Structure prediction by ZEFSAII (Michael W. Deem and Ramdas Pophale) SiO2 
 PCOD8316400
Probable space group: P 42/M M C
;
_chemical_formula_sum "Si O2"
_cell_formula_units_Z 120
_cell_length_a 27.000000
_cell_length_b 27.000000
_cell_length_c 9.000000
_cell_angle_alpha 90.000000
_cell_angle_beta 90.000000
_cell_angle_gamma 90.000000
_cell_volume 6561.000000
_symmetry_space_group_name_H-M "P 42/M M C"
_symmetry_group_IT_number 131
_symmetry_cell_setting 'tetragonal'
loop_
_space_group_symop_operation_xyz
x,y,z
-x,-y,z
-y,x,1/2+z
y,-x,1/2+z
-x,y,-z
x,-y,-z
y,x,1/2-z
-y,-x,1/2-z
-x,-y,-z
x,y,-z
y,-x,1/2-z
-y,x,1/2-z
x,-y,z
-x,y,z
-y,-x,1/2+z
y,x,1/2+z
loop_
_atom_site_type_symbol
_atom_site_label
_atom_site_fract_x
_atom_site_fract_y
_atom_site_fract_z
Si Si1 0.057649 0.303547 0.670199
Si Si2 0.716200 0.440933 0.834291
Si Si3 0.941575 0.792708 0.836611
Si Si4 0.000000 0.445339 0.823395
Si Si5 0.377698 0.558148 0.336449
Si Si6 0.608284 0.097573 0.325892
Si Si7 0.556396 0.813242 0.825738
Si Si8 0.056883 0.883365 0.661165
O O1 0.072736 0.313215 0.500000
O O2 0.071141 0.248273 0.714788
O O3 0.090425 0.334861 0.784780
O O4 0.000000 0.315175 0.696794
O O5 0.713871 0.500000 0.834408
O O6 0.668577 0.418847 0.751549
O O7 0.763916 0.421850 0.747153
O O8 0.717811 0.419540 0.000000
O O9 0.918059 0.842002 0.766232
O O10 0.000000 0.798523 0.854714
O O11 0.918633 0.781889 0.000000
O O12 0.048979 0.419143 0.764300
O O13 0.000000 0.500000 0.756731
O O14 0.000000 0.444930 0.000000
O O15 0.427608 0.572393 0.250000
O O16 0.378685 0.581507 0.500000
O O17 0.373916 0.500000 0.345807
O O18 0.600416 0.106764 0.500000
O O19 0.588656 0.142490 0.232225
O O20 0.500000 0.822331 0.775808
O O21 0.561232 0.807673 0.000000
O O22 0.065303 0.934698 0.750000
O O23 0.082624 0.884753 0.500000
O O24 0.000000 0.872291 0.638742
#
# Coordination Sequence:
#
# PCOD8316400 Si02
#       8
#    16  16  16   8  16  16  16  16
#     4  10  19  31  47  67  94 123 155 197 246 294
#     4   9  17  31  51  72  94 124 164 208 250 292
#     4   9  17  30  49  70  92 120 157 198 240 283
#     4   9  18  30  43  61  89 125 163 201 240 289
#     4  10  20  33  50  74 105 139 172 206 244 288
#     4  11  20  31  47  67  93 125 164 205 248 297
#     4  10  20  33  48  68  95 126 162 206 254 300
#     4  10  20  33  49  71 100 132 165 198 234 276
#
# _framework density 18.289895000000001
#
# number of rings (size 3 to 8) (size 9 to 14) (size 15 to 20)
#    0.000    2.200    0.667    3.200    0.000    6.933 
#    0.000    1.333    0.000    1.600    0.000    0.933 
#    0.000    0.000    0.000    0.000    0.000    0.000 
#
# Total GULP energy -1487178.150234 kJ/mol
# GULP energy per Si atom -12393.151252 kJ/mol
# Density = 1.824827 g / cm^3
# Si number density = 18.289895 Si / 1000 Ang^3
#
#
#
# Elastic Constant Matrix: (Units=GPa)
#
#
# Indices 1 2 3 4 5 6 
#
# 1 14.2375 46.8286 33.2979 0.0000 0.0000 0.0000
# 2 46.8286 14.2417 33.2997 0.0000 0.0000 0.0000
# 3 33.2979 33.2997 96.6991 0.0000 0.0000 0.0000
# 4 0.0000 0.0000 0.0000 13.7928 0.0000 0.0000
# 5 0.0000 0.0000 0.0000 0.0000 13.7946 0.0000
# 6 0.0000 0.0000 0.0000 0.0000 0.0000 4.9396
#
#
#
# Elastic Compliance Matrix: (Units=1/GPa)
#
#
# Indices 1 2 3 4 5 6 
#
# 1 -0.002232 0.028454 -0.009030 0.000000 0.000000 0.000000
# 2 0.028454 -0.002230 -0.009030 0.000000 0.000000 0.000000
# 3 -0.009030 -0.009030 0.016560 0.000000 0.000000 0.000000
# 4 0.000000 0.000000 0.000000 0.072502 0.000000 0.000000
# 5 0.000000 0.000000 0.000000 0.000000 0.072492 0.000000
# 6 0.000000 0.000000 0.000000 0.000000 0.000000 0.202446
#
#
# Mechanical properties :
#
#
# Convention : Reuss Voigt Hill
#
# Bulk Modulus (GPa) = 30.40805 39.11454 34.76129
# Shear Modulus (GPa) = 14.29748 7.28885 10.79316
#
# Velocity S-wave (km/s) = 2.79895 1.99846 2.43187
# Velocity P-wave (km/s) = 5.20646 5.17276 5.18963
#
# Compressibility (1/GPa) = 0.03288603
#
# Stress axis : x y z
#
# Youngs Moduli (GPa) = -447.94167 -448.41588 60.38529
#
# Poissons Ratio (x) = 12.75917 0.54527
# Poissons Ratio (y) = 12.74568 0.54528
# Poissons Ratio (z) = -4.04481 -4.04920
#
# Static dielectric constant tensor:
#      x y z
#    x 3.165450 0.000000 0.000000 
#    y 0.000000 3.165460 0.000000 
#    z 0.000000 0.000000 3.537870 
# 
# 
# High freq. dielectric constant tensor:
#      x y z
#    x 1.670090 0.000000 0.000000 
#    y 0.000000 1.670090 0.000000 
#    z 0.000000 0.000000 1.721380 
# 
# From -- ./inp_files/2673.got.cif
#   From: 2010.03.12/outbox.ucp.g09.slc.cvg/sg131_2_cif.got.tgz:2673.got - 2010.05.04 20:27:56.
