data_PCOD8316339
_publ_section_title
;
Structure prediction by ZEFSAII (Michael W. Deem and Ramdas Pophale) SiO2 
 PCOD8316339
Probable space group: P 42/M M C
;
_chemical_formula_sum "Si O2"
_cell_formula_units_Z 96
_cell_length_a 14.501339
_cell_length_b 14.501339
_cell_length_c 21.617353
_cell_angle_alpha 90.000000
_cell_angle_beta 90.000000
_cell_angle_gamma 90.000000
_cell_volume 4545.887930
_symmetry_space_group_name_H-M "P 42/M M C"
_symmetry_group_IT_number 131
_symmetry_cell_setting 'tetragonal'
loop_
_space_group_symop_operation_xyz
x,y,z
-x,-y,z
-y,x,1/2+z
y,-x,1/2+z
-x,y,-z
x,-y,-z
y,x,1/2-z
-y,-x,1/2-z
-x,-y,-z
x,y,-z
y,-x,1/2-z
-y,x,1/2-z
x,-y,z
-x,y,z
-y,-x,1/2+z
y,x,1/2+z
loop_
_atom_site_type_symbol
_atom_site_label
_atom_site_fract_x
_atom_site_fract_y
_atom_site_fract_z
Si Si1 0.140619 0.603316 0.657868
Si Si2 0.263193 0.105433 0.395799
Si Si3 0.352673 0.399266 0.320916
Si Si4 0.747636 0.098955 0.258556
Si Si5 0.602700 0.739991 0.431974
Si Si6 0.765028 0.894268 0.928895
O O1 0.096594 0.500000 0.650945
O O2 0.245215 0.591574 0.674453
O O3 0.094545 0.662345 0.711901
O O4 0.129229 0.662371 0.595251
O O5 0.298265 0.106185 0.325645
O O6 0.331767 0.170889 0.433140
O O7 0.161924 0.152486 0.396414
O O8 0.259806 0.000000 0.422240
O O9 0.371573 0.371573 0.250000
O O10 0.398085 0.500000 0.333577
O O11 0.385169 0.328435 0.373736
O O12 0.816863 0.183138 0.250000
O O13 0.800099 0.000000 0.252378
O O14 0.617510 0.691259 0.500000
O O15 0.500000 0.779251 0.427343
O O16 0.789130 0.000000 0.916584
O O17 0.763760 0.867359 0.000000
#
# Coordination Sequence:
#
# PCOD8316339 Si02
#       6
#    16  16  16  16  16  16
#     4  11  23  40  65  95 131 173 213 260 321 387
#     4  11  24  42  67  94 126 170 217 268 326 388
#     4  11  23  40  66  98 135 176 217 267 327 391
#     4  11  22  38  62  92 127 165 210 263 320 383
#     4  11  24  42  65  93 129 173 222 274 324 382
#     4  11  24  42  65  93 128 169 215 267 320 382
#
# _framework density 21.117988
#
# number of rings (size 3 to 8) (size 9 to 14) (size 15 to 20)
#    0.000    1.000    3.333    3.000    0.000    7.333 
#    0.000    8.333    0.000    0.000    0.000    0.000 
#    0.000    0.000    0.000    0.000    0.000    0.000 
#
# Total GULP energy -1189437.387689 kJ/mol
# GULP energy per Si atom -12389.972788 kJ/mol
# Density = 2.106992 g / cm^3
# Si number density = 21.117988 Si / 1000 Ang^3
#
#
#
# Elastic Constant Matrix: (Units=GPa)
#
#
# Indices 1 2 3 4 5 6 
#
# 1 132.2846 37.2695 37.3529 0.0000 0.0000 0.0000
# 2 37.2695 132.2826 37.3518 0.0000 0.0000 0.0000
# 3 37.3529 37.3518 125.8322 0.0000 0.0000 0.0000
# 4 0.0000 0.0000 0.0000 22.3141 0.0000 0.0000
# 5 0.0000 0.0000 0.0000 0.0000 22.3142 0.0000
# 6 0.0000 0.0000 0.0000 0.0000 0.0000 199.2993
#
#
#
# Elastic Compliance Matrix: (Units=1/GPa)
#
#
# Indices 1 2 3 4 5 6 
#
# 1 0.008655 -0.001870 -0.002014 0.000000 0.000000 0.000000
# 2 -0.001870 0.008655 -0.002014 0.000000 0.000000 0.000000
# 3 -0.002014 -0.002014 0.009143 0.000000 0.000000 0.000000
# 4 0.000000 0.000000 0.000000 0.044815 0.000000 0.000000
# 5 0.000000 0.000000 0.000000 0.000000 0.044815 0.000000
# 6 0.000000 0.000000 0.000000 0.000000 0.000000 0.005018
#
#
# Mechanical properties :
#
#
# Convention : Reuss Voigt Hill
#
# Bulk Modulus (GPa) = 68.22771 68.26087 68.24429
# Shear Modulus (GPa) = 36.28934 67.34719 51.81826
#
# Velocity S-wave (km/s) = 4.14987 5.65333 4.95891
# Velocity P-wave (km/s) = 7.43908 8.66067 8.07301
#
# Compressibility (1/GPa) = 0.01465680
#
# Stress axis : x y z
#
# Youngs Moduli (GPa) = 115.54052 115.53920 109.37483
#
# Poissons Ratio (x) = 0.21603 0.22030
# Poissons Ratio (y) = 0.21603 0.22030
# Poissons Ratio (z) = 0.23272 0.23271
#
# Static dielectric constant tensor:
#      x y z
#    x 4.389680 0.000000 0.000000 
#    y 0.000000 4.389790 0.000000 
#    z 0.000000 0.000000 4.352760 
# 
# 
# High freq. dielectric constant tensor:
#      x y z
#    x 1.829180 0.000000 0.000000 
#    y 0.000000 1.829180 0.000000 
#    z 0.000000 0.000000 1.843390 
# 
# From -- ./inp_files/9695.got.cif
#   From: 2010.03.12/outbox.cif.g09.slc.cpg/sg131_5_cif.got.tgz:9695.got - 2010.04.06 17:36:35.
