data_PCOD8316511
_publ_section_title
;
Structure prediction by ZEFSAII (Michael W. Deem and Ramdas Pophale) SiO2 
 PCOD8316511
Probable space group: P 42/M C M
;
_chemical_formula_sum "Si O2"
_cell_formula_units_Z 96
_cell_length_a 24.725661
_cell_length_b 24.725661
_cell_length_c 9.021451
_cell_angle_alpha 90.000000
_cell_angle_beta 90.000000
_cell_angle_gamma 90.000000
_cell_volume 5515.339054
_symmetry_space_group_name_H-M "P 42/M C M"
_symmetry_group_IT_number 132
_symmetry_cell_setting 'tetragonal'
loop_
_space_group_symop_operation_xyz
x,y,z
-y,x,1/2+z
-x,-y,z
y,-x,1/2+z
x,-y,1/2-z
-x,y,1/2-z
y,x,-z
-y,-x,-z
-x,-y,-z
y,-x,1/2-z
x,y,-z
-y,x,1/2-z
-x,y,1/2+z
x,-y,1/2+z
-y,-x,z
y,x,z
loop_
_atom_site_type_symbol
_atom_site_label
_atom_site_fract_x
_atom_site_fract_y
_atom_site_fract_z
Si Si1 0.077022 0.660905 0.833521
Si Si2 0.654722 0.796046 0.336412
Si Si3 0.846223 0.153778 0.337391
Si Si4 0.554139 0.074086 0.667738
Si Si5 0.203016 0.447819 0.834277
Si Si6 0.775186 0.055545 0.320933
Si Si7 0.756396 0.756396 0.836877
O O1 0.140082 0.651087 0.847382
O O2 0.052185 0.607765 0.752912
O O3 0.065236 0.714389 0.737746
O O4 0.052354 0.667232 0.000000
O O5 0.656184 0.770302 0.500000
O O6 0.603544 0.772316 0.249897
O O7 0.707357 0.781131 0.249181
O O8 0.865067 0.134934 0.500000
O O9 0.817817 0.101353 0.260891
O O10 0.801276 0.198725 0.350090
O O11 0.500000 0.052715 0.750000
O O12 0.554669 0.051561 0.500000
O O13 0.553947 0.138548 0.665189
O O14 0.225043 0.500000 0.750000
O O15 0.226013 0.448448 0.000000
O O16 0.773469 0.054339 0.500000
O O17 0.797011 0.000000 0.250000
O O18 0.737825 0.737825 0.000000
#
# Coordination Sequence:
#
# PCOD8316511 Si02
#       7
#    16  16   8  16  16  16   8
#     4  10  19  31  48  72 100 132 167 207 249 295
#     4  10  19  29  43  67  97 128 164 207 250 295
#     4   9  20  37  59  80 106 135 162 192 236 292
#     4   9  16  26  42  65  94 130 170 214 254 293
#     4   9  16  26  40  59  86 123 166 210 252 294
#     4  11  22  39  59  83 107 133 162 198 242 294
#     4  11  19  31  49  71  98 134 167 201 248 302
#
# _framework density 17.406001
#
# number of rings (size 3 to 8) (size 9 to 14) (size 15 to 20)
#    0.000    2.167    1.667    2.750    0.000    5.333 
#    0.000    1.667    0.000    0.750    0.000    5.250 
#    0.000    0.000    0.000    0.000    0.000    0.417 
#
# Total GULP energy -1189859.944164 kJ/mol
# GULP energy per Si atom -12394.374418 kJ/mol
# Density = 1.736638 g / cm^3
# Si number density = 17.406001 Si / 1000 Ang^3
#
#
#
# Elastic Constant Matrix: (Units=GPa)
#
#
# Indices 1 2 3 4 5 6 
#
# 1 81.9299 30.4215 41.3454 0.0000 0.0000 0.0000
# 2 30.4215 81.9301 41.3454 0.0000 0.0000 0.0000
# 3 41.3454 41.3454 151.5907 0.0000 0.0000 0.0000
# 4 0.0000 0.0000 0.0000 28.0181 0.0000 0.0000
# 5 0.0000 0.0000 0.0000 0.0000 28.0180 0.0000
# 6 0.0000 0.0000 0.0000 0.0000 0.0000 4.9419
#
#
#
# Elastic Compliance Matrix: (Units=1/GPa)
#
#
# Indices 1 2 3 4 5 6 
#
# 1 0.015275 -0.004139 -0.003037 0.000000 0.000000 0.000000
# 2 -0.004139 0.015275 -0.003037 0.000000 0.000000 0.000000
# 3 -0.003037 -0.003037 0.008254 0.000000 0.000000 0.000000
# 4 0.000000 0.000000 0.000000 0.035691 0.000000 0.000000
# 5 0.000000 0.000000 0.000000 0.000000 0.035691 0.000000
# 6 0.000000 0.000000 0.000000 0.000000 0.000000 0.202352
#
#
# Mechanical properties :
#
#
# Convention : Reuss Voigt Hill
#
# Bulk Modulus (GPa) = 54.41729 60.18613 57.30171
# Shear Modulus (GPa) = 14.74530 25.68483 20.21506
#
# Velocity S-wave (km/s) = 2.91372 3.84556 3.41161
# Velocity P-wave (km/s) = 6.53078 7.37365 6.96498
#
# Compressibility (1/GPa) = 0.01837651
#
# Stress axis : x y z
#
# Youngs Moduli (GPa) = 65.46557 65.46572 121.16045
#
# Poissons Ratio (x) = 0.27097 0.36800
# Poissons Ratio (y) = 0.27097 0.36800
# Poissons Ratio (z) = 0.19884 0.19884
#
# Static dielectric constant tensor:
#      x y z
#    x 3.102580 0.000000 0.000000 
#    y 0.000000 3.102580 0.000000 
#    z 0.000000 0.000000 3.599010 
# 
# 
# High freq. dielectric constant tensor:
#      x y z
#    x 1.645540 0.000000 0.000000 
#    y 0.000000 1.645540 0.000000 
#    z 0.000000 0.000000 1.689790 
# 
# From -- ./inp_files/1849.got.cif
#   From: 2010.03.12/outbox.cif.g09.slc.cpg/sg132_1_cif.got.tgz:1849.got - 2010.04.06 17:53:44.
