data_PCOD8316940
_publ_section_title
;
Structure prediction by ZEFSAII (Michael W. Deem and Ramdas Pophale) SiO2 
 PCOD8316940
Probable space group: P 42/N B C
;
_chemical_formula_sum "Si O2"
_cell_formula_units_Z 40
_cell_length_a 13.228629
_cell_length_b 13.228629
_cell_length_c 9.430366
_cell_angle_alpha 90.000000
_cell_angle_beta 90.000000
_cell_angle_gamma 90.000000
_cell_volume 1650.282225
_symmetry_space_group_name_H-M "P 42/N B C"
_symmetry_group_IT_number 133
_space_group.IT_coordinate_system_code '2'
_symmetry_cell_setting 'tetragonal'
loop_
_space_group_symop_operation_xyz
x,y,z
1/2-y,x,1/2+z
1/2-x,1/2-y,z
y,1/2-x,1/2+z
x,1/2-y,-z
1/2-x,y,-z
y,x,1/2-z
1/2-y,1/2-x,1/2-z
-x,-y,-z
1/2+y,-x,1/2-z
1/2+x,1/2+y,-z
-y,1/2+x,1/2-z
-x,1/2+y,z
1/2+x,-y,z
-y,-x,1/2+z
1/2+y,1/2+x,1/2+z
loop_
_atom_site_type_symbol
_atom_site_label
_atom_site_fract_x
_atom_site_fract_y
_atom_site_fract_z
Si Si1 0.458892 0.408190 0.091972
Si Si2 0.554929 0.750000 0.500000
Si Si3 0.264646 0.590276 0.258916
O O1 0.449803 0.449803 0.250000
O O2 0.532183 0.310435 0.102848
O O3 0.500000 0.500000 0.000000
O O4 0.349241 0.376117 0.027856
O O5 0.486332 0.730240 0.362556
O O6 0.166187 0.651890 0.309050
#
# Coordination Sequence:
#
# PCOD8316940 Si02
#       3
#    16   8  16
#     4  10  20  38  59  91 137 183 229 293 356 430
#     4  10  20  37  60  90 137 178 240 280 363 439
#     4  10  20  34  57  94 139 180 243 300 362 429
#
# _framework density 24.238278000000001
#
# number of rings (size 3 to 8) (size 9 to 14) (size 15 to 20)
#    0.000    2.000    4.000    0.000    0.000    3.200 
#    0.000    0.000    0.000    0.000    0.000   30.800 
#    0.000    0.000    0.000    0.000    0.000   70.800 
#
# Total GULP energy -495717.395112 kJ/mol
# GULP energy per Si atom -12392.934878 kJ/mol
# Density = 2.418311 g / cm^3
# Si number density = 24.238278 Si / 1000 Ang^3
#
#
#
# Elastic Constant Matrix: (Units=GPa)
#
#
# Indices 1 2 3 4 5 6 
#
# 1 135.1389 67.6765 46.9070 0.0000 0.0000 0.0000
# 2 67.6765 135.1389 46.9070 0.0000 0.0000 0.0000
# 3 46.9070 46.9070 100.1950 0.0000 0.0000 0.0000
# 4 0.0000 0.0000 0.0000 40.7147 0.0000 0.0000
# 5 0.0000 0.0000 0.0000 0.0000 40.7147 0.0000
# 6 0.0000 0.0000 0.0000 0.0000 0.0000 33.9340
#
#
#
# Elastic Compliance Matrix: (Units=1/GPa)
#
#
# Indices 1 2 3 4 5 6 
#
# 1 0.010558 -0.004265 -0.002946 0.000000 0.000000 0.000000
# 2 -0.004265 0.010558 -0.002946 0.000000 0.000000 0.000000
# 3 -0.002946 -0.002946 0.012739 0.000000 0.000000 0.000000
# 4 0.000000 0.000000 0.000000 0.024561 0.000000 0.000000
# 5 0.000000 0.000000 0.000000 0.000000 0.024561 0.000000
# 6 0.000000 0.000000 0.000000 0.000000 0.000000 0.029469
#
#
# Mechanical properties :
#
#
# Convention : Reuss Voigt Hill
#
# Bulk Modulus (GPa) = 73.85076 77.05041 75.45058
# Shear Modulus (GPa) = 36.42311 37.00484 36.71398
#
# Velocity S-wave (km/s) = 3.88069 3.91155 3.89615
# Velocity P-wave (km/s) = 7.11438 7.22897 7.17191
#
# Compressibility (1/GPa) = 0.01354082
#
# Stress axis : x y z
#
# Youngs Moduli (GPa) = 94.71267 94.71267 78.49778
#
# Poissons Ratio (x) = 0.40393 0.23128
# Poissons Ratio (y) = 0.40393 0.23128
# Poissons Ratio (z) = 0.27905 0.27905
#
# Static dielectric constant tensor:
#      x y z
#    x 4.841090 0.000000 0.000000 
#    y 0.000000 4.841090 0.000000 
#    z 0.000000 0.000000 4.249310 
# 
# 
# High freq. dielectric constant tensor:
#      x y z
#    x 1.959420 0.000000 0.000000 
#    y 0.000000 1.959420 0.000000 
#    z 0.000000 0.000000 1.959260 
# 
# From -- ./inp_files/910.got.cif
#   From: 2010.03.12/outbox.cif.g09.slc.cpg/sg133_1_cif.got.tgz:910.got - 2010.04.06 18:08:06.
