data_PCOD8316596
_publ_section_title
;
Structure prediction by ZEFSAII (Michael W. Deem and Ramdas Pophale) SiO2 
 PCOD8316596
Probable space group: P 42/M C M
;
_chemical_formula_sum "Si O2"
_cell_formula_units_Z 96
_cell_length_a 15.373342
_cell_length_b 15.373342
_cell_length_c 20.395940
_cell_angle_alpha 90.000000
_cell_angle_beta 90.000000
_cell_angle_gamma 90.000000
_cell_volume 4820.369204
_symmetry_space_group_name_H-M "P 42/M C M"
_symmetry_group_IT_number 132
_symmetry_cell_setting 'tetragonal'
loop_
_space_group_symop_operation_xyz
x,y,z
-y,x,1/2+z
-x,-y,z
y,-x,1/2+z
x,-y,1/2-z
-x,y,1/2-z
y,x,-z
-y,-x,-z
-x,-y,-z
y,-x,1/2-z
x,y,-z
-y,x,1/2-z
-x,y,1/2+z
x,-y,1/2+z
-y,-x,z
y,x,z
loop_
_atom_site_type_symbol
_atom_site_label
_atom_site_fract_x
_atom_site_fract_y
_atom_site_fract_z
Si Si1 0.818770 0.318820 0.700767
Si Si2 0.917610 0.687918 0.428801
Si Si3 0.458469 0.678040 0.683418
Si Si4 0.782644 0.080621 0.798474
Si Si5 0.061210 0.426381 0.115391
Si Si6 0.456907 0.784164 0.926001
O O1 0.761373 0.238628 0.668917
O O2 0.760294 0.403675 0.708670
O O3 0.851346 0.289278 0.772098
O O4 0.905002 0.347773 0.661468
O O5 0.908540 0.733990 0.500000
O O6 0.940222 0.758425 0.373473
O O7 0.827916 0.636699 0.412422
O O8 0.996151 0.618795 0.435871
O O9 0.500000 0.640603 0.750000
O O10 0.396973 0.603028 0.652919
O O11 0.526456 0.707167 0.626889
O O12 0.878259 0.121741 0.798096
O O13 0.786201 0.000000 0.750000
O O14 0.143757 0.467343 0.079173
O O15 0.000000 0.500000 0.152102
O O16 0.460316 0.745746 0.000000
#
# Coordination Sequence:
#
# PCOD8316596 Si02
#       6
#    16  16  16  16  16  16
#     4   9  18  33  52  77 110 144 182 231 284 336
#     4  10  19  33  54  82 116 146 178 224 279 336
#     4  10  20  34  53  77 109 149 191 236 282 329
#     4  11  22  37  57  78 104 141 187 233 278 333
#     4   9  16  29  52  81 114 146 181 224 279 337
#     4   9  18  32  53  83 116 148 180 221 279 341
#
# _framework density 19.915486999999999
#
# number of rings (size 3 to 8) (size 9 to 14) (size 15 to 20)
#    0.000    2.333    1.667    1.500    0.000    3.000 
#    0.000    2.500    0.000    4.500    0.000    2.333 
#    0.000    0.000    0.000    0.000    0.000    0.000 
#
# Total GULP energy -1189286.577168 kJ/mol
# GULP energy per Si atom -12388.401845 kJ/mol
# Density = 1.987016 g / cm^3
# Si number density = 19.915487 Si / 1000 Ang^3
#
#
#
# Elastic Constant Matrix: (Units=GPa)
#
#
# Indices 1 2 3 4 5 6 
#
# 1 59.0290 34.3279 45.1999 0.0000 0.0000 0.0000
# 2 34.3279 59.0290 45.1999 0.0000 0.0000 0.0000
# 3 45.1999 45.1999 142.4931 0.0000 0.0000 0.0000
# 4 0.0000 0.0000 0.0000 16.7507 0.0000 0.0000
# 5 0.0000 0.0000 0.0000 0.0000 16.7507 0.0000
# 6 0.0000 0.0000 0.0000 0.0000 0.0000 30.0563
#
#
#
# Elastic Compliance Matrix: (Units=1/GPa)
#
#
# Indices 1 2 3 4 5 6 
#
# 1 0.027972 -0.012512 -0.004904 0.000000 0.000000 0.000000
# 2 -0.012512 0.027972 -0.004904 0.000000 0.000000 0.000000
# 3 -0.004904 -0.004904 0.010129 0.000000 0.000000 0.000000
# 4 0.000000 0.000000 0.000000 0.059699 0.000000 0.000000
# 5 0.000000 0.000000 0.000000 0.000000 0.059699 0.000000
# 6 0.000000 0.000000 0.000000 0.000000 0.000000 0.033271
#
#
# Mechanical properties :
#
#
# Convention : Reuss Voigt Hill
#
# Bulk Modulus (GPa) = 46.65631 56.66740 51.66186
# Shear Modulus (GPa) = 18.48244 21.76643 20.12443
#
# Velocity S-wave (km/s) = 3.04969 3.30955 3.18227
# Velocity P-wave (km/s) = 5.98989 6.56657 6.28485
#
# Compressibility (1/GPa) = 0.02143333
#
# Stress axis : x y z
#
# Youngs Moduli (GPa) = 35.74978 35.74978 98.72485
#
# Poissons Ratio (x) = 0.44729 0.48416
# Poissons Ratio (y) = 0.44729 0.48416
# Poissons Ratio (z) = 0.17532 0.17532
#
# Static dielectric constant tensor:
#      x y z
#    x 3.577170 0.000000 0.000000 
#    y 0.000000 3.577170 0.000000 
#    z 0.000000 0.000000 3.450020 
# 
# 
# High freq. dielectric constant tensor:
#      x y z
#    x 1.764050 0.000000 0.000000 
#    y 0.000000 1.764050 0.000000 
#    z 0.000000 0.000000 1.758830 
# 
# From -- ./inp_files/7911.got.cif
#   From: 2010.03.12/outbox.cif.g09.slc.cpg/sg132_4_cif.got.tgz:7911.got - 2010.04.06 17:53:44.
