data_PCOD8316655
_publ_section_title
;
Structure prediction by ZEFSAII (Michael W. Deem and Ramdas Pophale) SiO2 
 PCOD8316655
Probable space group: P 42/M C M
;
_chemical_formula_sum "Si O2"
_cell_formula_units_Z 104
_cell_length_a 14.346952
_cell_length_b 14.346952
_cell_length_c 25.242575
_cell_angle_alpha 90.000000
_cell_angle_beta 90.000000
_cell_angle_gamma 90.000000
_cell_volume 5195.806225
_symmetry_space_group_name_H-M "P 42/M C M"
_symmetry_group_IT_number 132
_symmetry_cell_setting 'tetragonal'
loop_
_space_group_symop_operation_xyz
x,y,z
-y,x,1/2+z
-x,-y,z
y,-x,1/2+z
x,-y,1/2-z
-x,y,1/2-z
y,x,-z
-y,-x,-z
-x,-y,-z
y,-x,1/2-z
x,y,-z
-y,x,1/2-z
-x,y,1/2+z
x,-y,1/2+z
-y,-x,z
y,x,z
loop_
_atom_site_type_symbol
_atom_site_label
_atom_site_fract_x
_atom_site_fract_y
_atom_site_fract_z
Si Si1 0.254507 0.895754 0.395449
Si Si2 0.000000 0.500000 0.640611
Si Si3 0.397449 0.248405 0.938422
Si Si4 0.395516 0.753429 0.104183
Si Si5 0.401179 0.748784 0.775265
Si Si6 0.342217 0.081447 0.790536
Si Si7 0.066147 0.652388 0.939181
O O1 0.160120 0.839881 0.411773
O O2 0.347484 0.837560 0.409222
O O3 0.257276 0.913404 0.332524
O O4 0.262067 0.995748 0.425408
O O5 0.933577 0.440597 0.679336
O O6 0.943665 0.565963 0.601040
O O7 0.344515 0.344515 0.923783
O O8 0.503976 0.256792 0.922401
O O9 0.389564 0.226008 0.000000
O O10 0.347309 0.652692 0.101139
O O11 0.408342 0.786254 0.164832
O O12 0.326608 0.825038 0.072261
O O13 0.500000 0.729305 0.750000
O O14 0.348574 0.651427 0.772841
O O15 0.344513 0.823512 0.741473
O O16 0.318950 0.000000 0.750000
O O17 0.050305 0.623053 0.000000
#
# Coordination Sequence:
#
# PCOD8316655 Si02
#       7
#    16   8  16  16  16  16  16
#     4  10  21  37  58  85 113 139 174 226 285 340
#     4  10  20  32  52  82 114 138 170 220 278 334
#     4  10  21  37  57  81 111 147 186 228 276 332
#     4  11  24  38  53  78 112 149 192 236 272 318
#     4  11  22  36  53  74 104 143 184 224 266 313
#     4  11  20  33  54  79 108 141 175 216 269 332
#     4  11  21  34  55  80 109 144 182 228 282 336
#
# _framework density 20.016144000000001
#
# number of rings (size 3 to 8) (size 9 to 14) (size 15 to 20)
#    0.000    1.385    0.000    8.308    0.000    4.462 
#    0.000    2.308    0.000    0.462    0.000    1.077 
#    0.000    4.000    0.000    0.000    0.000    0.000 
#
# Total GULP energy -1289374.113057 kJ/mol
# GULP energy per Si atom -12397.828010 kJ/mol
# Density = 1.997059 g / cm^3
# Si number density = 20.016144 Si / 1000 Ang^3
#
#
#
# Elastic Constant Matrix: (Units=GPa)
#
#
# Indices 1 2 3 4 5 6 
#
# 1 80.4963 41.0709 37.6215 0.0000 0.0000 0.0000
# 2 41.0709 80.4963 37.6215 0.0000 0.0000 0.0000
# 3 37.6215 37.6215 122.8999 0.0000 0.0000 0.0000
# 4 0.0000 0.0000 0.0000 29.0845 0.0000 0.0000
# 5 0.0000 0.0000 0.0000 0.0000 29.0845 0.0000
# 6 0.0000 0.0000 0.0000 0.0000 0.0000 26.2441
#
#
#
# Elastic Compliance Matrix: (Units=1/GPa)
#
#
# Indices 1 2 3 4 5 6 
#
# 1 0.017757 -0.007608 -0.003107 0.000000 0.000000 0.000000
# 2 -0.007608 0.017757 -0.003107 0.000000 0.000000 0.000000
# 3 -0.003107 -0.003107 0.010039 0.000000 0.000000 0.000000
# 4 0.000000 0.000000 0.000000 0.034383 0.000000 0.000000
# 5 0.000000 0.000000 0.000000 0.000000 0.034383 0.000000
# 6 0.000000 0.000000 0.000000 0.000000 0.000000 0.038104
#
#
# Mechanical properties :
#
#
# Convention : Reuss Voigt Hill
#
# Bulk Modulus (GPa) = 55.83633 57.39114 56.61374
# Shear Modulus (GPa) = 26.87697 28.05453 27.46575
#
# Velocity S-wave (km/s) = 3.66835 3.74785 3.70831
# Velocity P-wave (km/s) = 6.77485 6.88935 6.83234
#
# Compressibility (1/GPa) = 0.01790949
#
# Stress axis : x y z
#
# Youngs Moduli (GPa) = 56.31726 56.31726 99.61440
#
# Poissons Ratio (x) = 0.42845 0.30947
# Poissons Ratio (y) = 0.42845 0.30947
# Poissons Ratio (z) = 0.17496 0.17496
#
# Static dielectric constant tensor:
#      x y z
#    x 3.617530 0.000000 0.000000 
#    y 0.000000 3.617530 0.000000 
#    z 0.000000 0.000000 3.937180 
# 
# 
# High freq. dielectric constant tensor:
#      x y z
#    x 1.763340 0.000000 0.000000 
#    y 0.000000 1.763340 0.000000 
#    z 0.000000 0.000000 1.805220 
# 
# From -- ./inp_files/9140.got.cif
#   From: 2010.03.12/outbox.cif.g09.slc.cpg/sg132_5_cif.got.tgz:9140.got - 2010.04.06 17:53:44.
