data_PCOD8316305
_publ_section_title
;
Structure prediction by ZEFSAII (Michael W. Deem and Ramdas Pophale) SiO2 
 PCOD8316305
Probable space group: P 42/M M C
;
_chemical_formula_sum "Si O2"
_cell_formula_units_Z 64
_cell_length_a 12.008906
_cell_length_b 12.008906
_cell_length_c 27.703313
_cell_angle_alpha 90.000000
_cell_angle_beta 90.000000
_cell_angle_gamma 90.000000
_cell_volume 3995.200686
_symmetry_space_group_name_H-M "P 42/M M C"
_symmetry_group_IT_number 131
_symmetry_cell_setting 'tetragonal'
loop_
_space_group_symop_operation_xyz
x,y,z
-x,-y,z
-y,x,1/2+z
y,-x,1/2+z
-x,y,-z
x,-y,-z
y,x,1/2-z
-y,-x,1/2-z
-x,-y,-z
x,y,-z
y,-x,1/2-z
-y,x,1/2-z
x,-y,z
-x,y,z
-y,-x,1/2+z
y,x,1/2+z
loop_
_atom_site_type_symbol
_atom_site_label
_atom_site_fract_x
_atom_site_fract_y
_atom_site_fract_z
Si Si1 0.868522 0.500000 0.943446
Si Si2 0.303253 0.271518 0.600835
Si Si3 0.373687 0.368340 0.195996
Si Si4 0.373626 0.500000 0.443056
Si Si5 0.130455 0.125580 0.445223
O O1 0.814918 0.606911 0.918934
O O2 0.000000 0.500000 0.934097
O O3 0.839851 0.500000 0.000000
O O4 0.312498 0.288800 0.658372
O O5 0.311456 0.390677 0.575224
O O6 0.184492 0.216429 0.590006
O O7 0.335341 0.335341 0.250000
O O8 0.369059 0.500000 0.189528
O O9 0.500000 0.327168 0.186112
O O10 0.500000 0.500000 0.422641
O O11 0.373584 0.500000 0.500000
O O12 0.172784 0.144560 0.500000
O O13 0.000000 0.144219 0.442208
O O14 0.161913 0.000000 0.429096
#
# Coordination Sequence:
#
# PCOD8316305 Si02
#       5
#     8  16  16   8  16
#     4  11  22  31  44  73 111 142 167 205 255 308
#     4  12  19  31  51  75 102 134 171 207 256 306
#     4   9  17  31  50  74 101 132 171 206 246 306
#     4  11  20  28  42  71 109 139 156 187 249 316
#     4   9  19  36  55  73  97 135 179 215 248 295
#
# _framework density 16.019220000000001
#
# number of rings (size 3 to 8) (size 9 to 14) (size 15 to 20)
#    0.000    1.750    3.750    4.500    0.000    2.000 
#    0.000    0.625    0.000    5.250    0.000    1.750 
#    0.000    0.000    0.000    0.000    0.000    0.000 
#
# Total GULP energy -793590.751225 kJ/mol
# GULP energy per Si atom -12399.855488 kJ/mol
# Density = 1.598276 g / cm^3
# Si number density = 16.019220 Si / 1000 Ang^3
#
#
#
# Elastic Constant Matrix: (Units=GPa)
#
#
# Indices 1 2 3 4 5 6 
#
# 1 80.1570 46.0923 50.1570 0.0000 0.0000 0.0000
# 2 46.0923 80.1570 50.1570 0.0000 0.0000 0.0000
# 3 50.1570 50.1570 127.5387 0.0000 0.0000 0.0000
# 4 0.0000 0.0000 0.0000 20.7958 0.0000 0.0000
# 5 0.0000 0.0000 0.0000 0.0000 20.7958 0.0000
# 6 0.0000 0.0000 0.0000 0.0000 0.0000 31.3571
#
#
#
# Elastic Compliance Matrix: (Units=1/GPa)
#
#
# Indices 1 2 3 4 5 6 
#
# 1 0.020438 -0.008918 -0.004531 0.000000 0.000000 0.000000
# 2 -0.008918 0.020438 -0.004531 0.000000 0.000000 0.000000
# 3 -0.004531 -0.004531 0.011404 0.000000 0.000000 0.000000
# 4 0.000000 0.000000 0.000000 0.048087 0.000000 0.000000
# 5 0.000000 0.000000 0.000000 0.000000 0.048087 0.000000
# 6 0.000000 0.000000 0.000000 0.000000 0.000000 0.031891
#
#
# Mechanical properties :
#
#
# Convention : Reuss Voigt Hill
#
# Bulk Modulus (GPa) = 61.26343 64.51836 62.89089
# Shear Modulus (GPa) = 22.54851 24.01953 23.28402
#
# Velocity S-wave (km/s) = 3.75586 3.87643 3.81662
# Velocity P-wave (km/s) = 7.55879 7.77166 7.66596
#
# Compressibility (1/GPa) = 0.01632295
#
# Stress axis : x y z
#
# Youngs Moduli (GPa) = 48.92752 48.92752 87.68551
#
# Poissons Ratio (x) = 0.43631 0.39728
# Poissons Ratio (y) = 0.43631 0.39728
# Poissons Ratio (z) = 0.22168 0.22168
#
# Static dielectric constant tensor:
#      x y z
#    x 2.973590 0.000000 0.000000 
#    y 0.000000 2.973590 0.000000 
#    z 0.000000 0.000000 3.208670 
# 
# 
# High freq. dielectric constant tensor:
#      x y z
#    x 1.603900 0.000000 0.000000 
#    y 0.000000 1.603900 0.000000 
#    z 0.000000 0.000000 1.610990 
# 
# From -- ./inp_files/11958.got.cif
#   From: 2010.03.12/outbox.cif.g09.slc.cpg/sg131_6_cif.got.tgz:11958.got - 2010.04.06 17:36:35.
