data_PCOD8316120
_publ_section_title
;
Structure prediction by ZEFSAII (Michael W. Deem and Ramdas Pophale) SiO2 
 PCOD8316120
Probable space group: P 42/M M C
;
_chemical_formula_sum "Si O2"
_cell_formula_units_Z 72
_cell_length_a 20.536836
_cell_length_b 20.536836
_cell_length_c 9.761670
_cell_angle_alpha 90.000000
_cell_angle_beta 90.000000
_cell_angle_gamma 90.000000
_cell_volume 4117.097879
_symmetry_space_group_name_H-M "P 42/M M C"
_symmetry_group_IT_number 131
_symmetry_cell_setting 'tetragonal'
loop_
_space_group_symop_operation_xyz
x,y,z
-x,-y,z
-y,x,1/2+z
y,-x,1/2+z
-x,y,-z
x,-y,-z
y,x,1/2-z
-y,-x,1/2-z
-x,-y,-z
x,y,-z
y,-x,1/2-z
-y,x,1/2-z
x,-y,z
-x,y,z
-y,-x,1/2+z
y,x,1/2+z
loop_
_atom_site_type_symbol
_atom_site_label
_atom_site_fract_x
_atom_site_fract_y
_atom_site_fract_z
Si Si1 0.000000 0.425071 0.836605
Si Si2 0.682554 0.096635 0.656503
Si Si3 0.829946 0.075370 0.661822
Si Si4 0.678496 0.756182 0.345469
Si Si5 0.653010 0.426713 0.156274
O O1 0.059487 0.380108 0.780661
O O2 0.000000 0.500000 0.776299
O O3 0.000000 0.431962 0.000000
O O4 0.688816 0.074661 0.500000
O O5 0.755065 0.083440 0.717659
O O6 0.660387 0.169940 0.676186
O O7 0.877952 0.122049 0.750000
O O8 0.834771 0.094518 0.500000
O O9 0.850916 0.000000 0.683332
O O10 0.739458 0.739458 0.250000
O O11 0.699836 0.740886 0.500000
O O12 0.615601 0.715248 0.300949
O O13 0.591590 0.408411 0.250000
O O14 0.673928 0.500000 0.184321
O O15 0.632162 0.415040 0.000000
#
# Coordination Sequence:
#
# PCOD8316120 Si02
#       5
#     8  16  16  16  16
#     4   9  16  26  44  72 102 129 158 192 237 295
#     4   9  16  29  47  69  99 131 160 195 244 292
#     4  10  20  34  52  73 102 136 169 210 254 297
#     4   9  17  29  47  69  93 121 154 193 234 279
#     4   9  18  31  45  64  91 120 152 192 236 281
#
# _framework density 17.488046000000001
#
# number of rings (size 3 to 8) (size 9 to 14) (size 15 to 20)
#    0.000    2.778    1.111    0.667    0.000    2.222 
#    0.000    6.667    0.000    0.000    0.000    0.000 
#    0.000    6.222    0.000    0.000    0.000    0.000 
#
# Total GULP energy -891960.589822 kJ/mol
# GULP energy per Si atom -12388.341525 kJ/mol
# Density = 1.744824 g / cm^3
# Si number density = 17.488046 Si / 1000 Ang^3
#
#
#
# Elastic Constant Matrix: (Units=GPa)
#
#
# Indices 1 2 3 4 5 6 
#
# 1 110.8717 62.9420 40.5609 0.0000 0.0000 0.0000
# 2 62.9420 110.8663 40.5623 0.0000 0.0000 0.0000
# 3 40.5609 40.5623 40.6403 0.0000 0.0000 0.0000
# 4 0.0000 0.0000 0.0000 19.3731 0.0000 0.0000
# 5 0.0000 0.0000 0.0000 0.0000 19.3733 0.0000
# 6 0.0000 0.0000 0.0000 0.0000 0.0000 20.4889
#
#
#
# Elastic Compliance Matrix: (Units=1/GPa)
#
#
# Indices 1 2 3 4 5 6 
#
# 1 0.015817 -0.005047 -0.010748 0.000000 0.000000 0.000000
# 2 -0.005047 0.015819 -0.010751 0.000000 0.000000 0.000000
# 3 -0.010748 -0.010751 0.046064 0.000000 0.000000 0.000000
# 4 0.000000 0.000000 0.000000 0.051618 0.000000 0.000000
# 5 0.000000 0.000000 0.000000 0.000000 0.051618 0.000000
# 6 0.000000 0.000000 0.000000 0.000000 0.000000 0.048807
#
#
# Mechanical properties :
#
#
# Convention : Reuss Voigt Hill
#
# Bulk Modulus (GPa) = 40.64017 61.16762 50.90389
# Shear Modulus (GPa) = 17.17988 19.73457 18.45723
#
# Velocity S-wave (km/s) = 3.13769 3.36290 3.25225
# Velocity P-wave (km/s) = 6.03457 7.08036 6.57828
#
# Compressibility (1/GPa) = 0.02460620
#
# Stress axis : x y z
#
# Youngs Moduli (GPa) = 63.22340 63.21595 21.70890
#
# Poissons Ratio (x) = 0.31906 0.23334
# Poissons Ratio (y) = 0.31910 0.23339
# Poissons Ratio (z) = 0.67956 0.67964
#
# Static dielectric constant tensor:
#      x y z
#    x 3.411730 0.000000 0.000000 
#    y 0.000000 3.411730 0.000000 
#    z 0.000000 0.000000 3.005820 
# 
# 
# High freq. dielectric constant tensor:
#      x y z
#    x 1.682750 0.000000 0.000000 
#    y 0.000000 1.682760 0.000000 
#    z 0.000000 0.000000 1.631690 
# 
# From -- ./inp_files/1784.got.cif
#   From: 2010.03.12/outbox.cif.g09.slc.cpg/sg131_1_cif.got.tgz:1784.got - 2010.04.06 17:36:35.
