data_PCOD8316000
_publ_section_title
;
Structure prediction by ZEFSAII (Michael W. Deem and Ramdas Pophale) SiO2 
 PCOD8316000
Probable space group: P 42/M M C
;
_chemical_formula_sum "Si O2"
_cell_formula_units_Z 72
_cell_length_a 11.735466
_cell_length_b 11.735466
_cell_length_c 30.060585
_cell_angle_alpha 90.000000
_cell_angle_beta 90.000000
_cell_angle_gamma 90.000000
_cell_volume 4139.978704
_symmetry_space_group_name_H-M "P 42/M M C"
_symmetry_group_IT_number 131
_symmetry_cell_setting 'tetragonal'
loop_
_space_group_symop_operation_xyz
x,y,z
-x,-y,z
-y,x,1/2+z
y,-x,1/2+z
-x,y,-z
x,-y,-z
y,x,1/2-z
-y,-x,1/2-z
-x,-y,-z
x,y,-z
y,-x,1/2-z
-y,x,1/2-z
x,-y,z
-x,y,z
-y,-x,1/2+z
y,x,1/2+z
loop_
_atom_site_type_symbol
_atom_site_label
_atom_site_fract_x
_atom_site_fract_y
_atom_site_fract_z
Si Si1 0.760559 0.221534 0.949105
Si Si2 0.242846 0.366447 0.710271
Si Si3 0.127588 0.000000 0.552798
Si Si4 0.632670 0.369036 0.619439
Si Si5 0.364389 0.000000 0.078681
Si Si6 0.000000 0.634243 0.320910
O O1 0.709975 0.324021 0.920282
O O2 0.681514 0.110632 0.946294
O O3 0.887458 0.194130 0.931086
O O4 0.764250 0.263146 0.000000
O O5 0.296697 0.296697 0.750000
O O6 0.255519 0.500000 0.720654
O O7 0.305294 0.334071 0.664727
O O8 0.111593 0.327128 0.706063
O O9 0.117556 0.000000 0.500000
O O10 0.000000 0.000000 0.573215
O O11 0.660148 0.500000 0.607425
O O12 0.500000 0.347863 0.626289
O O13 0.500000 0.000000 0.076430
O O14 0.316271 0.000000 0.129128
O O15 0.000000 0.500000 0.326638
#
# Coordination Sequence:
#
# PCOD8316000 Si02
#       6
#    16  16   8  16   8   8
#     4  11  21  34  54  79 110 147 188 229 270 321
#     4  10  19  34  57  81 106 138 178 221 268 326
#     4   9  18  34  52  73 101 139 185 229 268 309
#     4  10  21  36  54  80 113 145 179 223 276 331
#     4  11  19  31  53  83 113 141 176 223 278 329
#     4   9  18  33  54  80 111 142 170 216 276 318
#
# _framework density 17.391394999999999
#
# number of rings (size 3 to 8) (size 9 to 14) (size 15 to 20)
#    0.000    1.889    3.333    1.667    0.000    3.778 
#    0.000    2.778    0.000    2.333    0.000    0.000 
#    0.000    0.000    0.000    0.000    0.000    0.000 
#
# Total GULP energy -892937.281635 kJ/mol
# GULP energy per Si atom -12401.906689 kJ/mol
# Density = 1.735181 g / cm^3
# Si number density = 17.391395 Si / 1000 Ang^3
#
#
#
# Elastic Constant Matrix: (Units=GPa)
#
#
# Indices 1 2 3 4 5 6 
#
# 1 106.5600 45.9731 53.4900 0.0000 0.0000 0.0000
# 2 45.9731 106.5600 53.4900 0.0000 0.0000 0.0000
# 3 53.4900 53.4900 103.0891 0.0000 0.0000 0.0000
# 4 0.0000 0.0000 0.0000 5.0494 0.0000 0.0000
# 5 0.0000 0.0000 0.0000 0.0000 5.0494 0.0000
# 6 0.0000 0.0000 0.0000 0.0000 0.0000 27.7564
#
#
#
# Elastic Compliance Matrix: (Units=1/GPa)
#
#
# Indices 1 2 3 4 5 6 
#
# 1 0.013406 -0.003099 -0.005348 0.000000 0.000000 0.000000
# 2 -0.003099 0.013406 -0.005348 0.000000 0.000000 0.000000
# 3 -0.005348 -0.005348 0.015250 0.000000 0.000000 0.000000
# 4 0.000000 0.000000 0.000000 0.198043 0.000000 0.000000
# 5 0.000000 0.000000 0.000000 0.000000 0.198043 0.000000
# 6 0.000000 0.000000 0.000000 0.000000 0.000000 0.036028
#
#
# Mechanical properties :
#
#
# Convention : Reuss Voigt Hill
#
# Bulk Modulus (GPa) = 69.09881 69.12394 69.11138
# Shear Modulus (GPa) = 9.86992 18.45478 14.16235
#
# Velocity S-wave (km/s) = 2.38485 3.26105 2.85674
# Velocity P-wave (km/s) = 6.88485 7.34926 7.12084
#
# Compressibility (1/GPa) = 0.01447203
#
# Stress axis : x y z
#
# Youngs Moduli (GPa) = 74.59362 74.59362 65.57350
#
# Poissons Ratio (x) = 0.23118 0.35068
# Poissons Ratio (y) = 0.23118 0.35068
# Poissons Ratio (z) = 0.39892 0.39892
#
# Static dielectric constant tensor:
#      x y z
#    x 3.379180 0.000000 0.000000 
#    y 0.000000 3.379180 0.000000 
#    z 0.000000 0.000000 3.158490 
# 
# 
# High freq. dielectric constant tensor:
#      x y z
#    x 1.666560 0.000000 0.000000 
#    y 0.000000 1.666560 0.000000 
#    z 0.000000 0.000000 1.662680 
# 
# From -- ./inp_files/12189.got.cif
#   From: 2010.03.12/outbox.cif.g09.slc.cpg/sg131_7_cif.got.tgz:12189.got - 2010.04.06 17:36:35.
