data_PCOD8316784
_publ_section_title
;
Structure prediction by ZEFSAII (Michael W. Deem and Ramdas Pophale) SiO2 
 PCOD8316784
Probable space group: P 42/M C M
;
_chemical_formula_sum "Si O2"
_cell_formula_units_Z 88
_cell_length_a 18.683749
_cell_length_b 18.683749
_cell_length_c 13.748950
_cell_angle_alpha 90.000000
_cell_angle_beta 90.000000
_cell_angle_gamma 90.000000
_cell_volume 4799.517518
_symmetry_space_group_name_H-M "P 42/M C M"
_symmetry_group_IT_number 132
_symmetry_cell_setting 'tetragonal'
loop_
_space_group_symop_operation_xyz
x,y,z
-y,x,1/2+z
-x,-y,z
y,-x,1/2+z
x,-y,1/2-z
-x,y,1/2-z
y,x,-z
-y,-x,-z
-x,-y,-z
y,-x,1/2-z
x,y,-z
-y,x,1/2-z
-x,y,1/2+z
x,-y,1/2+z
-y,-x,z
y,x,z
loop_
_atom_site_type_symbol
_atom_site_label
_atom_site_fract_x
_atom_site_fract_y
_atom_site_fract_z
Si Si1 0.916012 0.342415 0.266265
Si Si2 0.556693 0.830816 0.109276
Si Si3 0.581366 0.697979 0.238475
Si Si4 0.187323 0.390781 0.610673
Si Si5 0.884718 0.000000 0.750000
Si Si6 0.086876 0.794700 0.390443
O O1 0.895850 0.412491 0.327758
O O2 0.872264 0.341955 0.164449
O O3 0.892025 0.273905 0.327776
O O4 0.000000 0.342127 0.250000
O O5 0.583692 0.755269 0.151514
O O6 0.471990 0.839903 0.114615
O O7 0.585505 0.835868 0.000000
O O8 0.500000 0.670187 0.250000
O O9 0.630313 0.630313 0.211854
O O10 0.611970 0.735666 0.336149
O O11 0.196019 0.363480 0.500000
O O12 0.835787 0.019860 0.657900
O O13 0.933208 0.066793 0.783340
O O14 0.064276 0.773211 0.500000
O O15 0.156440 0.843560 0.392069
#
# Coordination Sequence:
#
# PCOD8316784 Si02
#       6
#    16  16  16  16   8  16
#     4  11  21  34  52  81 108 137 170 221 273 316
#     4   9  19  36  55  75 101 139 183 219 262 316
#     4   9  18  33  54  80 109 139 176 221 267 318
#     4   9  20  37  54  73 103 143 183 220 259 316
#     4   9  18  36  60  82 103 132 172 212 251 306
#     4  10  21  37  55  78 109 141 172 210 259 312
#
# _framework density 18.335176000000001
#
# number of rings (size 3 to 8) (size 9 to 14) (size 15 to 20)
#    0.000    2.455    0.909    2.182    0.000    7.091 
#    0.000    3.636    0.000    0.000    0.000    5.091 
#    0.000    0.000    0.000    0.000    0.000    0.000 
#
# Total GULP energy -1091159.919017 kJ/mol
# GULP energy per Si atom -12399.544534 kJ/mol
# Density = 1.829344 g / cm^3
# Si number density = 18.335176 Si / 1000 Ang^3
#
#
#
# Elastic Constant Matrix: (Units=GPa)
#
#
# Indices 1 2 3 4 5 6 
#
# 1 66.6873 34.3445 35.3337 0.0000 0.0000 0.0000
# 2 34.3445 66.6873 35.3337 0.0000 0.0000 0.0000
# 3 35.3337 35.3337 140.1136 0.0000 0.0000 0.0000
# 4 0.0000 0.0000 0.0000 23.8085 0.0000 0.0000
# 5 0.0000 0.0000 0.0000 0.0000 23.8085 0.0000
# 6 0.0000 0.0000 0.0000 0.0000 0.0000 15.4410
#
#
#
# Elastic Compliance Matrix: (Units=1/GPa)
#
#
# Indices 1 2 3 4 5 6 
#
# 1 0.021468 -0.009451 -0.003031 0.000000 0.000000 0.000000
# 2 -0.009451 0.021468 -0.003031 0.000000 0.000000 0.000000
# 3 -0.003031 -0.003031 0.008666 0.000000 0.000000 0.000000
# 4 0.000000 0.000000 0.000000 0.042002 0.000000 0.000000
# 5 0.000000 0.000000 0.000000 0.000000 0.042002 0.000000
# 6 0.000000 0.000000 0.000000 0.000000 0.000000 0.064763
#
#
# Mechanical properties :
#
#
# Convention : Reuss Voigt Hill
#
# Bulk Modulus (GPa) = 48.59448 53.72358 51.15903
# Shear Modulus (GPa) = 20.98627 23.84337 22.41482
#
# Velocity S-wave (km/s) = 3.38685 3.61004 3.50023
# Velocity P-wave (km/s) = 6.46957 6.83674 6.65568
#
# Compressibility (1/GPa) = 0.02057847
#
# Stress axis : x y z
#
# Youngs Moduli (GPa) = 46.58052 46.58052 115.39918
#
# Poissons Ratio (x) = 0.44021 0.34973
# Poissons Ratio (y) = 0.44021 0.34973
# Poissons Ratio (z) = 0.14117 0.14117
#
# Static dielectric constant tensor:
#      x y z
#    x 3.289210 0.000000 0.000000 
#    y 0.000000 3.289210 0.000000 
#    z 0.000000 0.000000 3.718770 
# 
# 
# High freq. dielectric constant tensor:
#      x y z
#    x 1.702380 0.000000 0.000000 
#    y 0.000000 1.702380 0.000000 
#    z 0.000000 0.000000 1.718240 
# 
# From -- ./inp_files/4759.got.cif
#   From: 2010.03.12/outbox.cif.g09.slc.cpg/sg132_3_cif.got.tgz:4759.got - 2010.04.06 17:53:44.
