data_PCOD8316341
_publ_section_title
;
Structure prediction by ZEFSAII (Michael W. Deem and Ramdas Pophale) SiO2 
 PCOD8316341
Probable space group: P 42/M M C
;
_chemical_formula_sum "Si O2"
_cell_formula_units_Z 42
_cell_length_a 10.816450
_cell_length_b 10.816450
_cell_length_c 16.793089
_cell_angle_alpha 90.000000
_cell_angle_beta 90.000000
_cell_angle_gamma 90.000000
_cell_volume 1964.717366
_symmetry_space_group_name_H-M "P 42/M M C"
_symmetry_group_IT_number 131
_symmetry_cell_setting 'tetragonal'
loop_
_space_group_symop_operation_xyz
x,y,z
-x,-y,z
-y,x,1/2+z
y,-x,1/2+z
-x,y,-z
x,-y,-z
y,x,1/2-z
-y,-x,1/2-z
-x,-y,-z
x,y,-z
y,-x,1/2-z
-y,x,1/2-z
x,-y,z
-x,y,z
-y,-x,1/2+z
y,x,1/2+z
loop_
_atom_site_type_symbol
_atom_site_label
_atom_site_fract_x
_atom_site_fract_y
_atom_site_fract_z
Si Si1 0.234667 0.500000 0.318649
Si Si2 0.500000 0.500000 0.750000
Si Si3 0.500000 0.854145 0.356908
Si Si4 0.247436 0.249845 0.407625
Si Si5 0.000000 0.143209 0.911812
O O1 0.381143 0.500000 0.306046
O O2 0.155962 0.500000 0.238188
O O3 0.199791 0.374816 0.365574
O O4 0.609360 0.775710 0.395151
O O5 0.500000 0.000000 0.381079
O O6 0.212896 0.264940 0.500000
O O7 0.182977 0.127511 0.368502
O O8 0.000000 0.000000 0.919835
O O9 0.000000 0.205685 0.000000
#
# Coordination Sequence:
#
# PCOD8316341 Si02
#       5
#     8   2   8  16   8
#     4  12  23  41  60  92 133 171 211 262 339 398
#     4  12  20  36  58  76 120 168 190 248 324 400
#     4  12  23  38  63  92 130 166 214 267 328 389
#     4  11  22  39  66  95 125 168 220 270 323 387
#     4   9  20  39  63  91 125 160 207 270 325 376
#
# _framework density 21.377120000000001
#
# number of rings (size 3 to 8) (size 9 to 14) (size 15 to 20)
#    0.000    0.952    5.714    1.143    0.000    2.286 
#    0.000    2.857    0.000    5.714    0.000    0.000 
#    0.000    0.000    0.000    0.000    0.000    0.000 
#
# Total GULP energy -520561.720479 kJ/mol
# GULP energy per Si atom -12394.326678 kJ/mol
# Density = 2.132846 g / cm^3
# Si number density = 21.377120 Si / 1000 Ang^3
#
#
#
# Elastic Constant Matrix: (Units=GPa)
#
#
# Indices 1 2 3 4 5 6 
#
# 1 125.8989 20.6016 15.3964 0.0000 0.0000 0.0000
# 2 20.6016 125.8989 15.3964 0.0000 0.0000 0.0000
# 3 15.3964 15.3964 59.8883 0.0000 0.0000 0.0000
# 4 0.0000 0.0000 0.0000 10.9613 0.0000 0.0000
# 5 0.0000 0.0000 0.0000 0.0000 10.9613 0.0000
# 6 0.0000 0.0000 0.0000 0.0000 0.0000 8.2521
#
#
#
# Elastic Compliance Matrix: (Units=1/GPa)
#
#
# Indices 1 2 3 4 5 6 
#
# 1 0.008356 -0.001141 -0.001855 0.000000 0.000000 0.000000
# 2 -0.001141 0.008356 -0.001855 0.000000 0.000000 0.000000
# 3 -0.001855 -0.001855 0.017652 0.000000 0.000000 0.000000
# 4 0.000000 0.000000 0.000000 0.091230 0.000000 0.000000
# 5 0.000000 0.000000 0.000000 0.000000 0.091230 0.000000
# 6 0.000000 0.000000 0.000000 0.000000 0.000000 0.121181
#
#
# Mechanical properties :
#
#
# Convention : Reuss Voigt Hill
#
# Bulk Modulus (GPa) = 40.54674 46.05277 43.29975
# Shear Modulus (GPa) = 14.04779 23.38771 18.71775
#
# Velocity S-wave (km/s) = 2.56626 3.31124 2.96226
# Velocity P-wave (km/s) = 5.27157 6.01738 5.65678
#
# Compressibility (1/GPa) = 0.02466290
#
# Stress axis : x y z
#
# Youngs Moduli (GPa) = 119.66904 119.66904 56.65216
#
# Poissons Ratio (x) = 0.13649 0.10509
# Poissons Ratio (y) = 0.13649 0.10509
# Poissons Ratio (z) = 0.22200 0.22200
#
# Static dielectric constant tensor:
#      x y z
#    x 4.016370 0.000000 0.000000 
#    y 0.000000 4.016370 0.000000 
#    z 0.000000 0.000000 3.806750 
# 
# 
# High freq. dielectric constant tensor:
#      x y z
#    x 1.848430 0.000000 0.000000 
#    y 0.000000 1.848430 0.000000 
#    z 0.000000 0.000000 1.814340 
# 
# From -- ./inp_files/6941.got.cif
#   From: 2010.03.12/outbox.cif.g09.slc.cpg/sg131_4_cif.got.tgz:6941.got - 2010.04.06 17:36:35.
