data_PCOD8316816
_publ_section_title
;
Structure prediction by ZEFSAII (Michael W. Deem and Ramdas Pophale) SiO2 
 PCOD8316816
Probable space group: P 42/M C M
;
_chemical_formula_sum "Si O2"
_cell_formula_units_Z 72
_cell_length_a 15.980892
_cell_length_b 15.980892
_cell_length_c 15.046170
_cell_angle_alpha 90.000000
_cell_angle_beta 90.000000
_cell_angle_gamma 90.000000
_cell_volume 3842.624943
_symmetry_space_group_name_H-M "P 42/M C M"
_symmetry_group_IT_number 132
_symmetry_cell_setting 'tetragonal'
loop_
_space_group_symop_operation_xyz
x,y,z
-y,x,1/2+z
-x,-y,z
y,-x,1/2+z
x,-y,1/2-z
-x,y,1/2-z
y,x,-z
-y,-x,-z
-x,-y,-z
y,-x,1/2-z
x,y,-z
-y,x,1/2-z
-x,y,1/2+z
x,-y,1/2+z
-y,-x,z
y,x,z
loop_
_atom_site_type_symbol
_atom_site_label
_atom_site_fract_x
_atom_site_fract_y
_atom_site_fract_z
Si Si1 0.168368 0.692803 0.397599
Si Si2 0.068117 0.931883 0.895114
Si Si3 0.733200 0.403578 0.256968
Si Si4 0.992294 0.243404 0.103030
Si Si5 0.181537 0.684189 0.099668
O O1 0.162956 0.662801 0.500000
O O2 0.225795 0.774206 0.387400
O O3 0.205961 0.616668 0.340022
O O4 0.077620 0.717862 0.356598
O O5 0.035234 0.844698 0.852675
O O6 0.081685 0.918316 0.000000
O O7 0.000000 0.000000 0.871540
O O8 0.709338 0.500000 0.250000
O O9 0.647207 0.352794 0.267025
O O10 0.779974 0.382488 0.165877
O O11 0.917273 0.308723 0.117595
O O12 0.011550 0.226948 0.000000
O O13 0.224617 0.775384 0.112888
O O14 0.197993 0.651341 0.000000
#
# Coordination Sequence:
#
# PCOD8316816 Si02
#       5
#    16   8  16  16  16
#     4   9  18  33  52  76 110 148 179 211 256 310
#     4   9  14  20  38  72 108 140 184 232 256 277
#     4  10  22  39  59  81 100 127 166 213 274 335
#     4   9  15  26  46  74 106 145 187 218 249 288
#     4   9  17  32  53  77 106 141 178 215 254 300
#
# _framework density 18.737193000000001
#
# number of rings (size 3 to 8) (size 9 to 14) (size 15 to 20)
#    0.000    2.778    1.111    0.667    0.000    4.667 
#    0.000    2.222    0.000    4.000    0.000    6.222 
#    0.000    0.000    0.000    0.000    0.000    0.000 
#
# Total GULP energy -892610.523384 kJ/mol
# GULP energy per Si atom -12397.368380 kJ/mol
# Density = 1.869455 g / cm^3
# Si number density = 18.737193 Si / 1000 Ang^3
#
#
#
# Elastic Constant Matrix: (Units=GPa)
#
#
# Indices 1 2 3 4 5 6 
#
# 1 123.4380 50.2107 41.2506 0.0000 0.0000 0.0000
# 2 50.2107 123.4380 41.2506 0.0000 0.0000 0.0000
# 3 41.2506 41.2506 77.7070 0.0000 0.0000 0.0000
# 4 0.0000 0.0000 0.0000 15.9571 0.0000 0.0000
# 5 0.0000 0.0000 0.0000 0.0000 15.9571 0.0000
# 6 0.0000 0.0000 0.0000 0.0000 0.0000 13.2054
#
#
#
# Elastic Compliance Matrix: (Units=1/GPa)
#
#
# Indices 1 2 3 4 5 6 
#
# 1 0.010679 -0.002978 -0.004088 0.000000 0.000000 0.000000
# 2 -0.002978 0.010679 -0.004088 0.000000 0.000000 0.000000
# 3 -0.004088 -0.004088 0.017209 0.000000 0.000000 0.000000
# 4 0.000000 0.000000 0.000000 0.062668 0.000000 0.000000
# 5 0.000000 0.000000 0.000000 0.000000 0.062668 0.000000
# 6 0.000000 0.000000 0.000000 0.000000 0.000000 0.075726
#
#
# Mechanical properties :
#
#
# Convention : Reuss Voigt Hill
#
# Bulk Modulus (GPa) = 61.50479 65.55631 63.53055
# Shear Modulus (GPa) = 18.70168 21.81533 20.25851
#
# Velocity S-wave (km/s) = 3.16271 3.41586 3.29172
# Velocity P-wave (km/s) = 6.79950 7.11482 6.95895
#
# Compressibility (1/GPa) = 0.01625890
#
# Stress axis : x y z
#
# Youngs Moduli (GPa) = 93.64554 93.64561 58.10865
#
# Poissons Ratio (x) = 0.27883 0.23755
# Poissons Ratio (y) = 0.27883 0.23755
# Poissons Ratio (z) = 0.38283 0.38283
#
# Static dielectric constant tensor:
#      x y z
#    x 3.219250 0.000000 0.000000 
#    y 0.000000 3.219250 0.000000 
#    z 0.000000 0.000000 3.434990 
# 
# 
# High freq. dielectric constant tensor:
#      x y z
#    x 1.708380 0.000000 0.000000 
#    y 0.000000 1.708380 0.000000 
#    z 0.000000 0.000000 1.719150 
# 
# From -- ./inp_files/6176.got.cif
#   From: 2010.03.12/outbox.cif.g09.slc.cpg/sg132_4_cif.got.tgz:6176.got - 2010.04.06 17:53:44.
