data_PCOD8316453
_publ_section_title
;
Structure prediction by ZEFSAII (Michael W. Deem and Ramdas Pophale) SiO2 
 PCOD8316453
Probable space group: P 42/M C M
;
_chemical_formula_sum "Si O2"
_cell_formula_units_Z 64
_cell_length_a 14.064277
_cell_length_b 14.064277
_cell_length_c 16.678656
_cell_angle_alpha 90.000000
_cell_angle_beta 90.000000
_cell_angle_gamma 90.000000
_cell_volume 3299.102996
_symmetry_space_group_name_H-M "P 42/M C M"
_symmetry_group_IT_number 132
_symmetry_cell_setting 'tetragonal'
loop_
_space_group_symop_operation_xyz
x,y,z
-y,x,1/2+z
-x,-y,z
y,-x,1/2+z
x,-y,1/2-z
-x,y,1/2-z
y,x,-z
-y,-x,-z
-x,-y,-z
y,-x,1/2-z
x,y,-z
-y,x,1/2-z
-x,y,1/2+z
x,-y,1/2+z
-y,-x,z
y,x,z
loop_
_atom_site_type_symbol
_atom_site_label
_atom_site_fract_x
_atom_site_fract_y
_atom_site_fract_z
Si Si1 0.685116 0.468065 0.409814
Si Si2 0.318264 0.825552 0.644750
Si Si3 0.412643 0.807176 0.801935
Si Si4 0.019990 0.610978 0.909067
O O1 0.672164 0.508457 0.500000
O O2 0.589470 0.410530 0.383491
O O3 0.775780 0.397670 0.411215
O O4 0.709802 0.553559 0.347672
O O5 0.213612 0.786388 0.619496
O O6 0.331762 0.788842 0.736371
O O7 0.326625 0.938507 0.634387
O O8 0.500000 0.851830 0.750000
O O9 0.369978 0.880642 0.865712
O O10 0.000000 0.500000 0.904152
O O11 0.028491 0.646419 0.000000
#
# Coordination Sequence:
#
# PCOD8316453 Si02
#       4
#    16  16  16  16
#     4   9  16  26  42  66  96 130 170 214 258 301
#     4  10  20  30  43  66 100 137 169 209 258 304
#     4  10  18  28  46  68  99 130 167 211 255 302
#     4  11  19  28  46  72  99 129 163 205 255 306
#
# _framework density 19.399213
#
# number of rings (size 3 to 8) (size 9 to 14) (size 15 to 20)
#    0.000    2.000    5.000    2.250    0.000    1.500 
#    0.000    0.000    0.000    3.750    0.000    7.000 
#    0.000    9.000    0.000   11.750    0.000    0.000 
#
# Total GULP energy -792950.010386 kJ/mol
# GULP energy per Si atom -12389.843912 kJ/mol
# Density = 1.935506 g / cm^3
# Si number density = 19.399213 Si / 1000 Ang^3
#
#
#
# Elastic Constant Matrix: (Units=GPa)
#
#
# Indices 1 2 3 4 5 6 
#
# 1 49.9057 47.5092 31.4807 0.0000 0.0000 0.0000
# 2 47.5092 49.9057 31.4807 0.0000 0.0000 0.0000
# 3 31.4807 31.4807 127.3685 0.0000 0.0000 0.0000
# 4 0.0000 0.0000 0.0000 11.0352 0.0000 0.0000
# 5 0.0000 0.0000 0.0000 0.0000 11.0352 0.0000
# 6 0.0000 0.0000 0.0000 0.0000 0.0000 26.3300
#
#
#
# Elastic Compliance Matrix: (Units=1/GPa)
#
#
# Indices 1 2 3 4 5 6 
#
# 1 0.214741 -0.202524 -0.003020 0.000000 0.000000 0.000000
# 2 -0.202524 0.214741 -0.003020 0.000000 0.000000 0.000000
# 3 -0.003020 -0.003020 0.009344 0.000000 0.000000 0.000000
# 4 0.000000 0.000000 0.000000 0.090619 0.000000 0.000000
# 5 0.000000 0.000000 0.000000 0.000000 0.090619 0.000000
# 6 0.000000 0.000000 0.000000 0.000000 0.000000 0.037979
#
#
# Mechanical properties :
#
#
# Convention : Reuss Voigt Hill
#
# Bulk Modulus (GPa) = 46.08391 49.79125 47.93758
# Shear Modulus (GPa) = 4.61936 17.46072 11.04004
#
# Velocity S-wave (km/s) = 1.54479 3.00338 2.38816
# Velocity P-wave (km/s) = 5.19509 6.14405 5.68939
#
# Compressibility (1/GPa) = 0.02169955
#
# Stress axis : x y z
#
# Youngs Moduli (GPa) = 4.65678 4.65678 107.02183
#
# Poissons Ratio (x) = 0.94311 0.32316
# Poissons Ratio (y) = 0.94311 0.32316
# Poissons Ratio (z) = 0.01406 0.01406
#
# Static dielectric constant tensor:
#      x y z
#    x 3.234170 0.000000 0.000000 
#    y 0.000000 3.234170 0.000000 
#    z 0.000000 0.000000 3.825080 
# 
# 
# High freq. dielectric constant tensor:
#      x y z
#    x 1.711020 0.000000 0.000000 
#    y 0.000000 1.711020 0.000000 
#    z 0.000000 0.000000 1.773950 
# 
# From -- ./inp_files/5935.got.cif
#   From: 2010.03.12/outbox.cif.g09.slc.cpg/sg132_3_cif.got.tgz:5935.got - 2010.04.06 17:53:44.
