data_PCOD8316534
_publ_section_title
;
Structure prediction by ZEFSAII (Michael W. Deem and Ramdas Pophale) SiO2 
 PCOD8316534
Probable space group: P 42/M C M
;
_chemical_formula_sum "Si O2"
_cell_formula_units_Z 96
_cell_length_a 26.181938
_cell_length_b 26.181938
_cell_length_c 9.017659
_cell_angle_alpha 90.000000
_cell_angle_beta 90.000000
_cell_angle_gamma 90.000000
_cell_volume 6181.550033
_symmetry_space_group_name_H-M "P 42/M C M"
_symmetry_group_IT_number 132
_symmetry_cell_setting 'tetragonal'
loop_
_space_group_symop_operation_xyz
x,y,z
-y,x,1/2+z
-x,-y,z
y,-x,1/2+z
x,-y,1/2-z
-x,y,1/2-z
y,x,-z
-y,-x,-z
-x,-y,-z
y,-x,1/2-z
x,y,-z
-y,x,1/2-z
-x,y,1/2+z
x,-y,1/2+z
-y,-x,z
y,x,z
loop_
_atom_site_type_symbol
_atom_site_label
_atom_site_fract_x
_atom_site_fract_y
_atom_site_fract_z
Si Si1 0.451058 0.751460 0.673383
Si Si2 0.253820 0.336621 0.173476
Si Si3 0.950348 0.435106 0.333342
Si Si4 0.848659 0.318445 0.164890
Si Si5 0.561864 0.146734 0.164499
Si Si6 0.313454 0.051168 0.832862
O O1 0.500000 0.722671 0.750000
O O2 0.457362 0.743678 0.500000
O O3 0.394678 0.732959 0.727745
O O4 0.454876 0.810403 0.719117
O O5 0.303604 0.303604 0.210431
O O6 0.205275 0.310347 0.251912
O O7 0.240712 0.337967 0.000000
O O8 0.948448 0.456754 0.500000
O O9 0.904831 0.459000 0.236732
O O10 0.948625 0.374184 0.337140
O O11 0.000000 0.455236 0.250000
O O12 0.858060 0.377979 0.150467
O O13 0.896961 0.293652 0.251579
O O14 0.845463 0.293992 0.000000
O O15 0.538704 0.156715 0.000000
O O16 0.293488 0.000000 0.750000
O O17 0.291412 0.050889 0.000000
#
# Coordination Sequence:
#
# PCOD8316534 Si02
#       6
#    16  16  16  16  16  16
#     4  10  19  31  47  65  84 105 129 157 190 231
#     4   9  18  32  48  65  86 112 139 166 200 244
#     4   9  15  22  33  50  71  96 127 163 202 240
#     4   9  16  25  38  57  80 105 134 168 206 246
#     4   9  16  26  39  55  75  99 128 161 196 234
#     4   9  15  22  33  50  74 103 135 171 209 247
#
# _framework density 15.530085
#
# number of rings (size 3 to 8) (size 9 to 14) (size 15 to 20)
#    0.000    2.833    0.000    2.500    0.000    9.000 
#    0.000    0.000    0.000    0.500    0.000    3.500 
#    0.000    0.333    0.000    4.167    0.000    0.000 
#
# Total GULP energy -1189576.339111 kJ/mol
# GULP energy per Si atom -12391.420199 kJ/mol
# Density = 1.549474 g / cm^3
# Si number density = 15.530085 Si / 1000 Ang^3
#
#
#
# Elastic Constant Matrix: (Units=GPa)
#
#
# Indices 1 2 3 4 5 6 
#
# 1 64.7615 32.9039 28.3045 0.0000 0.0000 0.0000
# 2 32.9039 64.7615 28.3045 0.0000 0.0000 0.0000
# 3 28.3045 28.3045 90.6041 0.0000 0.0000 0.0000
# 4 0.0000 0.0000 0.0000 16.5499 0.0000 0.0000
# 5 0.0000 0.0000 0.0000 0.0000 16.5499 0.0000
# 6 0.0000 0.0000 0.0000 0.0000 0.0000 1.6218
#
#
#
# Elastic Compliance Matrix: (Units=1/GPa)
#
#
# Indices 1 2 3 4 5 6 
#
# 1 0.021946 -0.009443 -0.003906 0.000000 0.000000 0.000000
# 2 -0.009443 0.021946 -0.003906 0.000000 0.000000 0.000000
# 3 -0.003906 -0.003906 0.013477 0.000000 0.000000 0.000000
# 4 0.000000 0.000000 0.000000 0.060423 0.000000 0.000000
# 5 0.000000 0.000000 0.000000 0.000000 0.060423 0.000000
# 6 0.000000 0.000000 0.000000 0.000000 0.000000 0.616591
#
#
# Mechanical properties :
#
#
# Convention : Reuss Voigt Hill
#
# Bulk Modulus (GPa) = 43.74494 44.35031 44.04763
# Shear Modulus (GPa) = 5.97416 15.65196 10.81306
#
# Velocity S-wave (km/s) = 1.96346 3.17811 2.64155
# Velocity P-wave (km/s) = 5.77661 6.48743 6.14232
#
# Compressibility (1/GPa) = 0.02285979
#
# Stress axis : x y z
#
# Youngs Moduli (GPa) = 45.56579 45.56579 74.19822
#
# Poissons Ratio (x) = 0.43029 0.28981
# Poissons Ratio (y) = 0.43029 0.28981
# Poissons Ratio (z) = 0.17798 0.17798
#
# Static dielectric constant tensor:
#      x y z
#    x 2.778190 0.000000 0.000000 
#    y 0.000000 2.778190 0.000000 
#    z 0.000000 0.000000 3.243620 
# 
# 
# High freq. dielectric constant tensor:
#      x y z
#    x 1.552930 0.000000 0.000000 
#    y 0.000000 1.552930 0.000000 
#    z 0.000000 0.000000 1.615830 
# 
# From -- ./inp_files/1906.got.cif
#   From: 2010.03.12/outbox.cif.g09.slc.cpg/sg132_1_cif.got.tgz:1906.got - 2010.04.06 17:53:44.
