data_PCOD8316110
_publ_section_title
;
Structure prediction by ZEFSAII (Michael W. Deem and Ramdas Pophale) SiO2 
 PCOD8316110
Probable space group: P 42/M M C
;
_chemical_formula_sum "Si O2"
_cell_formula_units_Z 96
_cell_length_a 24.257557
_cell_length_b 24.257557
_cell_length_c 8.763314
_cell_angle_alpha 90.000000
_cell_angle_beta 90.000000
_cell_angle_gamma 90.000000
_cell_volume 5156.588721
_symmetry_space_group_name_H-M "P 42/M M C"
_symmetry_group_IT_number 131
_symmetry_cell_setting 'tetragonal'
loop_
_space_group_symop_operation_xyz
x,y,z
-x,-y,z
-y,x,1/2+z
y,-x,1/2+z
-x,y,-z
x,-y,-z
y,x,1/2-z
-y,-x,1/2-z
-x,-y,-z
x,y,-z
y,-x,1/2-z
-y,x,1/2-z
x,-y,z
-x,y,z
-y,-x,1/2+z
y,x,1/2+z
loop_
_atom_site_type_symbol
_atom_site_label
_atom_site_fract_x
_atom_site_fract_y
_atom_site_fract_z
Si Si1 0.356019 0.857217 0.820010
Si Si2 0.561325 0.644754 0.179248
Si Si3 0.561056 0.767221 0.181740
Si Si4 0.230389 0.853117 0.182440
Si Si5 0.935676 0.853603 0.819560
Si Si6 0.064863 0.438715 0.826816
O O1 0.391570 0.806605 0.750497
O O2 0.293485 0.855595 0.757329
O O3 0.388873 0.912041 0.774481
O O4 0.353251 0.853602 0.000000
O O5 0.603745 0.603745 0.250000
O O6 0.500000 0.626274 0.226763
O O7 0.573347 0.705925 0.242397
O O8 0.568210 0.644112 0.000000
O O9 0.500000 0.786221 0.237292
O O10 0.562141 0.768085 0.000000
O O11 0.201599 0.798402 0.250000
O O12 0.199915 0.907537 0.244504
O O13 0.226627 0.851741 0.000000
O O14 0.908946 0.908946 0.750000
O O15 0.000000 0.853048 0.778392
O O16 0.925341 0.852522 0.000000
O O17 0.082753 0.500000 0.767440
O O18 0.000000 0.433489 0.817137
O O19 0.085282 0.431203 0.000000
#
# Coordination Sequence:
#
# PCOD8316110 Si02
#       6
#    16  16  16  16  16  16
#     4  10  20  33  53  79 101 129 173 216 254 301
#     4   9  18  32  49  69  94 125 159 196 243 297
#     4   8  15  30  50  70  95 126 159 200 250 298
#     4  10  21  36  53  75 105 138 172 212 256 301
#     4  10  21  37  58  82 107 138 173 207 248 297
#     4   9  19  35  52  73 105 140 170 206 255 306
#
# _framework density 18.616959000000001
#
# number of rings (size 3 to 8) (size 9 to 14) (size 15 to 20)
#    0.000    2.667    0.000    4.000    0.000    6.000 
#    0.000    6.667    0.000    1.000    0.000    0.000 
#    0.000    0.000    0.000    0.000    0.000    0.000 
#
# Total GULP energy -1189953.201594 kJ/mol
# GULP energy per Si atom -12395.345850 kJ/mol
# Density = 1.857459 g / cm^3
# Si number density = 18.616959 Si / 1000 Ang^3
#
#
#
# Elastic Constant Matrix: (Units=GPa)
#
#
# Indices 1 2 3 4 5 6 
#
# 1 151.8033 81.7760 36.2440 0.0000 0.0000 0.0000
# 2 81.7760 151.8044 36.2440 0.0000 0.0000 0.0000
# 3 36.2440 36.2440 39.7576 0.0000 0.0000 0.0000
# 4 0.0000 0.0000 0.0000 24.7613 0.0000 0.0000
# 5 0.0000 0.0000 0.0000 0.0000 24.7613 0.0000
# 6 0.0000 0.0000 0.0000 0.0000 0.0000 59.7032
#
#
#
# Elastic Compliance Matrix: (Units=1/GPa)
#
#
# Indices 1 2 3 4 5 6 
#
# 1 0.010125 -0.004155 -0.005443 0.000000 0.000000 0.000000
# 2 -0.004155 0.010125 -0.005443 0.000000 0.000000 0.000000
# 3 -0.005443 -0.005443 0.035076 0.000000 0.000000 0.000000
# 4 0.000000 0.000000 0.000000 0.040386 0.000000 0.000000
# 5 0.000000 0.000000 0.000000 0.000000 0.040386 0.000000
# 6 0.000000 0.000000 0.000000 0.000000 0.000000 0.016750
#
#
# Mechanical properties :
#
#
# Convention : Reuss Voigt Hill
#
# Bulk Modulus (GPa) = 39.61075 72.43258 56.02167
# Shear Modulus (GPa) = 26.13121 34.45191 30.29156
#
# Velocity S-wave (km/s) = 3.75056 4.30649 4.03810
# Velocity P-wave (km/s) = 6.33076 7.98242 7.20408
#
# Compressibility (1/GPa) = 0.02524567
#
# Stress axis : x y z
#
# Youngs Moduli (GPa) = 98.76375 98.76466 28.50982
#
# Poissons Ratio (x) = 0.41036 0.15517
# Poissons Ratio (y) = 0.41035 0.15517
# Poissons Ratio (z) = 0.53754 0.53753
#
# Static dielectric constant tensor:
#      x y z
#    x 3.514060 0.000000 0.000000 
#    y 0.000000 3.514050 0.000000 
#    z 0.000000 0.000000 3.292720 
# 
# 
# High freq. dielectric constant tensor:
#      x y z
#    x 1.727960 0.000000 0.000000 
#    y 0.000000 1.727960 0.000000 
#    z 0.000000 0.000000 1.703880 
# 
# From -- ./inp_files/2287.got.cif
#   From: 2010.03.12/outbox.cif.g09.slc.cpg/sg131_2_cif.got.tgz:2287.got - 2010.04.06 17:36:35.
