data_PCOD8316303
_publ_section_title
;
Structure prediction by ZEFSAII (Michael W. Deem and Ramdas Pophale) SiO2 
 PCOD8316303
Probable space group: P 42/M M C
;
_chemical_formula_sum "Si O2"
_cell_formula_units_Z 64
_cell_length_a 11.918509
_cell_length_b 11.918509
_cell_length_c 27.032543
_cell_angle_alpha 90.000000
_cell_angle_beta 90.000000
_cell_angle_gamma 90.000000
_cell_volume 3839.995894
_symmetry_space_group_name_H-M "P 42/M M C"
_symmetry_group_IT_number 131
_symmetry_cell_setting 'tetragonal'
loop_
_space_group_symop_operation_xyz
x,y,z
-x,-y,z
-y,x,1/2+z
y,-x,1/2+z
-x,y,-z
x,-y,-z
y,x,1/2-z
-y,-x,1/2-z
-x,-y,-z
x,y,-z
y,-x,1/2-z
-y,x,1/2-z
x,-y,z
-x,y,z
-y,-x,1/2+z
y,x,1/2+z
loop_
_atom_site_type_symbol
_atom_site_label
_atom_site_fract_x
_atom_site_fract_y
_atom_site_fract_z
Si Si1 0.368763 0.124154 0.444066
Si Si2 0.736654 0.805308 0.103396
Si Si3 0.126453 0.868474 0.806433
Si Si4 0.500000 0.866570 0.941552
Si Si5 0.876913 0.000000 0.942457
O O1 0.326393 0.137689 0.500000
O O2 0.500000 0.138631 0.440812
O O3 0.318409 0.223999 0.411507
O O4 0.333173 0.000000 0.424737
O O5 0.771351 0.818164 0.160953
O O6 0.606242 0.820786 0.089570
O O7 0.809688 0.890504 0.071791
O O8 0.158385 0.841616 0.750000
O O9 0.000000 0.821208 0.818229
O O10 0.124528 0.000000 0.816514
O O11 0.500000 0.000000 0.939612
O O12 0.500000 0.828243 0.000000
O O13 0.000000 0.000000 0.916757
O O14 0.892841 0.000000 0.000000
#
# Coordination Sequence:
#
# PCOD8316303 Si02
#       5
#    16  16  16   8   8
#     4   9  18  32  50  73 102 133 168 213 263 304
#     4  12  20  32  51  71 104 140 177 208 257 311
#     4   9  17  30  50  76 101 126 161 215 276 326
#     4  11  22  34  47  71 111 153 178 205 253 310
#     4  11  20  27  45  77 105 130 167 211 257 316
#
# _framework density 16.666685000000001
#
# number of rings (size 3 to 8) (size 9 to 14) (size 15 to 20)
#    0.000    1.750    2.500    6.000    0.000    2.000 
#    0.000    0.625    2.750    2.250    0.000    0.000 
#    0.000    0.000    0.000    0.000    0.000    0.000 
#
# Total GULP energy -793061.812306 kJ/mol
# GULP energy per Si atom -12391.590817 kJ/mol
# Density = 1.662875 g / cm^3
# Si number density = 16.666685 Si / 1000 Ang^3
#
#
#
# Elastic Constant Matrix: (Units=GPa)
#
#
# Indices 1 2 3 4 5 6 
#
# 1 87.3230 32.5040 44.3906 0.0000 0.0000 0.0000
# 2 32.5040 87.3232 44.3907 0.0000 0.0000 0.0000
# 3 44.3906 44.3907 106.9287 0.0000 0.0000 0.0000
# 4 0.0000 0.0000 0.0000 20.8564 0.0000 0.0000
# 5 0.0000 0.0000 0.0000 0.0000 20.8562 0.0000
# 6 0.0000 0.0000 0.0000 0.0000 0.0000 52.0035
#
#
#
# Elastic Compliance Matrix: (Units=1/GPa)
#
#
# Indices 1 2 3 4 5 6 
#
# 1 0.015147 -0.003095 -0.005004 0.000000 0.000000 0.000000
# 2 -0.003095 0.015147 -0.005004 0.000000 0.000000 0.000000
# 3 -0.005004 -0.005004 0.013506 0.000000 0.000000 0.000000
# 4 0.000000 0.000000 0.000000 0.047947 0.000000 0.000000
# 5 0.000000 0.000000 0.000000 0.000000 0.047947 0.000000
# 6 0.000000 0.000000 0.000000 0.000000 0.000000 0.019229
#
#
# Mechanical properties :
#
#
# Convention : Reuss Voigt Hill
#
# Bulk Modulus (GPa) = 56.82670 58.23836 57.53253
# Shear Modulus (GPa) = 26.17888 29.42918 27.80403
#
# Velocity S-wave (km/s) = 3.96754 4.20664 4.08884
# Velocity P-wave (km/s) = 7.42688 7.65593 7.54227
#
# Compressibility (1/GPa) = 0.01759736
#
# Stress axis : x y z
#
# Youngs Moduli (GPa) = 66.01885 66.01899 74.03922
#
# Poissons Ratio (x) = 0.20431 0.37046
# Poissons Ratio (y) = 0.20431 0.37046
# Poissons Ratio (z) = 0.33033 0.33033
#
# Static dielectric constant tensor:
#      x y z
#    x 3.093580 0.000000 0.000000 
#    y 0.000000 3.093580 0.000000 
#    z 0.000000 0.000000 3.317290 
# 
# 
# High freq. dielectric constant tensor:
#      x y z
#    x 1.624880 0.000000 0.000000 
#    y 0.000000 1.624880 0.000000 
#    z 0.000000 0.000000 1.637230 
# 
# From -- ./inp_files/11993.got.cif
#   From: 2010.03.12/outbox.cif.g09.slc.cpg/sg131_6_cif.got.tgz:11993.got - 2010.04.06 17:36:35.
