data_PCOD8316965
_publ_section_title
;
Structure prediction by ZEFSAII (Michael W. Deem and Ramdas Pophale) SiO2 
 PCOD8316965
Probable space group: P 42/N B C
;
_chemical_formula_sum "Si O2"
_cell_formula_units_Z 112
_cell_length_a 14.573185
_cell_length_b 14.573185
_cell_length_c 26.782764
_cell_angle_alpha 90.000000
_cell_angle_beta 90.000000
_cell_angle_gamma 90.000000
_cell_volume 5688.062382
_symmetry_space_group_name_H-M "P 42/N B C"
_symmetry_group_IT_number 133
_space_group.IT_coordinate_system_code '2'
_symmetry_cell_setting 'tetragonal'
loop_
_space_group_symop_operation_xyz
x,y,z
1/2-y,x,1/2+z
1/2-x,1/2-y,z
y,1/2-x,1/2+z
x,1/2-y,-z
1/2-x,y,-z
y,x,1/2-z
1/2-y,1/2-x,1/2-z
-x,-y,-z
1/2+y,-x,1/2-z
1/2+x,1/2+y,-z
-y,1/2+x,1/2-z
-x,1/2+y,z
1/2+x,-y,z
-y,-x,1/2+z
1/2+y,1/2+x,1/2+z
loop_
_atom_site_type_symbol
_atom_site_label
_atom_site_fract_x
_atom_site_fract_y
_atom_site_fract_z
Si Si1 0.322147 0.331247 0.805785
Si Si2 0.664991 0.797567 0.553883
Si Si3 0.061953 0.908257 0.650655
Si Si4 0.493576 0.218159 0.373446
Si Si5 0.893880 0.458641 0.353311
Si Si6 0.289882 0.033548 0.389786
Si Si7 0.632830 0.158320 0.751733
O O1 0.250000 0.250000 0.804999
O O2 0.354901 0.354901 0.750000
O O3 0.281097 0.426973 0.825479
O O4 0.406396 0.301316 0.839931
O O5 0.750000 0.750000 0.584127
O O6 0.664435 0.750000 0.500000
O O7 0.567225 0.775747 0.576912
O O8 0.689113 0.906522 0.559815
O O9 0.098978 0.906506 0.707141
O O10 0.056893 0.806576 0.628535
O O11 0.132854 0.955891 0.613061
O O12 0.963588 0.957072 0.651194
O O13 0.555603 0.127964 0.377605
O O14 0.811365 0.489225 0.390134
O O15 0.854312 0.432897 0.299145
O O16 0.629480 0.263882 0.733496
#
# Coordination Sequence:
#
# PCOD8316965 Si02
#       7
#    16  16  16  16  16  16  16
#     4  10  21  37  54  81 125 168 226 278 315 369
#     4  10  21  45  76  96 122 157 214 285 357 411
#     4  12  23  38  60  87 132 178 234 274 324 388
#     4  11  23  39  61  96 126 175 216 270 342 386
#     4  12  23  38  61  87 137 177 229 285 319 398
#     4  11  23  39  61  95 124 171 222 276 334 406
#     4  11  23  38  54  83 130 193 241 264 320 387
#
# _framework density 19.690360999999999
#
# number of rings (size 3 to 8) (size 9 to 14) (size 15 to 20)
#    0.000    1.000    5.714    3.857    4.000    0.571 
#    0.000    0.714    3.143    0.000    0.000    1.000 
#    0.000    0.000    0.000    0.000    0.000    0.000 
#
# Total GULP energy -1388516.188408 kJ/mol
# GULP energy per Si atom -12397.465968 kJ/mol
# Density = 1.964555 g / cm^3
# Si number density = 19.690361 Si / 1000 Ang^3
#
#
#
# Elastic Constant Matrix: (Units=GPa)
#
#
# Indices 1 2 3 4 5 6 
#
# 1 108.9130 43.1546 38.9638 0.0000 0.0000 0.0000
# 2 43.1546 108.9130 38.9638 0.0000 0.0000 0.0000
# 3 38.9638 38.9638 97.3183 0.0000 0.0000 0.0000
# 4 0.0000 0.0000 0.0000 16.7349 0.0000 0.0000
# 5 0.0000 0.0000 0.0000 0.0000 16.7349 0.0000
# 6 0.0000 0.0000 0.0000 0.0000 0.0000 48.7327
#
#
#
# Elastic Compliance Matrix: (Units=1/GPa)
#
#
# Indices 1 2 3 4 5 6 
#
# 1 0.011740 -0.003467 -0.003313 0.000000 0.000000 0.000000
# 2 -0.003467 0.011740 -0.003313 0.000000 0.000000 0.000000
# 3 -0.003313 -0.003313 0.012928 0.000000 0.000000 0.000000
# 4 0.000000 0.000000 0.000000 0.059755 0.000000 0.000000
# 5 0.000000 0.000000 0.000000 0.000000 0.059755 0.000000
# 6 0.000000 0.000000 0.000000 0.000000 0.000000 0.020520
#
#
# Mechanical properties :
#
#
# Convention : Reuss Voigt Hill
#
# Bulk Modulus (GPa) = 61.63302 61.92316 61.77809
# Shear Modulus (GPa) = 24.74863 29.37799 27.06331
#
# Velocity S-wave (km/s) = 3.54911 3.86683 3.71137
# Velocity P-wave (km/s) = 6.94003 7.17309 7.05752
#
# Compressibility (1/GPa) = 0.01622507
#
# Stress axis : x y z
#
# Youngs Moduli (GPa) = 85.17629 85.17629 77.35124
#
# Poissons Ratio (x) = 0.29529 0.25623
# Poissons Ratio (y) = 0.29529 0.25623
# Poissons Ratio (z) = 0.28215 0.28215
#
# Static dielectric constant tensor:
#      x y z
#    x 4.103690 0.000000 0.000000 
#    y 0.000000 4.103690 0.000000 
#    z 0.000000 0.000000 3.257450 
# 
# 
# High freq. dielectric constant tensor:
#      x y z
#    x 1.781550 0.000000 0.000000 
#    y 0.000000 1.781550 0.000000 
#    z 0.000000 0.000000 1.727620 
# 
# From -- ./inp_files/7637.got.cif
#   From: 2010.03.12/outbox.cif.g09.slc.cpg/sg133_4_cif.got.tgz:7637.got - 2010.04.06 18:08:06.
