data_PCOD8316084
_publ_section_title
;
Structure prediction by ZEFSAII (Michael W. Deem and Ramdas Pophale) SiO2 
 PCOD8316084
Probable space group: P 42/M M C
;
_chemical_formula_sum "Si O2"
_cell_formula_units_Z 40
_cell_length_a 9.331740
_cell_length_b 9.331740
_cell_length_c 28.711296
_cell_angle_alpha 90.000000
_cell_angle_beta 90.000000
_cell_angle_gamma 90.000000
_cell_volume 2500.219031
_symmetry_space_group_name_H-M "P 42/M M C"
_symmetry_group_IT_number 131
_symmetry_cell_setting 'tetragonal'
loop_
_space_group_symop_operation_xyz
x,y,z
-x,-y,z
-y,x,1/2+z
y,-x,1/2+z
-x,y,-z
x,-y,-z
y,x,1/2-z
-y,-x,1/2-z
-x,-y,-z
x,y,-z
y,-x,1/2-z
-y,x,1/2-z
x,-y,z
-x,y,z
-y,-x,1/2+z
y,x,1/2+z
loop_
_atom_site_type_symbol
_atom_site_label
_atom_site_fract_x
_atom_site_fract_y
_atom_site_fract_z
Si Si1 0.340485 0.342556 0.622982
Si Si2 0.832936 0.332381 0.789749
Si Si3 0.500000 0.831882 0.946085
O O1 0.345866 0.500000 0.647480
O O2 0.500000 0.297788 0.606009
O O3 0.281553 0.228511 0.660238
O O4 0.235940 0.356476 0.577880
O O5 0.757827 0.242174 0.750000
O O6 0.800577 0.500000 0.782073
O O7 0.000000 0.298077 0.788902
O O8 0.500000 0.000000 0.937548
O O9 0.500000 0.791044 0.000000
#
# Coordination Sequence:
#
# PCOD8316084 Si02
#       3
#    16  16   8
#     4   8  16  30  48  70  93 121 157 197 241 284
#     4  10  20  33  49  70  98 131 165 200 240 289
#     4   9  17  29  49  75  97 119 157 205 245 286
#
# _framework density 15.998597
#
# number of rings (size 3 to 8) (size 9 to 14) (size 15 to 20)
#    1.200    1.800    0.000    1.200    0.000    5.600 
#    0.000    0.000    0.000    1.200    0.000    8.400 
#    0.000    0.000    0.000    0.000    0.000    0.000 
#
# Total GULP energy -495543.301479 kJ/mol
# GULP energy per Si atom -12388.582537 kJ/mol
# Density = 1.596218 g / cm^3
# Si number density = 15.998597 Si / 1000 Ang^3
#
#
#
# Elastic Constant Matrix: (Units=GPa)
#
#
# Indices 1 2 3 4 5 6 
#
# 1 73.2207 45.6180 70.6272 0.0000 0.0000 0.0000
# 2 45.6180 73.2179 70.6282 0.0000 0.0000 0.0000
# 3 70.6272 70.6282 147.9308 0.0000 0.0000 0.0000
# 4 0.0000 0.0000 0.0000 8.4392 0.0000 0.0000
# 5 0.0000 0.0000 0.0000 0.0000 8.4383 0.0000
# 6 0.0000 0.0000 0.0000 0.0000 0.0000 15.5271
#
#
#
# Elastic Compliance Matrix: (Units=1/GPa)
#
#
# Indices 1 2 3 4 5 6 
#
# 1 0.027842 -0.008387 -0.009288 0.000000 0.000000 0.000000
# 2 -0.008387 0.027845 -0.009290 0.000000 0.000000 0.000000
# 3 -0.009288 -0.009290 0.015630 0.000000 0.000000 0.000000
# 4 0.000000 0.000000 0.000000 0.118495 0.000000 0.000000
# 5 0.000000 0.000000 0.000000 0.000000 0.118507 0.000000
# 6 0.000000 0.000000 0.000000 0.000000 0.000000 0.064404
#
#
# Mechanical properties :
#
#
# Convention : Reuss Voigt Hill
#
# Bulk Modulus (GPa) = 57.51773 74.23514 65.87644
# Shear Modulus (GPa) = 11.56207 13.64732 12.60470
#
# Velocity S-wave (km/s) = 2.69121 2.92384 2.80993
# Velocity P-wave (km/s) = 6.75919 7.60922 7.19676
#
# Compressibility (1/GPa) = 0.01738594
#
# Stress axis : x y z
#
# Youngs Moduli (GPa) = 35.91696 35.91352 63.97966
#
# Poissons Ratio (x) = 0.30120 0.59427
# Poissons Ratio (y) = 0.30123 0.59437
# Poissons Ratio (z) = 0.33361 0.33364
#
# Static dielectric constant tensor:
#      x y z
#    x 2.935220 0.000000 0.000000 
#    y 0.000000 2.935220 0.000000 
#    z 0.000000 0.000000 2.894660 
# 
# 
# High freq. dielectric constant tensor:
#      x y z
#    x 1.601910 0.000000 0.000000 
#    y 0.000000 1.601910 0.000000 
#    z 0.000000 0.000000 1.602560 
# 
# From -- ./inp_files/12629.got.cif
#   From: 2010.03.12/outbox.cif.g09.slc.cpg/sg131_7_cif.got.tgz:12629.got - 2010.04.06 17:36:35.
