data_PCOD8316990
_publ_section_title
;
Structure prediction by ZEFSAII (Michael W. Deem and Ramdas Pophale) SiO2 
 PCOD8316990
Probable space group: P 42/N B C
;
_chemical_formula_sum "Si O2"
_cell_formula_units_Z 56
_cell_length_a 17.766003
_cell_length_b 17.766003
_cell_length_c 8.523119
_cell_angle_alpha 90.000000
_cell_angle_beta 90.000000
_cell_angle_gamma 90.000000
_cell_volume 2690.159402
_symmetry_space_group_name_H-M "P 42/N B C"
_symmetry_group_IT_number 133
_space_group.IT_coordinate_system_code '2'
_symmetry_cell_setting 'tetragonal'
loop_
_space_group_symop_operation_xyz
x,y,z
1/2-y,x,1/2+z
1/2-x,1/2-y,z
y,1/2-x,1/2+z
x,1/2-y,-z
1/2-x,y,-z
y,x,1/2-z
1/2-y,1/2-x,1/2-z
-x,-y,-z
1/2+y,-x,1/2-z
1/2+x,1/2+y,-z
-y,1/2+x,1/2-z
-x,1/2+y,z
1/2+x,-y,z
-y,-x,1/2+z
1/2+y,1/2+x,1/2+z
loop_
_atom_site_type_symbol
_atom_site_label
_atom_site_fract_x
_atom_site_fract_y
_atom_site_fract_z
Si Si1 0.376407 0.750000 0.000000
Si Si2 0.023715 0.392092 0.468423
Si Si3 0.876967 0.750000 0.500000
Si Si4 0.750000 0.250000 0.250000
Si Si5 0.750000 0.750000 0.750000
Si Si6 0.036617 0.607609 0.874478
O O1 0.323087 0.770616 0.146949
O O2 0.430394 0.680803 0.041184
O O3 0.069517 0.320322 0.518938
O O4 0.084372 0.458949 0.458225
O O5 0.962780 0.406638 0.605345
O O6 0.977580 0.378136 0.308335
O O7 0.826013 0.746508 0.652643
#
# Coordination Sequence:
#
# PCOD8316990 Si02
#       6
#     8  16   8   4   4  16
#     4  11  22  40  62  85 126 164 200 257 310 358
#     4  10  23  40  62  92 121 156 206 251 301 367
#     4  11  24  44  66  91 130 166 202 259 312 360
#     4  10  24  38  56  94 120 158 216 246 296 386
#     4  10  24  42  64  98 124 162 216 246 300 390
#     4  10  22  40  62  91 120 157 205 249 301 364
#
# _framework density 20.816607999999999
#
# number of rings (size 3 to 8) (size 9 to 14) (size 15 to 20)
#    0.000    1.714    0.000    3.429    0.000   16.000 
#    0.000    0.000    0.000    0.000    0.000    0.000 
#    0.000    0.000    0.000    0.000    0.000    0.000 
#
# Total GULP energy -694563.183221 kJ/mol
# GULP energy per Si atom -12402.913986 kJ/mol
# Density = 2.076923 g / cm^3
# Si number density = 20.816608 Si / 1000 Ang^3
#
#
#
# Elastic Constant Matrix: (Units=GPa)
#
#
# Indices 1 2 3 4 5 6 
#
# 1 137.9013 100.2295 52.7068 0.0000 0.0000 0.0000
# 2 100.2295 137.9013 52.7068 0.0000 0.0000 0.0000
# 3 52.7068 52.7068 102.8919 0.0000 0.0000 0.0000
# 4 0.0000 0.0000 0.0000 30.2072 0.0000 0.0000
# 5 0.0000 0.0000 0.0000 0.0000 30.2072 0.0000
# 6 0.0000 0.0000 0.0000 0.0000 0.0000 45.7091
#
#
#
# Elastic Compliance Matrix: (Units=1/GPa)
#
#
# Indices 1 2 3 4 5 6 
#
# 1 0.015988 -0.010557 -0.002782 0.000000 0.000000 0.000000
# 2 -0.010557 0.015988 -0.002782 0.000000 0.000000 0.000000
# 3 -0.002782 -0.002782 0.012569 0.000000 0.000000 0.000000
# 4 0.000000 0.000000 0.000000 0.033105 0.000000 0.000000
# 5 0.000000 0.000000 0.000000 0.000000 0.033105 0.000000
# 6 0.000000 0.000000 0.000000 0.000000 0.000000 0.021877
#
#
# Mechanical properties :
#
#
# Convention : Reuss Voigt Hill
#
# Bulk Modulus (GPa) = 81.28160 87.77562 84.52861
# Shear Modulus (GPa) = 29.59017 32.76145 31.17581
#
# Velocity S-wave (km/s) = 3.77433 3.97144 3.87414
# Velocity P-wave (km/s) = 7.62400 7.95534 7.79143
#
# Compressibility (1/GPa) = 0.01230291
#
# Stress axis : x y z
#
# Youngs Moduli (GPa) = 62.54697 62.54697 79.56015
#
# Poissons Ratio (x) = 0.66031 0.22134
# Poissons Ratio (y) = 0.66031 0.22134
# Poissons Ratio (z) = 0.17401 0.17401
#
# Static dielectric constant tensor:
#      x y z
#    x 3.839670 0.000000 0.000000 
#    y 0.000000 3.839670 0.000000 
#    z 0.000000 0.000000 3.953930 
# 
# 
# High freq. dielectric constant tensor:
#      x y z
#    x 1.824320 0.000000 0.000000 
#    y 0.000000 1.824320 0.000000 
#    z 0.000000 0.000000 1.817980 
# 
# From -- ./inp_files/1414.got.cif
#   From: 2010.03.12/outbox.cif.g09.slc.cpg/sg133_1_cif.got.tgz:1414.got - 2010.04.06 18:08:06.
