data_PCOD8316659
_publ_section_title
;
Structure prediction by ZEFSAII (Michael W. Deem and Ramdas Pophale) SiO2 
 PCOD8316659
Probable space group: P 42/M C M
;
_chemical_formula_sum "Si O2"
_cell_formula_units_Z 80
_cell_length_a 25.296834
_cell_length_b 25.296834
_cell_length_c 8.886081
_cell_angle_alpha 90.000000
_cell_angle_beta 90.000000
_cell_angle_gamma 90.000000
_cell_volume 5686.468130
_symmetry_space_group_name_H-M "P 42/M C M"
_symmetry_group_IT_number 132
_symmetry_cell_setting 'tetragonal'
loop_
_space_group_symop_operation_xyz
x,y,z
-y,x,1/2+z
-x,-y,z
y,-x,1/2+z
x,-y,1/2-z
-x,y,1/2-z
y,x,-z
-y,-x,-z
-x,-y,-z
y,-x,1/2-z
x,y,-z
-y,x,1/2-z
-x,y,1/2+z
x,-y,1/2+z
-y,-x,z
y,x,z
loop_
_atom_site_type_symbol
_atom_site_label
_atom_site_fract_x
_atom_site_fract_y
_atom_site_fract_z
Si Si1 0.278935 0.868716 0.831161
Si Si2 0.795647 0.204354 0.670600
Si Si3 0.057480 0.358324 0.820144
Si Si4 0.134451 0.442546 0.319449
Si Si5 0.293664 0.706337 0.333748
Si Si6 0.634272 0.221780 0.165281
O O1 0.224917 0.848252 0.754586
O O2 0.303579 0.915053 0.729748
O O3 0.319079 0.820468 0.840196
O O4 0.267061 0.889686 0.000000
O O5 0.810369 0.189632 0.500000
O O6 0.750903 0.249098 0.673608
O O7 0.087842 0.408588 0.753237
O O8 0.000000 0.359466 0.750000
O O9 0.055752 0.361745 0.000000
O O10 0.131035 0.500000 0.250000
O O11 0.127816 0.442759 0.500000
O O12 0.191387 0.417572 0.272247
O O13 0.309352 0.690649 0.500000
O O14 0.348099 0.727675 0.261708
O O15 0.622514 0.244007 0.000000
#
# Coordination Sequence:
#
# PCOD8316659 Si02
#       6
#    16   8  16  16   8  16
#     4   9  16  27  41  58  78 100 125 156 194 236
#     4   9  15  23  37  59  81 101 123 150 187 232
#     4  11  21  33  46  59  76 100 132 171 209 246
#     4  10  20  33  46  60  76  99 131 168 207 244
#     4   9  15  21  35  57  77  95 119 148 181 222
#     4   8  15  26  39  54  75  98 120 148 188 233
#
# _framework density 14.068486999999999
#
# number of rings (size 3 to 8) (size 9 to 14) (size 15 to 20)
#    0.000    2.600    0.000    4.800    0.000    8.400 
#    0.000    2.000    0.000    0.000    0.000    0.000 
#    0.000    0.000    0.000    0.000    0.000    1.000 
#
# Total GULP energy -991501.753936 kJ/mol
# GULP energy per Si atom -12393.771924 kJ/mol
# Density = 1.403647 g / cm^3
# Si number density = 14.068487 Si / 1000 Ang^3
#
#
#
# Elastic Constant Matrix: (Units=GPa)
#
#
# Indices 1 2 3 4 5 6 
#
# 1 62.9552 65.7580 49.8170 0.0000 0.0000 0.0000
# 2 65.7580 62.9553 49.8170 0.0000 0.0000 0.0000
# 3 49.8170 49.8170 119.4127 0.0000 0.0000 0.0000
# 4 0.0000 0.0000 0.0000 19.3402 0.0000 0.0000
# 5 0.0000 0.0000 0.0000 0.0000 19.3401 0.0000
# 6 0.0000 0.0000 0.0000 0.0000 0.0000 14.7456
#
#
#
# Elastic Compliance Matrix: (Units=1/GPa)
#
#
# Indices 1 2 3 4 5 6 
#
# 1 -0.172660 0.184135 -0.004787 0.000000 0.000000 0.000000
# 2 0.184135 -0.172660 -0.004787 0.000000 0.000000 0.000000
# 3 -0.004787 -0.004787 0.012369 0.000000 0.000000 0.000000
# 4 0.000000 0.000000 0.000000 0.051706 0.000000 0.000000
# 5 0.000000 0.000000 0.000000 0.000000 0.051706 0.000000
# 6 0.000000 0.000000 0.000000 0.000000 0.000000 0.067817
#
#
# Mechanical properties :
#
#
# Convention : Reuss Voigt Hill
#
# Bulk Modulus (GPa) = 61.84397 64.01188 62.92792
# Shear Modulus (GPa) = -9.89210 16.01394 3.06092
#
# Velocity S-wave (km/s) = -2.65455 3.37751 1.47663
# Velocity P-wave (km/s) = 5.88720 7.79802 6.90899
#
# Compressibility (1/GPa) = 0.01616973
#
# Stress axis : x y z
#
# Youngs Moduli (GPa) = -5.79173 -5.79174 80.85047
#
# Poissons Ratio (x) = 1.06646 0.38703
# Poissons Ratio (y) = 1.06646 0.38704
# Poissons Ratio (z) = -0.02773 -0.02773
#
# Static dielectric constant tensor:
#      x y z
#    x 2.662350 0.000000 0.000000 
#    y 0.000000 2.662350 0.000000 
#    z 0.000000 0.000000 3.023320 
# 
# 
# High freq. dielectric constant tensor:
#      x y z
#    x 1.502950 0.000000 0.000000 
#    y 0.000000 1.502950 0.000000 
#    z 0.000000 0.000000 1.557930 
# 
# From -- ./inp_files/1629.got.cif
#   From: 2010.03.12/outbox.cif.g09.slc.cpg/sg132_1_cif.got.tgz:1629.got - 2010.04.06 17:53:44.
