data_PCOD8316438
_publ_section_title
;
Structure prediction by ZEFSAII (Michael W. Deem and Ramdas Pophale) SiO2 
 PCOD8316438
Probable space group: P 42/M C M
;
_chemical_formula_sum "Si O2"
_cell_formula_units_Z 96
_cell_length_a 28.936650
_cell_length_b 28.936650
_cell_length_c 9.084884
_cell_angle_alpha 90.000000
_cell_angle_beta 90.000000
_cell_angle_gamma 90.000000
_cell_volume 7607.043314
_symmetry_space_group_name_H-M "P 42/M C M"
_symmetry_group_IT_number 132
_symmetry_cell_setting 'tetragonal'
loop_
_space_group_symop_operation_xyz
x,y,z
-y,x,1/2+z
-x,-y,z
y,-x,1/2+z
x,-y,1/2-z
-x,y,1/2-z
y,x,-z
-y,-x,-z
-x,-y,-z
y,-x,1/2-z
x,y,-z
-y,x,1/2-z
-x,y,1/2+z
x,-y,1/2+z
-y,-x,z
y,x,z
loop_
_atom_site_type_symbol
_atom_site_label
_atom_site_fract_x
_atom_site_fract_y
_atom_site_fract_z
Si Si1 0.543509 0.794434 0.164043
Si Si2 0.187569 0.683652 0.834310
Si Si3 0.266886 0.607054 0.165745
Si Si4 0.452365 0.950967 0.677536
Si Si5 0.251327 0.748674 0.666312
Si Si6 0.873748 0.381496 0.663626
Si Si7 0.670784 0.670784 0.834245
O O1 0.500000 0.815619 0.250000
O O2 0.561131 0.749427 0.250777
O O3 0.582945 0.832093 0.157901
O O4 0.528680 0.779921 0.000000
O O5 0.226977 0.645224 0.832956
O O6 0.205510 0.728872 0.746696
O O7 0.140583 0.662286 0.763960
O O8 0.175867 0.699078 0.000000
O O9 0.311661 0.625565 0.250228
O O10 0.280801 0.594231 0.000000
O O11 0.500000 0.931998 0.750000
O O12 0.458088 0.953903 0.500000
O O13 0.409446 0.918242 0.723087
O O14 0.440781 0.000000 0.750000
O O15 0.237788 0.762213 0.500000
O O16 0.290223 0.709778 0.666600
O O17 0.883646 0.362352 0.500000
O O18 0.657376 0.657376 0.000000
#
# Coordination Sequence:
#
# PCOD8316438 Si02
#       7
#    16  16  16  16   8  16   8
#     4  10  18  27  37  49  65  84 105 129 156 187
#     4   9  16  24  36  52  68  85 107 132 156 185
#     4   9  16  25  35  48  64  82 103 126 150 176
#     4  10  19  30  42  54  67  84 108 140 178 220
#     4   9  15  23  35  49  69  91 107 125 152 184
#     4   9  18  29  39  51  67  86 108 134 167 204
#     4   9  15  23  35  49  63  81 103 126 148 171
#
# _framework density 12.619883
#
# number of rings (size 3 to 8) (size 9 to 14) (size 15 to 20)
#    0.000    2.667    0.000    3.500    0.000    8.000 
#    0.000    0.000    0.000    0.000    0.000    0.000 
#    0.000    0.000    0.000    0.000    0.000    0.417 
#
# Total GULP energy -1189892.792539 kJ/mol
# GULP energy per Si atom -12394.716589 kJ/mol
# Density = 1.259116 g / cm^3
# Si number density = 12.619883 Si / 1000 Ang^3
#
#
#
# Elastic Constant Matrix: (Units=GPa)
#
#
# Indices 1 2 3 4 5 6 
#
# 1 36.2350 29.5002 30.7524 0.0000 0.0000 0.0000
# 2 29.5002 36.2349 30.7524 0.0000 0.0000 0.0000
# 3 30.7524 30.7524 110.8276 0.0000 0.0000 0.0000
# 4 0.0000 0.0000 0.0000 15.9273 0.0000 0.0000
# 5 0.0000 0.0000 0.0000 0.0000 15.9273 0.0000
# 6 0.0000 0.0000 0.0000 0.0000 0.0000 23.3965
#
#
#
# Elastic Compliance Matrix: (Units=1/GPa)
#
#
# Indices 1 2 3 4 5 6 
#
# 1 0.084516 -0.063969 -0.005701 0.000000 0.000000 0.000000
# 2 -0.063969 0.084516 -0.005701 0.000000 0.000000 0.000000
# 3 -0.005701 -0.005701 0.012187 0.000000 0.000000 0.000000
# 4 0.000000 0.000000 0.000000 0.062785 0.000000 0.000000
# 5 0.000000 0.000000 0.000000 0.000000 0.062785 0.000000
# 6 0.000000 0.000000 0.000000 0.000000 0.000000 0.042741
#
#
# Mechanical properties :
#
#
# Convention : Reuss Voigt Hill
#
# Bulk Modulus (GPa) = 32.81315 40.58971 36.70143
# Shear Modulus (GPa) = 9.79563 17.20304 13.49933
#
# Velocity S-wave (km/s) = 2.78907 3.69612 3.27416
# Velocity P-wave (km/s) = 6.03568 7.10269 6.59081
#
# Compressibility (1/GPa) = 0.03047559
#
# Stress axis : x y z
#
# Youngs Moduli (GPa) = 11.83214 11.83212 82.05429
#
# Poissons Ratio (x) = 0.75688 0.46782
# Poissons Ratio (y) = 0.75689 0.46783
# Poissons Ratio (z) = 0.06746 0.06746
#
# Static dielectric constant tensor:
#      x y z
#    x 2.368000 0.000000 0.000000 
#    y 0.000000 2.368000 0.000000 
#    z 0.000000 0.000000 2.872850 
# 
# 
# High freq. dielectric constant tensor:
#      x y z
#    x 1.437260 0.000000 0.000000 
#    y 0.000000 1.437260 0.000000 
#    z 0.000000 0.000000 1.502260 
# 
# From -- ./inp_files/2132.got.cif
#   From: 2010.03.12/outbox.cif.g09.slc.cpg/sg132_2_cif.got.tgz:2132.got - 2010.04.06 17:53:44.
