data_PCOD8316146
_publ_section_title
;
Structure prediction by ZEFSAII (Michael W. Deem and Ramdas Pophale) SiO2 
 PCOD8316146
Probable space group: P 42/M M C
;
_chemical_formula_sum "Si O2"
_cell_formula_units_Z 120
_cell_length_a 18.466476
_cell_length_b 18.466476
_cell_length_c 18.287803
_cell_angle_alpha 90.000000
_cell_angle_beta 90.000000
_cell_angle_gamma 90.000000
_cell_volume 6236.337158
_symmetry_space_group_name_H-M "P 42/M M C"
_symmetry_group_IT_number 131
_symmetry_cell_setting 'tetragonal'
loop_
_space_group_symop_operation_xyz
x,y,z
-x,-y,z
-y,x,1/2+z
y,-x,1/2+z
-x,y,-z
x,-y,-z
y,x,1/2-z
-y,-x,1/2-z
-x,-y,-z
x,y,-z
y,-x,1/2-z
-y,x,1/2-z
x,-y,z
-x,y,z
-y,-x,1/2+z
y,x,1/2+z
loop_
_atom_site_type_symbol
_atom_site_label
_atom_site_fract_x
_atom_site_fract_y
_atom_site_fract_z
Si Si1 0.186303 0.917352 0.792157
Si Si2 0.583077 0.583186 0.835208
Si Si3 0.789369 0.806144 0.917869
Si Si4 0.290836 0.652848 0.586142
Si Si5 0.917369 0.299780 0.079594
Si Si6 0.159293 0.582368 0.642836
Si Si7 0.658924 0.080425 0.268341
Si Si8 0.918171 0.413602 0.500000
O O1 0.119630 0.880371 0.750000
O O2 0.210975 0.875309 0.865251
O O3 0.254516 0.915952 0.738150
O O4 0.164922 0.000000 0.812526
O O5 0.596953 0.596953 0.750000
O O6 0.597997 0.500000 0.855187
O O7 0.500000 0.603194 0.855668
O O8 0.641975 0.629208 0.881093
O O9 0.730463 0.744892 0.894052
O O10 0.868063 0.770826 0.914005
O O11 0.771761 0.833302 0.000000
O O12 0.293618 0.639554 0.500000
O O13 0.243913 0.590530 0.626380
O O14 0.901632 0.356498 0.145807
O O15 0.000000 0.272442 0.086202
O O16 0.903921 0.337582 0.000000
O O17 0.136210 0.500000 0.652172
O O18 0.139377 0.621495 0.717829
O O19 0.118336 0.618727 0.573212
O O20 0.630153 0.000000 0.247387
O O21 0.909114 0.500000 0.500000
O O22 0.000000 0.387744 0.500000
#
# Coordination Sequence:
#
# PCOD8316146 Si02
#       8
#    16  16  16  16  16  16  16   8
#     4  11  22  37  57  84 117 153 195 241 295 354
#     4   9  20  39  60  83 114 155 204 255 306 358
#     4  10  21  37  57  84 117 155 196 237 288 351
#     4  11  22  36  56  86 122 156 193 241 294 356
#     4   9  18  35  60  84 107 142 191 241 290 345
#     4  11  21  33  51  79 114 152 193 236 288 354
#     4  10  20  34  54  79 108 147 192 238 286 343
#     4   9  18  32  48  68 105 155 194 228 277 340
#
# _framework density 19.242063000000002
#
# number of rings (size 3 to 8) (size 9 to 14) (size 15 to 20)
#    0.000    1.933    3.333    1.200    0.000    3.867 
#    0.000    0.667    0.000    0.400    0.000    6.533 
#    0.000    0.000    0.000    0.000    0.000    0.000 
#
# Total GULP energy -1487593.141537 kJ/mol
# GULP energy per Si atom -12396.609513 kJ/mol
# Density = 1.919827 g / cm^3
# Si number density = 19.242063 Si / 1000 Ang^3
#
#
#
# Elastic Constant Matrix: (Units=GPa)
#
#
# Indices 1 2 3 4 5 6 
#
# 1 89.8506 41.7627 54.9876 0.0000 0.0000 0.0000
# 2 41.7627 89.8505 54.9880 0.0000 0.0000 0.0000
# 3 54.9876 54.9880 141.1017 0.0000 0.0000 0.0000
# 4 0.0000 0.0000 0.0000 29.2536 0.0000 0.0000
# 5 0.0000 0.0000 0.0000 0.0000 29.2538 0.0000
# 6 0.0000 0.0000 0.0000 0.0000 0.0000 22.3009
#
#
#
# Elastic Compliance Matrix: (Units=1/GPa)
#
#
# Indices 1 2 3 4 5 6 
#
# 1 0.016031 -0.004764 -0.004391 0.000000 0.000000 0.000000
# 2 -0.004764 0.016031 -0.004391 0.000000 0.000000 0.000000
# 3 -0.004391 -0.004391 0.010509 0.000000 0.000000 0.000000
# 4 0.000000 0.000000 0.000000 0.034184 0.000000 0.000000
# 5 0.000000 0.000000 0.000000 0.000000 0.034184 0.000000
# 6 0.000000 0.000000 0.000000 0.000000 0.000000 0.044841
#
#
# Mechanical properties :
#
#
# Convention : Reuss Voigt Hill
#
# Bulk Modulus (GPa) = 64.59914 69.36439 66.98177
# Shear Modulus (GPa) = 26.59127 27.43262 27.01195
#
# Velocity S-wave (km/s) = 3.72147 3.77989 3.75079
# Velocity P-wave (km/s) = 7.21876 7.42810 7.32418
#
# Compressibility (1/GPa) = 0.01548008
#
# Stress axis : x y z
#
# Youngs Moduli (GPa) = 62.37896 62.37857 95.15407
#
# Poissons Ratio (x) = 0.29718 0.41779
# Poissons Ratio (y) = 0.29718 0.41780
# Poissons Ratio (z) = 0.27389 0.27389
#
# Static dielectric constant tensor:
#      x y z
#    x 3.354650 0.000000 0.000000 
#    y 0.000000 3.354650 0.000000 
#    z 0.000000 0.000000 3.729450 
# 
# 
# High freq. dielectric constant tensor:
#      x y z
#    x 1.732060 0.000000 0.000000 
#    y 0.000000 1.732060 0.000000 
#    z 0.000000 0.000000 1.761600 
# 
# From -- ./inp_files/10133.got.cif
#   From: 2010.03.12/outbox.cif.g09.slc.cpg/sg131_6_cif.got.tgz:10133.got - 2010.04.06 17:36:35.
