data_PCOD8316017
_publ_section_title
;
Structure prediction by ZEFSAII (Michael W. Deem and Ramdas Pophale) SiO2 
 PCOD8316017
Probable space group: P 42/M M C
;
_chemical_formula_sum "Si O2"
_cell_formula_units_Z 112
_cell_length_a 14.790098
_cell_length_b 14.790098
_cell_length_c 24.931721
_cell_angle_alpha 90.000000
_cell_angle_beta 90.000000
_cell_angle_gamma 90.000000
_cell_volume 5453.739145
_symmetry_space_group_name_H-M "P 42/M M C"
_symmetry_group_IT_number 131
_symmetry_cell_setting 'tetragonal'
loop_
_space_group_symop_operation_xyz
x,y,z
-x,-y,z
-y,x,1/2+z
y,-x,1/2+z
-x,y,-z
x,-y,-z
y,x,1/2-z
-y,-x,1/2-z
-x,-y,-z
x,y,-z
y,-x,1/2-z
-y,x,1/2-z
x,-y,z
-x,y,z
-y,-x,1/2+z
y,x,1/2+z
loop_
_atom_site_type_symbol
_atom_site_label
_atom_site_fract_x
_atom_site_fract_y
_atom_site_fract_z
Si Si1 0.898100 0.678473 0.737132
Si Si2 0.820007 0.900598 0.852888
Si Si3 0.335619 0.900432 0.938928
Si Si4 0.101022 0.713975 0.860318
Si Si5 0.709582 0.600414 0.589070
Si Si6 0.600486 0.718684 0.211508
Si Si7 0.770813 0.604359 0.939903
O O1 0.884260 0.771704 0.704503
O O2 0.876287 0.690463 0.799403
O O3 0.827430 0.605043 0.715505
O O4 0.000000 0.642129 0.727919
O O5 0.749924 0.894366 0.900993
O O6 0.892218 0.822591 0.864819
O O7 0.866780 0.000000 0.852521
O O8 0.400291 0.816528 0.924908
O O9 0.382861 0.000000 0.930973
O O10 0.302023 0.890489 0.000000
O O11 0.167502 0.660537 0.899340
O O12 0.000000 0.684919 0.876071
O O13 0.674059 0.500000 0.575349
O O14 0.691884 0.623717 0.651092
O O15 0.650414 0.672185 0.556503
O O16 0.672898 0.672898 0.250000
O O17 0.500000 0.686903 0.227541
O O18 0.763604 0.500000 0.920721
O O19 0.811934 0.608690 0.000000
#
# Coordination Sequence:
#
# PCOD8316017 Si02
#       7
#    16  16  16  16  16  16  16
#     4  10  20  36  60  88 120 160 202 247 297 353
#     4  10  19  35  60  89 124 163 198 238 292 357
#     4  10  20  35  58  88 123 161 196 233 286 355
#     4  11  23  38  61  91 120 157 206 252 300 354
#     4  11  23  39  63  93 122 155 199 249 301 365
#     4  11  23  38  58  85 121 162 201 244 297 360
#     4  11  25  45  66  86 114 154 201 257 315 364
#
# _framework density 20.536369000000001
#
# number of rings (size 3 to 8) (size 9 to 14) (size 15 to 20)
#    0.000    1.429    2.857    2.571    0.000    5.286 
#    0.000    6.429    0.000    2.571    0.000    3.000 
#    0.000    0.000    0.000    0.000    0.000    0.000 
#
# Total GULP energy -1388316.068929 kJ/mol
# GULP energy per Si atom -12395.679187 kJ/mol
# Density = 2.048963 g / cm^3
# Si number density = 20.536369 Si / 1000 Ang^3
#
#
#
# Elastic Constant Matrix: (Units=GPa)
#
#
# Indices 1 2 3 4 5 6 
#
# 1 91.0404 36.0861 32.5574 0.0000 0.0000 0.0000
# 2 36.0861 91.0404 32.5574 0.0000 0.0000 0.0000
# 3 32.5574 32.5574 96.9949 0.0000 0.0000 0.0000
# 4 0.0000 0.0000 0.0000 18.3051 0.0000 0.0000
# 5 0.0000 0.0000 0.0000 0.0000 18.3051 0.0000
# 6 0.0000 0.0000 0.0000 0.0000 0.0000 12.1436
#
#
#
# Elastic Compliance Matrix: (Units=1/GPa)
#
#
# Indices 1 2 3 4 5 6 
#
# 1 0.013848 -0.004349 -0.003189 0.000000 0.000000 0.000000
# 2 -0.004349 0.013848 -0.003189 0.000000 0.000000 0.000000
# 3 -0.003189 -0.003189 0.012450 0.000000 0.000000 0.000000
# 4 0.000000 0.000000 0.000000 0.054630 0.000000 0.000000
# 5 0.000000 0.000000 0.000000 0.000000 0.054630 0.000000
# 6 0.000000 0.000000 0.000000 0.000000 0.000000 0.082348
#
#
# Mechanical properties :
#
#
# Convention : Reuss Voigt Hill
#
# Bulk Modulus (GPa) = 53.49063 53.49748 53.49405
# Shear Modulus (GPa) = 19.27249 21.60908 20.44078
#
# Velocity S-wave (km/s) = 3.06675 3.24734 3.15833
# Velocity P-wave (km/s) = 6.21637 6.33774 6.27735
#
# Compressibility (1/GPa) = 0.01869486
#
# Stress axis : x y z
#
# Youngs Moduli (GPa) = 72.21178 72.21178 80.31889
#
# Poissons Ratio (x) = 0.31403 0.25610
# Poissons Ratio (y) = 0.31403 0.25610
# Poissons Ratio (z) = 0.23025 0.23025
#
# Static dielectric constant tensor:
#      x y z
#    x 3.689860 0.000000 0.000000 
#    y 0.000000 3.689860 0.000000 
#    z 0.000000 0.000000 3.842310 
# 
# 
# High freq. dielectric constant tensor:
#      x y z
#    x 1.792680 0.000000 0.000000 
#    y 0.000000 1.792680 0.000000 
#    z 0.000000 0.000000 1.818450 
# 
# From -- ./inp_files/11270.got.cif
#   From: 2010.03.12/outbox.cif.g09.slc.cpg/sg131_6_cif.got.tgz:11270.got - 2010.04.06 17:36:35.
