data_PCOD8316428
_publ_section_title
;
Structure prediction by ZEFSAII (Michael W. Deem and Ramdas Pophale) SiO2 
 PCOD8316428
Probable space group: P 42/M C M
;
_chemical_formula_sum "Si O2"
_cell_formula_units_Z 52
_cell_length_a 11.891321
_cell_length_b 11.891321
_cell_length_c 19.282279
_cell_angle_alpha 90.000000
_cell_angle_beta 90.000000
_cell_angle_gamma 90.000000
_cell_volume 2726.582030
_symmetry_space_group_name_H-M "P 42/M C M"
_symmetry_group_IT_number 132
_symmetry_cell_setting 'tetragonal'
loop_
_space_group_symop_operation_xyz
x,y,z
-y,x,1/2+z
-x,-y,z
y,-x,1/2+z
x,-y,1/2-z
-x,y,1/2-z
y,x,-z
-y,-x,-z
-x,-y,-z
y,-x,1/2-z
x,y,-z
-y,x,1/2-z
-x,y,1/2+z
x,-y,1/2+z
-y,-x,z
y,x,z
loop_
_atom_site_type_symbol
_atom_site_label
_atom_site_fract_x
_atom_site_fract_y
_atom_site_fract_z
Si Si1 0.586710 0.413291 0.624468
Si Si2 0.292863 0.707138 0.500000
Si Si3 0.871298 0.470171 0.500000
Si Si4 0.874509 0.312180 0.741148
Si Si5 0.193574 0.489515 0.651333
O O1 0.500000 0.500000 0.590170
O O2 0.653514 0.346486 0.567050
O O3 0.677166 0.481000 0.670729
O O4 0.161212 0.666149 0.500000
O O5 0.819930 0.527104 0.568746
O O6 0.000000 0.500000 0.500000
O O7 0.789415 0.210586 0.722935
O O8 0.880369 0.405249 0.679576
O O9 0.837754 0.372964 0.812242
O O10 0.000000 0.261994 0.750000
#
# Coordination Sequence:
#
# PCOD8316428 Si02
#       5
#     8   4   8  16  16
#     4  10  17  30  50  78 111 140 168 212 273 341
#     4   8  19  28  44  74 112 140 177 216 269 340
#     4  10  18  33  55  80 111 148 184 231 287 338
#     4  11  22  38  56  79 111 148 192 236 279 328
#     4  10  20  36  55  84 112 143 185 229 282 343
#
# _framework density 19.071497000000001
#
# number of rings (size 3 to 8) (size 9 to 14) (size 15 to 20)
#    0.000    1.846    1.538    4.846    0.000    0.308 
#    0.000    2.308    0.000    0.000    0.000    0.000 
#    0.000    7.385    0.000    0.000    0.000    0.000 
#
# Total GULP energy -644189.551357 kJ/mol
# GULP energy per Si atom -12388.260603 kJ/mol
# Density = 1.902809 g / cm^3
# Si number density = 19.071497 Si / 1000 Ang^3
#
#
#
# Elastic Constant Matrix: (Units=GPa)
#
#
# Indices 1 2 3 4 5 6 
#
# 1 94.1354 44.8315 9.6064 0.0000 0.0000 0.0000
# 2 44.8315 94.1351 9.6065 0.0000 0.0000 0.0000
# 3 9.6064 9.6065 108.4074 0.0000 0.0000 0.0000
# 4 0.0000 0.0000 0.0000 23.9291 0.0000 0.0000
# 5 0.0000 0.0000 0.0000 0.0000 23.9295 0.0000
# 6 0.0000 0.0000 0.0000 0.0000 0.0000 24.9120
#
#
#
# Elastic Compliance Matrix: (Units=1/GPa)
#
#
# Indices 1 2 3 4 5 6 
#
# 1 0.013784 -0.006499 -0.000646 0.000000 0.000000 0.000000
# 2 -0.006499 0.013784 -0.000646 0.000000 0.000000 0.000000
# 3 -0.000646 -0.000646 0.009339 0.000000 0.000000 0.000000
# 4 0.000000 0.000000 0.000000 0.041790 0.000000 0.000000
# 5 0.000000 0.000000 0.000000 0.000000 0.041789 0.000000
# 6 0.000000 0.000000 0.000000 0.000000 0.000000 0.040141
#
#
# Mechanical properties :
#
#
# Convention : Reuss Voigt Hill
#
# Bulk Modulus (GPa) = 46.88891 47.19632 47.04261
# Shear Modulus (GPa) = 27.27533 30.06302 28.66918
#
# Velocity S-wave (km/s) = 3.78585 3.97461 3.88138
# Velocity P-wave (km/s) = 6.61434 6.77231 6.69379
#
# Compressibility (1/GPa) = 0.02132701
#
# Stress axis : x y z
#
# Youngs Moduli (GPa) = 72.54894 72.54872 107.07926
#
# Poissons Ratio (x) = 0.47147 0.06913
# Poissons Ratio (y) = 0.47147 0.06913
# Poissons Ratio (z) = 0.04684 0.04684
#
# Static dielectric constant tensor:
#      x y z
#    x 3.618910 0.000000 0.000000 
#    y 0.000000 3.618910 0.000000 
#    z 0.000000 0.000000 2.661110 
# 
# 
# High freq. dielectric constant tensor:
#      x y z
#    x 1.723830 0.000000 0.000000 
#    y 0.000000 1.723830 0.000000 
#    z 0.000000 0.000000 1.747550 
# 
# From -- ./inp_files/7366.got.cif
#   From: 2010.03.12/outbox.cif.g09.slc.cpg/sg132_4_cif.got.tgz:7366.got - 2010.04.06 17:53:44.
