data_PCOD8316215
_publ_section_title
;
Structure prediction by ZEFSAII (Michael W. Deem and Ramdas Pophale) SiO2 
 PCOD8316215
Probable space group: P 42/M M C
;
_chemical_formula_sum "Si O2"
_cell_formula_units_Z 46
_cell_length_a 9.367434
_cell_length_b 9.367434
_cell_length_c 28.451942
_cell_angle_alpha 90.000000
_cell_angle_beta 90.000000
_cell_angle_gamma 90.000000
_cell_volume 2496.624330
_symmetry_space_group_name_H-M "P 42/M M C"
_symmetry_group_IT_number 131
_symmetry_cell_setting 'tetragonal'
loop_
_space_group_symop_operation_xyz
x,y,z
-x,-y,z
-y,x,1/2+z
y,-x,1/2+z
-x,y,-z
x,-y,-z
y,x,1/2-z
-y,-x,1/2-z
-x,-y,-z
x,y,-z
y,-x,1/2-z
-y,x,1/2-z
x,-y,z
-x,y,z
-y,-x,1/2+z
y,x,1/2+z
loop_
_atom_site_type_symbol
_atom_site_label
_atom_site_fract_x
_atom_site_fract_y
_atom_site_fract_z
Si Si1 0.161143 0.500000 0.365608
Si Si2 0.000000 0.000000 0.250000
Si Si3 0.000000 0.165645 0.055573
Si Si4 0.500000 0.000000 0.223703
Si Si5 0.717293 0.000000 0.695509
Si Si6 0.333092 0.781019 0.615579
O O1 0.141868 0.500000 0.308984
O O2 0.254564 0.368066 0.381693
O O3 0.000000 0.500000 0.388481
O O4 0.000000 0.121421 0.211097
O O5 0.863125 0.249129 0.074777
O O6 0.000000 0.000000 0.072645
O O7 0.000000 0.173914 0.000000
O O8 0.361769 0.000000 0.255305
O O9 0.678973 0.139322 0.665431
O O10 0.500000 0.763574 0.602263
#
# Coordination Sequence:
#
# PCOD8316215 Si02
#       6
#     8   2   8   4   8  16
#     4  10  23  37  59  85 118 167 203 256 299 368
#     4  12  24  28  60  76 110 152 204 260 288 344
#     4  10  22  40  68  97 119 149 197 252 306 374
#     4  10  20  40  56  80 122 154 214 254 298 352
#     4  11  21  37  53  84 112 154 206 254 299 346
#     4  11  22  39  61  85 123 161 197 248 311 368
#
# _framework density 18.424879000000001
#
# number of rings (size 3 to 8) (size 9 to 14) (size 15 to 20)
#    0.522    0.870    1.739    5.217    7.304    1.391 
#    0.000    0.870    3.826    5.217    0.000    0.000 
#    0.000    0.000    0.000    0.000    0.000    0.000 
#
# Total GULP energy -570173.891431 kJ/mol
# GULP energy per Si atom -12395.084596 kJ/mol
# Density = 1.838294 g / cm^3
# Si number density = 18.424879 Si / 1000 Ang^3
#
#
#
# Elastic Constant Matrix: (Units=GPa)
#
#
# Indices 1 2 3 4 5 6 
#
# 1 183.1851 79.5754 51.6959 0.0000 0.0000 0.0000
# 2 79.5754 183.1851 51.6959 0.0000 0.0000 0.0000
# 3 51.6959 51.6959 90.5641 0.0000 0.0000 0.0000
# 4 0.0000 0.0000 0.0000 6.8192 0.0000 0.0000
# 5 0.0000 0.0000 0.0000 0.0000 6.8192 0.0000
# 6 0.0000 0.0000 0.0000 0.0000 0.0000 39.1662
#
#
#
# Elastic Compliance Matrix: (Units=1/GPa)
#
#
# Indices 1 2 3 4 5 6 
#
# 1 0.007280 -0.002372 -0.002802 0.000000 0.000000 0.000000
# 2 -0.002372 0.007280 -0.002802 0.000000 0.000000 0.000000
# 3 -0.002802 -0.002802 0.014240 0.000000 0.000000 0.000000
# 4 0.000000 0.000000 0.000000 0.146645 0.000000 0.000000
# 5 0.000000 0.000000 0.000000 0.000000 0.146645 0.000000
# 6 0.000000 0.000000 0.000000 0.000000 0.000000 0.025532
#
#
# Mechanical properties :
#
#
# Convention : Reuss Voigt Hill
#
# Bulk Modulus (GPa) = 77.82091 91.42986 84.62538
# Shear Modulus (GPa) = 13.59227 28.82539 21.20883
#
# Velocity S-wave (km/s) = 2.71903 3.95964 3.39646
# Velocity P-wave (km/s) = 7.22399 8.40451 7.83651
#
# Compressibility (1/GPa) = 0.01285002
#
# Stress axis : x y z
#
# Youngs Moduli (GPa) = 137.36480 137.36480 70.22264
#
# Poissons Ratio (x) = 0.32579 0.19674
# Poissons Ratio (y) = 0.32579 0.19674
# Poissons Ratio (z) = 0.38485 0.38485
#
# Static dielectric constant tensor:
#      x y z
#    x 3.610180 0.000000 0.000000 
#    y 0.000000 3.610180 0.000000 
#    z 0.000000 0.000000 3.206600 
# 
# 
# High freq. dielectric constant tensor:
#      x y z
#    x 1.726630 0.000000 0.000000 
#    y 0.000000 1.726630 0.000000 
#    z 0.000000 0.000000 1.701970 
# 
# From -- ./inp_files/13034.got.cif
#   From: 2010.03.12/outbox.cif.g09.slc.cpg/sg131_7_cif.got.tgz:13034.got - 2010.04.06 17:36:35.
