data_PCOD8316651
_publ_section_title
;
Structure prediction by ZEFSAII (Michael W. Deem and Ramdas Pophale) SiO2 
 PCOD8316651
Probable space group: P 42/M C M
;
_chemical_formula_sum "Si O2"
_cell_formula_units_Z 96
_cell_length_a 25.056651
_cell_length_b 25.056651
_cell_length_c 8.824209
_cell_angle_alpha 90.000000
_cell_angle_beta 90.000000
_cell_angle_gamma 90.000000
_cell_volume 5540.153958
_symmetry_space_group_name_H-M "P 42/M C M"
_symmetry_group_IT_number 132
_symmetry_cell_setting 'tetragonal'
loop_
_space_group_symop_operation_xyz
x,y,z
-y,x,1/2+z
-x,-y,z
y,-x,1/2+z
x,-y,1/2-z
-x,y,1/2-z
y,x,-z
-y,-x,-z
-x,-y,-z
y,-x,1/2-z
x,y,-z
-y,x,1/2-z
-x,y,1/2+z
x,-y,1/2+z
-y,-x,z
y,x,z
loop_
_atom_site_type_symbol
_atom_site_label
_atom_site_fract_x
_atom_site_fract_y
_atom_site_fract_z
Si Si1 0.253133 0.832990 0.820421
Si Si2 0.382142 0.948555 0.668716
Si Si3 0.053060 0.256794 0.831478
Si Si4 0.551385 0.132454 0.178454
Si Si5 0.247752 0.553207 0.678660
Si Si6 0.660926 0.250032 0.829481
O O1 0.202706 0.797295 0.769164
O O2 0.244392 0.891750 0.753498
O O3 0.308127 0.803073 0.765912
O O4 0.255341 0.837734 0.000000
O O5 0.406663 0.941962 0.500000
O O6 0.319487 0.954330 0.657329
O O7 0.395450 0.899163 0.777920
O O8 0.407442 0.000000 0.750000
O O9 0.000000 0.232585 0.750000
O O10 0.056091 0.231963 0.000000
O O11 0.500000 0.101746 0.250000
O O12 0.554618 0.187651 0.265280
O O13 0.546559 0.140841 0.000000
O O14 0.276161 0.500000 0.750000
O O15 0.252386 0.548423 0.500000
O O16 0.270591 0.610416 0.731584
O O17 0.701884 0.298117 0.830295
O O18 0.640730 0.237761 0.000000
#
# Coordination Sequence:
#
# PCOD8316651 Si02
#       6
#    16  16  16  16  16  16
#     4   9  18  32  50  72  99 130 161 195 238 288
#     4  10  20  33  46  63  84 110 147 189 234 279
#     4  10  20  32  48  68  92 122 155 193 233 278
#     4  11  21  33  47  62  82 111 148 191 237 281
#     4  11  21  33  49  69  94 124 159 197 237 283
#     4   9  18  33  52  74 101 132 163 197 242 293
#
# _framework density 17.328040000000001
#
# number of rings (size 3 to 8) (size 9 to 14) (size 15 to 20)
#    0.000    2.000    0.000    7.000    0.000    6.333 
#    0.000    3.333    0.000    0.000    0.000    0.000 
#    0.000    0.667    0.000    7.000    0.000    3.000 
#
# Total GULP energy -1189579.208403 kJ/mol
# GULP energy per Si atom -12391.450088 kJ/mol
# Density = 1.728860 g / cm^3
# Si number density = 17.328040 Si / 1000 Ang^3
#
#
#
# Elastic Constant Matrix: (Units=GPa)
#
#
# Indices 1 2 3 4 5 6 
#
# 1 70.9141 11.4549 31.8071 0.0000 0.0000 0.0000
# 2 11.4549 70.9141 31.8071 0.0000 0.0000 0.0000
# 3 31.8071 31.8071 102.3068 0.0000 0.0000 0.0000
# 4 0.0000 0.0000 0.0000 24.0575 0.0000 0.0000
# 5 0.0000 0.0000 0.0000 0.0000 24.0575 0.0000
# 6 0.0000 0.0000 0.0000 0.0000 0.0000 -34.2759
#
#
#
# Elastic Compliance Matrix: (Units=1/GPa)
#
#
# Indices 1 2 3 4 5 6 
#
# 1 0.016397 -0.000421 -0.004967 0.000000 0.000000 0.000000
# 2 -0.000421 0.016397 -0.004967 0.000000 0.000000 0.000000
# 3 -0.004967 -0.004967 0.012863 0.000000 0.000000 0.000000
# 4 0.000000 0.000000 0.000000 0.041567 0.000000 0.000000
# 5 0.000000 0.000000 0.000000 0.000000 0.041567 0.000000
# 6 0.000000 0.000000 0.000000 0.000000 0.000000 -0.029175
#
#
# Mechanical properties :
#
#
# Convention : Reuss Voigt Hill
#
# Bulk Modulus (GPa) = 40.08361 43.80814 41.94587
# Shear Modulus (GPa) = 38.86714 14.03886 26.45300
#
# Velocity S-wave (km/s) = 4.74119 2.84946 3.91141
# Velocity P-wave (km/s) = 7.29070 6.01352 6.68269
#
# Compressibility (1/GPa) = 0.02494785
#
# Stress axis : x y z
#
# Youngs Moduli (GPa) = 60.98503 60.98503 77.74181
#
# Poissons Ratio (x) = 0.02566 0.38615
# Poissons Ratio (y) = 0.02566 0.38615
# Poissons Ratio (z) = 0.30292 0.30292
#
# Static dielectric constant tensor:
#      x y z
#    x 3.729550 0.000000 0.000000 
#    y 0.000000 3.729550 0.000000 
#    z 0.000000 0.000000 3.525740 
# 
# 
# High freq. dielectric constant tensor:
#      x y z
#    x 1.644880 0.000000 0.000000 
#    y 0.000000 1.644880 0.000000 
#    z 0.000000 0.000000 1.680880 
# 
# From -- ./inp_files/1786.got.cif
#   From: 2010.03.12/outbox.cif.g09.slc.cpg/sg132_1_cif.got.tgz:1786.got - 2010.04.06 17:53:44.
