data_PCOD8316037
_publ_section_title
;
Structure prediction by ZEFSAII (Michael W. Deem and Ramdas Pophale) SiO2 
 PCOD8316037
Probable space group: P 42/M M C
;
_chemical_formula_sum "Si O2"
_cell_formula_units_Z 96
_cell_length_a 24.780599
_cell_length_b 24.780599
_cell_length_c 9.408400
_cell_angle_alpha 90.000000
_cell_angle_beta 90.000000
_cell_angle_gamma 90.000000
_cell_volume 5777.492272
_symmetry_space_group_name_H-M "P 42/M M C"
_symmetry_group_IT_number 131
_symmetry_cell_setting 'tetragonal'
loop_
_space_group_symop_operation_xyz
x,y,z
-x,-y,z
-y,x,1/2+z
y,-x,1/2+z
-x,y,-z
x,-y,-z
y,x,1/2-z
-y,-x,1/2-z
-x,-y,-z
x,y,-z
y,-x,1/2-z
-y,x,1/2-z
x,-y,z
-x,y,z
-y,-x,1/2+z
y,x,1/2+z
loop_
_atom_site_type_symbol
_atom_site_label
_atom_site_fract_x
_atom_site_fract_y
_atom_site_fract_z
Si Si1 0.363695 0.439787 0.336472
Si Si2 0.634573 0.840194 0.664364
Si Si3 0.940252 0.763094 0.659659
Si Si4 0.761833 0.838251 0.334087
Si Si5 0.940657 0.365005 0.658960
Si Si6 0.438395 0.761973 0.837383
O O1 0.396360 0.396360 0.250000
O O2 0.379318 0.433411 0.500000
O O3 0.378405 0.500000 0.283841
O O4 0.300943 0.428798 0.313016
O O5 0.620031 0.842402 0.500000
O O6 0.698064 0.831917 0.689987
O O7 0.613018 0.895881 0.732997
O O8 0.603076 0.791108 0.734205
O O9 0.926357 0.783473 0.500000
O O10 0.894998 0.783760 0.769947
O O11 0.941037 0.699073 0.661115
O O12 0.000000 0.784428 0.704856
O O13 0.789336 0.789336 0.250000
O O14 0.777056 0.836087 0.500000
O O15 0.926975 0.385525 0.500000
O O16 0.000000 0.386320 0.705231
O O17 0.500000 0.777655 0.799785
O O18 0.425746 0.777790 0.000000
#
# Coordination Sequence:
#
# PCOD8316037 Si02
#       6
#    16  16  16  16  16  16
#     4   9  19  35  53  74  98 122 150 185 226 272
#     4  10  20  31  46  70  95 121 154 192 236 279
#     4   8  14  26  44  64  87 118 155 192 230 273
#     4  10  20  31  43  64  96 129 158 190 230 275
#     4   8  14  26  45  67  90 119 154 188 225 274
#     4   9  19  36  54  69  89 121 158 192 226 270
#
# _framework density 16.616206999999999
#
# number of rings (size 3 to 8) (size 9 to 14) (size 15 to 20)
#    0.000    3.000    0.000    3.000    0.000    4.833 
#    0.000    9.167    0.000    0.500    0.000    3.500 
#    0.000    0.333    0.000    3.500    0.000    1.833 
#
# Total GULP energy -1189988.157613 kJ/mol
# GULP energy per Si atom -12395.709975 kJ/mol
# Density = 1.657839 g / cm^3
# Si number density = 16.616207 Si / 1000 Ang^3
#
#
#
# Elastic Constant Matrix: (Units=GPa)
#
#
# Indices 1 2 3 4 5 6 
#
# 1 64.7877 44.7771 58.6341 0.0000 0.0000 0.0000
# 2 44.7771 64.7877 58.6341 0.0000 0.0000 0.0000
# 3 58.6341 58.6341 119.1621 0.0000 0.0000 0.0000
# 4 0.0000 0.0000 0.0000 27.4267 0.0000 0.0000
# 5 0.0000 0.0000 0.0000 0.0000 27.4267 0.0000
# 6 0.0000 0.0000 0.0000 0.0000 0.0000 -3.0203
#
#
#
# Elastic Compliance Matrix: (Units=1/GPa)
#
#
# Indices 1 2 3 4 5 6 
#
# 1 0.034628 -0.015346 -0.009488 0.000000 0.000000 0.000000
# 2 -0.015346 0.034628 -0.009488 0.000000 0.000000 0.000000
# 3 -0.009488 -0.009488 0.017729 0.000000 0.000000 0.000000
# 4 0.000000 0.000000 0.000000 0.036461 0.000000 0.000000
# 5 0.000000 0.000000 0.000000 0.000000 0.036461 0.000000
# 6 0.000000 0.000000 0.000000 0.000000 0.000000 -0.331094
#
#
# Mechanical properties :
#
#
# Convention : Reuss Voigt Hill
#
# Bulk Modulus (GPa) = 54.52064 63.64758 59.08411
# Shear Modulus (GPa) = -51.84998 16.14612 -17.85193
#
# Velocity S-wave (km/s) = -5.59216 3.12061 -3.28131
# Velocity P-wave (km/s) = 2.96872 7.16742 4.61295
#
# Compressibility (1/GPa) = 0.01834168
#
# Stress axis : x y z
#
# Youngs Moduli (GPa) = 28.87875 28.87875 56.40551
#
# Poissons Ratio (x) = 0.44317 0.53515
# Poissons Ratio (y) = 0.44317 0.53515
# Poissons Ratio (z) = 0.27399 0.27399
#
# Static dielectric constant tensor:
#      x y z
#    x 3.063960 0.000000 0.000000 
#    y 0.000000 3.063960 0.000000 
#    z 0.000000 0.000000 3.201940 
# 
# 
# High freq. dielectric constant tensor:
#      x y z
#    x 1.623290 0.000000 0.000000 
#    y 0.000000 1.623290 0.000000 
#    z 0.000000 0.000000 1.644050 
# 
# From -- ./inp_files/2178.got.cif
#   From: 2010.03.12/outbox.cif.g09.slc.cpg/sg131_2_cif.got.tgz:2178.got - 2010.04.06 17:36:35.
