data_PCOD8316676
_publ_section_title
;
Structure prediction by ZEFSAII (Michael W. Deem and Ramdas Pophale) SiO2 
 PCOD8316676
Probable space group: P 42/M C M
;
_chemical_formula_sum "Si O2"
_cell_formula_units_Z 128
_cell_length_a 20.629109
_cell_length_b 20.629109
_cell_length_c 17.491226
_cell_angle_alpha 90.000000
_cell_angle_beta 90.000000
_cell_angle_gamma 90.000000
_cell_volume 7443.568553
_symmetry_space_group_name_H-M "P 42/M C M"
_symmetry_group_IT_number 132
_symmetry_cell_setting 'tetragonal'
loop_
_space_group_symop_operation_xyz
x,y,z
-y,x,1/2+z
-x,-y,z
y,-x,1/2+z
x,-y,1/2-z
-x,y,1/2-z
y,x,-z
-y,-x,-z
-x,-y,-z
y,-x,1/2-z
x,y,-z
-y,x,1/2-z
-x,y,1/2+z
x,-y,1/2+z
-y,-x,z
y,x,z
loop_
_atom_site_type_symbol
_atom_site_label
_atom_site_fract_x
_atom_site_fract_y
_atom_site_fract_z
Si Si1 0.686026 0.209736 0.410370
Si Si2 0.999901 0.389287 0.912008
Si Si3 0.773871 0.878506 0.806752
Si Si4 0.571903 0.136489 0.343712
Si Si5 0.014179 0.762151 0.584292
Si Si6 0.220642 0.322797 0.413446
Si Si7 0.423516 0.864183 0.167886
Si Si8 0.776757 0.879303 0.362646
O O1 0.693556 0.194597 0.500000
O O2 0.718241 0.281760 0.393151
O O3 0.722692 0.155902 0.361702
O O4 0.611434 0.195928 0.385584
O O5 0.934241 0.410096 0.869201
O O6 0.065287 0.422671 0.881325
O O7 0.009379 0.313764 0.900437
O O8 0.990967 0.409058 0.000000
O O9 0.838099 0.838099 0.797405
O O10 0.794545 0.943886 0.849172
O O11 0.745065 0.891517 0.721915
O O12 0.594700 0.130160 0.256535
O O13 0.497171 0.156629 0.347455
O O14 0.042540 0.777012 0.500000
O O15 0.943750 0.792866 0.591541
O O16 0.233488 0.345377 0.500000
O O17 0.285712 0.285712 0.381120
O O18 0.197765 0.383884 0.364237
O O19 0.161771 0.272332 0.413607
O O20 0.844962 0.844962 0.352673
#
# Coordination Sequence:
#
# PCOD8316676 Si02
#       8
#    16  16  16  16  16  16  16  16
#     4  10  20  34  52  74  99 128 165 207 248 291
#     4  11  22  34  49  72 100 137 175 208 247 290
#     4  10  20  33  51  73  95 123 159 202 252 299
#     4  11  23  36  51  73 102 137 174 209 247 293
#     4  11  21  32  50  74  98 126 162 203 249 297
#     4  10  20  34  52  74  99 128 165 207 248 291
#     4  11  23  36  51  73 102 137 174 209 247 293
#     4  10  20  33  51  73  95 123 159 202 252 299
#
# _framework density 17.196052999999999
#
# number of rings (size 3 to 8) (size 9 to 14) (size 15 to 20)
#    0.000    1.500    2.500    3.375    0.000    7.500 
#    0.000    0.000    0.000    0.375    0.000    2.625 
#    0.000    0.500    0.000    5.500    0.000    4.000 
#
# Total GULP energy -1586240.653765 kJ/mol
# GULP energy per Si atom -12392.505108 kJ/mol
# Density = 1.715691 g / cm^3
# Si number density = 17.196053 Si / 1000 Ang^3
#
#
#
# Elastic Constant Matrix: (Units=GPa)
#
#
# Indices 1 2 3 4 5 6 
#
# 1 61.4609 24.8662 24.5381 0.0000 0.0000 0.0000
# 2 24.8662 61.4609 24.5381 0.0000 0.0000 0.0000
# 3 24.5381 24.5381 89.6847 0.0000 0.0000 0.0000
# 4 0.0000 0.0000 0.0000 25.4494 0.0000 0.0000
# 5 0.0000 0.0000 0.0000 0.0000 25.4494 0.0000
# 6 0.0000 0.0000 0.0000 0.0000 0.0000 6.8416
#
#
#
# Elastic Compliance Matrix: (Units=1/GPa)
#
#
# Indices 1 2 3 4 5 6 
#
# 1 0.020522 -0.006804 -0.003753 0.000000 0.000000 0.000000
# 2 -0.006804 0.020522 -0.003753 0.000000 0.000000 0.000000
# 3 -0.003753 -0.003753 0.013204 0.000000 0.000000 0.000000
# 4 0.000000 0.000000 0.000000 0.039294 0.000000 0.000000
# 5 0.000000 0.000000 0.000000 0.000000 0.039294 0.000000
# 6 0.000000 0.000000 0.000000 0.000000 0.000000 0.146165
#
#
# Mechanical properties :
#
#
# Convention : Reuss Voigt Hill
#
# Bulk Modulus (GPa) = 39.02248 40.05460 39.53854
# Shear Modulus (GPa) = 15.81457 20.79233 18.30345
#
# Velocity S-wave (km/s) = 3.03588 3.48103 3.26605
# Velocity P-wave (km/s) = 5.91868 6.28492 6.10455
#
# Compressibility (1/GPa) = 0.02562625
#
# Stress axis : x y z
#
# Youngs Moduli (GPa) = 48.72837 48.72837 75.73500
#
# Poissons Ratio (x) = 0.33157 0.28425
# Poissons Ratio (y) = 0.33157 0.28425
# Poissons Ratio (z) = 0.18289 0.18289
#
# Static dielectric constant tensor:
#      x y z
#    x 3.219300 0.000000 0.000000 
#    y 0.000000 3.219300 0.000000 
#    z 0.000000 0.000000 3.648210 
# 
# 
# High freq. dielectric constant tensor:
#      x y z
#    x 1.640440 0.000000 0.000000 
#    y 0.000000 1.640440 0.000000 
#    z 0.000000 0.000000 1.687810 
# 
# From -- ./inp_files/6846.got.cif
#   From: 2010.03.12/outbox.cif.g09.slc.cpg/sg132_4_cif.got.tgz:6846.got - 2010.04.06 17:53:44.
