data_PCOD8316793
_publ_section_title
;
Structure prediction by ZEFSAII (Michael W. Deem and Ramdas Pophale) SiO2 
 PCOD8316793
Probable space group: P 42/M C M
;
_chemical_formula_sum "Si O2"
_cell_formula_units_Z 96
_cell_length_a 22.783029
_cell_length_b 22.783029
_cell_length_c 9.578662
_cell_angle_alpha 90.000000
_cell_angle_beta 90.000000
_cell_angle_gamma 90.000000
_cell_volume 4971.961701
_symmetry_space_group_name_H-M "P 42/M C M"
_symmetry_group_IT_number 132
_symmetry_cell_setting 'tetragonal'
loop_
_space_group_symop_operation_xyz
x,y,z
-y,x,1/2+z
-x,-y,z
y,-x,1/2+z
x,-y,1/2-z
-x,y,1/2-z
y,x,-z
-y,-x,-z
-x,-y,-z
y,-x,1/2-z
x,y,-z
-y,x,1/2-z
-x,y,1/2+z
x,-y,1/2+z
-y,-x,z
y,x,z
loop_
_atom_site_type_symbol
_atom_site_label
_atom_site_fract_x
_atom_site_fract_y
_atom_site_fract_z
Si Si1 0.253858 0.950042 0.000000
Si Si2 0.555883 0.241127 0.159094
Si Si3 0.614560 0.030296 0.000000
Si Si4 0.920737 0.761972 0.000000
Si Si5 0.376917 0.098513 0.000000
Si Si6 0.330944 0.767326 0.339178
Si Si7 0.855500 0.237828 0.233864
Si Si8 0.436868 0.887719 0.776559
O O1 0.316910 0.978423 0.000000
O O2 0.245424 0.909795 0.132612
O O3 0.216191 0.010828 0.000000
O O4 0.500000 0.264253 0.250000
O O5 0.614607 0.256101 0.246915
O O6 0.552011 0.171340 0.136608
O O7 0.556771 0.268240 0.000000
O O8 0.598912 0.064381 0.139623
O O9 0.588632 0.964570 0.000000
O O10 0.910387 0.692040 0.000000
O O11 0.885995 0.788756 0.870112
O O12 0.400285 0.131679 0.138561
O O13 0.348476 0.786263 0.500000
O O14 0.285862 0.714139 0.349942
O O15 0.299682 0.822439 0.262066
O O16 0.809111 0.190890 0.173655
O O17 0.500000 0.916860 0.750000
#
# Coordination Sequence:
#
# PCOD8316793 Si02
#       8
#     8  16   8   8   8  16  16  16
#     4  11  23  36  55  80 110 140 176 224 275 343
#     4  11  23  37  56  78 107 146 189 238 286 340
#     4  11  21  37  48  69  94 129 175 221 277 324
#     4  11  21  38  57  78 106 142 180 218 273 347
#     4  11  23  33  52  67  92 133 175 223 273 324
#     4  10  21  37  59  85 114 151 191 235 289 345
#     4  11  22  37  57  83 112 143 182 229 282 338
#     4  11  23  34  47  67  92 131 182 231 276 321
#
# _framework density 19.308274000000001
#
# number of rings (size 3 to 8) (size 9 to 14) (size 15 to 20)
#    0.000    1.167    1.667    5.500    5.833    5.000 
#    0.000    0.000    0.000    0.000    0.000    0.000 
#    0.000   23.667    0.000    3.500    0.000    1.500 
#
# Total GULP energy -1190002.317072 kJ/mol
# GULP energy per Si atom -12395.857470 kJ/mol
# Density = 1.926433 g / cm^3
# Si number density = 19.308274 Si / 1000 Ang^3
#
#
#
# Elastic Constant Matrix: (Units=GPa)
#
#
# Indices 1 2 3 4 5 6 
#
# 1 59.1446 3.0747 12.1501 0.0000 0.0000 0.0000
# 2 3.0747 59.1446 12.1501 0.0000 0.0000 0.0000
# 3 12.1501 12.1501 105.8875 0.0000 0.0000 0.0000
# 4 0.0000 0.0000 0.0000 12.2028 0.0000 0.0000
# 5 0.0000 0.0000 0.0000 0.0000 12.2028 0.0000
# 6 0.0000 0.0000 0.0000 0.0000 0.0000 12.9726
#
#
#
# Elastic Compliance Matrix: (Units=1/GPa)
#
#
# Indices 1 2 3 4 5 6 
#
# 1 0.017331 -0.000504 -0.001931 0.000000 0.000000 0.000000
# 2 -0.000504 0.017331 -0.001931 0.000000 0.000000 0.000000
# 3 -0.001931 -0.001931 0.009887 0.000000 0.000000 0.000000
# 4 0.000000 0.000000 0.000000 0.081948 0.000000 0.000000
# 5 0.000000 0.000000 0.000000 0.000000 0.081948 0.000000
# 6 0.000000 0.000000 0.000000 0.000000 0.000000 0.077085
#
#
# Mechanical properties :
#
#
# Convention : Reuss Voigt Hill
#
# Bulk Modulus (GPa) = 27.92001 30.99183 29.45592
# Shear Modulus (GPa) = 16.32916 20.59578 18.46247
#
# Velocity S-wave (km/s) = 2.91126 3.26955 3.09559
# Velocity P-wave (km/s) = 5.07859 5.50810 5.29770
#
# Compressibility (1/GPa) = 0.03581661
#
# Stress axis : x y z
#
# Youngs Moduli (GPa) = 57.70158 57.70158 101.14218
#
# Poissons Ratio (x) = 0.02910 0.19528
# Poissons Ratio (y) = 0.02910 0.19528
# Poissons Ratio (z) = 0.11141 0.11141
#
# Static dielectric constant tensor:
#      x y z
#    x 3.395650 0.000000 0.000000 
#    y 0.000000 3.395650 0.000000 
#    z 0.000000 0.000000 3.752200 
# 
# 
# High freq. dielectric constant tensor:
#      x y z
#    x 1.728660 0.000000 0.000000 
#    y 0.000000 1.728660 0.000000 
#    z 0.000000 0.000000 1.769010 
# 
# From -- ./inp_files/1873.got.cif
#   From: 2010.03.12/outbox.cif.g09.slc.cpg/sg132_1_cif.got.tgz:1873.got - 2010.04.06 17:53:44.
