data_PCOD8316699
_publ_section_title
;
Structure prediction by ZEFSAII (Michael W. Deem and Ramdas Pophale) SiO2 
 PCOD8316699
Probable space group: P 42/M C M
;
_chemical_formula_sum "Si O2"
_cell_formula_units_Z 96
_cell_length_a 24.050979
_cell_length_b 24.050979
_cell_length_c 8.897108
_cell_angle_alpha 90.000000
_cell_angle_beta 90.000000
_cell_angle_gamma 90.000000
_cell_volume 5146.528482
_symmetry_space_group_name_H-M "P 42/M C M"
_symmetry_group_IT_number 132
_symmetry_cell_setting 'tetragonal'
loop_
_space_group_symop_operation_xyz
x,y,z
-y,x,1/2+z
-x,-y,z
y,-x,1/2+z
x,-y,1/2-z
-x,y,1/2-z
y,x,-z
-y,-x,-z
-x,-y,-z
y,-x,1/2-z
x,y,-z
-y,x,1/2-z
-x,y,1/2+z
x,-y,1/2+z
-y,-x,z
y,x,z
loop_
_atom_site_type_symbol
_atom_site_label
_atom_site_fract_x
_atom_site_fract_y
_atom_site_fract_z
Si Si1 0.767955 0.444111 0.823234
Si Si2 0.852055 0.648331 0.675046
Si Si3 0.232524 0.857810 0.323494
Si Si4 0.059627 0.849270 0.823732
Si Si5 0.555213 0.357486 0.176963
Si Si6 0.941060 0.444031 0.176645
O O1 0.793230 0.500000 0.750000
O O2 0.799831 0.388751 0.772549
O O3 0.705164 0.435396 0.767491
O O4 0.773889 0.452157 0.000000
O O5 0.848563 0.664370 0.500000
O O6 0.851570 0.704326 0.770594
O O7 0.905625 0.610891 0.710472
O O8 0.231406 0.868947 0.500000
O O9 0.197943 0.802058 0.281755
O O10 0.205423 0.911115 0.243265
O O11 0.096553 0.903448 0.787318
O O12 0.000000 0.858657 0.750000
O O13 0.052209 0.840027 0.000000
O O14 0.500000 0.383057 0.250000
O O15 0.607516 0.392485 0.234499
O O16 0.548539 0.360537 0.000000
O O17 0.914672 0.500000 0.250000
O O18 0.000000 0.431943 0.250000
O O19 0.946600 0.454705 0.000000
#
# Coordination Sequence:
#
# PCOD8316699 Si02
#       6
#    16  16  16  16  16  16
#     4   9  18  33  52  74 100 131 168 214 266 317
#     4  10  21  35  54  79 104 136 178 218 263 321
#     4  10  22  39  57  79 109 144 182 225 271 317
#     4  10  21  38  61  87 116 150 184 221 266 313
#     4   9  18  32  49  70  96 126 161 201 249 306
#     4  10  20  34  52  76 106 139 174 213 260 310
#
# _framework density 18.653351000000001
#
# number of rings (size 3 to 8) (size 9 to 14) (size 15 to 20)
#    0.000    2.333    0.000    2.500    0.000    6.000 
#    0.000    5.000    0.000    0.000    0.000    0.000 
#    0.000    0.000    0.000    0.000    0.000    0.000 
#
# Total GULP energy -1190377.654352 kJ/mol
# GULP energy per Si atom -12399.767233 kJ/mol
# Density = 1.861090 g / cm^3
# Si number density = 18.653351 Si / 1000 Ang^3
#
#
#
# Elastic Constant Matrix: (Units=GPa)
#
#
# Indices 1 2 3 4 5 6 
#
# 1 134.4800 66.4267 54.3709 0.0000 0.0000 0.0000
# 2 66.4267 134.4800 54.3709 0.0000 0.0000 0.0000
# 3 54.3709 54.3709 79.6291 0.0000 0.0000 0.0000
# 4 0.0000 0.0000 0.0000 32.7576 0.0000 0.0000
# 5 0.0000 0.0000 0.0000 0.0000 32.7576 0.0000
# 6 0.0000 0.0000 0.0000 0.0000 0.0000 25.5586
#
#
#
# Elastic Compliance Matrix: (Units=1/GPa)
#
#
# Indices 1 2 3 4 5 6 
#
# 1 0.011295 -0.003400 -0.005391 0.000000 0.000000 0.000000
# 2 -0.003400 0.011295 -0.005391 0.000000 0.000000 0.000000
# 3 -0.005391 -0.005391 0.019920 0.000000 0.000000 0.000000
# 4 0.000000 0.000000 0.000000 0.030527 0.000000 0.000000
# 5 0.000000 0.000000 0.000000 0.000000 0.030527 0.000000
# 6 0.000000 0.000000 0.000000 0.000000 0.000000 0.039126
#
#
# Mechanical properties :
#
#
# Convention : Reuss Voigt Hill
#
# Bulk Modulus (GPa) = 70.68642 77.65845 74.17243
# Shear Modulus (GPa) = 28.44650 29.77613 29.11131
#
# Velocity S-wave (km/s) = 3.90937 3.99969 3.95479
# Velocity P-wave (km/s) = 7.63902 7.94058 7.79126
#
# Compressibility (1/GPa) = 0.01414699
#
# Stress axis : x y z
#
# Youngs Moduli (GPa) = 88.53609 88.53609 50.20058
#
# Poissons Ratio (x) = 0.30098 0.27063
# Poissons Ratio (y) = 0.30098 0.27063
# Poissons Ratio (z) = 0.47729 0.47729
#
# Static dielectric constant tensor:
#      x y z
#    x 3.618170 0.000000 0.000000 
#    y 0.000000 3.618170 0.000000 
#    z 0.000000 0.000000 3.377150 
# 
# 
# High freq. dielectric constant tensor:
#      x y z
#    x 1.727920 0.000000 0.000000 
#    y 0.000000 1.727920 0.000000 
#    z 0.000000 0.000000 1.726070 
# 
# From -- ./inp_files/1716.got.cif
#   From: 2010.03.12/outbox.cif.g09.slc.cpg/sg132_1_cif.got.tgz:1716.got - 2010.04.06 17:53:44.
