data_PCOD8316331
_publ_section_title
;
Structure prediction by ZEFSAII (Michael W. Deem and Ramdas Pophale) SiO2 
 PCOD8316331
Probable space group: P 42/M M C
;
_chemical_formula_sum "Si O2"
_cell_formula_units_Z 72
_cell_length_a 14.422575
_cell_length_b 14.422575
_cell_length_c 18.139818
_cell_angle_alpha 90.000000
_cell_angle_beta 90.000000
_cell_angle_gamma 90.000000
_cell_volume 3773.275689
_symmetry_space_group_name_H-M "P 42/M M C"
_symmetry_group_IT_number 131
_symmetry_cell_setting 'tetragonal'
loop_
_space_group_symop_operation_xyz
x,y,z
-x,-y,z
-y,x,1/2+z
y,-x,1/2+z
-x,y,-z
x,-y,-z
y,x,1/2-z
-y,-x,1/2-z
-x,-y,-z
x,y,-z
y,-x,1/2-z
-y,x,1/2-z
x,-y,z
-x,y,z
-y,-x,1/2+z
y,x,1/2+z
loop_
_atom_site_type_symbol
_atom_site_label
_atom_site_fract_x
_atom_site_fract_y
_atom_site_fract_z
Si Si1 0.108948 0.896215 0.833245
Si Si2 0.322066 0.389427 0.172111
Si Si3 0.763493 0.762093 0.912783
Si Si4 0.500000 0.608399 0.920179
Si Si5 0.896807 0.602937 0.587268
O O1 0.134568 0.865433 0.750000
O O2 0.146798 0.821616 0.891461
O O3 0.000000 0.897987 0.843070
O O4 0.148007 0.000000 0.849872
O O5 0.344280 0.344280 0.250000
O O6 0.303288 0.500000 0.177248
O O7 0.236912 0.336007 0.131888
O O8 0.409086 0.362364 0.122351
O O9 0.676105 0.822259 0.883279
O O10 0.762981 0.742478 0.000000
O O11 0.500000 0.500000 0.931877
O O12 0.500000 0.659028 0.000000
O O13 0.901554 0.609028 0.500000
O O14 0.865341 0.500000 0.612650
O O15 0.000000 0.624440 0.618928
#
# Coordination Sequence:
#
# PCOD8316331 Si02
#       5
#    16  16  16   8  16
#     4   9  19  38  62  86 115 151 190 234 287 349
#     4  11  22  37  55  76 109 153 197 241 288 338
#     4  11  22  33  53  84 115 147 188 239 291 347
#     4   9  18  32  52  74  99 137 187 238 280 322
#     4   8  15  28  44  66 101 140 174 216 276 341
#
# _framework density 19.081562999999999
#
# number of rings (size 3 to 8) (size 9 to 14) (size 15 to 20)
#    0.000    2.333    1.111    3.333    1.556    3.111 
#    0.000    1.111    0.000    0.667    0.000    1.556 
#    0.000    0.000    0.000    0.000    0.000    0.000 
#
# Total GULP energy -892391.592474 kJ/mol
# GULP energy per Si atom -12394.327673 kJ/mol
# Density = 1.903813 g / cm^3
# Si number density = 19.081563 Si / 1000 Ang^3
#
#
#
# Elastic Constant Matrix: (Units=GPa)
#
#
# Indices 1 2 3 4 5 6 
#
# 1 61.3041 34.0468 35.4626 0.0000 0.0000 0.0000
# 2 34.0468 61.3037 35.4625 0.0000 0.0000 0.0000
# 3 35.4626 35.4625 113.5802 0.0000 0.0000 0.0000
# 4 0.0000 0.0000 0.0000 27.9089 0.0000 0.0000
# 5 0.0000 0.0000 0.0000 0.0000 27.9087 0.0000
# 6 0.0000 0.0000 0.0000 0.0000 0.0000 31.7020
#
#
#
# Elastic Compliance Matrix: (Units=1/GPa)
#
#
# Indices 1 2 3 4 5 6 
#
# 1 0.025174 -0.011514 -0.004265 0.000000 0.000000 0.000000
# 2 -0.011514 0.025174 -0.004265 0.000000 0.000000 0.000000
# 3 -0.004265 -0.004265 0.011468 0.000000 0.000000 0.000000
# 4 0.000000 0.000000 0.000000 0.035831 0.000000 0.000000
# 5 0.000000 0.000000 0.000000 0.000000 0.035831 0.000000
# 6 0.000000 0.000000 0.000000 0.000000 0.000000 0.031544
#
#
# Mechanical properties :
#
#
# Convention : Reuss Voigt Hill
#
# Bulk Modulus (GPa) = 46.02417 49.57021 47.79719
# Shear Modulus (GPa) = 23.54588 26.25166 24.89877
#
# Velocity S-wave (km/s) = 3.51659 3.71315 3.61620
# Velocity P-wave (km/s) = 6.37657 6.66466 6.52221
#
# Compressibility (1/GPa) = 0.02172771
#
# Stress axis : x y z
#
# Youngs Moduli (GPa) = 39.72384 39.72361 87.20188
#
# Poissons Ratio (x) = 0.45737 0.37192
# Poissons Ratio (y) = 0.45737 0.37192
# Poissons Ratio (z) = 0.16942 0.16942
#
# Static dielectric constant tensor:
#      x y z
#    x 3.444400 0.000000 0.000000 
#    y 0.000000 3.444400 0.000000 
#    z 0.000000 0.000000 3.502200 
# 
# 
# High freq. dielectric constant tensor:
#      x y z
#    x 1.732480 0.000000 0.000000 
#    y 0.000000 1.732480 0.000000 
#    z 0.000000 0.000000 1.727420 
# 
# From -- ./inp_files/7566.got.cif
#   From: 2010.03.12/outbox.cif.g09.slc.cpg/sg131_4_cif.got.tgz:7566.got - 2010.04.06 17:36:35.
