data_PCOD8316630
_publ_section_title
;
Structure prediction by ZEFSAII (Michael W. Deem and Ramdas Pophale) SiO2 
 PCOD8316630
Probable space group: P 42/M C M
;
_chemical_formula_sum "Si O2"
_cell_formula_units_Z 104
_cell_length_a 17.938399
_cell_length_b 17.938399
_cell_length_c 18.119699
_cell_angle_alpha 90.000000
_cell_angle_beta 90.000000
_cell_angle_gamma 90.000000
_cell_volume 5830.668338
_symmetry_space_group_name_H-M "P 42/M C M"
_symmetry_group_IT_number 132
_symmetry_cell_setting 'tetragonal'
loop_
_space_group_symop_operation_xyz
x,y,z
-y,x,1/2+z
-x,-y,z
y,-x,1/2+z
x,-y,1/2-z
-x,y,1/2-z
y,x,-z
-y,-x,-z
-x,-y,-z
y,-x,1/2-z
x,y,-z
-y,x,1/2-z
-x,y,1/2+z
x,-y,1/2+z
-y,-x,z
y,x,z
loop_
_atom_site_type_symbol
_atom_site_label
_atom_site_fract_x
_atom_site_fract_y
_atom_site_fract_z
Si Si1 0.162657 0.038023 0.174334
Si Si2 0.324447 0.085232 0.855934
Si Si3 0.362564 0.242707 0.917859
Si Si4 0.959486 0.422531 0.915646
Si Si5 0.937509 0.937509 0.418323
Si Si6 0.419153 0.297534 0.771494
Si Si7 0.135067 0.582976 0.777199
O O1 0.097258 0.097258 0.187289
O O2 0.235074 0.079914 0.143206
O O3 0.186168 0.000000 0.250000
O O4 0.135192 0.971415 0.121260
O O5 0.349996 0.156685 0.901659
O O6 0.358085 0.089224 0.772927
O O7 0.354946 0.015134 0.900514
O O8 0.282843 0.282843 0.911206
O O9 0.419403 0.279074 0.859104
O O10 0.396689 0.252142 0.000000
O O11 0.888684 0.411227 0.862400
O O12 0.000000 0.500000 0.897350
O O13 0.931175 0.420386 0.000000
O O14 0.912958 0.912958 0.500000
O O15 0.000000 0.000000 0.421533
O O16 0.500000 0.328686 0.750000
O O17 0.359041 0.359041 0.749392
O O18 0.399193 0.222834 0.726415
O O19 0.117455 0.500000 0.750000
#
# Coordination Sequence:
#
# PCOD8316630 Si02
#       7
#    16  16  16  16   8  16  16
#     4  11  21  36  57  78 102 137 181 226 271 322
#     4  11  21  33  54  83 107 136 179 225 272 321
#     4   9  18  34  55  81 113 142 172 222 282 330
#     4  11  22  34  52  79 109 143 179 220 268 319
#     4   9  20  36  54  74 100 136 174 216 270 322
#     4   9  19  35  57  85 111 145 184 220 268 324
#     4  10  19  36  55  76 110 145 177 217 269 325
#
# _framework density 17.83672
#
# number of rings (size 3 to 8) (size 9 to 14) (size 15 to 20)
#    0.000    1.923    2.308    2.308    0.000    2.000 
#    0.000    1.538    0.000    1.846    0.000    2.154 
#    0.000    0.000    0.000    0.000    0.000    0.000 
#
# Total GULP energy -1289684.571972 kJ/mol
# GULP energy per Si atom -12400.813192 kJ/mol
# Density = 1.779612 g / cm^3
# Si number density = 17.836720 Si / 1000 Ang^3
#
#
#
# Elastic Constant Matrix: (Units=GPa)
#
#
# Indices 1 2 3 4 5 6 
#
# 1 92.4616 30.1969 45.5462 0.0000 0.0000 0.0000
# 2 30.1969 92.4616 45.5462 0.0000 0.0000 0.0000
# 3 45.5462 45.5462 133.8659 0.0000 0.0000 0.0000
# 4 0.0000 0.0000 0.0000 21.6013 0.0000 0.0000
# 5 0.0000 0.0000 0.0000 0.0000 21.6013 0.0000
# 6 0.0000 0.0000 0.0000 0.0000 0.0000 26.4839
#
#
#
# Elastic Compliance Matrix: (Units=1/GPa)
#
#
# Indices 1 2 3 4 5 6 
#
# 1 0.013485 -0.002576 -0.003712 0.000000 0.000000 0.000000
# 2 -0.002576 0.013485 -0.003712 0.000000 0.000000 0.000000
# 3 -0.003712 -0.003712 0.009996 0.000000 0.000000 0.000000
# 4 0.000000 0.000000 0.000000 0.046294 0.000000 0.000000
# 5 0.000000 0.000000 0.000000 0.000000 0.046294 0.000000
# 6 0.000000 0.000000 0.000000 0.000000 0.000000 0.037759
#
#
# Mechanical properties :
#
#
# Convention : Reuss Voigt Hill
#
# Bulk Modulus (GPa) = 58.93640 62.37420 60.65530
# Shear Modulus (GPa) = 25.91137 27.10394 26.50765
#
# Velocity S-wave (km/s) = 3.81556 3.90238 3.85922
# Velocity P-wave (km/s) = 7.24743 7.43977 7.34423
#
# Compressibility (1/GPa) = 0.01696744
#
# Stress axis : x y z
#
# Youngs Moduli (GPa) = 74.15728 74.15728 100.04104
#
# Poissons Ratio (x) = 0.19100 0.37133
# Poissons Ratio (y) = 0.19100 0.37133
# Poissons Ratio (z) = 0.27525 0.27525
#
# Static dielectric constant tensor:
#      x y z
#    x 3.240710 0.000000 0.000000 
#    y 0.000000 3.240710 0.000000 
#    z 0.000000 0.000000 3.451480 
# 
# 
# High freq. dielectric constant tensor:
#      x y z
#    x 1.680420 0.000000 0.000000 
#    y 0.000000 1.680420 0.000000 
#    z 0.000000 0.000000 1.692020 
# 
# From -- ./inp_files/6542.got.cif
#   From: 2010.03.12/outbox.cif.g09.slc.cpg/sg132_4_cif.got.tgz:6542.got - 2010.04.06 17:53:44.
