data_PCOD8316127
_publ_section_title
;
Structure prediction by ZEFSAII (Michael W. Deem and Ramdas Pophale) SiO2 
 PCOD8316127
Probable space group: P 42/M M C
;
_chemical_formula_sum "Si O2"
_cell_formula_units_Z 88
_cell_length_a 12.448670
_cell_length_b 12.448670
_cell_length_c 31.137071
_cell_angle_alpha 90.000000
_cell_angle_beta 90.000000
_cell_angle_gamma 90.000000
_cell_volume 4825.292736
_symmetry_space_group_name_H-M "P 42/M M C"
_symmetry_group_IT_number 131
_symmetry_cell_setting 'tetragonal'
loop_
_space_group_symop_operation_xyz
x,y,z
-x,-y,z
-y,x,1/2+z
y,-x,1/2+z
-x,y,-z
x,-y,-z
y,x,1/2-z
-y,-x,1/2-z
-x,-y,-z
x,y,-z
y,-x,1/2-z
-y,x,1/2-z
x,-y,z
-x,y,z
-y,-x,1/2+z
y,x,1/2+z
loop_
_atom_site_type_symbol
_atom_site_label
_atom_site_fract_x
_atom_site_fract_y
_atom_site_fract_z
Si Si1 0.377635 0.377635 0.250000
Si Si2 0.875237 0.124764 0.250000
Si Si3 0.625905 0.874928 0.897640
Si Si4 0.122293 0.624855 0.878822
Si Si5 0.617861 0.500000 0.050795
Si Si6 0.252699 0.708609 0.050183
Si Si7 0.760407 0.266298 0.681332
O O1 0.358855 0.500000 0.235246
O O2 0.353614 0.298223 0.210752
O O3 0.839640 0.190897 0.291707
O O4 0.000000 0.147117 0.240988
O O5 0.500000 0.851977 0.900996
O O6 0.684805 0.817133 0.937581
O O7 0.669848 0.831459 0.852771
O O8 0.652475 0.000000 0.901388
O O9 0.147269 0.500000 0.886952
O O10 0.143669 0.693538 0.922490
O O11 0.195096 0.668201 0.840403
O O12 0.000000 0.643166 0.865348
O O13 0.500000 0.500000 0.071904
O O14 0.675932 0.392086 0.065882
O O15 0.609990 0.500000 0.000000
O O16 0.225043 0.708449 0.000000
#
# Coordination Sequence:
#
# PCOD8316127 Si02
#       7
#     8   8  16  16   8  16  16
#     4  10  20  34  54  80 110 142 174 212 260 320
#     4  10  20  34  54  78 102 132 174 220 262 306
#     4  10  21  36  54  77 106 141 179 218 262 316
#     4  10  20  34  53  77 106 139 176 219 266 318
#     4   9  16  28  47  71  99 129 162 204 255 309
#     4  10  20  34  52  76 105 136 174 219 264 315
#     4  10  20  35  54  77 106 139 175 216 263 314
#
# _framework density 18.237235999999999
#
# number of rings (size 3 to 8) (size 9 to 14) (size 15 to 20)
#    0.000    2.091    0.909    2.727    0.000    1.818 
#    0.000    1.818    0.000   13.636    0.000    5.091 
#    0.000    0.000    0.000    0.000    0.000    0.000 
#
# Total GULP energy -1091326.347006 kJ/mol
# GULP energy per Si atom -12401.435761 kJ/mol
# Density = 1.819573 g / cm^3
# Si number density = 18.237236 Si / 1000 Ang^3
#
#
#
# Elastic Constant Matrix: (Units=GPa)
#
#
# Indices 1 2 3 4 5 6 
#
# 1 80.7949 36.8360 11.3020 0.0000 0.0000 0.0000
# 2 36.8360 80.7953 11.3026 0.0000 0.0000 0.0000
# 3 11.3020 11.3026 61.8528 0.0000 0.0000 0.0000
# 4 0.0000 0.0000 0.0000 22.1395 0.0000 0.0000
# 5 0.0000 0.0000 0.0000 0.0000 22.1388 0.0000
# 6 0.0000 0.0000 0.0000 0.0000 0.0000 30.8136
#
#
#
# Elastic Compliance Matrix: (Units=1/GPa)
#
#
# Indices 1 2 3 4 5 6 
#
# 1 0.015779 -0.006969 -0.001610 0.000000 0.000000 0.000000
# 2 -0.006969 0.015779 -0.001610 0.000000 0.000000 0.000000
# 3 -0.001610 -0.001610 0.016756 0.000000 0.000000 0.000000
# 4 0.000000 0.000000 0.000000 0.045168 0.000000 0.000000
# 5 0.000000 0.000000 0.000000 0.000000 0.045170 0.000000
# 6 0.000000 0.000000 0.000000 0.000000 0.000000 0.032453
#
#
# Mechanical properties :
#
#
# Convention : Reuss Voigt Hill
#
# Bulk Modulus (GPa) = 35.79473 38.03603 36.91538
# Shear Modulus (GPa) = 24.90095 25.95188 25.42641
#
# Velocity S-wave (km/s) = 3.69913 3.77638 3.73795
# Velocity P-wave (km/s) = 6.15748 6.31793 6.23822
#
# Compressibility (1/GPa) = 0.02793707
#
# Stress axis : x y z
#
# Youngs Moduli (GPa) = 63.37346 63.37360 59.68093
#
# Poissons Ratio (x) = 0.44165 0.09608
# Poissons Ratio (y) = 0.44165 0.09609
# Poissons Ratio (z) = 0.10202 0.10203
#
# Static dielectric constant tensor:
#      x y z
#    x 3.397650 0.000000 0.000000 
#    y 0.000000 3.397660 0.000000 
#    z 0.000000 0.000000 3.266970 
# 
# 
# High freq. dielectric constant tensor:
#      x y z
#    x 1.710700 0.000000 0.000000 
#    y 0.000000 1.710700 0.000000 
#    z 0.000000 0.000000 1.705430 
# 
# From -- ./inp_files/13609.got.cif
#   From: 2010.03.12/outbox.cif.g09.slc.cpg/sg131_7_cif.got.tgz:13609.got - 2010.04.06 17:36:35.
