data_PCOD8316985
_publ_section_title
;
Structure prediction by ZEFSAII (Michael W. Deem and Ramdas Pophale) SiO2 
 PCOD8316985
Probable space group: P 42/N B C
;
_chemical_formula_sum "Si O2"
_cell_formula_units_Z 40
_cell_length_a 19.222439
_cell_length_b 19.222439
_cell_length_c 5.102357
_cell_angle_alpha 90.000000
_cell_angle_beta 90.000000
_cell_angle_gamma 90.000000
_cell_volume 1885.331938
_symmetry_space_group_name_H-M "P 42/N B C"
_symmetry_group_IT_number 133
_space_group.IT_coordinate_system_code '2'
_symmetry_cell_setting 'tetragonal'
loop_
_space_group_symop_operation_xyz
x,y,z
1/2-y,x,1/2+z
1/2-x,1/2-y,z
y,1/2-x,1/2+z
x,1/2-y,-z
1/2-x,y,-z
y,x,1/2-z
1/2-y,1/2-x,1/2-z
-x,-y,-z
1/2+y,-x,1/2-z
1/2+x,1/2+y,-z
-y,1/2+x,1/2-z
-x,1/2+y,z
1/2+x,-y,z
-y,-x,1/2+z
1/2+y,1/2+x,1/2+z
loop_
_atom_site_type_symbol
_atom_site_label
_atom_site_fract_x
_atom_site_fract_y
_atom_site_fract_z
Si Si1 0.885763 0.885763 0.750000
Si Si2 0.102943 0.537558 0.920740
Si Si3 0.250000 0.070164 0.500000
Si Si4 0.250000 0.522564 0.000000
O O1 0.817380 0.883012 0.566802
O O2 0.954369 0.886213 0.566612
O O3 0.066043 0.554418 0.647991
O O4 0.181296 0.569718 0.940847
O O5 0.269473 0.022902 0.252857
#
# Coordination Sequence:
#
# PCOD8316985 Si02
#       4
#     8  16   8   8
#     4  10  22  40  62  95 124 162 210 249 306 352
#     4  11  22  37  64  91 119 155 201 255 299 363
#     4  10  22  38  62  83 126 167 200 254 296 361
#     4  10  22  40  58  90 126 158 192 248 326 360
#
# _framework density 21.216424
#
# number of rings (size 3 to 8) (size 9 to 14) (size 15 to 20)
#    0.000    1.600    0.000    6.000    0.000   12.800 
#    0.000    0.000    0.000   80.400    0.000    0.000 
#    0.000    0.000    0.000    0.000    0.000    0.000 
#
# Total GULP energy -495812.421223 kJ/mol
# GULP energy per Si atom -12395.310531 kJ/mol
# Density = 2.116813 g / cm^3
# Si number density = 21.216424 Si / 1000 Ang^3
#
#
#
# Elastic Constant Matrix: (Units=GPa)
#
#
# Indices 1 2 3 4 5 6 
#
# 1 130.0411 29.1405 35.3972 0.0000 0.0000 0.0000
# 2 29.1405 130.0411 35.3972 0.0000 0.0000 0.0000
# 3 35.3972 35.3972 131.1312 0.0000 0.0000 0.0000
# 4 0.0000 0.0000 0.0000 27.7917 0.0000 0.0000
# 5 0.0000 0.0000 0.0000 0.0000 27.7917 0.0000
# 6 0.0000 0.0000 0.0000 0.0000 0.0000 -4.2972
#
#
#
# Elastic Compliance Matrix: (Units=1/GPa)
#
#
# Indices 1 2 3 4 5 6 
#
# 1 0.008525 -0.001386 -0.001927 0.000000 0.000000 0.000000
# 2 -0.001386 0.008525 -0.001927 0.000000 0.000000 0.000000
# 3 -0.001927 -0.001927 0.008666 0.000000 0.000000 0.000000
# 4 0.000000 0.000000 0.000000 0.035982 0.000000 0.000000
# 5 0.000000 0.000000 0.000000 0.000000 0.035982 0.000000
# 6 0.000000 0.000000 0.000000 0.000000 0.000000 -0.232710
#
#
# Mechanical properties :
#
#
# Convention : Reuss Voigt Hill
#
# Bulk Modulus (GPa) = 65.63304 65.67590 65.65447
# Shear Modulus (GPa) = -41.85113 29.67583 -6.08765
#
# Velocity S-wave (km/s) = -4.44619 3.74400 -1.69574
# Velocity P-wave (km/s) = 2.15499 7.05071 5.21328
#
# Compressibility (1/GPa) = 0.01523623
#
# Stress axis : x y z
#
# Youngs Moduli (GPa) = 117.30244 117.30244 115.38869
#
# Poissons Ratio (x) = 0.16255 0.22237
# Poissons Ratio (y) = 0.16255 0.22237
# Poissons Ratio (z) = 0.22606 0.22606
#
# Static dielectric constant tensor:
#      x y z
#    x 4.125010 0.000000 0.000000 
#    y 0.000000 4.125010 0.000000 
#    z 0.000000 0.000000 3.472670 
# 
# 
# High freq. dielectric constant tensor:
#      x y z
#    x 1.818950 0.000000 0.000000 
#    y 0.000000 1.818950 0.000000 
#    z 0.000000 0.000000 1.848100 
# 
# From -- ./inp_files/136.got.cif
#   From: 2010.03.12/outbox.cif.g09.slc.cpg/sg133_1_cif.got.tgz:136.got - 2010.04.06 18:08:06.
