data_PCOD8316919
_publ_section_title
;
Structure prediction by ZEFSAII (Michael W. Deem and Ramdas Pophale) SiO2 
 PCOD8316919
Probable space group: P 42/N B C
;
_chemical_formula_sum "Si O2"
_cell_formula_units_Z 112
_cell_length_a 15.176582
_cell_length_b 15.176582
_cell_length_c 24.787043
_cell_angle_alpha 90.000000
_cell_angle_beta 90.000000
_cell_angle_gamma 90.000000
_cell_volume 5709.165934
_symmetry_space_group_name_H-M "P 42/N B C"
_symmetry_group_IT_number 133
_space_group.IT_coordinate_system_code '2'
_symmetry_cell_setting 'tetragonal'
loop_
_space_group_symop_operation_xyz
x,y,z
1/2-y,x,1/2+z
1/2-x,1/2-y,z
y,1/2-x,1/2+z
x,1/2-y,-z
1/2-x,y,-z
y,x,1/2-z
1/2-y,1/2-x,1/2-z
-x,-y,-z
1/2+y,-x,1/2-z
1/2+x,1/2+y,-z
-y,1/2+x,1/2-z
-x,1/2+y,z
1/2+x,-y,z
-y,-x,1/2+z
1/2+y,1/2+x,1/2+z
loop_
_atom_site_type_symbol
_atom_site_label
_atom_site_fract_x
_atom_site_fract_y
_atom_site_fract_z
Si Si1 0.748890 0.613829 0.110221
Si Si2 0.505968 0.750000 0.500000
Si Si3 0.245048 0.106466 0.603110
Si Si4 0.069247 0.567698 0.025631
Si Si5 0.674947 0.370497 0.739530
Si Si6 0.384045 0.527745 0.357949
Si Si7 0.454066 0.130206 0.701135
Si Si8 0.250000 0.491059 0.500000
O O1 0.820935 0.682457 0.090613
O O2 0.656417 0.660305 0.129085
O O3 0.785053 0.565425 0.163642
O O4 0.736503 0.556860 0.056321
O O5 0.447180 0.662673 0.502988
O O6 0.291218 0.026546 0.635635
O O7 0.211332 0.070309 0.546568
O O8 0.066353 0.563526 0.090664
O O9 0.050871 0.669650 0.016844
O O10 0.000000 0.500000 0.000000
O O11 0.780577 0.366330 0.738412
O O12 0.639386 0.388814 0.679255
O O13 0.642236 0.447972 0.777810
O O14 0.454258 0.460529 0.332208
O O15 0.381929 0.118072 0.750000
#
# Coordination Sequence:
#
# PCOD8316919 Si02
#       8
#    16   8  16  16  16  16  16   8
#     4  10  19  34  58  91 120 155 204 258 320 378
#     4  12  24  36  58  94 128 166 208 249 312 385
#     4   9  17  34  59  84 118 157 204 254 314 373
#     4  11  23  41  61  90 131 165 207 259 311 374
#     4  10  22  42  61  85 116 161 211 258 311 373
#     4   9  20  41  60  88 119 158 208 258 319 380
#     4   9  19  39  63  84 121 154 199 263 319 378
#     4  10  20  38  56  82 124 172 206 249 302 371
#
# _framework density 19.617574999999999
#
# number of rings (size 3 to 8) (size 9 to 14) (size 15 to 20)
#    0.000    2.143    0.000    4.286    2.000    1.429 
#   12.857   13.571    0.000    0.000    0.000    0.000 
#    0.000    0.000    0.000    0.000    0.000    0.000 
#
# Total GULP energy -1387615.761909 kJ/mol
# GULP energy per Si atom -12389.426446 kJ/mol
# Density = 1.957292 g / cm^3
# Si number density = 19.617575 Si / 1000 Ang^3
#
#
#
# Elastic Constant Matrix: (Units=GPa)
#
#
# Indices 1 2 3 4 5 6 
#
# 1 89.1461 34.0133 35.3550 0.0000 0.0000 0.0000
# 2 34.0133 89.1457 35.3551 0.0000 0.0000 0.0000
# 3 35.3550 35.3551 107.3509 0.0000 0.0000 0.0000
# 4 0.0000 0.0000 0.0000 25.2902 0.0000 0.0000
# 5 0.0000 0.0000 0.0000 0.0000 25.2903 0.0000
# 6 0.0000 0.0000 0.0000 0.0000 0.0000 20.4863
#
#
#
# Elastic Compliance Matrix: (Units=1/GPa)
#
#
# Indices 1 2 3 4 5 6 
#
# 1 0.014075 -0.004063 -0.003298 0.000000 0.000000 0.000000
# 2 -0.004063 0.014076 -0.003298 0.000000 0.000000 0.000000
# 3 -0.003298 -0.003298 0.011487 0.000000 0.000000 0.000000
# 4 0.000000 0.000000 0.000000 0.039541 0.000000 0.000000
# 5 0.000000 0.000000 0.000000 0.000000 0.039541 0.000000
# 6 0.000000 0.000000 0.000000 0.000000 0.000000 0.048813
#
#
# Mechanical properties :
#
#
# Convention : Reuss Voigt Hill
#
# Bulk Modulus (GPa) = 54.57771 55.00994 54.79382
# Shear Modulus (GPa) = 25.64673 26.27464 25.96069
#
# Velocity S-wave (km/s) = 3.61963 3.66367 3.64172
# Velocity P-wave (km/s) = 6.73426 6.78223 6.75829
#
# Compressibility (1/GPa) = 0.01832250
#
# Stress axis : x y z
#
# Youngs Moduli (GPa) = 71.04573 71.04529 87.05232
#
# Poissons Ratio (x) = 0.28863 0.28707
# Poissons Ratio (y) = 0.28863 0.28707
# Poissons Ratio (z) = 0.23428 0.23428
#
# Static dielectric constant tensor:
#      x y z
#    x 3.650720 0.000000 0.000000 
#    y 0.000000 3.650720 0.000000 
#    z 0.000000 0.000000 3.697900 
# 
# 
# High freq. dielectric constant tensor:
#      x y z
#    x 1.760960 0.000000 0.000000 
#    y 0.000000 1.760960 0.000000 
#    z 0.000000 0.000000 1.766980 
# 
# From -- ./inp_files/7690.got.cif
#   From: 2010.03.12/outbox.cif.g09.slc.cpg/sg133_4_cif.got.tgz:7690.got - 2010.04.06 18:08:06.
