data_PCOD8316351
_publ_section_title
;
Structure prediction by ZEFSAII (Michael W. Deem and Ramdas Pophale) SiO2 
 PCOD8316351
Probable space group: P 42/M M C
;
_chemical_formula_sum "Si O2"
_cell_formula_units_Z 42
_cell_length_a 10.909747
_cell_length_b 10.909747
_cell_length_c 16.326912
_cell_angle_alpha 90.000000
_cell_angle_beta 90.000000
_cell_angle_gamma 90.000000
_cell_volume 1943.271183
_symmetry_space_group_name_H-M "P 42/M M C"
_symmetry_group_IT_number 131
_symmetry_cell_setting 'tetragonal'
loop_
_space_group_symop_operation_xyz
x,y,z
-x,-y,z
-y,x,1/2+z
y,-x,1/2+z
-x,y,-z
x,-y,-z
y,x,1/2-z
-y,-x,1/2-z
-x,-y,-z
x,y,-z
y,-x,1/2-z
-y,x,1/2-z
x,-y,z
-x,y,z
-y,-x,1/2+z
y,x,1/2+z
loop_
_atom_site_type_symbol
_atom_site_label
_atom_site_fract_x
_atom_site_fract_y
_atom_site_fract_z
Si Si1 0.140233 0.500000 0.323090
Si Si2 0.500000 0.500000 0.750000
Si Si3 0.500000 0.747443 0.346940
Si Si4 0.239194 0.254980 0.406726
Si Si5 0.000000 0.143235 0.907180
O O1 0.151391 0.500000 0.225083
O O2 0.201748 0.375741 0.356621
O O3 0.000000 0.500000 0.350261
O O4 0.384812 0.500000 0.807674
O O5 0.615537 0.761232 0.405735
O O6 0.192303 0.270580 0.500000
O O7 0.187025 0.128452 0.366108
O O8 0.000000 0.000000 0.902525
O O9 0.000000 0.193778 0.000000
#
# Coordination Sequence:
#
# PCOD8316351 Si02
#       5
#     8   2   8  16   8
#     4  12  25  40  65  94 132 172 214 266 328 396
#     4  12  20  44  66  80 128 168 206 256 328 384
#     4  12  23  43  63  94 128 167 213 264 332 387
#     4  11  23  41  67  96 126 169 221 272 324 383
#     4   9  20  39  63  93 131 166 205 262 323 380
#
# _framework density 21.613040999999999
#
# number of rings (size 3 to 8) (size 9 to 14) (size 15 to 20)
#    0.000    0.952    3.810    2.286    2.667    3.048 
#    0.000    5.714    0.000    0.000    0.000    0.000 
#    0.000    0.000    0.000    0.000    0.000    0.000 
#
# Total GULP energy -520676.310300 kJ/mol
# GULP energy per Si atom -12397.055007 kJ/mol
# Density = 2.156385 g / cm^3
# Si number density = 21.613041 Si / 1000 Ang^3
#
#
#
# Elastic Constant Matrix: (Units=GPa)
#
#
# Indices 1 2 3 4 5 6 
#
# 1 154.2391 41.9529 9.5331 0.0000 0.0000 0.0000
# 2 41.9529 154.2391 9.5331 0.0000 0.0000 0.0000
# 3 9.5331 9.5331 43.1023 0.0000 0.0000 0.0000
# 4 0.0000 0.0000 0.0000 1.9831 0.0000 0.0000
# 5 0.0000 0.0000 0.0000 0.0000 1.9831 0.0000
# 6 0.0000 0.0000 0.0000 0.0000 0.0000 33.8039
#
#
#
# Elastic Compliance Matrix: (Units=1/GPa)
#
#
# Indices 1 2 3 4 5 6 
#
# 1 0.007057 -0.001848 -0.001152 0.000000 0.000000 0.000000
# 2 -0.001848 0.007057 -0.001152 0.000000 0.000000 0.000000
# 3 -0.001152 -0.001152 0.023710 0.000000 0.000000 0.000000
# 4 0.000000 0.000000 0.000000 0.504273 0.000000 0.000000
# 5 0.000000 0.000000 0.000000 0.000000 0.504273 0.000000
# 6 0.000000 0.000000 0.000000 0.000000 0.000000 0.029582
#
#
# Mechanical properties :
#
#
# Convention : Reuss Voigt Hill
#
# Bulk Modulus (GPa) = 33.87550 52.62431 43.24991
# Shear Modulus (GPa) = 4.56998 26.92476 15.74737
#
# Velocity S-wave (km/s) = 1.45569 3.53337 2.70220
# Velocity P-wave (km/s) = 4.30500 6.40683 5.45805
#
# Compressibility (1/GPa) = 0.02951986
#
# Stress axis : x y z
#
# Youngs Moduli (GPa) = 141.69501 141.69501 42.17589
#
# Poissons Ratio (x) = 0.26191 0.04859
# Poissons Ratio (y) = 0.26191 0.04859
# Poissons Ratio (z) = 0.16325 0.16325
#
# Static dielectric constant tensor:
#      x y z
#    x 4.147680 0.000000 0.000000 
#    y 0.000000 4.147680 0.000000 
#    z 0.000000 0.000000 3.654480 
# 
# 
# High freq. dielectric constant tensor:
#      x y z
#    x 1.866660 0.000000 0.000000 
#    y 0.000000 1.866660 0.000000 
#    z 0.000000 0.000000 1.822660 
# 
# From -- ./inp_files/6952.got.cif
#   From: 2010.03.12/outbox.cif.g09.slc.cpg/sg131_4_cif.got.tgz:6952.got - 2010.04.06 17:36:35.
