data_PCOD8316415
_publ_section_title
;
Structure prediction by ZEFSAII (Michael W. Deem and Ramdas Pophale) SiO2 
 PCOD8316415
Probable space group: P 42/M C M
;
_chemical_formula_sum "Si O2"
_cell_formula_units_Z 96
_cell_length_a 25.550693
_cell_length_b 25.550693
_cell_length_c 8.784842
_cell_angle_alpha 90.000000
_cell_angle_beta 90.000000
_cell_angle_gamma 90.000000
_cell_volume 5735.077915
_symmetry_space_group_name_H-M "P 42/M C M"
_symmetry_group_IT_number 132
_symmetry_cell_setting 'tetragonal'
loop_
_space_group_symop_operation_xyz
x,y,z
-y,x,1/2+z
-x,-y,z
y,-x,1/2+z
x,-y,1/2-z
-x,y,1/2-z
y,x,-z
-y,-x,-z
-x,-y,-z
y,-x,1/2-z
x,y,-z
-y,x,1/2-z
-x,y,1/2+z
x,-y,1/2+z
-y,-x,z
y,x,z
loop_
_atom_site_type_symbol
_atom_site_label
_atom_site_fract_x
_atom_site_fract_y
_atom_site_fract_z
Si Si1 0.750796 0.950366 0.321828
Si Si2 0.636330 0.841693 0.319232
Si Si3 0.363111 0.947984 0.320094
Si Si4 0.756075 0.445924 0.179346
Si Si5 0.445658 0.637834 0.819966
Si Si6 0.754333 0.835744 0.677943
O O1 0.740211 0.959428 0.500000
O O2 0.696835 0.948428 0.231102
O O3 0.778348 0.894155 0.293639
O O4 0.783036 0.000000 0.250000
O O5 0.636679 0.849211 0.500000
O O6 0.612014 0.894397 0.245548
O O7 0.601121 0.793087 0.265434
O O8 0.695310 0.830967 0.257209
O O9 0.368934 0.949088 0.500000
O O10 0.391015 0.000000 0.250000
O O11 0.776501 0.500000 0.250000
O O12 0.697027 0.433502 0.234582
O O13 0.758392 0.451930 0.000000
O O14 0.500000 0.617678 0.750000
O O15 0.399021 0.600980 0.759560
O O16 0.450376 0.634849 0.000000
O O17 0.751643 0.824420 0.500000
O O18 0.793044 0.793044 0.755650
#
# Coordination Sequence:
#
# PCOD8316415 Si02
#       6
#    16  16  16  16  16  16
#     4   9  15  24  39  58  82 113 148 181 214 254
#     4   9  17  29  45  65  87 113 145 178 216 261
#     4  10  17  26  42  63  87 113 143 179 217 256
#     4   9  18  32  49  67  88 115 147 182 216 255
#     4   9  18  32  49  70  94 119 149 184 223 266
#     4   8  14  24  39  61  87 112 139 173 211 252
#
# _framework density 16.739093
#
# number of rings (size 3 to 8) (size 9 to 14) (size 15 to 20)
#    0.000    3.000    0.000    4.000    0.000    1.833 
#    0.000    4.167    0.000   13.000    0.000   10.500 
#    0.000    0.333    0.000    4.167    0.000    0.167 
#
# Total GULP energy -1189493.493407 kJ/mol
# GULP energy per Si atom -12390.557223 kJ/mol
# Density = 1.670099 g / cm^3
# Si number density = 16.739093 Si / 1000 Ang^3
#
#
#
# Elastic Constant Matrix: (Units=GPa)
#
#
# Indices 1 2 3 4 5 6 
#
# 1 111.3026 76.6927 28.9341 0.0000 0.0000 0.0000
# 2 76.6927 111.3026 28.9341 0.0000 0.0000 0.0000
# 3 28.9341 28.9341 46.9879 0.0000 0.0000 0.0000
# 4 0.0000 0.0000 0.0000 20.0754 0.0000 0.0000
# 5 0.0000 0.0000 0.0000 0.0000 20.0754 0.0000
# 6 0.0000 0.0000 0.0000 0.0000 0.0000 5.4206
#
#
#
# Elastic Compliance Matrix: (Units=1/GPa)
#
#
# Indices 1 2 3 4 5 6 
#
# 1 0.017728 -0.011165 -0.004042 0.000000 0.000000 0.000000
# 2 -0.011165 0.017728 -0.004042 0.000000 0.000000 0.000000
# 3 -0.004042 -0.004042 0.026259 0.000000 0.000000 0.000000
# 4 0.000000 0.000000 0.000000 0.049812 0.000000 0.000000
# 5 0.000000 0.000000 0.000000 0.000000 0.049812 0.000000
# 6 0.000000 0.000000 0.000000 0.000000 0.000000 0.184481
#
#
# Mechanical properties :
#
#
# Convention : Reuss Voigt Hill
#
# Bulk Modulus (GPa) = 43.06646 59.85720 51.46183
# Shear Modulus (GPa) = 12.75322 18.11645 15.43484
#
# Velocity S-wave (km/s) = 2.76322 3.29338 3.03988
# Velocity P-wave (km/s) = 5.99703 7.09213 6.56745
#
# Compressibility (1/GPa) = 0.02321992
#
# Stress axis : x y z
#
# Youngs Moduli (GPa) = 56.40670 56.40670 38.08151
#
# Poissons Ratio (x) = 0.62978 0.15391
# Poissons Ratio (y) = 0.62978 0.15391
# Poissons Ratio (z) = 0.22797 0.22797
#
# Static dielectric constant tensor:
#      x y z
#    x 3.485940 0.000000 0.000000 
#    y 0.000000 3.485940 0.000000 
#    z 0.000000 0.000000 3.013290 
# 
# 
# High freq. dielectric constant tensor:
#      x y z
#    x 1.629780 0.000000 0.000000 
#    y 0.000000 1.629780 0.000000 
#    z 0.000000 0.000000 1.630920 
# 
# From -- ./inp_files/1931.got.cif
#   From: 2010.03.12/outbox.cif.g09.slc.cpg/sg132_1_cif.got.tgz:1931.got - 2010.04.06 17:53:44.
