data_PCOD8316421
_publ_section_title
;
Structure prediction by ZEFSAII (Michael W. Deem and Ramdas Pophale) SiO2 
 PCOD8316421
Probable space group: P 42/M C M
;
_chemical_formula_sum "Si O2"
_cell_formula_units_Z 128
_cell_length_a 19.351751
_cell_length_b 19.351751
_cell_length_c 20.186090
_cell_angle_alpha 90.000000
_cell_angle_beta 90.000000
_cell_angle_gamma 90.000000
_cell_volume 7559.494229
_symmetry_space_group_name_H-M "P 42/M C M"
_symmetry_group_IT_number 132
_symmetry_cell_setting 'tetragonal'
loop_
_space_group_symop_operation_xyz
x,y,z
-y,x,1/2+z
-x,-y,z
y,-x,1/2+z
x,-y,1/2-z
-x,y,1/2-z
y,x,-z
-y,-x,-z
-x,-y,-z
y,-x,1/2-z
x,y,-z
-y,x,1/2-z
-x,y,1/2+z
x,-y,1/2+z
-y,-x,z
y,x,z
loop_
_atom_site_type_symbol
_atom_site_label
_atom_site_fract_x
_atom_site_fract_y
_atom_site_fract_z
Si Si1 0.299097 0.408433 0.891526
Si Si2 0.197871 0.310933 0.573931
Si Si3 0.075780 0.347608 0.174057
Si Si4 0.651341 0.921736 0.674743
Si Si5 0.499657 0.117437 0.175451
Si Si6 0.576249 0.314187 0.243601
Si Si7 0.245844 0.451822 0.613074
Si Si8 0.189533 0.699016 0.574037
O O1 0.374020 0.374020 0.907070
O O2 0.280929 0.400750 0.813293
O O3 0.301971 0.490671 0.911814
O O4 0.238864 0.368120 0.928951
O O5 0.170272 0.293552 0.500000
O O6 0.252418 0.252418 0.597254
O O7 0.134387 0.314371 0.625451
O O8 0.236818 0.385407 0.566630
O O9 0.098445 0.330508 0.249489
O O10 0.074545 0.430249 0.162096
O O11 0.126959 0.308092 0.124990
O O12 0.998361 0.319759 0.159316
O O13 0.568551 0.928085 0.665721
O O14 0.500000 0.148578 0.250000
O O15 0.501782 0.177247 0.120226
O O16 0.500000 0.345745 0.250000
O O17 0.623619 0.376382 0.220455
O O18 0.580193 0.257487 0.186184
O O19 0.159471 0.708878 0.500000
O O20 0.234600 0.765401 0.595750
#
# Coordination Sequence:
#
# PCOD8316421 Si02
#       8
#    16  16  16  16  16  16  16  16
#     4   9  17  29  44  64  91 122 162 210 256 300
#     4  10  22  37  51  70  97 128 166 210 250 290
#     4  10  18  33  51  75 100 130 159 201 241 291
#     4   9  20  32  52  75  99 125 166 200 242 293
#     4   9  15  26  45  69  98 127 155 194 241 287
#     4   9  17  26  41  62  83 112 154 206 261 311
#     4  10  17  28  46  68  90 122 166 209 251 299
#     4  10  21  33  46  68  99 133 166 199 240 289
#
# _framework density 16.93235
#
# number of rings (size 3 to 8) (size 9 to 14) (size 15 to 20)
#    0.000    2.500    1.250    1.875    3.500    3.125 
#    0.000    0.000    0.000    3.375    0.000    0.875 
#    0.000    0.500    0.000    5.500    0.000    4.000 
#
# Total GULP energy -1585966.806864 kJ/mol
# GULP energy per Si atom -12390.365679 kJ/mol
# Density = 1.689381 g / cm^3
# Si number density = 16.932350 Si / 1000 Ang^3
#
#
#
# Elastic Constant Matrix: (Units=GPa)
#
#
# Indices 1 2 3 4 5 6 
#
# 1 78.0704 40.9865 46.3242 0.0000 0.0000 0.0000
# 2 40.9865 78.0704 46.3242 0.0000 0.0000 0.0000
# 3 46.3242 46.3242 82.9328 0.0000 0.0000 0.0000
# 4 0.0000 0.0000 0.0000 17.9451 0.0000 0.0000
# 5 0.0000 0.0000 0.0000 0.0000 17.9451 0.0000
# 6 0.0000 0.0000 0.0000 0.0000 0.0000 24.2443
#
#
#
# Elastic Compliance Matrix: (Units=1/GPa)
#
#
# Indices 1 2 3 4 5 6 
#
# 1 0.020912 -0.006054 -0.008299 0.000000 0.000000 0.000000
# 2 -0.006054 0.020912 -0.008299 0.000000 0.000000 0.000000
# 3 -0.008299 -0.008299 0.021329 0.000000 0.000000 0.000000
# 4 0.000000 0.000000 0.000000 0.055726 0.000000 0.000000
# 5 0.000000 0.000000 0.000000 0.000000 0.055726 0.000000
# 6 0.000000 0.000000 0.000000 0.000000 0.000000 0.041247
#
#
# Mechanical properties :
#
#
# Convention : Reuss Voigt Hill
#
# Bulk Modulus (GPa) = 56.02830 56.26038 56.14434
# Shear Modulus (GPa) = 18.71926 19.05615 18.88771
#
# Velocity S-wave (km/s) = 3.32856 3.35838 3.34350
# Velocity P-wave (km/s) = 6.92342 6.95248 6.93797
#
# Compressibility (1/GPa) = 0.01784812
#
# Stress axis : x y z
#
# Youngs Moduli (GPa) = 47.82009 47.82009 46.88391
#
# Poissons Ratio (x) = 0.28951 0.38909
# Poissons Ratio (y) = 0.28951 0.38909
# Poissons Ratio (z) = 0.39686 0.39686
#
# Static dielectric constant tensor:
#      x y z
#    x 3.034960 0.000000 0.000000 
#    y 0.000000 3.034960 0.000000 
#    z 0.000000 0.000000 3.083840 
# 
# 
# High freq. dielectric constant tensor:
#      x y z
#    x 1.626450 0.000000 0.000000 
#    y 0.000000 1.626450 0.000000 
#    z 0.000000 0.000000 1.648560 
# 
# From -- ./inp_files/6847.got.cif
#   From: 2010.03.12/outbox.cif.g09.slc.cpg/sg132_4_cif.got.tgz:6847.got - 2010.04.06 17:53:44.
