data_PCOD8316824
_publ_section_title
;
Structure prediction by ZEFSAII (Michael W. Deem and Ramdas Pophale) SiO2 
 PCOD8316824
Probable space group: P 42/M C M
;
_chemical_formula_sum "Si O2"
_cell_formula_units_Z 112
_cell_length_a 14.166379
_cell_length_b 14.166379
_cell_length_c 25.048095
_cell_angle_alpha 90.000000
_cell_angle_beta 90.000000
_cell_angle_gamma 90.000000
_cell_volume 5026.809357
_symmetry_space_group_name_H-M "P 42/M C M"
_symmetry_group_IT_number 132
_symmetry_cell_setting 'tetragonal'
loop_
_space_group_symop_operation_xyz
x,y,z
-y,x,1/2+z
-x,-y,z
y,-x,1/2+z
x,-y,1/2-z
-x,y,1/2-z
y,x,-z
-y,-x,-z
-x,-y,-z
y,-x,1/2-z
x,y,-z
-y,x,1/2-z
-x,y,1/2+z
x,-y,1/2+z
-y,-x,z
y,x,z
loop_
_atom_site_type_symbol
_atom_site_label
_atom_site_fract_x
_atom_site_fract_y
_atom_site_fract_z
Si Si1 0.585216 0.932116 0.089132
Si Si2 0.560147 0.285481 0.437914
Si Si3 0.068399 0.274626 0.559082
Si Si4 0.759141 0.394220 0.233070
Si Si5 0.335925 0.066490 0.796165
Si Si6 0.228973 0.379395 0.385889
Si Si7 0.148547 0.002993 0.650715
O O1 0.579732 0.823824 0.072726
O O2 0.597441 0.940446 0.152725
O O3 0.500000 0.000000 0.071156
O O4 0.678148 0.965327 0.057726
O O5 0.544867 0.305407 0.500000
O O6 0.643596 0.356405 0.416632
O O7 0.461107 0.300318 0.407141
O O8 0.098025 0.239222 0.500000
O O9 0.136859 0.360714 0.578237
O O10 0.060854 0.188102 0.599733
O O11 0.737351 0.500000 0.250000
O O12 0.659762 0.340239 0.230472
O O13 0.826997 0.338425 0.273764
O O14 0.805780 0.399958 0.174200
O O15 0.229569 0.032689 0.809448
O O16 0.378482 0.000000 0.750000
O O17 0.280718 0.280718 0.387686
O O18 0.087461 0.912540 0.631514
O O19 0.079112 0.079112 0.679961
#
# Coordination Sequence:
#
# PCOD8316824 Si02
#       7
#    16  16  16  16  16  16  16
#     4  11  23  40  65  95 130 168 211 267 328 387
#     4  11  25  44  67  96 130 170 217 269 327 390
#     4  11  23  39  65  97 129 170 217 267 328 398
#     4  11  25  43  67  97 133 175 222 270 328 392
#     4  11  25  40  67  95 132 168 222 273 331 395
#     4  11  24  42  64  94 131 170 215 269 321 385
#     4  10  23  43  64  92 132 175 222 277 336 400
#
# _framework density 22.280535
#
# number of rings (size 3 to 8) (size 9 to 14) (size 15 to 20)
#    0.000    1.143    1.429    4.286    2.000   10.143 
#    0.000    3.571    0.000    0.000    0.000    0.000 
#    0.000    0.000    0.000    0.000    0.000    0.000 
#
# Total GULP energy -1388049.265247 kJ/mol
# GULP energy per Si atom -12393.297011 kJ/mol
# Density = 2.222982 g / cm^3
# Si number density = 22.280535 Si / 1000 Ang^3
#
#
#
# Elastic Constant Matrix: (Units=GPa)
#
#
# Indices 1 2 3 4 5 6 
#
# 1 92.2000 32.5674 27.2063 0.0000 0.0000 0.0000
# 2 32.5674 92.2000 27.2063 0.0000 0.0000 0.0000
# 3 27.2063 27.2063 108.6082 0.0000 0.0000 0.0000
# 4 0.0000 0.0000 0.0000 11.0952 0.0000 0.0000
# 5 0.0000 0.0000 0.0000 0.0000 11.0952 0.0000
# 6 0.0000 0.0000 0.0000 0.0000 0.0000 40.4274
#
#
#
# Elastic Compliance Matrix: (Units=1/GPa)
#
#
# Indices 1 2 3 4 5 6 
#
# 1 0.012884 -0.003886 -0.002254 0.000000 0.000000 0.000000
# 2 -0.003886 0.012884 -0.002254 0.000000 0.000000 0.000000
# 3 -0.002254 -0.002254 0.010337 0.000000 0.000000 0.000000
# 4 0.000000 0.000000 0.000000 0.090129 0.000000 0.000000
# 5 0.000000 0.000000 0.000000 0.000000 0.090129 0.000000
# 6 0.000000 0.000000 0.000000 0.000000 0.000000 0.024736
#
#
# Mechanical properties :
#
#
# Convention : Reuss Voigt Hill
#
# Bulk Modulus (GPa) = 51.76905 51.88537 51.82721
# Shear Modulus (GPa) = 18.91623 26.25879 22.58751
#
# Velocity S-wave (km/s) = 2.91693 3.43673 3.18744
# Velocity P-wave (km/s) = 5.88474 6.25188 6.07109
#
# Compressibility (1/GPa) = 0.01931656
#
# Stress axis : x y z
#
# Youngs Moduli (GPa) = 77.61786 77.61786 96.74323
#
# Poissons Ratio (x) = 0.30160 0.21806
# Poissons Ratio (y) = 0.30160 0.21806
# Poissons Ratio (z) = 0.17495 0.17495
#
# Static dielectric constant tensor:
#      x y z
#    x 4.113350 0.000000 0.000000 
#    y 0.000000 4.113350 0.000000 
#    z 0.000000 0.000000 4.099960 
# 
# 
# High freq. dielectric constant tensor:
#      x y z
#    x 1.882570 0.000000 0.000000 
#    y 0.000000 1.882570 0.000000 
#    z 0.000000 0.000000 1.875230 
# 
# From -- ./inp_files/9160.got.cif
#   From: 2010.03.12/outbox.cif.g09.slc.cpg/sg132_5_cif.got.tgz:9160.got - 2010.04.06 17:53:44.
