data_PCOD8316371
_publ_section_title
;
Structure prediction by ZEFSAII (Michael W. Deem and Ramdas Pophale) SiO2 
 PCOD8316371
Probable space group: P 42/M M C
;
_chemical_formula_sum "Si O2"
_cell_formula_units_Z 48
_cell_length_a 9.860972
_cell_length_b 9.860972
_cell_length_c 30.614314
_cell_angle_alpha 90.000000
_cell_angle_beta 90.000000
_cell_angle_gamma 90.000000
_cell_volume 2976.898201
_symmetry_space_group_name_H-M "P 42/M M C"
_symmetry_group_IT_number 131
_symmetry_cell_setting 'tetragonal'
loop_
_space_group_symop_operation_xyz
x,y,z
-x,-y,z
-y,x,1/2+z
y,-x,1/2+z
-x,y,-z
x,-y,-z
y,x,1/2-z
-y,-x,1/2-z
-x,-y,-z
x,y,-z
y,-x,1/2-z
-y,x,1/2-z
x,-y,z
-x,y,z
-y,-x,1/2+z
y,x,1/2+z
loop_
_atom_site_type_symbol
_atom_site_label
_atom_site_fract_x
_atom_site_fract_y
_atom_site_fract_z
Si Si1 0.350454 0.160584 0.378852
Si Si2 0.843131 0.658871 0.780257
Si Si3 0.838723 0.151510 0.951538
O O1 0.500000 0.221340 0.387486
O O2 0.302459 0.196069 0.329954
O O3 0.248986 0.225121 0.414594
O O4 0.356586 0.000000 0.384089
O O5 0.747563 0.747563 0.750000
O O6 0.816972 0.500000 0.771787
O O7 0.000000 0.694508 0.770815
O O8 0.000000 0.151145 0.948123
O O9 0.783347 0.000000 0.943212
O O10 0.794899 0.201367 0.000000
#
# Coordination Sequence:
#
# PCOD8316371 Si02
#       3
#    16  16  16
#     4   8  14  24  36  51  74 103 134 170 209 247
#     4   9  18  31  45  63  87 113 144 182 220 260
#     4   8  13  20  30  47  73 104 136 168 202 243
#
# _framework density 16.124167
#
# number of rings (size 3 to 8) (size 9 to 14) (size 15 to 20)
#    0.000    3.667    0.000    3.000    0.000    2.667 
#    0.000    6.667    0.000    0.000    0.000    0.000 
#    0.000    1.333    0.000   14.667    0.000   24.000 
#
# Total GULP energy -594764.333935 kJ/mol
# GULP energy per Si atom -12390.923624 kJ/mol
# Density = 1.608747 g / cm^3
# Si number density = 16.124167 Si / 1000 Ang^3
#
#
#
# Elastic Constant Matrix: (Units=GPa)
#
#
# Indices 1 2 3 4 5 6 
#
# 1 57.1214 37.3336 67.7815 0.0000 0.0000 0.0000
# 2 37.3336 57.1214 67.7815 0.0000 0.0000 0.0000
# 3 67.7815 67.7815 158.5225 0.0000 0.0000 0.0000
# 4 0.0000 0.0000 0.0000 2.1073 0.0000 0.0000
# 5 0.0000 0.0000 0.0000 0.0000 2.1073 0.0000
# 6 0.0000 0.0000 0.0000 0.0000 0.0000 15.9353
#
#
#
# Elastic Compliance Matrix: (Units=1/GPa)
#
#
# Indices 1 2 3 4 5 6 
#
# 1 0.038970 -0.011566 -0.011718 0.000000 0.000000 0.000000
# 2 -0.011566 0.038970 -0.011718 0.000000 0.000000 0.000000
# 3 -0.011718 -0.011718 0.016329 0.000000 0.000000 0.000000
# 4 0.000000 0.000000 0.000000 0.474538 0.000000 0.000000
# 5 0.000000 0.000000 0.000000 0.000000 0.474538 0.000000
# 6 0.000000 0.000000 0.000000 0.000000 0.000000 0.062754
#
#
# Mechanical properties :
#
#
# Convention : Reuss Voigt Hill
#
# Bulk Modulus (GPa) = 41.20824 68.72872 54.96848
# Shear Modulus (GPa) = 4.22229 10.68789 7.45509
#
# Velocity S-wave (km/s) = 1.61997 2.57738 2.15258
# Velocity P-wave (km/s) = 5.39549 7.18153 6.35160
#
# Compressibility (1/GPa) = 0.02426699
#
# Stress axis : x y z
#
# Youngs Moduli (GPa) = 25.66055 25.66055 61.24145
#
# Poissons Ratio (x) = 0.29679 0.71761
# Poissons Ratio (y) = 0.29679 0.71761
# Poissons Ratio (z) = 0.30068 0.30068
#
# Static dielectric constant tensor:
#      x y z
#    x 2.882910 0.000000 0.000000 
#    y 0.000000 2.882910 0.000000 
#    z 0.000000 0.000000 3.334920 
# 
# 
# High freq. dielectric constant tensor:
#      x y z
#    x 1.582590 0.000000 0.000000 
#    y 0.000000 1.582590 0.000000 
#    z 0.000000 0.000000 1.632960 
# 
# From -- ./inp_files/8819.got.cif
#   From: 2010.03.12/outbox.cif.g09.slc.cpg/sg131_5_cif.got.tgz:8819.got - 2010.04.06 17:36:35.
