data_PCOD8316913
_publ_section_title
;
Structure prediction by ZEFSAII (Michael W. Deem and Ramdas Pophale) SiO2 
 PCOD8316913
Probable space group: P 42/N B C
;
_chemical_formula_sum "Si O2"
_cell_formula_units_Z 100
_cell_length_a 14.173811
_cell_length_b 14.173811
_cell_length_c 26.163946
_cell_angle_alpha 90.000000
_cell_angle_beta 90.000000
_cell_angle_gamma 90.000000
_cell_volume 5256.256121
_symmetry_space_group_name_H-M "P 42/N B C"
_symmetry_group_IT_number 133
_space_group.IT_coordinate_system_code '2'
_symmetry_cell_setting 'tetragonal'
loop_
_space_group_symop_operation_xyz
x,y,z
1/2-y,x,1/2+z
1/2-x,1/2-y,z
y,1/2-x,1/2+z
x,1/2-y,-z
1/2-x,y,-z
y,x,1/2-z
1/2-y,1/2-x,1/2-z
-x,-y,-z
1/2+y,-x,1/2-z
1/2+x,1/2+y,-z
-y,1/2+x,1/2-z
-x,1/2+y,z
1/2+x,-y,z
-y,-x,1/2+z
1/2+y,1/2+x,1/2+z
loop_
_atom_site_type_symbol
_atom_site_label
_atom_site_fract_x
_atom_site_fract_y
_atom_site_fract_z
Si Si1 0.640323 0.993249 0.555761
Si Si2 0.665154 0.067195 0.217474
Si Si3 0.645216 0.994459 0.434792
Si Si4 0.506567 0.638364 0.276374
Si Si5 0.642159 0.496495 0.103432
Si Si6 0.250000 0.750000 0.250000
Si Si7 0.140254 0.992306 0.104369
O O1 0.588981 0.088803 0.572582
O O2 0.635991 0.987670 0.495253
O O3 0.744860 0.993329 0.579631
O O4 0.587481 0.901304 0.576365
O O5 0.579676 0.072274 0.257321
O O6 0.708685 0.172119 0.211079
O O7 0.751075 0.002710 0.238843
O O8 0.626116 0.028374 0.164220
O O9 0.593735 0.905405 0.408398
O O10 0.599141 0.091532 0.414967
O O11 0.602511 0.602511 0.250000
O O12 0.510455 0.627474 0.336696
O O13 0.751132 0.491040 0.088064
#
# Coordination Sequence:
#
# PCOD8316913 Si02
#       7
#    16  16  16  16  16   4  16
#     4  10  22  38  55  78 110 144 178 224 275 322
#     4   9  19  33  52  79 107 138 173 215 262 313
#     4  10  22  38  55  79 109 142 181 223 273 326
#     4  10  19  33  54  78 106 140 175 212 260 312
#     4  10  21  35  57  84 107 142 184 223 267 316
#     4   8  16  32  52  76 108 138 172 212 260 316
#     4  10  20  36  57  81 109 139 181 226 266 319
#
# _framework density 19.024947999999998
#
# number of rings (size 3 to 8) (size 9 to 14) (size 15 to 20)
#    0.000    2.240    0.000    3.840    0.000   10.240 
#    0.000    3.200    0.000    2.400    0.000    0.000 
#    0.000    0.000    0.000    0.000    0.000    0.000 
#
# Total GULP energy -1239920.410135 kJ/mol
# GULP energy per Si atom -12399.204101 kJ/mol
# Density = 1.898165 g / cm^3
# Si number density = 19.024948 Si / 1000 Ang^3
#
#
#
# Elastic Constant Matrix: (Units=GPa)
#
#
# Indices 1 2 3 4 5 6 
#
# 1 120.1091 50.4013 35.4060 0.0000 0.0000 0.0000
# 2 50.4013 120.1091 35.4060 0.0000 0.0000 0.0000
# 3 35.4060 35.4060 77.3089 0.0000 0.0000 0.0000
# 4 0.0000 0.0000 0.0000 23.0739 0.0000 0.0000
# 5 0.0000 0.0000 0.0000 0.0000 23.0739 0.0000
# 6 0.0000 0.0000 0.0000 0.0000 0.0000 17.5951
#
#
#
# Elastic Compliance Matrix: (Units=1/GPa)
#
#
# Indices 1 2 3 4 5 6 
#
# 1 0.010794 -0.003552 -0.003317 0.000000 0.000000 0.000000
# 2 -0.003552 0.010794 -0.003317 0.000000 0.000000 0.000000
# 3 -0.003317 -0.003317 0.015973 0.000000 0.000000 0.000000
# 4 0.000000 0.000000 0.000000 0.043339 0.000000 0.000000
# 5 0.000000 0.000000 0.000000 0.000000 0.043339 0.000000
# 6 0.000000 0.000000 0.000000 0.000000 0.000000 0.056834
#
#
# Mechanical properties :
#
#
# Convention : Reuss Voigt Hill
#
# Bulk Modulus (GPa) = 58.17199 62.21709 60.19454
# Shear Modulus (GPa) = 24.13436 25.83617 24.98526
#
# Velocity S-wave (km/s) = 3.56555 3.68912 3.62786
# Velocity P-wave (km/s) = 6.89884 7.13583 7.01833
#
# Compressibility (1/GPa) = 0.01719040
#
# Stress axis : x y z
#
# Youngs Moduli (GPa) = 92.64494 92.64494 62.60493
#
# Poissons Ratio (x) = 0.32905 0.20765
# Poissons Ratio (y) = 0.32905 0.20765
# Poissons Ratio (z) = 0.30728 0.30728
#
# Static dielectric constant tensor:
#      x y z
#    x 3.711180 0.000000 0.000000 
#    y 0.000000 3.711180 0.000000 
#    z 0.000000 0.000000 3.430470 
# 
# 
# High freq. dielectric constant tensor:
#      x y z
#    x 1.741990 0.000000 0.000000 
#    y 0.000000 1.741990 0.000000 
#    z 0.000000 0.000000 1.742330 
# 
# From -- ./inp_files/7177.got.cif
#   From: 2010.03.12/outbox.cif.g09.slc.cpg/sg133_4_cif.got.tgz:7177.got - 2010.04.06 18:08:06.
