data_PCOD8316197
_publ_section_title
;
Structure prediction by ZEFSAII (Michael W. Deem and Ramdas Pophale) SiO2 
 PCOD8316197
Probable space group: P 42/M M C
;
_chemical_formula_sum "Si O2"
_cell_formula_units_Z 112
_cell_length_a 14.424122
_cell_length_b 14.424122
_cell_length_c 26.143160
_cell_angle_alpha 90.000000
_cell_angle_beta 90.000000
_cell_angle_gamma 90.000000
_cell_volume 5439.222878
_symmetry_space_group_name_H-M "P 42/M M C"
_symmetry_group_IT_number 131
_symmetry_cell_setting 'tetragonal'
loop_
_space_group_symop_operation_xyz
x,y,z
-x,-y,z
-y,x,1/2+z
y,-x,1/2+z
-x,y,-z
x,-y,-z
y,x,1/2-z
-y,-x,1/2-z
-x,-y,-z
x,y,-z
y,-x,1/2-z
-y,x,1/2-z
x,-y,z
-x,y,z
-y,-x,1/2+z
y,x,1/2+z
loop_
_atom_site_type_symbol
_atom_site_label
_atom_site_fract_x
_atom_site_fract_y
_atom_site_fract_z
Si Si1 0.607888 0.250668 0.766886
Si Si2 0.393683 0.239126 0.886923
Si Si3 0.605741 0.101222 0.599489
Si Si4 0.280643 0.895518 0.297910
Si Si5 0.606502 0.293297 0.443133
Si Si6 0.107619 0.746074 0.441665
Si Si7 0.892529 0.105058 0.856511
O O1 0.649687 0.350313 0.750000
O O2 0.500000 0.246916 0.750111
O O3 0.619012 0.231433 0.826562
O O4 0.669199 0.170889 0.741522
O O5 0.500000 0.232152 0.903247
O O6 0.353536 0.338527 0.902397
O O7 0.341105 0.158396 0.916704
O O8 0.500000 0.110211 0.618292
O O9 0.669306 0.112295 0.648266
O O10 0.630085 0.183634 0.560412
O O11 0.622077 0.000000 0.573458
O O12 0.173763 0.864899 0.309684
O O13 0.285203 0.000000 0.275980
O O14 0.633215 0.325559 0.500000
O O15 0.500000 0.312382 0.431000
O O16 0.142007 0.762743 0.500000
O O17 0.129270 0.837400 0.408376
O O18 0.000000 0.721466 0.440888
O O19 0.000000 0.119207 0.870609
O O20 0.871653 0.000000 0.838061
#
# Coordination Sequence:
#
# PCOD8316197 Si02
#       7
#    16  16  16  16  16  16  16
#     4  11  24  41  62  87 114 148 192 243 302 362
#     4  11  25  42  59  81 110 145 189 244 298 345
#     4   9  17  30  52  85 122 155 188 230 280 336
#     4  10  20  36  60  88 119 157 197 236 284 343
#     4  10  21  37  59  86 115 150 190 232 284 349
#     4  10  21  37  59  86 116 155 200 241 283 333
#     4   9  18  34  59  93 129 160 192 233 283 342
#
# _framework density 20.591176000000001
#
# number of rings (size 3 to 8) (size 9 to 14) (size 15 to 20)
#    0.000    2.000    0.000    3.429    0.000    5.571 
#    0.000    7.857    0.000    6.000    0.000    4.000 
#    0.000    0.000    0.000    0.000    0.000    0.000 
#
# Total GULP energy -1388689.973538 kJ/mol
# GULP energy per Si atom -12399.017621 kJ/mol
# Density = 2.054431 g / cm^3
# Si number density = 20.591176 Si / 1000 Ang^3
#
#
#
# Elastic Constant Matrix: (Units=GPa)
#
#
# Indices 1 2 3 4 5 6 
#
# 1 130.4146 74.5968 64.7462 0.0000 0.0000 0.0000
# 2 74.5968 130.4138 64.7468 0.0000 0.0000 0.0000
# 3 64.7462 64.7468 91.6123 0.0000 0.0000 0.0000
# 4 0.0000 0.0000 0.0000 27.2651 0.0000 0.0000
# 5 0.0000 0.0000 0.0000 0.0000 27.2651 0.0000
# 6 0.0000 0.0000 0.0000 0.0000 0.0000 28.4083
#
#
#
# Elastic Compliance Matrix: (Units=1/GPa)
#
#
# Indices 1 2 3 4 5 6 
#
# 1 0.013363 -0.004552 -0.006227 0.000000 0.000000 0.000000
# 2 -0.004552 0.013363 -0.006227 0.000000 0.000000 0.000000
# 3 -0.006227 -0.006227 0.019718 0.000000 0.000000 0.000000
# 4 0.000000 0.000000 0.000000 0.036677 0.000000 0.000000
# 5 0.000000 0.000000 0.000000 0.000000 0.036677 0.000000
# 6 0.000000 0.000000 0.000000 0.000000 0.000000 0.035201
#
#
# Mechanical properties :
#
#
# Convention : Reuss Voigt Hill
#
# Bulk Modulus (GPa) = 80.44368 84.51339 82.47853
# Shear Modulus (GPa) = 25.88578 26.47777 26.18177
#
# Velocity S-wave (km/s) = 3.54945 3.58981 3.56968
# Velocity P-wave (km/s) = 7.47997 7.63642 7.55860
#
# Compressibility (1/GPa) = 0.01243106
#
# Stress axis : x y z
#
# Youngs Moduli (GPa) = 74.83224 74.83075 50.71586
#
# Poissons Ratio (x) = 0.34064 0.31581
# Poissons Ratio (y) = 0.34065 0.31583
# Poissons Ratio (z) = 0.46599 0.46600
#
# Static dielectric constant tensor:
#      x y z
#    x 3.971190 0.000000 0.000000 
#    y 0.000000 3.971190 0.000000 
#    z 0.000000 0.000000 3.691110 
# 
# 
# High freq. dielectric constant tensor:
#      x y z
#    x 1.814730 0.000000 0.000000 
#    y 0.000000 1.814730 0.000000 
#    z 0.000000 0.000000 1.796870 
# 
# From -- ./inp_files/11279.got.cif
#   From: 2010.03.12/outbox.cif.g09.slc.cpg/sg131_6_cif.got.tgz:11279.got - 2010.04.06 17:36:35.
