data_PCOD8316635
_publ_section_title
;
Structure prediction by ZEFSAII (Michael W. Deem and Ramdas Pophale) SiO2 
 PCOD8316635
Probable space group: P 42/M C M
;
_chemical_formula_sum "Si O2"
_cell_formula_units_Z 60
_cell_length_a 12.576366
_cell_length_b 12.576366
_cell_length_c 20.463839
_cell_angle_alpha 90.000000
_cell_angle_beta 90.000000
_cell_angle_gamma 90.000000
_cell_volume 3236.662722
_symmetry_space_group_name_H-M "P 42/M C M"
_symmetry_group_IT_number 132
_symmetry_cell_setting 'tetragonal'
loop_
_space_group_symop_operation_xyz
x,y,z
-y,x,1/2+z
-x,-y,z
y,-x,1/2+z
x,-y,1/2-z
-x,y,1/2-z
y,x,-z
-y,-x,-z
-x,-y,-z
y,-x,1/2-z
x,y,-z
-y,x,1/2-z
-x,y,1/2+z
x,-y,1/2+z
-y,-x,z
y,x,z
loop_
_atom_site_type_symbol
_atom_site_label
_atom_site_fract_x
_atom_site_fract_y
_atom_site_fract_z
Si Si1 0.958188 0.662453 0.148336
Si Si2 0.241933 0.592410 0.423137
Si Si3 0.500000 0.000000 0.750000
Si Si4 0.000000 0.166001 0.750000
Si Si5 0.815745 0.358755 0.077321
O O1 0.864250 0.657073 0.096221
O O2 0.929453 0.573139 0.202557
O O3 0.958039 0.771893 0.187040
O O4 0.072068 0.646625 0.114068
O O5 0.246555 0.596571 0.500000
O O6 0.345920 0.654081 0.394365
O O7 0.240484 0.469213 0.400817
O O8 0.904170 0.095831 0.777572
O O9 0.738510 0.261491 0.097870
O O10 0.837809 0.356784 0.000000
#
# Coordination Sequence:
#
# PCOD8316635 Si02
#       5
#    16  16   4   8  16
#     4  11  19  35  55  78 102 136 176 229 260 312
#     4  10  20  34  55  81 109 141 176 220 272 320
#     4  10  20  30  54  74  98 130 180 212 264 292
#     4  10  22  36  52  76 106 142 176 214 266 322
#     4  10  20  34  55  81 109 141 176 220 272 320
#
# _framework density 18.537611999999999
#
# number of rings (size 3 to 8) (size 9 to 14) (size 15 to 20)
#    0.000    1.733    2.667    2.400    0.000    2.667 
#    0.000    2.667    0.000    0.000    0.000   13.067 
#    0.000    0.000    0.000    0.000    0.000    0.000 
#
# Total GULP energy -743539.944406 kJ/mol
# GULP energy per Si atom -12392.332407 kJ/mol
# Density = 1.849542 g / cm^3
# Si number density = 18.537612 Si / 1000 Ang^3
#
#
#
# Elastic Constant Matrix: (Units=GPa)
#
#
# Indices 1 2 3 4 5 6 
#
# 1 98.7318 39.5018 26.8132 0.0000 0.0000 0.0000
# 2 39.5018 98.7318 26.8132 0.0000 0.0000 0.0000
# 3 26.8132 26.8132 30.9742 0.0000 0.0000 0.0000
# 4 0.0000 0.0000 0.0000 13.3616 0.0000 0.0000
# 5 0.0000 0.0000 0.0000 0.0000 13.3616 0.0000
# 6 0.0000 0.0000 0.0000 0.0000 0.0000 23.7378
#
#
#
# Elastic Compliance Matrix: (Units=1/GPa)
#
#
# Indices 1 2 3 4 5 6 
#
# 1 0.013888 -0.002996 -0.009429 0.000000 0.000000 0.000000
# 2 -0.002996 0.013888 -0.009429 0.000000 0.000000 0.000000
# 3 -0.009429 -0.009429 0.048609 0.000000 0.000000 0.000000
# 4 0.000000 0.000000 0.000000 0.074841 0.000000 0.000000
# 5 0.000000 0.000000 0.000000 0.000000 0.074841 0.000000
# 6 0.000000 0.000000 0.000000 0.000000 0.000000 0.042127
#
#
# Mechanical properties :
#
#
# Convention : Reuss Voigt Hill
#
# Bulk Modulus (GPa) = 30.60155 46.07711 38.33933
# Shear Modulus (GPa) = 15.48980 19.11283 17.30132
#
# Velocity S-wave (km/s) = 2.89379 3.21445 3.05832
# Velocity P-wave (km/s) = 5.26394 6.21988 5.76177
#
# Compressibility (1/GPa) = 0.03267808
#
# Stress axis : x y z
#
# Youngs Moduli (GPa) = 72.00655 72.00655 20.57228
#
# Poissons Ratio (x) = 0.21571 0.19397
# Poissons Ratio (y) = 0.21571 0.19397
# Poissons Ratio (z) = 0.67893 0.67893
#
# Static dielectric constant tensor:
#      x y z
#    x 3.785400 0.000000 0.000000 
#    y 0.000000 3.785400 0.000000 
#    z 0.000000 0.000000 3.440690 
# 
# 
# High freq. dielectric constant tensor:
#      x y z
#    x 1.721210 0.000000 0.000000 
#    y 0.000000 1.721210 0.000000 
#    z 0.000000 0.000000 1.712000 
# 
# From -- ./inp_files/7468.got.cif
#   From: 2010.03.12/outbox.cif.g09.slc.cpg/sg132_4_cif.got.tgz:7468.got - 2010.04.06 17:53:44.
