data_PCOD8316166
_publ_section_title
;
Structure prediction by ZEFSAII (Michael W. Deem and Ramdas Pophale) SiO2 
 PCOD8316166
Probable space group: P 42/M M C
;
_chemical_formula_sum "Si O2"
_cell_formula_units_Z 112
_cell_length_a 15.186682
_cell_length_b 15.186682
_cell_length_c 24.261905
_cell_angle_alpha 90.000000
_cell_angle_beta 90.000000
_cell_angle_gamma 90.000000
_cell_volume 5595.651985
_symmetry_space_group_name_H-M "P 42/M M C"
_symmetry_group_IT_number 131
_symmetry_cell_setting 'tetragonal'
loop_
_space_group_symop_operation_xyz
x,y,z
-x,-y,z
-y,x,1/2+z
y,-x,1/2+z
-x,y,-z
x,-y,-z
y,x,1/2-z
-y,-x,1/2-z
-x,-y,-z
x,y,-z
y,-x,1/2-z
-y,x,1/2-z
x,-y,z
-x,y,z
-y,-x,1/2+z
y,x,1/2+z
loop_
_atom_site_type_symbol
_atom_site_label
_atom_site_fract_x
_atom_site_fract_y
_atom_site_fract_z
Si Si1 0.396955 0.248270 0.867286
Si Si2 0.639953 0.901153 0.562470
Si Si3 0.240703 0.095598 0.756619
Si Si4 0.902961 0.847854 0.937943
Si Si5 0.198985 0.596614 0.757657
Si Si6 0.905064 0.725457 0.383476
Si Si7 0.726271 0.595480 0.127446
O O1 0.500000 0.251375 0.883606
O O2 0.383625 0.244495 0.801256
O O3 0.349484 0.166248 0.898464
O O4 0.345462 0.332861 0.891592
O O5 0.607407 0.881858 0.500000
O O6 0.744019 0.899366 0.564175
O O7 0.605968 0.824680 0.602764
O O8 0.607289 0.000000 0.580291
O O9 0.157612 0.157612 0.750000
O O10 0.326788 0.131051 0.724894
O O11 0.270998 0.087998 0.818609
O O12 0.215767 0.000000 0.732062
O O13 0.824608 0.884574 0.901368
O O14 0.000000 0.879750 0.916769
O O15 0.888791 0.881905 0.000000
O O16 0.152647 0.500000 0.754708
O O17 0.270793 0.597654 0.806005
O O18 0.000000 0.696724 0.408231
O O19 0.690846 0.500000 0.108444
#
# Coordination Sequence:
#
# PCOD8316166 Si02
#       7
#    16  16  16  16  16  16  16
#     4  10  20  37  57  77 109 146 179 224 275 321
#     4   9  19  36  57  82 113 148 183 220 269 326
#     4  10  21  34  49  71 104 145 181 214 256 309
#     4   9  18  34  57  83 110 140 174 217 271 325
#     4   9  19  35  55  79 106 137 178 226 275 322
#     4  10  20  35  55  79 105 137 181 223 264 317
#     4  11  21  34  56  84 111 141 181 224 269 326
#
# _framework density 20.015540999999999
#
# number of rings (size 3 to 8) (size 9 to 14) (size 15 to 20)
#    0.000    2.286    1.429    3.000    0.000    3.286 
#    0.000    7.143    0.000    4.286    0.000    2.000 
#    0.000    0.000    0.000    0.000    0.000    0.000 
#
# Total GULP energy -1387630.131234 kJ/mol
# GULP energy per Si atom -12389.554743 kJ/mol
# Density = 1.996998 g / cm^3
# Si number density = 20.015541 Si / 1000 Ang^3
#
#
#
# Elastic Constant Matrix: (Units=GPa)
#
#
# Indices 1 2 3 4 5 6 
#
# 1 150.4077 88.4995 10.8539 0.0000 0.0000 0.0000
# 2 88.4995 150.4077 10.8539 0.0000 0.0000 0.0000
# 3 10.8539 10.8539 26.5605 0.0000 0.0000 0.0000
# 4 0.0000 0.0000 0.0000 20.1681 0.0000 0.0000
# 5 0.0000 0.0000 0.0000 0.0000 20.1681 0.0000
# 6 0.0000 0.0000 0.0000 0.0000 0.0000 5.4114
#
#
#
# Elastic Compliance Matrix: (Units=1/GPa)
#
#
# Indices 1 2 3 4 5 6 
#
# 1 0.010250 -0.005903 -0.001776 0.000000 0.000000 0.000000
# 2 -0.005903 0.010250 -0.001776 0.000000 0.000000 0.000000
# 3 -0.001776 -0.001776 0.039102 0.000000 0.000000 0.000000
# 4 0.000000 0.000000 0.000000 0.049583 0.000000 0.000000
# 5 0.000000 0.000000 0.000000 0.000000 0.049583 0.000000
# 6 0.000000 0.000000 0.000000 0.000000 0.000000 0.184796
#
#
# Mechanical properties :
#
#
# Convention : Reuss Voigt Hill
#
# Bulk Modulus (GPa) = 24.57590 60.86562 42.72076
# Shear Modulus (GPa) = 13.29647 23.62740 18.46194
#
# Velocity S-wave (km/s) = 2.58021 3.43950 3.04037
# Velocity P-wave (km/s) = 4.60236 6.80064 5.80648
#
# Compressibility (1/GPa) = 0.04069027
#
# Stress axis : x y z
#
# Youngs Moduli (GPa) = 97.56048 97.56048 25.57427
#
# Poissons Ratio (x) = 0.57589 0.04543
# Poissons Ratio (y) = 0.57589 0.04543
# Poissons Ratio (z) = 0.17331 0.17331
#
# Static dielectric constant tensor:
#      x y z
#    x 3.953820 0.000000 0.000000 
#    y 0.000000 3.953820 0.000000 
#    z 0.000000 0.000000 3.491740 
# 
# 
# High freq. dielectric constant tensor:
#      x y z
#    x 1.780290 0.000000 0.000000 
#    y 0.000000 1.780290 0.000000 
#    z 0.000000 0.000000 1.751360 
# 
# From -- ./inp_files/11260.got.cif
#   From: 2010.03.12/outbox.cif.g09.slc.cpg/sg131_6_cif.got.tgz:11260.got - 2010.04.06 17:36:35.
