data_PCOD8316952
_publ_section_title
;
Structure prediction by ZEFSAII (Michael W. Deem and Ramdas Pophale) SiO2 
 PCOD8316952
Probable space group: P 42/N B C
;
_chemical_formula_sum "Si O2"
_cell_formula_units_Z 116
_cell_length_a 17.305719
_cell_length_b 17.305719
_cell_length_c 17.644327
_cell_angle_alpha 90.000000
_cell_angle_beta 90.000000
_cell_angle_gamma 90.000000
_cell_volume 5284.262618
_symmetry_space_group_name_H-M "P 42/N B C"
_symmetry_group_IT_number 133
_space_group.IT_coordinate_system_code '2'
_symmetry_cell_setting 'tetragonal'
loop_
_space_group_symop_operation_xyz
x,y,z
1/2-y,x,1/2+z
1/2-x,1/2-y,z
y,1/2-x,1/2+z
x,1/2-y,-z
1/2-x,y,-z
y,x,1/2-z
1/2-y,1/2-x,1/2-z
-x,-y,-z
1/2+y,-x,1/2-z
1/2+x,1/2+y,-z
-y,1/2+x,1/2-z
-x,1/2+y,z
1/2+x,-y,z
-y,-x,1/2+z
1/2+y,1/2+x,1/2+z
loop_
_atom_site_type_symbol
_atom_site_label
_atom_site_fract_x
_atom_site_fract_y
_atom_site_fract_z
Si Si1 0.943987 0.868586 0.391711
Si Si2 0.030015 0.537335 0.820478
Si Si3 0.250000 0.750000 0.250000
Si Si4 0.653685 0.146430 0.657165
Si Si5 0.417082 0.418296 0.440611
Si Si6 0.666017 0.431018 0.502116
Si Si7 0.292132 0.906833 0.075678
Si Si8 0.834733 0.734161 0.411441
O O1 0.943230 0.881976 0.481210
O O2 0.887942 0.797672 0.368971
O O3 0.030433 0.839901 0.376957
O O4 0.925788 0.946471 0.344296
O O5 0.093570 0.599107 0.789667
O O6 0.068722 0.492627 0.890520
O O7 0.019691 0.480309 0.750000
O O8 0.328833 0.732474 0.200949
O O9 0.652844 0.088572 0.585580
O O10 0.623270 0.230528 0.634976
O O11 0.384365 0.502963 0.458812
O O12 0.360942 0.355666 0.398516
O O13 0.750000 0.467261 0.500000
O O14 0.660936 0.351497 0.550261
O O15 0.250000 0.940575 0.000000
O O16 0.750000 0.750000 0.377297
O O17 0.834487 0.750000 0.500000
#
# Coordination Sequence:
#
# PCOD8316952 Si02
#       8
#    16  16   4  16  16  16  16  16
#     4  11  20  39  66  93 124 168 216 272 330 393
#     4  12  26  41  65  95 132 172 227 281 335 406
#     4  12  28  44  66  84 144 188 224 270 356 436
#     4  11  25  44  62  93 128 179 222 274 338 416
#     4  11  21  40  66  97 130 170 217 275 336 392
#     4  11  22  36  67 100 130 166 223 285 333 393
#     4  10  20  37  64  92 122 158 218 275 331 387
#     4   9  20  35  64 100 130 161 207 267 334 395
#
# _framework density 21.951974
#
# number of rings (size 3 to 8) (size 9 to 14) (size 15 to 20)
#    0.000    1.241    2.759    4.966    5.793    3.034 
#    0.000    0.000    0.000    0.000    0.000    0.000 
#    0.000    0.000    0.000    0.000    0.000    0.000 
#
# Total GULP energy -1437108.292736 kJ/mol
# GULP energy per Si atom -12388.864593 kJ/mol
# Density = 2.190201 g / cm^3
# Si number density = 21.951974 Si / 1000 Ang^3
#
#
#
# Elastic Constant Matrix: (Units=GPa)
#
#
# Indices 1 2 3 4 5 6 
#
# 1 114.7350 36.3008 22.2195 0.0000 0.0000 0.0000
# 2 36.3008 114.7350 22.2195 0.0000 0.0000 0.0000
# 3 22.2195 22.2195 45.8352 0.0000 0.0000 0.0000
# 4 0.0000 0.0000 0.0000 -104.6160 0.0000 0.0000
# 5 0.0000 0.0000 0.0000 0.0000 -104.6160 0.0000
# 6 0.0000 0.0000 0.0000 0.0000 0.0000 44.8914
#
#
#
# Elastic Compliance Matrix: (Units=1/GPa)
#
#
# Indices 1 2 3 4 5 6 
#
# 1 0.010236 -0.002514 -0.003744 0.000000 0.000000 0.000000
# 2 -0.002514 0.010236 -0.003744 0.000000 0.000000 0.000000
# 3 -0.003744 -0.003744 0.025447 0.000000 0.000000 0.000000
# 4 0.000000 0.000000 0.000000 -0.009559 0.000000 0.000000
# 5 0.000000 0.000000 0.000000 0.000000 -0.009559 0.000000
# 6 0.000000 0.000000 0.000000 0.000000 0.000000 0.022276
#
#
# Mechanical properties :
#
#
# Convention : Reuss Voigt Hill
#
# Bulk Modulus (GPa) = 38.58424 48.53162 43.55793
# Shear Modulus (GPa) = 64.33539 -19.89706 22.21917
#
# Velocity S-wave (km/s) = 5.41950 -3.01390 3.18492
# Velocity P-wave (km/s) = 7.53499 3.16933 5.78017
#
# Compressibility (1/GPa) = 0.02591732
#
# Stress axis : x y z
#
# Youngs Moduli (GPa) = 97.69468 97.69468 39.29767
#
# Poissons Ratio (x) = 0.24556 0.14711
# Poissons Ratio (y) = 0.24556 0.14711
# Poissons Ratio (z) = 0.36573 0.36573
#
# Static dielectric constant tensor:
#      x y z
#    x 4.189870 0.000000 0.000000 
#    y 0.000000 4.189870 0.000000 
#    z 0.000000 0.000000 3.815750 
# 
# 
# High freq. dielectric constant tensor:
#      x y z
#    x 1.869770 0.000000 0.000000 
#    y 0.000000 1.869770 0.000000 
#    z 0.000000 0.000000 1.829020 
# 
# From -- ./inp_files/5650.got.cif
#   From: 2010.03.12/outbox.cif.g09.slc.cpg/sg133_3_cif.got.tgz:5650.got - 2010.04.06 18:08:06.
