data_PCOD8316882
_publ_section_title
;
Structure prediction by ZEFSAII (Michael W. Deem and Ramdas Pophale) SiO2 
 PCOD8316882
Probable space group: P 42/M C M
;
_chemical_formula_sum "Si O2"
_cell_formula_units_Z 104
_cell_length_a 15.000000
_cell_length_b 15.000000
_cell_length_c 24.000000
_cell_angle_alpha 90.000000
_cell_angle_beta 90.000000
_cell_angle_gamma 90.000000
_cell_volume 5400.000000
_symmetry_space_group_name_H-M "P 42/M C M"
_symmetry_group_IT_number 132
_symmetry_cell_setting 'tetragonal'
loop_
_space_group_symop_operation_xyz
x,y,z
-y,x,1/2+z
-x,-y,z
y,-x,1/2+z
x,-y,1/2-z
-x,y,1/2-z
y,x,-z
-y,-x,-z
-x,-y,-z
y,-x,1/2-z
x,y,-z
-y,x,1/2-z
-x,y,1/2+z
x,-y,1/2+z
-y,-x,z
y,x,z
loop_
_atom_site_type_symbol
_atom_site_label
_atom_site_fract_x
_atom_site_fract_y
_atom_site_fract_z
Si Si1 0.240892 0.389243 0.062520
Si Si2 0.735034 0.879334 0.127837
Si Si3 0.046271 0.191381 0.565996
Si Si4 0.160714 0.695660 0.855365
Si Si5 0.094372 0.641846 0.740763
Si Si6 0.500000 0.243186 0.250000
Si Si7 0.298256 0.446203 0.365914
O O1 0.307462 0.307462 0.058591
O O2 0.150634 0.353661 0.093159
O O3 0.292937 0.468672 0.094086
O O4 0.215149 0.421162 0.000000
O O5 0.792749 0.792749 0.140028
O O6 0.706685 0.917585 0.187785
O O7 0.798009 0.949480 0.094235
O O8 0.037529 0.205457 0.500000
O O9 0.095407 0.095407 0.578377
O O10 0.105069 0.270707 0.591764
O O11 0.244542 0.755459 0.841775
O O12 0.105234 0.696069 0.798366
O O13 0.201089 0.599843 0.872003
O O14 0.178903 0.579476 0.729884
O O15 0.000000 0.590209 0.750000
O O16 0.525049 0.307764 0.198890
O O17 0.382170 0.382170 0.382056
#
# Coordination Sequence:
#
# PCOD8316882 Si02
#       7
#    16  16  16  16  16   8  16
#     4  10  22  40  60  84 117 156 198 242 290 351
#     4  11  22  38  61  86 115 156 200 244 297 358
#     4  10  21  38  59  84 117 155 197 244 292 349
#     4   9  19  35  56  83 113 148 189 232 289 353
#     4  11  19  34  59  86 114 150 188 238 295 352
#     4  10  21  36  56  87 118 148 192 242 295 354
#     4  10  21  37  59  85 115 153 195 242 294 352
#
# _framework density 19.259259
#
# number of rings (size 3 to 8) (size 9 to 14) (size 15 to 20)
#    0.000    1.846    3.077    1.154    0.000    3.692 
#    0.000    3.846    0.000    1.846    0.000    0.000 
#    0.000    0.000    0.000    0.000    0.000    0.000 
#
# Total GULP energy -1288893.046539 kJ/mol
# GULP energy per Si atom -12393.202371 kJ/mol
# Density = 1.921542 g / cm^3
# Si number density = 19.259259 Si / 1000 Ang^3
#
#
#
# Elastic Constant Matrix: (Units=GPa)
#
#
# Indices 1 2 3 4 5 6 
#
# 1 75.1985 14.8772 32.0465 0.0000 0.0000 0.0000
# 2 14.8772 75.1985 32.0465 0.0000 0.0000 0.0000
# 3 32.0465 32.0465 99.5081 0.0000 0.0000 0.0000
# 4 0.0000 0.0000 0.0000 30.6107 0.0000 0.0000
# 5 0.0000 0.0000 0.0000 0.0000 30.6107 0.0000
# 6 0.0000 0.0000 0.0000 0.0000 0.0000 26.5017
#
#
#
# Elastic Compliance Matrix: (Units=1/GPa)
#
#
# Indices 1 2 3 4 5 6 
#
# 1 0.015490 -0.001088 -0.004638 0.000000 0.000000 0.000000
# 2 -0.001088 0.015490 -0.004638 0.000000 0.000000 0.000000
# 3 -0.004638 -0.004638 0.013037 0.000000 0.000000 0.000000
# 4 0.000000 0.000000 0.000000 0.032668 0.000000 0.000000
# 5 0.000000 0.000000 0.000000 0.000000 0.032668 0.000000
# 6 0.000000 0.000000 0.000000 0.000000 0.000000 0.037733
#
#
# Mechanical properties :
#
#
# Convention : Reuss Voigt Hill
#
# Bulk Modulus (GPa) = 42.94003 45.31616 44.12809
# Shear Modulus (GPa) = 28.47738 28.94031 28.70884
#
# Velocity S-wave (km/s) = 3.84947 3.88063 3.86508
# Velocity P-wave (km/s) = 6.48861 6.60755 6.54835
#
# Compressibility (1/GPa) = 0.02328829
#
# Stress axis : x y z
#
# Youngs Moduli (GPa) = 64.55796 64.55796 76.70562
#
# Poissons Ratio (x) = 0.07023 0.35577
# Poissons Ratio (y) = 0.07023 0.35577
# Poissons Ratio (z) = 0.29943 0.29943
#
# Static dielectric constant tensor:
#      x y z
#    x 3.556780 0.000000 0.000000 
#    y 0.000000 3.556780 0.000000 
#    z 0.000000 0.000000 3.672170 
# 
# 
# High freq. dielectric constant tensor:
#      x y z
#    x 1.745430 0.000000 0.000000 
#    y 0.000000 1.745430 0.000000 
#    z 0.000000 0.000000 1.762730 
# 
# From -- ./inp_files/9100.got.cif
#   From: 2010.03.12/outbox.ucp.g09.slc.cvg/sg132_5_cif.got.tgz:9100.got - 2010.05.04 20:28:14.
