data_PCOD8316495
_publ_section_title
;
Structure prediction by ZEFSAII (Michael W. Deem and Ramdas Pophale) SiO2 
 PCOD8316495
Probable space group: P 42/M C M
;
_chemical_formula_sum "Si O2"
_cell_formula_units_Z 48
_cell_length_a 14.979165
_cell_length_b 14.979165
_cell_length_c 10.135377
_cell_angle_alpha 90.000000
_cell_angle_beta 90.000000
_cell_angle_gamma 90.000000
_cell_volume 2274.129107
_symmetry_space_group_name_H-M "P 42/M C M"
_symmetry_group_IT_number 132
_symmetry_cell_setting 'tetragonal'
loop_
_space_group_symop_operation_xyz
x,y,z
-y,x,1/2+z
-x,-y,z
y,-x,1/2+z
x,-y,1/2-z
-x,y,1/2-z
y,x,-z
-y,-x,-z
-x,-y,-z
y,-x,1/2-z
x,y,-z
-y,x,1/2-z
-x,y,1/2+z
x,-y,1/2+z
-y,-x,z
y,x,z
loop_
_atom_site_type_symbol
_atom_site_label
_atom_site_fract_x
_atom_site_fract_y
_atom_site_fract_z
Si Si1 0.928053 0.782902 0.500000
Si Si2 0.878417 0.734787 0.000000
Si Si3 0.719066 0.426316 0.149861
Si Si4 0.901043 0.645665 0.730375
O O1 0.877369 0.877369 0.500000
O O2 0.903848 0.729799 0.632314
O O3 0.034137 0.797944 0.500000
O O4 0.869939 0.672558 0.874230
O O5 0.792930 0.792930 0.000000
O O6 0.679501 0.500000 0.250000
O O7 0.668056 0.331945 0.174321
O O8 0.826101 0.419940 0.172350
O O9 0.702834 0.458518 0.000000
O O10 0.000000 0.601654 0.750000
#
# Coordination Sequence:
#
# PCOD8316495 Si02
#       4
#     8   8  16  16
#     4  10  18  33  55  77 116 166 210 256 311 374
#     4  10  20  31  51  85 120 158 208 262 309 362
#     4  11  25  45  69  95 127 168 210 258 317 379
#     4  10  21  38  61  91 122 161 208 256 311 370
#
# _framework density 21.106983
#
# number of rings (size 3 to 8) (size 9 to 14) (size 15 to 20)
#    0.000    1.667    1.667    3.000    2.333    2.000 
#    0.000    3.333    0.000    6.000    0.000    0.000 
#    0.000    0.000    0.000    0.000    0.000    0.000 
#
# Total GULP energy -594957.823994 kJ/mol
# GULP energy per Si atom -12394.954667 kJ/mol
# Density = 2.105894 g / cm^3
# Si number density = 21.106983 Si / 1000 Ang^3
#
#
#
# Elastic Constant Matrix: (Units=GPa)
#
#
# Indices 1 2 3 4 5 6 
#
# 1 73.0956 23.1846 33.1392 0.0000 0.0000 0.0000
# 2 23.1846 73.0956 33.1392 0.0000 0.0000 0.0000
# 3 33.1392 33.1392 167.3930 0.0000 0.0000 0.0000
# 4 0.0000 0.0000 0.0000-3750.2674 0.0000 0.0000
# 5 0.0000 0.0000 0.0000 0.0000-3750.2674 0.0000
# 6 0.0000 0.0000 0.0000 0.0000 0.0000 12.8929
#
#
#
# Elastic Compliance Matrix: (Units=1/GPa)
#
#
# Indices 1 2 3 4 5 6 
#
# 1 0.016030 -0.004005 -0.002381 0.000000 0.000000 0.000000
# 2 -0.004005 0.016030 -0.002381 0.000000 0.000000 0.000000
# 3 -0.002381 -0.002381 0.006917 0.000000 0.000000 0.000000
# 4 0.000000 0.000000 0.000000 -0.000267 0.000000 0.000000
# 5 0.000000 0.000000 0.000000 0.000000 -0.000267 0.000000
# 6 0.000000 0.000000 0.000000 0.000000 0.000000 0.077562
#
#
# Mechanical properties :
#
#
# Convention : Reuss Voigt Hill
#
# Bulk Modulus (GPa) = 46.63239 54.72332 50.67785
# Shear Modulus (GPa) = 35.53979 -1482.58698 -723.52359
#
# Velocity S-wave (km/s) = 4.10786 -26.53187 -18.53464
# Velocity P-wave (km/s) = 6.68136 30.20934 20.83223
#
# Compressibility (1/GPa) = 0.02144432
#
# Stress axis : x y z
#
# Youngs Moduli (GPa) = 62.38139 62.38139 144.58032
#
# Poissons Ratio (x) = 0.24985 0.34420
# Poissons Ratio (y) = 0.24985 0.34420
# Poissons Ratio (z) = 0.14851 0.14851
#
# Static dielectric constant tensor:
#      x y z
#    x 3.659620 0.000000 0.000000 
#    y 0.000000 3.659620 0.000000 
#    z 0.000000 0.000000 4.161950 
# 
# 
# High freq. dielectric constant tensor:
#      x y z
#    x 1.809810 0.000000 0.000000 
#    y 0.000000 1.809810 0.000000 
#    z 0.000000 0.000000 1.854620 
# 
# From -- ./inp_files/2795.got.cif
#   From: 2010.03.12/outbox.cif.g09.slc.cpg/sg132_2_cif.got.tgz:2795.got - 2010.04.06 17:53:44.
