data_PCOD8316742
_publ_section_title
;
Structure prediction by ZEFSAII (Michael W. Deem and Ramdas Pophale) SiO2 
 PCOD8316742
Probable space group: P 42/M C M
;
_chemical_formula_sum "Si O2"
_cell_formula_units_Z 56
_cell_length_a 17.737161
_cell_length_b 17.737161
_cell_length_c 9.186567
_cell_angle_alpha 90.000000
_cell_angle_beta 90.000000
_cell_angle_gamma 90.000000
_cell_volume 2890.157185
_symmetry_space_group_name_H-M "P 42/M C M"
_symmetry_group_IT_number 132
_symmetry_cell_setting 'tetragonal'
loop_
_space_group_symop_operation_xyz
x,y,z
-y,x,1/2+z
-x,-y,z
y,-x,1/2+z
x,-y,1/2-z
-x,y,1/2-z
y,x,-z
-y,-x,-z
-x,-y,-z
y,-x,1/2-z
x,y,-z
-y,x,1/2-z
-x,y,1/2+z
x,-y,1/2+z
-y,-x,z
y,x,z
loop_
_atom_site_type_symbol
_atom_site_label
_atom_site_fract_x
_atom_site_fract_y
_atom_site_fract_z
Si Si1 0.575328 0.191561 0.839545
Si Si2 0.803278 0.196723 0.334419
Si Si3 0.080196 0.703384 0.174645
Si Si4 0.685757 0.685757 0.751707
Si Si5 0.428102 0.571899 0.338368
O O1 0.500000 0.205129 0.750000
O O2 0.624749 0.120979 0.783033
O O3 0.629640 0.264455 0.846211
O O4 0.546022 0.174505 0.000000
O O5 0.825851 0.174150 0.500000
O O6 0.875017 0.226656 0.244802
O O7 0.739210 0.260790 0.346857
O O8 0.000000 0.700597 0.250000
O O9 0.075289 0.714037 0.000000
O O10 0.635176 0.635176 0.857684
O O11 0.396058 0.500000 0.250000
O O12 0.452727 0.547274 0.500000
#
# Coordination Sequence:
#
# PCOD8316742 Si02
#       5
#    16   8  16   8   8
#     4  10  22  37  55  79 109 144 186 234 285 337
#     4  10  20  36  59  87 114 143 180 223 269 324
#     4  10  21  38  59  85 116 151 187 227 273 326
#     4  10  21  35  55  77 102 137 182 230 279 332
#     4  11  23  36  49  68  94 129 173 222 275 330
#
# _framework density 19.376109
#
# number of rings (size 3 to 8) (size 9 to 14) (size 15 to 20)
#    0.000    1.857    0.000    3.857    0.000   15.429 
#    0.000    2.857    0.000    0.429    0.000    3.000 
#    0.000    0.000    0.000    0.000    0.000    0.000 
#
# Total GULP energy -694093.696686 kJ/mol
# GULP energy per Si atom -12394.530298 kJ/mol
# Density = 1.933201 g / cm^3
# Si number density = 19.376109 Si / 1000 Ang^3
#
#
#
# Elastic Constant Matrix: (Units=GPa)
#
#
# Indices 1 2 3 4 5 6 
#
# 1 117.3650 80.0793 49.0052 0.0000 0.0000 0.0000
# 2 80.0793 117.3650 49.0051 0.0000 0.0000 0.0000
# 3 49.0052 49.0051 122.4150 0.0000 0.0000 0.0000
# 4 0.0000 0.0000 0.0000 24.1807 0.0000 0.0000
# 5 0.0000 0.0000 0.0000 0.0000 24.1809 0.0000
# 6 0.0000 0.0000 0.0000 0.0000 0.0000 24.2596
#
#
#
# Elastic Compliance Matrix: (Units=1/GPa)
#
#
# Indices 1 2 3 4 5 6 
#
# 1 0.016570 -0.010250 -0.002530 0.000000 0.000000 0.000000
# 2 -0.010250 0.016570 -0.002530 0.000000 0.000000 0.000000
# 3 -0.002530 -0.002530 0.010195 0.000000 0.000000 0.000000
# 4 0.000000 0.000000 0.000000 0.041355 0.000000 0.000000
# 5 0.000000 0.000000 0.000000 0.000000 0.041355 0.000000
# 6 0.000000 0.000000 0.000000 0.000000 0.000000 0.041221
#
#
# Mechanical properties :
#
#
# Convention : Reuss Voigt Hill
#
# Bulk Modulus (GPa) = 78.64709 79.25825 78.95267
# Shear Modulus (GPa) = 24.73715 26.46129 25.59922
#
# Velocity S-wave (km/s) = 3.57695 3.69950 3.63874
# Velocity P-wave (km/s) = 7.59850 7.69691 7.64786
#
# Compressibility (1/GPa) = 0.01271503
#
# Stress axis : x y z
#
# Youngs Moduli (GPa) = 60.34882 60.34881 98.08912
#
# Poissons Ratio (x) = 0.61855 0.24820
# Poissons Ratio (y) = 0.61855 0.24820
# Poissons Ratio (z) = 0.15270 0.15270
#
# Static dielectric constant tensor:
#      x y z
#    x 3.511180 0.000000 0.000000 
#    y 0.000000 3.511180 0.000000 
#    z 0.000000 0.000000 3.449580 
# 
# 
# High freq. dielectric constant tensor:
#      x y z
#    x 1.747320 0.000000 0.000000 
#    y 0.000000 1.747320 0.000000 
#    z 0.000000 0.000000 1.760420 
# 
# From -- ./inp_files/1038.got.cif
#   From: 2010.03.12/outbox.cif.g09.slc.cpg/sg132_1_cif.got.tgz:1038.got - 2010.04.06 17:53:44.
