data_PCOD8316307
_publ_section_title
;
Structure prediction by ZEFSAII (Michael W. Deem and Ramdas Pophale) SiO2 
 PCOD8316307
Probable space group: P 42/M M C
;
_chemical_formula_sum "Si O2"
_cell_formula_units_Z 56
_cell_length_a 13.208380
_cell_length_b 13.208380
_cell_length_c 18.349086
_cell_angle_alpha 90.000000
_cell_angle_beta 90.000000
_cell_angle_gamma 90.000000
_cell_volume 3201.205438
_symmetry_space_group_name_H-M "P 42/M M C"
_symmetry_group_IT_number 131
_symmetry_cell_setting 'tetragonal'
loop_
_space_group_symop_operation_xyz
x,y,z
-x,-y,z
-y,x,1/2+z
y,-x,1/2+z
-x,y,-z
x,-y,-z
y,x,1/2-z
-y,-x,1/2-z
-x,-y,-z
x,y,-z
y,-x,1/2-z
-y,x,1/2-z
x,-y,z
-x,y,z
-y,-x,1/2+z
y,x,1/2+z
loop_
_atom_site_type_symbol
_atom_site_label
_atom_site_fract_x
_atom_site_fract_y
_atom_site_fract_z
Si Si1 0.230335 0.801579 0.415781
Si Si2 0.114633 0.617963 0.812063
Si Si3 0.111472 0.000000 0.586305
Si Si4 0.881575 0.385046 0.645383
O O1 0.260529 0.814352 0.500000
O O2 0.330299 0.804957 0.366089
O O3 0.163715 0.896261 0.387449
O O4 0.174904 0.694259 0.406438
O O5 0.125518 0.500000 0.825055
O O6 0.140978 0.644949 0.728779
O O7 0.000000 0.652757 0.830540
O O8 0.105655 0.000000 0.500000
O O9 0.000000 0.000000 0.621158
O O10 0.844068 0.500000 0.629198
O O11 0.000000 0.377979 0.628587
#
# Coordination Sequence:
#
# PCOD8316307 Si02
#       4
#    16  16   8  16
#     4  11  20  31  50  76 107 138 169 213 262 312
#     4   9  18  34  54  74 100 134 174 218 259 308
#     4   9  18  30  43  67 105 143 167 192 246 310
#     4   9  19  35  54  74  99 138 182 219 255 300
#
# _framework density 17.493410000000001
#
# number of rings (size 3 to 8) (size 9 to 14) (size 15 to 20)
#    0.000    2.429    1.429    3.429    0.000    2.857 
#    0.000    2.857    0.000    0.857    0.000    6.000 
#    0.000    0.000    0.000    0.000    0.000    0.000 
#
# Total GULP energy -694298.908085 kJ/mol
# GULP energy per Si atom -12398.194787 kJ/mol
# Density = 1.745359 g / cm^3
# Si number density = 17.493410 Si / 1000 Ang^3
#
#
#
# Elastic Constant Matrix: (Units=GPa)
#
#
# Indices 1 2 3 4 5 6 
#
# 1 64.6845 22.5466 22.2435 0.0000 0.0000 0.0000
# 2 22.5466 64.6845 22.2435 0.0000 0.0000 0.0000
# 3 22.2435 22.2435 50.5483 0.0000 0.0000 0.0000
# 4 0.0000 0.0000 0.0000 25.9216 0.0000 0.0000
# 5 0.0000 0.0000 0.0000 0.0000 25.9216 0.0000
# 6 0.0000 0.0000 0.0000 0.0000 0.0000 25.6576
#
#
#
# Elastic Compliance Matrix: (Units=1/GPa)
#
#
# Indices 1 2 3 4 5 6 
#
# 1 0.019256 -0.004475 -0.006504 0.000000 0.000000 0.000000
# 2 -0.004475 0.019256 -0.006504 0.000000 0.000000 0.000000
# 3 -0.006504 -0.006504 0.025507 0.000000 0.000000 0.000000
# 4 0.000000 0.000000 0.000000 0.038578 0.000000 0.000000
# 5 0.000000 0.000000 0.000000 0.000000 0.038578 0.000000
# 6 0.000000 0.000000 0.000000 0.000000 0.000000 0.038975
#
#
# Mechanical properties :
#
#
# Convention : Reuss Voigt Hill
#
# Bulk Modulus (GPa) = 34.42084 34.88717 34.65400
# Shear Modulus (GPa) = 22.24177 23.02573 22.63375
#
# Velocity S-wave (km/s) = 3.56959 3.63195 3.60091
# Velocity P-wave (km/s) = 6.05875 6.12980 6.09438
#
# Compressibility (1/GPa) = 0.02905217
#
# Stress axis : x y z
#
# Youngs Moduli (GPa) = 51.93116 51.93116 39.20431
#
# Poissons Ratio (x) = 0.23241 0.25500
# Poissons Ratio (y) = 0.23241 0.25500
# Poissons Ratio (z) = 0.33777 0.33777
#
# Static dielectric constant tensor:
#      x y z
#    x 3.153770 0.000000 0.000000 
#    y 0.000000 3.153770 0.000000 
#    z 0.000000 0.000000 3.124450 
# 
# 
# High freq. dielectric constant tensor:
#      x y z
#    x 1.664170 0.000000 0.000000 
#    y 0.000000 1.664170 0.000000 
#    z 0.000000 0.000000 1.669430 
# 
# From -- ./inp_files/8985.got.cif
#   From: 2010.03.12/outbox.cif.g09.slc.cpg/sg131_5_cif.got.tgz:8985.got - 2010.04.06 17:36:35.
