data_PCOD8316929
_publ_section_title
;
Structure prediction by ZEFSAII (Michael W. Deem and Ramdas Pophale) SiO2 
 PCOD8316929
Probable space group: P 42/N B C
;
_chemical_formula_sum "Si O2"
_cell_formula_units_Z 96
_cell_length_a 14.704525
_cell_length_b 14.704525
_cell_length_c 22.889464
_cell_angle_alpha 90.000000
_cell_angle_beta 90.000000
_cell_angle_gamma 90.000000
_cell_volume 4949.229844
_symmetry_space_group_name_H-M "P 42/N B C"
_symmetry_group_IT_number 133
_space_group.IT_coordinate_system_code '2'
_symmetry_cell_setting 'tetragonal'
loop_
_space_group_symop_operation_xyz
x,y,z
1/2-y,x,1/2+z
1/2-x,1/2-y,z
y,1/2-x,1/2+z
x,1/2-y,-z
1/2-x,y,-z
y,x,1/2-z
1/2-y,1/2-x,1/2-z
-x,-y,-z
1/2+y,-x,1/2-z
1/2+x,1/2+y,-z
-y,1/2+x,1/2-z
-x,1/2+y,z
1/2+x,-y,z
-y,-x,1/2+z
1/2+y,1/2+x,1/2+z
loop_
_atom_site_type_symbol
_atom_site_label
_atom_site_fract_x
_atom_site_fract_y
_atom_site_fract_z
Si Si1 0.475447 0.763747 0.069038
Si Si2 0.574034 0.079537 0.131476
Si Si3 0.802704 0.828867 0.561018
Si Si4 0.996277 0.260925 0.563458
Si Si5 0.939927 0.088906 0.626161
Si Si6 0.849280 0.363956 0.752050
O O1 0.461523 0.669188 0.100585
O O2 0.574168 0.796895 0.091635
O O3 0.410056 0.844748 0.090437
O O4 0.464476 0.750000 0.000000
O O5 0.588640 0.097336 0.199504
O O6 0.671424 0.060864 0.103235
O O7 0.505517 0.995127 0.122766
O O8 0.750000 0.750000 0.598072
O O9 0.750000 0.838337 0.500000
O O10 0.905810 0.802710 0.550994
O O11 0.948524 0.250000 0.500000
O O12 0.003548 0.164698 0.596274
O O13 0.918716 0.116760 0.691989
O O14 0.875761 0.258329 0.757150
#
# Coordination Sequence:
#
# PCOD8316929 Si02
#       6
#    16  16  16  16  16  16
#     4  11  24  40  63  97 136 174 206 264 330 388
#     4  12  25  43  68  96 131 172 223 277 325 390
#     4  10  19  38  62  88 133 177 213 248 312 400
#     4  12  24  39  65 102 134 174 217 265 330 400
#     4  12  25  43  68  96 132 172 223 277 323 393
#     4  11  23  46  70  88 121 175 228 273 339 385
#
# _framework density 19.396958000000001
#
# number of rings (size 3 to 8) (size 9 to 14) (size 15 to 20)
#    0.000    0.667    6.667    2.500    2.333    2.000 
#    0.000    1.667    0.000    0.000    0.000    7.000 
#    0.000    0.000    0.000    0.000    0.000    0.000 
#
# Total GULP energy -1190242.143913 kJ/mol
# GULP energy per Si atom -12398.355666 kJ/mol
# Density = 1.935281 g / cm^3
# Si number density = 19.396958 Si / 1000 Ang^3
#
#
#
# Elastic Constant Matrix: (Units=GPa)
#
#
# Indices 1 2 3 4 5 6 
#
# 1 89.0805 15.1713 38.6322 0.0000 0.0000 0.0000
# 2 15.1713 89.0805 38.6322 0.0000 0.0000 0.0000
# 3 38.6322 38.6322 131.2138 0.0000 0.0000 0.0000
# 4 0.0000 0.0000 0.0000 24.9876 0.0000 0.0000
# 5 0.0000 0.0000 0.0000 0.0000 24.9876 0.0000
# 6 0.0000 0.0000 0.0000 0.0000 0.0000 36.9714
#
#
#
# Elastic Compliance Matrix: (Units=1/GPa)
#
#
# Indices 1 2 3 4 5 6 
#
# 1 0.012900 -0.000630 -0.003612 0.000000 0.000000 0.000000
# 2 -0.000630 0.012900 -0.003612 0.000000 0.000000 0.000000
# 3 -0.003612 -0.003612 0.009748 0.000000 0.000000 0.000000
# 4 0.000000 0.000000 0.000000 0.040020 0.000000 0.000000
# 5 0.000000 0.000000 0.000000 0.000000 0.040020 0.000000
# 6 0.000000 0.000000 0.000000 0.000000 0.000000 0.027048
#
#
# Mechanical properties :
#
#
# Convention : Reuss Voigt Hill
#
# Bulk Modulus (GPa) = 50.40940 54.91626 52.66283
# Shear Modulus (GPa) = 30.31070 31.85193 31.08131
#
# Velocity S-wave (km/s) = 3.95733 4.05669 4.00732
# Velocity P-wave (km/s) = 6.85021 7.09335 6.97284
#
# Compressibility (1/GPa) = 0.01983757
#
# Stress axis : x y z
#
# Youngs Moduli (GPa) = 77.52079 77.52079 102.58218
#
# Poissons Ratio (x) = 0.04887 0.37057
# Poissons Ratio (y) = 0.04887 0.37057
# Poissons Ratio (z) = 0.28004 0.28004
#
# Static dielectric constant tensor:
#      x y z
#    x 3.970150 0.000000 0.000000 
#    y 0.000000 3.970150 0.000000 
#    z 0.000000 0.000000 3.517740 
# 
# 
# High freq. dielectric constant tensor:
#      x y z
#    x 1.768290 0.000000 0.000000 
#    y 0.000000 1.768290 0.000000 
#    z 0.000000 0.000000 1.745650 
# 
# From -- ./inp_files/6496.got.cif
#   From: 2010.03.12/outbox.cif.g09.slc.cpg/sg133_4_cif.got.tgz:6496.got - 2010.04.06 18:08:06.
