data_PCOD8316578
_publ_section_title
;
Structure prediction by ZEFSAII (Michael W. Deem and Ramdas Pophale) SiO2 
 PCOD8316578
Probable space group: P 42/M C M
;
_chemical_formula_sum "Si O2"
_cell_formula_units_Z 96
_cell_length_a 15.742826
_cell_length_b 15.742826
_cell_length_c 18.992719
_cell_angle_alpha 90.000000
_cell_angle_beta 90.000000
_cell_angle_gamma 90.000000
_cell_volume 4707.090341
_symmetry_space_group_name_H-M "P 42/M C M"
_symmetry_group_IT_number 132
_symmetry_cell_setting 'tetragonal'
loop_
_space_group_symop_operation_xyz
x,y,z
-y,x,1/2+z
-x,-y,z
y,-x,1/2+z
x,-y,1/2-z
-x,y,1/2-z
y,x,-z
-y,-x,-z
-x,-y,-z
y,-x,1/2-z
x,y,-z
-y,x,1/2-z
-x,y,1/2+z
x,-y,1/2+z
-y,-x,z
y,x,z
loop_
_atom_site_type_symbol
_atom_site_label
_atom_site_fract_x
_atom_site_fract_y
_atom_site_fract_z
Si Si1 0.822107 0.953535 0.314948
Si Si2 0.764989 0.097216 0.418997
Si Si3 0.553153 0.081275 0.077631
Si Si4 0.407530 0.270516 0.222904
Si Si5 0.399132 0.200607 0.078143
Si Si6 0.356700 0.089843 0.717700
O O1 0.887041 0.887041 0.350154
O O2 0.744705 0.904872 0.275819
O O3 0.869631 0.000000 0.250000
O O4 0.786272 0.014249 0.374896
O O5 0.777104 0.072654 0.500000
O O6 0.826582 0.173419 0.396453
O O7 0.669099 0.126943 0.402571
O O8 0.492558 0.162308 0.076271
O O9 0.625573 0.095959 0.134523
O O10 0.500000 0.000000 0.100381
O O11 0.594657 0.067917 0.000000
O O12 0.500000 0.301561 0.250000
O O13 0.335236 0.335236 0.252969
O O14 0.400301 0.273568 0.137623
O O15 0.396297 0.171738 0.244254
O O16 0.376321 0.237911 0.000000
O O17 0.391258 0.000000 0.750000
#
# Coordination Sequence:
#
# PCOD8316578 Si02
#       6
#    16  16  16  16  16  16
#     4  11  23  38  56  79 112 158 209 256 303 355
#     4  10  21  37  57  84 119 159 204 253 299 348
#     4  10  19  32  55  88 123 155 189 233 297 374
#     4  12  25  42  65  93 126 163 209 259 310 369
#     4  10  20  37  62  92 122 154 194 246 307 367
#     4  11  23  38  61  89 127 159 195 250 316 379
#
# _framework density 20.394763999999999
#
# number of rings (size 3 to 8) (size 9 to 14) (size 15 to 20)
#    0.000    1.333    1.667    5.500    0.000    4.667 
#    0.000    0.833    0.000    3.000    0.000    1.167 
#    0.000    0.000    0.000    0.000    0.000    0.000 
#
# Total GULP energy -1190083.677740 kJ/mol
# GULP energy per Si atom -12396.704976 kJ/mol
# Density = 2.034834 g / cm^3
# Si number density = 20.394764 Si / 1000 Ang^3
#
#
#
# Elastic Constant Matrix: (Units=GPa)
#
#
# Indices 1 2 3 4 5 6 
#
# 1 76.4275 49.3526 36.3136 0.0000 0.0000 0.0000
# 2 49.3526 76.4275 36.3136 0.0000 0.0000 0.0000
# 3 36.3136 36.3136 107.9220 0.0000 0.0000 0.0000
# 4 0.0000 0.0000 0.0000 23.0257 0.0000 0.0000
# 5 0.0000 0.0000 0.0000 0.0000 23.0257 0.0000
# 6 0.0000 0.0000 0.0000 0.0000 0.0000 25.8735
#
#
#
# Elastic Compliance Matrix: (Units=1/GPa)
#
#
# Indices 1 2 3 4 5 6 
#
# 1 0.023401 -0.013534 -0.003320 0.000000 0.000000 0.000000
# 2 -0.013534 0.023401 -0.003320 0.000000 0.000000 0.000000
# 3 -0.003320 -0.003320 0.011500 0.000000 0.000000 0.000000
# 4 0.000000 0.000000 0.000000 0.043430 0.000000 0.000000
# 5 0.000000 0.000000 0.000000 0.000000 0.043430 0.000000
# 6 0.000000 0.000000 0.000000 0.000000 0.000000 0.038650
#
#
# Mechanical properties :
#
#
# Convention : Reuss Voigt Hill
#
# Bulk Modulus (GPa) = 55.69638 56.08182 55.88910
# Shear Modulus (GPa) = 21.72550 23.63812 22.68181
#
# Velocity S-wave (km/s) = 3.26736 3.40814 3.33849
# Velocity P-wave (km/s) = 6.45001 6.56088 6.50568
#
# Compressibility (1/GPa) = 0.01795449
#
# Stress axis : x y z
#
# Youngs Moduli (GPa) = 42.73314 42.73314 86.95406
#
# Poissons Ratio (x) = 0.57833 0.28871
# Poissons Ratio (y) = 0.57833 0.28871
# Poissons Ratio (z) = 0.14188 0.14188
#
# Static dielectric constant tensor:
#      x y z
#    x 3.565290 0.000000 0.000000 
#    y 0.000000 3.565290 0.000000 
#    z 0.000000 0.000000 4.007160 
# 
# 
# High freq. dielectric constant tensor:
#      x y z
#    x 1.777570 0.000000 0.000000 
#    y 0.000000 1.777570 0.000000 
#    z 0.000000 0.000000 1.811820 
# 
# From -- ./inp_files/7887.got.cif
#   From: 2010.03.12/outbox.cif.g09.slc.cpg/sg132_4_cif.got.tgz:7887.got - 2010.04.06 17:53:44.
