data_PCOD8316765
_publ_section_title
;
Structure prediction by ZEFSAII (Michael W. Deem and Ramdas Pophale) SiO2 
 PCOD8316765
Probable space group: P 42/M C M
;
_chemical_formula_sum "Si O2"
_cell_formula_units_Z 104
_cell_length_a 17.626072
_cell_length_b 17.626072
_cell_length_c 18.302121
_cell_angle_alpha 90.000000
_cell_angle_beta 90.000000
_cell_angle_gamma 90.000000
_cell_volume 5686.073928
_symmetry_space_group_name_H-M "P 42/M C M"
_symmetry_group_IT_number 132
_symmetry_cell_setting 'tetragonal'
loop_
_space_group_symop_operation_xyz
x,y,z
-y,x,1/2+z
-x,-y,z
y,-x,1/2+z
x,-y,1/2-z
-x,y,1/2-z
y,x,-z
-y,-x,-z
-x,-y,-z
y,-x,1/2-z
x,y,-z
-y,x,1/2-z
-x,y,1/2+z
x,-y,1/2+z
-y,-x,z
y,x,z
loop_
_atom_site_type_symbol
_atom_site_label
_atom_site_fract_x
_atom_site_fract_y
_atom_site_fract_z
Si Si1 0.681139 0.554347 0.414481
Si Si2 0.558784 0.558784 0.913681
Si Si3 0.094621 0.779898 0.082935
Si Si4 0.955413 0.348530 0.822262
Si Si5 0.121381 0.994833 0.671154
Si Si6 0.062457 0.434929 0.918827
Si Si7 0.828609 0.471745 0.173021
O O1 0.701715 0.554936 0.500000
O O2 0.622906 0.622906 0.396829
O O3 0.643097 0.471898 0.391683
O O4 0.758890 0.567433 0.369912
O O5 0.500000 0.500000 0.877733
O O6 0.552368 0.552368 0.000000
O O7 0.168944 0.831057 0.092261
O O8 0.100830 0.712780 0.141442
O O9 0.018131 0.825542 0.103713
O O10 0.087664 0.749974 0.000000
O O11 0.899980 0.418517 0.806617
O O12 0.000000 0.322043 0.750000
O O13 0.022863 0.364307 0.879523
O O14 0.051870 0.051870 0.678073
O O15 0.164656 0.000000 0.750000
O O16 0.089703 0.910298 0.655107
O O17 0.138346 0.460125 0.876219
O O18 0.000000 0.500000 0.922415
O O19 0.087689 0.410599 0.000000
O O20 0.795407 0.500000 0.250000
#
# Coordination Sequence:
#
# PCOD8316765 Si02
#       7
#    16   8  16  16  16  16  16
#     4   9  18  34  58  87 118 151 186 225 273 331
#     4   7  12  28  54  80 108 146 185 219 262 320
#     4  10  21  34  50  78 110 138 175 221 273 332
#     4  11  21  36  56  73 104 145 179 226 282 334
#     4   8  14  27  48  73 101 133 171 212 253 305
#     4   9  18  32  54  79 100 130 176 226 268 317
#     4  11  21  35  54  80 110 140 180 229 275 322
#
# _framework density 18.290299000000001
#
# number of rings (size 3 to 8) (size 9 to 14) (size 15 to 20)
#    0.000    2.538    1.538    2.769    0.000    2.769 
#    1.385    3.077    0.000    0.000    2.000    0.000 
#    0.000    0.000    0.000    0.000    0.000    0.000 
#
# Total GULP energy -1288401.536751 kJ/mol
# GULP energy per Si atom -12388.476315 kJ/mol
# Density = 1.824867 g / cm^3
# Si number density = 18.290299 Si / 1000 Ang^3
#
#
#
# Elastic Constant Matrix: (Units=GPa)
#
#
# Indices 1 2 3 4 5 6 
#
# 1 64.4050 20.6739 38.2937 0.0000 0.0000 0.0000
# 2 20.6739 64.4050 38.2937 0.0000 0.0000 0.0000
# 3 38.2937 38.2937 126.9531 0.0000 0.0000 0.0000
# 4 0.0000 0.0000 0.0000 25.6262 0.0000 0.0000
# 5 0.0000 0.0000 0.0000 0.0000 25.6262 0.0000
# 6 0.0000 0.0000 0.0000 0.0000 0.0000 16.4298
#
#
#
# Elastic Compliance Matrix: (Units=1/GPa)
#
#
# Indices 1 2 3 4 5 6 
#
# 1 0.019501 -0.003366 -0.004867 0.000000 0.000000 0.000000
# 2 -0.003366 0.019501 -0.004867 0.000000 0.000000 0.000000
# 3 -0.004867 -0.004867 0.010813 0.000000 0.000000 0.000000
# 4 0.000000 0.000000 0.000000 0.039023 0.000000 0.000000
# 5 0.000000 0.000000 0.000000 0.000000 0.039023 0.000000
# 6 0.000000 0.000000 0.000000 0.000000 0.000000 0.060865
#
#
# Mechanical properties :
#
#
# Convention : Reuss Voigt Hill
#
# Bulk Modulus (GPa) = 42.34546 50.03175 46.18860
# Shear Modulus (GPa) = 22.44201 24.10323 23.27262
#
# Velocity S-wave (km/s) = 3.50664 3.63411 3.57094
# Velocity P-wave (km/s) = 6.29265 6.70989 6.50462
#
# Compressibility (1/GPa) = 0.02361528
#
# Stress axis : x y z
#
# Youngs Moduli (GPa) = 51.27953 51.27953 92.48148
#
# Poissons Ratio (x) = 0.17261 0.45010
# Poissons Ratio (y) = 0.17261 0.45010
# Poissons Ratio (z) = 0.24957 0.24957
#
# Static dielectric constant tensor:
#      x y z
#    x 3.261400 0.000000 0.000000 
#    y 0.000000 3.261400 0.000000 
#    z 0.000000 0.000000 3.423530 
# 
# 
# High freq. dielectric constant tensor:
#      x y z
#    x 1.687990 0.000000 0.000000 
#    y 0.000000 1.687990 0.000000 
#    z 0.000000 0.000000 1.710360 
# 
# From -- ./inp_files/6572.got.cif
#   From: 2010.03.12/outbox.cif.g09.slc.cpg/sg132_4_cif.got.tgz:6572.got - 2010.04.06 17:53:44.
