data_PCOD8316522
_publ_section_title
;
Structure prediction by ZEFSAII (Michael W. Deem and Ramdas Pophale) SiO2 
 PCOD8316522
Probable space group: P 42/M C M
;
_chemical_formula_sum "Si O2"
_cell_formula_units_Z 80
_cell_length_a 27.569714
_cell_length_b 27.569714
_cell_length_c 7.849113
_cell_angle_alpha 90.000000
_cell_angle_beta 90.000000
_cell_angle_gamma 90.000000
_cell_volume 5966.025472
_symmetry_space_group_name_H-M "P 42/M C M"
_symmetry_group_IT_number 132
_symmetry_cell_setting 'tetragonal'
loop_
_space_group_symop_operation_xyz
x,y,z
-y,x,1/2+z
-x,-y,z
y,-x,1/2+z
x,-y,1/2-z
-x,y,1/2-z
y,x,-z
-y,-x,-z
-x,-y,-z
y,-x,1/2-z
x,y,-z
-y,x,1/2-z
-x,y,1/2+z
x,-y,1/2+z
-y,-x,z
y,x,z
loop_
_atom_site_type_symbol
_atom_site_label
_atom_site_fract_x
_atom_site_fract_y
_atom_site_fract_z
Si Si1 0.446510 0.633815 0.195819
Si Si2 0.722936 0.195668 0.187921
Si Si3 0.126265 0.203979 0.196264
Si Si4 0.682662 0.398496 0.500000
Si Si5 0.868601 0.054735 0.199223
Si Si6 0.759896 0.322110 0.500000
O O1 0.500000 0.617350 0.250000
O O2 0.413329 0.586671 0.217872
O O3 0.429674 0.676089 0.326497
O O4 0.444541 0.652966 0.000000
O O5 0.766084 0.233917 0.212134
O O6 0.746312 0.141727 0.208242
O O7 0.682578 0.206672 0.331115
O O8 0.699146 0.199854 0.000000
O O9 0.160710 0.160710 0.261988
O O10 0.071852 0.184678 0.232979
O O11 0.134194 0.215290 0.000000
O O12 0.644154 0.355847 0.500000
O O13 0.736460 0.375678 0.500000
O O14 0.911835 0.088166 0.277752
O O15 0.878688 0.000000 0.250000
O O16 0.868281 0.059844 0.000000
O O17 0.718337 0.281664 0.500000
#
# Coordination Sequence:
#
# PCOD8316522 Si02
#       6
#    16  16  16   8  16   8
#     4  10  19  30  44  59  75  99 132 170 212 250
#     4   9  15  23  37  56  75  94 116 141 175 223
#     4   9  15  25  40  55  71  89 112 144 183 225
#     4   9  18  30  41  56  79 100 124 159 199 241
#     4  10  20  31  41  53  68  89 119 155 198 243
#     4   9  16  26  38  55  78  99 117 144 184 230
#
# _framework density 13.409262
#
# number of rings (size 3 to 8) (size 9 to 14) (size 15 to 20)
#    0.000    2.600    2.000    1.200    0.000    4.800 
#    0.000    6.000    0.000    0.000    0.000    0.000 
#    0.000    0.000    0.000    0.000    0.000    0.000 
#
# Total GULP energy -991352.509818 kJ/mol
# GULP energy per Si atom -12391.906373 kJ/mol
# Density = 1.337874 g / cm^3
# Si number density = 13.409262 Si / 1000 Ang^3
#
#
#
# Elastic Constant Matrix: (Units=GPa)
#
#
# Indices 1 2 3 4 5 6 
#
# 1 43.0535 41.8301 33.7930 0.0000 0.0000 0.0000
# 2 41.8301 43.0537 33.7931 0.0000 0.0000 0.0000
# 3 33.7930 33.7931 105.0717 0.0000 0.0000 0.0000
# 4 0.0000 0.0000 0.0000 13.9074 0.0000 0.0000
# 5 0.0000 0.0000 0.0000 0.0000 13.9074 0.0000
# 6 0.0000 0.0000 0.0000 0.0000 0.0000 16.0801
#
#
#
# Elastic Compliance Matrix: (Units=1/GPa)
#
#
# Indices 1 2 3 4 5 6 
#
# 1 0.416577 -0.400740 -0.005093 0.000000 0.000000 0.000000
# 2 -0.400740 0.416576 -0.005093 0.000000 0.000000 0.000000
# 3 -0.005093 -0.005093 0.012793 0.000000 0.000000 0.000000
# 4 0.000000 0.000000 0.000000 0.071904 0.000000 0.000000
# 5 0.000000 0.000000 0.000000 0.000000 0.071904 0.000000
# 6 0.000000 0.000000 0.000000 0.000000 0.000000 0.062189
#
#
# Mechanical properties :
#
#
# Convention : Reuss Voigt Hill
#
# Bulk Modulus (GPa) = 41.50598 45.55681 43.53140
# Shear Modulus (GPa) = 2.65699 14.22982 8.44341
#
# Velocity S-wave (km/s) = 1.40917 3.26113 2.51204
# Velocity P-wave (km/s) = 5.80242 6.94463 6.39906
#
# Compressibility (1/GPa) = 0.02409291
#
# Stress axis : x y z
#
# Youngs Moduli (GPa) = 2.40051 2.40052 78.16505
#
# Poissons Ratio (x) = 0.96199 0.39811
# Poissons Ratio (y) = 0.96198 0.39811
# Poissons Ratio (z) = 0.01223 0.01223
#
# Static dielectric constant tensor:
#      x y z
#    x 2.465940 0.000000 0.000000 
#    y 0.000000 2.465940 0.000000 
#    z 0.000000 0.000000 2.909400 
# 
# 
# High freq. dielectric constant tensor:
#      x y z
#    x 1.466770 0.000000 0.000000 
#    y 0.000000 1.466770 0.000000 
#    z 0.000000 0.000000 1.534630 
# 
# From -- ./inp_files/1600.got.cif
#   From: 2010.03.12/outbox.cif.g09.slc.cpg/sg132_1_cif.got.tgz:1600.got - 2010.04.06 17:53:44.
