data_PCOD8316015
_publ_section_title
;
Structure prediction by ZEFSAII (Michael W. Deem and Ramdas Pophale) SiO2 
 PCOD8316015
Probable space group: P 42/M M C
;
_chemical_formula_sum "Si O2"
_cell_formula_units_Z 64
_cell_length_a 11.030905
_cell_length_b 11.030905
_cell_length_c 27.560713
_cell_angle_alpha 90.000000
_cell_angle_beta 90.000000
_cell_angle_gamma 90.000000
_cell_volume 3353.611401
_symmetry_space_group_name_H-M "P 42/M M C"
_symmetry_group_IT_number 131
_symmetry_cell_setting 'tetragonal'
loop_
_space_group_symop_operation_xyz
x,y,z
-x,-y,z
-y,x,1/2+z
y,-x,1/2+z
-x,y,-z
x,-y,-z
y,x,1/2-z
-y,-x,1/2-z
-x,-y,-z
x,y,-z
y,-x,1/2-z
-y,x,1/2-z
x,-y,z
-x,y,z
-y,-x,1/2+z
y,x,1/2+z
loop_
_atom_site_type_symbol
_atom_site_label
_atom_site_fract_x
_atom_site_fract_y
_atom_site_fract_z
Si Si1 0.638017 0.759725 0.794050
Si Si2 0.783224 0.000000 0.946444
Si Si3 0.638790 0.366188 0.608452
Si Si4 0.259307 0.132973 0.445092
Si Si5 0.000000 0.357122 0.347925
O O1 0.725786 0.725786 0.750000
O O2 0.500000 0.776170 0.775215
O O3 0.644689 0.653308 0.833755
O O4 0.688856 0.882224 0.818818
O O5 0.870958 0.885271 0.942350
O O6 0.685649 0.000000 0.903384
O O7 0.718060 0.000000 0.000000
O O8 0.692656 0.500000 0.592321
O O9 0.500000 0.362607 0.594067
O O10 0.699576 0.250820 0.583978
O O11 0.306375 0.147810 0.500000
O O12 0.304639 0.000000 0.425118
O O13 0.000000 0.500000 0.350714
#
# Coordination Sequence:
#
# PCOD8316015 Si02
#       5
#    16   8  16  16   8
#     4  10  20  37  59  82 112 149 190 237 293 350
#     4  10  19  35  60  87 116 154 196 238 295 357
#     4  10  21  37  58  84 113 149 196 244 289 344
#     4  10  21  37  58  84 116 154 193 235 290 355
#     4  10  20  36  59  88 118 148 190 251 302 348
#
# _framework density 19.083905000000001
#
# number of rings (size 3 to 8) (size 9 to 14) (size 15 to 20)
#    0.000    2.000    2.500    1.125    0.000    4.500 
#    2.250    5.000    0.000    0.000    0.000    0.000 
#    0.000    0.000    0.000    0.000    0.000    0.000 
#
# Total GULP energy -792932.630526 kJ/mol
# GULP energy per Si atom -12389.572352 kJ/mol
# Density = 1.904047 g / cm^3
# Si number density = 19.083905 Si / 1000 Ang^3
#
#
#
# Elastic Constant Matrix: (Units=GPa)
#
#
# Indices 1 2 3 4 5 6 
#
# 1 107.4042 42.0538 54.5917 0.0000 0.0000 0.0000
# 2 42.0538 107.4042 54.5917 0.0000 0.0000 0.0000
# 3 54.5917 54.5917 110.8656 0.0000 0.0000 0.0000
# 4 0.0000 0.0000 0.0000 26.2966 0.0000 0.0000
# 5 0.0000 0.0000 0.0000 0.0000 26.2966 0.0000
# 6 0.0000 0.0000 0.0000 0.0000 0.0000 20.0572
#
#
#
# Elastic Compliance Matrix: (Units=1/GPa)
#
#
# Indices 1 2 3 4 5 6 
#
# 1 0.012876 -0.002426 -0.005146 0.000000 0.000000 0.000000
# 2 -0.002426 0.012876 -0.005146 0.000000 0.000000 0.000000
# 3 -0.005146 -0.005146 0.014088 0.000000 0.000000 0.000000
# 4 0.000000 0.000000 0.000000 0.038028 0.000000 0.000000
# 5 0.000000 0.000000 0.000000 0.000000 0.038028 0.000000
# 6 0.000000 0.000000 0.000000 0.000000 0.000000 0.049858
#
#
# Mechanical properties :
#
#
# Convention : Reuss Voigt Hill
#
# Bulk Modulus (GPa) = 69.42203 69.79425 69.60814
# Shear Modulus (GPa) = 25.51165 26.15920 25.83542
#
# Velocity S-wave (km/s) = 3.66021 3.70638 3.68337
# Velocity P-wave (km/s) = 7.37015 7.41404 7.39213
#
# Compressibility (1/GPa) = 0.01440465
#
# Stress axis : x y z
#
# Youngs Moduli (GPa) = 77.66375 77.66375 70.98483
#
# Poissons Ratio (x) = 0.18842 0.36526
# Poissons Ratio (y) = 0.18842 0.36526
# Poissons Ratio (z) = 0.39963 0.39963
#
# Static dielectric constant tensor:
#      x y z
#    x 3.592540 0.000000 0.000000 
#    y 0.000000 3.592540 0.000000 
#    z 0.000000 0.000000 3.380130 
# 
# 
# High freq. dielectric constant tensor:
#      x y z
#    x 1.741010 0.000000 0.000000 
#    y 0.000000 1.741010 0.000000 
#    z 0.000000 0.000000 1.728180 
# 
# From -- ./inp_files/10809.got.cif
#   From: 2010.03.12/outbox.cif.g09.slc.cpg/sg131_6_cif.got.tgz:10809.got - 2010.04.06 17:36:35.
