data_PCOD8316912
_publ_section_title
;
Structure prediction by ZEFSAII (Michael W. Deem and Ramdas Pophale) SiO2 
 PCOD8316912
Probable space group: P 42/N B C
;
_chemical_formula_sum "Si O2"
_cell_formula_units_Z 84
_cell_length_a 24.471963
_cell_length_b 24.471963
_cell_length_c 7.885823
_cell_angle_alpha 90.000000
_cell_angle_beta 90.000000
_cell_angle_gamma 90.000000
_cell_volume 4722.637808
_symmetry_space_group_name_H-M "P 42/N B C"
_symmetry_group_IT_number 133
_space_group.IT_coordinate_system_code '2'
_symmetry_cell_setting 'tetragonal'
loop_
_space_group_symop_operation_xyz
x,y,z
1/2-y,x,1/2+z
1/2-x,1/2-y,z
y,1/2-x,1/2+z
x,1/2-y,-z
1/2-x,y,-z
y,x,1/2-z
1/2-y,1/2-x,1/2-z
-x,-y,-z
1/2+y,-x,1/2-z
1/2+x,1/2+y,-z
-y,1/2+x,1/2-z
-x,1/2+y,z
1/2+x,-y,z
-y,-x,1/2+z
1/2+y,1/2+x,1/2+z
loop_
_atom_site_type_symbol
_atom_site_label
_atom_site_fract_x
_atom_site_fract_y
_atom_site_fract_z
Si Si1 0.686245 0.898601 0.303591
Si Si2 0.250000 0.750000 0.250000
Si Si3 0.188452 0.904856 0.057993
Si Si4 0.525040 0.814683 0.501432
Si Si5 0.100664 0.185538 0.806495
Si Si6 0.300853 0.644105 0.399866
O O1 0.657802 0.842199 0.250000
O O2 0.671619 0.915455 0.498158
O O3 0.750462 0.888555 0.284284
O O4 0.665259 0.944437 0.170039
O O5 0.285906 0.706683 0.353270
O O6 0.188995 0.901148 0.259316
O O7 0.250000 0.894836 0.000000
O O8 0.147720 0.856814 0.002611
O O9 0.163367 0.962817 0.999723
O O10 0.522505 0.750000 0.500000
O O11 0.553484 0.834837 0.675990
O O12 0.156273 0.156273 0.750000
O O13 0.250000 0.618511 0.500000
#
# Coordination Sequence:
#
# PCOD8316912 Si02
#       6
#    16   4  16  16  16  16
#     4  10  19  33  53  81 111 141 182 219 262 326
#     4  12  18  28  50  76 114 132 182 196 250 336
#     4  11  20  35  50  76 109 143 172 220 266 323
#     4   9  20  36  50  74 112 143 181 221 264 317
#     4  10  19  33  55  79 110 146 175 220 272 315
#     4  12  20  32  53  77 106 143 176 211 266 327
#
# _framework density 17.786670000000001
#
# number of rings (size 3 to 8) (size 9 to 14) (size 15 to 20)
#    0.000    1.524    5.714    0.286    0.000    0.381 
#   13.714    1.905    0.000    0.000    0.000    4.000 
#    0.000    0.000    0.000    0.000    0.000    0.000 
#
# Total GULP energy -1040995.133516 kJ/mol
# GULP energy per Si atom -12392.799209 kJ/mol
# Density = 1.774619 g / cm^3
# Si number density = 17.786670 Si / 1000 Ang^3
#
#
#
# Elastic Constant Matrix: (Units=GPa)
#
#
# Indices 1 2 3 4 5 6 
#
# 1 75.9925 32.0197 48.6883 0.0000 0.0000 0.0000
# 2 32.0197 75.9982 48.6879 0.0000 0.0000 0.0000
# 3 48.6883 48.6879 157.2432 0.0000 0.0000 0.0000
# 4 0.0000 0.0000 0.0000 21.0526 0.0000 0.0000
# 5 0.0000 0.0000 0.0000 0.0000 21.0525 0.0000
# 6 0.0000 0.0000 0.0000 0.0000 0.0000 -3.4543
#
#
#
# Elastic Compliance Matrix: (Units=1/GPa)
#
#
# Indices 1 2 3 4 5 6 
#
# 1 0.017792 -0.004948 -0.003977 0.000000 0.000000 0.000000
# 2 -0.004948 0.017791 -0.003976 0.000000 0.000000 0.000000
# 3 -0.003977 -0.003976 0.008822 0.000000 0.000000 0.000000
# 4 0.000000 0.000000 0.000000 0.047500 0.000000 0.000000
# 5 0.000000 0.000000 0.000000 0.000000 0.047500 0.000000
# 6 0.000000 0.000000 0.000000 0.000000 0.000000 -0.289493
#
#
# Mechanical properties :
#
#
# Convention : Reuss Voigt Hill
#
# Bulk Modulus (GPa) = 53.75903 63.11396 58.43649
# Shear Modulus (GPa) = -42.34279 19.71936 -11.31171
#
# Velocity S-wave (km/s) = -4.88442 3.33327 -2.52457
# Velocity P-wave (km/s) = 1.23295 7.09754 4.94241
#
# Compressibility (1/GPa) = 0.01860153
#
# Stress axis : x y z
#
# Youngs Moduli (GPa) = 56.20421 56.20965 113.35068
#
# Poissons Ratio (x) = 0.27815 0.45079
# Poissons Ratio (y) = 0.27813 0.45072
# Poissons Ratio (z) = 0.22352 0.22351
#
# Static dielectric constant tensor:
#      x y z
#    x 3.120160 0.000000 0.000000 
#    y 0.000000 3.120160 0.000000 
#    z 0.000000 0.000000 3.791270 
# 
# 
# High freq. dielectric constant tensor:
#      x y z
#    x 1.656880 0.000000 0.000000 
#    y 0.000000 1.656880 0.000000 
#    z 0.000000 0.000000 1.710750 
# 
# From -- ./inp_files/1845.got.cif
#   From: 2010.03.12/outbox.cif.g09.slc.cpg/sg133_1_cif.got.tgz:1845.got - 2010.04.06 18:08:06.
