data_PCOD8316884
_publ_section_title
;
Structure prediction by ZEFSAII (Michael W. Deem and Ramdas Pophale) SiO2 
 PCOD8316884
Probable space group: P 42/N B C
;
_chemical_formula_sum "Si O2"
_cell_formula_units_Z 112
_cell_length_a 20.030720
_cell_length_b 20.030720
_cell_length_c 18.443335
_cell_angle_alpha 90.000000
_cell_angle_beta 90.000000
_cell_angle_gamma 90.000000
_cell_volume 7400.014575
_symmetry_space_group_name_H-M "P 42/N B C"
_symmetry_group_IT_number 133
_space_group.IT_coordinate_system_code '2'
_symmetry_cell_setting 'tetragonal'
loop_
_space_group_symop_operation_xyz
x,y,z
1/2-y,x,1/2+z
1/2-x,1/2-y,z
y,1/2-x,1/2+z
x,1/2-y,-z
1/2-x,y,-z
y,x,1/2-z
1/2-y,1/2-x,1/2-z
-x,-y,-z
1/2+y,-x,1/2-z
1/2+x,1/2+y,-z
-y,1/2+x,1/2-z
-x,1/2+y,z
1/2+x,-y,z
-y,-x,1/2+z
1/2+y,1/2+x,1/2+z
loop_
_atom_site_type_symbol
_atom_site_label
_atom_site_fract_x
_atom_site_fract_y
_atom_site_fract_z
Si Si1 0.907192 0.109684 0.621692
Si Si2 0.672810 0.038930 0.500246
Si Si3 0.018064 0.481375 0.833009
Si Si4 0.552045 0.939447 0.020586
Si Si5 0.173866 0.828303 0.249337
Si Si6 0.486542 0.825224 0.501806
Si Si7 0.097000 0.892267 0.619800
O O1 0.851736 0.069314 0.575999
O O2 0.870895 0.149504 0.684080
O O3 0.937493 0.166165 0.569690
O O4 0.965905 0.060878 0.652947
O O5 0.750000 0.021130 0.500000
O O6 0.658173 0.086551 0.568308
O O7 0.630401 0.971487 0.512487
O O8 0.057159 0.435222 0.891304
O O9 0.042138 0.557868 0.848874
O O10 0.036920 0.463081 0.750000
O O11 0.500000 0.000000 0.000000
O O12 0.624596 0.951497 0.986510
O O13 0.251118 0.840290 0.268293
O O14 0.153981 0.873556 0.181812
O O15 0.512874 0.750000 0.500000
O O16 0.452411 0.845743 0.426295
#
# Coordination Sequence:
#
# PCOD8316884 Si02
#       7
#    16  16  16  16  16  16  16
#     4  10  18  31  46  66  89 118 153 189 230 269
#     4  10  18  30  50  70  89 118 155 192 228 272
#     4  10  16  28  50  66  86 116 144 191 236 267
#     4  10  16  32  48  69  90 117 150 190 233 266
#     4  11  22  31  38  56  92 129 154 183 224 270
#     4  10  18  30  50  70  89 118 155 192 228 272
#     4  10  18  31  46  66  89 118 153 189 230 269
#
# _framework density 15.135104
#
# number of rings (size 3 to 8) (size 9 to 14) (size 15 to 20)
#    0.000    1.857    7.143    1.714    0.000    0.000 
#    0.000    0.000    0.000    7.286    0.000    0.000 
#    0.000    0.000    0.000   11.571    0.000    0.000 
#
# Total GULP energy -1387614.036152 kJ/mol
# GULP energy per Si atom -12389.411037 kJ/mol
# Density = 1.510066 g / cm^3
# Si number density = 15.135104 Si / 1000 Ang^3
#
#
#
# Elastic Constant Matrix: (Units=GPa)
#
#
# Indices 1 2 3 4 5 6 
#
# 1 73.5437 30.4933 6.0867 0.0000 0.0000 0.0000
# 2 30.4933 73.5438 6.0869 0.0000 0.0000 0.0000
# 3 6.0867 6.0869 73.9187 0.0000 0.0000 0.0000
# 4 0.0000 0.0000 0.0000 16.8338 0.0000 0.0000
# 5 0.0000 0.0000 0.0000 0.0000 16.8337 0.0000
# 6 0.0000 0.0000 0.0000 0.0000 0.0000 22.6245
#
#
#
# Elastic Compliance Matrix: (Units=1/GPa)
#
#
# Indices 1 2 3 4 5 6 
#
# 1 0.016467 -0.006762 -0.000799 0.000000 0.000000 0.000000
# 2 -0.006762 0.016467 -0.000799 0.000000 0.000000 0.000000
# 3 -0.000799 -0.000799 0.013660 0.000000 0.000000 0.000000
# 4 0.000000 0.000000 0.000000 0.059404 0.000000 0.000000
# 5 0.000000 0.000000 0.000000 0.000000 0.059405 0.000000
# 6 0.000000 0.000000 0.000000 0.000000 0.000000 0.044200
#
#
# Mechanical properties :
#
#
# Convention : Reuss Voigt Hill
#
# Bulk Modulus (GPa) = 33.47373 34.03778 33.75575
# Shear Modulus (GPa) = 21.16125 23.14767 22.15446
#
# Velocity S-wave (km/s) = 3.74325 3.91500 3.83009
# Velocity P-wave (km/s) = 6.39118 6.55549 6.47386
#
# Compressibility (1/GPa) = 0.02987418
#
# Stress axis : x y z
#
# Youngs Moduli (GPa) = 60.72733 60.72747 73.20643
#
# Poissons Ratio (x) = 0.41061 0.05850
# Poissons Ratio (y) = 0.41061 0.05851
# Poissons Ratio (z) = 0.04853 0.04853
#
# Static dielectric constant tensor:
#      x y z
#    x 2.821370 0.000000 0.000000 
#    y 0.000000 2.821370 0.000000 
#    z 0.000000 0.000000 3.118680 
# 
# 
# High freq. dielectric constant tensor:
#      x y z
#    x 1.557840 0.000000 0.000000 
#    y 0.000000 1.557840 0.000000 
#    z 0.000000 0.000000 1.595970 
# 
# From -- ./inp_files/5709.got.cif
#   From: 2010.03.12/outbox.cif.g09.slc.cpg/sg133_3_cif.got.tgz:5709.got - 2010.04.06 18:08:06.
