data_PCOD8316993
_publ_section_title
;
Structure prediction by ZEFSAII (Michael W. Deem and Ramdas Pophale) SiO2 
 PCOD8316993
Probable space group: P 42/N B C
;
_chemical_formula_sum "Si O2"
_cell_formula_units_Z 92
_cell_length_a 14.223745
_cell_length_b 14.223745
_cell_length_c 20.729547
_cell_angle_alpha 90.000000
_cell_angle_beta 90.000000
_cell_angle_gamma 90.000000
_cell_volume 4193.896681
_symmetry_space_group_name_H-M "P 42/N B C"
_symmetry_group_IT_number 133
_space_group.IT_coordinate_system_code '2'
_symmetry_cell_setting 'tetragonal'
loop_
_space_group_symop_operation_xyz
x,y,z
1/2-y,x,1/2+z
1/2-x,1/2-y,z
y,1/2-x,1/2+z
x,1/2-y,-z
1/2-x,y,-z
y,x,1/2-z
1/2-y,1/2-x,1/2-z
-x,-y,-z
1/2+y,-x,1/2-z
1/2+x,1/2+y,-z
-y,1/2+x,1/2-z
-x,1/2+y,z
1/2+x,-y,z
-y,-x,1/2+z
1/2+y,1/2+x,1/2+z
loop_
_atom_site_type_symbol
_atom_site_label
_atom_site_fract_x
_atom_site_fract_y
_atom_site_fract_z
Si Si1 0.528714 0.031688 0.657929
Si Si2 0.276393 0.449815 0.636891
Si Si3 0.455702 0.594889 0.522049
Si Si4 0.750000 0.250000 0.750000
Si Si5 0.541020 0.250000 0.000000
Si Si6 0.591841 0.750000 0.500000
Si Si7 0.750000 0.750000 0.603699
Si Si8 0.427832 0.859416 0.212814
O O1 0.524406 0.104113 0.598474
O O2 0.543592 0.101215 0.717787
O O3 0.613590 0.961137 0.645999
O O4 0.440605 0.959242 0.662315
O O5 0.244477 0.476370 0.563870
O O6 0.253477 0.341043 0.649164
O O7 0.230050 0.510391 0.693472
O O8 0.500000 0.500000 0.500000
O O9 0.344390 0.604888 0.504470
O O10 0.519499 0.667430 0.484129
O O11 0.677381 0.318058 0.709600
O O12 0.656262 0.738308 0.562035
#
# Coordination Sequence:
#
# PCOD8316993 Si02
#       8
#    16  16  16   4   8   8   8  16
#     4  10  23  44  67  96 138 171 226 284 343 408
#     4  11  22  44  68  97 136 177 223 285 343 411
#     4  11  22  42  65  98 133 179 217 285 348 404
#     4  12  24  48  76  94 128 188 232 276 354 412
#     4  10  22  40  68 100 138 172 226 284 350 408
#     4  11  22  39  64  94 136 177 228 271 352 410
#     4  11  22  38  66  99 130 179 226 277 336 423
#     4  11  23  46  69  98 131 177 228 282 340 420
#
# _framework density 21.936641000000002
#
# number of rings (size 3 to 8) (size 9 to 14) (size 15 to 20)
#    0.000    1.217    1.739    6.261    0.000    0.348 
#   15.652    0.000    0.000    2.087    0.000    0.000 
#    0.000    0.000    0.000    0.000    0.000    0.000 
#
# Total GULP energy -1139958.688900 kJ/mol
# GULP energy per Si atom -12390.855314 kJ/mol
# Density = 2.188671 g / cm^3
# Si number density = 21.936641 Si / 1000 Ang^3
#
#
#
# Elastic Constant Matrix: (Units=GPa)
#
#
# Indices 1 2 3 4 5 6 
#
# 1 128.4286 51.0809 8.1229 0.0000 0.0000 0.0000
# 2 51.0809 128.4286 8.1229 0.0000 0.0000 0.0000
# 3 8.1229 8.1229 43.1012 0.0000 0.0000 0.0000
# 4 0.0000 0.0000 0.0000 26.2323 0.0000 0.0000
# 5 0.0000 0.0000 0.0000 0.0000 26.2323 0.0000
# 6 0.0000 0.0000 0.0000 0.0000 0.0000 40.3521
#
#
#
# Elastic Compliance Matrix: (Units=1/GPa)
#
#
# Indices 1 2 3 4 5 6 
#
# 1 0.009298 -0.003631 -0.001068 0.000000 0.000000 0.000000
# 2 -0.003631 0.009298 -0.001068 0.000000 0.000000 0.000000
# 3 -0.001068 -0.001068 0.023604 0.000000 0.000000 0.000000
# 4 0.000000 0.000000 0.000000 0.038121 0.000000 0.000000
# 5 0.000000 0.000000 0.000000 0.000000 0.038121 0.000000
# 6 0.000000 0.000000 0.000000 0.000000 0.000000 0.024782
#
#
# Mechanical properties :
#
#
# Convention : Reuss Voigt Hill
#
# Bulk Modulus (GPa) = 32.60911 48.29018 40.44965
# Shear Modulus (GPa) = 30.30684 34.07212 32.18948
#
# Velocity S-wave (km/s) = 3.72097 3.94535 3.83480
# Velocity P-wave (km/s) = 5.77566 6.54337 6.17146
#
# Compressibility (1/GPa) = 0.03066628
#
# Stress axis : x y z
#
# Youngs Moduli (GPa) = 107.54984 107.54984 42.36606
#
# Poissons Ratio (x) = 0.39047 0.04525
# Poissons Ratio (y) = 0.39047 0.04525
# Poissons Ratio (z) = 0.11487 0.11487
#
# Static dielectric constant tensor:
#      x y z
#    x 3.996660 0.000000 0.000000 
#    y 0.000000 3.996660 0.000000 
#    z 0.000000 0.000000 4.421410 
# 
# 
# High freq. dielectric constant tensor:
#      x y z
#    x 1.870790 0.000000 0.000000 
#    y 0.000000 1.870790 0.000000 
#    z 0.000000 0.000000 1.848810 
# 
# From -- ./inp_files/6591.got.cif
#   From: 2010.03.12/outbox.cif.g09.slc.cpg/sg133_4_cif.got.tgz:6591.got - 2010.04.06 18:08:06.
