data_PCOD8316287
_publ_section_title
;
Structure prediction by ZEFSAII (Michael W. Deem and Ramdas Pophale) SiO2 
 PCOD8316287
Probable space group: P 42/M M C
;
_chemical_formula_sum "Si O2"
_cell_formula_units_Z 56
_cell_length_a 17.705923
_cell_length_b 17.705923
_cell_length_c 8.889863
_cell_angle_alpha 90.000000
_cell_angle_beta 90.000000
_cell_angle_gamma 90.000000
_cell_volume 2786.969466
_symmetry_space_group_name_H-M "P 42/M M C"
_symmetry_group_IT_number 131
_symmetry_cell_setting 'tetragonal'
loop_
_space_group_symop_operation_xyz
x,y,z
-x,-y,z
-y,x,1/2+z
y,-x,1/2+z
-x,y,-z
x,-y,-z
y,x,1/2-z
-y,-x,1/2-z
-x,-y,-z
x,y,-z
y,-x,1/2-z
-y,x,1/2-z
x,-y,z
-x,y,z
-y,-x,1/2+z
y,x,1/2+z
loop_
_atom_site_type_symbol
_atom_site_label
_atom_site_fract_x
_atom_site_fract_y
_atom_site_fract_z
Si Si1 0.351358 0.853117 0.323360
Si Si2 0.000000 0.587728 0.666463
Si Si3 0.807843 0.915649 0.674992
Si Si4 0.411971 0.701243 0.823125
O O1 0.367981 0.846651 0.500000
O O2 0.392479 0.926325 0.260809
O O3 0.262692 0.861662 0.288704
O O4 0.381008 0.779174 0.241640
O O5 0.000000 0.500000 0.640102
O O6 0.000000 0.626743 0.500000
O O7 0.882595 0.882595 0.750000
O O8 0.823386 0.919853 0.500000
O O9 0.791845 0.000000 0.737935
O O10 0.369392 0.630609 0.750000
O O11 0.500000 0.693067 0.784369
O O12 0.396900 0.700933 0.000000
#
# Coordination Sequence:
#
# PCOD8316287 Si02
#       4
#    16   8  16  16
#     4  11  22  40  64  91 126 165 208 258 314 378
#     4  11  23  37  57  89 128 165 204 253 307 370
#     4  10  22  40  59  85 120 156 202 254 303 362
#     4  11  25  44  66  95 130 167 212 265 319 379
#
# _framework density 20.093509999999998
#
# number of rings (size 3 to 8) (size 9 to 14) (size 15 to 20)
#    0.000    1.286    1.429    3.857    0.000   12.571 
#    0.000    2.857    0.000    0.000    0.000    0.000 
#    0.000    0.000    0.000    0.000    0.000    0.000 
#
# Total GULP energy -694556.570611 kJ/mol
# GULP energy per Si atom -12402.795904 kJ/mol
# Density = 2.004778 g / cm^3
# Si number density = 20.093510 Si / 1000 Ang^3
#
#
#
# Elastic Constant Matrix: (Units=GPa)
#
#
# Indices 1 2 3 4 5 6 
#
# 1 133.7487 98.1140 75.7670 0.0000 0.0000 0.0000
# 2 98.1140 133.7537 75.7691 0.0000 0.0000 0.0000
# 3 75.7670 75.7691 97.8232 0.0000 0.0000 0.0000
# 4 0.0000 0.0000 0.0000 49.7316 0.0000 0.0000
# 5 0.0000 0.0000 0.0000 0.0000 49.7442 0.0000
# 6 0.0000 0.0000 0.0000 0.0000 0.0000 47.1806
#
#
#
# Elastic Compliance Matrix: (Units=1/GPa)
#
#
# Indices 1 2 3 4 5 6 
#
# 1 0.018398 -0.009663 -0.006765 0.000000 0.000000 0.000000
# 2 -0.009663 0.018397 -0.006765 0.000000 0.000000 0.000000
# 3 -0.006765 -0.006765 0.020702 0.000000 0.000000 0.000000
# 4 0.000000 0.000000 0.000000 0.020108 0.000000 0.000000
# 5 0.000000 0.000000 0.000000 0.000000 0.020103 0.000000
# 6 0.000000 0.000000 0.000000 0.000000 0.000000 0.021195
#
#
# Mechanical properties :
#
#
# Convention : Reuss Voigt Hill
#
# Bulk Modulus (GPa) = 90.00527 96.06954 93.03740
# Shear Modulus (GPa) = 29.58720 37.04299 33.31509
#
# Velocity S-wave (km/s) = 3.84145 4.29829 4.07628
# Velocity P-wave (km/s) = 8.03530 8.51756 8.27994
#
# Compressibility (1/GPa) = 0.01111046
#
# Stress axis : x y z
#
# Youngs Moduli (GPa) = 54.35514 54.35637 48.30474
#
# Poissons Ratio (x) = 0.52526 0.32677
# Poissons Ratio (y) = 0.52525 0.32678
# Poissons Ratio (z) = 0.36770 0.36772
#
# Static dielectric constant tensor:
#      x y z
#    x 3.858920 0.000000 0.000000 
#    y 0.000000 3.858930 0.000000 
#    z 0.000000 0.000000 3.798950 
# 
# 
# High freq. dielectric constant tensor:
#      x y z
#    x 1.793600 0.000000 0.000000 
#    y 0.000000 1.793600 0.000000 
#    z 0.000000 0.000000 1.795690 
# 
# From -- ./inp_files/1197.got.cif
#   From: 2010.03.12/outbox.cif.g09.slc.cpg/sg131_1_cif.got.tgz:1197.got - 2010.04.06 17:36:35.
