data_PCOD8316394
_publ_section_title
;
Structure prediction by ZEFSAII (Michael W. Deem and Ramdas Pophale) SiO2 
 PCOD8316394
Probable space group: P 42/M M C
;
_chemical_formula_sum "Si O2"
_cell_formula_units_Z 96
_cell_length_a 18.293860
_cell_length_b 18.293860
_cell_length_c 18.180838
_cell_angle_alpha 90.000000
_cell_angle_beta 90.000000
_cell_angle_gamma 90.000000
_cell_volume 6084.495853
_symmetry_space_group_name_H-M "P 42/M M C"
_symmetry_group_IT_number 131
_symmetry_cell_setting 'tetragonal'
loop_
_space_group_symop_operation_xyz
x,y,z
-x,-y,z
-y,x,1/2+z
y,-x,1/2+z
-x,y,-z
x,-y,-z
y,x,1/2-z
-y,-x,1/2-z
-x,-y,-z
x,y,-z
y,-x,1/2-z
-y,x,1/2-z
x,-y,z
-x,y,z
-y,-x,1/2+z
y,x,1/2+z
loop_
_atom_site_type_symbol
_atom_site_label
_atom_site_fract_x
_atom_site_fract_y
_atom_site_fract_z
Si Si1 0.833234 0.202511 0.415354
Si Si2 0.780222 0.417750 0.643607
Si Si3 0.584755 0.306703 0.285645
Si Si4 0.308318 0.288944 0.415964
Si Si5 0.082332 0.081460 0.163270
Si Si6 0.916724 0.652111 0.414023
O O1 0.837056 0.181000 0.500000
O O2 0.750974 0.226991 0.394228
O O3 0.854755 0.131865 0.369438
O O4 0.891289 0.265782 0.397116
O O5 0.761178 0.500000 0.620546
O O6 0.760447 0.404532 0.729201
O O7 0.732052 0.366815 0.590667
O O8 0.866395 0.403155 0.632570
O O9 0.621191 0.378810 0.250000
O O10 0.500000 0.324031 0.301088
O O11 0.622430 0.283547 0.362202
O O12 0.335212 0.279579 0.500000
O O13 0.086808 0.086808 0.250000
O O14 0.000000 0.095796 0.136067
O O15 0.107163 0.000000 0.137620
O O16 0.907682 0.634027 0.500000
O O17 0.000000 0.642082 0.387954
#
# Coordination Sequence:
#
# PCOD8316394 Si02
#       6
#    16  16  16  16  16  16
#     4   9  17  29  44  62  86 114 145 182 219 257
#     4   9  17  29  44  63  89 118 145 173 208 253
#     4   9  18  32  49  68  90 116 144 177 218 262
#     4   9  18  31  47  67  88 113 146 182 219 259
#     4   9  18  30  42  60  87 117 149 185 225 267
#     4   9  17  27  40  62  90 118 147 177 211 252
#
# _framework density 15.777806
#
# number of rings (size 3 to 8) (size 9 to 14) (size 15 to 20)
#    0.000    3.000    0.000    2.500    0.000    6.833 
#    0.000    1.667    0.000    0.000    0.000    4.667 
#    0.000    0.000    0.000    7.333    0.000    0.000 
#
# Total GULP energy -1190186.758143 kJ/mol
# GULP energy per Si atom -12397.778731 kJ/mol
# Density = 1.574190 g / cm^3
# Si number density = 15.777806 Si / 1000 Ang^3
#
#
#
# Elastic Constant Matrix: (Units=GPa)
#
#
# Indices 1 2 3 4 5 6 
#
# 1 96.2137 45.5670 48.3536 0.0000 0.0000 0.0000
# 2 45.5670 96.2132 48.3536 0.0000 0.0000 0.0000
# 3 48.3536 48.3536 69.3350 0.0000 0.0000 0.0000
# 4 0.0000 0.0000 0.0000 22.6741 0.0000 0.0000
# 5 0.0000 0.0000 0.0000 0.0000 22.6743 0.0000
# 6 0.0000 0.0000 0.0000 0.0000 0.0000 16.5214
#
#
#
# Elastic Compliance Matrix: (Units=1/GPa)
#
#
# Indices 1 2 3 4 5 6 
#
# 1 0.016598 -0.003146 -0.009381 0.000000 0.000000 0.000000
# 2 -0.003146 0.016598 -0.009381 0.000000 0.000000 0.000000
# 3 -0.009381 -0.009381 0.027508 0.000000 0.000000 0.000000
# 4 0.000000 0.000000 0.000000 0.044103 0.000000 0.000000
# 5 0.000000 0.000000 0.000000 0.000000 0.044103 0.000000
# 6 0.000000 0.000000 0.000000 0.000000 0.000000 0.060528
#
#
# Mechanical properties :
#
#
# Convention : Reuss Voigt Hill
#
# Bulk Modulus (GPa) = 59.21921 60.70115 59.96018
# Shear Modulus (GPa) = 19.31358 20.33979 19.82669
#
# Velocity S-wave (km/s) = 3.50251 3.59435 3.54873
# Velocity P-wave (km/s) = 7.34653 7.46873 7.40788
#
# Compressibility (1/GPa) = 0.01688641
#
# Stress axis : x y z
#
# Youngs Moduli (GPa) = 60.24699 60.24651 36.35351
#
# Poissons Ratio (x) = 0.18955 0.34104
# Poissons Ratio (y) = 0.18956 0.34105
# Poissons Ratio (z) = 0.56520 0.56520
#
# Static dielectric constant tensor:
#      x y z
#    x 2.986090 0.000000 0.000000 
#    y 0.000000 2.986090 0.000000 
#    z 0.000000 0.000000 2.890010 
# 
# 
# High freq. dielectric constant tensor:
#      x y z
#    x 1.597320 0.000000 0.000000 
#    y 0.000000 1.597320 0.000000 
#    z 0.000000 0.000000 1.596380 
# 
# From -- ./inp_files/7931.got.cif
#   From: 2010.03.12/outbox.cif.g09.slc.cpg/sg131_4_cif.got.tgz:7931.got - 2010.04.06 17:36:35.
