data_PCOD8316708
_publ_section_title
;
Structure prediction by ZEFSAII (Michael W. Deem and Ramdas Pophale) SiO2 
 PCOD8316708
Probable space group: P 42/M C M
;
_chemical_formula_sum "Si O2"
_cell_formula_units_Z 88
_cell_length_a 12.488890
_cell_length_b 12.488890
_cell_length_c 27.644091
_cell_angle_alpha 90.000000
_cell_angle_beta 90.000000
_cell_angle_gamma 90.000000
_cell_volume 4311.714485
_symmetry_space_group_name_H-M "P 42/M C M"
_symmetry_group_IT_number 132
_symmetry_cell_setting 'tetragonal'
loop_
_space_group_symop_operation_xyz
x,y,z
-y,x,1/2+z
-x,-y,z
y,-x,1/2+z
x,-y,1/2-z
-x,y,1/2-z
y,x,-z
-y,-x,-z
-x,-y,-z
y,-x,1/2-z
x,y,-z
-y,x,1/2-z
-x,y,1/2+z
x,-y,1/2+z
-y,-x,z
y,x,z
loop_
_atom_site_type_symbol
_atom_site_label
_atom_site_fract_x
_atom_site_fract_y
_atom_site_fract_z
Si Si1 0.114710 0.445754 0.374382
Si Si2 0.008845 0.301744 0.551834
Si Si3 0.205021 0.386363 0.271018
Si Si4 0.609772 0.216669 0.556005
Si Si5 0.086009 0.086009 0.577607
Si Si6 0.910852 0.910852 0.316467
Si Si7 0.270253 0.000000 0.750000
O O1 0.089270 0.346698 0.408711
O O2 0.169354 0.402714 0.326203
O O3 0.200979 0.516148 0.404542
O O4 0.000000 0.500000 0.362698
O O5 0.031437 0.358573 0.500000
O O6 0.032397 0.177424 0.546055
O O7 0.884335 0.312988 0.564505
O O8 0.244259 0.500000 0.250000
O O9 0.302061 0.302061 0.267906
O O10 0.103729 0.344881 0.238448
O O11 0.568443 0.221217 0.500000
O O12 0.675467 0.324534 0.568286
O O13 0.125040 0.125040 0.630390
O O14 0.000000 0.000000 0.591594
O O15 0.803061 0.960025 0.293877
O O16 0.000000 0.000000 0.310601
#
# Coordination Sequence:
#
# PCOD8316708 Si02
#       7
#    16  16  16  16   8   8   8
#     4  10  21  39  62  92 122 156 207 262 317 376
#     4  10  20  34  55  85 125 166 198 242 304 374
#     4  12  27  45  67  92 126 168 216 272 329 391
#     4   9  18  35  61  90 121 159 207 258 307 365
#     4  11  23  32  47  82 127 168 200 236 293 380
#     4  11  20  35  60  93 129 165 204 264 331 380
#     4  12  20  42  66  94 120 159 213 268 326 390
#
# _framework density 20.409514000000001
#
# number of rings (size 3 to 8) (size 9 to 14) (size 15 to 20)
#    0.000    1.455    1.818    3.818    1.273    6.000 
#    0.000    0.000    0.000    0.000    0.000    1.273 
#    0.000    0.000    0.000    0.000    0.000    0.000 
#
# Total GULP energy -1090461.949848 kJ/mol
# GULP energy per Si atom -12391.613066 kJ/mol
# Density = 2.036306 g / cm^3
# Si number density = 20.409514 Si / 1000 Ang^3
#
#
#
# Elastic Constant Matrix: (Units=GPa)
#
#
# Indices 1 2 3 4 5 6 
#
# 1 103.6520 48.6163 38.3371 0.0000 0.0000 0.0000
# 2 48.6163 103.6520 38.3371 0.0000 0.0000 0.0000
# 3 38.3371 38.3371 103.4363 0.0000 0.0000 0.0000
# 4 0.0000 0.0000 0.0000 32.9742 0.0000 0.0000
# 5 0.0000 0.0000 0.0000 0.0000 32.9742 0.0000
# 6 0.0000 0.0000 0.0000 0.0000 0.0000 34.2552
#
#
#
# Elastic Compliance Matrix: (Units=1/GPa)
#
#
# Indices 1 2 3 4 5 6 
#
# 1 0.013122 -0.005048 -0.002993 0.000000 0.000000 0.000000
# 2 -0.005048 0.013122 -0.002993 0.000000 0.000000 0.000000
# 3 -0.002993 -0.002993 0.011886 0.000000 0.000000 0.000000
# 4 0.000000 0.000000 0.000000 0.030327 0.000000 0.000000
# 5 0.000000 0.000000 0.000000 0.000000 0.030327 0.000000
# 6 0.000000 0.000000 0.000000 0.000000 0.000000 0.029193
#
#
# Mechanical properties :
#
#
# Convention : Reuss Voigt Hill
#
# Bulk Modulus (GPa) = 62.25009 62.36903 62.30956
# Shear Modulus (GPa) = 32.17555 32.40404 32.28980
#
# Velocity S-wave (km/s) = 3.97482 3.98891 3.98187
# Velocity P-wave (km/s) = 7.18556 7.20002 7.19280
#
# Compressibility (1/GPa) = 0.01606423
#
# Stress axis : x y z
#
# Youngs Moduli (GPa) = 76.20696 76.20696 84.13180
#
# Poissons Ratio (x) = 0.38468 0.25177
# Poissons Ratio (y) = 0.38468 0.25177
# Poissons Ratio (z) = 0.22806 0.22806
#
# Static dielectric constant tensor:
#      x y z
#    x 3.730170 0.000000 0.000000 
#    y 0.000000 3.730170 0.000000 
#    z 0.000000 0.000000 3.775600 
# 
# 
# High freq. dielectric constant tensor:
#      x y z
#    x 1.789150 0.000000 0.000000 
#    y 0.000000 1.789150 0.000000 
#    z 0.000000 0.000000 1.806400 
# 
# From -- ./inp_files/10817.got.cif
#   From: 2010.03.12/outbox.cif.g09.slc.cpg/sg132_6_cif.got.tgz:10817.got - 2010.04.06 17:53:44.
