data_PCOD8316948
_publ_section_title
;
Structure prediction by ZEFSAII (Michael W. Deem and Ramdas Pophale) SiO2 
 PCOD8316948
Probable space group: P 42/N B C
;
_chemical_formula_sum "Si O2"
_cell_formula_units_Z 96
_cell_length_a 14.080721
_cell_length_b 14.080721
_cell_length_c 21.178982
_cell_angle_alpha 90.000000
_cell_angle_beta 90.000000
_cell_angle_gamma 90.000000
_cell_volume 4199.086953
_symmetry_space_group_name_H-M "P 42/N B C"
_symmetry_group_IT_number 133
_space_group.IT_coordinate_system_code '2'
_symmetry_cell_setting 'tetragonal'
loop_
_space_group_symop_operation_xyz
x,y,z
1/2-y,x,1/2+z
1/2-x,1/2-y,z
y,1/2-x,1/2+z
x,1/2-y,-z
1/2-x,y,-z
y,x,1/2-z
1/2-y,1/2-x,1/2-z
-x,-y,-z
1/2+y,-x,1/2-z
1/2+x,1/2+y,-z
-y,1/2+x,1/2-z
-x,1/2+y,z
1/2+x,-y,z
-y,-x,1/2+z
1/2+y,1/2+x,1/2+z
loop_
_atom_site_type_symbol
_atom_site_label
_atom_site_fract_x
_atom_site_fract_y
_atom_site_fract_z
Si Si1 0.593531 0.799789 0.660731
Si Si2 0.707204 0.435989 0.065752
Si Si3 0.616250 0.905568 0.375221
Si Si4 0.778187 0.528113 0.701741
Si Si5 0.109417 0.519806 0.510756
Si Si6 0.902373 0.392221 0.117962
O O1 0.523594 0.834166 0.605759
O O2 0.644162 0.703143 0.638087
O O3 0.670928 0.879488 0.672593
O O4 0.530869 0.778192 0.723006
O O5 0.617000 0.370404 0.050455
O O6 0.789891 0.379922 0.103791
O O7 0.750000 0.476427 0.000000
O O8 0.669935 0.970705 0.323439
O O9 0.503472 0.923688 0.369511
O O10 0.651578 0.934460 0.446465
O O11 0.832600 0.432637 0.679464
O O12 0.152138 0.535358 0.440634
O O13 0.000000 0.500000 0.500000
#
# Coordination Sequence:
#
# PCOD8316948 Si02
#       6
#    16  16  16  16  16  16
#     4  10  21  37  56  89 120 162 195 260 318 378
#     4   9  18  38  63  88 123 162 208 258 315 366
#     4  10  20  36  59  88 119 159 201 256 315 368
#     4  11  22  38  56  88 126 159 207 249 309 389
#     4   9  17  34  61  91 119 158 204 255 307 372
#     4   9  20  38  60  89 122 162 206 253 308 374
#
# _framework density 22.862112
#
# number of rings (size 3 to 8) (size 9 to 14) (size 15 to 20)
#    0.000    2.333    0.000    4.000    0.000    2.000 
#   21.000    0.833    0.000   13.000    0.000    0.000 
#    0.000    0.000    0.000    0.000    0.000    0.000 
#
# Total GULP energy -1189640.084837 kJ/mol
# GULP energy per Si atom -12392.084217 kJ/mol
# Density = 2.281008 g / cm^3
# Si number density = 22.862112 Si / 1000 Ang^3
#
#
#
# Elastic Constant Matrix: (Units=GPa)
#
#
# Indices 1 2 3 4 5 6 
#
# 1 68.9440 26.7163 28.8457 0.0000 0.0000 0.0000
# 2 26.7163 68.9440 28.8457 0.0000 0.0000 0.0000
# 3 28.8457 28.8457 108.3135 0.0000 0.0000 0.0000
# 4 0.0000 0.0000 0.0000 24.7356 0.0000 0.0000
# 5 0.0000 0.0000 0.0000 0.0000 24.7356 0.0000
# 6 0.0000 0.0000 0.0000 0.0000 0.0000 16.9017
#
#
#
# Elastic Compliance Matrix: (Units=1/GPa)
#
#
# Indices 1 2 3 4 5 6 
#
# 1 0.018067 -0.005614 -0.003317 0.000000 0.000000 0.000000
# 2 -0.005614 0.018067 -0.003317 0.000000 0.000000 0.000000
# 3 -0.003317 -0.003317 0.010999 0.000000 0.000000 0.000000
# 4 0.000000 0.000000 0.000000 0.040428 0.000000 0.000000
# 5 0.000000 0.000000 0.000000 0.000000 0.040428 0.000000
# 6 0.000000 0.000000 0.000000 0.000000 0.000000 0.059166
#
#
# Mechanical properties :
#
#
# Convention : Reuss Voigt Hill
#
# Bulk Modulus (GPa) = 44.16939 46.11298 45.14119
# Shear Modulus (GPa) = 22.81067 24.06083 23.43575
#
# Velocity S-wave (km/s) = 3.16215 3.24764 3.20518
# Velocity P-wave (km/s) = 5.71787 5.85463 5.78666
#
# Compressibility (1/GPa) = 0.02264011
#
# Stress axis : x y z
#
# Youngs Moduli (GPa) = 55.34800 55.34800 90.91715
#
# Poissons Ratio (x) = 0.31070 0.30154
# Poissons Ratio (y) = 0.31070 0.30154
# Poissons Ratio (z) = 0.18357 0.18357
#
# Static dielectric constant tensor:
#      x y z
#    x 4.007950 0.000000 0.000000 
#    y 0.000000 4.007950 0.000000 
#    z 0.000000 0.000000 4.426020 
# 
# 
# High freq. dielectric constant tensor:
#      x y z
#    x 1.883420 0.000000 0.000000 
#    y 0.000000 1.883420 0.000000 
#    z 0.000000 0.000000 1.907940 
# 
# From -- ./inp_files/6532.got.cif
#   From: 2010.03.12/outbox.cif.g09.slc.cpg/sg133_4_cif.got.tgz:6532.got - 2010.04.06 18:08:06.
