data_PCOD8316605
_publ_section_title
;
Structure prediction by ZEFSAII (Michael W. Deem and Ramdas Pophale) SiO2 
 PCOD8316605
Probable space group: P 42/M C M
;
_chemical_formula_sum "Si O2"
_cell_formula_units_Z 112
_cell_length_a 14.388436
_cell_length_b 14.388436
_cell_length_c 28.072500
_cell_angle_alpha 90.000000
_cell_angle_beta 90.000000
_cell_angle_gamma 90.000000
_cell_volume 5811.767999
_symmetry_space_group_name_H-M "P 42/M C M"
_symmetry_group_IT_number 132
_symmetry_cell_setting 'tetragonal'
loop_
_space_group_symop_operation_xyz
x,y,z
-y,x,1/2+z
-x,-y,z
y,-x,1/2+z
x,-y,1/2-z
-x,y,1/2-z
y,x,-z
-y,-x,-z
-x,-y,-z
y,-x,1/2-z
x,y,-z
-y,x,1/2-z
-x,y,1/2+z
x,-y,1/2+z
-y,-x,z
y,x,z
loop_
_atom_site_type_symbol
_atom_site_label
_atom_site_fract_x
_atom_site_fract_y
_atom_site_fract_z
Si Si1 0.832362 0.678000 0.051458
Si Si2 0.718500 0.566485 0.211950
Si Si3 0.102981 0.333765 0.240005
Si Si4 0.123823 0.268851 0.657732
Si Si5 0.764267 0.916843 0.140356
Si Si6 0.587152 0.265802 0.863361
Si Si7 0.320198 0.529592 0.554013
O O1 0.761475 0.761475 0.048630
O O2 0.895836 0.692560 0.097606
O O3 0.776922 0.583162 0.058045
O O4 0.886710 0.674956 0.000000
O O5 0.666203 0.500000 0.250000
O O6 0.658923 0.658923 0.201437
O O7 0.817568 0.588747 0.236759
O O8 0.733512 0.511551 0.163243
O O9 0.122676 0.267292 0.284822
O O10 0.111647 0.276469 0.191292
O O11 0.000000 0.377711 0.250000
O O12 0.195294 0.195294 0.637317
O O13 0.160799 0.369680 0.638404
O O14 0.027383 0.230670 0.637230
O O15 0.863608 0.863608 0.133661
O O16 0.663234 0.336767 0.840104
O O17 0.564039 0.304971 0.915754
O O18 0.340861 0.499685 0.500000
O O19 0.406491 0.593510 0.572528
#
# Coordination Sequence:
#
# PCOD8316605 Si02
#       7
#    16  16  16  16  16  16  16
#     4   8  15  31  55  83 112 137 168 219 281 337
#     4  12  23  36  55  80 113 150 190 233 277 334
#     4  10  21  38  58  81 111 147 189 234 285 343
#     4  10  21  38  53  74 112 150 183 231 285 336
#     4  10  19  33  59  87 105 138 186 230 283 347
#     4  11  23  38  53  74 111 155 192 230 281 338
#     4   9  18  34  57  82 106 138 184 236 283 329
#
# _framework density 19.271245
#
# number of rings (size 3 to 8) (size 9 to 14) (size 15 to 20)
#    0.000    2.000    1.429    3.857    0.000    3.857 
#    0.000    3.571    0.000    5.571    0.000    2.000 
#    0.000    0.000    0.000    0.000    0.000    0.000 
#
# Total GULP energy -1387624.740633 kJ/mol
# GULP energy per Si atom -12389.506613 kJ/mol
# Density = 1.922738 g / cm^3
# Si number density = 19.271245 Si / 1000 Ang^3
#
#
#
# Elastic Constant Matrix: (Units=GPa)
#
#
# Indices 1 2 3 4 5 6 
#
# 1 89.7310 53.3148 32.8494 0.0000 0.0000 0.0000
# 2 53.3148 89.7310 32.8494 0.0000 0.0000 0.0000
# 3 32.8494 32.8494 88.7947 0.0000 0.0000 0.0000
# 4 0.0000 0.0000 0.0000 26.9032 0.0000 0.0000
# 5 0.0000 0.0000 0.0000 0.0000 26.9032 0.0000
# 6 0.0000 0.0000 0.0000 0.0000 0.0000 20.8335
#
#
#
# Elastic Compliance Matrix: (Units=1/GPa)
#
#
# Indices 1 2 3 4 5 6 
#
# 1 0.017941 -0.009519 -0.003116 0.000000 0.000000 0.000000
# 2 -0.009519 0.017941 -0.003116 0.000000 0.000000 0.000000
# 3 -0.003116 -0.003116 0.013567 0.000000 0.000000 0.000000
# 4 0.000000 0.000000 0.000000 0.037170 0.000000 0.000000
# 5 0.000000 0.000000 0.000000 0.000000 0.037170 0.000000
# 6 0.000000 0.000000 0.000000 0.000000 0.000000 0.048000
#
#
# Mechanical properties :
#
#
# Convention : Reuss Voigt Hill
#
# Bulk Modulus (GPa) = 55.71591 56.25378 55.98485
# Shear Modulus (GPa) = 23.89223 24.87752 24.38488
#
# Velocity S-wave (km/s) = 3.52488 3.59683 3.56104
# Velocity P-wave (km/s) = 6.74837 6.81934 6.78395
#
# Compressibility (1/GPa) = 0.01794819
#
# Stress axis : x y z
#
# Youngs Moduli (GPa) = 55.73824 55.73824 73.70744
#
# Poissons Ratio (x) = 0.53059 0.22964
# Poissons Ratio (y) = 0.53059 0.22964
# Poissons Ratio (z) = 0.17366 0.17366
#
# Static dielectric constant tensor:
#      x y z
#    x 3.484400 0.000000 0.000000 
#    y 0.000000 3.484400 0.000000 
#    z 0.000000 0.000000 3.476630 
# 
# 
# High freq. dielectric constant tensor:
#      x y z
#    x 1.735090 0.000000 0.000000 
#    y 0.000000 1.735090 0.000000 
#    z 0.000000 0.000000 1.752970 
# 
# From -- ./inp_files/10090.got.cif
#   From: 2010.03.12/outbox.cif.g09.slc.cpg/sg132_6_cif.got.tgz:10090.got - 2010.04.06 17:53:44.
