data_PCOD8316404
_publ_section_title
;
Structure prediction by ZEFSAII (Michael W. Deem and Ramdas Pophale) SiO2 
 PCOD8316404
Probable space group: P 42/M C M
;
_chemical_formula_sum "Si O2"
_cell_formula_units_Z 112
_cell_length_a 17.014674
_cell_length_b 17.014674
_cell_length_c 24.336820
_cell_angle_alpha 90.000000
_cell_angle_beta 90.000000
_cell_angle_gamma 90.000000
_cell_volume 7045.488249
_symmetry_space_group_name_H-M "P 42/M C M"
_symmetry_group_IT_number 132
_symmetry_cell_setting 'tetragonal'
loop_
_space_group_symop_operation_xyz
x,y,z
-y,x,1/2+z
-x,-y,z
y,-x,1/2+z
x,-y,1/2-z
-x,y,1/2-z
y,x,-z
-y,-x,-z
-x,-y,-z
y,-x,1/2-z
x,y,-z
-y,x,1/2-z
-x,y,1/2+z
x,-y,1/2+z
-y,-x,z
y,x,z
loop_
_atom_site_type_symbol
_atom_site_label
_atom_site_fract_x
_atom_site_fract_y
_atom_site_fract_z
Si Si1 0.107629 0.768149 0.867631
Si Si2 0.429415 0.084219 0.220654
Si Si3 0.385164 0.070509 0.561767
Si Si4 0.932144 0.811969 0.134246
Si Si5 0.908987 0.264680 0.745143
Si Si6 0.096138 0.444498 0.905438
Si Si7 0.172510 0.296896 0.935872
O O1 0.177368 0.822633 0.893232
O O2 0.100957 0.683267 0.896973
O O3 0.127801 0.760789 0.802949
O O4 0.025578 0.814905 0.872283
O O5 0.500000 0.132974 0.250000
O O6 0.347480 0.131106 0.227450
O O7 0.449818 0.072974 0.157562
O O8 0.424985 0.000000 0.250000
O O9 0.357212 0.090433 0.500000
O O10 0.467530 0.115343 0.573824
O O11 0.403371 0.977900 0.564852
O O12 0.896423 0.896423 0.116504
O O13 0.900442 0.798052 0.196432
O O14 0.900148 0.744001 0.094873
O O15 0.000000 0.283555 0.750000
O O16 0.171793 0.388914 0.918161
O O17 0.255248 0.255248 0.919225
O O18 0.157327 0.287451 0.000000
#
# Coordination Sequence:
#
# PCOD8316404 Si02
#       7
#    16  16  16  16  16  16  16
#     4  11  22  34  47  65  95 130 166 206 241 283
#     4  10  16  24  42  66  96 123 150 189 238 294
#     4  11  21  32  48  69  92 123 162 198 237 285
#     4  10  19  32  49  66  88 122 166 213 251 286
#     4   9  16  30  44  65  87 117 159 202 247 287
#     4  11  18  32  51  72  94 119 158 194 243 297
#     4  10  19  31  48  71  96 119 149 195 248 291
#
# _framework density 15.896698000000001
#
# number of rings (size 3 to 8) (size 9 to 14) (size 15 to 20)
#    0.000    1.714    2.857    6.429    0.000    0.571 
#    0.000    0.000    0.000    2.571    0.000    3.000 
#    0.000    0.571    0.000    3.000    0.000    2.000 
#
# Total GULP energy -1387562.165033 kJ/mol
# GULP energy per Si atom -12388.947902 kJ/mol
# Density = 1.586052 g / cm^3
# Si number density = 15.896698 Si / 1000 Ang^3
#
#
#
# Elastic Constant Matrix: (Units=GPa)
#
#
# Indices 1 2 3 4 5 6 
#
# 1 75.3647 49.0079 19.5655 0.0000 0.0000 0.0000
# 2 49.0079 75.3647 19.5655 0.0000 0.0000 0.0000
# 3 19.5655 19.5655 93.9746 0.0000 0.0000 0.0000
# 4 0.0000 0.0000 0.0000 12.5966 0.0000 0.0000
# 5 0.0000 0.0000 0.0000 0.0000 12.5966 0.0000
# 6 0.0000 0.0000 0.0000 0.0000 0.0000 18.6146
#
#
#
# Elastic Compliance Matrix: (Units=1/GPa)
#
#
# Indices 1 2 3 4 5 6 
#
# 1 0.023272 -0.014668 -0.001791 0.000000 0.000000 0.000000
# 2 -0.014668 0.023272 -0.001791 0.000000 0.000000 0.000000
# 3 -0.001791 -0.001791 0.011387 0.000000 0.000000 0.000000
# 4 0.000000 0.000000 0.000000 0.079386 0.000000 0.000000
# 5 0.000000 0.000000 0.000000 0.000000 0.079386 0.000000
# 6 0.000000 0.000000 0.000000 0.000000 0.000000 0.053721
#
#
# Mechanical properties :
#
#
# Convention : Reuss Voigt Hill
#
# Bulk Modulus (GPa) = 46.66434 46.77574 46.72004
# Shear Modulus (GPa) = 15.91993 19.19922 17.55958
#
# Velocity S-wave (km/s) = 3.16802 3.47904 3.32717
# Velocity P-wave (km/s) = 6.54219 6.75477 6.64933
#
# Compressibility (1/GPa) = 0.02142964
#
# Stress axis : x y z
#
# Youngs Moduli (GPa) = 42.96932 42.96932 87.81869
#
# Poissons Ratio (x) = 0.63029 0.15731
# Poissons Ratio (y) = 0.63029 0.15731
# Poissons Ratio (z) = 0.07697 0.07697
#
# Static dielectric constant tensor:
#      x y z
#    x 3.070150 0.000000 0.000000 
#    y 0.000000 3.070150 0.000000 
#    z 0.000000 0.000000 3.225420 
# 
# 
# High freq. dielectric constant tensor:
#      x y z
#    x 1.580270 0.000000 0.000000 
#    y 0.000000 1.580270 0.000000 
#    z 0.000000 0.000000 1.628580 
# 
# From -- ./inp_files/9306.got.cif
#   From: 2010.03.12/outbox.cif.g09.slc.cpg/sg132_5_cif.got.tgz:9306.got - 2010.04.06 17:53:44.
