data_PCOD8316409
_publ_section_title
;
Structure prediction by ZEFSAII (Michael W. Deem and Ramdas Pophale) SiO2 
 PCOD8316409
Probable space group: P 42/M C M
;
_chemical_formula_sum "Si O2"
_cell_formula_units_Z 96
_cell_length_a 18.148902
_cell_length_b 18.148902
_cell_length_c 19.136393
_cell_angle_alpha 90.000000
_cell_angle_beta 90.000000
_cell_angle_gamma 90.000000
_cell_volume 6303.195719
_symmetry_space_group_name_H-M "P 42/M C M"
_symmetry_group_IT_number 132
_symmetry_cell_setting 'tetragonal'
loop_
_space_group_symop_operation_xyz
x,y,z
-y,x,1/2+z
-x,-y,z
y,-x,1/2+z
x,-y,1/2-z
-x,y,1/2-z
y,x,-z
-y,-x,-z
-x,-y,-z
y,-x,1/2-z
x,y,-z
-y,x,1/2-z
-x,y,1/2+z
x,-y,1/2+z
-y,-x,z
y,x,z
loop_
_atom_site_type_symbol
_atom_site_label
_atom_site_fract_x
_atom_site_fract_y
_atom_site_fract_z
Si Si1 0.085745 0.519045 0.421989
Si Si2 0.644977 0.924129 0.824457
Si Si3 0.855468 0.736931 0.578223
Si Si4 0.141201 0.976415 0.078852
Si Si5 0.187196 0.070124 0.801292
Si Si6 0.903664 0.387062 0.173877
O O1 0.120197 0.512166 0.500000
O O2 0.104627 0.601208 0.393047
O O3 0.118476 0.461641 0.366092
O O4 0.000000 0.500000 0.426364
O O5 0.730882 0.901843 0.821027
O O6 0.605691 0.887635 0.756473
O O7 0.637075 0.011652 0.829792
O O8 0.867571 0.703781 0.500000
O O9 0.777339 0.777339 0.581247
O O10 0.920651 0.792927 0.595947
O O11 0.854372 0.675069 0.637218
O O12 0.063458 0.936543 0.091503
O O13 0.146577 0.046615 0.128055
O O14 0.146670 0.005164 0.000000
O O15 0.138293 0.138293 0.769850
O O16 0.190276 0.000000 0.750000
#
# Coordination Sequence:
#
# PCOD8316409 Si02
#       6
#    16  16  16  16  16  16
#     4   9  18  29  46  68  85 105 134 173 221 275
#     4  10  19  31  43  63  84 111 138 181 226 271
#     4   9  16  26  44  66  87 112 142 179 224 273
#     4   9  18  32  46  58  75 103 140 186 235 274
#     4  12  23  35  47  62  82 113 152 190 236 273
#     4  10  16  29  46  63  87 111 138 173 221 270
#
# _framework density 15.230370000000001
#
# number of rings (size 3 to 8) (size 9 to 14) (size 15 to 20)
#    0.000    2.167    3.333    2.500    0.000    6.833 
#    0.000    0.833    0.000    0.000    0.000    0.000 
#    0.000    0.000    0.000    0.000    0.000    0.833 
#
# Total GULP energy -1189524.964652 kJ/mol
# GULP energy per Si atom -12390.885048 kJ/mol
# Density = 1.519570 g / cm^3
# Si number density = 15.230370 Si / 1000 Ang^3
#
#
#
# Elastic Constant Matrix: (Units=GPa)
#
#
# Indices 1 2 3 4 5 6 
#
# 1 53.8895 28.3765 31.4474 0.0000 0.0000 0.0000
# 2 28.3765 53.8895 31.4474 0.0000 0.0000 0.0000
# 3 31.4474 31.4474 96.6676 0.0000 0.0000 0.0000
# 4 0.0000 0.0000 0.0000 18.5409 0.0000 0.0000
# 5 0.0000 0.0000 0.0000 0.0000 18.5409 0.0000
# 6 0.0000 0.0000 0.0000 0.0000 0.0000 5.8793
#
#
#
# Elastic Compliance Matrix: (Units=1/GPa)
#
#
# Indices 1 2 3 4 5 6 
#
# 1 0.027688 -0.011508 -0.005264 0.000000 0.000000 0.000000
# 2 -0.011508 0.027688 -0.005264 0.000000 0.000000 0.000000
# 3 -0.005264 -0.005264 0.013769 0.000000 0.000000 0.000000
# 4 0.000000 0.000000 0.000000 0.053935 0.000000 0.000000
# 5 0.000000 0.000000 0.000000 0.000000 0.053935 0.000000
# 6 0.000000 0.000000 0.000000 0.000000 0.000000 0.170090
#
#
# Mechanical properties :
#
#
# Convention : Reuss Voigt Hill
#
# Bulk Modulus (GPa) = 39.88063 42.99880 41.43971
# Shear Modulus (GPa) = 12.51462 16.13721 14.32591
#
# Velocity S-wave (km/s) = 2.86962 3.25859 3.07027
# Velocity P-wave (km/s) = 6.10094 6.51548 6.31161
#
# Compressibility (1/GPa) = 0.02507483
#
# Stress axis : x y z
#
# Youngs Moduli (GPa) = 36.11702 36.11702 72.62515
#
# Poissons Ratio (x) = 0.41563 0.38226
# Poissons Ratio (y) = 0.41563 0.38226
# Poissons Ratio (z) = 0.19010 0.19010
#
# Static dielectric constant tensor:
#      x y z
#    x 2.686480 0.000000 0.000000 
#    y 0.000000 2.686480 0.000000 
#    z 0.000000 0.000000 3.264570 
# 
# 
# High freq. dielectric constant tensor:
#      x y z
#    x 1.540500 0.000000 0.000000 
#    y 0.000000 1.540500 0.000000 
#    z 0.000000 0.000000 1.605810 
# 
# From -- ./inp_files/6450.got.cif
#   From: 2010.03.12/outbox.cif.g09.slc.cpg/sg132_4_cif.got.tgz:6450.got - 2010.04.06 17:53:44.
