data_PCOD8316240
_publ_section_title
;
Structure prediction by ZEFSAII (Michael W. Deem and Ramdas Pophale) SiO2 
 PCOD8316240
Probable space group: P 42/M M C
;
_chemical_formula_sum "Si O2"
_cell_formula_units_Z 56
_cell_length_a 12.058843
_cell_length_b 12.058843
_cell_length_c 20.985763
_cell_angle_alpha 90.000000
_cell_angle_beta 90.000000
_cell_angle_gamma 90.000000
_cell_volume 3051.659301
_symmetry_space_group_name_H-M "P 42/M M C"
_symmetry_group_IT_number 131
_symmetry_cell_setting 'tetragonal'
loop_
_space_group_symop_operation_xyz
x,y,z
-x,-y,z
-y,x,1/2+z
y,-x,1/2+z
-x,y,-z
x,-y,-z
y,x,1/2-z
-y,-x,1/2-z
-x,-y,-z
x,y,-z
y,-x,1/2-z
-y,x,1/2-z
x,-y,z
-x,y,z
-y,-x,1/2+z
y,x,1/2+z
loop_
_atom_site_type_symbol
_atom_site_label
_atom_site_fract_x
_atom_site_fract_y
_atom_site_fract_z
Si Si1 0.295247 0.257909 0.353536
Si Si2 0.877288 0.628438 0.738237
Si Si3 0.122507 0.878632 0.925129
Si Si4 0.500000 0.631576 0.574229
O O1 0.215582 0.334087 0.311350
O O2 0.347432 0.162209 0.309976
O O3 0.218718 0.204613 0.406928
O O4 0.391012 0.326250 0.388998
O O5 0.890857 0.500000 0.728259
O O6 0.000000 0.683652 0.727891
O O7 0.000000 0.856661 0.896276
O O8 0.164740 0.000000 0.901058
O O9 0.114778 0.879905 0.000000
O O10 0.500000 0.500000 0.577825
O O11 0.500000 0.671087 0.500000
#
# Coordination Sequence:
#
# PCOD8316240 Si02
#       4
#    16  16  16   8
#     4  11  20  36  57  80 107 152 188 234 286 353
#     4  10  21  36  54  80 111 142 182 237 287 341
#     4   9  18  33  54  81 111 141 178 227 284 351
#     4  11  24  40  57  81 115 153 202 252 287 334
#
# _framework density 18.350673
#
# number of rings (size 3 to 8) (size 9 to 14) (size 15 to 20)
#    0.000    1.857    1.429    4.286    0.000    0.000 
#    0.000    0.000    0.000   10.286    0.000   12.000 
#    0.000    0.000    0.000    0.000    0.000    0.000 
#
# Total GULP energy -693998.687822 kJ/mol
# GULP energy per Si atom -12392.833711 kJ/mol
# Density = 1.830891 g / cm^3
# Si number density = 18.350673 Si / 1000 Ang^3
#
#
#
# Elastic Constant Matrix: (Units=GPa)
#
#
# Indices 1 2 3 4 5 6 
#
# 1 114.3300 50.8086 45.3006 0.0000 0.0000 0.0000
# 2 50.8086 114.3300 45.3006 0.0000 0.0000 0.0000
# 3 45.3006 45.3006 86.6219 0.0000 0.0000 0.0000
# 4 0.0000 0.0000 0.0000 27.9893 0.0000 0.0000
# 5 0.0000 0.0000 0.0000 0.0000 27.9893 0.0000
# 6 0.0000 0.0000 0.0000 0.0000 0.0000 24.5159
#
#
#
# Elastic Compliance Matrix: (Units=1/GPa)
#
#
# Indices 1 2 3 4 5 6 
#
# 1 0.012117 -0.003625 -0.004441 0.000000 0.000000 0.000000
# 2 -0.003625 0.012117 -0.004441 0.000000 0.000000 0.000000
# 3 -0.004441 -0.004441 0.016190 0.000000 0.000000 0.000000
# 4 0.000000 0.000000 0.000000 0.035728 0.000000 0.000000
# 5 0.000000 0.000000 0.000000 0.000000 0.035728 0.000000
# 6 0.000000 0.000000 0.000000 0.000000 0.000000 0.040790
#
#
# Mechanical properties :
#
#
# Convention : Reuss Voigt Hill
#
# Bulk Modulus (GPa) = 64.89586 66.45573 65.67580
# Shear Modulus (GPa) = 27.34907 27.69037 27.51972
#
# Velocity S-wave (km/s) = 3.86470 3.88874 3.87674
# Velocity P-wave (km/s) = 7.44014 7.51372 7.47702
#
# Compressibility (1/GPa) = 0.01540930
#
# Stress axis : x y z
#
# Youngs Moduli (GPa) = 82.52597 82.52597 61.76826
#
# Poissons Ratio (x) = 0.29918 0.27432
# Poissons Ratio (y) = 0.29918 0.27432
# Poissons Ratio (z) = 0.36651 0.36651
#
# Static dielectric constant tensor:
#      x y z
#    x 3.680330 0.000000 0.000000 
#    y 0.000000 3.680330 0.000000 
#    z 0.000000 0.000000 3.331340 
# 
# 
# High freq. dielectric constant tensor:
#      x y z
#    x 1.719780 0.000000 0.000000 
#    y 0.000000 1.719780 0.000000 
#    z 0.000000 0.000000 1.709450 
# 
# From -- ./inp_files/8965.got.cif
#   From: 2010.03.12/outbox.cif.g09.slc.cpg/sg131_5_cif.got.tgz:8965.got - 2010.04.06 17:36:35.
