data_PCOD8316875
_publ_section_title
;
Structure prediction by ZEFSAII (Michael W. Deem and Ramdas Pophale) SiO2 
 PCOD8316875
Probable space group: P 42/M C M
;
_chemical_formula_sum "Si O2"
_cell_formula_units_Z 80
_cell_length_a 17.466126
_cell_length_b 17.466126
_cell_length_c 17.840152
_cell_angle_alpha 90.000000
_cell_angle_beta 90.000000
_cell_angle_gamma 90.000000
_cell_volume 5442.415915
_symmetry_space_group_name_H-M "P 42/M C M"
_symmetry_group_IT_number 132
_symmetry_cell_setting 'tetragonal'
loop_
_space_group_symop_operation_xyz
x,y,z
-y,x,1/2+z
-x,-y,z
y,-x,1/2+z
x,-y,1/2-z
-x,y,1/2-z
y,x,-z
-y,-x,-z
-x,-y,-z
y,-x,1/2-z
x,y,-z
-y,x,1/2-z
-x,y,1/2+z
x,-y,1/2+z
-y,-x,z
y,x,z
loop_
_atom_site_type_symbol
_atom_site_label
_atom_site_fract_x
_atom_site_fract_y
_atom_site_fract_z
Si Si1 0.659081 0.962469 0.912003
Si Si2 0.889503 0.110498 0.910406
Si Si3 0.862284 0.625108 0.412324
Si Si4 0.767721 0.767721 0.589309
Si Si5 0.484234 0.914582 0.662524
Si Si6 0.949943 0.830383 0.911073
O O1 0.604074 0.905661 0.863215
O O2 0.743199 0.936516 0.886965
O O3 0.654759 0.052720 0.891623
O O4 0.642385 0.949680 0.000000
O O5 0.828541 0.171460 0.880057
O O6 0.972010 0.134181 0.877802
O O7 0.889918 0.110083 0.000000
O O8 0.852261 0.615946 0.500000
O O9 0.796135 0.683647 0.382091
O O10 0.852684 0.540687 0.376063
O O11 0.768203 0.768203 0.500000
O O12 0.500000 0.908030 0.750000
O O13 0.500000 0.000000 0.631689
O O14 0.879007 0.879007 0.879415
O O15 0.955317 0.835314 0.000000
#
# Coordination Sequence:
#
# PCOD8316875 Si02
#       6
#    16   8  16   8  16  16
#     4   9  15  24  38  55  76 101 132 167 201 238
#     4   9  13  20  31  50  78 106 136 170 205 228
#     4   9  15  24  39  58  77  99 129 163 201 238
#     4   9  14  21  36  57  80 102 126 165 203 230
#     4   9  17  27  39  54  73  99 129 166 201 243
#     4   9  15  21  32  52  78 107 137 170 203 232
#
# _framework density 14.699355000000001
#
# number of rings (size 3 to 8) (size 9 to 14) (size 15 to 20)
#    0.000    3.000    2.000    0.900    0.000    3.600 
#    0.000    0.000    2.200    0.000    0.000    0.000 
#    0.000    0.000    0.000    0.900    0.400   18.300 
#
# Total GULP energy -991086.555151 kJ/mol
# GULP energy per Si atom -12388.581939 kJ/mol
# Density = 1.466590 g / cm^3
# Si number density = 14.699355 Si / 1000 Ang^3
#
#
#
# Elastic Constant Matrix: (Units=GPa)
#
#
# Indices 1 2 3 4 5 6 
#
# 1 98.8154 63.4196 25.5144 0.0000 0.0000 0.0000
# 2 63.4196 98.8152 25.5144 0.0000 0.0000 0.0000
# 3 25.5144 25.5144 27.0114 0.0000 0.0000 0.0000
# 4 0.0000 0.0000 0.0000 6.4937 0.0000 0.0000
# 5 0.0000 0.0000 0.0000 0.0000 6.4937 0.0000
# 6 0.0000 0.0000 0.0000 0.0000 0.0000 17.3631
#
#
#
# Elastic Compliance Matrix: (Units=1/GPa)
#
#
# Indices 1 2 3 4 5 6 
#
# 1 0.018511 -0.009741 -0.008283 0.000000 0.000000 0.000000
# 2 -0.009741 0.018511 -0.008283 0.000000 0.000000 0.000000
# 3 -0.008283 -0.008283 0.052670 0.000000 0.000000 0.000000
# 4 0.000000 0.000000 0.000000 0.153996 0.000000 0.000000
# 5 0.000000 0.000000 0.000000 0.000000 0.153996 0.000000
# 6 0.000000 0.000000 0.000000 0.000000 0.000000 0.057593
#
#
# Mechanical properties :
#
#
# Convention : Reuss Voigt Hill
#
# Bulk Modulus (GPa) = 26.97220 50.39322 38.68271
# Shear Modulus (GPa) = 9.61074 13.41633 11.51354
#
# Velocity S-wave (km/s) = 2.55976 3.02440 2.80173
# Velocity P-wave (km/s) = 5.20822 6.82298 6.06954
#
# Compressibility (1/GPa) = 0.03707522
#
# Stress axis : x y z
#
# Youngs Moduli (GPa) = 54.02300 54.02289 18.98622
#
# Poissons Ratio (x) = 0.52626 0.15727
# Poissons Ratio (y) = 0.52626 0.15727
# Poissons Ratio (z) = 0.44749 0.44749
#
# Static dielectric constant tensor:
#      x y z
#    x 2.943590 0.000000 0.000000 
#    y 0.000000 2.943590 0.000000 
#    z 0.000000 0.000000 2.449450 
# 
# 
# High freq. dielectric constant tensor:
#      x y z
#    x 1.541440 0.000000 0.000000 
#    y 0.000000 1.541440 0.000000 
#    z 0.000000 0.000000 1.524760 
# 
# From -- ./inp_files/6356.got.cif
#   From: 2010.03.12/outbox.cif.g09.slc.cpg/sg132_4_cif.got.tgz:6356.got - 2010.04.06 17:53:44.
