data_PCOD8316153
_publ_section_title
;
Structure prediction by ZEFSAII (Michael W. Deem and Ramdas Pophale) SiO2 
 PCOD8316153
Probable space group: P 42/M M C
;
_chemical_formula_sum "Si O2"
_cell_formula_units_Z 112
_cell_length_a 14.621808
_cell_length_b 14.621808
_cell_length_c 26.528457
_cell_angle_alpha 90.000000
_cell_angle_beta 90.000000
_cell_angle_gamma 90.000000
_cell_volume 5671.711662
_symmetry_space_group_name_H-M "P 42/M M C"
_symmetry_group_IT_number 131
_symmetry_cell_setting 'tetragonal'
loop_
_space_group_symop_operation_xyz
x,y,z
-x,-y,z
-y,x,1/2+z
y,-x,1/2+z
-x,y,-z
x,-y,-z
y,x,1/2-z
-y,-x,1/2-z
-x,-y,-z
x,y,-z
y,-x,1/2-z
-y,x,1/2-z
x,-y,z
-x,y,z
-y,-x,1/2+z
y,x,1/2+z
loop_
_atom_site_type_symbol
_atom_site_label
_atom_site_fract_x
_atom_site_fract_y
_atom_site_fract_z
Si Si1 0.740640 0.394994 0.941162
Si Si2 0.707461 0.103593 0.387857
Si Si3 0.600132 0.107220 0.291641
Si Si4 0.293784 0.810931 0.206613
Si Si5 0.274861 0.602441 0.618753
Si Si6 0.649191 0.102270 0.941603
Si Si7 0.177990 0.898712 0.122727
O O1 0.754025 0.500000 0.923562
O O2 0.831951 0.336180 0.930291
O O3 0.653293 0.351399 0.913868
O O4 0.720757 0.389802 0.000000
O O5 0.671593 0.142570 0.333995
O O6 0.818078 0.105063 0.386560
O O7 0.676008 0.000000 0.398777
O O8 0.500000 0.149908 0.302598
O O9 0.628495 0.131418 0.234946
O O10 0.595177 0.000000 0.296566
O O11 0.236385 0.763616 0.250000
O O12 0.341810 0.736546 0.170625
O O13 0.232238 0.880859 0.174636
O O14 0.309552 0.500000 0.629969
O O15 0.177537 0.594357 0.590051
O O16 0.754593 0.104156 0.924906
O O17 0.608583 0.000000 0.932180
O O18 0.643173 0.128748 0.000000
O O19 0.131793 0.000000 0.126321
#
# Coordination Sequence:
#
# PCOD8316153 Si02
#       7
#    16  16  16  16  16  16  16
#     4  11  24  43  65  88 118 156 200 252 311 373
#     4  11  22  39  62  88 120 156 201 253 308 366
#     4  10  20  34  55  83 115 152 196 245 297 352
#     4  11  19  36  59  84 117 161 201 247 294 352
#     4  11  23  38  60  91 123 156 198 248 301 362
#     4   9  18  34  58  86 118 157 195 233 287 356
#     4  10  20  35  57  86 122 160 200 246 296 356
#
# _framework density 19.747125
#
# number of rings (size 3 to 8) (size 9 to 14) (size 15 to 20)
#    0.000    1.571    4.286    1.714    0.000    3.714 
#    0.000    2.857    0.000    0.000    0.000    3.000 
#    0.000    0.000    0.000    0.000    0.000    0.000 
#
# Total GULP energy -1388527.158515 kJ/mol
# GULP energy per Si atom -12397.563915 kJ/mol
# Density = 1.970218 g / cm^3
# Si number density = 19.747125 Si / 1000 Ang^3
#
#
#
# Elastic Constant Matrix: (Units=GPa)
#
#
# Indices 1 2 3 4 5 6 
#
# 1 96.4228 23.2248 13.2279 0.0000 0.0000 0.0000
# 2 23.2248 96.4214 13.2259 0.0000 0.0000 0.0000
# 3 13.2279 13.2259 61.8822 0.0000 0.0000 0.0000
# 4 0.0000 0.0000 0.0000 15.9671 0.0000 0.0000
# 5 0.0000 0.0000 0.0000 0.0000 15.9667 0.0000
# 6 0.0000 0.0000 0.0000 0.0000 0.0000 16.3246
#
#
#
# Elastic Compliance Matrix: (Units=1/GPa)
#
#
# Indices 1 2 3 4 5 6 
#
# 1 0.011217 -0.002445 -0.001875 0.000000 0.000000 0.000000
# 2 -0.002445 0.011217 -0.001875 0.000000 0.000000 0.000000
# 3 -0.001875 -0.001875 0.016961 0.000000 0.000000 0.000000
# 4 0.000000 0.000000 0.000000 0.062629 0.000000 0.000000
# 5 0.000000 0.000000 0.000000 0.000000 0.062630 0.000000
# 6 0.000000 0.000000 0.000000 0.000000 0.000000 0.061257
#
#
# Mechanical properties :
#
#
# Convention : Reuss Voigt Hill
#
# Bulk Modulus (GPa) = 37.02875 39.34263 38.18569
# Shear Modulus (GPa) = 20.21809 23.32154 21.76981
#
# Velocity S-wave (km/s) = 3.20324 3.44031 3.32389
# Velocity P-wave (km/s) = 5.69852 5.97892 5.84040
#
# Compressibility (1/GPa) = 0.02700604
#
# Stress axis : x y z
#
# Youngs Moduli (GPa) = 89.14989 89.14938 58.95772
#
# Poissons Ratio (x) = 0.21793 0.11056
# Poissons Ratio (y) = 0.21794 0.11054
# Poissons Ratio (z) = 0.16718 0.16714
#
# Static dielectric constant tensor:
#      x y z
#    x 3.597790 0.000000 0.000000 
#    y 0.000000 3.597790 0.000000 
#    z 0.000000 0.000000 3.808980 
# 
# 
# High freq. dielectric constant tensor:
#      x y z
#    x 1.762950 0.000000 0.000000 
#    y 0.000000 1.762950 0.000000 
#    z 0.000000 0.000000 1.773320 
# 
# From -- ./inp_files/12464.got.cif
#   From: 2010.03.12/outbox.cif.g09.slc.cpg/sg131_7_cif.got.tgz:12464.got - 2010.04.06 17:36:35.
