data_PCOD8316774
_publ_section_title
;
Structure prediction by ZEFSAII (Michael W. Deem and Ramdas Pophale) SiO2 
 PCOD8316774
Probable space group: P 42/M C M
;
_chemical_formula_sum "Si O2"
_cell_formula_units_Z 96
_cell_length_a 14.103175
_cell_length_b 14.103175
_cell_length_c 27.403383
_cell_angle_alpha 90.000000
_cell_angle_beta 90.000000
_cell_angle_gamma 90.000000
_cell_volume 5450.520412
_symmetry_space_group_name_H-M "P 42/M C M"
_symmetry_group_IT_number 132
_symmetry_cell_setting 'tetragonal'
loop_
_space_group_symop_operation_xyz
x,y,z
-y,x,1/2+z
-x,-y,z
y,-x,1/2+z
x,-y,1/2-z
-x,y,1/2-z
y,x,-z
-y,-x,-z
-x,-y,-z
y,-x,1/2-z
x,y,-z
-y,x,1/2-z
-x,y,1/2+z
x,-y,1/2+z
-y,-x,z
y,x,z
loop_
_atom_site_type_symbol
_atom_site_label
_atom_site_fract_x
_atom_site_fract_y
_atom_site_fract_z
Si Si1 0.384633 0.895312 0.803980
Si Si2 0.841617 0.306785 0.098592
Si Si3 0.111286 0.608545 0.304104
Si Si4 0.605465 0.017129 0.556313
Si Si5 0.547595 0.301021 0.056528
Si Si6 0.784091 0.634042 0.900604
O O1 0.333897 0.830307 0.844342
O O2 0.496284 0.885175 0.807836
O O3 0.354173 0.860116 0.749873
O O4 0.355688 0.004481 0.814093
O O5 0.799613 0.200388 0.091491
O O6 0.951202 0.316126 0.082708
O O7 0.783727 0.378749 0.064756
O O8 0.184066 0.646566 0.344427
O O9 0.605880 0.990846 0.500000
O O10 0.500000 0.000000 0.578825
O O11 0.630723 0.126152 0.563881
O O12 0.598565 0.401436 0.069500
O O13 0.457097 0.283932 0.091125
O O14 0.515898 0.299899 0.000000
O O15 0.726787 0.726787 0.915558
#
# Coordination Sequence:
#
# PCOD8316774 Si02
#       6
#    16  16  16  16  16  16
#     4   9  16  31  56  79 106 139 175 218 270 320
#     4  11  20  32  56  85 108 135 177 227 272 316
#     4   9  17  31  53  81 108 138 174 220 269 319
#     4  11  21  36  57  78 107 145 182 226 271 316
#     4  10  21  36  53  77 110 148 188 225 263 314
#     4  12  23  35  55  83 113 145 181 225 275 324
#
# _framework density 17.612997
#
# number of rings (size 3 to 8) (size 9 to 14) (size 15 to 20)
#    0.000    1.667    5.000    2.000    0.000    3.333 
#    0.000    0.833    0.000    0.500    0.000    1.167 
#    0.000    2.667    0.000    0.000    0.000    0.000 
#
# Total GULP energy -1190023.935430 kJ/mol
# GULP energy per Si atom -12396.082661 kJ/mol
# Density = 1.757291 g / cm^3
# Si number density = 17.612997 Si / 1000 Ang^3
#
#
#
# Elastic Constant Matrix: (Units=GPa)
#
#
# Indices 1 2 3 4 5 6 
#
# 1 76.8048 50.4560 30.2111 0.0000 0.0000 0.0000
# 2 50.4560 76.8048 30.2111 0.0000 0.0000 0.0000
# 3 30.2111 30.2111 91.8953 0.0000 0.0000 0.0000
# 4 0.0000 0.0000 0.0000 14.7849 0.0000 0.0000
# 5 0.0000 0.0000 0.0000 0.0000 14.7849 0.0000
# 6 0.0000 0.0000 0.0000 0.0000 0.0000 26.3301
#
#
#
# Elastic Compliance Matrix: (Units=1/GPa)
#
#
# Indices 1 2 3 4 5 6 
#
# 1 0.023632 -0.014321 -0.003061 0.000000 0.000000 0.000000
# 2 -0.014321 0.023632 -0.003061 0.000000 0.000000 0.000000
# 3 -0.003061 -0.003061 0.012895 0.000000 0.000000 0.000000
# 4 0.000000 0.000000 0.000000 0.067637 0.000000 0.000000
# 5 0.000000 0.000000 0.000000 0.000000 0.067637 0.000000
# 6 0.000000 0.000000 0.000000 0.000000 0.000000 0.037979
#
#
# Mechanical properties :
#
#
# Convention : Reuss Voigt Hill
#
# Bulk Modulus (GPa) = 51.88690 51.91794 51.90242
# Shear Modulus (GPa) = 17.81128 20.15508 18.98318
#
# Velocity S-wave (km/s) = 3.18348 3.38646 3.28654
# Velocity P-wave (km/s) = 6.56019 6.69566 6.62827
#
# Compressibility (1/GPa) = 0.01927269
#
# Stress axis : x y z
#
# Youngs Moduli (GPa) = 42.31587 42.31587 77.55130
#
# Poissons Ratio (x) = 0.60599 0.23740
# Poissons Ratio (y) = 0.60599 0.23740
# Poissons Ratio (z) = 0.12953 0.12953
#
# Static dielectric constant tensor:
#      x y z
#    x 3.091310 0.000000 0.000000 
#    y 0.000000 3.091310 0.000000 
#    z 0.000000 0.000000 3.762920 
# 
# 
# High freq. dielectric constant tensor:
#      x y z
#    x 1.652030 0.000000 0.000000 
#    y 0.000000 1.652030 0.000000 
#    z 0.000000 0.000000 1.699430 
# 
# From -- ./inp_files/10898.got.cif
#   From: 2010.03.12/outbox.cif.g09.slc.cpg/sg132_6_cif.got.tgz:10898.got - 2010.04.06 17:53:44.
