data_PCOD8316930
_publ_section_title
;
Structure prediction by ZEFSAII (Michael W. Deem and Ramdas Pophale) SiO2 
 PCOD8316930
Probable space group: P 42/N B C
;
_chemical_formula_sum "Si O2"
_cell_formula_units_Z 60
_cell_length_a 17.507942
_cell_length_b 17.507942
_cell_length_c 9.615709
_cell_angle_alpha 90.000000
_cell_angle_beta 90.000000
_cell_angle_gamma 90.000000
_cell_volume 2947.484366
_symmetry_space_group_name_H-M "P 42/N B C"
_symmetry_group_IT_number 133
_space_group.IT_coordinate_system_code '2'
_symmetry_cell_setting 'tetragonal'
loop_
_space_group_symop_operation_xyz
x,y,z
1/2-y,x,1/2+z
1/2-x,1/2-y,z
y,1/2-x,1/2+z
x,1/2-y,-z
1/2-x,y,-z
y,x,1/2-z
1/2-y,1/2-x,1/2-z
-x,-y,-z
1/2+y,-x,1/2-z
1/2+x,1/2+y,-z
-y,1/2+x,1/2-z
-x,1/2+y,z
1/2+x,-y,z
-y,-x,1/2+z
1/2+y,1/2+x,1/2+z
loop_
_atom_site_type_symbol
_atom_site_label
_atom_site_fract_x
_atom_site_fract_y
_atom_site_fract_z
Si Si1 0.592999 0.930609 0.596567
Si Si2 0.100959 0.943150 0.044198
Si Si3 0.184269 0.597165 0.682692
Si Si4 0.973609 0.750000 0.000000
Si Si5 0.250000 0.750000 0.750000
O O1 0.603230 0.896771 0.750000
O O2 0.530910 0.885375 0.503102
O O3 0.566157 0.018102 0.613164
O O4 0.675251 0.921890 0.522263
O O5 0.164470 0.918723 0.156116
O O6 0.105932 0.891921 0.906936
O O7 0.237842 0.527818 0.633818
O O8 0.234154 0.673711 0.660905
#
# Coordination Sequence:
#
# PCOD8316930 Si02
#       5
#    16  16  16   8   4
#     4  10  19  38  62  90 118 161 210 284 305 376
#     4  10  21  36  63  84 119 169 229 243 314 371
#     4  11  23  39  55  90 128 176 202 254 306 396
#     4  10  24  37  58  92 127 154 222 264 332 363
#     4  12  24  38  56  86 152 166 196 246 316 378
#
# _framework density 20.356344
#
# number of rings (size 3 to 8) (size 9 to 14) (size 15 to 20)
#    0.000    1.600    2.667    3.200    0.000    4.800 
#    0.000    0.000    0.000    0.000    0.000   11.200 
#    0.000    0.000    0.000    0.000    0.000    0.000 
#
# Total GULP energy -744080.209075 kJ/mol
# GULP energy per Si atom -12401.336818 kJ/mol
# Density = 2.031001 g / cm^3
# Si number density = 20.356344 Si / 1000 Ang^3
#
#
#
# Elastic Constant Matrix: (Units=GPa)
#
#
# Indices 1 2 3 4 5 6 
#
# 1 88.8634 22.0265 33.4544 0.0000 0.0000 0.0000
# 2 22.0265 88.8639 33.4548 0.0000 0.0000 0.0000
# 3 33.4544 33.4548 100.4793 0.0000 0.0000 0.0000
# 4 0.0000 0.0000 0.0000 20.6298 0.0000 0.0000
# 5 0.0000 0.0000 0.0000 0.0000 20.6296 0.0000
# 6 0.0000 0.0000 0.0000 0.0000 0.0000 32.9755
#
#
#
# Elastic Compliance Matrix: (Units=1/GPa)
#
#
# Indices 1 2 3 4 5 6 
#
# 1 0.013123 -0.001838 -0.003757 0.000000 0.000000 0.000000
# 2 -0.001838 0.013123 -0.003757 0.000000 0.000000 0.000000
# 3 -0.003757 -0.003757 0.012454 0.000000 0.000000 0.000000
# 4 0.000000 0.000000 0.000000 0.048474 0.000000 0.000000
# 5 0.000000 0.000000 0.000000 0.000000 0.048474 0.000000
# 6 0.000000 0.000000 0.000000 0.000000 0.000000 0.030326
#
#
# Mechanical properties :
#
#
# Convention : Reuss Voigt Hill
#
# Bulk Modulus (GPa) = 50.01249 50.67532 50.34391
# Shear Modulus (GPa) = 26.13073 27.46503 26.79788
#
# Velocity S-wave (km/s) = 3.58671 3.67715 3.63221
# Velocity P-wave (km/s) = 6.46332 6.55566 6.50966
#
# Compressibility (1/GPa) = 0.01999500
#
# Stress axis : x y z
#
# Youngs Moduli (GPa) = 76.19961 76.19993 80.29334
#
# Poissons Ratio (x) = 0.14008 0.30169
# Poissons Ratio (y) = 0.14008 0.30169
# Poissons Ratio (z) = 0.28631 0.28631
#
# Static dielectric constant tensor:
#      x y z
#    x 3.643020 0.000000 0.000000 
#    y 0.000000 3.643020 0.000000 
#    z 0.000000 0.000000 3.538820 
# 
# 
# High freq. dielectric constant tensor:
#      x y z
#    x 1.777010 0.000000 0.000000 
#    y 0.000000 1.777010 0.000000 
#    z 0.000000 0.000000 1.797670 
# 
# From -- ./inp_files/1328.got.cif
#   From: 2010.03.12/outbox.cif.g09.slc.cpg/sg133_1_cif.got.tgz:1328.got - 2010.04.06 18:08:06.
