data_PCOD8316049
_publ_section_title
;
Structure prediction by ZEFSAII (Michael W. Deem and Ramdas Pophale) SiO2 
 PCOD8316049
Probable space group: P 42/M M C
;
_chemical_formula_sum "Si O2"
_cell_formula_units_Z 80
_cell_length_a 17.599642
_cell_length_b 17.599642
_cell_length_c 17.454005
_cell_angle_alpha 90.000000
_cell_angle_beta 90.000000
_cell_angle_gamma 90.000000
_cell_volume 5406.332643
_symmetry_space_group_name_H-M "P 42/M M C"
_symmetry_group_IT_number 131
_symmetry_cell_setting 'tetragonal'
loop_
_space_group_symop_operation_xyz
x,y,z
-x,-y,z
-y,x,1/2+z
y,-x,1/2+z
-x,y,-z
x,-y,-z
y,x,1/2-z
-y,-x,1/2-z
-x,-y,-z
x,y,-z
y,-x,1/2-z
-y,x,1/2-z
x,-y,z
-x,y,z
-y,-x,1/2+z
y,x,1/2+z
loop_
_atom_site_type_symbol
_atom_site_label
_atom_site_fract_x
_atom_site_fract_y
_atom_site_fract_z
Si Si1 0.410727 0.718560 0.416043
Si Si2 0.000000 0.409462 0.086520
Si Si3 0.410984 0.653739 0.828240
Si Si4 0.831028 0.411669 0.348572
Si Si5 0.409341 0.912481 0.000000
Si Si6 0.409101 0.857230 0.682058
O O1 0.377066 0.736771 0.500000
O O2 0.500000 0.727995 0.417879
O O3 0.391260 0.631767 0.395192
O O4 0.377305 0.779023 0.355001
O O5 0.073494 0.378457 0.131081
O O6 0.000000 0.500000 0.085043
O O7 0.000000 0.377407 0.000000
O O8 0.372022 0.627978 0.750000
O O9 0.500000 0.633088 0.827315
O O10 0.397005 0.741585 0.846182
O O11 0.849415 0.500000 0.351451
O O12 0.870451 0.375277 0.424112
O O13 0.865768 0.378159 0.269203
O O14 0.500000 0.906606 0.000000
O O15 0.382548 0.000000 0.000000
O O16 0.500000 0.855150 0.683564
#
# Coordination Sequence:
#
# PCOD8316049 Si02
#       6
#    16   8  16  16   8  16
#     4  10  20  32  44  59  80 106 140 186 232 268
#     4   9  16  24  40  63  81  97 119 154 202 260
#     4  11  21  33  46  59  78 110 153 195 235 270
#     4   9  18  30  43  59  79 104 134 171 218 268
#     4   9  18  30  46  66  85 103 129 174 232 283
#     4   9  16  28  43  59  79 102 128 161 211 267
#
# _framework density 14.797461
#
# number of rings (size 3 to 8) (size 9 to 14) (size 15 to 20)
#    0.000    2.400    2.000    1.200    2.800    4.200 
#    0.000    1.000    0.000    0.000    0.000    0.000 
#    0.000    0.000    0.000    0.000    0.000    0.000 
#
# Total GULP energy -991383.662891 kJ/mol
# GULP energy per Si atom -12392.295786 kJ/mol
# Density = 1.476378 g / cm^3
# Si number density = 14.797461 Si / 1000 Ang^3
#
#
#
# Elastic Constant Matrix: (Units=GPa)
#
#
# Indices 1 2 3 4 5 6 
#
# 1 47.3955 17.1890 41.5241 0.0000 0.0000 0.0000
# 2 17.1890 47.3955 41.5241 0.0000 0.0000 0.0000
# 3 41.5241 41.5241 158.7010 0.0000 0.0000 0.0000
# 4 0.0000 0.0000 0.0000 19.6847 0.0000 0.0000
# 5 0.0000 0.0000 0.0000 0.0000 19.6847 0.0000
# 6 0.0000 0.0000 0.0000 0.0000 0.0000 0.7418
#
#
#
# Elastic Compliance Matrix: (Units=1/GPa)
#
#
# Indices 1 2 3 4 5 6 
#
# 1 0.028220 -0.004885 -0.006105 0.000000 0.000000 0.000000
# 2 -0.004885 0.028220 -0.006105 0.000000 0.000000 0.000000
# 3 -0.006105 -0.006105 0.009496 0.000000 0.000000 0.000000
# 4 0.000000 0.000000 0.000000 0.050801 0.000000 0.000000
# 5 0.000000 0.000000 0.000000 0.000000 0.050801 0.000000
# 6 0.000000 0.000000 0.000000 0.000000 0.000000 1.348050
#
#
# Mechanical properties :
#
#
# Convention : Reuss Voigt Hill
#
# Bulk Modulus (GPa) = 31.50268 50.44070 40.97169
# Shear Modulus (GPa) = 3.20439 18.23922 10.72180
#
# Velocity S-wave (km/s) = 1.47316 3.51464 2.69470
# Velocity P-wave (km/s) = 4.92230 7.11559 6.11803
#
# Compressibility (1/GPa) = 0.03174333
#
# Stress axis : x y z
#
# Youngs Moduli (GPa) = 35.43585 35.43585 105.30579
#
# Poissons Ratio (x) = 0.17312 0.64294
# Poissons Ratio (y) = 0.17312 0.64294
# Poissons Ratio (z) = 0.21635 0.21635
#
# Static dielectric constant tensor:
#      x y z
#    x 2.642030 0.000000 0.000000 
#    y 0.000000 2.642030 0.000000 
#    z 0.000000 0.000000 3.431840 
# 
# 
# High freq. dielectric constant tensor:
#      x y z
#    x 1.520520 0.000000 0.000000 
#    y 0.000000 1.520520 0.000000 
#    z 0.000000 0.000000 1.594800 
# 
# From -- ./inp_files/7824.got.cif
#   From: 2010.03.12/outbox.cif.g09.slc.cpg/sg131_4_cif.got.tgz:7824.got - 2010.04.06 17:36:35.
