data_PCOD8316492
_publ_section_title
;
Structure prediction by ZEFSAII (Michael W. Deem and Ramdas Pophale) SiO2 
 PCOD8316492
Probable space group: P 42/M C M
;
_chemical_formula_sum "Si O2"
_cell_formula_units_Z 120
_cell_length_a 21.452372
_cell_length_b 21.452372
_cell_length_c 13.403381
_cell_angle_alpha 90.000000
_cell_angle_beta 90.000000
_cell_angle_gamma 90.000000
_cell_volume 6168.293094
_symmetry_space_group_name_H-M "P 42/M C M"
_symmetry_group_IT_number 132
_symmetry_cell_setting 'tetragonal'
loop_
_space_group_symop_operation_xyz
x,y,z
-y,x,1/2+z
-x,-y,z
y,-x,1/2+z
x,-y,1/2-z
-x,y,1/2-z
y,x,-z
-y,-x,-z
-x,-y,-z
y,-x,1/2-z
x,y,-z
-y,x,1/2-z
-x,y,1/2+z
x,-y,1/2+z
-y,-x,z
y,x,z
loop_
_atom_site_type_symbol
_atom_site_label
_atom_site_fract_x
_atom_site_fract_y
_atom_site_fract_z
Si Si1 0.920075 0.356262 0.615633
Si Si2 0.736788 0.500000 0.250000
Si Si3 0.607326 0.709201 0.383965
Si Si4 0.851494 0.387842 0.116088
Si Si5 0.472155 0.154109 0.881429
Si Si6 0.933303 0.166736 0.223428
Si Si7 0.140834 0.764635 0.612714
Si Si8 0.704831 0.953611 0.381490
O O1 0.933902 0.367683 0.500000
O O2 0.897211 0.422678 0.659815
O O3 0.862684 0.308797 0.635132
O O4 0.982052 0.324577 0.662845
O O5 0.693864 0.452287 0.186211
O O6 0.779726 0.460381 0.327435
O O7 0.587867 0.702200 0.500000
O O8 0.663390 0.663390 0.355719
O O9 0.629421 0.779817 0.361433
O O10 0.867584 0.458358 0.150761
O O11 0.898024 0.337631 0.167293
O O12 0.865054 0.383481 0.000000
O O13 0.466094 0.164414 0.000000
O O14 0.886261 0.113740 0.180033
O O15 0.907112 0.194827 0.324824
O O16 0.942944 0.223362 0.146215
O O17 0.000000 0.135791 0.250000
O O18 0.118930 0.776896 0.500000
O O19 0.211705 0.788296 0.631437
O O20 0.701674 0.953888 0.500000
#
# Coordination Sequence:
#
# PCOD8316492 Si02
#       8
#    16   8  16  16  16  16  16  16
#     4   9  17  31  52  73 101 141 179 219 268 323
#     4  10  18  32  54  80 110 144 186 234 274 316
#     4   9  18  34  56  80 109 148 189 227 272 327
#     4   8  16  31  51  76 110 145 180 220 261 314
#     4   9  18  32  49  75 109 147 186 223 266 316
#     4  11  23  38  56  77  99 129 167 218 280 337
#     4   9  18  34  54  73  95 129 172 213 259 319
#     4  10  20  35  54  78 107 140 176 221 272 323
#
# _framework density 19.454326999999999
#
# number of rings (size 3 to 8) (size 9 to 14) (size 15 to 20)
#    0.000    2.667    1.333    1.200    0.000    3.600 
#    0.000    6.000    0.000    5.800    0.000    3.733 
#    0.000    0.000    0.000    0.000    0.000    0.000 
#
# Total GULP energy -1486921.266877 kJ/mol
# GULP energy per Si atom -12391.010557 kJ/mol
# Density = 1.941005 g / cm^3
# Si number density = 19.454327 Si / 1000 Ang^3
#
#
#
# Elastic Constant Matrix: (Units=GPa)
#
#
# Indices 1 2 3 4 5 6 
#
# 1 129.5060 98.6534 31.9149 0.0000 0.0000 0.0000
# 2 98.6534 129.5060 31.9149 0.0000 0.0000 0.0000
# 3 31.9149 31.9149 42.3469 0.0000 0.0000 0.0000
# 4 0.0000 0.0000 0.0000 22.4726 0.0000 0.0000
# 5 0.0000 0.0000 0.0000 0.0000 22.4726 0.0000
# 6 0.0000 0.0000 0.0000 0.0000 0.0000 41.4326
#
#
#
# Elastic Compliance Matrix: (Units=1/GPa)
#
#
# Indices 1 2 3 4 5 6 
#
# 1 0.018983 -0.013429 -0.004186 0.000000 0.000000 0.000000
# 2 -0.013429 0.018983 -0.004186 0.000000 0.000000 0.000000
# 3 -0.004186 -0.004186 0.029924 0.000000 0.000000 0.000000
# 4 0.000000 0.000000 0.000000 0.044499 0.000000 0.000000
# 5 0.000000 0.000000 0.000000 0.000000 0.044499 0.000000
# 6 0.000000 0.000000 0.000000 0.000000 0.000000 0.024136
#
#
# Mechanical properties :
#
#
# Convention : Reuss Voigt Hill
#
# Bulk Modulus (GPa) = 41.17165 69.59171 55.38168
# Shear Modulus (GPa) = 21.48506 26.53395 24.00951
#
# Velocity S-wave (km/s) = 3.32683 3.69712 3.51685
# Velocity P-wave (km/s) = 5.99719 7.35353 6.70972
#
# Compressibility (1/GPa) = 0.02428856
#
# Stress axis : x y z
#
# Youngs Moduli (GPa) = 52.67856 52.67856 33.41841
#
# Poissons Ratio (x) = 0.70743 0.13988
# Poissons Ratio (y) = 0.70743 0.13988
# Poissons Ratio (z) = 0.22050 0.22050
#
# Static dielectric constant tensor:
#      x y z
#    x 3.708860 0.000000 0.000000 
#    y 0.000000 3.708860 0.000000 
#    z 0.000000 0.000000 3.653340 
# 
# 
# High freq. dielectric constant tensor:
#      x y z
#    x 1.738420 0.000000 0.000000 
#    y 0.000000 1.738420 0.000000 
#    z 0.000000 0.000000 1.774430 
# 
# From -- ./inp_files/5130.got.cif
#   From: 2010.03.12/outbox.cif.g09.slc.cpg/sg132_3_cif.got.tgz:5130.got - 2010.04.06 17:53:44.
