data_PCOD8316923
_publ_section_title
;
Structure prediction by ZEFSAII (Michael W. Deem and Ramdas Pophale) SiO2 
 PCOD8316923
Probable space group: P 42/N B C
;
_chemical_formula_sum "Si O2"
_cell_formula_units_Z 104
_cell_length_a 17.003751
_cell_length_b 17.003751
_cell_length_c 18.753037
_cell_angle_alpha 90.000000
_cell_angle_beta 90.000000
_cell_angle_gamma 90.000000
_cell_volume 5422.019607
_symmetry_space_group_name_H-M "P 42/N B C"
_symmetry_group_IT_number 133
_space_group.IT_coordinate_system_code '2'
_symmetry_cell_setting 'tetragonal'
loop_
_space_group_symop_operation_xyz
x,y,z
1/2-y,x,1/2+z
1/2-x,1/2-y,z
y,1/2-x,1/2+z
x,1/2-y,-z
1/2-x,y,-z
y,x,1/2-z
1/2-y,1/2-x,1/2-z
-x,-y,-z
1/2+y,-x,1/2-z
1/2+x,1/2+y,-z
-y,1/2+x,1/2-z
-x,1/2+y,z
1/2+x,-y,z
-y,-x,1/2+z
1/2+y,1/2+x,1/2+z
loop_
_atom_site_type_symbol
_atom_site_label
_atom_site_fract_x
_atom_site_fract_y
_atom_site_fract_z
Si Si1 0.940283 0.525945 0.367498
Si Si2 0.620847 0.444865 0.775554
Si Si3 0.750000 0.916833 0.000000
Si Si4 0.370779 0.190444 0.934726
Si Si5 0.375323 0.027864 0.106070
Si Si6 0.795707 0.464078 0.759643
Si Si7 0.377005 0.191980 0.184102
O O1 0.906537 0.485509 0.297090
O O2 0.870074 0.557728 0.418279
O O3 0.999100 0.596390 0.342341
O O4 0.988402 0.459671 0.412532
O O5 0.712455 0.423357 0.772228
O O6 0.583685 0.358764 0.786921
O O7 0.708217 0.859422 0.055820
O O8 0.818835 0.968023 0.036843
O O9 0.345968 0.239924 0.866251
O O10 0.392804 0.250000 0.000000
O O11 0.391667 0.113097 0.139334
O O12 0.331082 0.974696 0.162429
O O13 0.777615 0.542698 0.717269
O O14 0.317654 0.182347 0.250000
#
# Coordination Sequence:
#
# PCOD8316923 Si02
#       7
#    16  16   8  16  16  16  16
#     4  10  21  38  61  85 116 159 207 240 293 365
#     4  10  19  35  61  90 119 147 196 253 297 352
#     4  12  25  40  56  82 133 154 196 244 309 364
#     4  12  24  40  57  89 125 159 195 253 303 369
#     4  10  21  39  60  85 118 160 196 245 298 368
#     4  10  19  36  60  90 119 147 195 253 299 358
#     4  10  20  39  62  85 122 158 193 243 307 357
#
# _framework density 19.181045000000001
#
# number of rings (size 3 to 8) (size 9 to 14) (size 15 to 20)
#    0.000    1.538    4.615    1.154    0.000    0.923 
#    0.000    3.846    0.000    0.000    0.000    0.000 
#    0.000    0.000    0.000    0.000    0.000    0.000 
#
# Total GULP energy -1289047.878592 kJ/mol
# GULP energy per Si atom -12394.691140 kJ/mol
# Density = 1.913739 g / cm^3
# Si number density = 19.181045 Si / 1000 Ang^3
#
#
#
# Elastic Constant Matrix: (Units=GPa)
#
#
# Indices 1 2 3 4 5 6 
#
# 1 142.5788 9.9447 41.7809 0.0000 0.0000 0.0000
# 2 9.9447 142.5858 41.7823 0.0000 0.0000 0.0000
# 3 41.7809 41.7823 78.6671 0.0000 0.0000 0.0000
# 4 0.0000 0.0000 0.0000 27.4607 0.0000 0.0000
# 5 0.0000 0.0000 0.0000 0.0000 27.4605 0.0000
# 6 0.0000 0.0000 0.0000 0.0000 0.0000 15.2457
#
#
#
# Elastic Compliance Matrix: (Units=1/GPa)
#
#
# Indices 1 2 3 4 5 6 
#
# 1 0.008393 0.000854 -0.004911 0.000000 0.000000 0.000000
# 2 0.000854 0.008393 -0.004911 0.000000 0.000000 0.000000
# 3 -0.004911 -0.004911 0.017929 0.000000 0.000000 0.000000
# 4 0.000000 0.000000 0.000000 0.036416 0.000000 0.000000
# 5 0.000000 0.000000 0.000000 0.000000 0.036416 0.000000
# 6 0.000000 0.000000 0.000000 0.000000 0.000000 0.065592
#
#
# Mechanical properties :
#
#
# Convention : Reuss Voigt Hill
#
# Bulk Modulus (GPa) = 59.60322 61.20528 60.40425
# Shear Modulus (GPa) = 25.42349 32.05496 28.73923
#
# Velocity S-wave (km/s) = 3.64462 4.09244 3.87501
# Velocity P-wave (km/s) = 6.98946 7.36948 7.18198
#
# Compressibility (1/GPa) = 0.01677762
#
# Stress axis : x y z
#
# Youngs Moduli (GPa) = 119.14279 119.14837 55.77674
#
# Poissons Ratio (x) = -0.10172 0.27393
# Poissons Ratio (y) = -0.10172 0.27393
# Poissons Ratio (z) = 0.58514 0.58515
#
# Static dielectric constant tensor:
#      x y z
#    x 3.581540 0.000000 0.000000 
#    y 0.000000 3.581540 0.000000 
#    z 0.000000 0.000000 3.465100 
# 
# 
# High freq. dielectric constant tensor:
#      x y z
#    x 1.743120 0.000000 0.000000 
#    y 0.000000 1.743120 0.000000 
#    z 0.000000 0.000000 1.735710 
# 
# From -- ./inp_files/5606.got.cif
#   From: 2010.03.12/outbox.cif.g09.slc.cpg/sg133_3_cif.got.tgz:5606.got - 2010.04.06 18:08:06.
