data_PCOD8316680
_publ_section_title
;
Structure prediction by ZEFSAII (Michael W. Deem and Ramdas Pophale) SiO2 
 PCOD8316680
Probable space group: P 42/M C M
;
_chemical_formula_sum "Si O2"
_cell_formula_units_Z 64
_cell_length_a 14.170749
_cell_length_b 14.170749
_cell_length_c 17.749447
_cell_angle_alpha 90.000000
_cell_angle_beta 90.000000
_cell_angle_gamma 90.000000
_cell_volume 3564.268710
_symmetry_space_group_name_H-M "P 42/M C M"
_symmetry_group_IT_number 132
_symmetry_cell_setting 'tetragonal'
loop_
_space_group_symop_operation_xyz
x,y,z
-y,x,1/2+z
-x,-y,z
y,-x,1/2+z
x,-y,1/2-z
-x,y,1/2-z
y,x,-z
-y,-x,-z
-x,-y,-z
y,-x,1/2-z
x,y,-z
-y,x,1/2-z
-x,y,1/2+z
x,-y,1/2+z
-y,-x,z
y,x,z
loop_
_atom_site_type_symbol
_atom_site_label
_atom_site_fract_x
_atom_site_fract_y
_atom_site_fract_z
Si Si1 0.894246 0.483107 0.338210
Si Si2 0.711883 0.137127 0.412830
Si Si3 0.193893 0.949865 0.089175
Si Si4 0.801192 0.652884 0.411437
O O1 0.893709 0.500000 0.250000
O O2 0.862448 0.377951 0.358876
O O3 0.815712 0.551840 0.373438
O O4 0.000000 0.500000 0.370819
O O5 0.682274 0.119025 0.500000
O O6 0.762431 0.237570 0.404131
O O7 0.785777 0.056524 0.384622
O O8 0.094296 0.905705 0.120153
O O9 0.279355 0.884560 0.118041
O O10 0.189740 0.945627 0.000000
O O11 0.807685 0.638366 0.500000
O O12 0.700062 0.700062 0.389807
#
# Coordination Sequence:
#
# PCOD8316680 Si02
#       4
#    16  16  16  16
#     4  11  22  34  51  76 106 141 179 215 261 311
#     4  10  20  33  52  79 109 140 174 219 270 311
#     4   8  14  26  46  74 106 138 171 206 249 302
#     4   9  17  31  54  79 100 131 176 220 259 301
#
# _framework density 17.955995999999999
#
# number of rings (size 3 to 8) (size 9 to 14) (size 15 to 20)
#    0.000    2.500    2.500    2.250    0.000    2.500 
#    0.000    2.500    0.000    0.750    0.000    5.250 
#    0.000    0.000    0.000    0.000    0.000    0.000 
#
# Total GULP energy -793160.812465 kJ/mol
# GULP energy per Si atom -12393.137695 kJ/mol
# Density = 1.791513 g / cm^3
# Si number density = 17.955996 Si / 1000 Ang^3
#
#
#
# Elastic Constant Matrix: (Units=GPa)
#
#
# Indices 1 2 3 4 5 6 
#
# 1 105.0557 60.2813 38.6856 0.0000 0.0000 0.0000
# 2 60.2813 105.0557 38.6856 0.0000 0.0000 0.0000
# 3 38.6856 38.6856 46.8713 0.0000 0.0000 0.0000
# 4 0.0000 0.0000 0.0000 0.5542 0.0000 0.0000
# 5 0.0000 0.0000 0.0000 0.0000 0.5542 0.0000
# 6 0.0000 0.0000 0.0000 0.0000 0.0000 24.8123
#
#
#
# Elastic Compliance Matrix: (Units=1/GPa)
#
#
# Indices 1 2 3 4 5 6 
#
# 1 0.016094 -0.006240 -0.008133 0.000000 0.000000 0.000000
# 2 -0.006240 0.016094 -0.008133 0.000000 0.000000 0.000000
# 3 -0.008133 -0.008133 0.034761 0.000000 0.000000 0.000000
# 4 0.000000 0.000000 0.000000 1.804245 0.000000 0.000000
# 5 0.000000 0.000000 0.000000 0.000000 1.804245 0.000000
# 6 0.000000 0.000000 0.000000 0.000000 0.000000 0.040303
#
#
# Mechanical properties :
#
#
# Convention : Reuss Voigt Hill
#
# Bulk Modulus (GPa) = 45.58687 59.14307 52.36497
# Shear Modulus (GPa) = 1.32694 13.13950 7.23322
#
# Velocity S-wave (km/s) = 0.86058 2.70804 2.00924
# Velocity P-wave (km/s) = 5.14108 6.54120 5.88294
#
# Compressibility (1/GPa) = 0.02193614
#
# Stress axis : x y z
#
# Youngs Moduli (GPa) = 62.13396 62.13396 28.76796
#
# Poissons Ratio (x) = 0.38771 0.23398
# Poissons Ratio (y) = 0.38771 0.23398
# Poissons Ratio (z) = 0.50536 0.50536
#
# Static dielectric constant tensor:
#      x y z
#    x 3.411150 0.000000 0.000000 
#    y 0.000000 3.411150 0.000000 
#    z 0.000000 0.000000 2.930440 
# 
# 
# High freq. dielectric constant tensor:
#      x y z
#    x 1.686350 0.000000 0.000000 
#    y 0.000000 1.686350 0.000000 
#    z 0.000000 0.000000 1.659760 
# 
# From -- ./inp_files/4397.got.cif
#   From: 2010.03.12/outbox.cif.g09.slc.cpg/sg132_3_cif.got.tgz:4397.got - 2010.04.06 17:53:44.
