data_PCOD8316618
_publ_section_title
;
Structure prediction by ZEFSAII (Michael W. Deem and Ramdas Pophale) SiO2 
 PCOD8316618
Probable space group: P 42/M C M
;
_chemical_formula_sum "Si O2"
_cell_formula_units_Z 104
_cell_length_a 17.467425
_cell_length_b 17.467425
_cell_length_c 18.269202
_cell_angle_alpha 90.000000
_cell_angle_beta 90.000000
_cell_angle_gamma 90.000000
_cell_volume 5574.133325
_symmetry_space_group_name_H-M "P 42/M C M"
_symmetry_group_IT_number 132
_symmetry_cell_setting 'tetragonal'
loop_
_space_group_symop_operation_xyz
x,y,z
-y,x,1/2+z
-x,-y,z
y,-x,1/2+z
x,-y,1/2-z
-x,y,1/2-z
y,x,-z
-y,-x,-z
-x,-y,-z
y,-x,1/2-z
x,y,-z
-y,x,1/2-z
-x,y,1/2+z
x,-y,1/2+z
-y,-x,z
y,x,z
loop_
_atom_site_type_symbol
_atom_site_label
_atom_site_fract_x
_atom_site_fract_y
_atom_site_fract_z
Si Si1 0.206668 0.677216 0.000000
Si Si2 0.314897 0.122498 0.348661
Si Si3 0.249010 0.625138 0.246471
Si Si4 0.452882 0.329472 0.500000
Si Si5 0.548221 0.075787 0.916624
Si Si6 0.037145 0.162991 0.324251
Si Si7 0.064280 0.064280 0.080858
Si Si8 0.761813 0.491649 0.369126
O O1 0.165219 0.663980 0.923832
O O2 0.235430 0.764571 0.000000
O O3 0.276258 0.619962 0.000000
O O4 0.320378 0.176959 0.277346
O O5 0.385496 0.062920 0.353835
O O6 0.232121 0.085225 0.357602
O O7 0.325636 0.674365 0.244827
O O8 0.238922 0.590383 0.327632
O O9 0.256367 0.558488 0.187782
O O10 0.417986 0.417986 0.500000
O O11 0.504786 0.306977 0.570859
O O12 0.499189 0.153027 0.902469
O O13 0.500000 0.000000 0.907318
O O14 0.580443 0.081237 0.000000
O O15 0.090408 0.090408 0.307204
O O16 0.000000 0.193226 0.250000
O O17 0.969362 0.138991 0.379090
O O18 0.089741 0.089741 0.000000
O O19 0.000000 0.000000 0.076611
#
# Coordination Sequence:
#
# PCOD8316618 Si02
#       8
#     8  16  16   8  16  16   8  16
#     4  11  18  30  54  86 116 133 169 243 296 323
#     4  11  21  35  55  87 111 142 191 240 291 338
#     4  10  20  35  54  80 114 148 182 235 287 339
#     4  11  18  32  61  88 114 149 194 238 281 336
#     4  10  19  35  56  82 116 145 174 223 288 349
#     4  11  22  37  57  78 112 154 193 239 297 351
#     4   9  20  36  56  80 104 144 196 238 288 354
#     4  10  19  34  56  83 113 148 190 222 284 353
#
# _framework density 18.657608
#
# number of rings (size 3 to 8) (size 9 to 14) (size 15 to 20)
#    0.000    1.615    5.385    1.846    1.077    1.231 
#    0.000    5.769    0.000    8.308    0.000    0.000 
#    0.000    0.000    0.000    0.000    0.000    0.000 
#
# Total GULP energy -1288667.905641 kJ/mol
# GULP energy per Si atom -12391.037554 kJ/mol
# Density = 1.861514 g / cm^3
# Si number density = 18.657608 Si / 1000 Ang^3
#
#
#
# Elastic Constant Matrix: (Units=GPa)
#
#
# Indices 1 2 3 4 5 6 
#
# 1 76.1177 39.2686 37.4506 0.0000 0.0000 0.0000
# 2 39.2686 76.1173 37.4505 0.0000 0.0000 0.0000
# 3 37.4506 37.4505 101.0735 0.0000 0.0000 0.0000
# 4 0.0000 0.0000 0.0000 4.2590 0.0000 0.0000
# 5 0.0000 0.0000 0.0000 0.0000 4.2541 0.0000
# 6 0.0000 0.0000 0.0000 0.0000 0.0000 26.8254
#
#
#
# Elastic Compliance Matrix: (Units=1/GPa)
#
#
# Indices 1 2 3 4 5 6 
#
# 1 0.019274 -0.007863 -0.004228 0.000000 0.000000 0.000000
# 2 -0.007863 0.019275 -0.004228 0.000000 0.000000 0.000000
# 3 -0.004228 -0.004228 0.013027 0.000000 0.000000 0.000000
# 4 0.000000 0.000000 0.000000 0.234797 0.000000 0.000000
# 5 0.000000 0.000000 0.000000 0.000000 0.235065 0.000000
# 6 0.000000 0.000000 0.000000 0.000000 0.000000 0.037278
#
#
# Mechanical properties :
#
#
# Convention : Reuss Voigt Hill
#
# Bulk Modulus (GPa) = 52.80714 53.51643 53.16178
# Shear Modulus (GPa) = 8.36585 16.34363 12.35474
#
# Velocity S-wave (km/s) = 2.11981 2.96290 2.57608
# Velocity P-wave (km/s) = 5.86142 6.36009 6.11584
#
# Compressibility (1/GPa) = 0.01893683
#
# Stress axis : x y z
#
# Youngs Moduli (GPa) = 51.88203 51.88179 76.76312
#
# Poissons Ratio (x) = 0.40796 0.32457
# Poissons Ratio (y) = 0.40797 0.32457
# Poissons Ratio (z) = 0.21937 0.21936
#
# Static dielectric constant tensor:
#      x y z
#    x 3.422410 0.000000 0.000000 
#    y 0.000000 3.422420 0.000000 
#    z 0.000000 0.000000 3.776480 
# 
# 
# High freq. dielectric constant tensor:
#      x y z
#    x 1.710290 0.000000 0.000000 
#    y 0.000000 1.710290 0.000000 
#    z 0.000000 0.000000 1.727610 
# 
# From -- ./inp_files/6626.got.cif
#   From: 2010.03.12/outbox.cif.g09.slc.cpg/sg132_4_cif.got.tgz:6626.got - 2010.04.06 17:53:44.
