data_PCOD8316039
_publ_section_title
;
Structure prediction by ZEFSAII (Michael W. Deem and Ramdas Pophale) SiO2 
 PCOD8316039
Probable space group: P 42/M M C
;
_chemical_formula_sum "Si O2"
_cell_formula_units_Z 96
_cell_length_a 24.836380
_cell_length_b 24.836380
_cell_length_c 9.105463
_cell_angle_alpha 90.000000
_cell_angle_beta 90.000000
_cell_angle_gamma 90.000000
_cell_volume 5616.666349
_symmetry_space_group_name_H-M "P 42/M M C"
_symmetry_group_IT_number 131
_symmetry_cell_setting 'tetragonal'
loop_
_space_group_symop_operation_xyz
x,y,z
-x,-y,z
-y,x,1/2+z
y,-x,1/2+z
-x,y,-z
x,-y,-z
y,x,1/2-z
-y,-x,1/2-z
-x,-y,-z
x,y,-z
y,-x,1/2-z
-y,x,1/2-z
x,-y,z
-x,y,z
-y,-x,1/2+z
y,x,1/2+z
loop_
_atom_site_type_symbol
_atom_site_label
_atom_site_fract_x
_atom_site_fract_y
_atom_site_fract_z
Si Si1 0.360039 0.436899 0.168462
Si Si2 0.631074 0.837375 0.669567
Si Si3 0.940886 0.760083 0.664818
Si Si4 0.757900 0.835933 0.330070
Si Si5 0.940783 0.367684 0.664316
Si Si6 0.437809 0.748748 0.828074
O O1 0.409574 0.409574 0.250000
O O2 0.369585 0.500000 0.182653
O O3 0.305061 0.419178 0.246106
O O4 0.357584 0.418124 0.000000
O O5 0.615899 0.829288 0.500000
O O6 0.694389 0.829585 0.697932
O O7 0.611689 0.896776 0.719495
O O8 0.599197 0.796018 0.769364
O O9 0.929860 0.781358 0.500000
O O10 0.893000 0.780520 0.769706
O O11 0.941726 0.696207 0.664843
O O12 0.000000 0.780844 0.719138
O O13 0.786476 0.786476 0.250000
O O14 0.772379 0.833454 0.500000
O O15 0.926228 0.388103 0.500000
O O16 0.000000 0.389511 0.710303
O O17 0.500000 0.762169 0.793558
O O18 0.427895 0.740804 0.000000
#
# Coordination Sequence:
#
# PCOD8316039 Si02
#       6
#    16  16  16  16  16  16
#     4  10  21  37  57  80 105 131 159 194 236 282
#     4  10  20  32  48  71  97 127 162 199 243 292
#     4   8  14  26  44  64  88 121 158 194 234 280
#     4  10  20  31  44  66  97 130 161 195 236 281
#     4   8  14  26  45  68  93 122 157 196 238 286
#     4  10  21  37  56  75  96 126 164 203 241 284
#
# _framework density 17.091989999999999
#
# number of rings (size 3 to 8) (size 9 to 14) (size 15 to 20)
#    0.000    2.667    0.000    3.000    0.000    5.500 
#    0.000    5.833    0.000    0.500    0.000    3.500 
#    0.000    0.333    0.000    3.500    0.000    1.833 
#
# Total GULP energy -1190144.232900 kJ/mol
# GULP energy per Si atom -12397.335759 kJ/mol
# Density = 1.705309 g / cm^3
# Si number density = 17.091990 Si / 1000 Ang^3
#
#
#
# Elastic Constant Matrix: (Units=GPa)
#
#
# Indices 1 2 3 4 5 6 
#
# 1 63.5280 41.8027 49.8354 0.0000 0.0000 0.0000
# 2 41.8027 63.5280 49.8354 0.0000 0.0000 0.0000
# 3 49.8354 49.8354 117.3689 0.0000 0.0000 0.0000
# 4 0.0000 0.0000 0.0000 29.1986 0.0000 0.0000
# 5 0.0000 0.0000 0.0000 0.0000 29.1986 0.0000
# 6 0.0000 0.0000 0.0000 0.0000 0.0000 -1.9259
#
#
#
# Elastic Compliance Matrix: (Units=1/GPa)
#
#
# Indices 1 2 3 4 5 6 
#
# 1 0.030950 -0.015079 -0.006739 0.000000 0.000000 0.000000
# 2 -0.015079 0.030950 -0.006739 0.000000 0.000000 0.000000
# 3 -0.006739 -0.006739 0.014243 0.000000 0.000000 0.000000
# 4 0.000000 0.000000 0.000000 0.034248 0.000000 0.000000
# 5 0.000000 0.000000 0.000000 0.000000 0.034248 0.000000
# 6 0.000000 0.000000 0.000000 0.000000 0.000000 -0.519244
#
#
# Mechanical properties :
#
#
# Convention : Reuss Voigt Hill
#
# Bulk Modulus (GPa) = 52.55154 58.59687 55.57421
# Shear Modulus (GPa) = -16.06947 18.15771 1.04412
#
# Velocity S-wave (km/s) = -3.06955 3.26291 0.78244
# Velocity P-wave (km/s) = 4.27202 6.96801 5.77941
#
# Compressibility (1/GPa) = 0.01902894
#
# Stress axis : x y z
#
# Youngs Moduli (GPa) = 32.31037 32.31037 70.21145
#
# Poissons Ratio (x) = 0.48722 0.47313
# Poissons Ratio (y) = 0.48722 0.47313
# Poissons Ratio (z) = 0.21773 0.21773
#
# Static dielectric constant tensor:
#      x y z
#    x 3.186100 0.000000 0.000000 
#    y 0.000000 3.186100 0.000000 
#    z 0.000000 0.000000 3.382010 
# 
# 
# High freq. dielectric constant tensor:
#      x y z
#    x 1.641710 0.000000 0.000000 
#    y 0.000000 1.641710 0.000000 
#    z 0.000000 0.000000 1.671170 
# 
# From -- ./inp_files/2179.got.cif
#   From: 2010.03.12/outbox.cif.g09.slc.cpg/sg131_2_cif.got.tgz:2179.got - 2010.04.06 17:36:35.
