data_PCOD8316456
_publ_section_title
;
Structure prediction by ZEFSAII (Michael W. Deem and Ramdas Pophale) SiO2 
 PCOD8316456
Probable space group: P 42/M C M
;
_chemical_formula_sum "Si O2"
_cell_formula_units_Z 96
_cell_length_a 16.811881
_cell_length_b 16.811881
_cell_length_c 22.900617
_cell_angle_alpha 90.000000
_cell_angle_beta 90.000000
_cell_angle_gamma 90.000000
_cell_volume 6472.615338
_symmetry_space_group_name_H-M "P 42/M C M"
_symmetry_group_IT_number 132
_symmetry_cell_setting 'tetragonal'
loop_
_space_group_symop_operation_xyz
x,y,z
-y,x,1/2+z
-x,-y,z
y,-x,1/2+z
x,-y,1/2-z
-x,y,1/2-z
y,x,-z
-y,-x,-z
-x,-y,-z
y,-x,1/2-z
x,y,-z
-y,x,1/2-z
-x,y,1/2+z
x,-y,1/2+z
-y,-x,z
y,x,z
loop_
_atom_site_type_symbol
_atom_site_label
_atom_site_fract_x
_atom_site_fract_y
_atom_site_fract_z
Si Si1 0.283912 0.842284 0.367482
Si Si2 0.763703 0.888382 0.623968
Si Si3 0.572597 0.892002 0.067954
Si Si4 0.075018 0.602025 0.067367
Si Si5 0.170618 0.043973 0.067582
Si Si6 0.782309 0.091575 0.255247
O O1 0.245502 0.754499 0.360114
O O2 0.374351 0.834333 0.391031
O O3 0.236467 0.890827 0.416781
O O4 0.282639 0.889434 0.305530
O O5 0.812913 0.812913 0.600213
O O6 0.675748 0.884424 0.598743
O O7 0.750899 0.879548 0.693055
O O8 0.815084 0.966688 0.607412
O O9 0.481041 0.886600 0.089154
O O10 0.603836 0.981138 0.078504
O O11 0.580193 0.868187 0.000000
O O12 0.093549 0.611188 0.000000
O O13 0.082875 0.082875 0.078411
O O14 0.181290 0.019776 0.000000
O O15 0.863228 0.136773 0.273729
O O16 0.803154 0.000000 0.250000
#
# Coordination Sequence:
#
# PCOD8316456 Si02
#       6
#    16  16  16  16  16  16
#     4  10  18  29  45  64  86 109 139 181 222 256
#     4  11  21  31  44  60  85 117 149 182 214 252
#     4   9  16  28  47  65  84 109 137 175 219 267
#     4   9  17  29  44  63  85 110 142 175 214 261
#     4  10  19  29  42  60  82 109 143 181 219 255
#     4  10  19  30  43  58  80 116 154 184 213 249
#
# _framework density 14.831716999999999
#
# number of rings (size 3 to 8) (size 9 to 14) (size 15 to 20)
#    0.000    2.167    3.333    2.000    0.000    2.833 
#    0.000    3.333    0.000    3.000    0.000    0.000 
#    0.000    0.667    0.000    3.667    0.000    9.333 
#
# Total GULP energy -1189956.906798 kJ/mol
# GULP energy per Si atom -12395.384446 kJ/mol
# Density = 1.479796 g / cm^3
# Si number density = 14.831717 Si / 1000 Ang^3
#
#
#
# Elastic Constant Matrix: (Units=GPa)
#
#
# Indices 1 2 3 4 5 6 
#
# 1 80.3714 35.7208 31.1540 0.0000 0.0000 0.0000
# 2 35.7208 80.3714 31.1540 0.0000 0.0000 0.0000
# 3 31.1540 31.1540 71.0626 0.0000 0.0000 0.0000
# 4 0.0000 0.0000 0.0000 20.0818 0.0000 0.0000
# 5 0.0000 0.0000 0.0000 0.0000 20.0818 0.0000
# 6 0.0000 0.0000 0.0000 0.0000 0.0000 13.1065
#
#
#
# Elastic Compliance Matrix: (Units=1/GPa)
#
#
# Indices 1 2 3 4 5 6 
#
# 1 0.016830 -0.005566 -0.004938 0.000000 0.000000 0.000000
# 2 -0.005566 0.016830 -0.004938 0.000000 0.000000 0.000000
# 3 -0.004938 -0.004938 0.018402 0.000000 0.000000 0.000000
# 4 0.000000 0.000000 0.000000 0.049796 0.000000 0.000000
# 5 0.000000 0.000000 0.000000 0.000000 0.049796 0.000000
# 6 0.000000 0.000000 0.000000 0.000000 0.000000 0.076298
#
#
# Mechanical properties :
#
#
# Convention : Reuss Voigt Hill
#
# Bulk Modulus (GPa) = 47.22010 47.54034 47.38022
# Shear Modulus (GPa) = 18.80424 19.57244 19.18834
#
# Velocity S-wave (km/s) = 3.56454 3.63662 3.60076
# Velocity P-wave (km/s) = 6.98910 7.05380 7.02153
#
# Compressibility (1/GPa) = 0.02117742
#
# Stress axis : x y z
#
# Youngs Moduli (GPa) = 59.41701 59.41701 54.34182
#
# Poissons Ratio (x) = 0.33071 0.26836
# Poissons Ratio (y) = 0.33071 0.26836
# Poissons Ratio (z) = 0.29342 0.29342
#
# Static dielectric constant tensor:
#      x y z
#    x 2.758140 0.000000 0.000000 
#    y 0.000000 2.758140 0.000000 
#    z 0.000000 0.000000 2.982240 
# 
# 
# High freq. dielectric constant tensor:
#      x y z
#    x 1.538060 0.000000 0.000000 
#    y 0.000000 1.538060 0.000000 
#    z 0.000000 0.000000 1.576220 
# 
# From -- ./inp_files/8062.got.cif
#   From: 2010.03.12/outbox.cif.g09.slc.cpg/sg132_5_cif.got.tgz:8062.got - 2010.04.06 17:53:44.
