data_PCOD8316149
_publ_section_title
;
Structure prediction by ZEFSAII (Michael W. Deem and Ramdas Pophale) SiO2 
 PCOD8316149
Probable space group: P 42/M M C
;
_chemical_formula_sum "Si O2"
_cell_formula_units_Z 56
_cell_length_a 14.583158
_cell_length_b 14.583158
_cell_length_c 14.259853
_cell_angle_alpha 90.000000
_cell_angle_beta 90.000000
_cell_angle_gamma 90.000000
_cell_volume 3032.621509
_symmetry_space_group_name_H-M "P 42/M M C"
_symmetry_group_IT_number 131
_symmetry_cell_setting 'tetragonal'
loop_
_space_group_symop_operation_xyz
x,y,z
-x,-y,z
-y,x,1/2+z
y,-x,1/2+z
-x,y,-z
x,-y,-z
y,x,1/2-z
-y,-x,1/2-z
-x,-y,-z
x,y,-z
y,-x,1/2-z
-y,x,1/2-z
x,-y,z
-x,y,z
-y,-x,1/2+z
y,x,1/2+z
loop_
_atom_site_type_symbol
_atom_site_label
_atom_site_fract_x
_atom_site_fract_y
_atom_site_fract_z
Si Si1 0.391694 0.391694 0.750000
Si Si2 0.668761 0.899024 0.602942
Si Si3 0.736605 0.703880 0.606758
Si Si4 0.102732 0.399208 0.699359
O O1 0.371268 0.500000 0.745418
O O2 0.350723 0.341346 0.658564
O O3 0.620231 0.890723 0.500000
O O4 0.739208 0.814501 0.613379
O O5 0.596577 0.890397 0.687356
O O6 0.717832 0.000000 0.609799
O O7 0.732975 0.669437 0.500000
O O8 0.830583 0.674846 0.655324
O O9 0.129889 0.500000 0.662614
O O10 0.000000 0.373648 0.667458
#
# Coordination Sequence:
#
# PCOD8316149 Si02
#       4
#     8  16  16  16
#     4  11  24  40  56  78 110 147 192 236 270 319
#     4   9  18  33  55  82 109 141 184 232 282 333
#     4  11  22  37  58  81 110 149 187 228 281 337
#     4  10  20  34  54  81 113 147 185 232 284 336
#
# _framework density 18.465871
#
# number of rings (size 3 to 8) (size 9 to 14) (size 15 to 20)
#    0.000    1.857    2.857    0.857    0.000    4.000 
#    0.000    8.571    0.000    0.857    0.000    8.000 
#    0.000    0.000    0.000    0.000    0.000    0.571 
#
# Total GULP energy -693779.413990 kJ/mol
# GULP energy per Si atom -12388.918107 kJ/mol
# Density = 1.842384 g / cm^3
# Si number density = 18.465871 Si / 1000 Ang^3
#
#
#
# Elastic Constant Matrix: (Units=GPa)
#
#
# Indices 1 2 3 4 5 6 
#
# 1 121.0769 57.0763 43.2342 0.0000 0.0000 0.0000
# 2 57.0763 121.0769 43.2342 0.0000 0.0000 0.0000
# 3 43.2342 43.2342 120.7192 0.0000 0.0000 0.0000
# 4 0.0000 0.0000 0.0000 19.2123 0.0000 0.0000
# 5 0.0000 0.0000 0.0000 0.0000 19.2123 0.0000
# 6 0.0000 0.0000 0.0000 0.0000 0.0000 18.1273
#
#
#
# Elastic Compliance Matrix: (Units=1/GPa)
#
#
# Indices 1 2 3 4 5 6 
#
# 1 0.011209 -0.004415 -0.002433 0.000000 0.000000 0.000000
# 2 -0.004415 0.011209 -0.002433 0.000000 0.000000 0.000000
# 3 -0.002433 -0.002433 0.010027 0.000000 0.000000 0.000000
# 4 0.000000 0.000000 0.000000 0.052050 0.000000 0.000000
# 5 0.000000 0.000000 0.000000 0.000000 0.052050 0.000000
# 6 0.000000 0.000000 0.000000 0.000000 0.000000 0.055166
#
#
# Mechanical properties :
#
#
# Convention : Reuss Voigt Hill
#
# Bulk Modulus (GPa) = 72.03635 72.21802 72.12719
# Shear Modulus (GPa) = 23.26644 25.93228 24.59936
#
# Velocity S-wave (km/s) = 3.55346 3.75151 3.65383
# Velocity P-wave (km/s) = 7.47872 7.61308 7.54620
#
# Compressibility (1/GPa) = 0.01388188
#
# Stress axis : x y z
#
# Youngs Moduli (GPa) = 89.21007 89.21007 99.73506
#
# Poissons Ratio (x) = 0.39389 0.24268
# Poissons Ratio (y) = 0.39389 0.24268
# Poissons Ratio (z) = 0.21707 0.21707
#
# Static dielectric constant tensor:
#      x y z
#    x 3.388250 0.000000 0.000000 
#    y 0.000000 3.388250 0.000000 
#    z 0.000000 0.000000 3.652020 
# 
# 
# High freq. dielectric constant tensor:
#      x y z
#    x 1.704830 0.000000 0.000000 
#    y 0.000000 1.704830 0.000000 
#    z 0.000000 0.000000 1.730610 
# 
# From -- ./inp_files/5272.got.cif
#   From: 2010.03.12/outbox.cif.g09.slc.cpg/sg131_3_cif.got.tgz:5272.got - 2010.04.06 17:36:35.
