data_PCOD8316654
_publ_section_title
;
Structure prediction by ZEFSAII (Michael W. Deem and Ramdas Pophale) SiO2 
 PCOD8316654
Probable space group: P 42/M C M
;
_chemical_formula_sum "Si O2"
_cell_formula_units_Z 80
_cell_length_a 12.403075
_cell_length_b 12.403075
_cell_length_c 27.830339
_cell_angle_alpha 90.000000
_cell_angle_beta 90.000000
_cell_angle_gamma 90.000000
_cell_volume 4281.315529
_symmetry_space_group_name_H-M "P 42/M C M"
_symmetry_group_IT_number 132
_symmetry_cell_setting 'tetragonal'
loop_
_space_group_symop_operation_xyz
x,y,z
-y,x,1/2+z
-x,-y,z
y,-x,1/2+z
x,-y,1/2-z
-x,y,1/2-z
y,x,-z
-y,-x,-z
-x,-y,-z
y,-x,1/2-z
x,y,-z
-y,x,1/2-z
-x,y,1/2+z
x,-y,1/2+z
-y,-x,z
y,x,z
loop_
_atom_site_type_symbol
_atom_site_label
_atom_site_fract_x
_atom_site_fract_y
_atom_site_fract_z
Si Si1 0.675883 0.501504 0.099452
Si Si2 0.435680 0.888609 0.052507
Si Si3 0.172245 0.001026 0.306180
Si Si4 0.617899 0.945316 0.349140
Si Si5 0.562708 0.738613 0.298618
O O1 0.610527 0.389474 0.090934
O O2 0.602749 0.602749 0.084736
O O3 0.783105 0.507233 0.066343
O O4 0.706909 0.512296 0.155878
O O5 0.353468 0.903115 0.096904
O O6 0.500000 0.000000 0.049165
O O7 0.381380 0.868138 0.000000
O O8 0.113783 0.113783 0.320577
O O9 0.284351 0.977938 0.333902
O O10 0.194801 0.000000 0.250000
O O11 0.096757 0.903244 0.321730
O O12 0.625343 0.847329 0.311850
O O13 0.500000 0.000000 0.347023
O O14 0.500000 0.761765 0.250000
O O15 0.644541 0.644541 0.286359
#
# Coordination Sequence:
#
# PCOD8316654 Si02
#       5
#    16  16  16  16  16
#     4   9  18  33  53  79 108 136 175 223 265 311
#     4   9  19  37  55  73 103 142 180 218 267 320
#     4   9  19  36  57  78 103 140 179 215 259 310
#     4  10  21  35  53  80 108 135 175 223 265 310
#     4  10  20  32  49  74 108 148 177 205 254 317
#
# _framework density 18.685845
#
# number of rings (size 3 to 8) (size 9 to 14) (size 15 to 20)
#    0.000    2.600    0.000    1.800    2.800    2.600 
#    0.000   10.000    0.000    1.800    0.000    1.400 
#    0.000    0.000    0.000    0.000    0.000    0.000 
#
# Total GULP energy -991102.655054 kJ/mol
# GULP energy per Si atom -12388.783188 kJ/mol
# Density = 1.864331 g / cm^3
# Si number density = 18.685845 Si / 1000 Ang^3
#
#
#
# Elastic Constant Matrix: (Units=GPa)
#
#
# Indices 1 2 3 4 5 6 
#
# 1 101.7001 28.8597 50.0529 0.0000 0.0000 0.0000
# 2 28.8597 101.7001 50.0529 0.0000 0.0000 0.0000
# 3 50.0529 50.0529 136.9094 0.0000 0.0000 0.0000
# 4 0.0000 0.0000 0.0000 1.6902 0.0000 0.0000
# 5 0.0000 0.0000 0.0000 0.0000 1.6902 0.0000
# 6 0.0000 0.0000 0.0000 0.0000 0.0000 15.3762
#
#
#
# Elastic Compliance Matrix: (Units=1/GPa)
#
#
# Indices 1 2 3 4 5 6 
#
# 1 0.012186 -0.001543 -0.003891 0.000000 0.000000 0.000000
# 2 -0.001543 0.012186 -0.003891 0.000000 0.000000 0.000000
# 3 -0.003891 -0.003891 0.010149 0.000000 0.000000 0.000000
# 4 0.000000 0.000000 0.000000 0.591644 0.000000 0.000000
# 5 0.000000 0.000000 0.000000 0.000000 0.591644 0.000000
# 6 0.000000 0.000000 0.000000 0.000000 0.000000 0.065036
#
#
# Mechanical properties :
#
#
# Convention : Reuss Voigt Hill
#
# Bulk Modulus (GPa) = 63.00860 66.47116 64.73988
# Shear Modulus (GPa) = 3.82619 17.84094 10.83356
#
# Velocity S-wave (km/s) = 1.43251 3.09331 2.41046
# Velocity P-wave (km/s) = 6.04395 6.95761 6.51681
#
# Compressibility (1/GPa) = 0.01587085
#
# Stress axis : x y z
#
# Youngs Moduli (GPa) = 82.06397 82.06397 98.53176
#
# Poissons Ratio (x) = 0.12663 0.38337
# Poissons Ratio (y) = 0.12663 0.38337
# Poissons Ratio (z) = 0.31930 0.31930
#
# Static dielectric constant tensor:
#      x y z
#    x 3.379060 0.000000 0.000000 
#    y 0.000000 3.379060 0.000000 
#    z 0.000000 0.000000 3.764200 
# 
# 
# High freq. dielectric constant tensor:
#      x y z
#    x 1.713850 0.000000 0.000000 
#    y 0.000000 1.713850 0.000000 
#    z 0.000000 0.000000 1.725980 
# 
# From -- ./inp_files/10616.got.cif
#   From: 2010.03.12/outbox.cif.g09.slc.cpg/sg132_6_cif.got.tgz:10616.got - 2010.04.06 17:53:44.
