data_PCOD8316211
_publ_section_title
;
Structure prediction by ZEFSAII (Michael W. Deem and Ramdas Pophale) SiO2 
 PCOD8316211
Probable space group: P 42/M M C
;
_chemical_formula_sum "Si O2"
_cell_formula_units_Z 88
_cell_length_a 14.347404
_cell_length_b 14.347404
_cell_length_c 21.058675
_cell_angle_alpha 90.000000
_cell_angle_beta 90.000000
_cell_angle_gamma 90.000000
_cell_volume 4334.886164
_symmetry_space_group_name_H-M "P 42/M M C"
_symmetry_group_IT_number 131
_symmetry_cell_setting 'tetragonal'
loop_
_space_group_symop_operation_xyz
x,y,z
-x,-y,z
-y,x,1/2+z
y,-x,1/2+z
-x,y,-z
x,-y,-z
y,x,1/2-z
-y,-x,1/2-z
-x,-y,-z
x,y,-z
y,-x,1/2-z
-y,x,1/2-z
x,-y,z
-x,y,z
-y,-x,1/2+z
y,x,1/2+z
loop_
_atom_site_type_symbol
_atom_site_label
_atom_site_fract_x
_atom_site_fract_y
_atom_site_fract_z
Si Si1 0.107760 0.607650 0.131771
Si Si2 0.391577 0.390888 0.322500
Si Si3 0.706226 0.265060 0.571910
Si Si4 0.500000 0.103809 0.925776
Si Si5 0.894835 0.693992 0.615824
Si Si6 0.256291 0.103030 0.742859
O O1 0.129814 0.500000 0.146196
O O2 0.169951 0.645861 0.073942
O O3 0.139722 0.667601 0.192991
O O4 0.000000 0.621782 0.114234
O O5 0.362568 0.362568 0.250000
O O6 0.373625 0.500000 0.332638
O O7 0.500000 0.367063 0.333252
O O8 0.331779 0.336153 0.374927
O O9 0.697676 0.305013 0.500000
O O10 0.815275 0.237411 0.587584
O O11 0.405741 0.151284 0.902042
O O12 0.500000 0.000000 0.896861
O O13 0.500000 0.103086 0.000000
O O14 0.901732 0.692488 0.690625
O O15 0.000000 0.711679 0.586816
O O16 0.166756 0.166756 0.750000
O O17 0.221264 0.000000 0.722809
#
# Coordination Sequence:
#
# PCOD8316211 Si02
#       6
#    16  16  16   8  16  16
#     4  10  23  42  63  88 122 161 206 258 308 359
#     4   9  21  42  64  87 120 163 205 248 305 371
#     4  12  25  39  62  93 123 159 206 256 308 367
#     4   9  18  34  54  80 119 163 202 238 290 363
#     4  10  22  38  59  87 123 162 199 248 306 370
#     4  10  20  38  63  93 123 153 198 251 307 368
#
# _framework density 20.300419000000002
#
# number of rings (size 3 to 8) (size 9 to 14) (size 15 to 20)
#    0.000    1.909    1.818    1.636    5.091    3.455 
#    0.000    1.818    0.000    0.545    0.000    1.273 
#    0.000    0.000    0.000    0.000    0.000    0.000 
#
# Total GULP energy -1090540.708077 kJ/mol
# GULP energy per Si atom -12392.508046 kJ/mol
# Density = 2.025421 g / cm^3
# Si number density = 20.300419 Si / 1000 Ang^3
#
#
#
# Elastic Constant Matrix: (Units=GPa)
#
#
# Indices 1 2 3 4 5 6 
#
# 1 103.4855 53.6911 43.1725 0.0000 0.0000 0.0000
# 2 53.6911 103.4855 43.1725 0.0000 0.0000 0.0000
# 3 43.1725 43.1725 120.7843 0.0000 0.0000 0.0000
# 4 0.0000 0.0000 0.0000 23.7339 0.0000 0.0000
# 5 0.0000 0.0000 0.0000 0.0000 23.7339 0.0000
# 6 0.0000 0.0000 0.0000 0.0000 0.0000 30.4101
#
#
#
# Elastic Compliance Matrix: (Units=1/GPa)
#
#
# Indices 1 2 3 4 5 6 
#
# 1 0.014000 -0.006083 -0.002830 0.000000 0.000000 0.000000
# 2 -0.006083 0.014000 -0.002830 0.000000 0.000000 0.000000
# 3 -0.002830 -0.002830 0.010302 0.000000 0.000000 0.000000
# 4 0.000000 0.000000 0.000000 0.042134 0.000000 0.000000
# 5 0.000000 0.000000 0.000000 0.000000 0.042134 0.000000
# 6 0.000000 0.000000 0.000000 0.000000 0.000000 0.032884
#
#
# Mechanical properties :
#
#
# Convention : Reuss Voigt Hill
#
# Bulk Modulus (GPa) = 67.49121 67.53640 67.51380
# Shear Modulus (GPa) = 27.19214 28.09017 27.64116
#
# Velocity S-wave (km/s) = 3.66387 3.72388 3.69400
# Velocity P-wave (km/s) = 7.15660 7.19933 7.17800
#
# Compressibility (1/GPa) = 0.01481674
#
# Stress axis : x y z
#
# Youngs Moduli (GPa) = 71.43013 71.43013 97.06739
#
# Poissons Ratio (x) = 0.43450 0.27468
# Poissons Ratio (y) = 0.43450 0.27468
# Poissons Ratio (z) = 0.20213 0.20213
#
# Static dielectric constant tensor:
#      x y z
#    x 3.855780 0.000000 0.000000 
#    y 0.000000 3.855780 0.000000 
#    z 0.000000 0.000000 3.666870 
# 
# 
# High freq. dielectric constant tensor:
#      x y z
#    x 1.792600 0.000000 0.000000 
#    y 0.000000 1.792600 0.000000 
#    z 0.000000 0.000000 1.786490 
# 
# From -- ./inp_files/9585.got.cif
#   From: 2010.03.12/outbox.cif.g09.slc.cpg/sg131_5_cif.got.tgz:9585.got - 2010.04.06 17:36:35.
