data_PCOD8316956
_publ_section_title
;
Structure prediction by ZEFSAII (Michael W. Deem and Ramdas Pophale) SiO2 
 PCOD8316956
Probable space group: P 42/N B C
;
_chemical_formula_sum "Si O2"
_cell_formula_units_Z 120
_cell_length_a 20.470897
_cell_length_b 20.470897
_cell_length_c 15.191504
_cell_angle_alpha 90.000000
_cell_angle_beta 90.000000
_cell_angle_gamma 90.000000
_cell_volume 6366.115571
_symmetry_space_group_name_H-M "P 42/N B C"
_symmetry_group_IT_number 133
_space_group.IT_coordinate_system_code '2'
_symmetry_cell_setting 'tetragonal'
loop_
_space_group_symop_operation_xyz
x,y,z
1/2-y,x,1/2+z
1/2-x,1/2-y,z
y,1/2-x,1/2+z
x,1/2-y,-z
1/2-x,y,-z
y,x,1/2-z
1/2-y,1/2-x,1/2-z
-x,-y,-z
1/2+y,-x,1/2-z
1/2+x,1/2+y,-z
-y,1/2+x,1/2-z
-x,1/2+y,z
1/2+x,-y,z
-y,-x,1/2+z
1/2+y,1/2+x,1/2+z
loop_
_atom_site_type_symbol
_atom_site_label
_atom_site_fract_x
_atom_site_fract_y
_atom_site_fract_z
Si Si1 0.177413 0.031557 0.022459
Si Si2 0.883931 0.310814 0.552841
Si Si3 0.783797 0.148315 0.755717
Si Si4 0.041980 0.039804 0.928830
Si Si5 0.543350 0.158537 0.046292
Si Si6 0.293121 0.531193 0.363047
Si Si7 0.640853 0.545385 0.781363
Si Si8 0.503823 0.996177 0.250000
O O1 0.176448 0.953985 0.009707
O O2 0.168693 0.053351 0.122090
O O3 0.250000 0.059557 0.000000
O O4 0.115855 0.056477 0.962585
O O5 0.849699 0.250000 0.500000
O O6 0.892286 0.289911 0.654162
O O7 0.843866 0.377827 0.547497
O O8 0.709415 0.168578 0.741548
O O9 0.804524 0.103523 0.674683
O O10 0.997764 0.102503 0.907185
O O11 0.045440 0.005733 0.832611
O O12 0.000000 0.000000 0.000000
O O13 0.521373 0.221310 0.099810
O O14 0.521161 0.157447 0.944121
O O15 0.304255 0.478144 0.286947
O O16 0.616662 0.616662 0.750000
O O17 0.579366 0.494513 0.781812
#
# Coordination Sequence:
#
# PCOD8316956 Si02
#       8
#    16  16  16  16  16  16  16   8
#     4  11  23  38  61  90 128 160 199 259 327 384
#     4  11  21  36  52  82 116 161 210 258 306 365
#     4  11  22  36  51  76 115 167 216 255 293 360
#     4  12  21  41  60  92 127 157 212 268 322 387
#     4  11  23  38  57  83 121 166 205 272 315 369
#     4  11  22  37  56  83 118 163 215 259 313 378
#     4  10  20  38  60  91 117 159 204 257 324 382
#     4  10  22  34  66  90 120 165 201 258 330 378
#
# _framework density 18.849798
#
# number of rings (size 3 to 8) (size 9 to 14) (size 15 to 20)
#    0.400    0.667    5.333    2.400    0.000    1.067 
#    0.000    0.000    0.000    0.000    0.000    8.400 
#    0.000    0.000    0.000    0.000    0.000    0.000 
#
# Total GULP energy -1487400.277294 kJ/mol
# GULP energy per Si atom -12395.002311 kJ/mol
# Density = 1.880689 g / cm^3
# Si number density = 18.849798 Si / 1000 Ang^3
#
#
#
# Elastic Constant Matrix: (Units=GPa)
#
#
# Indices 1 2 3 4 5 6 
#
# 1 83.6558 28.4873 36.2619 0.0000 0.0000 0.0000
# 2 28.4873 83.6558 36.2619 0.0000 0.0000 0.0000
# 3 36.2619 36.2619 137.7110 0.0000 0.0000 0.0000
# 4 0.0000 0.0000 0.0000 27.0555 0.0000 0.0000
# 5 0.0000 0.0000 0.0000 0.0000 27.0555 0.0000
# 6 0.0000 0.0000 0.0000 0.0000 0.0000 18.3812
#
#
#
# Elastic Compliance Matrix: (Units=1/GPa)
#
#
# Indices 1 2 3 4 5 6 
#
# 1 0.014437 -0.003689 -0.002830 0.000000 0.000000 0.000000
# 2 -0.003689 0.014437 -0.002830 0.000000 0.000000 0.000000
# 3 -0.002830 -0.002830 0.008752 0.000000 0.000000 0.000000
# 4 0.000000 0.000000 0.000000 0.036961 0.000000 0.000000
# 5 0.000000 0.000000 0.000000 0.000000 0.036961 0.000000
# 6 0.000000 0.000000 0.000000 0.000000 0.000000 0.054403
#
#
# Mechanical properties :
#
#
# Convention : Reuss Voigt Hill
#
# Bulk Modulus (GPa) = 52.83531 56.33830 54.58681
# Shear Modulus (GPa) = 26.18366 28.09923 27.14144
#
# Velocity S-wave (km/s) = 3.73106 3.86514 3.79869
# Velocity P-wave (km/s) = 6.83020 7.06201 6.94707
#
# Compressibility (1/GPa) = 0.01892674
#
# Stress axis : x y z
#
# Youngs Moduli (GPa) = 69.26734 69.26734 114.26020
#
# Poissons Ratio (x) = 0.25556 0.32335
# Poissons Ratio (y) = 0.25556 0.32335
# Poissons Ratio (z) = 0.19602 0.19602
#
# Static dielectric constant tensor:
#      x y z
#    x 3.370610 0.000000 0.000000 
#    y 0.000000 3.370610 0.000000 
#    z 0.000000 0.000000 3.597880 
# 
# 
# High freq. dielectric constant tensor:
#      x y z
#    x 1.710750 0.000000 0.000000 
#    y 0.000000 1.710750 0.000000 
#    z 0.000000 0.000000 1.750670 
# 
# From -- ./inp_files/4690.got.cif
#   From: 2010.03.12/outbox.cif.g09.slc.cpg/sg133_3_cif.got.tgz:4690.got - 2010.04.06 18:08:06.
