data_PCOD8316515
_publ_section_title
;
Structure prediction by ZEFSAII (Michael W. Deem and Ramdas Pophale) SiO2 
 PCOD8316515
Probable space group: P 42/M C M
;
_chemical_formula_sum "Si O2"
_cell_formula_units_Z 120
_cell_length_a 17.551367
_cell_length_b 17.551367
_cell_length_c 23.154736
_cell_angle_alpha 90.000000
_cell_angle_beta 90.000000
_cell_angle_gamma 90.000000
_cell_volume 7132.827622
_symmetry_space_group_name_H-M "P 42/M C M"
_symmetry_group_IT_number 132
_symmetry_cell_setting 'tetragonal'
loop_
_space_group_symop_operation_xyz
x,y,z
-y,x,1/2+z
-x,-y,z
y,-x,1/2+z
x,-y,1/2-z
-x,y,1/2-z
y,x,-z
-y,-x,-z
-x,-y,-z
y,-x,1/2-z
x,y,-z
-y,x,1/2-z
-x,y,1/2+z
x,-y,1/2+z
-y,-x,z
y,x,z
loop_
_atom_site_type_symbol
_atom_site_label
_atom_site_fract_x
_atom_site_fract_y
_atom_site_fract_z
Si Si1 0.751280 0.867765 0.674162
Si Si2 0.987108 0.323677 0.313288
Si Si3 0.933661 0.549504 0.610642
Si Si4 0.817916 0.306699 0.293131
Si Si5 0.477518 0.198458 0.814926
Si Si6 0.623997 0.504032 0.000000
Si Si7 0.687396 0.433639 0.108124
Si Si8 0.338872 0.822185 0.935938
O O1 0.836991 0.836991 0.683401
O O2 0.695961 0.830007 0.723317
O O3 0.724055 0.843768 0.610806
O O4 0.751505 0.959158 0.679804
O O5 0.900311 0.297438 0.324473
O O6 0.000000 0.358368 0.250000
O O7 0.018904 0.388274 0.354350
O O8 0.878317 0.497346 0.650025
O O9 0.882344 0.591374 0.563287
O O10 0.000000 0.500000 0.580240
O O11 0.760498 0.239503 0.313149
O O12 0.783968 0.387140 0.314543
O O13 0.500000 0.182078 0.750000
O O14 0.522868 0.272095 0.838929
O O15 0.672940 0.496256 0.941675
O O16 0.587526 0.587526 0.000000
O O17 0.561475 0.438526 0.000000
O O18 0.609332 0.390669 0.128995
O O19 0.739538 0.369108 0.080108
O O20 0.302554 0.820800 0.000000
#
# Coordination Sequence:
#
# PCOD8316515 Si02
#       8
#    16  16  16  16  16   8  16  16
#     4   9  18  30  47  73 101 128 156 192 236 289
#     4   9  16  29  46  68  96 129 157 192 232 279
#     4  10  19  29  47  69  98 130 163 197 236 288
#     4  10  19  32  49  72 101 129 162 197 237 286
#     4  11  21  31  48  76 101 130 160 198 244 298
#     4   9  18  34  54  68  79 112 170 222 247 274
#     4  10  20  34  50  67  92 125 160 201 248 292
#     4  10  19  30  46  70  96 127 159 192 245 299
#
# _framework density 16.823623000000001
#
# number of rings (size 3 to 8) (size 9 to 14) (size 15 to 20)
#    0.000    2.200    2.000    3.600    0.000    3.200 
#    0.000    0.000    0.000    0.400    0.000    3.733 
#    0.000    0.000    0.000    4.800    0.000    3.733 
#
# Total GULP energy -1486807.015374 kJ/mol
# GULP energy per Si atom -12390.058461 kJ/mol
# Density = 1.678533 g / cm^3
# Si number density = 16.823623 Si / 1000 Ang^3
#
#
#
# Elastic Constant Matrix: (Units=GPa)
#
#
# Indices 1 2 3 4 5 6 
#
# 1 81.9284 47.5428 14.3292 0.0000 0.0000 0.0000
# 2 47.5428 81.9284 14.3292 0.0000 0.0000 0.0000
# 3 14.3292 14.3292 57.7651 0.0000 0.0000 0.0000
# 4 0.0000 0.0000 0.0000 10.6524 0.0000 0.0000
# 5 0.0000 0.0000 0.0000 0.0000 10.6525 0.0000
# 6 0.0000 0.0000 0.0000 0.0000 0.0000 33.5276
#
#
#
# Elastic Compliance Matrix: (Units=1/GPa)
#
#
# Indices 1 2 3 4 5 6 
#
# 1 0.018627 -0.010455 -0.002027 0.000000 0.000000 0.000000
# 2 -0.010455 0.018627 -0.002027 0.000000 0.000000 0.000000
# 3 -0.002027 -0.002027 0.018317 0.000000 0.000000 0.000000
# 4 0.000000 0.000000 0.000000 0.093875 0.000000 0.000000
# 5 0.000000 0.000000 0.000000 0.000000 0.093875 0.000000
# 6 0.000000 0.000000 0.000000 0.000000 0.000000 0.029826
#
#
# Mechanical properties :
#
#
# Convention : Reuss Voigt Hill
#
# Bulk Modulus (GPa) = 37.66033 41.55825 39.60929
# Shear Modulus (GPa) = 16.07629 20.66124 18.36876
#
# Velocity S-wave (km/s) = 3.09460 3.50824 3.30789
# Velocity P-wave (km/s) = 5.93319 6.41610 6.17936
#
# Compressibility (1/GPa) = 0.02655314
#
# Stress axis : x y z
#
# Youngs Moduli (GPa) = 53.68503 53.68500 54.59339
#
# Poissons Ratio (x) = 0.56126 0.11067
# Poissons Ratio (y) = 0.56126 0.11067
# Poissons Ratio (z) = 0.10883 0.10883
#
# Static dielectric constant tensor:
#      x y z
#    x 3.283070 0.000000 0.000000 
#    y 0.000000 3.283070 0.000000 
#    z 0.000000 0.000000 3.035280 
# 
# 
# High freq. dielectric constant tensor:
#      x y z
#    x 1.639450 0.000000 0.000000 
#    y 0.000000 1.639450 0.000000 
#    z 0.000000 0.000000 1.629080 
# 
# From -- ./inp_files/8222.got.cif
#   From: 2010.03.12/outbox.cif.g09.slc.cpg/sg132_5_cif.got.tgz:8222.got - 2010.04.06 17:53:44.
