data_PCOD8316319
_publ_section_title
;
Structure prediction by ZEFSAII (Michael W. Deem and Ramdas Pophale) SiO2 
 PCOD8316319
Probable space group: P 42/M M C
;
_chemical_formula_sum "Si O2"
_cell_formula_units_Z 64
_cell_length_a 20.855507
_cell_length_b 20.855507
_cell_length_c 8.593734
_cell_angle_alpha 90.000000
_cell_angle_beta 90.000000
_cell_angle_gamma 90.000000
_cell_volume 3737.863271
_symmetry_space_group_name_H-M "P 42/M M C"
_symmetry_group_IT_number 131
_symmetry_cell_setting 'tetragonal'
loop_
_space_group_symop_operation_xyz
x,y,z
-x,-y,z
-y,x,1/2+z
y,-x,1/2+z
-x,y,-z
x,-y,-z
y,x,1/2-z
-y,-x,1/2-z
-x,-y,-z
x,y,-z
y,-x,1/2-z
-y,x,1/2-z
x,-y,z
-x,y,z
-y,-x,1/2+z
y,x,1/2+z
loop_
_atom_site_type_symbol
_atom_site_label
_atom_site_fract_x
_atom_site_fract_y
_atom_site_fract_z
Si Si1 0.000000 0.398270 0.172036
Si Si2 0.426444 0.137626 0.822517
Si Si3 0.751994 0.000000 0.325480
Si Si4 0.680508 0.224103 0.681734
Si Si5 0.129723 0.781937 0.318344
O O1 0.934140 0.419065 0.254670
O O2 0.000000 0.323059 0.157646
O O3 0.000000 0.429186 0.000000
O O4 0.500000 0.158572 0.806335
O O5 0.386776 0.196346 0.745977
O O6 0.403668 0.132738 0.000000
O O7 0.774913 0.943642 0.216526
O O8 0.782307 0.000000 0.500000
O O9 0.707646 0.292354 0.750000
O O10 0.672211 0.234540 0.500000
O O11 0.730887 0.168734 0.717324
O O12 0.148925 0.851076 0.250000
O O13 0.145277 0.773606 0.500000
#
# Coordination Sequence:
#
# PCOD8316319 Si02
#       5
#     8  16   8  16  16
#     4  11  22  34  51  74 104 141 181 218 257 303
#     4  11  23  37  53  75 106 143 180 217 259 308
#     4  11  21  34  52  76 102 130 168 215 258 308
#     4  11  21  35  54  76 102 134 172 216 260 304
#     4  11  21  34  53  75  99 129 165 211 262 311
#
# _framework density 17.122081999999999
#
# number of rings (size 3 to 8) (size 9 to 14) (size 15 to 20)
#    0.000    1.000    2.500    7.875    0.000    4.500 
#    0.000    0.000    0.000    0.375    0.000    2.625 
#    0.000    0.500    0.000    5.250    0.000    2.250 
#
# Total GULP energy -793072.027016 kJ/mol
# GULP energy per Si atom -12391.750422 kJ/mol
# Density = 1.708311 g / cm^3
# Si number density = 17.122082 Si / 1000 Ang^3
#
#
#
# Elastic Constant Matrix: (Units=GPa)
#
#
# Indices 1 2 3 4 5 6 
#
# 1 81.4594 44.8503 43.4576 0.0000 0.0000 0.0000
# 2 44.8503 81.4567 43.4572 0.0000 0.0000 0.0000
# 3 43.4576 43.4572 149.9714 0.0000 0.0000 0.0000
# 4 0.0000 0.0000 0.0000 23.1948 0.0000 0.0000
# 5 0.0000 0.0000 0.0000 0.0000 23.1942 0.0000
# 6 0.0000 0.0000 0.0000 0.0000 0.0000 30.0706
#
#
#
# Elastic Compliance Matrix: (Units=1/GPa)
#
#
# Indices 1 2 3 4 5 6 
#
# 1 0.018602 -0.008714 -0.002865 0.000000 0.000000 0.000000
# 2 -0.008714 0.018603 -0.002866 0.000000 0.000000 0.000000
# 3 -0.002865 -0.002866 0.008329 0.000000 0.000000 0.000000
# 4 0.000000 0.000000 0.000000 0.043113 0.000000 0.000000
# 5 0.000000 0.000000 0.000000 0.000000 0.043114 0.000000
# 6 0.000000 0.000000 0.000000 0.000000 0.000000 0.033255
#
#
# Mechanical properties :
#
#
# Convention : Reuss Voigt Hill
#
# Bulk Modulus (GPa) = 60.08027 64.04643 62.06335
# Shear Modulus (GPa) = 25.06836 27.36674 26.21755
#
# Velocity S-wave (km/s) = 3.83050 4.00225 3.91732
# Velocity P-wave (km/s) = 7.39792 7.67100 7.53570
#
# Compressibility (1/GPa) = 0.01664440
#
# Stress axis : x y z
#
# Youngs Moduli (GPa) = 53.75635 53.75440 120.06772
#
# Poissons Ratio (x) = 0.46841 0.34405
# Poissons Ratio (y) = 0.46842 0.34407
# Poissons Ratio (z) = 0.15404 0.15404
#
# Static dielectric constant tensor:
#      x y z
#    x 3.425200 0.000000 0.000000 
#    y 0.000000 3.425210 0.000000 
#    z 0.000000 0.000000 3.483060 
# 
# 
# High freq. dielectric constant tensor:
#      x y z
#    x 1.643900 0.000000 0.000000 
#    y 0.000000 1.643900 0.000000 
#    z 0.000000 0.000000 1.686280 
# 
# From -- ./inp_files/1671.got.cif
#   From: 2010.03.12/outbox.cif.g09.slc.cpg/sg131_1_cif.got.tgz:1671.got - 2010.04.06 17:36:35.
