data_PCOD8316451
_publ_section_title
;
Structure prediction by ZEFSAII (Michael W. Deem and Ramdas Pophale) SiO2 
 PCOD8316451
Probable space group: P 42/M C M
;
_chemical_formula_sum "Si O2"
_cell_formula_units_Z 80
_cell_length_a 22.712640
_cell_length_b 22.712640
_cell_length_c 10.095600
_cell_angle_alpha 90.000000
_cell_angle_beta 90.000000
_cell_angle_gamma 90.000000
_cell_volume 5207.956758
_symmetry_space_group_name_H-M "P 42/M C M"
_symmetry_group_IT_number 132
_symmetry_cell_setting 'tetragonal'
loop_
_space_group_symop_operation_xyz
x,y,z
-y,x,1/2+z
-x,-y,z
y,-x,1/2+z
x,-y,1/2-z
-x,y,1/2-z
y,x,-z
-y,-x,-z
-x,-y,-z
y,-x,1/2-z
x,y,-z
-y,x,1/2-z
-x,y,1/2+z
x,-y,1/2+z
-y,-x,z
y,x,z
loop_
_atom_site_type_symbol
_atom_site_label
_atom_site_fract_x
_atom_site_fract_y
_atom_site_fract_z
Si Si1 0.079645 0.825577 0.500000
Si Si2 0.952026 0.856150 0.500000
Si Si3 0.234630 0.065342 0.730924
Si Si4 0.717658 0.814386 0.651444
Si Si5 0.745493 0.646870 0.853917
Si Si6 0.445899 0.348476 0.152413
O O1 0.135951 0.864049 0.500000
O O2 0.085401 0.784251 0.374582
O O3 0.021859 0.867040 0.500000
O O4 0.918104 0.918104 0.500000
O O5 0.936357 0.820711 0.367791
O O6 0.277677 0.115363 0.674744
O O7 0.263763 0.000000 0.750000
O O8 0.699465 0.803104 0.500000
O O9 0.778790 0.778790 0.682851
O O10 0.663885 0.793183 0.743234
O O11 0.695295 0.695295 0.857529
O O12 0.714608 0.584902 0.819024
O O13 0.775450 0.643527 0.000000
O O14 0.500000 0.355962 0.250000
O O15 0.401130 0.401130 0.182430
O O16 0.467292 0.351130 0.000000
#
# Coordination Sequence:
#
# PCOD8316451 Si02
#       6
#     8   8  16  16  16  16
#     4  10  20  29  40  58  74  98 139 175 212 268
#     4  10  18  31  44  52  74 104 131 175 224 260
#     4  10  20  31  42  58  81 107 136 177 225 274
#     4  10  18  28  45  64  83 109 142 181 227 279
#     4   8  16  30  45  65  91 117 148 188 229 264
#     4   9  18  32  48  68  99 135 168 201 229 251
#
# _framework density 15.36111
#
# number of rings (size 3 to 8) (size 9 to 14) (size 15 to 20)
#    0.000    2.600    1.000    3.000    1.400    1.600 
#    0.000    3.000    0.000    3.600    0.000    0.000 
#    0.000    0.800    0.000    6.200    0.000    2.600 
#
# Total GULP energy -991424.196504 kJ/mol
# GULP energy per Si atom -12392.802456 kJ/mol
# Density = 1.532615 g / cm^3
# Si number density = 15.361110 Si / 1000 Ang^3
#
#
#
# Elastic Constant Matrix: (Units=GPa)
#
#
# Indices 1 2 3 4 5 6 
#
# 1 55.7244 35.5490 38.8788 0.0000 0.0000 0.0000
# 2 35.5490 55.7243 38.8787 0.0000 0.0000 0.0000
# 3 38.8788 38.8787 114.4795 0.0000 0.0000 0.0000
# 4 0.0000 0.0000 0.0000 24.6670 0.0000 0.0000
# 5 0.0000 0.0000 0.0000 0.0000 24.6661 0.0000
# 6 0.0000 0.0000 0.0000 0.0000 0.0000 17.8514
#
#
#
# Elastic Compliance Matrix: (Units=1/GPa)
#
#
# Indices 1 2 3 4 5 6 
#
# 1 0.032491 -0.017075 -0.005236 0.000000 0.000000 0.000000
# 2 -0.017075 0.032491 -0.005236 0.000000 0.000000 0.000000
# 3 -0.005236 -0.005236 0.012291 0.000000 0.000000 0.000000
# 4 0.000000 0.000000 0.000000 0.040540 0.000000 0.000000
# 5 0.000000 0.000000 0.000000 0.000000 0.040542 0.000000
# 6 0.000000 0.000000 0.000000 0.000000 0.000000 0.056018
#
#
# Mechanical properties :
#
#
# Convention : Reuss Voigt Hill
#
# Bulk Modulus (GPa) = 45.08214 50.28235 47.68225
# Shear Modulus (GPa) = 18.05978 20.94501 19.50239
#
# Velocity S-wave (km/s) = 3.43254 3.69658 3.56700
# Velocity P-wave (km/s) = 6.71727 7.14312 6.93347
#
# Compressibility (1/GPa) = 0.02218173
#
# Stress axis : x y z
#
# Youngs Moduli (GPa) = 30.77778 30.77779 81.35793
#
# Poissons Ratio (x) = 0.52552 0.42596
# Poissons Ratio (y) = 0.52552 0.42596
# Poissons Ratio (z) = 0.16114 0.16114
#
# Static dielectric constant tensor:
#      x y z
#    x 2.796070 0.000000 0.000000 
#    y 0.000000 2.796070 0.000000 
#    z 0.000000 0.000000 3.271170 
# 
# 
# High freq. dielectric constant tensor:
#      x y z
#    x 1.556500 0.000000 0.000000 
#    y 0.000000 1.556500 0.000000 
#    z 0.000000 0.000000 1.613250 
# 
# From -- ./inp_files/1657.got.cif
#   From: 2010.03.12/outbox.cif.g09.slc.cpg/sg132_1_cif.got.tgz:1657.got - 2010.04.06 17:53:44.
