data_PCOD8316790
_publ_section_title
;
Structure prediction by ZEFSAII (Michael W. Deem and Ramdas Pophale) SiO2 
 PCOD8316790
Probable space group: P 42/M C M
;
_chemical_formula_sum "Si O2"
_cell_formula_units_Z 80
_cell_length_a 13.927109
_cell_length_b 13.927109
_cell_length_c 22.110908
_cell_angle_alpha 90.000000
_cell_angle_beta 90.000000
_cell_angle_gamma 90.000000
_cell_volume 4288.728232
_symmetry_space_group_name_H-M "P 42/M C M"
_symmetry_group_IT_number 132
_symmetry_cell_setting 'tetragonal'
loop_
_space_group_symop_operation_xyz
x,y,z
-y,x,1/2+z
-x,-y,z
y,-x,1/2+z
x,-y,1/2-z
-x,y,1/2-z
y,x,-z
-y,-x,-z
-x,-y,-z
y,-x,1/2-z
x,y,-z
-y,x,1/2-z
-x,y,1/2+z
x,-y,1/2+z
-y,-x,z
y,x,z
loop_
_atom_site_type_symbol
_atom_site_label
_atom_site_fract_x
_atom_site_fract_y
_atom_site_fract_z
Si Si1 0.190908 0.341825 0.127746
Si Si2 0.800538 0.046515 0.429627
Si Si3 0.886848 0.609177 0.252477
Si Si4 0.710739 0.863994 0.621431
Si Si5 0.107066 0.485540 0.431279
O O1 0.298975 0.298975 0.122473
O O2 0.121293 0.284261 0.082976
O O3 0.156139 0.331088 0.196647
O O4 0.184604 0.452718 0.106810
O O5 0.797434 0.016700 0.500000
O O6 0.903058 0.096942 0.414015
O O7 0.783763 0.953560 0.387553
O O8 0.846561 0.500000 0.250000
O O9 0.857086 0.664692 0.312560
O O10 0.000000 0.607193 0.250000
O O11 0.766896 0.766896 0.608854
O O12 0.626253 0.868085 0.572255
O O13 0.109195 0.520665 0.500000
O O14 0.000000 0.500000 0.403177
#
# Coordination Sequence:
#
# PCOD8316790 Si02
#       5
#    16  16  16  16  16
#     4  11  21  36  60  88 115 148 195 242 287 346
#     4  10  21  37  57  84 122 164 199 232 279 344
#     4  11  20  37  62  86 115 150 190 244 298 344
#     4  12  24  38  59  89 121 155 198 244 294 348
#     4  11  21  37  60  87 119 153 193 244 292 339
#
# _framework density 18.653548000000001
#
# number of rings (size 3 to 8) (size 9 to 14) (size 15 to 20)
#    0.000    1.000    6.000    1.800    0.000    3.200 
#    0.000    1.000    0.000    0.600    0.000    2.800 
#    0.000    0.000    0.000    0.000    0.000    0.000 
#
# Total GULP energy -992008.085387 kJ/mol
# GULP energy per Si atom -12400.101067 kJ/mol
# Density = 1.861109 g / cm^3
# Si number density = 18.653548 Si / 1000 Ang^3
#
#
#
# Elastic Constant Matrix: (Units=GPa)
#
#
# Indices 1 2 3 4 5 6 
#
# 1 99.9888 66.3547 32.0636 0.0000 0.0000 0.0000
# 2 66.3547 99.9888 32.0636 0.0000 0.0000 0.0000
# 3 32.0636 32.0636 87.2340 0.0000 0.0000 0.0000
# 4 0.0000 0.0000 0.0000 39.6802 0.0000 0.0000
# 5 0.0000 0.0000 0.0000 0.0000 39.6802 0.0000
# 6 0.0000 0.0000 0.0000 0.0000 0.0000 28.0300
#
#
#
# Elastic Compliance Matrix: (Units=1/GPa)
#
#
# Indices 1 2 3 4 5 6 
#
# 1 0.018368 -0.011364 -0.002574 0.000000 0.000000 0.000000
# 2 -0.011364 0.018368 -0.002574 0.000000 0.000000 0.000000
# 3 -0.002574 -0.002574 0.013356 0.000000 0.000000 0.000000
# 4 0.000000 0.000000 0.000000 0.025201 0.000000 0.000000
# 5 0.000000 0.000000 0.000000 0.000000 0.025201 0.000000
# 6 0.000000 0.000000 0.000000 0.000000 0.000000 0.035676
#
#
# Mechanical properties :
#
#
# Convention : Reuss Voigt Hill
#
# Bulk Modulus (GPa) = 58.59443 60.90839 59.75141
# Shear Modulus (GPa) = 28.59024 31.92675 30.25849
#
# Velocity S-wave (km/s) = 3.91921 4.14159 4.03194
# Velocity P-wave (km/s) = 7.20836 7.45612 7.33329
#
# Compressibility (1/GPa) = 0.01706647
#
# Stress axis : x y z
#
# Youngs Moduli (GPa) = 54.44274 54.44274 74.87317
#
# Poissons Ratio (x) = 0.61868 0.19276
# Poissons Ratio (y) = 0.61868 0.19276
# Poissons Ratio (z) = 0.14016 0.14016
#
# Static dielectric constant tensor:
#      x y z
#    x 3.349060 0.000000 0.000000 
#    y 0.000000 3.349060 0.000000 
#    z 0.000000 0.000000 3.254990 
# 
# 
# High freq. dielectric constant tensor:
#      x y z
#    x 1.706120 0.000000 0.000000 
#    y 0.000000 1.706120 0.000000 
#    z 0.000000 0.000000 1.737440 
# 
# From -- ./inp_files/7634.got.cif
#   From: 2010.03.12/outbox.cif.g09.slc.cpg/sg132_4_cif.got.tgz:7634.got - 2010.04.06 17:53:44.
