data_PCOD8316151
_publ_section_title
;
Structure prediction by ZEFSAII (Michael W. Deem and Ramdas Pophale) SiO2 
 PCOD8316151
Probable space group: P 42/M M C
;
_chemical_formula_sum "Si O2"
_cell_formula_units_Z 80
_cell_length_a 14.864943
_cell_length_b 14.864943
_cell_length_c 19.126880
_cell_angle_alpha 90.000000
_cell_angle_beta 90.000000
_cell_angle_gamma 90.000000
_cell_volume 4226.400311
_symmetry_space_group_name_H-M "P 42/M M C"
_symmetry_group_IT_number 131
_symmetry_cell_setting 'tetragonal'
loop_
_space_group_symop_operation_xyz
x,y,z
-x,-y,z
-y,x,1/2+z
y,-x,1/2+z
-x,y,-z
x,-y,-z
y,x,1/2-z
-y,-x,1/2-z
-x,-y,-z
x,y,-z
y,-x,1/2-z
-y,x,1/2-z
x,-y,z
-x,y,z
-y,-x,1/2+z
y,x,1/2+z
loop_
_atom_site_type_symbol
_atom_site_label
_atom_site_fract_x
_atom_site_fract_y
_atom_site_fract_z
Si Si1 0.737395 0.401589 0.173804
Si Si2 0.899797 0.639859 0.079771
Si Si3 0.605085 0.246622 0.166227
Si Si4 0.710200 0.101408 0.919237
Si Si5 0.903064 0.850866 0.080627
O O1 0.691614 0.500000 0.173694
O O2 0.826615 0.407265 0.127598
O O3 0.662978 0.333654 0.143016
O O4 0.769310 0.377378 0.251932
O O5 0.892958 0.745503 0.090989
O O6 0.000000 0.606216 0.100172
O O7 0.879082 0.613875 0.000000
O O8 0.500000 0.261757 0.148538
O O9 0.641097 0.161004 0.124326
O O10 0.812415 0.105357 0.887311
O O11 0.674794 0.000000 0.913371
O O12 0.710841 0.134469 0.000000
O O13 0.000000 0.882488 0.114323
O O14 0.907324 0.878035 0.000000
#
# Coordination Sequence:
#
# PCOD8316151 Si02
#       5
#    16  16  16  16  16
#     4  10  21  37  58  81 104 135 176 220 271 328
#     4   9  17  31  54  83 112 139 167 206 260 319
#     4  10  22  39  56  76 105 139 178 226 274 316
#     4  10  20  34  55  82 110 144 185 223 261 309
#     4   8  14  27  49  77 108 139 171 211 258 305
#
# _framework density 18.928636000000001
#
# number of rings (size 3 to 8) (size 9 to 14) (size 15 to 20)
#    0.000    2.600    2.000    1.200    0.000    3.200 
#    0.000    8.000    0.000    0.000    0.000    2.800 
#    0.000    0.000    0.000    0.000    0.000    0.000 
#
# Total GULP energy -991367.603944 kJ/mol
# GULP energy per Si atom -12392.095049 kJ/mol
# Density = 1.888555 g / cm^3
# Si number density = 18.928636 Si / 1000 Ang^3
#
#
#
# Elastic Constant Matrix: (Units=GPa)
#
#
# Indices 1 2 3 4 5 6 
#
# 1 115.6146 57.4098 42.9411 0.0000 0.0000 0.0000
# 2 57.4098 115.6146 42.9411 0.0000 0.0000 0.0000
# 3 42.9411 42.9411 52.5000 0.0000 0.0000 0.0000
# 4 0.0000 0.0000 0.0000 25.2919 0.0000 0.0000
# 5 0.0000 0.0000 0.0000 0.0000 25.2919 0.0000
# 6 0.0000 0.0000 0.0000 0.0000 0.0000 8.1443
#
#
#
# Elastic Compliance Matrix: (Units=1/GPa)
#
#
# Indices 1 2 3 4 5 6 
#
# 1 0.013455 -0.003726 -0.007958 0.000000 0.000000 0.000000
# 2 -0.003726 0.013455 -0.007958 0.000000 0.000000 0.000000
# 3 -0.007958 -0.007958 0.032066 0.000000 0.000000 0.000000
# 4 0.000000 0.000000 0.000000 0.039538 0.000000 0.000000
# 5 0.000000 0.000000 0.000000 0.000000 0.039538 0.000000
# 6 0.000000 0.000000 0.000000 0.000000 0.000000 0.122786
#
#
# Mechanical properties :
#
#
# Convention : Reuss Voigt Hill
#
# Bulk Modulus (GPa) = 50.78021 63.36811 57.07416
# Shear Modulus (GPa) = 16.30332 21.10810 18.70571
#
# Velocity S-wave (km/s) = 2.93798 3.34300 3.14701
# Velocity P-wave (km/s) = 6.19632 6.96067 6.58959
#
# Compressibility (1/GPa) = 0.01969271
#
# Stress axis : x y z
#
# Youngs Moduli (GPa) = 74.32096 74.32096 31.18585
#
# Poissons Ratio (x) = 0.27689 0.24818
# Poissons Ratio (y) = 0.27689 0.24818
# Poissons Ratio (z) = 0.59145 0.59145
#
# Static dielectric constant tensor:
#      x y z
#    x 3.526670 0.000000 0.000000 
#    y 0.000000 3.526670 0.000000 
#    z 0.000000 0.000000 3.180500 
# 
# 
# High freq. dielectric constant tensor:
#      x y z
#    x 1.740310 0.000000 0.000000 
#    y 0.000000 1.740310 0.000000 
#    z 0.000000 0.000000 1.696590 
# 
# From -- ./inp_files/9412.got.cif
#   From: 2010.03.12/outbox.cif.g09.slc.cpg/sg131_5_cif.got.tgz:9412.got - 2010.04.06 17:36:35.
