data_PCOD8316851
_publ_section_title
;
Structure prediction by ZEFSAII (Michael W. Deem and Ramdas Pophale) SiO2 
 PCOD8316851
Probable space group: P 42/M C M
;
_chemical_formula_sum "Si O2"
_cell_formula_units_Z 96
_cell_length_a 24.077331
_cell_length_b 24.077331
_cell_length_c 8.828132
_cell_angle_alpha 90.000000
_cell_angle_beta 90.000000
_cell_angle_gamma 90.000000
_cell_volume 5117.825862
_symmetry_space_group_name_H-M "P 42/M C M"
_symmetry_group_IT_number 132
_symmetry_cell_setting 'tetragonal'
loop_
_space_group_symop_operation_xyz
x,y,z
-y,x,1/2+z
-x,-y,z
y,-x,1/2+z
x,-y,1/2-z
-x,y,1/2-z
y,x,-z
-y,-x,-z
-x,-y,-z
y,-x,1/2-z
x,y,-z
-y,x,1/2-z
-x,y,1/2+z
x,-y,1/2+z
-y,-x,z
y,x,z
loop_
_atom_site_type_symbol
_atom_site_label
_atom_site_fract_x
_atom_site_fract_y
_atom_site_fract_z
Si Si1 0.239293 0.148578 0.323525
Si Si2 0.556034 0.356523 0.679193
Si Si3 0.859257 0.641797 0.822544
Si Si4 0.444555 0.767862 0.323648
Si Si5 0.148140 0.060221 0.678297
Si Si6 0.556367 0.939595 0.680356
O O1 0.255003 0.146788 0.500000
O O2 0.204053 0.204053 0.286881
O O3 0.294583 0.147880 0.224400
O O4 0.203296 0.094568 0.278052
O O5 0.500000 0.381346 0.750000
O O6 0.551214 0.358825 0.500000
O O7 0.607288 0.392713 0.738864
O O8 0.565947 0.294065 0.738813
O O9 0.802514 0.609993 0.782170
O O10 0.907214 0.611759 0.727793
O O11 0.873505 0.638497 0.000000
O O12 0.500000 0.793956 0.250000
O O13 0.455998 0.767519 0.500000
O O14 0.144508 0.053476 0.500000
O O15 0.093971 0.093971 0.736887
O O16 0.150418 0.000000 0.750000
O O17 0.500000 0.912078 0.750000
O O18 0.551286 0.942067 0.500000
O O19 0.562904 0.000000 0.750000
#
# Coordination Sequence:
#
# PCOD8316851 Si02
#       6
#    16  16  16  16  16  16
#     4   9  20  39  57  75 106 146 184 225 274 321
#     4   9  18  33  51  71  98 131 166 207 256 308
#     4  11  22  35  55  83 109 139 181 223 269 327
#     4   9  19  34  52  74 101 133 170 213 261 313
#     4   9  19  36  57  81 110 143 177 215 260 309
#     4  11  22  38  58  81 112 146 181 223 271 321
#
# _framework density 18.757966
#
# number of rings (size 3 to 8) (size 9 to 14) (size 15 to 20)
#    0.000    2.333    0.000    4.000    0.000    6.000 
#    0.000    6.667    0.000    0.000    0.000    0.000 
#    0.000    0.000    0.000    0.000    0.000    0.000 
#
# Total GULP energy -1190330.809588 kJ/mol
# GULP energy per Si atom -12399.279267 kJ/mol
# Density = 1.871527 g / cm^3
# Si number density = 18.757966 Si / 1000 Ang^3
#
#
#
# Elastic Constant Matrix: (Units=GPa)
#
#
# Indices 1 2 3 4 5 6 
#
# 1 133.1780 68.1276 50.1230 0.0000 0.0000 0.0000
# 2 68.1276 133.1780 50.1230 0.0000 0.0000 0.0000
# 3 50.1230 50.1230 76.6031 0.0000 0.0000 0.0000
# 4 0.0000 0.0000 0.0000 32.6848 0.0000 0.0000
# 5 0.0000 0.0000 0.0000 0.0000 32.6848 0.0000
# 6 0.0000 0.0000 0.0000 0.0000 0.0000 25.1101
#
#
#
# Elastic Compliance Matrix: (Units=1/GPa)
#
#
# Indices 1 2 3 4 5 6 
#
# 1 0.011371 -0.004002 -0.004821 0.000000 0.000000 0.000000
# 2 -0.004002 0.011371 -0.004821 0.000000 0.000000 0.000000
# 3 -0.004821 -0.004821 0.019364 0.000000 0.000000 0.000000
# 4 0.000000 0.000000 0.000000 0.030595 0.000000 0.000000
# 5 0.000000 0.000000 0.000000 0.000000 0.030595 0.000000
# 6 0.000000 0.000000 0.000000 0.000000 0.000000 0.039825
#
#
# Mechanical properties :
#
#
# Convention : Reuss Voigt Hill
#
# Bulk Modulus (GPa) = 67.49786 75.52295 71.51040
# Shear Modulus (GPa) = 28.51468 29.73496 29.12482
#
# Velocity S-wave (km/s) = 3.90312 3.98577 3.94466
# Velocity P-wave (km/s) = 7.50827 7.84417 7.67806
#
# Compressibility (1/GPa) = 0.01481528
#
# Stress axis : x y z
#
# Youngs Moduli (GPa) = 87.94607 87.94607 51.64292
#
# Poissons Ratio (x) = 0.35197 0.24899
# Poissons Ratio (y) = 0.35197 0.24899
# Poissons Ratio (z) = 0.42402 0.42402
#
# Static dielectric constant tensor:
#      x y z
#    x 3.862060 0.000000 0.000000 
#    y 0.000000 3.862060 0.000000 
#    z 0.000000 0.000000 3.046540 
# 
# 
# High freq. dielectric constant tensor:
#      x y z
#    x 1.732260 0.000000 0.000000 
#    y 0.000000 1.732260 0.000000 
#    z 0.000000 0.000000 1.724990 
# 
# From -- ./inp_files/1717.got.cif
#   From: 2010.03.12/outbox.cif.g09.slc.cpg/sg132_1_cif.got.tgz:1717.got - 2010.04.06 17:53:44.
