data_PCOD8316370
_publ_section_title
;
Structure prediction by ZEFSAII (Michael W. Deem and Ramdas Pophale) SiO2 
 PCOD8316370
Probable space group: P 42/M M C
;
_chemical_formula_sum "Si O2"
_cell_formula_units_Z 56
_cell_length_a 9.894547
_cell_length_b 9.894547
_cell_length_c 36.121251
_cell_angle_alpha 90.000000
_cell_angle_beta 90.000000
_cell_angle_gamma 90.000000
_cell_volume 3536.344895
_symmetry_space_group_name_H-M "P 42/M M C"
_symmetry_group_IT_number 131
_symmetry_cell_setting 'tetragonal'
loop_
_space_group_symop_operation_xyz
x,y,z
-x,-y,z
-y,x,1/2+z
y,-x,1/2+z
-x,y,-z
x,-y,-z
y,x,1/2-z
-y,-x,1/2-z
-x,-y,-z
x,y,-z
y,-x,1/2-z
-y,x,1/2-z
x,-y,z
-x,y,z
-y,-x,1/2+z
y,x,1/2+z
loop_
_atom_site_type_symbol
_atom_site_label
_atom_site_fract_x
_atom_site_fract_y
_atom_site_fract_z
Si Si1 0.849640 0.660561 0.315301
Si Si2 0.848824 0.160752 0.958815
Si Si3 0.657500 0.657500 0.750000
Si Si4 0.349610 0.160614 0.896920
O O1 0.855824 0.500000 0.315903
O O2 0.741790 0.711293 0.285170
O O3 0.801854 0.708551 0.356166
O O4 0.000000 0.717273 0.305933
O O5 0.747853 0.223563 0.928300
O O6 0.000000 0.214311 0.950762
O O7 0.847651 0.000000 0.956296
O O8 0.802517 0.206132 0.000000
O O9 0.684748 0.500000 0.758056
O O10 0.500000 0.221030 0.902789
O O11 0.356323 0.000000 0.900299
#
# Coordination Sequence:
#
# PCOD8316370 Si02
#       4
#    16  16   8  16
#     4   8  14  25  39  54  75 101 123 147 186 228
#     4   8  13  20  29  43  66  94 119 144 178 216
#     4   9  16  26  42  61  76  94 126 161 186 216
#     4   8  13  21  33  47  63  88 120 146 171 211
#
# _framework density 15.835559999999999
#
# number of rings (size 3 to 8) (size 9 to 14) (size 15 to 20)
#    0.000    3.857    0.000    2.571    0.000    0.571 
#    0.000    4.286    0.000    2.143    0.000    0.000 
#    0.000    1.143    0.000   14.286    0.000   16.571 
#
# Total GULP energy -693824.492512 kJ/mol
# GULP energy per Si atom -12389.723081 kJ/mol
# Density = 1.579952 g / cm^3
# Si number density = 15.835560 Si / 1000 Ang^3
#
#
#
# Elastic Constant Matrix: (Units=GPa)
#
#
# Indices 1 2 3 4 5 6 
#
# 1 44.4752 20.4425 56.0277 0.0000 0.0000 0.0000
# 2 20.4425 44.4752 56.0277 0.0000 0.0000 0.0000
# 3 56.0277 56.0277 170.6960 0.0000 0.0000 0.0000
# 4 0.0000 0.0000 0.0000 15.6101 0.0000 0.0000
# 5 0.0000 0.0000 0.0000 0.0000 15.6101 0.0000
# 6 0.0000 0.0000 0.0000 0.0000 0.0000 6.1635
#
#
#
# Elastic Compliance Matrix: (Units=1/GPa)
#
#
# Indices 1 2 3 4 5 6 
#
# 1 0.038575 -0.003035 -0.011665 0.000000 0.000000 0.000000
# 2 -0.003035 0.038575 -0.011665 0.000000 0.000000 0.000000
# 3 -0.011665 -0.011665 0.013516 0.000000 0.000000 0.000000
# 4 0.000000 0.000000 0.000000 0.064061 0.000000 0.000000
# 5 0.000000 0.000000 0.000000 0.000000 0.064061 0.000000
# 6 0.000000 0.000000 0.000000 0.000000 0.000000 0.162246
#
#
# Mechanical properties :
#
#
# Convention : Reuss Voigt Hill
#
# Bulk Modulus (GPa) = 26.36127 58.29358 42.32742
# Shear Modulus (GPa) = 11.20046 15.95330 13.57688
#
# Velocity S-wave (km/s) = 2.66239 3.17746 2.93126
# Velocity P-wave (km/s) = 5.11216 7.09601 6.18415
#
# Compressibility (1/GPa) = 0.03793444
#
# Stress axis : x y z
#
# Youngs Moduli (GPa) = 25.92371 25.92371 73.98587
#
# Poissons Ratio (x) = 0.07868 0.86306
# Poissons Ratio (y) = 0.07868 0.86306
# Poissons Ratio (z) = 0.30240 0.30240
#
# Static dielectric constant tensor:
#      x y z
#    x 2.797680 0.000000 0.000000 
#    y 0.000000 2.797680 0.000000 
#    z 0.000000 0.000000 3.469060 
# 
# 
# High freq. dielectric constant tensor:
#      x y z
#    x 1.561820 0.000000 0.000000 
#    y 0.000000 1.561820 0.000000 
#    z 0.000000 0.000000 1.623270 
# 
# From -- ./inp_files/11841.got.cif
#   From: 2010.03.12/outbox.cif.g09.slc.cpg/sg131_6_cif.got.tgz:11841.got - 2010.04.06 17:36:35.
