data_PCOD8316137
_publ_section_title
;
Structure prediction by ZEFSAII (Michael W. Deem and Ramdas Pophale) SiO2 
 PCOD8316137
Probable space group: P 42/M M C
;
_chemical_formula_sum "Si O2"
_cell_formula_units_Z 48
_cell_length_a 8.143066
_cell_length_b 8.143066
_cell_length_c 33.947192
_cell_angle_alpha 90.000000
_cell_angle_beta 90.000000
_cell_angle_gamma 90.000000
_cell_volume 2251.022139
_symmetry_space_group_name_H-M "P 42/M M C"
_symmetry_group_IT_number 131
_symmetry_cell_setting 'tetragonal'
loop_
_space_group_symop_operation_xyz
x,y,z
-x,-y,z
-y,x,1/2+z
y,-x,1/2+z
-x,y,-z
x,-y,-z
y,x,1/2-z
-y,-x,1/2-z
-x,-y,-z
x,y,-z
y,-x,1/2-z
-y,x,1/2-z
x,-y,z
-x,y,z
-y,-x,1/2+z
y,x,1/2+z
loop_
_atom_site_type_symbol
_atom_site_label
_atom_site_fract_x
_atom_site_fract_y
_atom_site_fract_z
Si Si1 0.820028 0.690572 0.411069
Si Si2 0.695825 0.500000 0.045063
Si Si3 0.809298 0.809298 0.250000
Si Si4 0.809075 0.312549 0.832728
O O1 0.822804 0.500000 0.420933
O O2 0.665906 0.770429 0.434765
O O3 0.798290 0.715765 0.364400
O O4 0.000000 0.764478 0.423358
O O5 0.500000 0.500000 0.049462
O O6 0.752648 0.500000 0.000000
O O7 0.719824 0.739433 0.288890
O O8 0.000000 0.771712 0.255460
O O9 0.777555 0.500000 0.844248
O O10 0.000000 0.264765 0.833837
#
# Coordination Sequence:
#
# PCOD8316137 Si02
#       4
#    16   8   8  16
#     4  10  20  34  55  81 108 142 182 226 279 340
#     4   9  18  34  55  81 113 143 177 229 285 341
#     4   9  18  32  48  69 100 138 180 223 264 315
#     4  10  20  34  53  77 107 144 184 226 276 333
#
# _framework density 21.323644000000002
#
# number of rings (size 3 to 8) (size 9 to 14) (size 15 to 20)
#    0.000    2.333    1.667    1.000    0.000    4.000 
#    0.000    6.667    0.000    2.000    0.000    2.333 
#    0.000    0.000    0.000    0.000    0.000    0.000 
#
# Total GULP energy -594976.426244 kJ/mol
# GULP energy per Si atom -12395.342213 kJ/mol
# Density = 2.127511 g / cm^3
# Si number density = 21.323644 Si / 1000 Ang^3
#
#
#
# Elastic Constant Matrix: (Units=GPa)
#
#
# Indices 1 2 3 4 5 6 
#
# 1 81.2970 27.6445 40.8037 0.0000 0.0000 0.0000
# 2 27.6445 81.2970 40.8037 0.0000 0.0000 0.0000
# 3 40.8037 40.8037 138.9650 0.0000 0.0000 0.0000
# 4 0.0000 0.0000 0.0000 19.6169 0.0000 0.0000
# 5 0.0000 0.0000 0.0000 0.0000 19.6169 0.0000
# 6 0.0000 0.0000 0.0000 0.0000 0.0000 16.4116
#
#
#
# Elastic Compliance Matrix: (Units=1/GPa)
#
#
# Indices 1 2 3 4 5 6 
#
# 1 0.015203 -0.003435 -0.003455 0.000000 0.000000 0.000000
# 2 -0.003435 0.015203 -0.003455 0.000000 0.000000 0.000000
# 3 -0.003455 -0.003455 0.009225 0.000000 0.000000 0.000000
# 4 0.000000 0.000000 0.000000 0.050976 0.000000 0.000000
# 5 0.000000 0.000000 0.000000 0.000000 0.050976 0.000000
# 6 0.000000 0.000000 0.000000 0.000000 0.000000 0.060933
#
#
# Mechanical properties :
#
#
# Convention : Reuss Voigt Hill
#
# Bulk Modulus (GPa) = 52.80043 57.78475 55.29259
# Shear Modulus (GPa) = 21.78444 23.94956 22.86700
#
# Velocity S-wave (km/s) = 3.19973 3.35497 3.27827
# Velocity P-wave (km/s) = 6.20212 6.49350 6.34948
#
# Compressibility (1/GPa) = 0.01893924
#
# Stress axis : x y z
#
# Youngs Moduli (GPa) = 65.77649 65.77649 108.39928
#
# Poissons Ratio (x) = 0.22597 0.37455
# Poissons Ratio (y) = 0.22597 0.37455
# Poissons Ratio (z) = 0.22727 0.22727
#
# Static dielectric constant tensor:
#      x y z
#    x 3.848100 0.000000 0.000000 
#    y 0.000000 3.848100 0.000000 
#    z 0.000000 0.000000 3.841980 
# 
# 
# High freq. dielectric constant tensor:
#      x y z
#    x 1.818160 0.000000 0.000000 
#    y 0.000000 1.818160 0.000000 
#    z 0.000000 0.000000 1.834930 
# 
# From -- ./inp_files/12920.got.cif
#   From: 2010.03.12/outbox.cif.g09.slc.cpg/sg131_7_cif.got.tgz:12920.got - 2010.04.06 17:36:35.
