data_PCOD8316500
_publ_section_title
;
Structure prediction by ZEFSAII (Michael W. Deem and Ramdas Pophale) SiO2 
 PCOD8316500
Probable space group: P 42/M C M
;
_chemical_formula_sum "Si O2"
_cell_formula_units_Z 96
_cell_length_a 25.080550
_cell_length_b 25.080550
_cell_length_c 9.217629
_cell_angle_alpha 90.000000
_cell_angle_beta 90.000000
_cell_angle_gamma 90.000000
_cell_volume 5798.201933
_symmetry_space_group_name_H-M "P 42/M C M"
_symmetry_group_IT_number 132
_symmetry_cell_setting 'tetragonal'
loop_
_space_group_symop_operation_xyz
x,y,z
-y,x,1/2+z
-x,-y,z
y,-x,1/2+z
x,-y,1/2-z
-x,y,1/2-z
y,x,-z
-y,-x,-z
-x,-y,-z
y,-x,1/2-z
x,y,-z
-y,x,1/2-z
-x,y,1/2+z
x,-y,1/2+z
-y,-x,z
y,x,z
loop_
_atom_site_type_symbol
_atom_site_label
_atom_site_fract_x
_atom_site_fract_y
_atom_site_fract_z
Si Si1 0.148334 0.764306 0.660795
Si Si2 0.832690 0.341216 0.173325
Si Si3 0.445117 0.639086 0.668008
Si Si4 0.949747 0.352906 0.160782
Si Si5 0.272262 0.358764 0.831655
Si Si6 0.774484 0.050043 0.163570
O O1 0.128757 0.745122 0.500000
O O2 0.195665 0.804336 0.638353
O O3 0.170588 0.716511 0.756030
O O4 0.101233 0.793850 0.747140
O O5 0.889858 0.369144 0.216949
O O6 0.780615 0.370701 0.236146
O O7 0.829373 0.336423 0.000000
O O8 0.500000 0.644817 0.750000
O O9 0.457921 0.632274 0.500000
O O10 0.412527 0.587474 0.724412
O O11 0.410225 0.691562 0.695070
O O12 0.951570 0.289301 0.162215
O O13 0.000000 0.376712 0.250000
O O14 0.957725 0.375589 0.000000
O O15 0.305405 0.305405 0.785514
O O16 0.255850 0.353492 0.000000
O O17 0.798151 0.000000 0.250000
O O18 0.797090 0.051234 0.000000
#
# Coordination Sequence:
#
# PCOD8316500 Si02
#       6
#    16  16  16  16  16  16
#     4  10  19  28  38  54  78 108 140 173 210 253
#     4  10  19  28  40  61  87 115 150 189 225 264
#     4   9  19  35  53  74 100 128 159 196 235 276
#     4   8  15  25  36  53  77 106 141 180 218 256
#     4   9  18  32  47  64  90 123 156 189 227 274
#     4   9  16  26  39  53  71  97 130 168 210 256
#
# _framework density 16.556857999999998
#
# number of rings (size 3 to 8) (size 9 to 14) (size 15 to 20)
#    0.000    2.833    0.000    4.000    0.000    9.500 
#    0.000    2.500    0.000    0.000    0.000    0.000 
#    0.000    1.000    0.000   10.833    0.000    7.167 
#
# Total GULP energy -1189504.905207 kJ/mol
# GULP energy per Si atom -12390.676096 kJ/mol
# Density = 1.651917 g / cm^3
# Si number density = 16.556858 Si / 1000 Ang^3
#
#
#
# Elastic Constant Matrix: (Units=GPa)
#
#
# Indices 1 2 3 4 5 6 
#
# 1 84.6040 24.6403 44.6445 0.0000 0.0000 0.0000
# 2 24.6403 84.6040 44.6445 0.0000 0.0000 0.0000
# 3 44.6445 44.6445 103.0545 0.0000 0.0000 0.0000
# 4 0.0000 0.0000 0.0000 26.9769 0.0000 0.0000
# 5 0.0000 0.0000 0.0000 0.0000 26.9769 0.0000
# 6 0.0000 0.0000 0.0000 0.0000 0.0000 6.6819
#
#
#
# Elastic Compliance Matrix: (Units=1/GPa)
#
#
# Indices 1 2 3 4 5 6 
#
# 1 0.015424 -0.001253 -0.006139 0.000000 0.000000 0.000000
# 2 -0.001253 0.015424 -0.006139 0.000000 0.000000 0.000000
# 3 -0.006139 -0.006139 0.015023 0.000000 0.000000 0.000000
# 4 0.000000 0.000000 0.000000 0.037069 0.000000 0.000000
# 5 0.000000 0.000000 0.000000 0.000000 0.037069 0.000000
# 6 0.000000 0.000000 0.000000 0.000000 0.000000 0.149657
#
#
# Mechanical properties :
#
#
# Convention : Reuss Voigt Hill
#
# Bulk Modulus (GPa) = 53.16645 55.56903 54.36774
# Shear Modulus (GPa) = 16.50175 22.68269 19.59222
#
# Velocity S-wave (km/s) = 3.16044 3.70535 3.44369
# Velocity P-wave (km/s) = 6.74529 7.20705 6.97999
#
# Compressibility (1/GPa) = 0.01880885
#
# Stress axis : x y z
#
# Youngs Moduli (GPa) = 64.83310 64.83310 66.56512
#
# Poissons Ratio (x) = 0.08121 0.40867
# Poissons Ratio (y) = 0.08121 0.40867
# Poissons Ratio (z) = 0.39803 0.39803
#
# Static dielectric constant tensor:
#      x y z
#    x 3.008690 0.000000 0.000000 
#    y 0.000000 3.008690 0.000000 
#    z 0.000000 0.000000 3.404070 
# 
# 
# High freq. dielectric constant tensor:
#      x y z
#    x 1.609270 0.000000 0.000000 
#    y 0.000000 1.609270 0.000000 
#    z 0.000000 0.000000 1.648980 
# 
# From -- ./inp_files/1907.got.cif
#   From: 2010.03.12/outbox.cif.g09.slc.cpg/sg132_1_cif.got.tgz:1907.got - 2010.04.06 17:53:44.
