data_PCOD8316565
_publ_section_title
;
Structure prediction by ZEFSAII (Michael W. Deem and Ramdas Pophale) SiO2 
 PCOD8316565
Probable space group: P 42/M C M
;
_chemical_formula_sum "Si O2"
_cell_formula_units_Z 96
_cell_length_a 24.248612
_cell_length_b 24.248612
_cell_length_c 9.278024
_cell_angle_alpha 90.000000
_cell_angle_beta 90.000000
_cell_angle_gamma 90.000000
_cell_volume 5455.433428
_symmetry_space_group_name_H-M "P 42/M C M"
_symmetry_group_IT_number 132
_symmetry_cell_setting 'tetragonal'
loop_
_space_group_symop_operation_xyz
x,y,z
-y,x,1/2+z
-x,-y,z
y,-x,1/2+z
x,-y,1/2-z
-x,y,1/2-z
y,x,-z
-y,-x,-z
-x,-y,-z
y,-x,1/2-z
x,y,-z
-y,x,1/2-z
-x,y,1/2+z
x,-y,1/2+z
-y,-x,z
y,x,z
loop_
_atom_site_type_symbol
_atom_site_label
_atom_site_fract_x
_atom_site_fract_y
_atom_site_fract_z
Si Si1 0.050831 0.683203 0.341142
Si Si2 0.554383 0.643023 0.831146
Si Si3 0.812073 0.950226 0.839860
Si Si4 0.755888 0.244113 0.161548
Si Si5 0.768372 0.446692 0.333543
Si Si6 0.174660 0.666468 0.330250
Si Si7 0.152879 0.152879 0.339690
O O1 0.049199 0.655830 0.500000
O O2 0.039612 0.747629 0.355772
O O3 0.111685 0.673169 0.272448
O O4 0.000000 0.656883 0.250000
O O5 0.500000 0.621767 0.750000
O O6 0.606119 0.606119 0.782120
O O7 0.568186 0.705880 0.786660
O O8 0.543309 0.637352 0.000000
O O9 0.821382 0.895893 0.750236
O O10 0.839772 0.000000 0.750000
O O11 0.838713 0.946479 0.000000
O O12 0.781939 0.295141 0.247640
O O13 0.801570 0.198431 0.144130
O O14 0.737257 0.262744 0.000000
O O15 0.790757 0.500000 0.250000
O O16 0.770110 0.462012 0.500000
O O17 0.808062 0.395956 0.297791
O O18 0.177740 0.681350 0.500000
O O19 0.133792 0.133792 0.500000
#
# Coordination Sequence:
#
# PCOD8316565 Si02
#       7
#    16  16  16   8  16  16   8
#     4   9  18  31  49  74 102 133 170 208 252 307
#     4   9  18  32  49  71  96 127 166 206 252 300
#     4  10  19  32  50  72  99 135 174 213 258 307
#     4  11  23  33  47  79 114 140 168 212 263 307
#     4   9  19  35  56  76 100 134 173 215 256 307
#     4  10  20  35  55  77 104 141 177 211 257 316
#     4  11  21  33  49  72 106 139 171 212 258 311
#
# _framework density 17.597134
#
# number of rings (size 3 to 8) (size 9 to 14) (size 15 to 20)
#    0.000    2.333    1.667    1.000    1.167    3.167 
#    0.000    0.833    0.000    0.750    0.000    5.250 
#    0.000    0.000    0.000    0.000    0.000    0.000 
#
# Total GULP energy -1190076.121189 kJ/mol
# GULP energy per Si atom -12396.626262 kJ/mol
# Density = 1.755708 g / cm^3
# Si number density = 17.597134 Si / 1000 Ang^3
#
#
#
# Elastic Constant Matrix: (Units=GPa)
#
#
# Indices 1 2 3 4 5 6 
#
# 1 81.8856 31.3334 40.4581 0.0000 0.0000 0.0000
# 2 31.3334 81.8856 40.4581 0.0000 0.0000 0.0000
# 3 40.4581 40.4581 93.7830 0.0000 0.0000 0.0000
# 4 0.0000 0.0000 0.0000 29.7246 0.0000 0.0000
# 5 0.0000 0.0000 0.0000 0.0000 29.7247 0.0000
# 6 0.0000 0.0000 0.0000 0.0000 0.0000 18.9590
#
#
#
# Elastic Compliance Matrix: (Units=1/GPa)
#
#
# Indices 1 2 3 4 5 6 
#
# 1 0.016275 -0.003506 -0.005509 0.000000 0.000000 0.000000
# 2 -0.003506 0.016275 -0.005509 0.000000 0.000000 0.000000
# 3 -0.005509 -0.005509 0.015416 0.000000 0.000000 0.000000
# 4 0.000000 0.000000 0.000000 0.033642 0.000000 0.000000
# 5 0.000000 0.000000 0.000000 0.000000 0.033642 0.000000
# 6 0.000000 0.000000 0.000000 0.000000 0.000000 0.052745
#
#
# Mechanical properties :
#
#
# Convention : Reuss Voigt Hill
#
# Bulk Modulus (GPa) = 52.85471 53.56146 53.20809
# Shear Modulus (GPa) = 24.58812 25.36864 24.97838
#
# Velocity S-wave (km/s) = 3.74208 3.80101 3.77166
# Velocity P-wave (km/s) = 6.98370 7.05459 7.01923
#
# Compressibility (1/GPa) = 0.01891979
#
# Stress axis : x y z
#
# Youngs Moduli (GPa) = 61.44205 61.44205 64.86812
#
# Poissons Ratio (x) = 0.21542 0.35734
# Poissons Ratio (y) = 0.21542 0.35734
# Poissons Ratio (z) = 0.33847 0.33847
#
# Static dielectric constant tensor:
#      x y z
#    x 3.227370 0.000000 0.000000 
#    y 0.000000 3.227370 0.000000 
#    z 0.000000 0.000000 3.597420 
# 
# 
# High freq. dielectric constant tensor:
#      x y z
#    x 1.665050 0.000000 0.000000 
#    y 0.000000 1.665050 0.000000 
#    z 0.000000 0.000000 1.686040 
# 
# From -- ./inp_files/1847.got.cif
#   From: 2010.03.12/outbox.cif.g09.slc.cpg/sg132_1_cif.got.tgz:1847.got - 2010.04.06 17:53:44.
