data_PCOD8316335
_publ_section_title
;
Structure prediction by ZEFSAII (Michael W. Deem and Ramdas Pophale) SiO2 
 PCOD8316335
Probable space group: P 42/M M C
;
_chemical_formula_sum "Si O2"
_cell_formula_units_Z 56
_cell_length_a 13.881139
_cell_length_b 13.881139
_cell_length_c 15.610191
_cell_angle_alpha 90.000000
_cell_angle_beta 90.000000
_cell_angle_gamma 90.000000
_cell_volume 3007.865574
_symmetry_space_group_name_H-M "P 42/M M C"
_symmetry_group_IT_number 131
_symmetry_cell_setting 'tetragonal'
loop_
_space_group_symop_operation_xyz
x,y,z
-x,-y,z
-y,x,1/2+z
y,-x,1/2+z
-x,y,-z
x,-y,-z
y,x,1/2-z
-y,-x,1/2-z
-x,-y,-z
x,y,-z
y,-x,1/2-z
-y,x,1/2-z
x,-y,z
-x,y,z
-y,-x,1/2+z
y,x,1/2+z
loop_
_atom_site_type_symbol
_atom_site_label
_atom_site_fract_x
_atom_site_fract_y
_atom_site_fract_z
Si Si1 0.784132 0.212642 0.905344
Si Si2 0.889340 0.606919 0.343686
Si Si3 0.111850 0.111850 0.250000
Si Si4 0.739545 0.608981 0.196461
O O1 0.684881 0.152440 0.909218
O O2 0.855213 0.169866 0.833899
O O3 0.758936 0.323996 0.885664
O O4 0.831540 0.206651 0.000000
O O5 0.876217 0.500000 0.383483
O O6 0.835119 0.614989 0.253558
O O7 0.000000 0.630048 0.324413
O O8 0.000000 0.132582 0.266151
O O9 0.648102 0.648102 0.250000
O O10 0.717824 0.500000 0.166379
#
# Coordination Sequence:
#
# PCOD8316335 Si02
#       4
#    16  16   8  16
#     4  11  22  36  57  85 115 149 189 233 284 342
#     4   9  17  32  56  81 106 140 183 232 283 329
#     4  11  24  42  60  80 113 152 190 234 283 338
#     4   9  18  34  55  82 114 151 191 232 279 334
#
# _framework density 18.617853
#
# number of rings (size 3 to 8) (size 9 to 14) (size 15 to 20)
#    0.000    2.143    4.286    0.857    0.000    4.286 
#    0.000    2.857    0.000    0.000    0.000   14.000 
#    0.000    0.000    0.000    0.000    0.000    0.000 
#
# Total GULP energy -694214.978070 kJ/mol
# GULP energy per Si atom -12396.696037 kJ/mol
# Density = 1.857548 g / cm^3
# Si number density = 18.617853 Si / 1000 Ang^3
#
#
#
# Elastic Constant Matrix: (Units=GPa)
#
#
# Indices 1 2 3 4 5 6 
#
# 1 124.4103 38.3818 37.5206 0.0000 0.0000 0.0000
# 2 38.3818 124.4103 37.5206 0.0000 0.0000 0.0000
# 3 37.5206 37.5206 111.1333 0.0000 0.0000 0.0000
# 4 0.0000 0.0000 0.0000 10.0486 0.0000 0.0000
# 5 0.0000 0.0000 0.0000 0.0000 10.0486 0.0000
# 6 0.0000 0.0000 0.0000 0.0000 0.0000 26.0591
#
#
#
# Elastic Compliance Matrix: (Units=1/GPa)
#
#
# Indices 1 2 3 4 5 6 
#
# 1 0.009450 -0.002175 -0.002456 0.000000 0.000000 0.000000
# 2 -0.002175 0.009450 -0.002456 0.000000 0.000000 0.000000
# 3 -0.002456 -0.002456 0.010657 0.000000 0.000000 0.000000
# 4 0.000000 0.000000 0.000000 0.099516 0.000000 0.000000
# 5 0.000000 0.000000 0.000000 0.000000 0.099516 0.000000
# 6 0.000000 0.000000 0.000000 0.000000 0.000000 0.038374
#
#
# Mechanical properties :
#
#
# Convention : Reuss Voigt Hill
#
# Bulk Modulus (GPa) = 65.01096 65.20000 65.10548
# Shear Modulus (GPa) = 17.46640 25.66664 21.56652
#
# Velocity S-wave (km/s) = 3.06625 3.71698 3.40719
# Velocity P-wave (km/s) = 6.89422 7.31556 7.10801
#
# Compressibility (1/GPa) = 0.01538202
#
# Stress axis : x y z
#
# Youngs Moduli (GPa) = 105.82529 105.82529 93.83766
#
# Poissons Ratio (x) = 0.23012 0.23048
# Poissons Ratio (y) = 0.23012 0.23048
# Poissons Ratio (z) = 0.25993 0.25993
#
# Static dielectric constant tensor:
#      x y z
#    x 3.653660 0.000000 0.000000 
#    y 0.000000 3.653660 0.000000 
#    z 0.000000 0.000000 3.037530 
# 
# 
# High freq. dielectric constant tensor:
#      x y z
#    x 1.729950 0.000000 0.000000 
#    y 0.000000 1.729950 0.000000 
#    z 0.000000 0.000000 1.692380 
# 
# From -- ./inp_files/5290.got.cif
#   From: 2010.03.12/outbox.cif.g09.slc.cpg/sg131_3_cif.got.tgz:5290.got - 2010.04.06 17:36:35.
