data_PCOD8316681
_publ_section_title
;
Structure prediction by ZEFSAII (Michael W. Deem and Ramdas Pophale) SiO2 
 PCOD8316681
Probable space group: P 42/M C M
;
_chemical_formula_sum "Si O2"
_cell_formula_units_Z 72
_cell_length_a 15.961646
_cell_length_b 15.961646
_cell_length_c 15.167411
_cell_angle_alpha 90.000000
_cell_angle_beta 90.000000
_cell_angle_gamma 90.000000
_cell_volume 3864.264139
_symmetry_space_group_name_H-M "P 42/M C M"
_symmetry_group_IT_number 132
_symmetry_cell_setting 'tetragonal'
loop_
_space_group_symop_operation_xyz
x,y,z
-y,x,1/2+z
-x,-y,z
y,-x,1/2+z
x,-y,1/2-z
-x,y,1/2-z
y,x,-z
-y,-x,-z
-x,-y,-z
y,-x,1/2-z
x,y,-z
-y,x,1/2-z
-x,y,1/2+z
x,-y,1/2+z
-y,-x,z
y,x,z
loop_
_atom_site_type_symbol
_atom_site_label
_atom_site_fract_x
_atom_site_fract_y
_atom_site_fract_z
Si Si1 0.191725 0.329974 0.648177
Si Si2 0.816161 0.321727 0.648657
Si Si3 0.569548 0.569548 0.901968
Si Si4 0.091599 0.228660 0.000000
Si Si5 0.492157 0.747384 0.350358
Si Si6 0.899101 0.239721 0.000000
O O1 0.273242 0.273242 0.639624
O O2 0.156965 0.328232 0.748570
O O3 0.222252 0.419840 0.608720
O O4 0.117723 0.295489 0.586696
O O5 0.730175 0.269826 0.639929
O O6 0.887714 0.280172 0.589003
O O7 0.798776 0.414153 0.608937
O O8 0.500000 0.500000 0.903251
O O9 0.649060 0.528257 0.854697
O O10 0.596478 0.596478 0.000000
O O11 0.141116 0.141116 0.000000
O O12 0.994034 0.208473 0.000000
O O13 0.500000 0.772612 0.250000
O O14 0.843116 0.156885 0.000000
#
# Coordination Sequence:
#
# PCOD8316681 Si02
#       6
#    16  16   8   8  16   8
#     4   9  19  35  54  77 111 153 188 218 265 325
#     4   9  18  34  54  81 110 146 185 225 269 315
#     4  11  24  30  42  76 112 148 194 248 279 296
#     4  10  22  38  63  87 104 130 171 223 283 342
#     4  10  20  33  53  75 108 151 195 232 266 307
#     4  10  22  40  61  82 107 139 168 216 280 344
#
# _framework density 18.632268
#
# number of rings (size 3 to 8) (size 9 to 14) (size 15 to 20)
#    0.000    2.333    1.111    0.667    6.222    1.111 
#    0.000    2.222    0.000    4.000    0.000    6.222 
#    0.000    0.000    0.000    0.000    0.000    0.000 
#
# Total GULP energy -892366.681535 kJ/mol
# GULP energy per Si atom -12393.981688 kJ/mol
# Density = 1.858986 g / cm^3
# Si number density = 18.632268 Si / 1000 Ang^3
#
#
#
# Elastic Constant Matrix: (Units=GPa)
#
#
# Indices 1 2 3 4 5 6 
#
# 1 120.2876 46.7866 41.4423 0.0000 0.0000 0.0000
# 2 46.7866 120.2872 41.4422 0.0000 0.0000 0.0000
# 3 41.4423 41.4422 83.7934 0.0000 0.0000 0.0000
# 4 0.0000 0.0000 0.0000 21.6344 0.0000 0.0000
# 5 0.0000 0.0000 0.0000 0.0000 21.6342 0.0000
# 6 0.0000 0.0000 0.0000 0.0000 0.0000 15.3619
#
#
#
# Elastic Compliance Matrix: (Units=1/GPa)
#
#
# Indices 1 2 3 4 5 6 
#
# 1 0.010768 -0.002837 -0.003923 0.000000 0.000000 0.000000
# 2 -0.002837 0.010768 -0.003923 0.000000 0.000000 0.000000
# 3 -0.003923 -0.003923 0.015814 0.000000 0.000000 0.000000
# 4 0.000000 0.000000 0.000000 0.046223 0.000000 0.000000
# 5 0.000000 0.000000 0.000000 0.000000 0.046223 0.000000
# 6 0.000000 0.000000 0.000000 0.000000 0.000000 0.065096
#
#
# Mechanical properties :
#
#
# Convention : Reuss Voigt Hill
#
# Bulk Modulus (GPa) = 62.55353 64.85672 63.70513
# Shear Modulus (GPa) = 22.56458 24.70591 23.63525
#
# Velocity S-wave (km/s) = 3.48379 3.64534 3.56548
# Velocity P-wave (km/s) = 7.05889 7.25275 7.15648
#
# Compressibility (1/GPa) = 0.01598631
#
# Stress axis : x y z
#
# Youngs Moduli (GPa) = 92.86498 92.86467 63.23410
#
# Poissons Ratio (x) = 0.26345 0.24805
# Poissons Ratio (y) = 0.26345 0.24805
# Poissons Ratio (z) = 0.36428 0.36428
#
# Static dielectric constant tensor:
#      x y z
#    x 3.304410 0.000000 0.000000 
#    y 0.000000 3.304410 0.000000 
#    z 0.000000 0.000000 3.750900 
# 
# 
# High freq. dielectric constant tensor:
#      x y z
#    x 1.705860 0.000000 0.000000 
#    y 0.000000 1.705860 0.000000 
#    z 0.000000 0.000000 1.730090 
# 
# From -- ./inp_files/6183.got.cif
#   From: 2010.03.12/outbox.cif.g09.slc.cpg/sg132_4_cif.got.tgz:6183.got - 2010.04.06 17:53:44.
