data_PCOD8316483
_publ_section_title
;
Structure prediction by ZEFSAII (Michael W. Deem and Ramdas Pophale) SiO2 
 PCOD8316483
Probable space group: P 42/M C M
;
_chemical_formula_sum "Si O2"
_cell_formula_units_Z 80
_cell_length_a 22.027410
_cell_length_b 22.027410
_cell_length_c 10.335513
_cell_angle_alpha 90.000000
_cell_angle_beta 90.000000
_cell_angle_gamma 90.000000
_cell_volume 5014.861099
_symmetry_space_group_name_H-M "P 42/M C M"
_symmetry_group_IT_number 132
_symmetry_cell_setting 'tetragonal'
loop_
_space_group_symop_operation_xyz
x,y,z
-y,x,1/2+z
-x,-y,z
y,-x,1/2+z
x,-y,1/2-z
-x,y,1/2-z
y,x,-z
-y,-x,-z
-x,-y,-z
y,-x,1/2-z
x,y,-z
-y,x,1/2-z
-x,y,1/2+z
x,-y,1/2+z
-y,-x,z
y,x,z
loop_
_atom_site_type_symbol
_atom_site_label
_atom_site_fract_x
_atom_site_fract_y
_atom_site_fract_z
Si Si1 0.118987 0.220313 0.758820
Si Si2 0.164722 0.062821 0.000000
Si Si3 0.541239 0.365166 0.360544
Si Si4 0.777316 0.450691 0.647266
Si Si5 0.073868 0.175790 0.500000
Si Si6 0.787234 0.311210 0.347098
O O1 0.168533 0.168533 0.761162
O O2 0.073247 0.207195 0.875807
O O3 0.082855 0.219297 0.623951
O O4 0.153442 0.284088 0.776762
O O5 0.104147 0.104147 0.000000
O O6 0.145292 0.992524 0.000000
O O7 0.500000 0.394703 0.250000
O O8 0.514510 0.384904 0.500000
O O9 0.609710 0.390291 0.344606
O O10 0.541761 0.293891 0.352012
O O11 0.805463 0.500000 0.750000
O O12 0.802503 0.461608 0.500000
O O13 0.788045 0.381714 0.694653
O O14 0.120369 0.120369 0.500000
O O15 0.795269 0.304334 0.500000
O O16 0.725543 0.274458 0.305448
#
# Coordination Sequence:
#
# PCOD8316483 Si02
#       6
#    16   8  16  16   8  16
#     4   9  17  30  46  67  93 122 158 199 234 261
#     4  10  18  31  50  68  93 131 169 195 214 252
#     4   9  17  28  40  54  74 102 136 173 212 254
#     4   9  17  29  44  63  87 111 139 179 226 278
#     4  10  20  31  44  68 103 133 155 191 234 258
#     4   9  15  27  49  69  86 117 159 192 225 278
#
# _framework density 15.952586
#
# number of rings (size 3 to 8) (size 9 to 14) (size 15 to 20)
#    0.000    2.800    1.000    1.200    0.000    3.200 
#    1.800    1.000    0.000    4.800    0.000    0.000 
#    0.000    4.800    0.000    0.000    0.000    0.000 
#
# Total GULP energy -991175.714595 kJ/mol
# GULP energy per Si atom -12389.696432 kJ/mol
# Density = 1.591628 g / cm^3
# Si number density = 15.952586 Si / 1000 Ang^3
#
#
#
# Elastic Constant Matrix: (Units=GPa)
#
#
# Indices 1 2 3 4 5 6 
#
# 1 26.3317 75.6972 42.0298 0.0000 0.0000 0.0000
# 2 75.6972 26.3317 42.0298 0.0000 0.0000 0.0000
# 3 42.0298 42.0298 111.7513 0.0000 0.0000 0.0000
# 4 0.0000 0.0000 0.0000 15.9676 0.0000 0.0000
# 5 0.0000 0.0000 0.0000 0.0000 15.9676 0.0000
# 6 0.0000 0.0000 0.0000 0.0000 0.0000 16.9120
#
#
#
# Elastic Compliance Matrix: (Units=1/GPa)
#
#
# Indices 1 2 3 4 5 6 
#
# 1 -0.003028 0.017229 -0.005341 0.000000 0.000000 0.000000
# 2 0.017229 -0.003028 -0.005341 0.000000 0.000000 0.000000
# 3 -0.005341 -0.005341 0.012966 0.000000 0.000000 0.000000
# 4 0.000000 0.000000 0.000000 0.062627 0.000000 0.000000
# 5 0.000000 0.000000 0.000000 0.000000 0.062627 0.000000
# 6 0.000000 0.000000 0.000000 0.000000 0.000000 0.059130
#
#
# Mechanical properties :
#
#
# Convention : Reuss Voigt Hill
#
# Bulk Modulus (GPa) = 49.98883 53.76983 51.87933
# Shear Modulus (GPa) = 27.04626 10.07998 18.56312
#
# Velocity S-wave (km/s) = 4.12201 2.51643 3.41492
# Velocity P-wave (km/s) = 7.35245 6.49788 6.93833
#
# Compressibility (1/GPa) = 0.02000447
#
# Stress axis : x y z
#
# Youngs Moduli (GPa) = -330.28746 -330.28746 77.12381
#
# Poissons Ratio (x) = 5.69065 0.41194
# Poissons Ratio (y) = 5.69065 0.41194
# Poissons Ratio (z) = -1.76416 -1.76416
#
# Static dielectric constant tensor:
#      x y z
#    x 2.927050 0.000000 0.000000 
#    y 0.000000 2.927050 0.000000 
#    z 0.000000 0.000000 3.599930 
# 
# 
# High freq. dielectric constant tensor:
#      x y z
#    x 1.586140 0.000000 0.000000 
#    y 0.000000 1.586140 0.000000 
#    z 0.000000 0.000000 1.620530 
# 
# From -- ./inp_files/1616.got.cif
#   From: 2010.03.12/outbox.cif.g09.slc.cpg/sg132_1_cif.got.tgz:1616.got - 2010.04.06 17:53:44.
