data_PCOD8316059
_publ_section_title
;
Structure prediction by ZEFSAII (Michael W. Deem and Ramdas Pophale) SiO2 
 PCOD8316059
Probable space group: P 42/M M C
;
_chemical_formula_sum "Si O2"
_cell_formula_units_Z 104
_cell_length_a 27.239958
_cell_length_b 27.239958
_cell_length_c 8.912677
_cell_angle_alpha 90.000000
_cell_angle_beta 90.000000
_cell_angle_gamma 90.000000
_cell_volume 6613.342803
_symmetry_space_group_name_H-M "P 42/M M C"
_symmetry_group_IT_number 131
_symmetry_cell_setting 'tetragonal'
loop_
_space_group_symop_operation_xyz
x,y,z
-x,-y,z
-y,x,1/2+z
y,-x,1/2+z
-x,y,-z
x,-y,-z
y,x,1/2-z
-y,-x,1/2-z
-x,-y,-z
x,y,-z
y,-x,1/2-z
-y,x,1/2-z
x,-y,z
-x,y,z
-y,-x,1/2+z
y,x,1/2+z
loop_
_atom_site_type_symbol
_atom_site_label
_atom_site_fract_x
_atom_site_fract_y
_atom_site_fract_z
Si Si1 0.441901 0.000000 0.168012
Si Si2 0.785470 0.101098 0.673966
Si Si3 0.199717 0.728507 0.176777
Si Si4 0.557039 0.100349 0.675307
Si Si5 0.850285 0.359900 0.674259
Si Si6 0.700380 0.945872 0.169786
Si Si7 0.055549 0.876206 0.323677
O O1 0.424952 0.048853 0.254240
O O2 0.500000 0.000000 0.156836
O O3 0.418670 0.000000 0.000000
O O4 0.798239 0.096704 0.500000
O O5 0.764007 0.154361 0.716502
O O6 0.745976 0.059816 0.718052
O O7 0.834214 0.092479 0.768431
O O8 0.248667 0.751334 0.250000
O O9 0.190180 0.674683 0.247099
O O10 0.207196 0.722666 0.000000
O O11 0.568406 0.098101 0.500000
O O12 0.500000 0.110118 0.708333
O O13 0.586499 0.146341 0.748794
O O14 0.836685 0.364702 0.500000
O O15 0.904779 0.339479 0.703173
O O16 0.676826 0.000000 0.194936
O O17 0.720530 0.940407 0.000000
O O18 0.072583 0.927418 0.250000
O O19 0.059869 0.881089 0.500000
O O20 0.000000 0.864767 0.272904
#
# Coordination Sequence:
#
# PCOD8316059 Si02
#       7
#     8  16  16  16  16  16  16
#     4   9  17  29  45  63  83 113 153 191 227 269
#     4  10  20  33  51  73  92 111 135 162 195 242
#     4  10  20  34  51  71  95 118 144 177 217 262
#     4  10  20  33  47  65  91 121 154 194 235 271
#     4  10  20  32  48  68  90 118 153 186 224 271
#     4   9  18  31  45  63  89 117 142 174 213 252
#     4  11  24  39  54  70  86 104 125 152 187 230
#
# _framework density 15.725785
#
# number of rings (size 3 to 8) (size 9 to 14) (size 15 to 20)
#    0.000    2.077    0.000    3.462    1.077    9.077 
#    0.000    0.769    0.000    0.000    0.000    0.000 
#    0.000    0.000    0.000    0.000    0.000    0.000 
#
# Total GULP energy -1289681.583328 kJ/mol
# GULP energy per Si atom -12400.784455 kJ/mol
# Density = 1.568999 g / cm^3
# Si number density = 15.725785 Si / 1000 Ang^3
#
#
#
# Elastic Constant Matrix: (Units=GPa)
#
#
# Indices 1 2 3 4 5 6 
#
# 1 58.0004 30.8210 36.6624 0.0000 0.0000 0.0000
# 2 30.8210 57.9989 36.6659 0.0000 0.0000 0.0000
# 3 36.6624 36.6659 91.0697 0.0000 0.0000 0.0000
# 4 0.0000 0.0000 0.0000 23.3726 0.0000 0.0000
# 5 0.0000 0.0000 0.0000 0.0000 23.3726 0.0000
# 6 0.0000 0.0000 0.0000 0.0000 0.0000 20.6531
#
#
#
# Elastic Compliance Matrix: (Units=1/GPa)
#
#
# Indices 1 2 3 4 5 6 
#
# 1 0.026827 -0.009965 -0.006788 0.000000 0.000000 0.000000
# 2 -0.009965 0.026830 -0.006790 0.000000 0.000000 0.000000
# 3 -0.006788 -0.006790 0.016447 0.000000 0.000000 0.000000
# 4 0.000000 0.000000 0.000000 0.042785 0.000000 0.000000
# 5 0.000000 0.000000 0.000000 0.000000 0.042785 0.000000
# 6 0.000000 0.000000 0.000000 0.000000 0.000000 0.048419
#
#
# Mechanical properties :
#
#
# Convention : Reuss Voigt Hill
#
# Bulk Modulus (GPa) = 43.44486 46.15192 44.79839
# Shear Modulus (GPa) = 19.31600 20.34098 19.82849
#
# Velocity S-wave (km/s) = 3.50851 3.60040 3.55475
# Velocity P-wave (km/s) = 6.64074 6.83341 6.73776
#
# Compressibility (1/GPa) = 0.02301768
#
# Stress axis : x y z
#
# Youngs Moduli (GPa) = 37.27550 37.27182 60.80064
#
# Poissons Ratio (x) = 0.37141 0.41271
# Poissons Ratio (y) = 0.37145 0.41286
# Poissons Ratio (z) = 0.25302 0.25309
#
# Static dielectric constant tensor:
#      x y z
#    x 2.847260 0.000000 0.000000 
#    y 0.000000 2.847260 0.000000 
#    z 0.000000 0.000000 3.108080 
# 
# 
# High freq. dielectric constant tensor:
#      x y z
#    x 1.571940 0.000000 0.000000 
#    y 0.000000 1.571940 0.000000 
#    z 0.000000 0.000000 1.621390 
# 
# From -- ./inp_files/2590.got.cif
#   From: 2010.03.12/outbox.cif.g09.slc.cpg/sg131_2_cif.got.tgz:2590.got - 2010.04.06 17:36:35.
