data_PCOD8316118
_publ_section_title
;
Structure prediction by ZEFSAII (Michael W. Deem and Ramdas Pophale) SiO2 
 PCOD8316118
Probable space group: P 42/M M C
;
_chemical_formula_sum "Si O2"
_cell_formula_units_Z 80
_cell_length_a 22.824306
_cell_length_b 22.824306
_cell_length_c 9.046645
_cell_angle_alpha 90.000000
_cell_angle_beta 90.000000
_cell_angle_gamma 90.000000
_cell_volume 4712.840163
_symmetry_space_group_name_H-M "P 42/M M C"
_symmetry_group_IT_number 131
_symmetry_cell_setting 'tetragonal'
loop_
_space_group_symop_operation_xyz
x,y,z
-x,-y,z
-y,x,1/2+z
y,-x,1/2+z
-x,y,-z
x,-y,-z
y,x,1/2-z
-y,-x,1/2-z
-x,-y,-z
x,y,-z
y,-x,1/2-z
-y,x,1/2-z
x,-y,z
-x,y,z
-y,-x,1/2+z
y,x,1/2+z
loop_
_atom_site_type_symbol
_atom_site_label
_atom_site_fract_x
_atom_site_fract_y
_atom_site_fract_z
Si Si1 0.500000 0.581449 0.169715
Si Si2 0.283145 0.500000 0.329997
Si Si3 0.911155 0.565748 0.333501
Si Si4 0.680276 0.936346 0.329283
Si Si5 0.273736 0.187337 0.324219
Si Si6 0.389406 0.218535 0.832124
O O1 0.557411 0.557411 0.250000
O O2 0.500000 0.649133 0.191091
O O3 0.500000 0.561879 0.000000
O O4 0.261881 0.500000 0.500000
O O5 0.260753 0.561198 0.260269
O O6 0.935294 0.569019 0.500000
O O7 0.923152 0.500000 0.269935
O O8 0.942741 0.615978 0.240637
O O9 0.843052 0.578742 0.330066
O O10 0.669350 0.924241 0.500000
O O11 0.719506 0.881286 0.271024
O O12 0.711863 0.000000 0.302681
O O13 0.215826 0.215826 0.250000
O O14 0.267599 0.192824 0.500000
O O15 0.331546 0.221583 0.269243
O O16 0.371249 0.236218 0.000000
#
# Coordination Sequence:
#
# PCOD8316118 Si02
#       6
#     8   8  16  16  16  16
#     4  10  20  35  50  62  78 101 131 171 225 284
#     4   9  17  30  51  72  89 115 148 188 235 282
#     4   9  16  27  45  67  93 126 162 195 229 270
#     4   9  19  34  49  67  94 127 161 197 237 281
#     4  10  20  34  51  72  97 127 161 197 239 284
#     4   9  16  30  49  69  94 124 156 190 232 278
#
# _framework density 16.974902
#
# number of rings (size 3 to 8) (size 9 to 14) (size 15 to 20)
#    0.000    2.700    1.000    1.200    0.000    2.800 
#    0.000    6.500    0.000    0.000    0.000    0.000 
#    0.000    0.400    0.000    5.000    0.000    0.000 
#
# Total GULP energy -991119.092331 kJ/mol
# GULP energy per Si atom -12388.988654 kJ/mol
# Density = 1.693627 g / cm^3
# Si number density = 16.974902 Si / 1000 Ang^3
#
#
#
# Elastic Constant Matrix: (Units=GPa)
#
#
# Indices 1 2 3 4 5 6 
#
# 1 81.1470 63.7602 35.5980 0.0000 0.0000 0.0000
# 2 63.7602 81.1470 35.5980 0.0000 0.0000 0.0000
# 3 35.5980 35.5980 56.2413 0.0000 0.0000 0.0000
# 4 0.0000 0.0000 0.0000 16.1766 0.0000 0.0000
# 5 0.0000 0.0000 0.0000 0.0000 16.1766 0.0000
# 6 0.0000 0.0000 0.0000 0.0000 0.0000 13.3148
#
#
#
# Elastic Compliance Matrix: (Units=1/GPa)
#
#
# Indices 1 2 3 4 5 6 
#
# 1 0.033765 -0.023750 -0.006339 0.000000 0.000000 0.000000
# 2 -0.023750 0.033765 -0.006339 0.000000 0.000000 0.000000
# 3 -0.006339 -0.006339 0.025806 0.000000 0.000000 0.000000
# 4 0.000000 0.000000 0.000000 0.061818 0.000000 0.000000
# 5 0.000000 0.000000 0.000000 0.000000 0.061818 0.000000
# 6 0.000000 0.000000 0.000000 0.000000 0.000000 0.075105
#
#
# Mechanical properties :
#
#
# Convention : Reuss Voigt Hill
#
# Bulk Modulus (GPa) = 48.82990 54.27194 51.55092
# Shear Modulus (GPa) = 13.44957 14.70556 14.07756
#
# Velocity S-wave (km/s) = 2.81787 2.94651 2.88291
# Velocity P-wave (km/s) = 6.27818 6.60433 6.44332
#
# Compressibility (1/GPa) = 0.02047926
#
# Stress axis : x y z
#
# Youngs Moduli (GPa) = 29.61624 29.61624 38.75126
#
# Poissons Ratio (x) = 0.70337 0.24566
# Poissons Ratio (y) = 0.70337 0.24566
# Poissons Ratio (z) = 0.18775 0.18775
#
# Static dielectric constant tensor:
#      x y z
#    x 3.206800 0.000000 0.000000 
#    y 0.000000 3.206800 0.000000 
#    z 0.000000 0.000000 3.185430 
# 
# 
# High freq. dielectric constant tensor:
#      x y z
#    x 1.643400 0.000000 0.000000 
#    y 0.000000 1.643400 0.000000 
#    z 0.000000 0.000000 1.642990 
# 
# From -- ./inp_files/2126.got.cif
#   From: 2010.03.12/outbox.cif.g09.slc.cpg/sg131_2_cif.got.tgz:2126.got - 2010.04.06 17:36:35.
