data_PCOD8316061
_publ_section_title
;
Structure prediction by ZEFSAII (Michael W. Deem and Ramdas Pophale) SiO2 
 PCOD8316061
Probable space group: P 42/M M C
;
_chemical_formula_sum "Si O2"
_cell_formula_units_Z 96
_cell_length_a 22.797649
_cell_length_b 22.797649
_cell_length_c 9.607886
_cell_angle_alpha 90.000000
_cell_angle_beta 90.000000
_cell_angle_gamma 90.000000
_cell_volume 4993.533492
_symmetry_space_group_name_H-M "P 42/M M C"
_symmetry_group_IT_number 131
_symmetry_cell_setting 'tetragonal'
loop_
_space_group_symop_operation_xyz
x,y,z
-x,-y,z
-y,x,1/2+z
y,-x,1/2+z
-x,y,-z
x,-y,-z
y,x,1/2-z
-y,-x,1/2-z
-x,-y,-z
x,y,-z
y,-x,1/2-z
-y,x,1/2-z
x,-y,z
-x,y,z
-y,-x,1/2+z
y,x,1/2+z
loop_
_atom_site_type_symbol
_atom_site_label
_atom_site_fract_x
_atom_site_fract_y
_atom_site_fract_z
Si Si1 0.884672 0.432375 0.662379
Si Si2 0.430344 0.352717 0.659100
Si Si3 0.430579 0.752373 0.153846
Si Si4 0.667696 0.066472 0.336908
Si Si5 0.233820 0.157123 0.658715
Si Si6 0.063571 0.867118 0.846156
O O1 0.898077 0.422605 0.500000
O O2 0.895154 0.500000 0.703111
O O3 0.818012 0.412895 0.697309
O O4 0.927965 0.393117 0.753887
O O5 0.406883 0.406883 0.750000
O O6 0.407438 0.355495 0.500000
O O7 0.500000 0.356070 0.662527
O O8 0.406459 0.292801 0.730421
O O9 0.500000 0.747954 0.145463
O O10 0.404995 0.737047 0.000000
O O11 0.655720 0.074459 0.500000
O O12 0.710269 0.119701 0.285667
O O13 0.692357 0.000000 0.309298
O O14 0.214799 0.214799 0.750000
O O15 0.243335 0.178499 0.500000
O O16 0.183094 0.110360 0.670731
O O17 0.077831 0.922170 0.750000
O O18 0.000000 0.840799 0.807660
O O19 0.064126 0.892941 0.000000
#
# Coordination Sequence:
#
# PCOD8316061 Si02
#       6
#    16  16  16  16  16  16
#     4   9  19  36  57  81 109 141 176 217 268 323
#     4  10  20  32  48  72 101 135 177 225 278 336
#     4   8  15  31  53  72  93 125 165 209 258 313
#     4  10  21  36  55  81 113 148 184 222 266 318
#     4   9  18  34  54  74  98 131 173 218 261 305
#     4   9  17  29  45  64  88 120 156 196 243 292
#
# _framework density 19.224865000000001
#
# number of rings (size 3 to 8) (size 9 to 14) (size 15 to 20)
#    0.000    2.833    0.000    2.000    0.000    6.000 
#    0.000    5.833    0.000    5.000    0.000    0.000 
#    0.000    0.000    0.000    0.000    0.000    0.000 
#
# Total GULP energy -1189506.485583 kJ/mol
# GULP energy per Si atom -12390.692558 kJ/mol
# Density = 1.918111 g / cm^3
# Si number density = 19.224865 Si / 1000 Ang^3
#
#
#
# Elastic Constant Matrix: (Units=GPa)
#
#
# Indices 1 2 3 4 5 6 
#
# 1 69.5331 28.7521 42.5208 0.0000 0.0000 0.0000
# 2 28.7521 69.5331 42.5209 0.0000 0.0000 0.0000
# 3 42.5208 42.5209 92.4241 0.0000 0.0000 0.0000
# 4 0.0000 0.0000 0.0000 29.1957 0.0000 0.0000
# 5 0.0000 0.0000 0.0000 0.0000 29.1957 0.0000
# 6 0.0000 0.0000 0.0000 0.0000 0.0000 39.3997
#
#
#
# Elastic Compliance Matrix: (Units=1/GPa)
#
#
# Indices 1 2 3 4 5 6 
#
# 1 0.020712 -0.003809 -0.007776 0.000000 0.000000 0.000000
# 2 -0.003809 0.020712 -0.007776 0.000000 0.000000 0.000000
# 3 -0.007776 -0.007776 0.017975 0.000000 0.000000 0.000000
# 4 0.000000 0.000000 0.000000 0.034252 0.000000 0.000000
# 5 0.000000 0.000000 0.000000 0.000000 0.034252 0.000000
# 6 0.000000 0.000000 0.000000 0.000000 0.000000 0.025381
#
#
# Mechanical properties :
#
#
# Convention : Reuss Voigt Hill
#
# Bulk Modulus (GPa) = 48.36689 51.00866 49.68777
# Shear Modulus (GPa) = 25.13835 27.40465 26.27150
#
# Velocity S-wave (km/s) = 3.61999 3.77965 3.70068
# Velocity P-wave (km/s) = 6.53342 6.75558 6.64543
#
# Compressibility (1/GPa) = 0.02067530
#
# Stress axis : x y z
#
# Youngs Moduli (GPa) = 48.28085 48.28078 55.63283
#
# Poissons Ratio (x) = 0.18390 0.43263
# Poissons Ratio (y) = 0.18391 0.43263
# Poissons Ratio (z) = 0.37545 0.37546
#
# Static dielectric constant tensor:
#      x y z
#    x 3.442930 0.000000 0.000000 
#    y 0.000000 3.442960 0.000000 
#    z 0.000000 0.000000 3.759910 
# 
# 
# High freq. dielectric constant tensor:
#      x y z
#    x 1.734870 0.000000 0.000000 
#    y 0.000000 1.734870 0.000000 
#    z 0.000000 0.000000 1.745660 
# 
# From -- ./inp_files/2200.got.cif
#   From: 2010.03.12/outbox.cif.g09.slc.cpg/sg131_2_cif.got.tgz:2200.got - 2010.04.06 17:36:35.
