data_PCOD8316114
_publ_section_title
;
Structure prediction by ZEFSAII (Michael W. Deem and Ramdas Pophale) SiO2 
 PCOD8316114
Probable space group: P 42/M M C
;
_chemical_formula_sum "Si O2"
_cell_formula_units_Z 96
_cell_length_a 14.378780
_cell_length_b 14.378780
_cell_length_c 25.184385
_cell_angle_alpha 90.000000
_cell_angle_beta 90.000000
_cell_angle_gamma 90.000000
_cell_volume 5206.854330
_symmetry_space_group_name_H-M "P 42/M M C"
_symmetry_group_IT_number 131
_symmetry_cell_setting 'tetragonal'
loop_
_space_group_symop_operation_xyz
x,y,z
-x,-y,z
-y,x,1/2+z
y,-x,1/2+z
-x,y,-z
x,-y,-z
y,x,1/2-z
-y,-x,1/2-z
-x,-y,-z
x,y,-z
y,-x,1/2-z
-y,x,1/2-z
x,-y,z
-x,y,z
-y,-x,1/2+z
y,x,1/2+z
loop_
_atom_site_type_symbol
_atom_site_label
_atom_site_fract_x
_atom_site_fract_y
_atom_site_fract_z
Si Si1 0.108905 0.210767 0.294876
Si Si2 0.105604 0.397504 0.560708
Si Si3 0.605175 0.180655 0.378679
Si Si4 0.888579 0.888984 0.000000
Si Si5 0.396898 0.107001 0.263197
Si Si6 0.000000 0.391675 0.058185
Si Si7 0.222660 0.800045 0.097618
O O1 0.137678 0.137678 0.250000
O O2 0.135815 0.316628 0.277958
O O3 0.165437 0.179488 0.346925
O O4 0.000000 0.201730 0.306393
O O5 0.111260 0.364377 0.500000
O O6 0.149292 0.500000 0.567391
O O7 0.160098 0.325902 0.596271
O O8 0.000000 0.398819 0.580440
O O9 0.500000 0.212911 0.395463
O O10 0.610348 0.170273 0.315525
O O11 0.637309 0.086886 0.407193
O O12 0.688663 0.244762 0.400516
O O13 0.844078 0.838067 0.948885
O O14 0.000000 0.874767 0.000000
O O15 0.864395 0.000000 0.000000
O O16 0.500000 0.121713 0.237551
O O17 0.384487 0.000000 0.280817
O O18 0.000000 0.500000 0.048264
O O19 0.000000 0.341725 0.000000
#
# Coordination Sequence:
#
# PCOD8316114 Si02
#       7
#    16  16  16   8  16   8  16
#     4  11  23  37  54  80 110 147 192 233 279 336
#     4   9  18  35  60  86 111 142 185 241 297 338
#     4  10  20  33  53  80 112 148 188 235 283 337
#     4  11  26  42  56  82 120 163 200 230 276 342
#     4   9  17  34  57  79 106 141 183 236 293 337
#     4   9  18  30  48  76 108 142 186 235 276 319
#     4  12  23  37  61  84 115 151 193 237 287 343
#
# _framework density 18.437234
#
# number of rings (size 3 to 8) (size 9 to 14) (size 15 to 20)
#    0.000    1.833    3.333    2.000    2.333    1.500 
#    0.000    1.667    0.000    0.500    0.000    1.167 
#    0.000    0.333    0.000    0.000    0.000    0.000 
#
# Total GULP energy -1189643.104218 kJ/mol
# GULP energy per Si atom -12392.115669 kJ/mol
# Density = 1.839527 g / cm^3
# Si number density = 18.437234 Si / 1000 Ang^3
#
#
#
# Elastic Constant Matrix: (Units=GPa)
#
#
# Indices 1 2 3 4 5 6 
#
# 1 84.6367 22.4267 28.7349 0.0000 0.0000 0.0000
# 2 22.4267 84.6367 28.7349 0.0000 0.0000 0.0000
# 3 28.7349 28.7349 94.0709 0.0000 0.0000 0.0000
# 4 0.0000 0.0000 0.0000 22.6933 0.0000 0.0000
# 5 0.0000 0.0000 0.0000 0.0000 22.6933 0.0000
# 6 0.0000 0.0000 0.0000 0.0000 0.0000 13.5939
#
#
#
# Elastic Compliance Matrix: (Units=1/GPa)
#
#
# Indices 1 2 3 4 5 6 
#
# 1 0.013623 -0.002451 -0.003413 0.000000 0.000000 0.000000
# 2 -0.002451 0.013623 -0.003413 0.000000 0.000000 0.000000
# 3 -0.003413 -0.003413 0.012715 0.000000 0.000000 0.000000
# 4 0.000000 0.000000 0.000000 0.044066 0.000000 0.000000
# 5 0.000000 0.000000 0.000000 0.000000 0.044066 0.000000
# 6 0.000000 0.000000 0.000000 0.000000 0.000000 0.073562
#
#
# Mechanical properties :
#
#
# Convention : Reuss Voigt Hill
#
# Bulk Modulus (GPa) = 46.70977 47.01527 46.86252
# Shear Modulus (GPa) = 21.99300 24.02597 23.00949
#
# Velocity S-wave (km/s) = 3.45752 3.61379 3.53652
# Velocity P-wave (km/s) = 6.42875 6.55501 6.49219
#
# Compressibility (1/GPa) = 0.02140880
#
# Stress axis : x y z
#
# Youngs Moduli (GPa) = 73.40343 73.40343 78.64653
#
# Poissons Ratio (x) = 0.17993 0.26839
# Poissons Ratio (y) = 0.17993 0.26839
# Poissons Ratio (z) = 0.25050 0.25050
#
# Static dielectric constant tensor:
#      x y z
#    x 3.449930 0.000000 0.000000 
#    y 0.000000 3.449930 0.000000 
#    z 0.000000 0.000000 3.422320 
# 
# 
# High freq. dielectric constant tensor:
#      x y z
#    x 1.699510 0.000000 0.000000 
#    y 0.000000 1.699510 0.000000 
#    z 0.000000 0.000000 1.720130 
# 
# From -- ./inp_files/11193.got.cif
#   From: 2010.03.12/outbox.cif.g09.slc.cpg/sg131_6_cif.got.tgz:11193.got - 2010.04.06 17:36:35.
