data_PCOD8316517
_publ_section_title
;
Structure prediction by ZEFSAII (Michael W. Deem and Ramdas Pophale) SiO2 
 PCOD8316517
Probable space group: P 42/M C M
;
_chemical_formula_sum "Si O2"
_cell_formula_units_Z 64
_cell_length_a 23.864123
_cell_length_b 23.864123
_cell_length_c 7.741266
_cell_angle_alpha 90.000000
_cell_angle_beta 90.000000
_cell_angle_gamma 90.000000
_cell_volume 4408.622860
_symmetry_space_group_name_H-M "P 42/M C M"
_symmetry_group_IT_number 132
_symmetry_cell_setting 'tetragonal'
loop_
_space_group_symop_operation_xyz
x,y,z
-y,x,1/2+z
-x,-y,z
y,-x,1/2+z
x,-y,1/2-z
-x,y,1/2-z
y,x,-z
-y,-x,-z
-x,-y,-z
y,-x,1/2-z
x,y,-z
-y,x,1/2-z
-x,y,1/2+z
x,-y,1/2+z
-y,-x,z
y,x,z
loop_
_atom_site_type_symbol
_atom_site_label
_atom_site_fract_x
_atom_site_fract_y
_atom_site_fract_z
Si Si1 0.287484 0.618774 0.000000
Si Si2 0.145743 0.760533 0.309462
Si Si3 0.293151 0.801699 0.000000
Si Si4 0.654707 0.562216 0.197919
Si Si5 0.936410 0.847439 0.298065
O O1 0.225163 0.644818 0.000000
O O2 0.295607 0.582173 0.174049
O O3 0.331409 0.668592 0.000000
O O4 0.149381 0.733280 0.500000
O O5 0.190489 0.809512 0.284273
O O6 0.158893 0.712622 0.169015
O O7 0.084853 0.789064 0.285358
O O8 0.246658 0.753343 0.000000
O O9 0.636472 0.500000 0.250000
O O10 0.599893 0.599893 0.224969
O O11 0.676297 0.565564 0.000000
O O12 0.928372 0.840994 0.500000
O O13 0.900079 0.900079 0.228377
O O14 0.000000 0.858966 0.250000
#
# Coordination Sequence:
#
# PCOD8316517 Si02
#       5
#     8  16   8  16  16
#     4   9  18  30  43  62  85 107 141 183 217 253
#     4   9  16  27  43  60  78 102 133 170 211 255
#     4   9  16  28  44  61  81 103 132 174 215 253
#     4  10  19  30  44  61  84 116 152 187 219 250
#     4  10  19  30  42  57  80 108 143 184 218 254
#
# _framework density 14.517004999999999
#
# number of rings (size 3 to 8) (size 9 to 14) (size 15 to 20)
#    0.000    2.500    2.500    0.750    0.000    3.000 
#    0.000    7.500    0.000    0.000    0.000    0.000 
#    0.000    0.000    0.000    0.000    0.000    3.750 
#
# Total GULP energy -793356.588390 kJ/mol
# GULP energy per Si atom -12396.196694 kJ/mol
# Density = 1.448396 g / cm^3
# Si number density = 14.517005 Si / 1000 Ang^3
#
#
#
# Elastic Constant Matrix: (Units=GPa)
#
#
# Indices 1 2 3 4 5 6 
#
# 1 51.4159 49.3152 40.9394 0.0000 0.0000 0.0000
# 2 49.3152 51.4156 40.9393 0.0000 0.0000 0.0000
# 3 40.9394 40.9393 125.2208 0.0000 0.0000 0.0000
# 4 0.0000 0.0000 0.0000 15.7440 0.0000 0.0000
# 5 0.0000 0.0000 0.0000 0.0000 15.7440 0.0000
# 6 0.0000 0.0000 0.0000 0.0000 0.0000 15.7620
#
#
#
# Elastic Compliance Matrix: (Units=1/GPa)
#
#
# Indices 1 2 3 4 5 6 
#
# 1 0.244792 -0.231272 -0.004420 0.000000 0.000000 0.000000
# 2 -0.231272 0.244793 -0.004420 0.000000 0.000000 0.000000
# 3 -0.004420 -0.004420 0.010876 0.000000 0.000000 0.000000
# 4 0.000000 0.000000 0.000000 0.063516 0.000000 0.000000
# 5 0.000000 0.000000 0.000000 0.000000 0.063516 0.000000
# 6 0.000000 0.000000 0.000000 0.000000 0.000000 0.063444
#
#
# Mechanical properties :
#
#
# Convention : Reuss Voigt Hill
#
# Bulk Modulus (GPa) = 49.41730 54.49334 51.95532
# Shear Modulus (GPa) = 4.24481 15.90725 10.07603
#
# Velocity S-wave (km/s) = 1.71183 3.31383 2.63741
# Velocity P-wave (km/s) = 6.16620 7.22918 6.71874
#
# Compressibility (1/GPa) = 0.02023583
#
# Stress axis : x y z
#
# Youngs Moduli (GPa) = 4.08510 4.08508 91.94348
#
# Poissons Ratio (x) = 0.94477 0.40642
# Poissons Ratio (y) = 0.94477 0.40642
# Poissons Ratio (z) = 0.01806 0.01806
#
# Static dielectric constant tensor:
#      x y z
#    x 2.124550 0.000000 0.000000 
#    y 0.000000 2.124540 0.000000 
#    z 0.000000 0.000000 3.123680 
# 
# 
# High freq. dielectric constant tensor:
#      x y z
#    x 1.515060 0.000000 0.000000 
#    y 0.000000 1.515060 0.000000 
#    z 0.000000 0.000000 1.580100 
# 
# From -- ./inp_files/1307.got.cif
#   From: 2010.03.12/outbox.cif.g09.slc.cpg/sg132_1_cif.got.tgz:1307.got - 2010.04.06 17:53:44.
