data_PCOD8316960
_publ_section_title
;
Structure prediction by ZEFSAII (Michael W. Deem and Ramdas Pophale) SiO2 
 PCOD8316960
Probable space group: P 42/N B C
;
_chemical_formula_sum "Si O2"
_cell_formula_units_Z 104
_cell_length_a 16.467245
_cell_length_b 16.467245
_cell_length_c 18.081316
_cell_angle_alpha 90.000000
_cell_angle_beta 90.000000
_cell_angle_gamma 90.000000
_cell_volume 4903.113315
_symmetry_space_group_name_H-M "P 42/N B C"
_symmetry_group_IT_number 133
_space_group.IT_coordinate_system_code '2'
_symmetry_cell_setting 'tetragonal'
loop_
_space_group_symop_operation_xyz
x,y,z
1/2-y,x,1/2+z
1/2-x,1/2-y,z
y,1/2-x,1/2+z
x,1/2-y,-z
1/2-x,y,-z
y,x,1/2-z
1/2-y,1/2-x,1/2-z
-x,-y,-z
1/2+y,-x,1/2-z
1/2+x,1/2+y,-z
-y,1/2+x,1/2-z
-x,1/2+y,z
1/2+x,-y,z
-y,-x,1/2+z
1/2+y,1/2+x,1/2+z
loop_
_atom_site_type_symbol
_atom_site_label
_atom_site_fract_x
_atom_site_fract_y
_atom_site_fract_z
Si Si1 0.622986 0.617437 0.125964
Si Si2 0.870813 0.437383 0.834158
Si Si3 0.250000 0.250000 0.900946
Si Si4 0.702851 0.468648 0.311550
Si Si5 0.605431 0.832414 0.030304
Si Si6 0.537534 0.625491 0.813007
Si Si7 0.838077 0.273056 0.914456
O O1 0.657339 0.529176 0.147297
O O2 0.688212 0.690219 0.144801
O O3 0.539278 0.638779 0.167804
O O4 0.605573 0.606474 0.038419
O O5 0.826773 0.414787 0.757586
O O6 0.852137 0.369360 0.897061
O O7 0.966245 0.440082 0.816639
O O8 0.302301 0.190495 0.951641
O O9 0.787002 0.508486 0.287586
O O10 0.716753 0.406586 0.378315
O O11 0.568836 0.872229 0.102864
O O12 0.559556 0.750000 0.000000
O O13 0.601918 0.601918 0.750000
O O14 0.750000 0.250000 0.882490
O O15 0.842461 0.250000 0.000000
#
# Coordination Sequence:
#
# PCOD8316960 Si02
#       7
#    16  16   8  16  16  16  16
#     4  11  22  42  69 103 140 181 225 285 348 411
#     4  11  27  44  65 105 139 172 230 292 348 409
#     4  10  21  40  65 100 141 180 221 280 339 414
#     4  11  24  41  74  93 141 183 221 285 355 410
#     4  10  20  41  67  95 131 185 225 276 337 407
#     4  11  24  42  62  99 138 180 237 274 339 428
#     4  10  26  51  73  98 128 176 241 283 341 413
#
# _framework density 21.211012
#
# number of rings (size 3 to 8) (size 9 to 14) (size 15 to 20)
#    0.000    1.385    3.077    3.462   10.769    0.615 
#    8.308    1.154    0.000    0.000    0.000    0.000 
#    0.000    0.000    0.000    0.000    0.000    0.000 
#
# Total GULP energy -1288534.128398 kJ/mol
# GULP energy per Si atom -12389.751235 kJ/mol
# Density = 2.116274 g / cm^3
# Si number density = 21.211012 Si / 1000 Ang^3
#
#
#
# Elastic Constant Matrix: (Units=GPa)
#
#
# Indices 1 2 3 4 5 6 
#
# 1 107.7154 41.3759 50.6353 0.0000 0.0000 0.0000
# 2 41.3759 107.7154 50.6353 0.0000 0.0000 0.0000
# 3 50.6353 50.6353 123.4977 0.0000 0.0000 0.0000
# 4 0.0000 0.0000 0.0000 28.8660 0.0000 0.0000
# 5 0.0000 0.0000 0.0000 0.0000 28.8660 0.0000
# 6 0.0000 0.0000 0.0000 0.0000 0.0000 30.1943
#
#
#
# Elastic Compliance Matrix: (Units=1/GPa)
#
#
# Indices 1 2 3 4 5 6 
#
# 1 0.012185 -0.002889 -0.003812 0.000000 0.000000 0.000000
# 2 -0.002889 0.012185 -0.003812 0.000000 0.000000 0.000000
# 3 -0.003812 -0.003812 0.011223 0.000000 0.000000 0.000000
# 4 0.000000 0.000000 0.000000 0.034643 0.000000 0.000000
# 5 0.000000 0.000000 0.000000 0.000000 0.034643 0.000000
# 6 0.000000 0.000000 0.000000 0.000000 0.000000 0.033119
#
#
# Mechanical properties :
#
#
# Convention : Reuss Voigt Hill
#
# Bulk Modulus (GPa) = 68.63792 69.35792 68.99792
# Shear Modulus (GPa) = 30.51048 30.67073 30.59060
#
# Velocity S-wave (km/s) = 3.79677 3.80673 3.80176
# Velocity P-wave (km/s) = 7.18683 7.21745 7.20216
#
# Compressibility (1/GPa) = 0.01456921
#
# Stress axis : x y z
#
# Youngs Moduli (GPa) = 82.06712 82.06712 89.10360
#
# Poissons Ratio (x) = 0.23708 0.33963
# Poissons Ratio (y) = 0.23708 0.33963
# Poissons Ratio (z) = 0.31281 0.31281
#
# Static dielectric constant tensor:
#      x y z
#    x 4.209170 0.000000 0.000000 
#    y 0.000000 4.209170 0.000000 
#    z 0.000000 0.000000 3.914000 
# 
# 
# High freq. dielectric constant tensor:
#      x y z
#    x 1.828400 0.000000 0.000000 
#    y 0.000000 1.828400 0.000000 
#    z 0.000000 0.000000 1.836690 
# 
# From -- ./inp_files/5608.got.cif
#   From: 2010.03.12/outbox.cif.g09.slc.cpg/sg133_3_cif.got.tgz:5608.got - 2010.04.06 18:08:06.
