data_PCOD8316155
_publ_section_title
;
Structure prediction by ZEFSAII (Michael W. Deem and Ramdas Pophale) SiO2 
 PCOD8316155
Probable space group: P 42/M M C
;
_chemical_formula_sum "Si O2"
_cell_formula_units_Z 96
_cell_length_a 23.778349
_cell_length_b 23.778349
_cell_length_c 9.451434
_cell_angle_alpha 90.000000
_cell_angle_beta 90.000000
_cell_angle_gamma 90.000000
_cell_volume 5343.934175
_symmetry_space_group_name_H-M "P 42/M M C"
_symmetry_group_IT_number 131
_symmetry_cell_setting 'tetragonal'
loop_
_space_group_symop_operation_xyz
x,y,z
-x,-y,z
-y,x,1/2+z
y,-x,1/2+z
-x,y,-z
x,-y,-z
y,x,1/2-z
-y,-x,1/2-z
-x,-y,-z
x,y,-z
y,-x,1/2-z
-y,x,1/2-z
x,-y,z
-x,y,z
-y,-x,1/2+z
y,x,1/2+z
loop_
_atom_site_type_symbol
_atom_site_label
_atom_site_fract_x
_atom_site_fract_y
_atom_site_fract_z
Si Si1 0.872286 0.566125 0.665121
Si Si2 0.119719 0.119719 0.250000
Si Si3 0.564026 0.643582 0.335217
Si Si4 0.767728 0.433442 0.844178
Si Si5 0.065481 0.765628 0.665869
Si Si6 0.064446 0.061748 0.000000
Si Si7 0.343341 0.066159 0.660001
O O1 0.876021 0.581364 0.500000
O O2 0.883228 0.500000 0.690634
O O3 0.811425 0.585291 0.723793
O O4 0.917798 0.600574 0.754134
O O5 0.184363 0.107459 0.211158
O O6 0.101517 0.078850 0.372567
O O7 0.598802 0.598802 0.250000
O O8 0.568670 0.629742 0.500000
O O9 0.500000 0.639215 0.283075
O O10 0.588961 0.705848 0.303655
O O11 0.763916 0.500000 0.853814
O O12 0.785984 0.410474 0.000000
O O13 0.073255 0.752847 0.500000
O O14 0.086465 0.711735 0.754667
O O15 0.000000 0.780351 0.698583
O O16 0.000000 0.047382 0.000000
O O17 0.096077 0.000000 0.000000
O O18 0.343402 0.091447 0.500000
O O19 0.342956 0.000000 0.650654
#
# Coordination Sequence:
#
# PCOD8316155 Si02
#       7
#    16   8  16  16  16   8  16
#     4  10  20  34  56  86 115 142 172 212 267 323
#     4  12  22  35  56  80 108 146 188 228 278 334
#     4   9  18  31  47  70 101 137 178 219 264 312
#     4   8  15  30  51  73 100 135 174 215 258 310
#     4  10  21  38  57  78 107 145 187 228 273 325
#     4  11  22  34  50  78 114 144 178 230 286 334
#     4  10  22  38  58  83 110 144 183 221 262 315
#
# _framework density 17.964292
#
# number of rings (size 3 to 8) (size 9 to 14) (size 15 to 20)
#    0.000    2.250    0.833    3.500    1.167    4.167 
#    0.000    4.167    1.833    0.000    0.000    0.000 
#    0.000    0.000    0.000    0.000    0.000    0.000 
#
# Total GULP energy -1189899.949698 kJ/mol
# GULP energy per Si atom -12394.791143 kJ/mol
# Density = 1.792340 g / cm^3
# Si number density = 17.964292 Si / 1000 Ang^3
#
#
#
# Elastic Constant Matrix: (Units=GPa)
#
#
# Indices 1 2 3 4 5 6 
#
# 1 68.9238 34.9117 46.7361 0.0000 0.0000 0.0000
# 2 34.9117 68.9238 46.7361 0.0000 0.0000 0.0000
# 3 46.7361 46.7361 132.4026 0.0000 0.0000 0.0000
# 4 0.0000 0.0000 0.0000 35.6236 0.0000 0.0000
# 5 0.0000 0.0000 0.0000 0.0000 35.6236 0.0000
# 6 0.0000 0.0000 0.0000 0.0000 0.0000 15.4488
#
#
#
# Elastic Compliance Matrix: (Units=1/GPa)
#
#
# Indices 1 2 3 4 5 6 
#
# 1 0.021759 -0.007643 -0.004983 0.000000 0.000000 0.000000
# 2 -0.007643 0.021759 -0.004983 0.000000 0.000000 0.000000
# 3 -0.004983 -0.004983 0.011070 0.000000 0.000000 0.000000
# 4 0.000000 0.000000 0.000000 0.028071 0.000000 0.000000
# 5 0.000000 0.000000 0.000000 0.000000 0.028071 0.000000
# 6 0.000000 0.000000 0.000000 0.000000 0.000000 0.064730
#
#
# Mechanical properties :
#
#
# Convention : Reuss Voigt Hill
#
# Bulk Modulus (GPa) = 51.62223 58.55755 55.08989
# Shear Modulus (GPa) = 23.02728 26.79695 24.91211
#
# Velocity S-wave (km/s) = 3.58416 3.86642 3.72796
# Velocity P-wave (km/s) = 6.77692 7.25256 7.01877
#
# Compressibility (1/GPa) = 0.01937150
#
# Stress axis : x y z
#
# Youngs Moduli (GPa) = 45.95869 45.95869 90.33103
#
# Poissons Ratio (x) = 0.35124 0.45010
# Poissons Ratio (y) = 0.35124 0.45010
# Poissons Ratio (z) = 0.22900 0.22900
#
# Static dielectric constant tensor:
#      x y z
#    x 3.258520 0.000000 0.000000 
#    y 0.000000 3.258520 0.000000 
#    z 0.000000 0.000000 3.579300 
# 
# 
# High freq. dielectric constant tensor:
#      x y z
#    x 1.680530 0.000000 0.000000 
#    y 0.000000 1.680530 0.000000 
#    z 0.000000 0.000000 1.709700 
# 
# From -- ./inp_files/2355.got.cif
#   From: 2010.03.12/outbox.cif.g09.slc.cpg/sg131_2_cif.got.tgz:2355.got - 2010.04.06 17:36:35.
