data_PCOD8316518
_publ_section_title
;
Structure prediction by ZEFSAII (Michael W. Deem and Ramdas Pophale) SiO2 
 PCOD8316518
Probable space group: P 42/M C M
;
_chemical_formula_sum "Si O2"
_cell_formula_units_Z 96
_cell_length_a 27.171251
_cell_length_b 27.171251
_cell_length_c 8.969794
_cell_angle_alpha 90.000000
_cell_angle_beta 90.000000
_cell_angle_gamma 90.000000
_cell_volume 6622.191537
_symmetry_space_group_name_H-M "P 42/M C M"
_symmetry_group_IT_number 132
_symmetry_cell_setting 'tetragonal'
loop_
_space_group_symop_operation_xyz
x,y,z
-y,x,1/2+z
-x,-y,z
y,-x,1/2+z
x,-y,1/2-z
-x,y,1/2-z
y,x,-z
-y,-x,-z
-x,-y,-z
y,-x,1/2-z
x,y,-z
-y,x,1/2-z
-x,y,1/2+z
x,-y,1/2+z
-y,-x,z
y,x,z
loop_
_atom_site_type_symbol
_atom_site_label
_atom_site_fract_x
_atom_site_fract_y
_atom_site_fract_z
Si Si1 0.229463 0.688164 0.833250
Si Si2 0.122653 0.956563 0.168779
Si Si3 0.703028 0.379856 0.667900
Si Si4 0.550992 0.632519 0.326712
Si Si5 0.775319 0.951137 0.175402
Si Si6 0.840256 0.760478 0.823386
O O1 0.274127 0.725874 0.839668
O O2 0.247328 0.639036 0.748270
O O3 0.184050 0.712126 0.746344
O O4 0.212607 0.673958 0.000000
O O5 0.093781 0.906220 0.167160
O O6 0.168133 0.951013 0.279206
O O7 0.091001 0.000000 0.250000
O O8 0.138534 0.970423 0.000000
O O9 0.716251 0.395779 0.500000
O O10 0.663026 0.336975 0.667683
O O11 0.682167 0.426906 0.755564
O O12 0.500000 0.618698 0.250000
O O13 0.542594 0.642417 0.500000
O O14 0.586894 0.586894 0.297859
O O15 0.757473 0.897200 0.230996
O O16 0.749424 0.000000 0.250000
O O17 0.768277 0.956082 0.000000
O O18 0.810406 0.810406 0.772161
O O19 0.837089 0.756693 0.000000
#
# Coordination Sequence:
#
# PCOD8316518 Si02
#       6
#    16  16  16  16  16  16
#     4   9  16  25  39  60  82 101 123 155 195 237
#     4  10  20  31  42  54  66  82 106 138 177 220
#     4   9  16  27  43  60  80 106 134 166 206 251
#     4  10  20  32  45  61  82 110 147 189 228 263
#     4  10  19  30  43  56  72  95 121 149 182 223
#     4   9  17  28  41  57  76  98 124 154 190 232
#
# _framework density 14.496712
#
# number of rings (size 3 to 8) (size 9 to 14) (size 15 to 20)
#    0.000    2.500    0.000    4.000    0.000    8.667 
#    0.000    3.333    0.000    0.000    0.000    0.000 
#    0.000    0.000    0.000    0.000    0.000    0.833 
#
# Total GULP energy -1189513.290798 kJ/mol
# GULP energy per Si atom -12390.763446 kJ/mol
# Density = 1.446372 g / cm^3
# Si number density = 14.496712 Si / 1000 Ang^3
#
#
#
# Elastic Constant Matrix: (Units=GPa)
#
#
# Indices 1 2 3 4 5 6 
#
# 1 56.4296 46.1297 36.5077 0.0000 0.0000 0.0000
# 2 46.1297 56.4296 36.5077 0.0000 0.0000 0.0000
# 3 36.5077 36.5077 71.7485 0.0000 0.0000 0.0000
# 4 0.0000 0.0000 0.0000 20.5499 0.0000 0.0000
# 5 0.0000 0.0000 0.0000 0.0000 20.5499 0.0000
# 6 0.0000 0.0000 0.0000 0.0000 0.0000 11.7831
#
#
#
# Elastic Compliance Matrix: (Units=1/GPa)
#
#
# Indices 1 2 3 4 5 6 
#
# 1 0.056189 -0.040900 -0.007779 0.000000 0.000000 0.000000
# 2 -0.040900 0.056189 -0.007779 0.000000 0.000000 0.000000
# 3 -0.007779 -0.007779 0.021854 0.000000 0.000000 0.000000
# 4 0.000000 0.000000 0.000000 0.048662 0.000000 0.000000
# 5 0.000000 0.000000 0.000000 0.000000 0.048662 0.000000
# 6 0.000000 0.000000 0.000000 0.000000 0.000000 0.084867
#
#
# Mechanical properties :
#
#
# Convention : Reuss Voigt Hill
#
# Bulk Modulus (GPa) = 46.91654 46.98864 46.95259
# Shear Modulus (GPa) = 11.45619 14.94075 13.19847
#
# Velocity S-wave (km/s) = 2.81421 3.21383 3.02063
# Velocity P-wave (km/s) = 6.55694 6.80112 6.68015
#
# Compressibility (1/GPa) = 0.02131445
#
# Stress axis : x y z
#
# Youngs Moduli (GPa) = 17.79719 17.79719 45.75751
#
# Poissons Ratio (x) = 0.72790 0.35597
# Poissons Ratio (y) = 0.72790 0.35597
# Poissons Ratio (z) = 0.13845 0.13845
#
# Static dielectric constant tensor:
#      x y z
#    x 2.790690 0.000000 0.000000 
#    y 0.000000 2.790690 0.000000 
#    z 0.000000 0.000000 3.051080 
# 
# 
# High freq. dielectric constant tensor:
#      x y z
#    x 1.520800 0.000000 0.000000 
#    y 0.000000 1.520800 0.000000 
#    z 0.000000 0.000000 1.574540 
# 
# From -- ./inp_files/1881.got.cif
#   From: 2010.03.12/outbox.cif.g09.slc.cpg/sg132_1_cif.got.tgz:1881.got - 2010.04.06 17:53:44.
