data_PCOD8316132
_publ_section_title
;
Structure prediction by ZEFSAII (Michael W. Deem and Ramdas Pophale) SiO2 
 PCOD8316132
Probable space group: P 42/M M C
;
_chemical_formula_sum "Si O2"
_cell_formula_units_Z 72
_cell_length_a 20.021163
_cell_length_b 20.021163
_cell_length_c 9.532461
_cell_angle_alpha 90.000000
_cell_angle_beta 90.000000
_cell_angle_gamma 90.000000
_cell_volume 3821.058088
_symmetry_space_group_name_H-M "P 42/M M C"
_symmetry_group_IT_number 131
_symmetry_cell_setting 'tetragonal'
loop_
_space_group_symop_operation_xyz
x,y,z
-x,-y,z
-y,x,1/2+z
y,-x,1/2+z
-x,y,-z
x,-y,-z
y,x,1/2-z
-y,-x,1/2-z
-x,-y,-z
x,y,-z
y,-x,1/2-z
-y,x,1/2-z
x,-y,z
-x,y,z
-y,-x,1/2+z
y,x,1/2+z
loop_
_atom_site_type_symbol
_atom_site_label
_atom_site_fract_x
_atom_site_fract_y
_atom_site_fract_z
Si Si1 0.829084 0.260063 0.661634
Si Si2 0.500000 0.883257 0.347996
Si Si3 0.077986 0.355714 0.837389
Si Si4 0.287946 0.365301 0.350233
Si Si5 0.739430 0.500000 0.772935
Si Si6 0.500000 0.589720 0.339936
O O1 0.806178 0.193823 0.750000
O O2 0.850118 0.241455 0.500000
O O3 0.888211 0.298029 0.743762
O O4 0.767156 0.309016 0.656757
O O5 0.500000 0.918451 0.500000
O O6 0.430395 0.906323 0.274329
O O7 0.500000 0.803395 0.373376
O O8 0.000000 0.341685 0.828366
O O9 0.103408 0.351012 0.000000
O O10 0.349610 0.349610 0.250000
O O11 0.323249 0.366977 0.500000
O O12 0.253064 0.435364 0.323293
O O13 0.669596 0.500000 0.853898
O O14 0.500000 0.561735 0.500000
O O15 0.563916 0.563916 0.250000
#
# Coordination Sequence:
#
# PCOD8316132 Si02
#       6
#    16   8  16  16   8   8
#     4  10  20  36  56  80 110 144 183 228 275 324
#     4  10  20  34  52  78 111 148 189 233 274 329
#     4  10  20  36  58  83 114 153 193 231 275 328
#     4  10  22  36  52  72  98 131 170 220 278 334
#     4  12  21  34  54  77 101 131 175 227 280 342
#     4  11  25  42  58  74  94 127 172 227 295 356
#
# _framework density 18.842948
#
# number of rings (size 3 to 8) (size 9 to 14) (size 15 to 20)
#    0.000    1.667    2.222    3.000    0.000    8.000 
#    0.000    0.556    0.000    1.333    0.000    0.000 
#    0.000    0.444    0.000    4.667    0.000    2.000 
#
# Total GULP energy -891983.166210 kJ/mol
# GULP energy per Si atom -12388.655086 kJ/mol
# Density = 1.880006 g / cm^3
# Si number density = 18.842948 Si / 1000 Ang^3
#
#
#
# Elastic Constant Matrix: (Units=GPa)
#
#
# Indices 1 2 3 4 5 6 
#
# 1 72.4779 16.0519 40.0540 0.0000 0.0000 0.0000
# 2 16.0519 72.4793 40.0541 0.0000 0.0000 0.0000
# 3 40.0540 40.0541 136.9872 0.0000 0.0000 0.0000
# 4 0.0000 0.0000 0.0000 10.0759 0.0000 0.0000
# 5 0.0000 0.0000 0.0000 0.0000 10.0772 0.0000
# 6 0.0000 0.0000 0.0000 0.0000 0.0000 23.9910
#
#
#
# Elastic Compliance Matrix: (Units=1/GPa)
#
#
# Indices 1 2 3 4 5 6 
#
# 1 0.016541 -0.001181 -0.004491 0.000000 0.000000 0.000000
# 2 -0.001181 0.016540 -0.004491 0.000000 0.000000 0.000000
# 3 -0.004491 -0.004491 0.009926 0.000000 0.000000 0.000000
# 4 0.000000 0.000000 0.000000 0.099247 0.000000 0.000000
# 5 0.000000 0.000000 0.000000 0.000000 0.099234 0.000000
# 6 0.000000 0.000000 0.000000 0.000000 0.000000 0.041682
#
#
# Mechanical properties :
#
#
# Convention : Reuss Voigt Hill
#
# Bulk Modulus (GPa) = 44.08992 52.69605 48.39298
# Shear Modulus (GPa) = 16.07422 21.21445 18.64433
#
# Velocity S-wave (km/s) = 2.92389 3.35902 3.14898
# Velocity P-wave (km/s) = 5.90324 6.56282 6.24175
#
# Compressibility (1/GPa) = 0.02268092
#
# Stress axis : x y z
#
# Youngs Moduli (GPa) = 60.45644 60.45778 100.74377
#
# Poissons Ratio (x) = 0.07143 0.45244
# Poissons Ratio (y) = 0.07143 0.45243
# Poissons Ratio (z) = 0.27151 0.27151
#
# Static dielectric constant tensor:
#      x y z
#    x 3.281550 0.000000 0.000000 
#    y 0.000000 3.281550 0.000000 
#    z 0.000000 0.000000 3.738260 
# 
# 
# High freq. dielectric constant tensor:
#      x y z
#    x 1.712520 0.000000 0.000000 
#    y 0.000000 1.712520 0.000000 
#    z 0.000000 0.000000 1.729120 
# 
# From -- ./inp_files/1882.got.cif
#   From: 2010.03.12/outbox.cif.g09.slc.cpg/sg131_1_cif.got.tgz:1882.got - 2010.04.06 17:36:35.
