data_PCOD8316476
_publ_section_title
;
Structure prediction by ZEFSAII (Michael W. Deem and Ramdas Pophale) SiO2 
 PCOD8316476
Probable space group: P 42/M C M
;
_chemical_formula_sum "Si O2"
_cell_formula_units_Z 112
_cell_length_a 14.746229
_cell_length_b 14.746229
_cell_length_c 29.144602
_cell_angle_alpha 90.000000
_cell_angle_beta 90.000000
_cell_angle_gamma 90.000000
_cell_volume 6337.530710
_symmetry_space_group_name_H-M "P 42/M C M"
_symmetry_group_IT_number 132
_symmetry_cell_setting 'tetragonal'
loop_
_space_group_symop_operation_xyz
x,y,z
-y,x,1/2+z
-x,-y,z
y,-x,1/2+z
x,-y,1/2-z
-x,y,1/2-z
y,x,-z
-y,-x,-z
-x,-y,-z
y,-x,1/2-z
x,y,-z
-y,x,1/2-z
-x,y,1/2+z
x,-y,1/2+z
-y,-x,z
y,x,z
loop_
_atom_site_type_symbol
_atom_site_label
_atom_site_fract_x
_atom_site_fract_y
_atom_site_fract_z
Si Si1 0.111913 0.737989 0.142682
Si Si2 0.552094 0.301496 0.355923
Si Si3 0.544817 0.694380 0.448047
Si Si4 0.195371 0.954259 0.702126
Si Si5 0.337293 0.189272 0.206768
Si Si6 0.767089 0.382337 0.802140
Si Si7 0.156751 0.692076 0.950894
O O1 0.199475 0.800526 0.139277
O O2 0.140747 0.647936 0.171264
O O3 0.086052 0.706167 0.090794
O O4 0.030456 0.796492 0.163312
O O5 0.605897 0.394104 0.342097
O O6 0.535673 0.302511 0.410618
O O7 0.613169 0.214855 0.340985
O O8 0.460087 0.291205 0.327064
O O9 0.505079 0.688953 0.500000
O O10 0.606352 0.606352 0.438177
O O11 0.601793 0.785457 0.441369
O O12 0.117060 0.882941 0.687895
O O13 0.296264 0.911460 0.704958
O O14 0.168242 0.000000 0.750000
O O15 0.250797 0.250797 0.215790
O O16 0.406718 0.202644 0.249773
O O17 0.703708 0.296293 0.800092
O O18 0.224550 0.775451 0.954717
O O19 0.104876 0.682891 0.000000
#
# Coordination Sequence:
#
# PCOD8316476 Si02
#       7
#    16  16  16  16  16  16  16
#     4  10  18  30  53  81 108 138 164 203 267 327
#     4  11  21  32  49  71 100 143 183 216 258 308
#     4   9  17  30  50  76 104 133 172 227 279 314
#     4  11  21  35  56  81 106 132 167 215 271 326
#     4   9  20  36  50  67 100 142 177 211 258 315
#     4  10  18  32  51  72 102 139 175 211 257 310
#     4   8  14  27  49  75 102 138 177 205 246 317
#
# _framework density 17.672497
#
# number of rings (size 3 to 8) (size 9 to 14) (size 15 to 20)
#    0.000    2.286    2.857    2.143    0.000    2.429 
#    0.000    2.143    0.000    6.429    0.000    6.000 
#    0.000    0.000    0.000    0.000    0.000    0.000 
#
# Total GULP energy -1387522.632413 kJ/mol
# GULP energy per Si atom -12388.594932 kJ/mol
# Density = 1.763227 g / cm^3
# Si number density = 17.672497 Si / 1000 Ang^3
#
#
#
# Elastic Constant Matrix: (Units=GPa)
#
#
# Indices 1 2 3 4 5 6 
#
# 1 42.8773 26.5961 40.5037 0.0000 0.0000 0.0000
# 2 26.5961 42.8773 40.5037 0.0000 0.0000 0.0000
# 3 40.5037 40.5037 135.2241 0.0000 0.0000 0.0000
# 4 0.0000 0.0000 0.0000 24.0788 0.0000 0.0000
# 5 0.0000 0.0000 0.0000 0.0000 24.0788 0.0000
# 6 0.0000 0.0000 0.0000 0.0000 0.0000 27.6136
#
#
#
# Elastic Compliance Matrix: (Units=1/GPa)
#
#
# Indices 1 2 3 4 5 6 
#
# 1 0.041770 -0.019651 -0.006625 0.000000 0.000000 0.000000
# 2 -0.019651 0.041770 -0.006625 0.000000 0.000000 0.000000
# 3 -0.006625 -0.006625 0.011364 0.000000 0.000000 0.000000
# 4 0.000000 0.000000 0.000000 0.041530 0.000000 0.000000
# 5 0.000000 0.000000 0.000000 0.000000 0.041530 0.000000
# 6 0.000000 0.000000 0.000000 0.000000 0.000000 0.036214
#
#
# Mechanical properties :
#
#
# Convention : Reuss Voigt Hill
#
# Bulk Modulus (GPa) = 34.36278 48.46506 41.41392
# Shear Modulus (GPa) = 17.26031 22.71258 19.98644
#
# Velocity S-wave (km/s) = 3.12857 3.58885 3.36659
# Velocity P-wave (km/s) = 5.70413 6.68256 6.21264
#
# Compressibility (1/GPa) = 0.02910125
#
# Stress axis : x y z
#
# Youngs Moduli (GPa) = 23.94068 23.94068 87.99588
#
# Poissons Ratio (x) = 0.47045 0.58301
# Poissons Ratio (y) = 0.47045 0.58301
# Poissons Ratio (z) = 0.15862 0.15862
#
# Static dielectric constant tensor:
#      x y z
#    x 3.050920 0.000000 0.000000 
#    y 0.000000 3.050920 0.000000 
#    z 0.000000 0.000000 1.322280 
# 
# 
# High freq. dielectric constant tensor:
#      x y z
#    x 1.653660 0.000000 0.000000 
#    y 0.000000 1.653660 0.000000 
#    z 0.000000 0.000000 1.693360 
# 
# From -- ./inp_files/10085.got.cif
#   From: 2010.03.12/outbox.cif.g09.slc.cpg/sg132_6_cif.got.tgz:10085.got - 2010.04.06 17:53:44.
