data_PCOD8316964
_publ_section_title
;
Structure prediction by ZEFSAII (Michael W. Deem and Ramdas Pophale) SiO2 
 PCOD8316964
Probable space group: P 42/N B C
;
_chemical_formula_sum "Si O2"
_cell_formula_units_Z 108
_cell_length_a 14.123472
_cell_length_b 14.123472
_cell_length_c 26.724390
_cell_angle_alpha 90.000000
_cell_angle_beta 90.000000
_cell_angle_gamma 90.000000
_cell_volume 5330.779851
_symmetry_space_group_name_H-M "P 42/N B C"
_symmetry_group_IT_number 133
_space_group.IT_coordinate_system_code '2'
_symmetry_cell_setting 'tetragonal'
loop_
_space_group_symop_operation_xyz
x,y,z
1/2-y,x,1/2+z
1/2-x,1/2-y,z
y,1/2-x,1/2+z
x,1/2-y,-z
1/2-x,y,-z
y,x,1/2-z
1/2-y,1/2-x,1/2-z
-x,-y,-z
1/2+y,-x,1/2-z
1/2+x,1/2+y,-z
-y,1/2+x,1/2-z
-x,1/2+y,z
1/2+x,-y,z
-y,-x,1/2+z
1/2+y,1/2+x,1/2+z
loop_
_atom_site_type_symbol
_atom_site_label
_atom_site_fract_x
_atom_site_fract_y
_atom_site_fract_z
Si Si1 0.480045 0.030888 0.444940
Si Si2 0.250000 0.250000 0.129575
Si Si3 0.564678 0.109778 0.632659
Si Si4 0.190429 0.615703 0.084603
Si Si5 0.250000 0.750000 0.000000
Si Si6 0.775554 0.458993 0.363515
Si Si7 0.911259 0.724100 0.944052
Si Si8 0.881074 0.882354 0.691756
O O1 0.522362 0.132502 0.430374
O O2 0.368517 0.028228 0.446044
O O3 0.500000 0.000000 0.500000
O O4 0.504070 0.951876 0.403536
O O5 0.175658 0.297915 0.092354
O O6 0.205134 0.167857 0.163240
O O7 0.587342 0.206206 0.603199
O O8 0.663516 0.058348 0.648792
O O9 0.494422 0.121315 0.680106
O O10 0.141404 0.672145 0.130401
O O11 0.187889 0.683074 0.035818
O O12 0.796352 0.516592 0.416044
O O13 0.826224 0.519247 0.320160
O O14 0.878143 0.750000 0.000000
O O15 0.866768 0.866768 0.750000
#
# Coordination Sequence:
#
# PCOD8316964 Si02
#       8
#    16   8  16  16   4  16  16  16
#     4  11  23  36  58  92 132 177 220 264 319 395
#     4  10  22  42  64  90 130 170 216 280 326 398
#     4  11  23  43  66  97 131 176 223 277 334 403
#     4  12  22  40  63  92 139 178 224 266 327 396
#     4  12  24  36  64 100 124 194 220 244 324 408
#     4  10  22  42  65  92 137 171 219 286 335 395
#     4  10  21  36  58  91 132 175 215 262 330 394
#     4  11  24  47  72  97 128 174 231 286 351 402
#
# _framework density 20.259699000000001
#
# number of rings (size 3 to 8) (size 9 to 14) (size 15 to 20)
#    0.000    1.185    2.963    3.111    5.185    0.000 
#    8.000    0.000    0.000    0.000    0.000    0.000 
#    0.000    0.000    0.000    0.000    0.000    0.000 
#
# Total GULP energy -1338369.106002 kJ/mol
# GULP energy per Si atom -12392.306537 kJ/mol
# Density = 2.021359 g / cm^3
# Si number density = 20.259699 Si / 1000 Ang^3
#
#
#
# Elastic Constant Matrix: (Units=GPa)
#
#
# Indices 1 2 3 4 5 6 
#
# 1 96.8307 26.2790 34.9437 0.0000 0.0000 0.0000
# 2 26.2790 96.8307 34.9437 0.0000 0.0000 0.0000
# 3 34.9437 34.9437 117.8770 0.0000 0.0000 0.0000
# 4 0.0000 0.0000 0.0000 25.1495 0.0000 0.0000
# 5 0.0000 0.0000 0.0000 0.0000 25.1495 0.0000
# 6 0.0000 0.0000 0.0000 0.0000 0.0000 37.2920
#
#
#
# Elastic Compliance Matrix: (Units=1/GPa)
#
#
# Indices 1 2 3 4 5 6 
#
# 1 0.011970 -0.002204 -0.002895 0.000000 0.000000 0.000000
# 2 -0.002204 0.011970 -0.002895 0.000000 0.000000 0.000000
# 3 -0.002895 -0.002895 0.010200 0.000000 0.000000 0.000000
# 4 0.000000 0.000000 0.000000 0.039762 0.000000 0.000000
# 5 0.000000 0.000000 0.000000 0.000000 0.039762 0.000000
# 6 0.000000 0.000000 0.000000 0.000000 0.000000 0.026815
#
#
# Mechanical properties :
#
#
# Convention : Reuss Voigt Hill
#
# Bulk Modulus (GPa) = 55.09033 55.98570 55.53802
# Shear Modulus (GPa) = 30.76558 31.87631 31.32095
#
# Velocity S-wave (km/s) = 3.90110 3.97090 3.93615
# Velocity P-wave (km/s) = 6.89511 6.97983 6.93760
#
# Compressibility (1/GPa) = 0.01815201
#
# Stress axis : x y z
#
# Youngs Moduli (GPa) = 83.54085 83.54085 98.03995
#
# Poissons Ratio (x) = 0.18411 0.28384
# Poissons Ratio (y) = 0.18411 0.28384
# Poissons Ratio (z) = 0.24186 0.24186
#
# Static dielectric constant tensor:
#      x y z
#    x 3.765810 0.000000 0.000000 
#    y 0.000000 3.765810 0.000000 
#    z 0.000000 0.000000 3.313310 
# 
# 
# High freq. dielectric constant tensor:
#      x y z
#    x 1.802420 0.000000 0.000000 
#    y 0.000000 1.802420 0.000000 
#    z 0.000000 0.000000 1.768450 
# 
# From -- ./inp_files/7292.got.cif
#   From: 2010.03.12/outbox.cif.g09.slc.cpg/sg133_4_cif.got.tgz:7292.got - 2010.04.06 18:08:06.
