data_PCOD8316718
_publ_section_title
;
Structure prediction by ZEFSAII (Michael W. Deem and Ramdas Pophale) SiO2 
 PCOD8316718
Probable space group: P 42/M C M
;
_chemical_formula_sum "Si O2"
_cell_formula_units_Z 96
_cell_length_a 24.046371
_cell_length_b 24.046371
_cell_length_c 8.806259
_cell_angle_alpha 90.000000
_cell_angle_beta 90.000000
_cell_angle_gamma 90.000000
_cell_volume 5092.025162
_symmetry_space_group_name_H-M "P 42/M C M"
_symmetry_group_IT_number 132
_symmetry_cell_setting 'tetragonal'
loop_
_space_group_symop_operation_xyz
x,y,z
-y,x,1/2+z
-x,-y,z
y,-x,1/2+z
x,-y,1/2-z
-x,y,1/2-z
y,x,-z
-y,-x,-z
-x,-y,-z
y,-x,1/2-z
x,y,-z
-y,x,1/2-z
-x,y,1/2+z
x,-y,1/2+z
-y,-x,z
y,x,z
loop_
_atom_site_type_symbol
_atom_site_label
_atom_site_fract_x
_atom_site_fract_y
_atom_site_fract_z
Si Si1 0.850989 0.647312 0.177130
Si Si2 0.557370 0.762838 0.179020
Si Si3 0.443551 0.940597 0.678572
Si Si4 0.849150 0.060131 0.321514
Si Si5 0.646106 0.445414 0.825284
Si Si6 0.857221 0.232887 0.178178
O O1 0.798905 0.610153 0.229237
O O2 0.904888 0.610823 0.216772
O O3 0.850007 0.703779 0.271461
O O4 0.848385 0.662489 0.000000
O O5 0.500000 0.785939 0.250000
O O6 0.570401 0.701356 0.235812
O O7 0.549772 0.764682 0.000000
O O8 0.500000 0.914463 0.750000
O O9 0.453264 0.945282 0.500000
O O10 0.431670 0.000000 0.750000
O O11 0.842262 0.053641 0.500000
O O12 0.902510 0.097491 0.278098
O O13 0.793345 0.088750 0.258177
O O14 0.858070 0.000000 0.250000
O O15 0.618748 0.500000 0.750000
O O16 0.604782 0.395218 0.805474
O O17 0.660475 0.457618 0.000000
O O18 0.802011 0.197990 0.223467
O O19 0.867730 0.230753 0.000000
#
# Coordination Sequence:
#
# PCOD8316718 Si02
#       6
#    16  16  16  16  16  16
#     4  10  22  37  55  80 108 142 183 224 269 324
#     4  10  20  35  55  78 105 138 176 221 273 325
#     4  10  20  35  54  78 109 142 177 218 266 316
#     4  10  21  38  61  87 117 152 186 225 272 320
#     4  10  21  36  54  77 105 136 171 214 264 319
#     4  10  22  39  58  81 110 145 185 229 275 322
#
# _framework density 18.853010999999999
#
# number of rings (size 3 to 8) (size 9 to 14) (size 15 to 20)
#    0.000    2.000    0.000    4.500    0.000    7.667 
#    0.000    6.667    0.000    0.000    0.000    0.000 
#    0.000    0.000    0.000    0.000    0.000    0.000 
#
# Total GULP energy -1190479.353918 kJ/mol
# GULP energy per Si atom -12400.826603 kJ/mol
# Density = 1.881010 g / cm^3
# Si number density = 18.853011 Si / 1000 Ang^3
#
#
#
# Elastic Constant Matrix: (Units=GPa)
#
#
# Indices 1 2 3 4 5 6 
#
# 1 121.9011 60.9122 54.6368 0.0000 0.0000 0.0000
# 2 60.9122 121.9011 54.6368 0.0000 0.0000 0.0000
# 3 54.6368 54.6368 99.2835 0.0000 0.0000 0.0000
# 4 0.0000 0.0000 0.0000 32.1813 0.0000 0.0000
# 5 0.0000 0.0000 0.0000 0.0000 32.1813 0.0000
# 6 0.0000 0.0000 0.0000 0.0000 0.0000 32.9729
#
#
#
# Elastic Compliance Matrix: (Units=1/GPa)
#
#
# Indices 1 2 3 4 5 6 
#
# 1 0.012274 -0.004123 -0.004486 0.000000 0.000000 0.000000
# 2 -0.004123 0.012274 -0.004486 0.000000 0.000000 0.000000
# 3 -0.004486 -0.004486 0.015009 0.000000 0.000000 0.000000
# 4 0.000000 0.000000 0.000000 0.031074 0.000000 0.000000
# 5 0.000000 0.000000 0.000000 0.000000 0.031074 0.000000
# 6 0.000000 0.000000 0.000000 0.000000 0.000000 0.030328
#
#
# Mechanical properties :
#
#
# Convention : Reuss Voigt Hill
#
# Bulk Modulus (GPa) = 74.80038 75.93967 75.37002
# Shear Modulus (GPa) = 30.73566 30.99375 30.86471
#
# Velocity S-wave (km/s) = 4.04205 4.05899 4.05053
# Velocity P-wave (km/s) = 7.84512 7.89522 7.87021
#
# Compressibility (1/GPa) = 0.01336892
#
# Stress axis : x y z
#
# Youngs Moduli (GPa) = 81.47372 81.47372 66.62528
#
# Poissons Ratio (x) = 0.33588 0.29887
# Poissons Ratio (y) = 0.33588 0.29887
# Poissons Ratio (z) = 0.36547 0.36547
#
# Static dielectric constant tensor:
#      x y z
#    x 3.658030 0.000000 0.000000 
#    y 0.000000 3.658030 0.000000 
#    z 0.000000 0.000000 3.581040 
# 
# 
# High freq. dielectric constant tensor:
#      x y z
#    x 1.736140 0.000000 0.000000 
#    y 0.000000 1.736140 0.000000 
#    z 0.000000 0.000000 1.746360 
# 
# From -- ./inp_files/1797.got.cif
#   From: 2010.03.12/outbox.cif.g09.slc.cpg/sg132_1_cif.got.tgz:1797.got - 2010.04.06 17:53:44.
