data_PCOD8316504
_publ_section_title
;
Structure prediction by ZEFSAII (Michael W. Deem and Ramdas Pophale) SiO2 
 PCOD8316504
Probable space group: P 42/M C M
;
_chemical_formula_sum "Si O2"
_cell_formula_units_Z 80
_cell_length_a 17.135821
_cell_length_b 17.135821
_cell_length_c 18.588693
_cell_angle_alpha 90.000000
_cell_angle_beta 90.000000
_cell_angle_gamma 90.000000
_cell_volume 5458.316175
_symmetry_space_group_name_H-M "P 42/M C M"
_symmetry_group_IT_number 132
_symmetry_cell_setting 'tetragonal'
loop_
_space_group_symop_operation_xyz
x,y,z
-y,x,1/2+z
-x,-y,z
y,-x,1/2+z
x,-y,1/2-z
-x,y,1/2-z
y,x,-z
-y,-x,-z
-x,-y,-z
y,-x,1/2-z
x,y,-z
-y,x,1/2-z
-x,y,1/2+z
x,-y,1/2+z
-y,-x,z
y,x,z
loop_
_atom_site_type_symbol
_atom_site_label
_atom_site_fract_x
_atom_site_fract_y
_atom_site_fract_z
Si Si1 0.734902 0.265099 0.084884
Si Si2 0.872788 0.366594 0.915101
Si Si3 0.534484 0.659311 0.173325
Si Si4 0.610503 0.610503 0.585158
Si Si5 0.519455 0.162986 0.670158
Si Si6 0.035912 0.585883 0.579719
O O1 0.709973 0.177263 0.109398
O O2 0.672893 0.327108 0.116320
O O3 0.730716 0.269285 0.000000
O O4 0.835680 0.441289 0.876761
O O5 0.964894 0.356333 0.895727
O O6 0.864351 0.382081 0.000000
O O7 0.500000 0.634398 0.250000
O O8 0.615464 0.615464 0.159597
O O9 0.474710 0.634728 0.111531
O O10 0.554763 0.750735 0.171808
O O11 0.609300 0.609300 0.500000
O O12 0.500000 0.132235 0.750000
O O13 0.586455 0.107004 0.636120
O O14 0.066262 0.609205 0.500000
O O15 0.000000 0.500000 0.577756
#
# Coordination Sequence:
#
# PCOD8316504 Si02
#       6
#     8  16  16   8  16  16
#     4   9  16  27  44  63  84 104 135 180 211 249
#     4   9  16  28  44  61  81 108 135 167 215 260
#     4  11  22  34  45  56  79 114 146 182 227 263
#     4  11  21  32  47  62  76 102 148 191 224 252
#     4  10  19  28  41  61  79 106 139 179 214 259
#     4   8  15  27  43  59  79 105 131 164 213 262
#
# _framework density 14.656535
#
# number of rings (size 3 to 8) (size 9 to 14) (size 15 to 20)
#    0.000    2.400    3.000    2.100    0.000    5.200 
#    0.000    0.000    0.000    0.000    0.000    0.000 
#    0.000    0.000    0.000    0.900    0.000   11.700 
#
# Total GULP energy -991482.324127 kJ/mol
# GULP energy per Si atom -12393.529052 kJ/mol
# Density = 1.462318 g / cm^3
# Si number density = 14.656535 Si / 1000 Ang^3
#
#
#
# Elastic Constant Matrix: (Units=GPa)
#
#
# Indices 1 2 3 4 5 6 
#
# 1 84.9777 47.8664 32.9400 0.0000 0.0000 0.0000
# 2 47.8664 84.9776 32.9400 0.0000 0.0000 0.0000
# 3 32.9400 32.9400 65.0364 0.0000 0.0000 0.0000
# 4 0.0000 0.0000 0.0000 16.5649 0.0000 0.0000
# 5 0.0000 0.0000 0.0000 0.0000 16.5649 0.0000
# 6 0.0000 0.0000 0.0000 0.0000 0.0000 21.8559
#
#
#
# Elastic Compliance Matrix: (Units=1/GPa)
#
#
# Indices 1 2 3 4 5 6 
#
# 1 0.018499 -0.008447 -0.005091 0.000000 0.000000 0.000000
# 2 -0.008447 0.018499 -0.005092 0.000000 0.000000 0.000000
# 3 -0.005091 -0.005092 0.020534 0.000000 0.000000 0.000000
# 4 0.000000 0.000000 0.000000 0.060369 0.000000 0.000000
# 5 0.000000 0.000000 0.000000 0.000000 0.060369 0.000000
# 6 0.000000 0.000000 0.000000 0.000000 0.000000 0.045754
#
#
# Mechanical properties :
#
#
# Convention : Reuss Voigt Hill
#
# Bulk Modulus (GPa) = 49.32730 51.38718 50.35724
# Shear Modulus (GPa) = 18.65389 19.08016 18.86702
#
# Velocity S-wave (km/s) = 3.57141 3.61199 3.59176
# Velocity P-wave (km/s) = 7.12287 7.24792 7.18566
#
# Compressibility (1/GPa) = 0.02027275
#
# Stress axis : x y z
#
# Youngs Moduli (GPa) = 54.05609 54.05602 48.70079
#
# Poissons Ratio (x) = 0.45660 0.24796
# Poissons Ratio (y) = 0.45660 0.24796
# Poissons Ratio (z) = 0.27523 0.27523
#
# Static dielectric constant tensor:
#      x y z
#    x 2.976060 0.000000 0.000000 
#    y 0.000000 2.976060 0.000000 
#    z 0.000000 0.000000 2.899560 
# 
# 
# High freq. dielectric constant tensor:
#      x y z
#    x 1.533830 0.000000 0.000000 
#    y 0.000000 1.533830 0.000000 
#    z 0.000000 0.000000 1.561530 
# 
# From -- ./inp_files/6384.got.cif
#   From: 2010.03.12/outbox.cif.g09.slc.cpg/sg132_4_cif.got.tgz:6384.got - 2010.04.06 17:53:44.
