data_PCOD8316193
_publ_section_title
;
Structure prediction by ZEFSAII (Michael W. Deem and Ramdas Pophale) SiO2 
 PCOD8316193
Probable space group: P 42/M M C
;
_chemical_formula_sum "Si O2"
_cell_formula_units_Z 88
_cell_length_a 12.250425
_cell_length_b 12.250425
_cell_length_c 28.767696
_cell_angle_alpha 90.000000
_cell_angle_beta 90.000000
_cell_angle_gamma 90.000000
_cell_volume 4317.251930
_symmetry_space_group_name_H-M "P 42/M M C"
_symmetry_group_IT_number 131
_symmetry_cell_setting 'tetragonal'
loop_
_space_group_symop_operation_xyz
x,y,z
-x,-y,z
-y,x,1/2+z
y,-x,1/2+z
-x,y,-z
x,-y,-z
y,x,1/2-z
-y,-x,1/2-z
-x,-y,-z
x,y,-z
y,-x,1/2-z
-y,x,1/2-z
x,-y,z
-x,y,z
-y,-x,1/2+z
y,x,1/2+z
loop_
_atom_site_type_symbol
_atom_site_label
_atom_site_fract_x
_atom_site_fract_y
_atom_site_fract_z
Si Si1 0.000000 0.774796 0.946406
Si Si2 0.375010 0.125216 0.262481
Si Si3 0.000000 0.877768 0.147525
Si Si4 0.628734 0.119967 0.000000
Si Si5 0.767354 0.792010 0.180372
Si Si6 0.248215 0.629771 0.407630
Si Si7 0.380862 0.199990 0.553055
O O1 0.106002 0.703908 0.934818
O O2 0.000000 0.871290 0.908970
O O3 0.000000 0.816741 0.000000
O O4 0.500000 0.157112 0.249570
O O5 0.292292 0.135111 0.219127
O O6 0.332390 0.210900 0.301802
O O7 0.370571 0.000000 0.280173
O O8 0.110697 0.830134 0.168825
O O9 0.000000 0.000000 0.163384
O O10 0.666029 0.177705 0.047397
O O11 0.500000 0.112274 0.000000
O O12 0.682104 0.000000 0.000000
O O13 0.682885 0.803683 0.137903
O O14 0.261754 0.500000 0.402077
O O15 0.363077 0.690726 0.416171
O O16 0.371351 0.236370 0.500000
O O17 0.500000 0.152877 0.564470
#
# Coordination Sequence:
#
# PCOD8316193 Si02
#       7
#     8  16   8   8  16  16  16
#     4  10  21  41  60  87 127 174 222 265 307 371
#     4  10  22  43  70  95 120 159 210 259 316 389
#     4  12  24  40  63  98 134 169 211 258 324 385
#     4   9  20  38  59  84 121 174 223 264 310 363
#     4  11  23  42  63  97 132 162 204 266 326 382
#     4  11  22  38  60  91 131 170 217 264 310 378
#     4  10  20  36  59  85 118 163 216 271 318 363
#
# _framework density 20.383336
#
# number of rings (size 3 to 8) (size 9 to 14) (size 15 to 20)
#    0.000    1.545    3.636    1.364    0.000    3.818 
#    0.000    2.727    0.000    8.727    0.000    0.000 
#    0.000    0.000    0.000    0.000    0.000    0.000 
#
# Total GULP energy -1090345.577403 kJ/mol
# GULP energy per Si atom -12390.290652 kJ/mol
# Density = 2.033694 g / cm^3
# Si number density = 20.383336 Si / 1000 Ang^3
#
#
#
# Elastic Constant Matrix: (Units=GPa)
#
#
# Indices 1 2 3 4 5 6 
#
# 1 108.0611 26.4162 38.2108 0.0000 0.0000 0.0000
# 2 26.4162 108.0611 38.2108 0.0000 0.0000 0.0000
# 3 38.2108 38.2108 103.6655 0.0000 0.0000 0.0000
# 4 0.0000 0.0000 0.0000 29.3946 0.0000 0.0000
# 5 0.0000 0.0000 0.0000 0.0000 29.3946 0.0000
# 6 0.0000 0.0000 0.0000 0.0000 0.0000 -5.2432
#
#
#
# Elastic Compliance Matrix: (Units=1/GPa)
#
#
# Indices 1 2 3 4 5 6 
#
# 1 0.010827 -0.001421 -0.003467 0.000000 0.000000 0.000000
# 2 -0.001421 0.010827 -0.003467 0.000000 0.000000 0.000000
# 3 -0.003467 -0.003467 0.012202 0.000000 0.000000 0.000000
# 4 0.000000 0.000000 0.000000 0.034020 0.000000 0.000000
# 5 0.000000 0.000000 0.000000 0.000000 0.034020 0.000000
# 6 0.000000 0.000000 0.000000 0.000000 0.000000 -0.190724
#
#
# Mechanical properties :
#
#
# Convention : Reuss Voigt Hill
#
# Bulk Modulus (GPa) = 58.32044 58.38482 58.35263
# Shear Modulus (GPa) = -75.30016 25.17252 -25.06382
#
# Velocity S-wave (km/s) = -6.08459 3.51801 -3.51040
# Velocity P-wave (km/s) = 4.54852 6.72365 3.50131
#
# Compressibility (1/GPa) = 0.01714665
#
# Stress axis : x y z
#
# Youngs Moduli (GPa) = 92.35843 92.35843 81.95073
#
# Poissons Ratio (x) = 0.13122 0.28414
# Poissons Ratio (y) = 0.13122 0.28414
# Poissons Ratio (z) = 0.32023 0.32023
#
# Static dielectric constant tensor:
#      x y z
#    x 3.736660 0.000000 0.000000 
#    y 0.000000 3.736660 0.000000 
#    z 0.000000 0.000000 3.825320 
# 
# 
# High freq. dielectric constant tensor:
#      x y z
#    x 1.792820 0.000000 0.000000 
#    y 0.000000 1.792820 0.000000 
#    z 0.000000 0.000000 1.801340 
# 
# From -- ./inp_files/13587.got.cif
#   From: 2010.03.12/outbox.cif.g09.slc.cpg/sg131_7_cif.got.tgz:13587.got - 2010.04.06 17:36:35.
