data_PCOD8316541
_publ_section_title
;
Structure prediction by ZEFSAII (Michael W. Deem and Ramdas Pophale) SiO2 
 PCOD8316541
Probable space group: P 42/M C M
;
_chemical_formula_sum "Si O2"
_cell_formula_units_Z 112
_cell_length_a 16.945366
_cell_length_b 16.945366
_cell_length_c 24.412643
_cell_angle_alpha 90.000000
_cell_angle_beta 90.000000
_cell_angle_gamma 90.000000
_cell_volume 7009.978844
_symmetry_space_group_name_H-M "P 42/M C M"
_symmetry_group_IT_number 132
_symmetry_cell_setting 'tetragonal'
loop_
_space_group_symop_operation_xyz
x,y,z
-y,x,1/2+z
-x,-y,z
y,-x,1/2+z
x,-y,1/2-z
-x,y,1/2-z
y,x,-z
-y,-x,-z
-x,-y,-z
y,-x,1/2-z
x,y,-z
-y,x,1/2-z
-x,y,1/2+z
x,-y,1/2+z
-y,-x,z
y,x,z
loop_
_atom_site_type_symbol
_atom_site_label
_atom_site_fract_x
_atom_site_fract_y
_atom_site_fract_z
Si Si1 0.106794 0.766018 0.868661
Si Si2 0.423523 0.083817 0.222136
Si Si3 0.387766 0.072914 0.561890
Si Si4 0.936598 0.811689 0.138569
Si Si5 0.865797 0.258741 0.742280
Si Si6 0.094648 0.441363 0.903611
Si Si7 0.171023 0.294554 0.936755
O O1 0.182187 0.817814 0.888063
O O2 0.104980 0.682025 0.899271
O O3 0.107446 0.752571 0.804050
O O4 0.027307 0.815707 0.880283
O O5 0.500000 0.122966 0.250000
O O6 0.351227 0.143569 0.229682
O O7 0.442258 0.069508 0.159206
O O8 0.403186 0.000000 0.250000
O O9 0.364495 0.095245 0.500000
O O10 0.470118 0.115629 0.577723
O O11 0.402532 0.979266 0.564805
O O12 0.898933 0.898933 0.134001
O O13 0.929644 0.779514 0.200891
O O14 0.893402 0.751803 0.098177
O O15 0.780849 0.219152 0.731164
O O16 0.170042 0.385997 0.917303
O O17 0.258010 0.258010 0.926002
O O18 0.147527 0.286442 0.000000
#
# Coordination Sequence:
#
# PCOD8316541 Si02
#       7
#    16  16  16  16  16  16  16
#     4  11  22  34  48  66  95 131 168 207 240 283
#     4  11  19  28  46  70  99 124 151 191 241 300
#     4  11  21  33  48  68  93 123 163 200 241 287
#     4  10  19  32  50  68  91 124 163 210 251 288
#     4  10  19  32  48  68  95 125 161 202 247 292
#     4  11  19  31  51  72  94 121 158 196 245 299
#     4  10  19  31  48  71  96 120 150 194 248 294
#
# _framework density 15.977223
#
# number of rings (size 3 to 8) (size 9 to 14) (size 15 to 20)
#    0.000    1.429    2.857    6.429    0.000    0.571 
#    0.000    0.000    0.000    2.571    0.000    3.000 
#    0.000    0.857    0.000    9.000    0.000    3.857 
#
# Total GULP energy -1388478.480200 kJ/mol
# GULP energy per Si atom -12397.129288 kJ/mol
# Density = 1.594086 g / cm^3
# Si number density = 15.977223 Si / 1000 Ang^3
#
#
#
# Elastic Constant Matrix: (Units=GPa)
#
#
# Indices 1 2 3 4 5 6 
#
# 1 97.4941 48.8923 29.0987 0.0000 0.0000 0.0000
# 2 48.8923 97.4941 29.0987 0.0000 0.0000 0.0000
# 3 29.0987 29.0987 102.1190 0.0000 0.0000 0.0000
# 4 0.0000 0.0000 0.0000 17.3731 0.0000 0.0000
# 5 0.0000 0.0000 0.0000 0.0000 17.3731 0.0000
# 6 0.0000 0.0000 0.0000 0.0000 0.0000 17.2780
#
#
#
# Elastic Compliance Matrix: (Units=1/GPa)
#
#
# Indices 1 2 3 4 5 6 
#
# 1 0.014140 -0.006436 -0.002195 0.000000 0.000000 0.000000
# 2 -0.006436 0.014140 -0.002195 0.000000 0.000000 0.000000
# 3 -0.002195 -0.002195 0.011044 0.000000 0.000000 0.000000
# 4 0.000000 0.000000 0.000000 0.057560 0.000000 0.000000
# 5 0.000000 0.000000 0.000000 0.000000 0.057560 0.000000
# 6 0.000000 0.000000 0.000000 0.000000 0.000000 0.057877
#
#
# Mechanical properties :
#
#
# Convention : Reuss Voigt Hill
#
# Bulk Modulus (GPa) = 56.59135 56.80964 56.70049
# Shear Modulus (GPa) = 20.84524 23.07268 21.95896
#
# Velocity S-wave (km/s) = 3.61596 3.80425 3.71130
# Velocity P-wave (km/s) = 7.27533 7.41150 7.34373
#
# Compressibility (1/GPa) = 0.01767055
#
# Stress axis : x y z
#
# Youngs Moduli (GPa) = 70.72301 70.72301 90.55054
#
# Poissons Ratio (x) = 0.45515 0.19878
# Poissons Ratio (y) = 0.45515 0.19878
# Poissons Ratio (z) = 0.15525 0.15525
#
# Static dielectric constant tensor:
#      x y z
#    x 3.036670 0.000000 0.000000 
#    y 0.000000 3.036670 0.000000 
#    z 0.000000 0.000000 3.213810 
# 
# 
# High freq. dielectric constant tensor:
#      x y z
#    x 1.589320 0.000000 0.000000 
#    y 0.000000 1.589320 0.000000 
#    z 0.000000 0.000000 1.636470 
# 
# From -- ./inp_files/9305.got.cif
#   From: 2010.03.12/outbox.cif.g09.slc.cpg/sg132_5_cif.got.tgz:9305.got - 2010.04.06 17:53:44.
