data_PCOD8316903
_publ_section_title
;
Structure prediction by ZEFSAII (Michael W. Deem and Ramdas Pophale) SiO2 
 PCOD8316903
Probable space group: P 42/N B C
;
_chemical_formula_sum "Si O2"
_cell_formula_units_Z 112
_cell_length_a 14.449563
_cell_length_b 14.449563
_cell_length_c 27.781672
_cell_angle_alpha 90.000000
_cell_angle_beta 90.000000
_cell_angle_gamma 90.000000
_cell_volume 5800.531710
_symmetry_space_group_name_H-M "P 42/N B C"
_symmetry_group_IT_number 133
_space_group.IT_coordinate_system_code '2'
_symmetry_cell_setting 'tetragonal'
loop_
_space_group_symop_operation_xyz
x,y,z
1/2-y,x,1/2+z
1/2-x,1/2-y,z
y,1/2-x,1/2+z
x,1/2-y,-z
1/2-x,y,-z
y,x,1/2-z
1/2-y,1/2-x,1/2-z
-x,-y,-z
1/2+y,-x,1/2-z
1/2+x,1/2+y,-z
-y,1/2+x,1/2-z
-x,1/2+y,z
1/2+x,-y,z
-y,-x,1/2+z
1/2+y,1/2+x,1/2+z
loop_
_atom_site_type_symbol
_atom_site_label
_atom_site_fract_x
_atom_site_fract_y
_atom_site_fract_z
Si Si1 0.452949 0.231012 0.614205
Si Si2 0.989945 0.764294 0.870272
Si Si3 0.938416 0.412590 0.399578
Si Si4 0.572240 0.078280 0.100621
Si Si5 0.320150 0.133940 0.540975
Si Si6 0.667567 0.821424 0.196409
Si Si7 0.141035 0.551083 0.503792
O O1 0.487427 0.336319 0.617077
O O2 0.548353 0.174957 0.614632
O O3 0.383562 0.211848 0.567862
O O4 0.404073 0.203490 0.663422
O O5 0.070582 0.842948 0.869929
O O6 0.040016 0.665360 0.867893
O O7 0.925600 0.765156 0.918365
O O8 0.925273 0.774340 0.823917
O O9 0.907364 0.389492 0.454103
O O10 0.989118 0.509346 0.391439
O O11 0.581411 0.096248 0.044785
O O12 0.250000 0.176538 0.500000
O O13 0.382293 0.057786 0.513428
O O14 0.750000 0.750000 0.198353
O O15 0.643121 0.856880 0.250000
O O16 0.250000 0.569909 0.500000
#
# Coordination Sequence:
#
# PCOD8316903 Si02
#       7
#    16  16  16  16  16  16  16
#     4  11  24  37  59  96 119 162 214 253 314 380
#     4  10  20  38  63  88 124 167 194 256 315 361
#     4  11  22  38  56  87 131 162 208 262 298 368
#     4  12  20  37  62  81 127 170 210 252 304 361
#     4   9  16  36  57  80 119 164 210 257 294 345
#     4  10  21  44  70  93 120 149 203 269 323 374
#     4  10  18  36  56  77 119 171 212 247 298 347
#
# _framework density 19.308575000000001
#
# number of rings (size 3 to 8) (size 9 to 14) (size 15 to 20)
#    0.000    1.571    8.571    1.286    0.000    1.143 
#    0.000    2.857    0.000    0.000    0.000    2.000 
#    0.000    0.000    0.000    0.000    0.000    0.000 
#
# Total GULP energy -1387797.595590 kJ/mol
# GULP energy per Si atom -12391.049961 kJ/mol
# Density = 1.926463 g / cm^3
# Si number density = 19.308575 Si / 1000 Ang^3
#
#
#
# Elastic Constant Matrix: (Units=GPa)
#
#
# Indices 1 2 3 4 5 6 
#
# 1 70.3078 12.5852 28.6848 0.0000 0.0000 0.0000
# 2 12.5852 70.3077 28.6847 0.0000 0.0000 0.0000
# 3 28.6848 28.6847 113.0675 0.0000 0.0000 0.0000
# 4 0.0000 0.0000 0.0000 18.5027 0.0000 0.0000
# 5 0.0000 0.0000 0.0000 0.0000 18.5027 0.0000
# 6 0.0000 0.0000 0.0000 0.0000 0.0000 42.2004
#
#
#
# Elastic Compliance Matrix: (Units=1/GPa)
#
#
# Indices 1 2 3 4 5 6 
#
# 1 0.015979 -0.001346 -0.003712 0.000000 0.000000 0.000000
# 2 -0.001346 0.015979 -0.003712 0.000000 0.000000 0.000000
# 3 -0.003712 -0.003712 0.010728 0.000000 0.000000 0.000000
# 4 0.000000 0.000000 0.000000 0.054046 0.000000 0.000000
# 5 0.000000 0.000000 0.000000 0.000000 0.054046 0.000000
# 6 0.000000 0.000000 0.000000 0.000000 0.000000 0.023696
#
#
# Mechanical properties :
#
#
# Convention : Reuss Voigt Hill
#
# Bulk Modulus (GPa) = 39.76999 43.73249 41.75124
# Shear Modulus (GPa) = 24.95060 28.08973 26.52016
#
# Velocity S-wave (km/s) = 3.59862 3.81830 3.71009
# Velocity P-wave (km/s) = 6.15699 6.49135 6.32638
#
# Compressibility (1/GPa) = 0.02514459
#
# Stress axis : x y z
#
# Youngs Moduli (GPa) = 62.58363 62.58353 93.21498
#
# Poissons Ratio (x) = 0.08421 0.34605
# Poissons Ratio (y) = 0.08421 0.34605
# Poissons Ratio (z) = 0.23233 0.23233
#
# Static dielectric constant tensor:
#      x y z
#    x 21.430840 0.000000 0.000000 
#    y 0.000000 25.702660 0.000000 
#    z 0.000000 0.000000 3.685420 
# 
# 
# High freq. dielectric constant tensor:
#      x y z
#    x 1.750350 0.000000 0.000000 
#    y 0.000000 1.750350 0.000000 
#    z 0.000000 0.000000 1.718420 
# 
# From -- ./inp_files/7630.got.cif
#   From: 2010.03.12/outbox.cif.g09.slc.cpg/sg133_4_cif.got.tgz:7630.got - 2010.04.06 18:08:06.
