data_PCOD8316131
_publ_section_title
;
Structure prediction by ZEFSAII (Michael W. Deem and Ramdas Pophale) SiO2 
 PCOD8316131
Probable space group: P 42/M M C
;
_chemical_formula_sum "Si O2"
_cell_formula_units_Z 88
_cell_length_a 13.890441
_cell_length_b 13.890441
_cell_length_c 25.743699
_cell_angle_alpha 90.000000
_cell_angle_beta 90.000000
_cell_angle_gamma 90.000000
_cell_volume 4967.101300
_symmetry_space_group_name_H-M "P 42/M M C"
_symmetry_group_IT_number 131
_symmetry_cell_setting 'tetragonal'
loop_
_space_group_symop_operation_xyz
x,y,z
-x,-y,z
-y,x,1/2+z
y,-x,1/2+z
-x,y,-z
x,-y,-z
y,x,1/2-z
-y,-x,1/2-z
-x,-y,-z
x,y,-z
y,-x,1/2-z
-y,x,1/2-z
x,-y,z
-x,y,z
-y,-x,1/2+z
y,x,1/2+z
loop_
_atom_site_type_symbol
_atom_site_label
_atom_site_fract_x
_atom_site_fract_y
_atom_site_fract_z
Si Si1 0.114835 0.108025 0.000000
Si Si2 0.216299 0.113426 0.398631
Si Si3 0.608486 0.890711 0.144865
Si Si4 0.783624 0.390196 0.059880
Si Si5 0.260947 0.391370 0.441696
Si Si6 0.112169 0.798415 0.699551
O O1 0.154919 0.161989 0.050707
O O2 0.000000 0.108226 0.000000
O O3 0.155254 0.000000 0.000000
O O4 0.326349 0.149768 0.402149
O O5 0.159196 0.148014 0.348726
O O6 0.217808 0.000000 0.397490
O O7 0.500000 0.866806 0.164370
O O8 0.640599 0.823271 0.097318
O O9 0.683025 0.876077 0.192396
O O10 0.614497 0.000000 0.124279
O O11 0.790318 0.500000 0.078978
O O12 0.673833 0.355040 0.066117
O O13 0.818267 0.381072 0.000000
O O14 0.219500 0.380760 0.500000
O O15 0.294349 0.500000 0.430333
O O16 0.170191 0.829810 0.750000
O O17 0.000000 0.827812 0.704323
#
# Coordination Sequence:
#
# PCOD8316131 Si02
#       6
#     8  16  16  16  16  16
#     4   9  18  32  51  75 104 139 177 223 277 331
#     4  11  21  35  53  78 110 143 188 235 278 332
#     4   9  18  34  57  84 113 145 179 221 277 334
#     4  10  20  34  52  77 111 149 189 231 280 334
#     4   9  17  31  53  82 115 147 181 223 273 331
#     4  11  23  39  59  83 112 149 188 229 278 331
#
# _framework density 17.716570000000001
#
# number of rings (size 3 to 8) (size 9 to 14) (size 15 to 20)
#    0.000    2.091    2.727    1.091    0.000    3.091 
#    0.000    5.455    0.000    2.182    0.000    0.000 
#    0.000    0.000    0.000    0.000    0.000    0.000 
#
# Total GULP energy -1091117.022083 kJ/mol
# GULP energy per Si atom -12399.057069 kJ/mol
# Density = 1.767625 g / cm^3
# Si number density = 17.716570 Si / 1000 Ang^3
#
#
#
# Elastic Constant Matrix: (Units=GPa)
#
#
# Indices 1 2 3 4 5 6 
#
# 1 103.1381 45.4956 50.6277 0.0000 0.0000 0.0000
# 2 45.4956 103.1395 50.6281 0.0000 0.0000 0.0000
# 3 50.6277 50.6281 106.2261 0.0000 0.0000 0.0000
# 4 0.0000 0.0000 0.0000 26.3445 0.0000 0.0000
# 5 0.0000 0.0000 0.0000 0.0000 26.3433 0.0000
# 6 0.0000 0.0000 0.0000 0.0000 0.0000 25.5992
#
#
#
# Elastic Compliance Matrix: (Units=1/GPa)
#
#
# Indices 1 2 3 4 5 6 
#
# 1 0.013655 -0.003693 -0.004748 0.000000 0.000000 0.000000
# 2 -0.003693 0.013655 -0.004748 0.000000 0.000000 0.000000
# 3 -0.004748 -0.004748 0.013940 0.000000 0.000000 0.000000
# 4 0.000000 0.000000 0.000000 0.037959 0.000000 0.000000
# 5 0.000000 0.000000 0.000000 0.000000 0.037960 0.000000
# 6 0.000000 0.000000 0.000000 0.000000 0.000000 0.039064
#
#
# Mechanical properties :
#
#
# Convention : Reuss Voigt Hill
#
# Bulk Modulus (GPa) = 67.23936 67.33404 67.28670
# Shear Modulus (GPa) = 26.65684 26.70755 26.68220
#
# Velocity S-wave (km/s) = 3.88316 3.88685 3.88501
# Velocity P-wave (km/s) = 7.62499 7.63101 7.62800
#
# Compressibility (1/GPa) = 0.01487224
#
# Stress axis : x y z
#
# Youngs Moduli (GPa) = 73.23095 73.23177 71.73630
#
# Poissons Ratio (x) = 0.27043 0.34062
# Poissons Ratio (y) = 0.27042 0.34062
# Poissons Ratio (z) = 0.34772 0.34772
#
# Static dielectric constant tensor:
#      x y z
#    x 3.368720 0.000000 0.000000 
#    y 0.000000 3.368720 0.000000 
#    z 0.000000 0.000000 3.668500 
# 
# 
# High freq. dielectric constant tensor:
#      x y z
#    x 1.690200 0.000000 0.000000 
#    y 0.000000 1.690200 0.000000 
#    z 0.000000 0.000000 1.657330 
# 
# From -- ./inp_files/11073.got.cif
#   From: 2010.03.12/outbox.cif.g09.slc.cpg/sg131_6_cif.got.tgz:11073.got - 2010.04.06 17:36:35.
