data_PCOD8316432
_publ_section_title
;
Structure prediction by ZEFSAII (Michael W. Deem and Ramdas Pophale) SiO2 
 PCOD8316432
Probable space group: P 42/M C M
;
_chemical_formula_sum "Si O2"
_cell_formula_units_Z 96
_cell_length_a 15.168345
_cell_length_b 15.168345
_cell_length_c 20.667159
_cell_angle_alpha 90.000000
_cell_angle_beta 90.000000
_cell_angle_gamma 90.000000
_cell_volume 4755.072870
_symmetry_space_group_name_H-M "P 42/M C M"
_symmetry_group_IT_number 132
_symmetry_cell_setting 'tetragonal'
loop_
_space_group_symop_operation_xyz
x,y,z
-y,x,1/2+z
-x,-y,z
y,-x,1/2+z
x,-y,1/2-z
-x,y,1/2-z
y,x,-z
-y,-x,-z
-x,-y,-z
y,-x,1/2-z
x,y,-z
-y,x,1/2-z
-x,y,1/2+z
x,-y,1/2+z
-y,-x,z
y,x,z
loop_
_atom_site_type_symbol
_atom_site_label
_atom_site_fract_x
_atom_site_fract_y
_atom_site_fract_z
Si Si1 0.454940 0.689896 0.573697
Si Si2 0.616476 0.095891 0.242263
Si Si3 0.176564 0.680831 0.625316
Si Si4 0.714708 0.568886 0.696591
Si Si5 0.936924 0.800956 0.306089
Si Si6 0.810927 0.043614 0.429826
O O1 0.491636 0.691991 0.500000
O O2 0.398935 0.601066 0.585182
O O3 0.393677 0.775285 0.583647
O O4 0.535237 0.692330 0.624470
O O5 0.640850 0.131854 0.312014
O O6 0.569467 0.177557 0.204970
O O7 0.697271 0.070494 0.197128
O O8 0.565300 0.000000 0.250000
O O9 0.245742 0.754259 0.649249
O O10 0.100960 0.723279 0.581665
O O11 0.677588 0.500000 0.750000
O O12 0.663403 0.663403 0.706481
O O13 0.841060 0.841060 0.295006
O O14 0.000000 0.838702 0.250000
O O15 0.969977 0.826921 0.376593
O O16 0.801174 0.997888 0.500000
O O17 0.895588 0.104413 0.428827
#
# Coordination Sequence:
#
# PCOD8316432 Si02
#       6
#    16  16  16  16  16  16
#     4  10  22  41  67  98 131 169 212 262 321 386
#     4  11  22  39  64  91 122 163 212 265 312 373
#     4  10  17  35  62  90 121 156 205 264 317 373
#     4  12  25  42  66  97 134 170 212 264 321 382
#     4  11  21  34  53  78 110 153 207 264 323 385
#     4  10  20  33  52  80 115 156 204 261 324 385
#
# _framework density 20.188966000000001
#
# number of rings (size 3 to 8) (size 9 to 14) (size 15 to 20)
#    0.000    1.333    5.000    3.000    0.000    5.333 
#    0.000    2.500    0.000    3.000    0.000    0.000 
#    0.000    0.000    0.000    0.000    0.000    0.000 
#
# Total GULP energy -1189446.328892 kJ/mol
# GULP energy per Si atom -12390.065926 kJ/mol
# Density = 2.014302 g / cm^3
# Si number density = 20.188966 Si / 1000 Ang^3
#
#
#
# Elastic Constant Matrix: (Units=GPa)
#
#
# Indices 1 2 3 4 5 6 
#
# 1 79.9200 32.4496 34.9114 0.0000 0.0000 0.0000
# 2 32.4496 79.9200 34.9114 0.0000 0.0000 0.0000
# 3 34.9114 34.9114 162.9485 0.0000 0.0000 0.0000
# 4 0.0000 0.0000 0.0000 37.6220 0.0000 0.0000
# 5 0.0000 0.0000 0.0000 0.0000 37.6220 0.0000
# 6 0.0000 0.0000 0.0000 0.0000 0.0000 7.1602
#
#
#
# Elastic Compliance Matrix: (Units=1/GPa)
#
#
# Indices 1 2 3 4 5 6 
#
# 1 0.015666 -0.005400 -0.002199 0.000000 0.000000 0.000000
# 2 -0.005400 0.015666 -0.002199 0.000000 0.000000 0.000000
# 3 -0.002199 -0.002199 0.007079 0.000000 0.000000 0.000000
# 4 0.000000 0.000000 0.000000 0.026580 0.000000 0.000000
# 5 0.000000 0.000000 0.000000 0.000000 0.026580 0.000000
# 6 0.000000 0.000000 0.000000 0.000000 0.000000 0.139660
#
#
# Mechanical properties :
#
#
# Convention : Reuss Voigt Hill
#
# Bulk Modulus (GPa) = 53.15381 58.59259 55.87320
# Shear Modulus (GPa) = 19.44767 31.18193 25.31480
#
# Velocity S-wave (km/s) = 3.10705 3.93428 3.54488
# Velocity P-wave (km/s) = 6.26554 7.05147 6.67009
#
# Compressibility (1/GPa) = 0.01881333
#
# Stress axis : x y z
#
# Youngs Moduli (GPa) = 63.83323 63.83323 141.25573
#
# Poissons Ratio (x) = 0.34470 0.31068
# Poissons Ratio (y) = 0.34470 0.31068
# Poissons Ratio (z) = 0.14040 0.14040
#
# Static dielectric constant tensor:
#      x y z
#    x 4.007820 0.000000 0.000000 
#    y 0.000000 4.007820 0.000000 
#    z 0.000000 0.000000 3.840060 
# 
# 
# High freq. dielectric constant tensor:
#      x y z
#    x 1.782470 0.000000 0.000000 
#    y 0.000000 1.782470 0.000000 
#    z 0.000000 0.000000 1.788780 
# 
# From -- ./inp_files/7873.got.cif
#   From: 2010.03.12/outbox.cif.g09.slc.cpg/sg132_4_cif.got.tgz:7873.got - 2010.04.06 17:53:44.
