data_PCOD8316387
_publ_section_title
;
Structure prediction by ZEFSAII (Michael W. Deem and Ramdas Pophale) SiO2 
 PCOD8316387
Probable space group: P 42/M M C
;
_chemical_formula_sum "Si O2"
_cell_formula_units_Z 112
_cell_length_a 29.501917
_cell_length_b 29.501917
_cell_length_c 9.702771
_cell_angle_alpha 90.000000
_cell_angle_beta 90.000000
_cell_angle_gamma 90.000000
_cell_volume 8444.933911
_symmetry_space_group_name_H-M "P 42/M M C"
_symmetry_group_IT_number 131
_symmetry_cell_setting 'tetragonal'
loop_
_space_group_symop_operation_xyz
x,y,z
-x,-y,z
-y,x,1/2+z
y,-x,1/2+z
-x,y,-z
x,-y,-z
y,x,1/2-z
-y,-x,1/2-z
-x,-y,-z
x,y,-z
y,-x,1/2-z
-y,x,1/2-z
x,-y,z
-x,y,z
-y,-x,1/2+z
y,x,1/2+z
loop_
_atom_site_type_symbol
_atom_site_label
_atom_site_fract_x
_atom_site_fract_y
_atom_site_fract_z
Si Si1 0.328169 0.868387 0.156439
Si Si2 0.450452 0.740551 0.836785
Si Si3 0.646553 0.050441 0.339739
Si Si4 0.839688 0.570067 0.342539
Si Si5 0.776833 0.283233 0.659564
Si Si6 0.080076 0.548779 0.843367
Si Si7 0.642461 0.297675 0.160692
O O1 0.324941 0.912583 0.253781
O O2 0.376259 0.844382 0.170885
O O3 0.291942 0.829577 0.198772
O O4 0.319723 0.884743 0.000000
O O5 0.500000 0.721392 0.790705
O O6 0.444474 0.791379 0.780680
O O7 0.409024 0.709512 0.784810
O O8 0.446522 0.743220 0.000000
O O9 0.654052 0.061391 0.500000
O O10 0.592727 0.050536 0.301524
O O11 0.664424 0.000000 0.303680
O O12 0.845625 0.554191 0.500000
O O13 0.876473 0.544600 0.252482
O O14 0.758600 0.241401 0.750000
O O15 0.772514 0.269589 0.500000
O O16 0.747669 0.328472 0.689241
O O17 0.053743 0.500000 0.828103
O O18 0.096537 0.555201 0.000000
O O19 0.660870 0.339131 0.250000
O O20 0.644221 0.310810 0.000000
#
# Coordination Sequence:
#
# PCOD8316387 Si02
#       7
#    16  16  16  16  16  16  16
#     4   9  16  27  42  57  76  97 120 153 187 220
#     4   9  15  23  38  57  74  94 121 147 169 203
#     4   9  18  30  41  53  69  92 124 159 194 232
#     4   9  15  25  39  54  71  92 118 145 177 216
#     4   9  16  26  40  59  80 100 122 148 178 219
#     4   9  17  27  37  50  68  89 115 151 193 230
#     4   9  16  27  40  55  76  99 122 143 169 208
#
# _framework density 13.262389000000001
#
# number of rings (size 3 to 8) (size 9 to 14) (size 15 to 20)
#    0.000    3.000    1.429    0.429    0.000    2.000 
#    0.000    2.143    0.000    1.286    0.000    4.000 
#    0.000    0.286    0.000    3.571    0.000    0.000 
#
# Total GULP energy -1387798.347086 kJ/mol
# GULP energy per Si atom -12391.056670 kJ/mol
# Density = 1.323220 g / cm^3
# Si number density = 13.262389 Si / 1000 Ang^3
#
#
#
# Elastic Constant Matrix: (Units=GPa)
#
#
# Indices 1 2 3 4 5 6 
#
# 1 72.3388 39.2859 34.5854 0.0000 0.0000 0.0000
# 2 39.2859 72.3390 34.5853 0.0000 0.0000 0.0000
# 3 34.5854 34.5853 46.4770 0.0000 0.0000 0.0000
# 4 0.0000 0.0000 0.0000 16.7847 0.0000 0.0000
# 5 0.0000 0.0000 0.0000 0.0000 16.7847 0.0000
# 6 0.0000 0.0000 0.0000 0.0000 0.0000 10.5134
#
#
#
# Elastic Compliance Matrix: (Units=1/GPa)
#
#
# Indices 1 2 3 4 5 6 
#
# 1 0.023440 -0.006815 -0.012371 0.000000 0.000000 0.000000
# 2 -0.006815 0.023439 -0.012371 0.000000 0.000000 0.000000
# 3 -0.012371 -0.012371 0.039927 0.000000 0.000000 0.000000
# 4 0.000000 0.000000 0.000000 0.059578 0.000000 0.000000
# 5 0.000000 0.000000 0.000000 0.000000 0.059578 0.000000
# 6 0.000000 0.000000 0.000000 0.000000 0.000000 0.095116
#
#
# Mechanical properties :
#
#
# Convention : Reuss Voigt Hill
#
# Bulk Modulus (GPa) = 42.20718 45.34090 43.77404
# Shear Modulus (GPa) = 13.43762 14.32979 13.88370
#
# Velocity S-wave (km/s) = 3.18655 3.29064 3.23901
# Velocity P-wave (km/s) = 6.74037 6.97850 6.86047
#
# Compressibility (1/GPa) = 0.02369265
#
# Stress axis : x y z
#
# Youngs Moduli (GPa) = 42.66289 42.66329 25.04546
#
# Poissons Ratio (x) = 0.29075 0.30984
# Poissons Ratio (y) = 0.29075 0.30983
# Poissons Ratio (z) = 0.52779 0.52778
#
# Static dielectric constant tensor:
#      x y z
#    x 2.540010 0.000000 0.000000 
#    y 0.000000 2.540010 0.000000 
#    z 0.000000 0.000000 2.599470 
# 
# 
# High freq. dielectric constant tensor:
#      x y z
#    x 1.476500 0.000000 0.000000 
#    y 0.000000 1.476500 0.000000 
#    z 0.000000 0.000000 1.497200 
# 
# From -- ./inp_files/4484.got.cif
#   From: 2010.03.12/outbox.cif.g09.slc.cpg/sg131_3_cif.got.tgz:4484.got - 2010.04.06 17:36:35.
