data_PCOD8316688
_publ_section_title
;
Structure prediction by ZEFSAII (Michael W. Deem and Ramdas Pophale) SiO2 
 PCOD8316688
Probable space group: P 42/M C M
;
_chemical_formula_sum "Si O2"
_cell_formula_units_Z 72
_cell_length_a 12.506681
_cell_length_b 12.506681
_cell_length_c 27.578484
_cell_angle_alpha 90.000000
_cell_angle_beta 90.000000
_cell_angle_gamma 90.000000
_cell_volume 4313.745652
_symmetry_space_group_name_H-M "P 42/M C M"
_symmetry_group_IT_number 132
_symmetry_cell_setting 'tetragonal'
loop_
_space_group_symop_operation_xyz
x,y,z
-y,x,1/2+z
-x,-y,z
y,-x,1/2+z
x,-y,1/2-z
-x,y,1/2-z
y,x,-z
-y,-x,-z
-x,-y,-z
y,-x,1/2-z
x,y,-z
-y,x,1/2-z
-x,y,1/2+z
x,-y,1/2+z
-y,-x,z
y,x,z
loop_
_atom_site_type_symbol
_atom_site_label
_atom_site_fract_x
_atom_site_fract_y
_atom_site_fract_z
Si Si1 0.307008 0.135948 0.444162
Si Si2 0.722321 0.102716 0.444393
Si Si3 0.497906 0.324914 0.694670
Si Si4 0.414288 0.414288 0.056206
Si Si5 0.195552 0.477146 0.896111
O O1 0.336211 0.157570 0.500000
O O2 0.226315 0.226315 0.424514
O O3 0.416232 0.137289 0.414095
O O4 0.247778 0.021751 0.438395
O O5 0.686671 0.126713 0.500000
O O6 0.824412 0.175589 0.430434
O O7 0.625136 0.122403 0.407253
O O8 0.500000 0.285055 0.750000
O O9 0.596200 0.403801 0.684040
O O10 0.387184 0.387184 0.683825
O O11 0.509586 0.220186 0.661068
O O12 0.500000 0.500000 0.071428
O O13 0.457547 0.305143 0.076662
O O14 0.398540 0.398540 0.000000
#
# Coordination Sequence:
#
# PCOD8316688 Si02
#       5
#    16  16  16   8  16
#     4  10  21  34  49  71  99 132 168 204 241 287
#     4  10  20  34  51  71  97 132 169 202 242 292
#     4   9  17  29  45  67  97 134 170 201 238 291
#     4  11  20  26  40  68 103 135 157 181 226 294
#     4  12  19  30  49  72 101 128 161 200 249 295
#
# _framework density 16.690829999999998
#
# number of rings (size 3 to 8) (size 9 to 14) (size 15 to 20)
#    0.000    1.667    2.222    5.333    0.000    4.000 
#    0.000    2.222    0.000    2.667    0.000    0.000 
#    0.000    0.000    0.000    9.333    0.000    0.444 
#
# Total GULP energy -892736.779029 kJ/mol
# GULP energy per Si atom -12399.121931 kJ/mol
# Density = 1.665284 g / cm^3
# Si number density = 16.690830 Si / 1000 Ang^3
#
#
#
# Elastic Constant Matrix: (Units=GPa)
#
#
# Indices 1 2 3 4 5 6 
#
# 1 75.8175 27.7617 22.5368 0.0000 0.0000 0.0000
# 2 27.7617 75.8175 22.5368 0.0000 0.0000 0.0000
# 3 22.5368 22.5368 82.7406 0.0000 0.0000 0.0000
# 4 0.0000 0.0000 0.0000 19.6158 0.0000 0.0000
# 5 0.0000 0.0000 0.0000 0.0000 19.6158 0.0000
# 6 0.0000 0.0000 0.0000 0.0000 0.0000 19.9982
#
#
#
# Elastic Compliance Matrix: (Units=1/GPa)
#
#
# Indices 1 2 3 4 5 6 
#
# 1 0.015881 -0.004928 -0.002983 0.000000 0.000000 0.000000
# 2 -0.004928 0.015881 -0.002983 0.000000 0.000000 0.000000
# 3 -0.002983 -0.002983 0.013711 0.000000 0.000000 0.000000
# 4 0.000000 0.000000 0.000000 0.050979 0.000000 0.000000
# 5 0.000000 0.000000 0.000000 0.000000 0.050979 0.000000
# 6 0.000000 0.000000 0.000000 0.000000 0.000000 0.050004
#
#
# Mechanical properties :
#
#
# Convention : Reuss Voigt Hill
#
# Bulk Modulus (GPa) = 42.22377 42.22735 42.22556
# Shear Modulus (GPa) = 22.01478 22.61531 22.31505
#
# Velocity S-wave (km/s) = 3.63571 3.68496 3.66042
# Velocity P-wave (km/s) = 6.55569 6.59241 6.57408
#
# Compressibility (1/GPa) = 0.02368334
#
# Stress axis : x y z
#
# Youngs Moduli (GPa) = 62.96870 62.96870 72.93346
#
# Poissons Ratio (x) = 0.31033 0.21758
# Poissons Ratio (y) = 0.31033 0.21758
# Poissons Ratio (z) = 0.18785 0.18785
#
# Static dielectric constant tensor:
#      x y z
#    x 3.069810 0.000000 0.000000 
#    y 0.000000 3.069810 0.000000 
#    z 0.000000 0.000000 3.151140 
# 
# 
# High freq. dielectric constant tensor:
#      x y z
#    x 1.636090 0.000000 0.000000 
#    y 0.000000 1.636090 0.000000 
#    z 0.000000 0.000000 1.621070 
# 
# From -- ./inp_files/9756.got.cif
#   From: 2010.03.12/outbox.cif.g09.slc.cpg/sg132_5_cif.got.tgz:9756.got - 2010.04.06 17:53:44.
