data_PCOD8316559
_publ_section_title
;
Structure prediction by ZEFSAII (Michael W. Deem and Ramdas Pophale) SiO2 
 PCOD8316559
Probable space group: P 42/M C M
;
_chemical_formula_sum "Si O2"
_cell_formula_units_Z 80
_cell_length_a 13.617592
_cell_length_b 13.617592
_cell_length_c 25.204490
_cell_angle_alpha 90.000000
_cell_angle_beta 90.000000
_cell_angle_gamma 90.000000
_cell_volume 4673.890680
_symmetry_space_group_name_H-M "P 42/M C M"
_symmetry_group_IT_number 132
_symmetry_cell_setting 'tetragonal'
loop_
_space_group_symop_operation_xyz
x,y,z
-y,x,1/2+z
-x,-y,z
y,-x,1/2+z
x,-y,1/2-z
-x,y,1/2-z
y,x,-z
-y,-x,-z
-x,-y,-z
y,-x,1/2-z
x,y,-z
-y,x,1/2-z
-x,y,1/2+z
x,-y,1/2+z
-y,-x,z
y,x,z
loop_
_atom_site_type_symbol
_atom_site_label
_atom_site_fract_x
_atom_site_fract_y
_atom_site_fract_z
Si Si1 0.896791 0.450298 0.938841
Si Si2 0.899274 0.744343 0.153709
Si Si3 0.609502 0.116580 0.250790
Si Si4 0.202124 0.355170 0.939737
Si Si5 0.282624 0.877411 0.853839
O O1 0.808176 0.528390 0.928537
O O2 0.876951 0.356599 0.903025
O O3 0.000000 0.500000 0.922090
O O4 0.899864 0.416506 0.000000
O O5 0.849631 0.849631 0.164004
O O6 0.853857 0.667165 0.195959
O O7 0.874855 0.704666 0.095450
O O8 0.015058 0.760379 0.158222
O O9 0.500000 0.161851 0.250000
O O10 0.663696 0.159824 0.199237
O O11 0.602948 0.000000 0.250000
O O12 0.313402 0.313402 0.929705
O O13 0.169136 0.334758 0.000000
O O14 0.193394 0.806607 0.868517
#
# Coordination Sequence:
#
# PCOD8316559 Si02
#       5
#    16  16  16  16  16
#     4  10  19  33  54  76 102 137 174 218 269 313
#     4  10  19  32  49  71 105 143 177 209 256 313
#     4   9  18  31  51  73  96 130 172 220 260 296
#     4   9  17  30  52  79 100 125 169 219 261 308
#     4  11  22  33  49  76 108 138 175 216 258 312
#
# _framework density 17.11636
#
# number of rings (size 3 to 8) (size 9 to 14) (size 15 to 20)
#    0.000    2.200    2.000    1.800    2.800    0.800 
#    0.000    0.000    0.000    4.200    0.000    7.000 
#    0.000    5.200    0.000    0.000    0.000    0.000 
#
# Total GULP energy -991758.450910 kJ/mol
# GULP energy per Si atom -12396.980636 kJ/mol
# Density = 1.707740 g / cm^3
# Si number density = 17.116360 Si / 1000 Ang^3
#
#
#
# Elastic Constant Matrix: (Units=GPa)
#
#
# Indices 1 2 3 4 5 6 
#
# 1 97.8551 64.9685 48.5822 0.0000 0.0000 0.0000
# 2 64.9685 97.8551 48.5822 0.0000 0.0000 0.0000
# 3 48.5822 48.5822 96.5287 0.0000 0.0000 0.0000
# 4 0.0000 0.0000 0.0000 20.3352 0.0000 0.0000
# 5 0.0000 0.0000 0.0000 0.0000 20.3352 0.0000
# 6 0.0000 0.0000 0.0000 0.0000 0.0000 22.9374
#
#
#
# Elastic Compliance Matrix: (Units=1/GPa)
#
#
# Indices 1 2 3 4 5 6 
#
# 1 0.019593 -0.010815 -0.004418 0.000000 0.000000 0.000000
# 2 -0.010815 0.019593 -0.004418 0.000000 0.000000 0.000000
# 3 -0.004418 -0.004418 0.014807 0.000000 0.000000 0.000000
# 4 0.000000 0.000000 0.000000 0.049176 0.000000 0.000000
# 5 0.000000 0.000000 0.000000 0.000000 0.049176 0.000000
# 6 0.000000 0.000000 0.000000 0.000000 0.000000 0.043597
#
#
# Mechanical properties :
#
#
# Convention : Reuss Voigt Hill
#
# Bulk Modulus (GPa) = 68.06895 68.50052 68.28474
# Shear Modulus (GPa) = 20.82130 21.39530 21.10830
#
# Velocity S-wave (km/s) = 3.49156 3.53936 3.51554
# Velocity P-wave (km/s) = 7.49062 7.53725 7.51397
#
# Compressibility (1/GPa) = 0.01469099
#
# Stress axis : x y z
#
# Youngs Moduli (GPa) = 51.03923 51.03923 67.53754
#
# Poissons Ratio (x) = 0.55198 0.29837
# Poissons Ratio (y) = 0.55198 0.29837
# Poissons Ratio (z) = 0.22549 0.22549
#
# Static dielectric constant tensor:
#      x y z
#    x 3.153360 0.000000 0.000000 
#    y 0.000000 3.153360 0.000000 
#    z 0.000000 0.000000 3.373220 
# 
# 
# High freq. dielectric constant tensor:
#      x y z
#    x 1.637600 0.000000 0.000000 
#    y 0.000000 1.637600 0.000000 
#    z 0.000000 0.000000 1.680070 
# 
# From -- ./inp_files/7627.got.cif
#   From: 2010.03.12/outbox.cif.g09.slc.cpg/sg132_4_cif.got.tgz:7627.got - 2010.04.06 17:53:44.
