data_PCOD8316978
_publ_section_title
;
Structure prediction by ZEFSAII (Michael W. Deem and Ramdas Pophale) SiO2 
 PCOD8316978
Probable space group: P 42/N B C
;
_chemical_formula_sum "Si O2"
_cell_formula_units_Z 72
_cell_length_a 13.558124
_cell_length_b 13.558124
_cell_length_c 18.280001
_cell_angle_alpha 90.000000
_cell_angle_beta 90.000000
_cell_angle_gamma 90.000000
_cell_volume 3360.279622
_symmetry_space_group_name_H-M "P 42/N B C"
_symmetry_group_IT_number 133
_space_group.IT_coordinate_system_code '2'
_symmetry_cell_setting 'tetragonal'
loop_
_space_group_symop_operation_xyz
x,y,z
1/2-y,x,1/2+z
1/2-x,1/2-y,z
y,1/2-x,1/2+z
x,1/2-y,-z
1/2-x,y,-z
y,x,1/2-z
1/2-y,1/2-x,1/2-z
-x,-y,-z
1/2+y,-x,1/2-z
1/2+x,1/2+y,-z
-y,1/2+x,1/2-z
-x,1/2+y,z
1/2+x,-y,z
-y,-x,1/2+z
1/2+y,1/2+x,1/2+z
loop_
_atom_site_type_symbol
_atom_site_label
_atom_site_fract_x
_atom_site_fract_y
_atom_site_fract_z
Si Si1 0.618614 0.328994 0.759838
Si Si2 0.162312 0.421209 0.178181
Si Si3 0.172072 0.093799 0.064699
Si Si4 0.537437 0.750000 0.000000
Si Si5 0.088228 0.961281 0.596413
O O1 0.714601 0.370560 0.719081
O O2 0.533012 0.344958 0.702835
O O3 0.605300 0.388433 0.834052
O O4 0.148366 0.351635 0.250000
O O5 0.267965 0.398344 0.141067
O O6 0.076381 0.415608 0.118154
O O7 0.087424 0.009501 0.062268
O O8 0.250000 0.074383 0.000000
O O9 0.111702 0.195520 0.056669
O O10 0.460711 0.675589 0.037718
#
# Coordination Sequence:
#
# PCOD8316978 Si02
#       5
#    16  16  16   8  16
#     4  10  21  41  67  97 136 176 222 282 341 412
#     4  10  23  44  69 103 136 175 231 279 351 403
#     4  12  25  46  72  98 141 180 232 287 340 417
#     4  12  27  44  69 102 138 186 225 282 343 412
#     4  11  25  44  69  99 136 179 226 284 343 409
#
# _framework density 21.426787000000001
#
# number of rings (size 3 to 8) (size 9 to 14) (size 15 to 20)
#    0.000    1.111    4.444    1.000    3.111    0.000 
#    0.000    7.778    0.000    0.000    0.000    0.000 
#    0.000    0.000    0.000    0.000    0.000    0.000 
#
# Total GULP energy -892723.720609 kJ/mol
# GULP energy per Si atom -12398.940564 kJ/mol
# Density = 2.137802 g / cm^3
# Si number density = 21.426787 Si / 1000 Ang^3
#
#
#
# Elastic Constant Matrix: (Units=GPa)
#
#
# Indices 1 2 3 4 5 6 
#
# 1 92.8420 43.6099 22.5774 0.0000 0.0000 0.0000
# 2 43.6099 92.8428 22.5777 0.0000 0.0000 0.0000
# 3 22.5774 22.5777 50.7334 0.0000 0.0000 0.0000
# 4 0.0000 0.0000 0.0000 6.6858 0.0000 0.0000
# 5 0.0000 0.0000 0.0000 0.0000 6.6875 0.0000
# 6 0.0000 0.0000 0.0000 0.0000 0.0000 28.2226
#
#
#
# Elastic Compliance Matrix: (Units=1/GPa)
#
#
# Indices 1 2 3 4 5 6 
#
# 1 0.014453 -0.005859 -0.003825 0.000000 0.000000 0.000000
# 2 -0.005859 0.014453 -0.003825 0.000000 0.000000 0.000000
# 3 -0.003825 -0.003825 0.023115 0.000000 0.000000 0.000000
# 4 0.000000 0.000000 0.000000 0.149570 0.000000 0.000000
# 5 0.000000 0.000000 0.000000 0.000000 0.149533 0.000000
# 6 0.000000 0.000000 0.000000 0.000000 0.000000 0.035433
#
#
# Mechanical properties :
#
#
# Convention : Reuss Voigt Hill
#
# Bulk Modulus (GPa) = 39.99215 45.99424 42.99320
# Shear Modulus (GPa) = 11.85092 18.16273 15.00682
#
# Velocity S-wave (km/s) = 2.35434 2.91463 2.64933
# Velocity P-wave (km/s) = 5.10839 5.73054 5.42838
#
# Compressibility (1/GPa) = 0.02500491
#
# Stress axis : x y z
#
# Youngs Moduli (GPa) = 69.18954 69.19005 43.26197
#
# Poissons Ratio (x) = 0.40537 0.16546
# Poissons Ratio (y) = 0.40537 0.16546
# Poissons Ratio (z) = 0.26462 0.26463
#
# Static dielectric constant tensor:
#      x y z
#    x 3.970640 0.000000 0.000000 
#    y 0.000000 3.970640 0.000000 
#    z 0.000000 0.000000 3.795760 
# 
# 
# High freq. dielectric constant tensor:
#      x y z
#    x 1.848040 0.000000 0.000000 
#    y 0.000000 1.848040 0.000000 
#    z 0.000000 0.000000 1.840860 
# 
# From -- ./inp_files/5332.got.cif
#   From: 2010.03.12/outbox.cif.g09.slc.cpg/sg133_3_cif.got.tgz:5332.got - 2010.04.06 18:08:06.
