data_PCOD8316636
_publ_section_title
;
Structure prediction by ZEFSAII (Michael W. Deem and Ramdas Pophale) SiO2 
 PCOD8316636
Probable space group: P 42/M C M
;
_chemical_formula_sum "Si O2"
_cell_formula_units_Z 96
_cell_length_a 25.152173
_cell_length_b 25.152173
_cell_length_c 9.193004
_cell_angle_alpha 90.000000
_cell_angle_beta 90.000000
_cell_angle_gamma 90.000000
_cell_volume 5815.786729
_symmetry_space_group_name_H-M "P 42/M C M"
_symmetry_group_IT_number 132
_symmetry_cell_setting 'tetragonal'
loop_
_space_group_symop_operation_xyz
x,y,z
-y,x,1/2+z
-x,-y,z
y,-x,1/2+z
x,-y,1/2-z
-x,y,1/2-z
y,x,-z
-y,-x,-z
-x,-y,-z
y,-x,1/2-z
x,y,-z
-y,x,1/2-z
-x,y,1/2+z
x,-y,1/2+z
-y,-x,z
y,x,z
loop_
_atom_site_type_symbol
_atom_site_label
_atom_site_fract_x
_atom_site_fract_y
_atom_site_fract_z
Si Si1 0.853063 0.335438 0.673127
Si Si2 0.947269 0.741249 0.829822
Si Si3 0.744942 0.656162 0.331321
Si Si4 0.449667 0.735996 0.336329
Si Si5 0.548195 0.861869 0.158970
Si Si6 0.137461 0.052439 0.829894
O O1 0.841461 0.335040 0.500000
O O2 0.896526 0.292435 0.720901
O O3 0.798782 0.322458 0.756903
O O4 0.875304 0.393383 0.722381
O O5 0.935170 0.801955 0.785473
O O6 0.000000 0.720200 0.750000
O O7 0.957266 0.734700 0.000000
O O8 0.756029 0.642523 0.500000
O O9 0.701869 0.701869 0.314039
O O10 0.722439 0.603902 0.251341
O O11 0.500000 0.711085 0.250000
O O12 0.446704 0.711977 0.500000
O O13 0.457286 0.798754 0.347185
O O14 0.500000 0.887401 0.250000
O O15 0.542602 0.887130 0.000000
O O16 0.102417 0.102417 0.779192
O O17 0.116224 0.000000 0.750000
O O18 0.132057 0.042008 0.000000
#
# Coordination Sequence:
#
# PCOD8316636 Si02
#       6
#    16  16  16  16  16  16
#     4   9  18  31  47  66  88 118 154 188 228 279
#     4   9  18  33  51  69  89 115 149 188 226 269
#     4  10  20  31  43  65  98 129 157 193 235 278
#     4   9  16  27  44  64  88 121 159 195 232 277
#     4   8  14  24  39  61  85 109 141 180 219 261
#     4   9  18  32  49  69  91 114 141 174 215 263
#
# _framework density 16.506793999999999
#
# number of rings (size 3 to 8) (size 9 to 14) (size 15 to 20)
#    0.000    3.000    0.000    2.000    0.000    7.167 
#    0.000    2.500    0.000    0.500    0.000    3.500 
#    0.000    0.333    0.000    3.500    0.000    1.667 
#
# Total GULP energy -1190078.014893 kJ/mol
# GULP energy per Si atom -12396.645988 kJ/mol
# Density = 1.646922 g / cm^3
# Si number density = 16.506794 Si / 1000 Ang^3
#
#
#
# Elastic Constant Matrix: (Units=GPa)
#
#
# Indices 1 2 3 4 5 6 
#
# 1 90.5213 59.3783 48.2428 0.0000 0.0000 0.0000
# 2 59.3783 90.5213 48.2428 0.0000 0.0000 0.0000
# 3 48.2428 48.2428 81.4970 0.0000 0.0000 0.0000
# 4 0.0000 0.0000 0.0000 23.5174 0.0000 0.0000
# 5 0.0000 0.0000 0.0000 0.0000 23.5174 0.0000
# 6 0.0000 0.0000 0.0000 0.0000 0.0000 1.8225
#
#
#
# Elastic Compliance Matrix: (Units=1/GPa)
#
#
# Indices 1 2 3 4 5 6 
#
# 1 0.021444 -0.010666 -0.006380 0.000000 0.000000 0.000000
# 2 -0.010666 0.021444 -0.006380 0.000000 0.000000 0.000000
# 3 -0.006380 -0.006380 0.019824 0.000000 0.000000 0.000000
# 4 0.000000 0.000000 0.000000 0.042522 0.000000 0.000000
# 5 0.000000 0.000000 0.000000 0.000000 0.042522 0.000000
# 6 0.000000 0.000000 0.000000 0.000000 0.000000 0.548709
#
#
# Mechanical properties :
#
#
# Convention : Reuss Voigt Hill
#
# Bulk Modulus (GPa) = 63.05437 63.80748 63.43092
# Shear Modulus (GPa) = 6.67911 16.88316 11.78114
#
# Velocity S-wave (km/s) = 2.01372 3.20160 2.67444
# Velocity P-wave (km/s) = 6.60974 7.23921 6.93163
#
# Compressibility (1/GPa) = 0.01585933
#
# Stress axis : x y z
#
# Youngs Moduli (GPa) = 46.63349 46.63349 50.44464
#
# Poissons Ratio (x) = 0.49740 0.32183
# Poissons Ratio (y) = 0.49740 0.32183
# Poissons Ratio (z) = 0.29752 0.29752
#
# Static dielectric constant tensor:
#      x y z
#    x 3.051830 0.000000 0.000000 
#    y 0.000000 3.051830 0.000000 
#    z 0.000000 0.000000 3.270340 
# 
# 
# High freq. dielectric constant tensor:
#      x y z
#    x 1.616490 0.000000 0.000000 
#    y 0.000000 1.616490 0.000000 
#    z 0.000000 0.000000 1.640880 
# 
# From -- ./inp_files/1961.got.cif
#   From: 2010.03.12/outbox.cif.g09.slc.cpg/sg132_1_cif.got.tgz:1961.got - 2010.04.06 17:53:44.
