data_PCOD8316520
_publ_section_title
;
Structure prediction by ZEFSAII (Michael W. Deem and Ramdas Pophale) SiO2 
 PCOD8316520
Probable space group: P 42/M C M
;
_chemical_formula_sum "Si O2"
_cell_formula_units_Z 120
_cell_length_a 19.237286
_cell_length_b 19.237286
_cell_length_c 22.646943
_cell_angle_alpha 90.000000
_cell_angle_beta 90.000000
_cell_angle_gamma 90.000000
_cell_volume 8381.026047
_symmetry_space_group_name_H-M "P 42/M C M"
_symmetry_group_IT_number 132
_symmetry_cell_setting 'tetragonal'
loop_
_space_group_symop_operation_xyz
x,y,z
-y,x,1/2+z
-x,-y,z
y,-x,1/2+z
x,-y,1/2-z
-x,y,1/2-z
y,x,-z
-y,-x,-z
-x,-y,-z
y,-x,1/2-z
x,y,-z
-y,x,1/2-z
-x,y,1/2+z
x,-y,1/2+z
-y,-x,z
y,x,z
loop_
_atom_site_type_symbol
_atom_site_label
_atom_site_fract_x
_atom_site_fract_y
_atom_site_fract_z
Si Si1 0.581305 0.864691 0.067260
Si Si2 0.768321 0.343362 0.150932
Si Si3 0.420713 0.306233 0.250766
Si Si4 0.260122 0.149450 0.745616
Si Si5 0.421577 0.137081 0.567334
Si Si6 0.000860 0.420664 0.642480
Si Si7 0.000000 0.685392 0.750000
Si Si8 0.659348 0.770768 0.155199
O O1 0.501684 0.840540 0.071366
O O2 0.629311 0.807739 0.097958
O O3 0.591147 0.938787 0.097241
O O4 0.606020 0.871455 0.000000
O O5 0.704532 0.295469 0.130886
O O6 0.741758 0.405635 0.192607
O O7 0.824384 0.298362 0.186833
O O8 0.800224 0.375090 0.091734
O O9 0.500000 0.329145 0.250000
O O10 0.375493 0.375493 0.253669
O O11 0.403595 0.262865 0.191994
O O12 0.181283 0.181283 0.746391
O O13 0.300284 0.175267 0.803430
O O14 0.262487 0.065772 0.745674
O O15 0.400111 0.121373 0.500000
O O16 0.405761 0.070589 0.606960
O O17 0.993924 0.365598 0.694543
O O18 0.000000 0.500000 0.667350
O O19 0.711356 0.711356 0.132638
#
# Coordination Sequence:
#
# PCOD8316520 Si02
#       8
#    16  16  16  16  16  16   8  16
#     4  10  19  30  43  60  88 122 149 177 214 255
#     4   9  17  30  44  62  86 110 145 184 218 260
#     4   9  17  28  43  61  83 110 140 185 233 270
#     4   9  18  30  46  68  89 110 138 176 220 257
#     4  10  19  30  43  60  88 122 149 177 214 255
#     4  10  20  30  41  67  93 115 149 178 207 254
#     4  12  17  30  52  67  88 118 140 182 216 253
#     4   9  17  30  44  62  86 110 145 184 218 260
#
# _framework density 14.318056
#
# number of rings (size 3 to 8) (size 9 to 14) (size 15 to 20)
#    0.000    2.400    2.667    3.000    0.000    2.267 
#    0.000    0.000    0.000    0.200    0.000    0.000 
#    0.000    0.000    0.000   24.800    0.000    8.133 
#
# Total GULP energy -1487759.339847 kJ/mol
# GULP energy per Si atom -12397.994499 kJ/mol
# Density = 1.428547 g / cm^3
# Si number density = 14.318056 Si / 1000 Ang^3
#
#
#
# Elastic Constant Matrix: (Units=GPa)
#
#
# Indices 1 2 3 4 5 6 
#
# 1 71.4366 26.9349 17.2500 0.0000 0.0000 0.0000
# 2 26.9349 71.4366 17.2500 0.0000 0.0000 0.0000
# 3 17.2500 17.2500 54.2349 0.0000 0.0000 0.0000
# 4 0.0000 0.0000 0.0000 15.6599 0.0000 0.0000
# 5 0.0000 0.0000 0.0000 0.0000 15.6599 0.0000
# 6 0.0000 0.0000 0.0000 0.0000 0.0000 22.0500
#
#
#
# Elastic Compliance Matrix: (Units=1/GPa)
#
#
# Indices 1 2 3 4 5 6 
#
# 1 0.016956 -0.005515 -0.003639 0.000000 0.000000 0.000000
# 2 -0.005515 0.016956 -0.003639 0.000000 0.000000 0.000000
# 3 -0.003639 -0.003639 0.020753 0.000000 0.000000 0.000000
# 4 0.000000 0.000000 0.000000 0.063857 0.000000 0.000000
# 5 0.000000 0.000000 0.000000 0.000000 0.063857 0.000000
# 6 0.000000 0.000000 0.000000 0.000000 0.000000 0.045352
#
#
# Mechanical properties :
#
#
# Convention : Reuss Voigt Hill
#
# Bulk Modulus (GPa) = 34.38769 35.55310 34.97040
# Shear Modulus (GPa) = 19.01056 19.71884 19.36470
#
# Velocity S-wave (km/s) = 3.64776 3.71509 3.68158
# Velocity P-wave (km/s) = 6.46612 6.57932 6.52296
#
# Compressibility (1/GPa) = 0.02908017
#
# Stress axis : x y z
#
# Youngs Moduli (GPa) = 58.97457 58.97457 48.18510
#
# Poissons Ratio (x) = 0.32522 0.17536
# Poissons Ratio (y) = 0.32522 0.17536
# Poissons Ratio (z) = 0.21462 0.21462
#
# Static dielectric constant tensor:
#      x y z
#    x 2.723500 0.000000 0.000000 
#    y 0.000000 2.723500 0.000000 
#    z 0.000000 0.000000 2.772980 
# 
# 
# High freq. dielectric constant tensor:
#      x y z
#    x 1.537030 0.000000 0.000000 
#    y 0.000000 1.537030 0.000000 
#    z 0.000000 0.000000 1.544170 
# 
# From -- ./inp_files/9361.got.cif
#   From: 2010.03.12/outbox.cif.g09.slc.cpg/sg132_5_cif.got.tgz:9361.got - 2010.04.06 17:53:44.
