data_PCOD8316100
_publ_section_title
;
Structure prediction by ZEFSAII (Michael W. Deem and Ramdas Pophale) SiO2 
 PCOD8316100
Probable space group: P 42/M M C
;
_chemical_formula_sum "Si O2"
_cell_formula_units_Z 96
_cell_length_a 23.030236
_cell_length_b 23.030236
_cell_length_c 8.859488
_cell_angle_alpha 90.000000
_cell_angle_beta 90.000000
_cell_angle_gamma 90.000000
_cell_volume 4698.999524
_symmetry_space_group_name_H-M "P 42/M M C"
_symmetry_group_IT_number 131
_symmetry_cell_setting 'tetragonal'
loop_
_space_group_symop_operation_xyz
x,y,z
-x,-y,z
-y,x,1/2+z
y,-x,1/2+z
-x,y,-z
x,-y,-z
y,x,1/2-z
-y,-x,1/2-z
-x,-y,-z
x,y,-z
y,-x,1/2-z
-y,x,1/2-z
x,-y,z
-x,y,z
-y,-x,1/2+z
y,x,1/2+z
loop_
_atom_site_type_symbol
_atom_site_label
_atom_site_fract_x
_atom_site_fract_y
_atom_site_fract_z
Si Si1 0.826037 0.565839 0.678076
Si Si2 0.847851 0.068528 0.326575
Si Si3 0.641298 0.437020 0.823636
Si Si4 0.653007 0.262720 0.320894
Si Si5 0.614092 0.066997 0.677400
Si Si6 0.732610 0.068528 0.831515
O O1 0.822217 0.574688 0.500000
O O2 0.803374 0.500000 0.721081
O O3 0.794841 0.621798 0.755915
O O4 0.892840 0.568450 0.733703
O O5 0.904335 0.095666 0.250000
O O6 0.844657 0.087059 0.500000
O O7 0.790549 0.093909 0.245161
O O8 0.853118 0.000000 0.307484
O O9 0.580043 0.419958 0.750000
O O10 0.660009 0.500000 0.765213
O O11 0.689885 0.393262 0.768094
O O12 0.633145 0.435486 0.000000
O O13 0.715576 0.284425 0.250000
O O14 0.660797 0.256145 0.500000
O O15 0.607969 0.077378 0.500000
O O16 0.678560 0.085836 0.727848
O O17 0.601364 0.000000 0.719988
O O18 0.738551 0.000000 0.841000
O O19 0.725216 0.094773 0.000000
#
# Coordination Sequence:
#
# PCOD8316100 Si02
#       6
#    16  16  16  16  16  16
#     4  11  24  40  60  89 124 161 201 244 292 348
#     4  10  20  33  50  74 106 145 191 243 300 364
#     4   9  18  31  47  69  97 131 171 215 264 317
#     4  10  20  37  60  83 110 146 190 238 288 341
#     4  10  21  38  61  88 118 153 193 237 289 351
#     4   9  17  32  55  79 104 137 178 224 276 336
#
# _framework density 20.429880000000001
#
# number of rings (size 3 to 8) (size 9 to 14) (size 15 to 20)
#    0.000    2.167    0.000    3.000    0.000    7.667 
#    0.000    4.167    0.000    0.000    0.000    0.000 
#    0.000    0.000    0.000    0.000    0.000    0.000 
#
# Total GULP energy -1189716.124439 kJ/mol
# GULP energy per Si atom -12392.876296 kJ/mol
# Density = 2.038338 g / cm^3
# Si number density = 20.429880 Si / 1000 Ang^3
#
#
#
# Elastic Constant Matrix: (Units=GPa)
#
#
# Indices 1 2 3 4 5 6 
#
# 1 71.6230 34.0452 34.6698 0.0000 0.0000 0.0000
# 2 34.0452 71.6326 34.6594 0.0000 0.0000 0.0000
# 3 34.6698 34.6594 89.5568 0.0000 0.0000 0.0000
# 4 0.0000 0.0000 0.0000 33.7237 0.0000 0.0000
# 5 0.0000 0.0000 0.0000 0.0000 33.7236 0.0000
# 6 0.0000 0.0000 0.0000 0.0000 0.0000 26.8672
#
#
#
# Elastic Compliance Matrix: (Units=1/GPa)
#
#
# Indices 1 2 3 4 5 6 
#
# 1 0.019649 -0.006962 -0.004912 0.000000 0.000000 0.000000
# 2 -0.006962 0.019643 -0.004907 0.000000 0.000000 0.000000
# 3 -0.004912 -0.004907 0.014967 0.000000 0.000000 0.000000
# 4 0.000000 0.000000 0.000000 0.029653 0.000000 0.000000
# 5 0.000000 0.000000 0.000000 0.000000 0.029653 0.000000
# 6 0.000000 0.000000 0.000000 0.000000 0.000000 0.037220
#
#
# Mechanical properties :
#
#
# Convention : Reuss Voigt Hill
#
# Bulk Modulus (GPa) = 48.31695 48.84015 48.57855
# Shear Modulus (GPa) = 26.14431 27.49211 26.81821
#
# Velocity S-wave (km/s) = 3.58118 3.67233 3.62704
# Velocity P-wave (km/s) = 6.38759 6.47607 6.43198
#
# Compressibility (1/GPa) = 0.02069667
#
# Stress axis : x y z
#
# Youngs Moduli (GPa) = 50.89281 50.90818 66.81435
#
# Poissons Ratio (x) = 0.35442 0.32822
# Poissons Ratio (y) = 0.35431 0.32786
# Poissons Ratio (z) = 0.25000 0.24981
#
# Static dielectric constant tensor:
#      x y z
#    x 3.617430 0.000000 0.000000 
#    y 0.000000 3.617440 0.000000 
#    z 0.000000 0.000000 3.738640 
# 
# 
# High freq. dielectric constant tensor:
#      x y z
#    x 1.789030 0.000000 0.000000 
#    y 0.000000 1.789030 0.000000 
#    z 0.000000 0.000000 1.806610 
# 
# From -- ./inp_files/2255.got.cif
#   From: 2010.03.12/outbox.cif.g09.slc.cpg/sg131_2_cif.got.tgz:2255.got - 2010.04.06 17:36:35.
