data_PCOD8316031
_publ_section_title
;
Structure prediction by ZEFSAII (Michael W. Deem and Ramdas Pophale) SiO2 
 PCOD8316031
Probable space group: P 42/M M C
;
_chemical_formula_sum "Si O2"
_cell_formula_units_Z 112
_cell_length_a 14.101057
_cell_length_b 14.101057
_cell_length_c 32.068898
_cell_angle_alpha 90.000000
_cell_angle_beta 90.000000
_cell_angle_gamma 90.000000
_cell_volume 6376.573538
_symmetry_space_group_name_H-M "P 42/M M C"
_symmetry_group_IT_number 131
_symmetry_cell_setting 'tetragonal'
loop_
_space_group_symop_operation_xyz
x,y,z
-x,-y,z
-y,x,1/2+z
y,-x,1/2+z
-x,y,-z
x,-y,-z
y,x,1/2-z
-y,-x,1/2-z
-x,-y,-z
x,y,-z
y,-x,1/2-z
-y,x,1/2-z
x,-y,z
-x,y,z
-y,-x,1/2+z
y,x,1/2+z
loop_
_atom_site_type_symbol
_atom_site_label
_atom_site_fract_x
_atom_site_fract_y
_atom_site_fract_z
Si Si1 0.206411 0.787655 0.294829
Si Si2 0.732037 0.390011 0.545914
Si Si3 0.893147 0.289245 0.417132
Si Si4 0.609683 0.311258 0.291552
Si Si5 0.396520 0.389254 0.620077
Si Si6 0.890162 0.391498 0.330625
Si Si7 0.890463 0.891993 0.367840
O O1 0.172554 0.827446 0.250000
O O2 0.321484 0.780329 0.292476
O O3 0.166781 0.680682 0.301202
O O4 0.174255 0.863555 0.328789
O O5 0.684680 0.377510 0.500000
O O6 0.756369 0.500000 0.553845
O O7 0.827525 0.327364 0.545874
O O8 0.668052 0.346519 0.583138
O O9 0.875344 0.358224 0.377934
O O10 0.868450 0.179694 0.405724
O O11 0.000000 0.296165 0.433297
O O12 0.625997 0.374004 0.250000
O O13 0.500000 0.279273 0.293043
O O14 0.639882 0.369836 0.333141
O O15 0.402235 0.500000 0.612653
O O16 0.500000 0.342819 0.614499
O O17 0.852629 0.500000 0.325675
O O18 0.000000 0.385387 0.318155
O O19 0.000000 0.879793 0.354157
O O20 0.868025 0.000000 0.381469
#
# Coordination Sequence:
#
# PCOD8316031 Si02
#       7
#    16  16  16  16  16  16  16
#     4  10  20  30  44  66  95 127 159 198 245 294
#     4  10  20  31  45  69 100 133 166 198 237 289
#     4   9  17  30  48  70  94 119 148 185 233 288
#     4  10  20  32  47  69  98 132 170 210 248 288
#     4   9  17  29  45  64  89 125 166 205 242 277
#     4   9  17  30  48  67  87 115 152 192 237 291
#     4   9  18  33  53  74  93 118 157 203 250 299
#
# _framework density 17.564291000000001
#
# number of rings (size 3 to 8) (size 9 to 14) (size 15 to 20)
#    0.000    2.571    0.000    3.857    0.000    7.286 
#    0.000    2.857    0.000    0.857    0.000    2.000 
#    0.000    0.000    0.000    5.143    0.000    0.143 
#
# Total GULP energy -1388037.679689 kJ/mol
# GULP energy per Si atom -12393.193569 kJ/mol
# Density = 1.752431 g / cm^3
# Si number density = 17.564291 Si / 1000 Ang^3
#
#
#
# Elastic Constant Matrix: (Units=GPa)
#
#
# Indices 1 2 3 4 5 6 
#
# 1 67.7557 25.0029 31.8608 0.0000 0.0000 0.0000
# 2 25.0029 67.7554 31.8607 0.0000 0.0000 0.0000
# 3 31.8608 31.8607 101.5194 0.0000 0.0000 0.0000
# 4 0.0000 0.0000 0.0000 18.9562 0.0000 0.0000
# 5 0.0000 0.0000 0.0000 0.0000 18.9563 0.0000
# 6 0.0000 0.0000 0.0000 0.0000 0.0000 18.0212
#
#
#
# Elastic Compliance Matrix: (Units=1/GPa)
#
#
# Indices 1 2 3 4 5 6 
#
# 1 0.018567 -0.004823 -0.004313 0.000000 0.000000 0.000000
# 2 -0.004823 0.018567 -0.004313 0.000000 0.000000 0.000000
# 3 -0.004313 -0.004313 0.012558 0.000000 0.000000 0.000000
# 4 0.000000 0.000000 0.000000 0.052753 0.000000 0.000000
# 5 0.000000 0.000000 0.000000 0.000000 0.052753 0.000000
# 6 0.000000 0.000000 0.000000 0.000000 0.000000 0.055490
#
#
# Mechanical properties :
#
#
# Convention : Reuss Voigt Hill
#
# Bulk Modulus (GPa) = 43.87512 46.05323 44.96418
# Shear Modulus (GPa) = 20.39275 21.07383 20.73329
#
# Velocity S-wave (km/s) = 3.41109 3.46759 3.43946
# Velocity P-wave (km/s) = 6.36773 6.50453 6.43650
#
# Compressibility (1/GPa) = 0.02279196
#
# Stress axis : x y z
#
# Youngs Moduli (GPa) = 53.85890 53.85868 79.63231
#
# Poissons Ratio (x) = 0.25978 0.34348
# Poissons Ratio (y) = 0.25978 0.34348
# Poissons Ratio (z) = 0.23231 0.23231
#
# Static dielectric constant tensor:
#      x y z
#    x 3.248630 0.000000 0.000000 
#    y 0.000000 3.248630 0.000000 
#    z 0.000000 0.000000 3.207980 
# 
# 
# High freq. dielectric constant tensor:
#      x y z
#    x 1.663760 0.000000 0.000000 
#    y 0.000000 1.663760 0.000000 
#    z 0.000000 0.000000 1.668820 
# 
# From -- ./inp_files/13814.got.cif
#   From: 2010.03.12/outbox.cif.g09.slc.cpg/sg131_7_cif.got.tgz:13814.got - 2010.04.06 17:36:35.
