data_PCOD8316776
_publ_section_title
;
Structure prediction by ZEFSAII (Michael W. Deem and Ramdas Pophale) SiO2 
 PCOD8316776
Probable space group: P 42/M C M
;
_chemical_formula_sum "Si O2"
_cell_formula_units_Z 80
_cell_length_a 12.830519
_cell_length_b 12.830519
_cell_length_c 27.403647
_cell_angle_alpha 90.000000
_cell_angle_beta 90.000000
_cell_angle_gamma 90.000000
_cell_volume 4511.249145
_symmetry_space_group_name_H-M "P 42/M C M"
_symmetry_group_IT_number 132
_symmetry_cell_setting 'tetragonal'
loop_
_space_group_symop_operation_xyz
x,y,z
-y,x,1/2+z
-x,-y,z
y,-x,1/2+z
x,-y,1/2-z
-x,y,1/2-z
y,x,-z
-y,-x,-z
-x,-y,-z
y,-x,1/2-z
x,y,-z
-y,x,1/2-z
-x,y,1/2+z
x,-y,1/2+z
-y,-x,z
y,x,z
loop_
_atom_site_type_symbol
_atom_site_label
_atom_site_fract_x
_atom_site_fract_y
_atom_site_fract_z
Si Si1 0.166904 0.001949 0.117881
Si Si2 0.687941 0.855975 0.328812
Si Si3 0.307931 0.139478 0.055805
Si Si4 0.528655 0.118335 0.362563
Si Si5 0.612083 0.782748 0.768952
O O1 0.093428 0.906573 0.100214
O O2 0.252630 0.963698 0.157314
O O3 0.230718 0.046203 0.071872
O O4 0.094240 0.094240 0.140715
O O5 0.760200 0.760200 0.342082
O O6 0.584938 0.828349 0.360606
O O7 0.662074 0.860731 0.271180
O O8 0.250426 0.250426 0.062494
O O9 0.415330 0.139300 0.086099
O O10 0.338633 0.119626 0.000000
O O11 0.605616 0.156568 0.319925
O O12 0.500000 0.000000 0.352216
O O13 0.500000 0.744699 0.750000
O O14 0.680602 0.680602 0.776993
#
# Coordination Sequence:
#
# PCOD8316776 Si02
#       5
#    16  16  16  16  16
#     4   9  17  32  53  76 106 141 176 212 254 307
#     4   9  18  34  52  76 107 137 171 212 254 307
#     4  10  21  36  54  77 104 136 177 221 264 310
#     4  11  20  34  54  78 105 141 173 213 266 315
#     4   9  19  33  53  77 106 137 175 216 258 310
#
# _framework density 17.733446000000001
#
# number of rings (size 3 to 8) (size 9 to 14) (size 15 to 20)
#    0.000    2.400    2.000    0.600    0.000    4.600 
#    0.000    2.000    0.000    3.600    0.000    7.000 
#    0.000    0.000    0.000    0.000    0.000    0.000 
#
# Total GULP energy -991566.065387 kJ/mol
# GULP energy per Si atom -12394.575817 kJ/mol
# Density = 1.769308 g / cm^3
# Si number density = 17.733446 Si / 1000 Ang^3
#
#
#
# Elastic Constant Matrix: (Units=GPa)
#
#
# Indices 1 2 3 4 5 6 
#
# 1 98.8530 46.2794 70.5988 0.0000 0.0000 0.0000
# 2 46.2794 98.8530 70.5988 0.0000 0.0000 0.0000
# 3 70.5988 70.5988 132.8893 0.0000 0.0000 0.0000
# 4 0.0000 0.0000 0.0000 26.1622 0.0000 0.0000
# 5 0.0000 0.0000 0.0000 0.0000 26.1622 0.0000
# 6 0.0000 0.0000 0.0000 0.0000 0.0000 24.2554
#
#
#
# Elastic Compliance Matrix: (Units=1/GPa)
#
#
# Indices 1 2 3 4 5 6 
#
# 1 0.016641 -0.002380 -0.007576 0.000000 0.000000 0.000000
# 2 -0.002380 0.016641 -0.007576 0.000000 0.000000 0.000000
# 3 -0.007576 -0.007576 0.015575 0.000000 0.000000 0.000000
# 4 0.000000 0.000000 0.000000 0.038223 0.000000 0.000000
# 5 0.000000 0.000000 0.000000 0.000000 0.038223 0.000000
# 6 0.000000 0.000000 0.000000 0.000000 0.000000 0.041228
#
#
# Mechanical properties :
#
#
# Convention : Reuss Voigt Hill
#
# Bulk Modulus (GPa) = 72.50595 78.39437 75.45016
# Shear Modulus (GPa) = 24.24894 24.85716 24.55305
#
# Velocity S-wave (km/s) = 3.70187 3.74800 3.72501
# Velocity P-wave (km/s) = 7.69721 7.93934 7.81921
#
# Compressibility (1/GPa) = 0.01379197
#
# Stress axis : x y z
#
# Youngs Moduli (GPa) = 60.09198 60.09198 64.20445
#
# Poissons Ratio (x) = 0.14301 0.48644
# Poissons Ratio (y) = 0.14301 0.48644
# Poissons Ratio (z) = 0.45529 0.45529
#
# Static dielectric constant tensor:
#      x y z
#    x 3.621510 0.000000 0.000000 
#    y 0.000000 3.621510 0.000000 
#    z 0.000000 0.000000 3.136910 
# 
# 
# High freq. dielectric constant tensor:
#      x y z
#    x 1.690600 0.000000 0.000000 
#    y 0.000000 1.690600 0.000000 
#    z 0.000000 0.000000 1.663990 
# 
# From -- ./inp_files/10563.got.cif
#   From: 2010.03.12/outbox.cif.g09.slc.cpg/sg132_6_cif.got.tgz:10563.got - 2010.04.06 17:53:44.
