data_PCOD8316720
_publ_section_title
;
Structure prediction by ZEFSAII (Michael W. Deem and Ramdas Pophale) SiO2 
 PCOD8316720
Probable space group: P 42/M C M
;
_chemical_formula_sum "Si O2"
_cell_formula_units_Z 88
_cell_length_a 12.396680
_cell_length_b 12.396680
_cell_length_c 29.893918
_cell_angle_alpha 90.000000
_cell_angle_beta 90.000000
_cell_angle_gamma 90.000000
_cell_volume 4594.027816
_symmetry_space_group_name_H-M "P 42/M C M"
_symmetry_group_IT_number 132
_symmetry_cell_setting 'tetragonal'
loop_
_space_group_symop_operation_xyz
x,y,z
-y,x,1/2+z
-x,-y,z
y,-x,1/2+z
x,-y,1/2-z
-x,y,1/2-z
y,x,-z
-y,-x,-z
-x,-y,-z
y,-x,1/2-z
x,y,-z
-y,x,1/2-z
-x,y,1/2+z
x,-y,1/2+z
-y,-x,z
y,x,z
loop_
_atom_site_type_symbol
_atom_site_label
_atom_site_fract_x
_atom_site_fract_y
_atom_site_fract_z
Si Si1 0.754001 0.073846 0.108165
Si Si2 0.129114 0.304735 0.949180
Si Si3 0.120990 0.515164 0.102785
Si Si4 0.782966 0.039062 0.301329
Si Si5 0.338025 0.500000 0.250000
Si Si6 0.786456 0.381372 0.676116
O O1 0.851678 0.148323 0.090071
O O2 0.643017 0.137984 0.095181
O O3 0.751705 0.958245 0.083355
O O4 0.774449 0.056349 0.161608
O O5 0.242828 0.242828 0.942300
O O6 0.141456 0.433461 0.939099
O O7 0.088510 0.293590 0.000000
O O8 0.200359 0.477581 0.141479
O O9 0.000000 0.500000 0.120234
O O10 0.888849 0.111152 0.310935
O O11 0.672623 0.103308 0.308230
O O12 0.788824 0.000000 0.250000
O O13 0.415524 0.584477 0.223348
O O14 0.263269 0.568596 0.280698
O O15 0.708497 0.291504 0.654251
#
# Coordination Sequence:
#
# PCOD8316720 Si02
#       6
#    16  16  16  16   8  16
#     4  11  24  39  58  89 125 156 193 245 299 353
#     4  10  21  40  67  92 115 151 196 239 291 356
#     4  10  20  36  57  84 115 151 189 235 287 347
#     4  11  23  38  56  81 116 162 204 243 293 350
#     4   9  20  34  49  76 112 150 193 246 301 346
#     4  10  20  35  56  79 109 150 196 245 289 341
#
# _framework density 19.155303
#
# number of rings (size 3 to 8) (size 9 to 14) (size 15 to 20)
#    0.000    1.727    3.636    1.636    2.545    6.727 
#    0.000    0.909    0.000    1.636    0.000    1.273 
#    0.000    0.000    0.000    0.000    0.000    0.000 
#
# Total GULP energy -1090185.913774 kJ/mol
# GULP energy per Si atom -12388.476293 kJ/mol
# Density = 1.911170 g / cm^3
# Si number density = 19.155303 Si / 1000 Ang^3
#
#
#
# Elastic Constant Matrix: (Units=GPa)
#
#
# Indices 1 2 3 4 5 6 
#
# 1 82.2581 40.9861 28.2652 0.0000 0.0000 0.0000
# 2 40.9861 82.2581 28.2652 0.0000 0.0000 0.0000
# 3 28.2652 28.2652 96.5844 0.0000 0.0000 0.0000
# 4 0.0000 0.0000 0.0000 23.3319 0.0000 0.0000
# 5 0.0000 0.0000 0.0000 0.0000 23.3319 0.0000
# 6 0.0000 0.0000 0.0000 0.0000 0.0000 33.9470
#
#
#
# Elastic Compliance Matrix: (Units=1/GPa)
#
#
# Indices 1 2 3 4 5 6 
#
# 1 0.016801 -0.007429 -0.002743 0.000000 0.000000 0.000000
# 2 -0.007429 0.016801 -0.002743 0.000000 0.000000 0.000000
# 3 -0.002743 -0.002743 0.011959 0.000000 0.000000 0.000000
# 4 0.000000 0.000000 0.000000 0.042860 0.000000 0.000000
# 5 0.000000 0.000000 0.000000 0.000000 0.042860 0.000000
# 6 0.000000 0.000000 0.000000 0.000000 0.000000 0.029458
#
#
# Mechanical properties :
#
#
# Convention : Reuss Voigt Hill
#
# Bulk Modulus (GPa) = 50.67868 50.68150 50.68009
# Shear Modulus (GPa) = 25.88753 27.02778 26.45765
#
# Velocity S-wave (km/s) = 3.68020 3.76038 3.72051
# Velocity P-wave (km/s) = 6.67628 6.73569 6.70605
#
# Compressibility (1/GPa) = 0.01973216
#
# Stress axis : x y z
#
# Youngs Moduli (GPa) = 59.52118 59.52118 83.61961
#
# Poissons Ratio (x) = 0.44217 0.22934
# Poissons Ratio (y) = 0.44217 0.22934
# Poissons Ratio (z) = 0.16325 0.16325
#
# Static dielectric constant tensor:
#      x y z
#    x 2.877850 0.000000 0.000000 
#    y 0.000000 2.877850 0.000000 
#    z 0.000000 0.000000 3.436050 
# 
# 
# High freq. dielectric constant tensor:
#      x y z
#    x 1.746390 0.000000 0.000000 
#    y 0.000000 1.746390 0.000000 
#    z 0.000000 0.000000 1.729620 
# 
# From -- ./inp_files/10753.got.cif
#   From: 2010.03.12/outbox.cif.g09.slc.cpg/sg132_6_cif.got.tgz:10753.got - 2010.04.06 17:53:44.
