data_PCOD8316966
_publ_section_title
;
Structure prediction by ZEFSAII (Michael W. Deem and Ramdas Pophale) SiO2 
 PCOD8316966
Probable space group: P 42/N B C
;
_chemical_formula_sum "Si O2"
_cell_formula_units_Z 48
_cell_length_a 16.778917
_cell_length_b 16.778917
_cell_length_c 7.853930
_cell_angle_alpha 90.000000
_cell_angle_beta 90.000000
_cell_angle_gamma 90.000000
_cell_volume 2211.133058
_symmetry_space_group_name_H-M "P 42/N B C"
_symmetry_group_IT_number 133
_space_group.IT_coordinate_system_code '2'
_symmetry_cell_setting 'tetragonal'
loop_
_space_group_symop_operation_xyz
x,y,z
1/2-y,x,1/2+z
1/2-x,1/2-y,z
y,1/2-x,1/2+z
x,1/2-y,-z
1/2-x,y,-z
y,x,1/2-z
1/2-y,1/2-x,1/2-z
-x,-y,-z
1/2+y,-x,1/2-z
1/2+x,1/2+y,-z
-y,1/2+x,1/2-z
-x,1/2+y,z
1/2+x,-y,z
-y,-x,1/2+z
1/2+y,1/2+x,1/2+z
loop_
_atom_site_type_symbol
_atom_site_label
_atom_site_fract_x
_atom_site_fract_y
_atom_site_fract_z
Si Si1 0.622139 0.622139 0.250000
Si Si2 0.314835 0.961892 0.749402
Si Si3 0.649429 0.449093 0.124719
Si Si4 0.750000 0.908347 0.500000
O O1 0.630412 0.527835 0.229251
O O2 0.681849 0.645113 0.406370
O O3 0.375570 0.910605 0.637572
O O4 0.233088 0.915795 0.799673
O O5 0.296187 0.040754 0.643215
O O6 0.353852 0.981065 0.931330
#
# Coordination Sequence:
#
# PCOD8316966 Si02
#       4
#     8  16  16   8
#     4  10  22  40  64  89 118 155 200 252 304 356
#     4  10  21  37  59  90 122 155 200 243 298 363
#     4  10  21  37  60  89 122 159 196 246 299 359
#     4  10  22  40  62  88 118 156 208 258 302 365
#
# _framework density 21.708327000000001
#
# number of rings (size 3 to 8) (size 9 to 14) (size 15 to 20)
#    0.000    2.000    0.000    4.000    0.000    7.333 
#    0.000    3.333    0.000   50.000    0.000    0.000 
#    0.000    0.000    0.000    0.000    0.000    0.000 
#
# Total GULP energy -594629.393501 kJ/mol
# GULP energy per Si atom -12388.112365 kJ/mol
# Density = 2.165892 g / cm^3
# Si number density = 21.708327 Si / 1000 Ang^3
#
#
#
# Elastic Constant Matrix: (Units=GPa)
#
#
# Indices 1 2 3 4 5 6 
#
# 1 71.8096 49.3582 36.9294 0.0000 0.0000 0.0000
# 2 49.3582 71.8096 36.9294 0.0000 0.0000 0.0000
# 3 36.9294 36.9294 128.3558 0.0000 0.0000 0.0000
# 4 0.0000 0.0000 0.0000 35.1149 0.0000 0.0000
# 5 0.0000 0.0000 0.0000 0.0000 35.1149 0.0000
# 6 0.0000 0.0000 0.0000 0.0000 0.0000 6.0746
#
#
#
# Elastic Compliance Matrix: (Units=1/GPa)
#
#
# Indices 1 2 3 4 5 6 
#
# 1 0.027274 -0.017266 -0.002879 0.000000 0.000000 0.000000
# 2 -0.017266 0.027274 -0.002879 0.000000 0.000000 0.000000
# 3 -0.002879 -0.002879 0.009448 0.000000 0.000000 0.000000
# 4 0.000000 0.000000 0.000000 0.028478 0.000000 0.000000
# 5 0.000000 0.000000 0.000000 0.000000 0.028478 0.000000
# 6 0.000000 0.000000 0.000000 0.000000 0.000000 0.164619
#
#
# Mechanical properties :
#
#
# Convention : Reuss Voigt Hill
#
# Bulk Modulus (GPa) = 55.72179 57.60100 56.66139
# Shear Modulus (GPa) = 14.81026 25.17807 19.99417
#
# Velocity S-wave (km/s) = 2.61480 3.40933 3.03815
# Velocity P-wave (km/s) = 5.90257 6.48766 6.20202
#
# Compressibility (1/GPa) = 0.01794630
#
# Stress axis : x y z
#
# Youngs Moduli (GPa) = 36.66433 36.66433 105.84527
#
# Poissons Ratio (x) = 0.63306 0.30478
# Poissons Ratio (y) = 0.63306 0.30478
# Poissons Ratio (z) = 0.10557 0.10557
#
# Static dielectric constant tensor:
#      x y z
#    x 3.874190 0.000000 0.000000 
#    y 0.000000 3.874190 0.000000 
#    z 0.000000 0.000000 4.289750 
# 
# 
# High freq. dielectric constant tensor:
#      x y z
#    x 1.837800 0.000000 0.000000 
#    y 0.000000 1.837800 0.000000 
#    z 0.000000 0.000000 1.875570 
# 
# From -- ./inp_files/1123.got.cif
#   From: 2010.03.12/outbox.cif.g09.slc.cpg/sg133_1_cif.got.tgz:1123.got - 2010.04.06 18:08:06.
