data_PCOD8316263
_publ_section_title
;
Structure prediction by ZEFSAII (Michael W. Deem and Ramdas Pophale) SiO2 
 PCOD8316263
Probable space group: P 42/M M C
;
_chemical_formula_sum "Si O2"
_cell_formula_units_Z 50
_cell_length_a 7.659372
_cell_length_b 7.659372
_cell_length_c 41.676989
_cell_angle_alpha 90.000000
_cell_angle_beta 90.000000
_cell_angle_gamma 90.000000
_cell_volume 2445.021380
_symmetry_space_group_name_H-M "P 42/M M C"
_symmetry_group_IT_number 131
_symmetry_cell_setting 'tetragonal'
loop_
_space_group_symop_operation_xyz
x,y,z
-x,-y,z
-y,x,1/2+z
y,-x,1/2+z
-x,y,-z
x,-y,-z
y,x,1/2-z
-y,-x,1/2-z
-x,-y,-z
x,y,-z
y,-x,1/2-z
-y,x,1/2-z
x,-y,z
-x,y,z
-y,-x,1/2+z
y,x,1/2+z
loop_
_atom_site_type_symbol
_atom_site_label
_atom_site_fract_x
_atom_site_fract_y
_atom_site_fract_z
Si Si1 0.305882 0.707580 0.419646
Si Si2 0.000000 0.708649 0.463939
Si Si3 0.000000 0.708928 0.697900
Si Si4 0.000000 0.000000 0.750000
Si Si5 0.706775 0.306559 0.151732
O O1 0.297557 0.500000 0.419615
O O2 0.500000 0.771150 0.429250
O O3 0.169817 0.782671 0.445485
O O4 0.258492 0.776631 0.383892
O O5 0.000000 0.500000 0.464288
O O6 0.000000 0.783235 0.500000
O O7 0.168442 0.771485 0.677810
O O8 0.000000 0.500000 0.705144
O O9 0.000000 0.819811 0.730240
O O10 0.773311 0.500000 0.161606
O O11 0.500000 0.303540 0.150523
#
# Coordination Sequence:
#
# PCOD8316263 Si02
#       5
#    16   8   8   2  16
#     4   8  13  21  34  54  78 105 150 209 252 289
#     4   9  15  19  24  40  74 123 167 199 246 309
#     4  10  21  38  56  73 102 136 163 202 246 291
#     4  12  28  40  52  84 112 136 174 196 236 312
#     4   8  14  27  50  74  90 116 164 214 259 301
#
# _framework density 20.449719999999999
#
# number of rings (size 3 to 8) (size 9 to 14) (size 15 to 20)
#    0.000    3.360    0.000    2.880    0.000    5.760 
#    0.000    3.200    0.000    0.000    0.000    0.000 
#    0.000    0.000    0.000   11.520    0.000   74.240 
#
# Total GULP energy -619585.435373 kJ/mol
# GULP energy per Si atom -12391.708707 kJ/mol
# Density = 2.040318 g / cm^3
# Si number density = 20.449720 Si / 1000 Ang^3
#
#
#
# Elastic Constant Matrix: (Units=GPa)
#
#
# Indices 1 2 3 4 5 6 
#
# 1 93.7291 31.6175 73.2144 0.0000 0.0000 0.0000
# 2 31.6175 93.7291 73.2144 0.0000 0.0000 0.0000
# 3 73.2144 73.2144 173.5475 0.0000 0.0000 0.0000
# 4 0.0000 0.0000 0.0000 -24.5125 0.0000 0.0000
# 5 0.0000 0.0000 0.0000 0.0000 -24.5125 0.0000
# 6 0.0000 0.0000 0.0000 0.0000 0.0000 0.8947
#
#
#
# Elastic Compliance Matrix: (Units=1/GPa)
#
#
# Indices 1 2 3 4 5 6 
#
# 1 0.015915 -0.000185 -0.006636 0.000000 0.000000 0.000000
# 2 -0.000185 0.015915 -0.006636 0.000000 0.000000 0.000000
# 3 -0.006636 -0.006636 0.011361 0.000000 0.000000 0.000000
# 4 0.000000 0.000000 0.000000 -0.040796 0.000000 0.000000
# 5 0.000000 0.000000 0.000000 0.000000 -0.040796 0.000000
# 6 0.000000 0.000000 0.000000 0.000000 0.000000 1.117659
#
#
# Mechanical properties :
#
#
# Convention : Reuss Voigt Hill
#
# Bulk Modulus (GPa) = 61.43580 79.67759 70.55670
# Shear Modulus (GPa) = 4.49803 2.57125 3.53464
#
# Velocity S-wave (km/s) = 1.48470 1.12253 1.31613
# Velocity P-wave (km/s) = 5.74863 6.38180 6.07347
#
# Compressibility (1/GPa) = 0.01627715
#
# Stress axis : x y z
#
# Youngs Moduli (GPa) = 62.83365 62.83365 88.01904
#
# Poissons Ratio (x) = 0.01163 0.58410
# Poissons Ratio (y) = 0.01163 0.58410
# Poissons Ratio (z) = 0.41697 0.41697
#
# Static dielectric constant tensor:
#      x y z
#    x 3.641820 0.000000 0.000000 
#    y 0.000000 3.641820 0.000000 
#    z 0.000000 0.000000 3.798770 
# 
# 
# High freq. dielectric constant tensor:
#      x y z
#    x 1.781200 0.000000 0.000000 
#    y 0.000000 1.781200 0.000000 
#    z 0.000000 0.000000 1.785140 
# 
# From -- ./inp_files/12970.got.cif
#   From: 2010.03.12/outbox.cif.g09.slc.cpg/sg131_7_cif.got.tgz:12970.got - 2010.04.06 17:36:35.
