data_PCOD8316485
_publ_section_title
;
Structure prediction by ZEFSAII (Michael W. Deem and Ramdas Pophale) SiO2 
 PCOD8316485
Probable space group: P 42/M C M
;
_chemical_formula_sum "Si O2"
_cell_formula_units_Z 104
_cell_length_a 17.320972
_cell_length_b 17.320972
_cell_length_c 19.542166
_cell_angle_alpha 90.000000
_cell_angle_beta 90.000000
_cell_angle_gamma 90.000000
_cell_volume 5862.963863
_symmetry_space_group_name_H-M "P 42/M C M"
_symmetry_group_IT_number 132
_symmetry_cell_setting 'tetragonal'
loop_
_space_group_symop_operation_xyz
x,y,z
-y,x,1/2+z
-x,-y,z
y,-x,1/2+z
x,-y,1/2-z
-x,y,1/2-z
y,x,-z
-y,-x,-z
-x,-y,-z
y,-x,1/2-z
x,y,-z
-y,x,1/2-z
-x,y,1/2+z
x,-y,1/2+z
-y,-x,z
y,x,z
loop_
_atom_site_type_symbol
_atom_site_label
_atom_site_fract_x
_atom_site_fract_y
_atom_site_fract_z
Si Si1 0.617776 0.500441 0.920877
Si Si2 0.031232 0.844937 0.323557
Si Si3 0.508111 0.226203 0.144582
Si Si4 0.923627 0.549754 0.921929
Si Si5 0.935060 0.064941 0.077008
Si Si6 0.365725 0.767102 0.745436
Si Si7 0.934040 0.329539 0.302419
O O1 0.572243 0.427758 0.886848
O O2 0.580042 0.580042 0.890925
O O3 0.708079 0.493658 0.911462
O O4 0.602040 0.498808 0.000000
O O5 0.110105 0.889896 0.339818
O O6 0.045879 0.755124 0.326752
O O7 0.000000 0.872041 0.250000
O O8 0.967769 0.861490 0.382127
O O9 0.503872 0.144873 0.106214
O O10 0.590549 0.231367 0.182175
O O11 0.433386 0.243816 0.190586
O O12 0.932985 0.621835 0.871799
O O13 0.000000 0.500000 0.919747
O O14 0.906700 0.577496 0.000000
O O15 0.910912 0.089089 0.000000
O O16 0.000000 0.000000 0.075997
O O17 0.300592 0.699409 0.741829
O O18 0.327048 0.850829 0.734450
O O19 0.000000 0.361121 0.250000
#
# Coordination Sequence:
#
# PCOD8316485 Si02
#       7
#    16  16  16  16   8  16  16
#     4   9  17  29  46  70 100 133 170 210 252 311
#     4  10  18  31  53  77 106 142 177 215 261 324
#     4  10  19  32  52  73 101 137 174 215 268 322
#     4  10  21  37  56  76 100 135 180 228 276 325
#     4   9  18  30  48  76 106 138 174 212 254 306
#     4  10  20  33  50  76 106 135 171 222 267 316
#     4  10  21  35  54  79 104 138 177 223 273 324
#
# _framework density 17.738468999999998
#
# number of rings (size 3 to 8) (size 9 to 14) (size 15 to 20)
#    0.000    2.231    0.769    3.231    0.000    2.154 
#    0.000    0.000    0.000   12.462    0.000    0.000 
#    0.000    0.000    0.000    0.000    0.000    0.000 
#
# Total GULP energy -1288851.271219 kJ/mol
# GULP energy per Si atom -12392.800685 kJ/mol
# Density = 1.769810 g / cm^3
# Si number density = 17.738469 Si / 1000 Ang^3
#
#
#
# Elastic Constant Matrix: (Units=GPa)
#
#
# Indices 1 2 3 4 5 6 
#
# 1 109.2882 49.3576 47.2844 0.0000 0.0000 0.0000
# 2 49.3576 109.2881 47.2844 0.0000 0.0000 0.0000
# 3 47.2844 47.2844 108.0991 0.0000 0.0000 0.0000
# 4 0.0000 0.0000 0.0000 21.3503 0.0000 0.0000
# 5 0.0000 0.0000 0.0000 0.0000 21.3503 0.0000
# 6 0.0000 0.0000 0.0000 0.0000 0.0000 27.3586
#
#
#
# Elastic Compliance Matrix: (Units=1/GPa)
#
#
# Indices 1 2 3 4 5 6 
#
# 1 0.012606 -0.004080 -0.003730 0.000000 0.000000 0.000000
# 2 -0.004080 0.012606 -0.003730 0.000000 0.000000 0.000000
# 3 -0.003730 -0.003730 0.012514 0.000000 0.000000 0.000000
# 4 0.000000 0.000000 0.000000 0.046838 0.000000 0.000000
# 5 0.000000 0.000000 0.000000 0.000000 0.046838 0.000000
# 6 0.000000 0.000000 0.000000 0.000000 0.000000 0.036552
#
#
# Mechanical properties :
#
#
# Convention : Reuss Voigt Hill
#
# Bulk Modulus (GPa) = 68.26815 68.28088 68.27451
# Shear Modulus (GPa) = 25.52137 26.19510 25.85824
#
# Velocity S-wave (km/s) = 3.79721 3.84701 3.82219
# Velocity P-wave (km/s) = 7.60227 7.63605 7.61918
#
# Compressibility (1/GPa) = 0.01464812
#
# Stress axis : x y z
#
# Youngs Moduli (GPa) = 79.32547 79.32541 79.91286
#
# Poissons Ratio (x) = 0.32362 0.29805
# Poissons Ratio (y) = 0.32362 0.29805
# Poissons Ratio (z) = 0.29586 0.29586
#
# Static dielectric constant tensor:
#      x y z
#    x 3.315120 0.000000 0.000000 
#    y 0.000000 3.315120 0.000000 
#    z 0.000000 0.000000 3.370120 
# 
# 
# High freq. dielectric constant tensor:
#      x y z
#    x 1.688840 0.000000 0.000000 
#    y 0.000000 1.688840 0.000000 
#    z 0.000000 0.000000 1.681100 
# 
# From -- ./inp_files/6575.got.cif
#   From: 2010.03.12/outbox.cif.g09.slc.cpg/sg132_4_cif.got.tgz:6575.got - 2010.04.06 17:53:44.
