data_PCOD8316458
_publ_section_title
;
Structure prediction by ZEFSAII (Michael W. Deem and Ramdas Pophale) SiO2 
 PCOD8316458
Probable space group: P 42/M C M
;
_chemical_formula_sum "Si O2"
_cell_formula_units_Z 96
_cell_length_a 24.491094
_cell_length_b 24.491094
_cell_length_c 9.096820
_cell_angle_alpha 90.000000
_cell_angle_beta 90.000000
_cell_angle_gamma 90.000000
_cell_volume 5456.397129
_symmetry_space_group_name_H-M "P 42/M C M"
_symmetry_group_IT_number 132
_symmetry_cell_setting 'tetragonal'
loop_
_space_group_symop_operation_xyz
x,y,z
-y,x,1/2+z
-x,-y,z
y,-x,1/2+z
x,-y,1/2-z
-x,y,1/2-z
y,x,-z
-y,-x,-z
-x,-y,-z
y,-x,1/2-z
x,y,-z
-y,x,1/2-z
-x,y,1/2+z
x,-y,1/2+z
-y,-x,z
y,x,z
loop_
_atom_site_type_symbol
_atom_site_label
_atom_site_fract_x
_atom_site_fract_y
_atom_site_fract_z
Si Si1 0.078067 0.658395 0.838117
Si Si2 0.654945 0.794199 0.337662
Si Si3 0.849139 0.150862 0.333310
Si Si4 0.553697 0.076261 0.664659
Si Si5 0.206519 0.447543 0.835180
Si Si6 0.781876 0.056553 0.177089
Si Si7 0.758572 0.758572 0.837278
O O1 0.141715 0.647403 0.852399
O O2 0.053389 0.609951 0.737127
O O3 0.067574 0.719000 0.772534
O O4 0.051197 0.654304 0.000000
O O5 0.657777 0.767681 0.500000
O O6 0.604449 0.768755 0.249057
O O7 0.708949 0.783215 0.249661
O O8 0.866911 0.133090 0.500000
O O9 0.823597 0.100836 0.242308
O O10 0.803852 0.196149 0.348864
O O11 0.500000 0.054633 0.750000
O O12 0.550991 0.053094 0.500000
O O13 0.553952 0.141373 0.663334
O O14 0.228649 0.500000 0.750000
O O15 0.229711 0.448281 0.000000
O O16 0.800466 0.000000 0.250000
O O17 0.786759 0.056069 0.000000
O O18 0.740131 0.740131 0.000000
#
# Coordination Sequence:
#
# PCOD8316458 Si02
#       7
#    16  16   8  16  16  16   8
#     4   9  18  31  48  70  99 132 168 208 253 300
#     4  10  18  29  45  66  94 130 168 206 253 303
#     4  11  23  39  61  86 112 141 171 203 244 298
#     4   9  16  25  41  64  93 128 169 213 256 298
#     4   9  16  26  39  59  87 122 165 211 254 296
#     4  11  23  40  61  86 113 140 169 206 250 302
#     4  11  21  31  47  73 104 134 167 208 252 303
#
# _framework density 17.594027000000001
#
# number of rings (size 3 to 8) (size 9 to 14) (size 15 to 20)
#    0.000    2.167    1.667    2.500    0.000    6.667 
#    0.000    0.000    0.000    0.750    0.000    5.250 
#    0.000    0.000    0.000    0.000    0.000    0.417 
#
# Total GULP energy -1190024.689487 kJ/mol
# GULP energy per Si atom -12396.090515 kJ/mol
# Density = 1.755398 g / cm^3
# Si number density = 17.594027 Si / 1000 Ang^3
#
#
#
# Elastic Constant Matrix: (Units=GPa)
#
#
# Indices 1 2 3 4 5 6 
#
# 1 79.7447 25.8800 49.1469 0.0000 0.0000 0.0000
# 2 25.8800 79.7450 49.1470 0.0000 0.0000 0.0000
# 3 49.1469 49.1470 162.5422 0.0000 0.0000 0.0000
# 4 0.0000 0.0000 0.0000 31.1149 0.0000 0.0000
# 5 0.0000 0.0000 0.0000 0.0000 31.1149 0.0000
# 6 0.0000 0.0000 0.0000 0.0000 0.0000 17.7295
#
#
#
# Elastic Compliance Matrix: (Units=1/GPa)
#
#
# Indices 1 2 3 4 5 6 
#
# 1 0.015870 -0.002695 -0.003983 0.000000 0.000000 0.000000
# 2 -0.002695 0.015870 -0.003983 0.000000 0.000000 0.000000
# 3 -0.003983 -0.003983 0.008561 0.000000 0.000000 0.000000
# 4 0.000000 0.000000 0.000000 0.032139 0.000000 0.000000
# 5 0.000000 0.000000 0.000000 0.000000 0.032139 0.000000
# 6 0.000000 0.000000 0.000000 0.000000 0.000000 0.056403
#
#
# Mechanical properties :
#
#
# Convention : Reuss Voigt Hill
#
# Bulk Modulus (GPa) = 52.69762 63.37549 58.03655
# Shear Modulus (GPa) = 26.50669 29.18238 27.84454
#
# Velocity S-wave (km/s) = 3.88567 4.07707 3.98252
# Velocity P-wave (km/s) = 7.08154 7.63299 7.36243
#
# Compressibility (1/GPa) = 0.01897619
#
# Stress axis : x y z
#
# Youngs Moduli (GPa) = 63.01289 63.01315 116.80631
#
# Poissons Ratio (x) = 0.16984 0.46530
# Poissons Ratio (y) = 0.16983 0.46530
# Poissons Ratio (z) = 0.25101 0.25101
#
# Static dielectric constant tensor:
#      x y z
#    x 2.992480 0.000000 0.000000 
#    y 0.000000 2.992480 0.000000 
#    z 0.000000 0.000000 3.708920 
# 
# 
# High freq. dielectric constant tensor:
#      x y z
#    x 1.650390 0.000000 0.000000 
#    y 0.000000 1.650390 0.000000 
#    z 0.000000 0.000000 1.703070 
# 
# From -- ./inp_files/1850.got.cif
#   From: 2010.03.12/outbox.cif.g09.slc.cpg/sg132_1_cif.got.tgz:1850.got - 2010.04.06 17:53:44.
