data_PCOD8316642
_publ_section_title
;
Structure prediction by ZEFSAII (Michael W. Deem and Ramdas Pophale) SiO2 
 PCOD8316642
Probable space group: P 42/M C M
;
_chemical_formula_sum "Si O2"
_cell_formula_units_Z 96
_cell_length_a 24.968439
_cell_length_b 24.968439
_cell_length_c 8.726013
_cell_angle_alpha 90.000000
_cell_angle_beta 90.000000
_cell_angle_gamma 90.000000
_cell_volume 5439.996732
_symmetry_space_group_name_H-M "P 42/M C M"
_symmetry_group_IT_number 132
_symmetry_cell_setting 'tetragonal'
loop_
_space_group_symop_operation_xyz
x,y,z
-y,x,1/2+z
-x,-y,z
y,-x,1/2+z
x,-y,1/2-z
-x,y,1/2-z
y,x,-z
-y,-x,-z
-x,-y,-z
y,-x,1/2-z
x,y,-z
-y,x,1/2-z
-x,y,1/2+z
x,-y,1/2+z
-y,-x,z
y,x,z
loop_
_atom_site_type_symbol
_atom_site_label
_atom_site_fract_x
_atom_site_fract_y
_atom_site_fract_z
Si Si1 0.673915 0.943355 0.817757
Si Si2 0.947539 0.205376 0.678267
Si Si3 0.275207 0.638040 0.680671
Si Si4 0.332066 0.170414 0.317599
Si Si5 0.355903 0.442807 0.324215
Si Si6 0.772431 0.227570 0.835098
Si Si7 0.858939 0.141062 0.165791
O O1 0.734772 0.938610 0.758078
O O2 0.649348 0.887067 0.754225
O O3 0.649720 0.000000 0.750000
O O4 0.666542 0.945001 0.000000
O O5 0.953658 0.209047 0.500000
O O6 0.902676 0.165284 0.725676
O O7 0.000000 0.179840 0.750000
O O8 0.265853 0.637238 0.500000
O O9 0.305848 0.694153 0.728792
O O10 0.218114 0.628253 0.765859
O O11 0.311004 0.588039 0.728244
O O12 0.330227 0.162784 0.500000
O O13 0.275750 0.195368 0.249330
O O14 0.365149 0.500000 0.250000
O O15 0.337024 0.447854 0.500000
O O16 0.412007 0.412007 0.312787
O O17 0.815790 0.184211 0.874201
O O18 0.750440 0.249561 0.000000
O O19 0.880495 0.119506 0.000000
#
# Coordination Sequence:
#
# PCOD8316642 Si02
#       7
#    16  16  16  16  16   8   8
#     4  10  20  32  45  64  91 125 162 202 247 299
#     4  10  20  32  45  62  82 107 139 179 226 279
#     4  10  20  33  50  75 106 140 178 221 266 315
#     4  11  19  31  48  69  98 133 169 208 254 309
#     4  10  21  37  57  81 111 149 190 233 277 318
#     4   9  18  27  41  65  92 122 156 194 237 293
#     4  11  19  31  47  64  84 109 141 180 226 279
#
# _framework density 17.647068999999998
#
# number of rings (size 3 to 8) (size 9 to 14) (size 15 to 20)
#    0.000    1.833    2.500    2.750    0.000    3.167 
#    0.000    0.833    0.000    0.250    0.000    1.750 
#    0.000    0.667    0.000    6.667    0.000    4.000 
#
# Total GULP energy -1189319.722978 kJ/mol
# GULP energy per Si atom -12388.747114 kJ/mol
# Density = 1.760690 g / cm^3
# Si number density = 17.647069 Si / 1000 Ang^3
#
#
#
# Elastic Constant Matrix: (Units=GPa)
#
#
# Indices 1 2 3 4 5 6 
#
# 1 79.8469 23.5836 25.6191 0.0000 0.0000 0.0000
# 2 23.5836 79.8469 25.6191 0.0000 0.0000 0.0000
# 3 25.6191 25.6191 76.1397 0.0000 0.0000 0.0000
# 4 0.0000 0.0000 0.0000 27.6268 0.0000 0.0000
# 5 0.0000 0.0000 0.0000 0.0000 27.6268 0.0000
# 6 0.0000 0.0000 0.0000 0.0000 0.0000 13.0871
#
#
#
# Elastic Compliance Matrix: (Units=1/GPa)
#
#
# Indices 1 2 3 4 5 6 
#
# 1 0.014688 -0.003086 -0.003904 0.000000 0.000000 0.000000
# 2 -0.003086 0.014688 -0.003904 0.000000 0.000000 0.000000
# 3 -0.003904 -0.003904 0.015761 0.000000 0.000000 0.000000
# 4 0.000000 0.000000 0.000000 0.036197 0.000000 0.000000
# 5 0.000000 0.000000 0.000000 0.000000 0.036197 0.000000
# 6 0.000000 0.000000 0.000000 0.000000 0.000000 0.076411
#
#
# Mechanical properties :
#
#
# Convention : Reuss Voigt Hill
#
# Bulk Modulus (GPa) = 42.82674 42.83080 42.82877
# Shear Modulus (GPa) = 22.37021 24.40224 23.38623
#
# Velocity S-wave (km/s) = 3.56426 3.72263 3.64430
# Velocity P-wave (km/s) = 6.42338 6.54223 6.48307
#
# Compressibility (1/GPa) = 0.02334990
#
# Stress axis : x y z
#
# Youngs Moduli (GPa) = 68.08316 68.08322 63.44829
#
# Poissons Ratio (x) = 0.21008 0.24769
# Poissons Ratio (y) = 0.21008 0.24769
# Poissons Ratio (z) = 0.26579 0.26579
#
# Static dielectric constant tensor:
#      x y z
#    x 3.134660 0.000000 0.000000 
#    y 0.000000 3.134660 0.000000 
#    z 0.000000 0.000000 3.406090 
# 
# 
# High freq. dielectric constant tensor:
#      x y z
#    x 1.657320 0.000000 0.000000 
#    y 0.000000 1.657320 0.000000 
#    z 0.000000 0.000000 1.694520 
# 
# From -- ./inp_files/1827.got.cif
#   From: 2010.03.12/outbox.cif.g09.slc.cpg/sg132_1_cif.got.tgz:1827.got - 2010.04.06 17:53:44.
