data_PCOD8316074
_publ_section_title
;
Structure prediction by ZEFSAII (Michael W. Deem and Ramdas Pophale) SiO2 
 PCOD8316074
Probable space group: P 42/M M C
;
_chemical_formula_sum "Si O2"
_cell_formula_units_Z 96
_cell_length_a 24.302457
_cell_length_b 24.302457
_cell_length_c 8.734200
_cell_angle_alpha 90.000000
_cell_angle_beta 90.000000
_cell_angle_gamma 90.000000
_cell_volume 5158.500763
_symmetry_space_group_name_H-M "P 42/M M C"
_symmetry_group_IT_number 131
_symmetry_cell_setting 'tetragonal'
loop_
_space_group_symop_operation_xyz
x,y,z
-x,-y,z
-y,x,1/2+z
y,-x,1/2+z
-x,y,-z
x,-y,-z
y,x,1/2-z
-y,-x,1/2-z
-x,-y,-z
x,y,-z
y,-x,1/2-z
-y,x,1/2-z
x,-y,z
-x,y,z
-y,-x,1/2+z
y,x,1/2+z
loop_
_atom_site_type_symbol
_atom_site_label
_atom_site_fract_x
_atom_site_fract_y
_atom_site_fract_z
Si Si1 0.060855 0.438880 0.817768
Si Si2 0.646888 0.730712 0.317034
Si Si3 0.938306 0.267872 0.679122
Si Si4 0.647392 0.435747 0.681358
Si Si5 0.856189 0.349750 0.180870
Si Si6 0.940412 0.142018 0.320633
O O1 0.072243 0.500000 0.755696
O O2 0.108634 0.400420 0.749051
O O3 0.000000 0.419135 0.763381
O O4 0.062751 0.438135 0.000000
O O5 0.700376 0.700376 0.250000
O O6 0.647461 0.726904 0.500000
O O7 0.591582 0.701916 0.254053
O O8 0.648680 0.793716 0.256892
O O9 0.928768 0.277180 0.500000
O O10 0.888985 0.295630 0.771486
O O11 0.932801 0.204838 0.726500
O O12 0.000000 0.288950 0.724599
O O13 0.592896 0.407105 0.750000
O O14 0.648241 0.426495 0.500000
O O15 0.646408 0.500000 0.724825
O O16 0.853986 0.353210 0.000000
O O17 0.891843 0.108158 0.250000
O O18 0.937792 0.135417 0.500000
O O19 0.000000 0.121103 0.260811
#
# Coordination Sequence:
#
# PCOD8316074 Si02
#       6
#    16  16  16  16  16  16
#     4   8  14  26  45  70 100 128 153 191 243 291
#     4  10  21  36  53  74 103 139 176 215 260 305
#     4   9  19  35  52  71  99 134 167 205 258 311
#     4  10  21  37  58  83 110 141 176 214 257 304
#     4  10  20  32  51  78 100 127 172 216 252 297
#     4   9  19  35  52  72  99 129 163 203 249 304
#
# _framework density 18.610057000000001
#
# number of rings (size 3 to 8) (size 9 to 14) (size 15 to 20)
#    0.000    2.667    0.000    4.000    0.000    6.333 
#    0.000    8.333    0.000    0.500    0.000    2.333 
#    0.000    0.000    0.000    0.000    0.000    0.000 
#
# Total GULP energy -1189891.661766 kJ/mol
# GULP energy per Si atom -12394.704810 kJ/mol
# Density = 1.856770 g / cm^3
# Si number density = 18.610057 Si / 1000 Ang^3
#
#
#
# Elastic Constant Matrix: (Units=GPa)
#
#
# Indices 1 2 3 4 5 6 
#
# 1 155.4689 81.8231 34.8463 0.0000 0.0000 0.0000
# 2 81.8231 155.4626 34.8449 0.0000 0.0000 0.0000
# 3 34.8463 34.8449 36.1395 0.0000 0.0000 0.0000
# 4 0.0000 0.0000 0.0000 37.6995 0.0000 0.0000
# 5 0.0000 0.0000 0.0000 0.0000 37.6903 0.0000
# 6 0.0000 0.0000 0.0000 0.0000 0.0000 67.2127
#
#
#
# Elastic Compliance Matrix: (Units=1/GPa)
#
#
# Indices 1 2 3 4 5 6 
#
# 1 0.009729 -0.003850 -0.005669 0.000000 0.000000 0.000000
# 2 -0.003850 0.009729 -0.005669 0.000000 0.000000 0.000000
# 3 -0.005669 -0.005669 0.038602 0.000000 0.000000 0.000000
# 4 0.000000 0.000000 0.000000 0.026526 0.000000 0.000000
# 5 0.000000 0.000000 0.000000 0.000000 0.026532 0.000000
# 6 0.000000 0.000000 0.000000 0.000000 0.000000 0.014878
#
#
# Mechanical properties :
#
#
# Convention : Reuss Voigt Hill
#
# Bulk Modulus (GPa) = 36.11979 72.23329 54.17654
# Shear Modulus (GPa) = 30.19339 41.55759 35.87549
#
# Velocity S-wave (km/s) = 4.03230 4.73067 4.39538
# Velocity P-wave (km/s) = 6.41328 8.29080 7.41173
#
# Compressibility (1/GPa) = 0.02768565
#
# Stress axis : x y z
#
# Youngs Moduli (GPa) = 102.78569 102.78271 25.90538
#
# Poissons Ratio (x) = 0.39571 0.14685
# Poissons Ratio (y) = 0.39572 0.14685
# Poissons Ratio (z) = 0.58267 0.58263
#
# Static dielectric constant tensor:
#      x y z
#    x 3.586920 0.000000 0.000000 
#    y 0.000000 3.586920 0.000000 
#    z 0.000000 0.000000 3.175530 
# 
# 
# High freq. dielectric constant tensor:
#      x y z
#    x 1.728210 0.000000 0.000000 
#    y 0.000000 1.728210 0.000000 
#    z 0.000000 0.000000 1.702590 
# 
# From -- ./inp_files/2297.got.cif
#   From: 2010.03.12/outbox.cif.g09.slc.cpg/sg131_2_cif.got.tgz:2297.got - 2010.04.06 17:36:35.
