data_PCOD8316075
_publ_section_title
;
Structure prediction by ZEFSAII (Michael W. Deem and Ramdas Pophale) SiO2 
 PCOD8316075
Probable space group: P 42/M M C
;
_chemical_formula_sum "Si O2"
_cell_formula_units_Z 96
_cell_length_a 24.179009
_cell_length_b 24.179009
_cell_length_c 8.892140
_cell_angle_alpha 90.000000
_cell_angle_beta 90.000000
_cell_angle_gamma 90.000000
_cell_volume 5198.562690
_symmetry_space_group_name_H-M "P 42/M M C"
_symmetry_group_IT_number 131
_symmetry_cell_setting 'tetragonal'
loop_
_space_group_symop_operation_xyz
x,y,z
-x,-y,z
-y,x,1/2+z
y,-x,1/2+z
-x,y,-z
x,-y,-z
y,x,1/2-z
-y,-x,1/2-z
-x,-y,-z
x,y,-z
y,-x,1/2-z
-y,x,1/2-z
x,-y,z
-x,y,z
-y,-x,1/2+z
y,x,1/2+z
loop_
_atom_site_type_symbol
_atom_site_label
_atom_site_fract_x
_atom_site_fract_y
_atom_site_fract_z
Si Si1 0.143430 0.936238 0.822953
Si Si2 0.938146 0.437797 0.178532
Si Si3 0.845855 0.352929 0.824055
Si Si4 0.650214 0.269840 0.822982
Si Si5 0.438229 0.640216 0.823379
Si Si6 0.145713 0.774450 0.823846
O O1 0.087497 0.912504 0.750000
O O2 0.196238 0.906669 0.750806
O O3 0.147452 0.000000 0.781729
O O4 0.142604 0.925359 0.000000
O O5 0.921713 0.500000 0.231149
O O6 0.893889 0.393265 0.240463
O O7 0.000000 0.423252 0.238411
O O8 0.938716 0.435070 0.000000
O O9 0.790010 0.366296 0.736600
O O10 0.862492 0.289988 0.791062
O O11 0.835833 0.363192 0.000000
O O12 0.706944 0.293057 0.750000
O O13 0.599420 0.308445 0.773107
O O14 0.659376 0.267882 0.000000
O O15 0.416070 0.583931 0.750000
O O16 0.500000 0.651720 0.764915
O O17 0.436665 0.632010 0.000000
O O18 0.202410 0.797591 0.750000
O O19 0.147618 0.787664 0.000000
#
# Coordination Sequence:
#
# PCOD8316075 Si02
#       6
#    16  16  16  16  16  16
#     4  10  21  36  54  76 102 133 169 208 249 294
#     4   8  15  30  51  74 102 134 167 206 249 292
#     4  10  20  32  51  80 105 129 167 209 249 298
#     4  10  20  34  52  73 101 136 169 205 251 299
#     4   9  19  35  52  72 100 133 170 211 254 301
#     4  10  20  33  50  72 101 134 166 205 252 299
#
# _framework density 18.466643000000001
#
# number of rings (size 3 to 8) (size 9 to 14) (size 15 to 20)
#    0.000    2.500    0.000    3.500    0.000    6.667 
#    0.000    3.333    0.000    0.500    0.000    1.167 
#    0.000    0.000    0.000    0.000    0.000    0.000 
#
# Total GULP energy -1190358.634027 kJ/mol
# GULP energy per Si atom -12399.569104 kJ/mol
# Density = 1.842461 g / cm^3
# Si number density = 18.466643 Si / 1000 Ang^3
#
#
#
# Elastic Constant Matrix: (Units=GPa)
#
#
# Indices 1 2 3 4 5 6 
#
# 1 145.3959 84.8269 45.3277 0.0000 0.0000 0.0000
# 2 84.8269 145.3935 45.3247 0.0000 0.0000 0.0000
# 3 45.3277 45.3247 62.3303 0.0000 0.0000 0.0000
# 4 0.0000 0.0000 0.0000 20.8301 0.0000 0.0000
# 5 0.0000 0.0000 0.0000 0.0000 20.8297 0.0000
# 6 0.0000 0.0000 0.0000 0.0000 0.0000 27.4834
#
#
#
# Elastic Compliance Matrix: (Units=1/GPa)
#
#
# Indices 1 2 3 4 5 6 
#
# 1 0.011299 -0.005212 -0.004426 0.000000 0.000000 0.000000
# 2 -0.005212 0.011298 -0.004426 0.000000 0.000000 0.000000
# 3 -0.004426 -0.004426 0.022481 0.000000 0.000000 0.000000
# 4 0.000000 0.000000 0.000000 0.048008 0.000000 0.000000
# 5 0.000000 0.000000 0.000000 0.000000 0.048008 0.000000
# 6 0.000000 0.000000 0.000000 0.000000 0.000000 0.036386
#
#
# Mechanical properties :
#
#
# Convention : Reuss Voigt Hill
#
# Bulk Modulus (GPa) = 58.99877 78.23095 68.61486
# Shear Modulus (GPa) = 23.66785 25.67132 24.66959
#
# Velocity S-wave (km/s) = 3.58390 3.73251 3.65896
# Velocity P-wave (km/s) = 7.01028 7.81223 7.42209
#
# Compressibility (1/GPa) = 0.01694950
#
# Stress axis : x y z
#
# Youngs Moduli (GPa) = 88.50707 88.50862 44.48257
#
# Poissons Ratio (x) = 0.46131 0.19690
# Poissons Ratio (y) = 0.46130 0.19686
# Poissons Ratio (z) = 0.39178 0.39170
#
# Static dielectric constant tensor:
#      x y z
#    x 3.592500 0.000000 0.000000 
#    y 0.000000 3.592490 0.000000 
#    z 0.000000 0.000000 3.279690 
# 
# 
# High freq. dielectric constant tensor:
#      x y z
#    x 1.720180 0.000000 0.000000 
#    y 0.000000 1.720180 0.000000 
#    z 0.000000 0.000000 1.703290 
# 
# From -- ./inp_files/2281.got.cif
#   From: 2010.03.12/outbox.cif.g09.slc.cpg/sg131_2_cif.got.tgz:2281.got - 2010.04.06 17:36:35.
