data_PCOD8316951
_publ_section_title
;
Structure prediction by ZEFSAII (Michael W. Deem and Ramdas Pophale) SiO2 
 PCOD8316951
Probable space group: P 42/N B C
;
_chemical_formula_sum "Si O2"
_cell_formula_units_Z 88
_cell_length_a 16.707484
_cell_length_b 16.707484
_cell_length_c 13.119522
_cell_angle_alpha 90.000000
_cell_angle_beta 90.000000
_cell_angle_gamma 90.000000
_cell_volume 3662.183655
_symmetry_space_group_name_H-M "P 42/N B C"
_symmetry_group_IT_number 133
_space_group.IT_coordinate_system_code '2'
_symmetry_cell_setting 'tetragonal'
loop_
_space_group_symop_operation_xyz
x,y,z
1/2-y,x,1/2+z
1/2-x,1/2-y,z
y,1/2-x,1/2+z
x,1/2-y,-z
1/2-x,y,-z
y,x,1/2-z
1/2-y,1/2-x,1/2-z
-x,-y,-z
1/2+y,-x,1/2-z
1/2+x,1/2+y,-z
-y,1/2+x,1/2-z
-x,1/2+y,z
1/2+x,-y,z
-y,-x,1/2+z
1/2+y,1/2+x,1/2+z
loop_
_atom_site_type_symbol
_atom_site_label
_atom_site_fract_x
_atom_site_fract_y
_atom_site_fract_z
Si Si1 0.625266 0.262721 0.741288
Si Si2 0.253554 0.123317 0.244991
Si Si3 0.793690 0.994734 0.399766
Si Si4 0.823287 0.997962 0.883386
Si Si5 0.015539 0.484462 0.750000
Si Si6 0.966763 0.570948 0.564627
O O1 0.689244 0.328238 0.702580
O O2 0.569488 0.307485 0.824652
O O3 0.578583 0.225581 0.643611
O O4 0.198802 0.198802 0.250000
O O5 0.345951 0.154050 0.250000
O O6 0.237836 0.075027 0.140767
O O7 0.234590 0.066205 0.340919
O O8 0.750000 0.026283 0.500000
O O9 0.872521 0.944713 0.426480
O O10 0.901823 0.989266 0.811857
O O11 0.847102 0.991086 0.003599
O O12 0.009520 0.562989 0.675380
O O13 0.000000 0.500000 0.500000
#
# Coordination Sequence:
#
# PCOD8316951 Si02
#       6
#    16  16  16  16   8  16
#     4  10  22  43  69  96 143 186 227 282 358 423
#     4  10  21  40  66  93 135 177 220 270 344 412
#     4  11  24  42  70  97 134 181 232 283 347 413
#     4  10  20  40  69 100 131 182 228 288 343 410
#     4  10  20  36  69  96 137 170 226 296 340 400
#     4  10  22  38  66 102 128 171 235 281 339 398
#
# _framework density 24.02938
#
# number of rings (size 3 to 8) (size 9 to 14) (size 15 to 20)
#    0.000    1.818    0.909    3.273    8.909    0.000 
#    0.000    8.182    4.000    0.000    0.000    0.000 
#    0.000    0.000    0.000    0.000    0.000    0.000 
#
# Total GULP energy -1090396.149637 kJ/mol
# GULP energy per Si atom -12390.865337 kJ/mol
# Density = 2.397469 g / cm^3
# Si number density = 24.029380 Si / 1000 Ang^3
#
#
#
# Elastic Constant Matrix: (Units=GPa)
#
#
# Indices 1 2 3 4 5 6 
#
# 1 74.7137 40.0829 32.3617 0.0000 0.0000 0.0000
# 2 40.0829 74.7148 32.3613 0.0000 0.0000 0.0000
# 3 32.3617 32.3613 129.1306 0.0000 0.0000 0.0000
# 4 0.0000 0.0000 0.0000 36.6353 0.0000 0.0000
# 5 0.0000 0.0000 0.0000 0.0000 36.6346 0.0000
# 6 0.0000 0.0000 0.0000 0.0000 0.0000 49.0668
#
#
#
# Elastic Compliance Matrix: (Units=1/GPa)
#
#
# Indices 1 2 3 4 5 6 
#
# 1 0.019510 -0.009366 -0.002542 0.000000 0.000000 0.000000
# 2 -0.009366 0.019510 -0.002542 0.000000 0.000000 0.000000
# 3 -0.002542 -0.002542 0.009018 0.000000 0.000000 0.000000
# 4 0.000000 0.000000 0.000000 0.027296 0.000000 0.000000
# 5 0.000000 0.000000 0.000000 0.000000 0.027297 0.000000
# 6 0.000000 0.000000 0.000000 0.000000 0.000000 0.020380
#
#
# Mechanical properties :
#
#
# Convention : Reuss Voigt Hill
#
# Bulk Modulus (GPa) = 52.25225 54.24122 53.24674
# Shear Modulus (GPa) = 31.58738 36.05088 33.81913
#
# Velocity S-wave (km/s) = 3.62958 3.87755 3.75561
# Velocity P-wave (km/s) = 6.27356 6.53216 6.40416
#
# Compressibility (1/GPa) = 0.01913793
#
# Stress axis : x y z
#
# Youngs Moduli (GPa) = 51.25527 51.25629 110.88509
#
# Poissons Ratio (x) = 0.48005 0.28191
# Poissons Ratio (y) = 0.48004 0.28189
# Poissons Ratio (z) = 0.13031 0.13030
#
# Static dielectric constant tensor:
#      x y z
#    x 4.419230 0.000000 0.000000 
#    y 0.000000 4.419120 0.000000 
#    z 0.000000 0.000000 5.312060 
# 
# 
# High freq. dielectric constant tensor:
#      x y z
#    x 1.961340 0.000000 0.000000 
#    y 0.000000 1.961340 0.000000 
#    z 0.000000 0.000000 1.939760 
# 
# From -- ./inp_files/4459.got.cif
#   From: 2010.03.12/outbox.cif.g09.slc.cpg/sg133_3_cif.got.tgz:4459.got - 2010.04.06 18:08:06.
