data_PCOD8316241
_publ_section_title
;
Structure prediction by ZEFSAII (Michael W. Deem and Ramdas Pophale) SiO2 
 PCOD8316241
Probable space group: P 42/M M C
;
_chemical_formula_sum "Si O2"
_cell_formula_units_Z 96
_cell_length_a 23.810230
_cell_length_b 23.810230
_cell_length_c 9.086278
_cell_angle_alpha 90.000000
_cell_angle_beta 90.000000
_cell_angle_gamma 90.000000
_cell_volume 5151.256806
_symmetry_space_group_name_H-M "P 42/M M C"
_symmetry_group_IT_number 131
_symmetry_cell_setting 'tetragonal'
loop_
_space_group_symop_operation_xyz
x,y,z
-x,-y,z
-y,x,1/2+z
y,-x,1/2+z
-x,y,-z
x,-y,-z
y,x,1/2-z
-y,-x,1/2-z
-x,-y,-z
x,y,-z
y,-x,1/2-z
-y,x,1/2-z
x,-y,z
-x,y,z
-y,-x,1/2+z
y,x,1/2+z
loop_
_atom_site_type_symbol
_atom_site_label
_atom_site_fract_x
_atom_site_fract_y
_atom_site_fract_z
Si Si1 0.644364 0.565966 0.833463
Si Si2 0.857363 0.355490 0.327576
Si Si3 0.236646 0.845509 0.326092
Si Si4 0.563891 0.244567 0.829231
Si Si5 0.437110 0.066235 0.334256
Si Si6 0.063948 0.144699 0.827900
O O1 0.592015 0.592015 0.750000
O O2 0.637061 0.500000 0.821102
O O3 0.702151 0.585774 0.760464
O O4 0.644618 0.587315 0.000000
O O5 0.861004 0.341938 0.500000
O O6 0.854121 0.298240 0.237740
O O7 0.804938 0.394402 0.286338
O O8 0.911502 0.390661 0.278512
O O9 0.208571 0.791430 0.250000
O O10 0.239853 0.834872 0.500000
O O11 0.200665 0.901137 0.287801
O O12 0.500000 0.228112 0.784960
O O13 0.567209 0.259730 0.000000
O O14 0.425014 0.088214 0.500000
O O15 0.500000 0.084942 0.285558
O O16 0.432586 0.000000 0.331012
O O17 0.090434 0.090434 0.750000
O O18 0.000000 0.153276 0.773361
O O19 0.066217 0.132691 0.000000
#
# Coordination Sequence:
#
# PCOD8316241 Si02
#       6
#    16  16  16  16  16  16
#     4  10  21  36  55  79 105 135 172 213 259 313
#     4  11  22  35  55  83 110 140 181 225 271 325
#     4  10  21  38  57  77 106 144 183 224 269 317
#     4   9  19  36  55  75 103 137 171 213 265 316
#     4   9  19  36  56  79 110 147 184 223 269 320
#     4   9  19  36  57  81 109 141 176 215 260 309
#
# _framework density 18.636227999999999
#
# number of rings (size 3 to 8) (size 9 to 14) (size 15 to 20)
#    0.000    2.333    0.000    2.500    0.000    6.333 
#    0.000    5.833    0.000    0.000    0.000    0.000 
#    0.000    0.000    0.000    0.000    0.000    0.000 
#
# Total GULP energy -1190571.533153 kJ/mol
# GULP energy per Si atom -12401.786804 kJ/mol
# Density = 1.859381 g / cm^3
# Si number density = 18.636228 Si / 1000 Ang^3
#
#
#
# Elastic Constant Matrix: (Units=GPa)
#
#
# Indices 1 2 3 4 5 6 
#
# 1 104.7677 54.1511 50.1628 0.0000 0.0000 0.0000
# 2 54.1511 104.7708 50.1636 0.0000 0.0000 0.0000
# 3 50.1628 50.1636 81.8325 0.0000 0.0000 0.0000
# 4 0.0000 0.0000 0.0000 33.5681 0.0000 0.0000
# 5 0.0000 0.0000 0.0000 0.0000 33.5679 0.0000
# 6 0.0000 0.0000 0.0000 0.0000 0.0000 -11.5735
#
#
#
# Elastic Compliance Matrix: (Units=1/GPa)
#
#
# Indices 1 2 3 4 5 6 
#
# 1 0.015010 -0.004745 -0.006292 0.000000 0.000000 0.000000
# 2 -0.004745 0.015010 -0.006292 0.000000 0.000000 0.000000
# 3 -0.006292 -0.006292 0.019934 0.000000 0.000000 0.000000
# 4 0.000000 0.000000 0.000000 0.029790 0.000000 0.000000
# 5 0.000000 0.000000 0.000000 0.000000 0.029790 0.000000
# 6 0.000000 0.000000 0.000000 0.000000 0.000000 -0.086404
#
#
# Mechanical properties :
#
#
# Convention : Reuss Voigt Hill
#
# Bulk Modulus (GPa) = 65.38168 66.70288 66.04228
# Shear Modulus (GPa) = 79.50448 20.23875 49.87161
#
# Velocity S-wave (km/s) = 6.53864 3.29901 5.17867
# Velocity P-wave (km/s) = 9.60023 7.09796 8.44232
#
# Compressibility (1/GPa) = 0.01529481
#
# Stress axis : x y z
#
# Youngs Moduli (GPa) = 66.62014 66.62207 50.16449
#
# Poissons Ratio (x) = 0.31615 0.31565
# Poissons Ratio (y) = 0.31614 0.31565
# Poissons Ratio (z) = 0.41920 0.41920
#
# Static dielectric constant tensor:
#      x y z
#    x 3.439880 0.000000 0.000000 
#    y 0.000000 3.439880 0.000000 
#    z 0.000000 0.000000 3.542930 
# 
# 
# High freq. dielectric constant tensor:
#      x y z
#    x 1.724010 0.000000 0.000000 
#    y 0.000000 1.724010 0.000000 
#    z 0.000000 0.000000 1.729260 
# 
# From -- ./inp_files/2209.got.cif
#   From: 2010.03.12/outbox.cif.g09.slc.cpg/sg131_2_cif.got.tgz:2209.got - 2010.04.06 17:36:35.
