data_PCOD8316811
_publ_section_title
;
Structure prediction by ZEFSAII (Michael W. Deem and Ramdas Pophale) SiO2 
 PCOD8316811
Probable space group: P 42/M C M
;
_chemical_formula_sum "Si O2"
_cell_formula_units_Z 96
_cell_length_a 23.008910
_cell_length_b 23.008910
_cell_length_c 9.795466
_cell_angle_alpha 90.000000
_cell_angle_beta 90.000000
_cell_angle_gamma 90.000000
_cell_volume 5185.817061
_symmetry_space_group_name_H-M "P 42/M C M"
_symmetry_group_IT_number 132
_symmetry_cell_setting 'tetragonal'
loop_
_space_group_symop_operation_xyz
x,y,z
-y,x,1/2+z
-x,-y,z
y,-x,1/2+z
x,-y,1/2-z
-x,y,1/2-z
y,x,-z
-y,-x,-z
-x,-y,-z
y,-x,1/2-z
x,y,-z
-y,x,1/2-z
-x,y,1/2+z
x,-y,1/2+z
-y,-x,z
y,x,z
loop_
_atom_site_type_symbol
_atom_site_label
_atom_site_fract_x
_atom_site_fract_y
_atom_site_fract_z
Si Si1 0.049904 0.643413 0.346472
Si Si2 0.776882 0.947230 0.842727
Si Si3 0.447949 0.851225 0.341065
Si Si4 0.572970 0.661033 0.000000
Si Si5 0.265333 0.392776 0.252775
Si Si6 0.262130 0.262130 0.335741
Si Si7 0.820524 0.820524 0.840422
Si Si8 0.435850 0.659782 0.000000
O O1 0.026245 0.638289 0.500000
O O2 0.064526 0.709542 0.308003
O O3 0.108223 0.607655 0.326673
O O4 0.000000 0.617584 0.250000
O O5 0.810386 0.888137 0.807556
O O6 0.801152 0.000000 0.750000
O O7 0.785790 0.965036 0.000000
O O8 0.500000 0.877890 0.250000
O O9 0.466309 0.844022 0.500000
O O10 0.431965 0.790616 0.272578
O O11 0.602346 0.694085 0.123964
O O12 0.595005 0.595005 0.000000
O O13 0.504492 0.652601 0.000000
O O14 0.246605 0.327132 0.287760
O O15 0.302490 0.419179 0.372304
O O16 0.255925 0.255925 0.500000
O O17 0.218605 0.218605 0.258823
O O18 0.806197 0.806197 0.000000
O O19 0.402215 0.597786 0.000000
#
# Coordination Sequence:
#
# PCOD8316811 Si02
#       8
#    16  16  16   8  16   8   8   8
#     4   9  19  37  56  79 111 151 193 236 288 343
#     4   9  18  36  59  86 121 160 199 245 294 345
#     4  11  24  38  57  83 112 146 190 239 289 353
#     4  12  24  39  66  90 107 149 195 233 291 361
#     4  12  23  41  59  86 115 150 189 238 300 359
#     4  12  24  40  60  88 126 154 189 248 311 356
#     4  10  22  36  62  97 127 163 208 254 293 346
#     4  12  24  45  62  80 121 149 181 243 295 357
#
# _framework density 18.512028999999998
#
# number of rings (size 3 to 8) (size 9 to 14) (size 15 to 20)
#    0.000    1.333    3.333    2.500    2.333    3.167 
#    0.000    3.333    0.000    2.250    0.000    1.750 
#    0.000    0.000    0.000    0.000    0.000    0.000 
#
# Total GULP energy -1190337.484948 kJ/mol
# GULP energy per Si atom -12399.348802 kJ/mol
# Density = 1.846989 g / cm^3
# Si number density = 18.512029 Si / 1000 Ang^3
#
#
#
# Elastic Constant Matrix: (Units=GPa)
#
#
# Indices 1 2 3 4 5 6 
#
# 1 106.7489 54.5547 62.1885 0.0000 0.0000 0.0000
# 2 54.5547 106.7486 62.1882 0.0000 0.0000 0.0000
# 3 62.1885 62.1882 135.5437 0.0000 0.0000 0.0000
# 4 0.0000 0.0000 0.0000 30.8863 0.0000 0.0000
# 5 0.0000 0.0000 0.0000 0.0000 30.8863 0.0000
# 6 0.0000 0.0000 0.0000 0.0000 0.0000 14.5030
#
#
#
# Elastic Compliance Matrix: (Units=1/GPa)
#
#
# Indices 1 2 3 4 5 6 
#
# 1 0.014376 -0.004783 -0.004402 0.000000 0.000000 0.000000
# 2 -0.004783 0.014376 -0.004401 0.000000 0.000000 0.000000
# 3 -0.004402 -0.004401 0.011417 0.000000 0.000000 0.000000
# 4 0.000000 0.000000 0.000000 0.032377 0.000000 0.000000
# 5 0.000000 0.000000 0.000000 0.000000 0.032377 0.000000
# 6 0.000000 0.000000 0.000000 0.000000 0.000000 0.068951
#
#
# Mechanical properties :
#
#
# Convention : Reuss Voigt Hill
#
# Bulk Modulus (GPa) = 76.93902 78.54489 77.74196
# Shear Modulus (GPa) = 24.34532 26.59579 25.47056
#
# Velocity S-wave (km/s) = 3.63038 3.79446 3.71333
# Velocity P-wave (km/s) = 7.69576 7.85611 7.77635
#
# Compressibility (1/GPa) = 0.01299731
#
# Stress axis : x y z
#
# Youngs Moduli (GPa) = 69.55881 69.55884 87.59200
#
# Poissons Ratio (x) = 0.33270 0.38554
# Poissons Ratio (y) = 0.33270 0.38553
# Poissons Ratio (z) = 0.30617 0.30616
#
# Static dielectric constant tensor:
#      x y z
#    x 3.461740 0.000000 0.000000 
#    y 0.000000 3.461730 0.000000 
#    z 0.000000 0.000000 -8.446190 
# 
# 
# High freq. dielectric constant tensor:
#      x y z
#    x 1.714700 0.000000 0.000000 
#    y 0.000000 1.714700 0.000000 
#    z 0.000000 0.000000 1.733860 
# 
# From -- ./inp_files/1866.got.cif
#   From: 2010.03.12/outbox.cif.g09.slc.cpg/sg132_1_cif.got.tgz:1866.got - 2010.04.06 17:53:44.
