data_PCOD8316384
_publ_section_title
;
Structure prediction by ZEFSAII (Michael W. Deem and Ramdas Pophale) SiO2 
 PCOD8316384
Probable space group: P 42/M M C
;
_chemical_formula_sum "Si O2"
_cell_formula_units_Z 96
_cell_length_a 19.807507
_cell_length_b 19.807507
_cell_length_c 19.276479
_cell_angle_alpha 90.000000
_cell_angle_beta 90.000000
_cell_angle_gamma 90.000000
_cell_volume 7562.882371
_symmetry_space_group_name_H-M "P 42/M M C"
_symmetry_group_IT_number 131
_symmetry_cell_setting 'tetragonal'
loop_
_space_group_symop_operation_xyz
x,y,z
-x,-y,z
-y,x,1/2+z
y,-x,1/2+z
-x,y,-z
x,-y,-z
y,x,1/2-z
-y,-x,1/2-z
-x,-y,-z
x,y,-z
y,-x,1/2-z
-y,x,1/2-z
x,-y,z
-x,y,z
-y,-x,1/2+z
y,x,1/2+z
loop_
_atom_site_type_symbol
_atom_site_label
_atom_site_fract_x
_atom_site_fract_y
_atom_site_fract_z
Si Si1 0.000000 0.419236 0.423086
Si Si2 0.335234 0.378959 0.081224
Si Si3 0.500000 0.575946 0.583057
Si Si4 0.878597 0.579666 0.333300
Si Si5 0.422080 0.250001 0.079918
Si Si6 0.076702 0.580330 0.184602
Si Si7 0.809691 0.579752 0.079612
O O1 0.935127 0.390039 0.383760
O O2 0.000000 0.500000 0.425107
O O3 0.000000 0.389015 0.500000
O O4 0.384217 0.435584 0.113231
O O5 0.369560 0.308243 0.098594
O O6 0.258281 0.384207 0.109475
O O7 0.330547 0.392659 0.000000
O O8 0.500000 0.500000 0.613060
O O9 0.500000 0.573046 0.500000
O O10 0.886663 0.500000 0.331149
O O11 0.807121 0.599567 0.365794
O O12 0.890361 0.608409 0.255960
O O13 0.500000 0.273138 0.091103
O O14 0.413436 0.225774 0.000000
O O15 0.074054 0.500000 0.185882
O O16 0.125166 0.605375 0.122520
O O17 0.000000 0.608189 0.174849
O O18 0.798622 0.500000 0.088028
O O19 0.823622 0.599463 0.000000
#
# Coordination Sequence:
#
# PCOD8316384 Si02
#       7
#     8  16   8  16  16  16  16
#     4   9  14  20  34  52  69  91 113 135 169 213
#     4   9  15  24  35  50  72  94 120 157 196 229
#     4   9  14  20  34  52  69  91 121 159 200 235
#     4   9  15  24  35  50  72  91 113 141 175 220
#     4   9  16  24  35  52  74  97 121 152 187 221
#     4   9  16  26  39  53  69  88 109 140 184 229
#     4   9  16  26  39  53  69  89 116 151 191 231
#
# _framework density 12.693573000000001
#
# number of rings (size 3 to 8) (size 9 to 14) (size 15 to 20)
#    0.000    3.000    1.667    1.000    0.000    4.333 
#    0.000    2.500    0.000    0.000    0.000    0.000 
#    0.000    0.000    0.000    0.000    0.000    0.000 
#
# Total GULP energy -1189637.375014 kJ/mol
# GULP energy per Si atom -12392.055990 kJ/mol
# Density = 1.266468 g / cm^3
# Si number density = 12.693573 Si / 1000 Ang^3
#
#
#
# Elastic Constant Matrix: (Units=GPa)
#
#
# Indices 1 2 3 4 5 6 
#
# 1 74.7984 34.7194 37.5057 0.0000 0.0000 0.0000
# 2 34.7194 74.7984 37.5057 0.0000 0.0000 0.0000
# 3 37.5057 37.5057 69.6660 0.0000 0.0000 0.0000
# 4 0.0000 0.0000 0.0000 9.8734 0.0000 0.0000
# 5 0.0000 0.0000 0.0000 0.0000 9.8734 0.0000
# 6 0.0000 0.0000 0.0000 0.0000 0.0000 4.4679
#
#
#
# Elastic Compliance Matrix: (Units=1/GPa)
#
#
# Indices 1 2 3 4 5 6 
#
# 1 0.019708 -0.005243 -0.007787 0.000000 0.000000 0.000000
# 2 -0.005243 0.019708 -0.007787 0.000000 0.000000 0.000000
# 3 -0.007787 -0.007787 0.022739 0.000000 0.000000 0.000000
# 4 0.000000 0.000000 0.000000 0.101282 0.000000 0.000000
# 5 0.000000 0.000000 0.000000 0.000000 0.101282 0.000000
# 6 0.000000 0.000000 0.000000 0.000000 0.000000 0.223819
#
#
# Mechanical properties :
#
#
# Convention : Reuss Voigt Hill
#
# Bulk Modulus (GPa) = 48.73478 48.74716 48.74097
# Shear Modulus (GPa) = 9.31078 12.14508 10.72793
#
# Velocity S-wave (km/s) = 2.71127 3.09656 2.91029
# Velocity P-wave (km/s) = 6.94823 7.16040 7.05511
#
# Compressibility (1/GPa) = 0.02051923
#
# Stress axis : x y z
#
# Youngs Moduli (GPa) = 50.74167 50.74167 43.97735
#
# Poissons Ratio (x) = 0.26604 0.34246
# Poissons Ratio (y) = 0.26604 0.34246
# Poissons Ratio (z) = 0.39514 0.39514
#
# Static dielectric constant tensor:
#      x y z
#    x 2.442610 0.000000 0.000000 
#    y 0.000000 2.442610 0.000000 
#    z 0.000000 0.000000 2.568630 
# 
# 
# High freq. dielectric constant tensor:
#      x y z
#    x 1.452130 0.000000 0.000000 
#    y 0.000000 1.452130 0.000000 
#    z 0.000000 0.000000 1.472640 
# 
# From -- ./inp_files/9932.got.cif
#   From: 2010.03.12/outbox.cif.g09.slc.cpg/sg131_5_cif.got.tgz:9932.got - 2010.04.06 17:36:35.
