data_PCOD8316971
_publ_section_title
;
Structure prediction by ZEFSAII (Michael W. Deem and Ramdas Pophale) SiO2 
 PCOD8316971
Probable space group: P 42/N B C
;
_chemical_formula_sum "Si O2"
_cell_formula_units_Z 112
_cell_length_a 15.014920
_cell_length_b 15.014920
_cell_length_c 24.890412
_cell_angle_alpha 90.000000
_cell_angle_beta 90.000000
_cell_angle_gamma 90.000000
_cell_volume 5611.489189
_symmetry_space_group_name_H-M "P 42/N B C"
_symmetry_group_IT_number 133
_space_group.IT_coordinate_system_code '2'
_symmetry_cell_setting 'tetragonal'
loop_
_space_group_symop_operation_xyz
x,y,z
1/2-y,x,1/2+z
1/2-x,1/2-y,z
y,1/2-x,1/2+z
x,1/2-y,-z
1/2-x,y,-z
y,x,1/2-z
1/2-y,1/2-x,1/2-z
-x,-y,-z
1/2+y,-x,1/2-z
1/2+x,1/2+y,-z
-y,1/2+x,1/2-z
-x,1/2+y,z
1/2+x,-y,z
-y,-x,1/2+z
1/2+y,1/2+x,1/2+z
loop_
_atom_site_type_symbol
_atom_site_label
_atom_site_fract_x
_atom_site_fract_y
_atom_site_fract_z
Si Si1 0.174183 0.316195 0.832224
Si Si2 0.531470 0.323561 0.459430
Si Si3 0.376467 0.790309 0.728885
Si Si4 0.866337 0.827296 0.956596
Si Si5 0.650875 0.215710 0.391735
Si Si6 0.423775 0.224454 0.254881
Si Si7 0.343983 0.571926 0.477271
O O1 0.250000 0.250000 0.812747
O O2 0.158046 0.303109 0.895545
O O3 0.215645 0.409330 0.809746
O O4 0.087829 0.288291 0.797579
O O5 0.570300 0.250000 0.500000
O O6 0.424549 0.323407 0.464956
O O7 0.574418 0.291877 0.402793
O O8 0.577775 0.416444 0.477680
O O9 0.351552 0.686118 0.734079
O O10 0.358613 0.818198 0.668247
O O11 0.476397 0.810963 0.745976
O O12 0.970369 0.837812 0.960910
O O13 0.833638 0.750000 0.000000
O O14 0.750000 0.250000 0.404466
O O15 0.630118 0.126722 0.424855
O O16 0.362655 0.137346 0.250000
O O17 0.250000 0.606206 0.500000
#
# Coordination Sequence:
#
# PCOD8316971 Si02
#       7
#    16  16  16  16  16  16  16
#     4   9  20  39  68  84 114 165 198 243 296 363
#     4  10  22  37  61  83 116 162 203 240 285 364
#     4  11  23  38  59  91 128 152 186 261 326 355
#     4  11  24  37  57  92 129 153 190 255 309 356
#     4  11  20  38  64  84 115 163 208 244 295 371
#     4   9  20  44  65  87 115 156 215 246 289 373
#     4  10  21  38  60  84 117 160 204 245 288 355
#
# _framework density 19.959050000000001
#
# number of rings (size 3 to 8) (size 9 to 14) (size 15 to 20)
#    0.000    1.857    2.857    2.143    4.000    0.000 
#    5.143    1.429    0.000    0.000    0.000    0.000 
#    0.000    0.000    0.000    0.000    0.000    0.000 
#
# Total GULP energy -1387545.923417 kJ/mol
# GULP energy per Si atom -12388.802888 kJ/mol
# Density = 1.991362 g / cm^3
# Si number density = 19.959050 Si / 1000 Ang^3
#
#
#
# Elastic Constant Matrix: (Units=GPa)
#
#
# Indices 1 2 3 4 5 6 
#
# 1 106.0854 21.5904 24.0512 0.0000 0.0000 0.0000
# 2 21.5904 106.0853 24.0513 0.0000 0.0000 0.0000
# 3 24.0512 24.0513 112.5262 0.0000 0.0000 0.0000
# 4 0.0000 0.0000 0.0000 25.0826 0.0000 0.0000
# 5 0.0000 0.0000 0.0000 0.0000 25.0826 0.0000
# 6 0.0000 0.0000 0.0000 0.0000 0.0000 19.4485
#
#
#
# Elastic Compliance Matrix: (Units=1/GPa)
#
#
# Indices 1 2 3 4 5 6 
#
# 1 0.010177 -0.001658 -0.001821 0.000000 0.000000 0.000000
# 2 -0.001658 0.010177 -0.001821 0.000000 0.000000 0.000000
# 3 -0.001821 -0.001821 0.009665 0.000000 0.000000 0.000000
# 4 0.000000 0.000000 0.000000 0.039868 0.000000 0.000000
# 5 0.000000 0.000000 0.000000 0.000000 0.039868 0.000000
# 6 0.000000 0.000000 0.000000 0.000000 0.000000 0.051418
#
#
# Mechanical properties :
#
#
# Convention : Reuss Voigt Hill
#
# Bulk Modulus (GPa) = 51.49610 51.56475 51.53043
# Shear Modulus (GPa) = 28.05126 30.92303 29.48715
#
# Velocity S-wave (km/s) = 3.75299 3.94042 3.84784
# Velocity P-wave (km/s) = 6.68108 6.82597 6.75391
#
# Compressibility (1/GPa) = 0.01941894
#
# Stress axis : x y z
#
# Youngs Moduli (GPa) = 98.26411 98.26398 103.46474
#
# Poissons Ratio (x) = 0.16296 0.18838
# Poissons Ratio (y) = 0.16296 0.18838
# Poissons Ratio (z) = 0.17891 0.17891
#
# Static dielectric constant tensor:
#      x y z
#    x 3.581690 0.000000 0.000000 
#    y 0.000000 3.581690 0.000000 
#    z 0.000000 0.000000 3.634970 
# 
# 
# High freq. dielectric constant tensor:
#      x y z
#    x 1.773650 0.000000 0.000000 
#    y 0.000000 1.773650 0.000000 
#    z 0.000000 0.000000 1.780790 
# 
# From -- ./inp_files/7229.got.cif
#   From: 2010.03.12/outbox.cif.g09.slc.cpg/sg133_4_cif.got.tgz:7229.got - 2010.04.06 18:08:06.
