data_PCOD8316333
_publ_section_title
;
Structure prediction by ZEFSAII (Michael W. Deem and Ramdas Pophale) SiO2 
 PCOD8316333
Probable space group: P 42/M M C
;
_chemical_formula_sum "Si O2"
_cell_formula_units_Z 88
_cell_length_a 18.328756
_cell_length_b 18.328756
_cell_length_c 13.901520
_cell_angle_alpha 90.000000
_cell_angle_beta 90.000000
_cell_angle_gamma 90.000000
_cell_volume 4670.122455
_symmetry_space_group_name_H-M "P 42/M M C"
_symmetry_group_IT_number 131
_symmetry_cell_setting 'tetragonal'
loop_
_space_group_symop_operation_xyz
x,y,z
-x,-y,z
-y,x,1/2+z
y,-x,1/2+z
-x,y,-z
x,-y,-z
y,x,1/2-z
-y,-x,1/2-z
-x,-y,-z
x,y,-z
y,-x,1/2-z
-y,x,1/2-z
x,-y,z
-x,y,z
-y,-x,1/2+z
y,x,1/2+z
loop_
_atom_site_type_symbol
_atom_site_label
_atom_site_fract_x
_atom_site_fract_y
_atom_site_fract_z
Si Si1 0.354836 0.086138 0.223963
Si Si2 0.284006 0.580380 0.385878
Si Si3 0.664697 0.192798 0.612601
Si Si4 0.419632 0.336945 0.385716
Si Si5 0.804320 0.718960 0.612080
Si Si6 0.500000 0.085266 0.892330
O O1 0.357915 0.120001 0.330869
O O2 0.282501 0.118882 0.169574
O O3 0.427626 0.108231 0.165051
O O4 0.345439 0.000000 0.233711
O O5 0.285888 0.584052 0.500000
O O6 0.259650 0.500000 0.349357
O O7 0.365698 0.599205 0.347674
O O8 0.230423 0.643063 0.348958
O O9 0.656324 0.176169 0.500000
O O10 0.611808 0.258325 0.645370
O O11 0.749037 0.215180 0.636840
O O12 0.423557 0.339705 0.500000
O O13 0.500000 0.347389 0.340321
O O14 0.821624 0.718244 0.500000
O O15 0.500000 0.000000 0.907659
O O16 0.500000 0.122420 0.000000
#
# Coordination Sequence:
#
# PCOD8316333 Si02
#       6
#    16  16  16  16  16   8
#     4  11  22  34  52  77 103 137 177 216 266 315
#     4   8  14  24  40  65  93 124 165 209 257 308
#     4   9  19  35  53  74 102 137 177 217 258 312
#     4   8  14  25  42  63  89 126 169 211 257 302
#     4   9  18  33  53  75 102 137 173 212 260 315
#     4   9  20  36  49  71 107 137 169 216 266 314
#
# _framework density 18.84319
#
# number of rings (size 3 to 8) (size 9 to 14) (size 15 to 20)
#    0.000    3.000    0.000    3.273    2.545    1.818 
#    0.000    1.818    0.000    1.636    0.000    0.000 
#    0.000   11.636    0.000   16.727    0.000    2.909 
#
# Total GULP energy -1090377.289279 kJ/mol
# GULP energy per Si atom -12390.651015 kJ/mol
# Density = 1.880030 g / cm^3
# Si number density = 18.843190 Si / 1000 Ang^3
#
#
#
# Elastic Constant Matrix: (Units=GPa)
#
#
# Indices 1 2 3 4 5 6 
#
# 1 84.1709 16.8991 18.4646 0.0000 0.0000 0.0000
# 2 16.8991 84.1709 18.4646 0.0000 0.0000 0.0000
# 3 18.4646 18.4646 52.2637 0.0000 0.0000 0.0000
# 4 0.0000 0.0000 0.0000 19.1020 0.0000 0.0000
# 5 0.0000 0.0000 0.0000 0.0000 19.1020 0.0000
# 6 0.0000 0.0000 0.0000 0.0000 0.0000 17.9232
#
#
#
# Elastic Compliance Matrix: (Units=1/GPa)
#
#
# Indices 1 2 3 4 5 6 
#
# 1 0.013113 -0.001752 -0.004014 0.000000 0.000000 0.000000
# 2 -0.001752 0.013113 -0.004014 0.000000 0.000000 0.000000
# 3 -0.004014 -0.004014 0.021970 0.000000 0.000000 0.000000
# 4 0.000000 0.000000 0.000000 0.052350 0.000000 0.000000
# 5 0.000000 0.000000 0.000000 0.000000 0.052350 0.000000
# 6 0.000000 0.000000 0.000000 0.000000 0.000000 0.055794
#
#
# Mechanical properties :
#
#
# Convention : Reuss Voigt Hill
#
# Bulk Modulus (GPa) = 34.92065 36.47357 35.69711
# Shear Modulus (GPa) = 21.02653 22.34392 21.68523
#
# Velocity S-wave (km/s) = 3.34409 3.44725 3.39606
# Velocity P-wave (km/s) = 5.78645 5.93659 5.86200
#
# Compressibility (1/GPa) = 0.02863635
#
# Stress axis : x y z
#
# Youngs Moduli (GPa) = 76.26097 76.26097 45.51707
#
# Poissons Ratio (x) = 0.13362 0.18269
# Poissons Ratio (y) = 0.13362 0.18269
# Poissons Ratio (z) = 0.30609 0.30609
#
# Static dielectric constant tensor:
#      x y z
#    x 3.393220 0.000000 0.000000 
#    y 0.000000 3.393220 0.000000 
#    z 0.000000 0.000000 3.392190 
# 
# 
# High freq. dielectric constant tensor:
#      x y z
#    x 1.704040 0.000000 0.000000 
#    y 0.000000 1.704040 0.000000 
#    z 0.000000 0.000000 1.743250 
# 
# From -- ./inp_files/5867.got.cif
#   From: 2010.03.12/outbox.cif.g09.slc.cpg/sg131_3_cif.got.tgz:5867.got - 2010.04.06 17:36:35.
