data_PCOD8316346
_publ_section_title
;
Structure prediction by ZEFSAII (Michael W. Deem and Ramdas Pophale) SiO2 
 PCOD8316346
Probable space group: P 42/M M C
;
_chemical_formula_sum "Si O2"
_cell_formula_units_Z 40
_cell_length_a 9.001328
_cell_length_b 9.001328
_cell_length_c 28.716578
_cell_angle_alpha 90.000000
_cell_angle_beta 90.000000
_cell_angle_gamma 90.000000
_cell_volume 2326.729310
_symmetry_space_group_name_H-M "P 42/M M C"
_symmetry_group_IT_number 131
_symmetry_cell_setting 'tetragonal'
loop_
_space_group_symop_operation_xyz
x,y,z
-x,-y,z
-y,x,1/2+z
y,-x,1/2+z
-x,y,-z
x,-y,-z
y,x,1/2-z
-y,-x,1/2-z
-x,-y,-z
x,y,-z
y,-x,1/2-z
-y,x,1/2-z
x,-y,z
-x,y,z
-y,-x,1/2+z
y,x,1/2+z
loop_
_atom_site_type_symbol
_atom_site_label
_atom_site_fract_x
_atom_site_fract_y
_atom_site_fract_z
Si Si1 0.171988 0.672299 0.207540
Si Si2 0.500000 0.675582 0.946490
Si Si3 0.336043 0.831955 0.127765
O O1 0.266363 0.733638 0.250000
O O2 0.207669 0.500000 0.201213
O O3 0.215529 0.753453 0.159935
O O4 0.000000 0.702244 0.218069
O O5 0.500000 0.500000 0.940364
O O6 0.647321 0.744074 0.921479
O O7 0.500000 0.724303 0.000000
O O8 0.500000 0.831280 0.152454
O O9 0.283481 0.000000 0.117940
#
# Coordination Sequence:
#
# PCOD8316346 Si02
#       3
#    16   8  16
#     4  11  23  36  52  75 105 141 181 222 268 324
#     4   9  17  31  55  83 109 139 177 223 271 318
#     4   9  19  33  52  78 106 136 175 218 265 319
#
# _framework density 17.191513
#
# number of rings (size 3 to 8) (size 9 to 14) (size 15 to 20)
#    1.200    1.000    0.000    3.600    0.000    9.600 
#    0.000    0.000    0.000    1.200    0.000    8.400 
#    0.000    0.000    0.000    0.000    0.000    0.000 
#
# Total GULP energy -495778.081006 kJ/mol
# GULP energy per Si atom -12394.452025 kJ/mol
# Density = 1.715238 g / cm^3
# Si number density = 17.191513 Si / 1000 Ang^3
#
#
#
# Elastic Constant Matrix: (Units=GPa)
#
#
# Indices 1 2 3 4 5 6 
#
# 1 92.2852 44.2157 45.3886 0.0000 0.0000 0.0000
# 2 44.2157 92.2893 45.3915 0.0000 0.0000 0.0000
# 3 45.3886 45.3915 121.0524 0.0000 0.0000 0.0000
# 4 0.0000 0.0000 0.0000 11.2519 0.0000 0.0000
# 5 0.0000 0.0000 0.0000 0.0000 11.2524 0.0000
# 6 0.0000 0.0000 0.0000 0.0000 0.0000 24.7271
#
#
#
# Elastic Compliance Matrix: (Units=1/GPa)
#
#
# Indices 1 2 3 4 5 6 
#
# 1 0.015281 -0.005521 -0.003659 0.000000 0.000000 0.000000
# 2 -0.005521 0.015281 -0.003660 0.000000 0.000000 0.000000
# 3 -0.003659 -0.003660 0.011005 0.000000 0.000000 0.000000
# 4 0.000000 0.000000 0.000000 0.088874 0.000000 0.000000
# 5 0.000000 0.000000 0.000000 0.000000 0.088870 0.000000
# 6 0.000000 0.000000 0.000000 0.000000 0.000000 0.040441
#
#
# Mechanical properties :
#
#
# Convention : Reuss Voigt Hill
#
# Bulk Modulus (GPa) = 62.94672 63.95762 63.45217
# Shear Modulus (GPa) = 17.19819 20.82170 19.00994
#
# Velocity S-wave (km/s) = 3.16632 3.48395 3.32893
# Velocity P-wave (km/s) = 7.07545 7.31216 7.19478
#
# Compressibility (1/GPa) = 0.01588645
#
# Stress axis : x y z
#
# Youngs Moduli (GPa) = 65.44018 65.44191 90.86614
#
# Poissons Ratio (x) = 0.36133 0.33251
# Poissons Ratio (y) = 0.36132 0.33254
# Poissons Ratio (z) = 0.23946 0.23949
#
# Static dielectric constant tensor:
#      x y z
#    x 3.165210 0.000000 0.000000 
#    y 0.000000 3.165200 0.000000 
#    z 0.000000 0.000000 3.070880 
# 
# 
# High freq. dielectric constant tensor:
#      x y z
#    x 1.661050 0.000000 0.000000 
#    y 0.000000 1.661050 0.000000 
#    z 0.000000 0.000000 1.651950 
# 
# From -- ./inp_files/12617.got.cif
#   From: 2010.03.12/outbox.cif.g09.slc.cpg/sg131_7_cif.got.tgz:12617.got - 2010.04.06 17:36:35.
