data_PCOD8316214
_publ_section_title
;
Structure prediction by ZEFSAII (Michael W. Deem and Ramdas Pophale) SiO2 
 PCOD8316214
Probable space group: P 42/M M C
;
_chemical_formula_sum "Si O2"
_cell_formula_units_Z 88
_cell_length_a 11.332824
_cell_length_b 11.332824
_cell_length_c 34.720315
_cell_angle_alpha 90.000000
_cell_angle_beta 90.000000
_cell_angle_gamma 90.000000
_cell_volume 4459.230738
_symmetry_space_group_name_H-M "P 42/M M C"
_symmetry_group_IT_number 131
_symmetry_cell_setting 'tetragonal'
loop_
_space_group_symop_operation_xyz
x,y,z
-x,-y,z
-y,x,1/2+z
y,-x,1/2+z
-x,y,-z
x,-y,-z
y,x,1/2-z
-y,-x,1/2-z
-x,-y,-z
x,y,-z
y,-x,1/2-z
-y,x,1/2-z
x,-y,z
-x,y,z
-y,-x,1/2+z
y,x,1/2+z
loop_
_atom_site_type_symbol
_atom_site_label
_atom_site_fract_x
_atom_site_fract_y
_atom_site_fract_z
Si Si1 0.133218 0.638687 0.500000
Si Si2 0.000000 0.138008 0.043303
Si Si3 0.249494 0.634020 0.353247
Si Si4 0.139370 0.500000 0.045725
Si Si5 0.250166 0.767052 0.569117
Si Si6 0.868626 0.725127 0.721687
Si Si7 0.629438 0.500000 0.175832
Si Si8 0.132003 0.500000 0.225870
O O1 0.124276 0.500000 0.500000
O O2 0.206784 0.678486 0.536635
O O3 0.000000 0.693399 0.500000
O O4 0.112397 0.178163 0.067142
O O5 0.000000 0.000000 0.039014
O O6 0.000000 0.195541 0.000000
O O7 0.196239 0.500000 0.353526
O O8 0.214358 0.705013 0.391148
O O9 0.208863 0.709560 0.316414
O O10 0.389814 0.628930 0.352416
O O11 0.203672 0.388055 0.064658
O O12 0.000000 0.500000 0.055842
O O13 0.158023 0.500000 0.000000
O O14 0.829560 0.829560 0.750000
O O15 0.858500 0.609380 0.746579
O O16 0.000000 0.752203 0.707567
O O17 0.500000 0.500000 0.198896
O O18 0.750914 0.500000 0.199884
O O19 0.000000 0.500000 0.204997
#
# Coordination Sequence:
#
# PCOD8316214 Si02
#       8
#     8   8  16   8  16  16   8   8
#     4  11  24  42  65  94 126 168 216 263 318 385
#     4  11  22  41  67  93 125 166 218 272 316 376
#     4  11  24  42  64  95 132 166 208 265 327 385
#     4  11  21  40  68  97 128 172 218 270 329 392
#     4  12  23  42  66  96 130 168 213 266 330 389
#     4  11  23  42  67  93 127 168 213 259 318 383
#     4  10  21  41  67  98 126 167 217 272 321 386
#     4  10  20  39  67  98 126 163 210 263 322 382
#
# _framework density 19.734345999999999
#
# number of rings (size 3 to 8) (size 9 to 14) (size 15 to 20)
#    0.000    1.000    5.455    1.636    0.000    1.636 
#    4.909    1.818    0.000    0.000    0.000    0.000 
#    0.000    0.000    0.000    0.000    0.000    0.000 
#
# Total GULP energy -1090817.473749 kJ/mol
# GULP energy per Si atom -12395.653111 kJ/mol
# Density = 1.968943 g / cm^3
# Si number density = 19.734346 Si / 1000 Ang^3
#
#
#
# Elastic Constant Matrix: (Units=GPa)
#
#
# Indices 1 2 3 4 5 6 
#
# 1 115.8337 21.2335 43.3004 0.0000 0.0000 0.0000
# 2 21.2335 115.8337 43.3004 0.0000 0.0000 0.0000
# 3 43.3004 43.3004 119.1831 0.0000 0.0000 0.0000
# 4 0.0000 0.0000 0.0000 19.6147 0.0000 0.0000
# 5 0.0000 0.0000 0.0000 0.0000 19.6147 0.0000
# 6 0.0000 0.0000 0.0000 0.0000 0.0000 34.6765
#
#
#
# Elastic Compliance Matrix: (Units=1/GPa)
#
#
# Indices 1 2 3 4 5 6 
#
# 1 0.010020 -0.000551 -0.003440 0.000000 0.000000 0.000000
# 2 -0.000551 0.010020 -0.003440 0.000000 0.000000 0.000000
# 3 -0.003440 -0.003440 0.010890 0.000000 0.000000 0.000000
# 4 0.000000 0.000000 0.000000 0.050982 0.000000 0.000000
# 5 0.000000 0.000000 0.000000 0.000000 0.050982 0.000000
# 6 0.000000 0.000000 0.000000 0.000000 0.000000 0.028838
#
#
# Mechanical properties :
#
#
# Convention : Reuss Voigt Hill
#
# Bulk Modulus (GPa) = 62.23675 62.94659 62.59167
# Shear Modulus (GPa) = 27.47989 30.98226 29.23108
#
# Velocity S-wave (km/s) = 3.73566 3.96658 3.85285
# Velocity P-wave (km/s) = 7.08608 7.27630 7.18182
#
# Compressibility (1/GPa) = 0.01606768
#
# Stress axis : x y z
#
# Youngs Moduli (GPa) = 99.79984 99.79984 91.82531
#
# Poissons Ratio (x) = 0.05496 0.31591
# Poissons Ratio (y) = 0.05496 0.31591
# Poissons Ratio (z) = 0.34334 0.34334
#
# Static dielectric constant tensor:
#      x y z
#    x 3.883860 0.000000 0.000000 
#    y 0.000000 3.883860 0.000000 
#    z 0.000000 0.000000 3.447600 
# 
# 
# High freq. dielectric constant tensor:
#      x y z
#    x 1.781920 0.000000 0.000000 
#    y 0.000000 1.781920 0.000000 
#    z 0.000000 0.000000 1.754130 
# 
# From -- ./inp_files/13613.got.cif
#   From: 2010.03.12/outbox.cif.g09.slc.cpg/sg131_7_cif.got.tgz:13613.got - 2010.04.06 17:36:35.
