data_PCOD8316646
_publ_section_title
;
Structure prediction by ZEFSAII (Michael W. Deem and Ramdas Pophale) SiO2 
 PCOD8316646
Probable space group: P 42/M C M
;
_chemical_formula_sum "Si O2"
_cell_formula_units_Z 80
_cell_length_a 23.721544
_cell_length_b 23.721544
_cell_length_c 9.300871
_cell_angle_alpha 90.000000
_cell_angle_beta 90.000000
_cell_angle_gamma 90.000000
_cell_volume 5233.708464
_symmetry_space_group_name_H-M "P 42/M C M"
_symmetry_group_IT_number 132
_symmetry_cell_setting 'tetragonal'
loop_
_space_group_symop_operation_xyz
x,y,z
-y,x,1/2+z
-x,-y,z
y,-x,1/2+z
x,-y,1/2-z
-x,y,1/2-z
y,x,-z
-y,-x,-z
-x,-y,-z
y,-x,1/2-z
x,y,-z
-y,x,1/2-z
-x,y,1/2+z
x,-y,1/2+z
-y,-x,z
y,x,z
loop_
_atom_site_type_symbol
_atom_site_label
_atom_site_fract_x
_atom_site_fract_y
_atom_site_fract_z
Si Si1 0.088795 0.001727 0.000000
Si Si2 0.349806 0.555912 0.166433
Si Si3 0.169332 0.000000 0.750000
Si Si4 0.290592 0.196037 0.662472
Si Si5 0.271549 0.633594 0.336639
Si Si6 0.119286 0.211133 0.167147
O O1 0.127058 0.982102 0.871869
O O2 0.068440 0.068440 0.000000
O O3 0.031828 0.968173 0.000000
O O4 0.368523 0.500000 0.250000
O O5 0.401598 0.598403 0.177397
O O6 0.294929 0.580900 0.245964
O O7 0.335017 0.543261 0.000000
O O8 0.206757 0.946564 0.705462
O O9 0.309063 0.179969 0.500000
O O10 0.246554 0.246554 0.657587
O O11 0.344612 0.215492 0.755346
O O12 0.262866 0.142247 0.739034
O O13 0.256545 0.615084 0.500000
O O14 0.317468 0.682533 0.340845
O O15 0.153508 0.153508 0.202779
O O16 0.126376 0.226281 0.000000
#
# Coordination Sequence:
#
# PCOD8316646 Si02
#       6
#     8  16   8  16  16  16
#     4  11  22  34  46  58  74 102 142 184 223 262
#     4  10  20  32  46  65  92 127 167 206 238 268
#     4  12  22  33  46  60  80 106 139 182 228 272
#     4   9  17  28  45  66  84 104 134 174 220 271
#     4   9  16  28  46  66  88 114 145 183 227 272
#     4  10  20  33  45  59  80 106 137 175 222 274
#
# _framework density 15.285527999999999
#
# number of rings (size 3 to 8) (size 9 to 14) (size 15 to 20)
#    0.000    2.100    1.000    3.600    1.400    7.000 
#    0.000    1.000    0.000    0.000    0.000    0.000 
#    0.000    0.000    0.000    0.900    0.000   13.400 
#
# Total GULP energy -991636.961916 kJ/mol
# GULP energy per Si atom -12395.462024 kJ/mol
# Density = 1.525074 g / cm^3
# Si number density = 15.285528 Si / 1000 Ang^3
#
#
#
# Elastic Constant Matrix: (Units=GPa)
#
#
# Indices 1 2 3 4 5 6 
#
# 1 45.2910 38.4656 40.4366 0.0000 0.0000 0.0000
# 2 38.4656 45.2897 40.4359 0.0000 0.0000 0.0000
# 3 40.4366 40.4359 146.4549 0.0000 0.0000 0.0000
# 4 0.0000 0.0000 0.0000 27.4785 0.0000 0.0000
# 5 0.0000 0.0000 0.0000 0.0000 27.4799 0.0000
# 6 0.0000 0.0000 0.0000 0.0000 0.0000 13.4893
#
#
#
# Elastic Compliance Matrix: (Units=1/GPa)
#
#
# Indices 1 2 3 4 5 6 
#
# 1 0.081402 -0.065123 -0.004495 0.000000 0.000000 0.000000
# 2 -0.065123 0.081404 -0.004495 0.000000 0.000000 0.000000
# 3 -0.004495 -0.004495 0.009310 0.000000 0.000000 0.000000
# 4 0.000000 0.000000 0.000000 0.036392 0.000000 0.000000
# 5 0.000000 0.000000 0.000000 0.000000 0.036390 0.000000
# 6 0.000000 0.000000 0.000000 0.000000 0.000000 0.074133
#
#
# Mechanical properties :
#
#
# Convention : Reuss Voigt Hill
#
# Bulk Modulus (GPa) = 41.85866 52.85690 47.35778
# Shear Modulus (GPa) = 10.52144 21.53603 16.02873
#
# Velocity S-wave (km/s) = 2.62644 3.75763 3.24176
# Velocity P-wave (km/s) = 6.05323 7.31308 6.71277
#
# Compressibility (1/GPa) = 0.02388992
#
# Stress axis : x y z
#
# Youngs Moduli (GPa) = 12.28475 12.28441 107.41074
#
# Poissons Ratio (x) = 0.80000 0.48279
# Poissons Ratio (y) = 0.80002 0.48278
# Poissons Ratio (z) = 0.05522 0.05522
#
# Static dielectric constant tensor:
#      x y z
#    x 2.708110 0.000000 0.000000 
#    y 0.000000 2.708110 0.000000 
#    z 0.000000 0.000000 3.283990 
# 
# 
# High freq. dielectric constant tensor:
#      x y z
#    x 1.550830 0.000000 0.000000 
#    y 0.000000 1.550830 0.000000 
#    z 0.000000 0.000000 1.613560 
# 
# From -- ./inp_files/1662.got.cif
#   From: 2010.03.12/outbox.cif.g09.slc.cpg/sg132_1_cif.got.tgz:1662.got - 2010.04.06 17:53:44.
