data_PCOD8316164
_publ_section_title
;
Structure prediction by ZEFSAII (Michael W. Deem and Ramdas Pophale) SiO2 
 PCOD8316164
Probable space group: P 42/M M C
;
_chemical_formula_sum "Si O2"
_cell_formula_units_Z 48
_cell_length_a 7.875408
_cell_length_b 7.875408
_cell_length_c 37.209191
_cell_angle_alpha 90.000000
_cell_angle_beta 90.000000
_cell_angle_gamma 90.000000
_cell_volume 2307.790348
_symmetry_space_group_name_H-M "P 42/M M C"
_symmetry_group_IT_number 131
_symmetry_cell_setting 'tetragonal'
loop_
_space_group_symop_operation_xyz
x,y,z
-x,-y,z
-y,x,1/2+z
y,-x,1/2+z
-x,y,-z
x,-y,-z
y,x,1/2-z
-y,-x,1/2-z
-x,-y,-z
x,y,-z
y,-x,1/2-z
-y,x,1/2-z
x,-y,z
-x,y,z
-y,-x,1/2+z
y,x,1/2+z
loop_
_atom_site_type_symbol
_atom_site_label
_atom_site_fract_x
_atom_site_fract_y
_atom_site_fract_z
Si Si1 0.500000 0.311368 0.088537
Si Si2 0.806968 0.500000 0.666196
Si Si3 0.187097 0.799332 0.209479
Si Si4 0.199696 0.191359 0.540890
O O1 0.500000 0.500000 0.103991
O O2 0.500000 0.191483 0.123093
O O3 0.669555 0.288220 0.065396
O O4 0.721296 0.671664 0.682285
O O5 0.000000 0.500000 0.679688
O O6 0.244628 0.755373 0.250000
O O7 0.000000 0.720190 0.201052
O O8 0.172281 0.000000 0.204800
O O9 0.260883 0.218194 0.500000
O O10 0.000000 0.218940 0.543507
O O11 0.247950 0.000000 0.553567
#
# Coordination Sequence:
#
# PCOD8316164 Si02
#       4
#     8   8  16  16
#     4  12  25  37  50  79 126 160 186 224 286 352
#     4  10  20  35  55  78 104 145 194 230 276 338
#     4   8  15  31  55  80 103 129 173 233 286 334
#     4   9  19  38  64  88 107 140 196 249 288 333
#
# _framework density 20.799115
#
# number of rings (size 3 to 8) (size 9 to 14) (size 15 to 20)
#    0.000    2.667    0.000    4.000    0.000    4.667 
#    3.000    5.000    0.000    0.000    0.000    0.000 
#    0.000    0.000    0.000    0.000    0.000    0.000 
#
# Total GULP energy -594913.034955 kJ/mol
# GULP energy per Si atom -12394.021562 kJ/mol
# Density = 2.075178 g / cm^3
# Si number density = 20.799115 Si / 1000 Ang^3
#
#
#
# Elastic Constant Matrix: (Units=GPa)
#
#
# Indices 1 2 3 4 5 6 
#
# 1 94.3033 29.5751 47.2329 0.0000 0.0000 0.0000
# 2 29.5751 94.3035 47.2329 0.0000 0.0000 0.0000
# 3 47.2329 47.2329 114.1813 0.0000 0.0000 0.0000
# 4 0.0000 0.0000 0.0000 14.4725 0.0000 0.0000
# 5 0.0000 0.0000 0.0000 0.0000 14.4724 0.0000
# 6 0.0000 0.0000 0.0000 0.0000 0.0000 5.9546
#
#
#
# Elastic Compliance Matrix: (Units=1/GPa)
#
#
# Indices 1 2 3 4 5 6 
#
# 1 0.013621 -0.001828 -0.004878 0.000000 0.000000 0.000000
# 2 -0.001828 0.013621 -0.004878 0.000000 0.000000 0.000000
# 3 -0.004878 -0.004878 0.012794 0.000000 0.000000 0.000000
# 4 0.000000 0.000000 0.000000 0.069097 0.000000 0.000000
# 5 0.000000 0.000000 0.000000 0.000000 0.069097 0.000000
# 6 0.000000 0.000000 0.000000 0.000000 0.000000 0.167937
#
#
# Mechanical properties :
#
#
# Convention : Reuss Voigt Hill
#
# Bulk Modulus (GPa) = 59.29058 61.20777 60.24918
# Shear Modulus (GPa) = 13.33483 18.89636 16.11560
#
# Velocity S-wave (km/s) = 2.53479 3.01743 2.78658
# Velocity P-wave (km/s) = 6.09386 6.45227 6.27562
#
# Compressibility (1/GPa) = 0.01686608
#
# Stress axis : x y z
#
# Youngs Moduli (GPa) = 73.41735 73.41757 78.16296
#
# Poissons Ratio (x) = 0.13424 0.38128
# Poissons Ratio (y) = 0.13424 0.38128
# Poissons Ratio (z) = 0.35814 0.35814
#
# Static dielectric constant tensor:
#      x y z
#    x 3.895690 0.000000 0.000000 
#    y 0.000000 3.895680 0.000000 
#    z 0.000000 0.000000 3.571470 
# 
# 
# High freq. dielectric constant tensor:
#      x y z
#    x 1.804700 0.000000 0.000000 
#    y 0.000000 1.804700 0.000000 
#    z 0.000000 0.000000 1.799740 
# 
# From -- ./inp_files/12938.got.cif
#   From: 2010.03.12/outbox.cif.g09.slc.cpg/sg131_7_cif.got.tgz:12938.got - 2010.04.06 17:36:35.
