data_PCOD8316450
_publ_section_title
;
Structure prediction by ZEFSAII (Michael W. Deem and Ramdas Pophale) SiO2 
 PCOD8316450
Probable space group: P 42/M C M
;
_chemical_formula_sum "Si O2"
_cell_formula_units_Z 64
_cell_length_a 11.235294
_cell_length_b 11.235294
_cell_length_c 28.916683
_cell_angle_alpha 90.000000
_cell_angle_beta 90.000000
_cell_angle_gamma 90.000000
_cell_volume 3650.205849
_symmetry_space_group_name_H-M "P 42/M C M"
_symmetry_group_IT_number 132
_symmetry_cell_setting 'tetragonal'
loop_
_space_group_symop_operation_xyz
x,y,z
-y,x,1/2+z
-x,-y,z
y,-x,1/2+z
x,-y,1/2-z
-x,y,1/2-z
y,x,-z
-y,-x,-z
-x,-y,-z
y,-x,1/2-z
x,y,-z
-y,x,1/2-z
-x,y,1/2+z
x,-y,1/2+z
-y,-x,z
y,x,z
loop_
_atom_site_type_symbol
_atom_site_label
_atom_site_fract_x
_atom_site_fract_y
_atom_site_fract_z
Si Si1 0.424905 0.774450 0.052226
Si Si2 0.861771 0.861771 0.053419
Si Si3 0.263400 0.070671 0.393268
Si Si4 0.006402 0.805029 0.300293
Si Si5 0.664744 0.335257 0.446732
O O1 0.319649 0.680352 0.051146
O O2 0.386755 0.891835 0.081601
O O3 0.541483 0.713175 0.075450
O O4 0.453909 0.818032 0.000000
O O5 0.763027 0.763027 0.060758
O O6 0.982781 0.815936 0.075994
O O7 0.887871 0.887871 0.000000
O O8 0.190677 0.190677 0.385755
O O9 0.288164 0.014610 0.342295
O O10 0.908658 0.908658 0.301206
O O11 0.000000 0.740159 0.250000
O O12 0.135853 0.864148 0.307895
O O13 0.636767 0.363234 0.500000
#
# Coordination Sequence:
#
# PCOD8316450 Si02
#       5
#    16   8  16  16   8
#     4   9  17  30  48  66  87 118 158 202 238 269
#     4  11  21  29  41  63  97 133 155 181 229 287
#     4  10  18  28  43  67  97 121 155 188 231 284
#     4   8  13  23  40  62  91 119 147 180 222 276
#     4   9  19  33  45  61  85 121 167 199 225 269
#
# _framework density 17.533258
#
# number of rings (size 3 to 8) (size 9 to 14) (size 15 to 20)
#    0.000    2.750    1.250    2.250    0.000    4.500 
#    0.000    3.750    0.000    0.000    0.000    3.500 
#    0.000    0.000    4.250    0.000    0.250    0.000 
#
# Total GULP energy -793043.836126 kJ/mol
# GULP energy per Si atom -12391.309939 kJ/mol
# Density = 1.749335 g / cm^3
# Si number density = 17.533258 Si / 1000 Ang^3
#
#
#
# Elastic Constant Matrix: (Units=GPa)
#
#
# Indices 1 2 3 4 5 6 
#
# 1 56.3466 31.4553 39.4082 0.0000 0.0000 0.0000
# 2 31.4553 56.3470 39.4079 0.0000 0.0000 0.0000
# 3 39.4082 39.4079 132.9820 0.0000 0.0000 0.0000
# 4 0.0000 0.0000 0.0000 11.6281 0.0000 0.0000
# 5 0.0000 0.0000 0.0000 0.0000 11.6281 0.0000
# 6 0.0000 0.0000 0.0000 0.0000 0.0000 30.7569
#
#
#
# Elastic Compliance Matrix: (Units=1/GPa)
#
#
# Indices 1 2 3 4 5 6 
#
# 1 0.027846 -0.012329 -0.004598 0.000000 0.000000 0.000000
# 2 -0.012329 0.027845 -0.004598 0.000000 0.000000 0.000000
# 3 -0.004598 -0.004598 0.010245 0.000000 0.000000 0.000000
# 4 0.000000 0.000000 0.000000 0.085999 0.000000 0.000000
# 5 0.000000 0.000000 0.000000 0.000000 0.085999 0.000000
# 6 0.000000 0.000000 0.000000 0.000000 0.000000 0.032513
#
#
# Mechanical properties :
#
#
# Convention : Reuss Voigt Hill
#
# Bulk Modulus (GPa) = 43.69523 51.80206 47.74864
# Shear Modulus (GPa) = 15.57019 19.82956 17.69987
#
# Velocity S-wave (km/s) = 2.98323 3.36664 3.18071
# Velocity P-wave (km/s) = 6.06973 6.68741 6.38604
#
# Compressibility (1/GPa) = 0.02288579
#
# Stress axis : x y z
#
# Youngs Moduli (GPa) = 35.91202 35.91248 97.60720
#
# Poissons Ratio (x) = 0.44275 0.44884
# Poissons Ratio (y) = 0.44275 0.44882
# Poissons Ratio (z) = 0.16514 0.16513
#
# Static dielectric constant tensor:
#      x y z
#    x 3.143450 0.000000 0.000000 
#    y 0.000000 3.143450 0.000000 
#    z 0.000000 0.000000 3.623510 
# 
# 
# High freq. dielectric constant tensor:
#      x y z
#    x 1.654870 0.000000 0.000000 
#    y 0.000000 1.654870 0.000000 
#    z 0.000000 0.000000 1.663260 
# 
# From -- ./inp_files/9669.got.cif
#   From: 2010.03.12/outbox.cif.g09.slc.cpg/sg132_5_cif.got.tgz:9669.got - 2010.04.06 17:53:44.
