data_PCOD8316683
_publ_section_title
;
Structure prediction by ZEFSAII (Michael W. Deem and Ramdas Pophale) SiO2 
 PCOD8316683
Probable space group: P 42/M C M
;
_chemical_formula_sum "Si O2"
_cell_formula_units_Z 64
_cell_length_a 13.826488
_cell_length_b 13.826488
_cell_length_c 17.278314
_cell_angle_alpha 90.000000
_cell_angle_beta 90.000000
_cell_angle_gamma 90.000000
_cell_volume 3303.125877
_symmetry_space_group_name_H-M "P 42/M C M"
_symmetry_group_IT_number 132
_symmetry_cell_setting 'tetragonal'
loop_
_space_group_symop_operation_xyz
x,y,z
-y,x,1/2+z
-x,-y,z
y,-x,1/2+z
x,-y,1/2-z
-x,y,1/2-z
y,x,-z
-y,-x,-z
-x,-y,-z
y,-x,1/2-z
x,y,-z
-y,x,1/2-z
-x,y,1/2+z
x,-y,1/2+z
-y,-x,z
y,x,z
loop_
_atom_site_type_symbol
_atom_site_label
_atom_site_fract_x
_atom_site_fract_y
_atom_site_fract_z
Si Si1 0.821159 0.971478 0.338677
Si Si2 0.333282 0.819452 0.809995
Si Si3 0.890574 0.496885 0.913477
Si Si4 0.300513 0.148923 0.864765
O O1 0.923488 0.923488 0.368587
O O2 0.739615 0.891382 0.352737
O O3 0.837300 0.000000 0.250000
O O4 0.781481 0.066710 0.382554
O O5 0.289675 0.710326 0.812650
O O6 0.435432 0.823551 0.854756
O O7 0.342393 0.857581 0.722386
O O8 0.855867 0.607538 0.920159
O O9 0.000000 0.500000 0.881642
O O10 0.885296 0.452062 0.000000
O O11 0.251779 0.251779 0.880044
#
# Coordination Sequence:
#
# PCOD8316683 Si02
#       4
#    16  16  16  16
#     4   9  16  27  46  75 108 140 174 213 258 308
#     4   9  18  33  55  81 104 133 177 225 268 307
#     4  11  22  35  53  76 105 146 183 216 262 312
#     4  10  20  33  53  80 109 140 175 221 271 314
#
# _framework density 19.375585999999998
#
# number of rings (size 3 to 8) (size 9 to 14) (size 15 to 20)
#    0.000    2.250    2.500    3.000    0.000    3.750 
#    0.000    0.000    0.000    1.500    0.000    7.000 
#    0.000    0.000    0.000    0.000    0.000    0.000 
#
# Total GULP energy -792962.593624 kJ/mol
# GULP energy per Si atom -12390.040525 kJ/mol
# Density = 1.933149 g / cm^3
# Si number density = 19.375586 Si / 1000 Ang^3
#
#
#
# Elastic Constant Matrix: (Units=GPa)
#
#
# Indices 1 2 3 4 5 6 
#
# 1 86.7821 49.9399 19.9166 0.0000 0.0000 0.0000
# 2 49.9399 86.7821 19.9166 0.0000 0.0000 0.0000
# 3 19.9166 19.9166 41.2817 0.0000 0.0000 0.0000
# 4 0.0000 0.0000 0.0000 15.4017 0.0000 0.0000
# 5 0.0000 0.0000 0.0000 0.0000 15.4017 0.0000
# 6 0.0000 0.0000 0.0000 0.0000 0.0000 23.5156
#
#
#
# Elastic Compliance Matrix: (Units=1/GPa)
#
#
# Indices 1 2 3 4 5 6 
#
# 1 0.017827 -0.009316 -0.004106 0.000000 0.000000 0.000000
# 2 -0.009316 0.017827 -0.004106 0.000000 0.000000 0.000000
# 3 -0.004106 -0.004106 0.028186 0.000000 0.000000 0.000000
# 4 0.000000 0.000000 0.000000 0.064928 0.000000 0.000000
# 5 0.000000 0.000000 0.000000 0.000000 0.064928 0.000000
# 6 0.000000 0.000000 0.000000 0.000000 0.000000 0.042525
#
#
# Mechanical properties :
#
#
# Convention : Reuss Voigt Hill
#
# Bulk Modulus (GPa) = 34.74296 43.82135 39.28216
# Shear Modulus (GPa) = 17.80184 19.20197 18.50190
#
# Velocity S-wave (km/s) = 3.03442 3.15149 3.09351
# Velocity P-wave (km/s) = 5.49974 5.99236 5.75133
#
# Compressibility (1/GPa) = 0.02878281
#
# Stress axis : x y z
#
# Youngs Moduli (GPa) = 56.09608 56.09608 35.47908
#
# Poissons Ratio (x) = 0.52260 0.14567
# Poissons Ratio (y) = 0.52260 0.14567
# Poissons Ratio (z) = 0.23032 0.23032
#
# Static dielectric constant tensor:
#      x y z
#    x 3.514490 0.000000 0.000000 
#    y 0.000000 3.514490 0.000000 
#    z 0.000000 0.000000 3.083290 
# 
# 
# High freq. dielectric constant tensor:
#      x y z
#    x 1.742240 0.000000 0.000000 
#    y 0.000000 1.742240 0.000000 
#    z 0.000000 0.000000 1.716420 
# 
# From -- ./inp_files/4419.got.cif
#   From: 2010.03.12/outbox.cif.g09.slc.cpg/sg132_3_cif.got.tgz:4419.got - 2010.04.06 17:53:44.
