data_PCOD8316516
_publ_section_title
;
Structure prediction by ZEFSAII (Michael W. Deem and Ramdas Pophale) SiO2 
 PCOD8316516
Probable space group: P 42/M C M
;
_chemical_formula_sum "Si O2"
_cell_formula_units_Z 96
_cell_length_a 26.818301
_cell_length_b 26.818301
_cell_length_c 9.211545
_cell_angle_alpha 90.000000
_cell_angle_beta 90.000000
_cell_angle_gamma 90.000000
_cell_volume 6625.139080
_symmetry_space_group_name_H-M "P 42/M C M"
_symmetry_group_IT_number 132
_symmetry_cell_setting 'tetragonal'
loop_
_space_group_symop_operation_xyz
x,y,z
-y,x,1/2+z
-x,-y,z
y,-x,1/2+z
x,-y,1/2-z
-x,y,1/2-z
y,x,-z
-y,-x,-z
-x,-y,-z
y,-x,1/2-z
x,y,-z
-y,x,1/2-z
-x,y,1/2+z
x,-y,1/2+z
-y,-x,z
y,x,z
loop_
_atom_site_type_symbol
_atom_site_label
_atom_site_fract_x
_atom_site_fract_y
_atom_site_fract_z
Si Si1 0.233313 0.684340 0.840661
Si Si2 0.120214 0.955275 0.337038
Si Si3 0.702478 0.381469 0.662252
Si Si4 0.449897 0.633261 0.167707
Si Si5 0.763556 0.950472 0.169237
Si Si6 0.846213 0.764986 0.672158
O O1 0.281945 0.718056 0.855837
O O2 0.245777 0.639410 0.730155
O O3 0.187624 0.717743 0.784076
O O4 0.220749 0.662090 0.000000
O O5 0.105633 0.966231 0.500000
O O6 0.097105 0.902896 0.283351
O O7 0.178121 0.953695 0.313175
O O8 0.095160 0.000000 0.250000
O O9 0.713820 0.400942 0.500000
O O10 0.661630 0.338371 0.656933
O O11 0.682882 0.426933 0.760160
O O12 0.500000 0.618062 0.250000
O O13 0.412893 0.587108 0.185331
O O14 0.461115 0.644829 0.000000
O O15 0.752064 0.897812 0.246142
O O16 0.740388 0.000000 0.250000
O O17 0.746489 0.950036 0.000000
O O18 0.856091 0.767247 0.500000
O O19 0.816223 0.816223 0.718703
#
# Coordination Sequence:
#
# PCOD8316516 Si02
#       6
#    16  16  16  16  16  16
#     4   8  14  25  40  58  80 103 125 152 191 238
#     4   9  18  30  40  50  63  79 102 134 173 215
#     4   9  16  26  41  60  81 104 132 167 205 246
#     4  10  20  32  45  60  80 109 145 185 226 262
#     4  10  19  30  42  54  70  93 121 151 184 225
#     4   9  17  28  42  60  80 100 123 154 192 233
#
# _framework density 14.490263000000001
#
# number of rings (size 3 to 8) (size 9 to 14) (size 15 to 20)
#    0.000    2.833    0.000    3.000    0.000    6.000 
#    0.000    3.333    0.000    0.000    0.000    0.000 
#    0.000    0.000    0.000    0.000    0.000    0.833 
#
# Total GULP energy -1189301.321996 kJ/mol
# GULP energy per Si atom -12388.555437 kJ/mol
# Density = 1.445728 g / cm^3
# Si number density = 14.490263 Si / 1000 Ang^3
#
#
#
# Elastic Constant Matrix: (Units=GPa)
#
#
# Indices 1 2 3 4 5 6 
#
# 1 47.3001 31.1056 43.6623 0.0000 0.0000 0.0000
# 2 31.1056 47.3001 43.6623 0.0000 0.0000 0.0000
# 3 43.6623 43.6623 93.2812 0.0000 0.0000 0.0000
# 4 0.0000 0.0000 0.0000 20.1393 0.0000 0.0000
# 5 0.0000 0.0000 0.0000 0.0000 20.1393 0.0000
# 6 0.0000 0.0000 0.0000 0.0000 0.0000 12.6326
#
#
#
# Elastic Compliance Matrix: (Units=1/GPa)
#
#
# Indices 1 2 3 4 5 6 
#
# 1 0.044197 -0.017552 -0.012471 0.000000 0.000000 0.000000
# 2 -0.017552 0.044197 -0.012471 0.000000 0.000000 0.000000
# 3 -0.012471 -0.012471 0.022395 0.000000 0.000000 0.000000
# 4 0.000000 0.000000 0.000000 0.049654 0.000000 0.000000
# 5 0.000000 0.000000 0.000000 0.000000 0.049654 0.000000
# 6 0.000000 0.000000 0.000000 0.000000 0.000000 0.079160
#
#
# Mechanical properties :
#
#
# Convention : Reuss Voigt Hill
#
# Bulk Modulus (GPa) = 38.76246 47.19354 42.97800
# Shear Modulus (GPa) = 13.06003 15.21231 14.13617
#
# Velocity S-wave (km/s) = 3.00542 3.24362 3.12679
# Velocity P-wave (km/s) = 6.23315 6.83140 6.53912
#
# Compressibility (1/GPa) = 0.02579815
#
# Stress axis : x y z
#
# Youngs Moduli (GPa) = 22.62612 22.62612 44.65207
#
# Poissons Ratio (x) = 0.39714 0.55688
# Poissons Ratio (y) = 0.39714 0.55688
# Poissons Ratio (z) = 0.28218 0.28218
#
# Static dielectric constant tensor:
#      x y z
#    x 2.686170 0.000000 0.000000 
#    y 0.000000 2.686170 0.000000 
#    z 0.000000 0.000000 3.090060 
# 
# 
# High freq. dielectric constant tensor:
#      x y z
#    x 1.520740 0.000000 0.000000 
#    y 0.000000 1.520740 0.000000 
#    z 0.000000 0.000000 1.567990 
# 
# From -- ./inp_files/1952.got.cif
#   From: 2010.03.12/outbox.cif.g09.slc.cpg/sg132_1_cif.got.tgz:1952.got - 2010.04.06 17:53:44.
