data_PCOD8316205
_publ_section_title
;
Structure prediction by ZEFSAII (Michael W. Deem and Ramdas Pophale) SiO2 
 PCOD8316205
Probable space group: P 42/M M C
;
_chemical_formula_sum "Si O2"
_cell_formula_units_Z 34
_cell_length_a 7.471028
_cell_length_b 7.471028
_cell_length_c 31.383799
_cell_angle_alpha 90.000000
_cell_angle_beta 90.000000
_cell_angle_gamma 90.000000
_cell_volume 1751.726265
_symmetry_space_group_name_H-M "P 42/M M C"
_symmetry_group_IT_number 131
_symmetry_cell_setting 'tetragonal'
loop_
_space_group_symop_operation_xyz
x,y,z
-x,-y,z
-y,x,1/2+z
y,-x,1/2+z
-x,y,-z
x,-y,-z
y,x,1/2-z
-y,-x,1/2-z
-x,-y,-z
x,y,-z
y,-x,1/2-z
-y,x,1/2-z
x,-y,z
-x,y,z
-y,-x,1/2+z
y,x,1/2+z
loop_
_atom_site_type_symbol
_atom_site_label
_atom_site_fract_x
_atom_site_fract_y
_atom_site_fract_z
Si Si1 0.500000 0.500000 0.750000
Si Si2 0.000000 0.211210 0.547099
Si Si3 0.206429 0.704280 0.887869
Si Si4 0.206289 0.500000 0.320347
O O1 0.500000 0.321128 0.777758
O O2 0.175442 0.274700 0.572774
O O3 0.000000 0.299500 0.500000
O O4 0.000000 0.000000 0.542310
O O5 0.232886 0.500000 0.902032
O O6 0.321764 0.747752 0.846492
O O7 0.000000 0.746516 0.876508
O O8 0.000000 0.500000 0.306959
#
# Coordination Sequence:
#
# PCOD8316205 Si02
#       4
#     2   8  16   8
#     4  12  28  44  60  96 118 144 196 268 312 380
#     4   9  18  33  57  95 132 167 211 254 295 353
#     4  10  20  37  63  89 122 166 205 247 300 365
#     4  12  24  42  66  89 119 154 198 249 317 370
#
# _framework density 19.409424000000001
#
# number of rings (size 3 to 8) (size 9 to 14) (size 15 to 20)
#    0.000    1.647    4.706    0.000    0.000    2.824 
#    0.000    7.059    0.000    2.824    0.000    0.000 
#    0.000    0.000    0.000    0.000    0.000    0.000 
#
# Total GULP energy -421655.514948 kJ/mol
# GULP energy per Si atom -12401.632793 kJ/mol
# Density = 1.936525 g / cm^3
# Si number density = 19.409424 Si / 1000 Ang^3
#
#
#
# Elastic Constant Matrix: (Units=GPa)
#
#
# Indices 1 2 3 4 5 6 
#
# 1 140.1746 46.2921 74.7307 0.0000 0.0000 0.0000
# 2 46.2921 140.1746 74.7307 0.0000 0.0000 0.0000
# 3 74.7307 74.7307 171.9357 0.0000 0.0000 0.0000
# 4 0.0000 0.0000 0.0000 -269.4559 0.0000 0.0000
# 5 0.0000 0.0000 0.0000 0.0000 -269.4559 0.0000
# 6 0.0000 0.0000 0.0000 0.0000 0.0000 23.2035
#
#
#
# Elastic Compliance Matrix: (Units=1/GPa)
#
#
# Indices 1 2 3 4 5 6 
#
# 1 0.009441 -0.001211 -0.003577 0.000000 0.000000 0.000000
# 2 -0.001211 0.009441 -0.003577 0.000000 0.000000 0.000000
# 3 -0.003577 -0.003577 0.008926 0.000000 0.000000 0.000000
# 4 0.000000 0.000000 0.000000 -0.003711 0.000000 0.000000
# 5 0.000000 0.000000 0.000000 0.000000 -0.003711 0.000000
# 6 0.000000 0.000000 0.000000 0.000000 0.000000 0.043097
#
#
# Mechanical properties :
#
#
# Convention : Reuss Voigt Hill
#
# Bulk Modulus (GPa) = 90.27462 93.75467 92.01464
# Shear Modulus (GPa) = 59.59139 -86.03955 -13.22408
#
# Velocity S-wave (km/s) = 5.54698 -6.66521 -2.61305
# Velocity P-wave (km/s) = 9.36146 3.29010 6.19726
#
# Compressibility (1/GPa) = 0.01107731
#
# Stress axis : x y z
#
# Youngs Moduli (GPa) = 105.92227 105.92227 112.03568
#
# Poissons Ratio (x) = 0.12824 0.40077
# Poissons Ratio (y) = 0.12824 0.40077
# Poissons Ratio (z) = 0.37890 0.37890
#
# Static dielectric constant tensor:
#      x y z
#    x 3.785450 0.000000 0.000000 
#    y 0.000000 3.785450 0.000000 
#    z 0.000000 0.000000 3.530170 
# 
# 
# High freq. dielectric constant tensor:
#      x y z
#    x 1.767230 0.000000 0.000000 
#    y 0.000000 1.767230 0.000000 
#    z 0.000000 0.000000 1.739450 
# 
# From -- ./inp_files/8649.got.cif
#   From: 2010.03.12/outbox.cif.g09.slc.cpg/sg131_5_cif.got.tgz:8649.got - 2010.04.06 17:36:35.
