data_PCOD8316915
_publ_section_title
;
Structure prediction by ZEFSAII (Michael W. Deem and Ramdas Pophale) SiO2 
 PCOD8316915
Probable space group: P 42/N B C
;
_chemical_formula_sum "Si O2"
_cell_formula_units_Z 48
_cell_length_a 16.516597
_cell_length_b 16.516597
_cell_length_c 8.991208
_cell_angle_alpha 90.000000
_cell_angle_beta 90.000000
_cell_angle_gamma 90.000000
_cell_volume 2452.783348
_symmetry_space_group_name_H-M "P 42/N B C"
_symmetry_group_IT_number 133
_space_group.IT_coordinate_system_code '2'
_symmetry_cell_setting 'tetragonal'
loop_
_space_group_symop_operation_xyz
x,y,z
1/2-y,x,1/2+z
1/2-x,1/2-y,z
y,1/2-x,1/2+z
x,1/2-y,-z
1/2-x,y,-z
y,x,1/2-z
1/2-y,1/2-x,1/2-z
-x,-y,-z
1/2+y,-x,1/2-z
1/2+x,1/2+y,-z
-y,1/2+x,1/2-z
-x,1/2+y,z
1/2+x,-y,z
-y,-x,1/2+z
1/2+y,1/2+x,1/2+z
loop_
_atom_site_type_symbol
_atom_site_label
_atom_site_fract_x
_atom_site_fract_y
_atom_site_fract_z
Si Si1 0.155937 0.344064 0.250000
Si Si2 0.030691 0.674535 0.693155
Si Si3 0.250000 0.250000 0.000000
Si Si4 0.750000 0.250000 0.500000
Si Si5 0.835739 0.101049 0.873376
O O1 0.170835 0.438838 0.241831
O O2 0.192288 0.304773 0.101564
O O3 0.046734 0.653148 0.520661
O O4 0.059176 0.766449 0.727241
O O5 0.079878 0.607178 0.786902
O O6 0.692955 0.192423 0.597291
#
# Coordination Sequence:
#
# PCOD8316915 Si02
#       5
#     8  16   4   4  16
#     4  11  24  44  64  86 110 151 202 250 294 353
#     4  10  21  36  57  86 121 154 194 235 289 345
#     4  10  24  46  68  78 108 158 200 238 296 362
#     4   8  16  30  52  78 116 158 184 202 272 358
#     4  10  19  33  55  87 122 157 189 234 284 347
#
# _framework density 19.569604999999999
#
# number of rings (size 3 to 8) (size 9 to 14) (size 15 to 20)
#    0.000    2.333    0.000    6.000    0.000    6.667 
#    0.000    3.333    0.000    0.000    0.000    0.000 
#    0.000    0.000    0.000    0.000    0.000    0.000 
#
# Total GULP energy -594993.841382 kJ/mol
# GULP energy per Si atom -12395.705029 kJ/mol
# Density = 1.952506 g / cm^3
# Si number density = 19.569605 Si / 1000 Ang^3
#
#
#
# Elastic Constant Matrix: (Units=GPa)
#
#
# Indices 1 2 3 4 5 6 
#
# 1 160.7389 61.0179 58.8177 0.0000 0.0000 0.0000
# 2 61.0179 160.7416 58.8178 0.0000 0.0000 0.0000
# 3 58.8177 58.8178 97.8031 0.0000 0.0000 0.0000
# 4 0.0000 0.0000 0.0000 23.6809 0.0000 0.0000
# 5 0.0000 0.0000 0.0000 0.0000 23.6826 0.0000
# 6 0.0000 0.0000 0.0000 0.0000 0.0000 11.0974
#
#
#
# Elastic Compliance Matrix: (Units=1/GPa)
#
#
# Indices 1 2 3 4 5 6 
#
# 1 0.008325 -0.001703 -0.003982 0.000000 0.000000 0.000000
# 2 -0.001703 0.008325 -0.003982 0.000000 0.000000 0.000000
# 3 -0.003982 -0.003982 0.015015 0.000000 0.000000 0.000000
# 4 0.000000 0.000000 0.000000 0.042228 0.000000 0.000000
# 5 0.000000 0.000000 0.000000 0.000000 0.042225 0.000000
# 6 0.000000 0.000000 0.000000 0.000000 0.000000 0.090111
#
#
# Mechanical properties :
#
#
# Convention : Reuss Voigt Hill
#
# Bulk Modulus (GPa) = 81.10992 86.28781 83.69887
# Shear Modulus (GPa) = 21.77005 27.73421 24.75213
#
# Velocity S-wave (km/s) = 3.33895 3.76867 3.56030
# Velocity P-wave (km/s) = 7.51010 7.94516 7.73069
#
# Compressibility (1/GPa) = 0.01232895
#
# Stress axis : x y z
#
# Youngs Moduli (GPa) = 120.12058 120.12298 66.60218
#
# Poissons Ratio (x) = 0.20456 0.26524
# Poissons Ratio (y) = 0.20456 0.26523
# Poissons Ratio (z) = 0.47837 0.47837
#
# Static dielectric constant tensor:
#      x y z
#    x 3.579750 0.000000 0.000000 
#    y 0.000000 3.579660 0.000000 
#    z 0.000000 0.000000 3.628400 
# 
# 
# High freq. dielectric constant tensor:
#      x y z
#    x 1.755970 0.000000 0.000000 
#    y 0.000000 1.755970 0.000000 
#    z 0.000000 0.000000 1.762680 
# 
# From -- ./inp_files/1147.got.cif
#   From: 2010.03.12/outbox.cif.g09.slc.cpg/sg133_1_cif.got.tgz:1147.got - 2010.04.06 18:08:06.
