data_PCOD8316788
_publ_section_title
;
Structure prediction by ZEFSAII (Michael W. Deem and Ramdas Pophale) SiO2 
 PCOD8316788
Probable space group: P 42/M C M
;
_chemical_formula_sum "Si O2"
_cell_formula_units_Z 96
_cell_length_a 23.924136
_cell_length_b 23.924136
_cell_length_c 8.940092
_cell_angle_alpha 90.000000
_cell_angle_beta 90.000000
_cell_angle_gamma 90.000000
_cell_volume 5116.989351
_symmetry_space_group_name_H-M "P 42/M C M"
_symmetry_group_IT_number 132
_symmetry_cell_setting 'tetragonal'
loop_
_space_group_symop_operation_xyz
x,y,z
-y,x,1/2+z
-x,-y,z
y,-x,1/2+z
x,-y,1/2-z
-x,y,1/2-z
y,x,-z
-y,-x,-z
-x,-y,-z
y,-x,1/2-z
x,y,-z
-y,x,1/2-z
-x,y,1/2+z
x,-y,1/2+z
-y,-x,z
y,x,z
loop_
_atom_site_type_symbol
_atom_site_label
_atom_site_fract_x
_atom_site_fract_y
_atom_site_fract_z
Si Si1 0.443789 0.351408 0.169114
Si Si2 0.153431 0.649559 0.674772
Si Si3 0.638059 0.728157 0.323777
Si Si4 0.057352 0.856487 0.170575
Si Si5 0.058992 0.440976 0.178172
Si Si6 0.147468 0.237526 0.670758
O O1 0.500000 0.369098 0.250000
O O2 0.405021 0.405021 0.176544
O O3 0.416436 0.299403 0.253073
O O4 0.455945 0.332896 0.000000
O O5 0.166827 0.646243 0.500000
O O6 0.208979 0.638438 0.767729
O O7 0.105459 0.605274 0.719003
O O8 0.134347 0.711789 0.717926
O O9 0.631348 0.727357 0.500000
O O10 0.694238 0.694238 0.275394
O O11 0.090769 0.909232 0.241176
O O12 0.094217 0.801575 0.185816
O O13 0.000000 0.845138 0.250000
O O14 0.044449 0.869977 0.000000
O O15 0.077826 0.500000 0.250000
O O16 0.000000 0.421922 0.250000
O O17 0.052019 0.447607 0.000000
O O18 0.154275 0.258983 0.500000
O O19 0.203831 0.203831 0.716387
#
# Coordination Sequence:
#
# PCOD8316788 Si02
#       6
#    16  16  16  16  16  16
#     4  10  21  37  57  81 111 147 186 230 277 323
#     4  11  23  36  55  85 113 139 176 219 265 321
#     4  10  21  37  57  81 111 147 184 224 272 322
#     4   9  19  35  53  75 105 140 179 224 270 317
#     4  10  22  40  60  81 107 139 174 215 264 314
#     4   9  19  36  55  76 106 143 180 219 265 315
#
# _framework density 18.761032
#
# number of rings (size 3 to 8) (size 9 to 14) (size 15 to 20)
#    0.000    2.167    0.000    4.000    0.000    9.667 
#    0.000    8.333    0.000    0.000    0.000    0.000 
#    0.000    0.000    0.000    0.000    0.000    0.000 
#
# Total GULP energy -1190367.995189 kJ/mol
# GULP energy per Si atom -12399.666617 kJ/mol
# Density = 1.871833 g / cm^3
# Si number density = 18.761032 Si / 1000 Ang^3
#
#
#
# Elastic Constant Matrix: (Units=GPa)
#
#
# Indices 1 2 3 4 5 6 
#
# 1 126.4528 26.8138 51.1621 0.0000 0.0000 0.0000
# 2 26.8138 126.4528 51.1621 0.0000 0.0000 0.0000
# 3 51.1621 51.1621 94.6286 0.0000 0.0000 0.0000
# 4 0.0000 0.0000 0.0000 30.5395 0.0000 0.0000
# 5 0.0000 0.0000 0.0000 0.0000 30.5395 0.0000
# 6 0.0000 0.0000 0.0000 0.0000 0.0000 22.0117
#
#
#
# Elastic Compliance Matrix: (Units=1/GPa)
#
#
# Indices 1 2 3 4 5 6 
#
# 1 0.010123 0.000087 -0.005520 0.000000 0.000000 0.000000
# 2 0.000087 0.010123 -0.005520 0.000000 0.000000 0.000000
# 3 -0.005520 -0.005520 0.016537 0.000000 0.000000 0.000000
# 4 0.000000 0.000000 0.000000 0.032744 0.000000 0.000000
# 5 0.000000 0.000000 0.000000 0.000000 0.032744 0.000000
# 6 0.000000 0.000000 0.000000 0.000000 0.000000 0.045430
#
#
# Mechanical properties :
#
#
# Convention : Reuss Voigt Hill
#
# Bulk Modulus (GPa) = 67.22216 67.31224 67.26720
# Shear Modulus (GPa) = 28.64221 31.17791 29.91006
#
# Velocity S-wave (km/s) = 3.91152 4.08099 3.99716
# Velocity P-wave (km/s) = 7.50390 7.62645 7.56542
#
# Compressibility (1/GPa) = 0.01487605
#
# Stress axis : x y z
#
# Youngs Moduli (GPa) = 98.78412 98.78412 60.47164
#
# Poissons Ratio (x) = -0.00858 0.33381
# Poissons Ratio (y) = -0.00858 0.33381
# Poissons Ratio (z) = 0.54530 0.54530
#
# Static dielectric constant tensor:
#      x y z
#    x 3.367130 0.000000 0.000000 
#    y 0.000000 3.367130 0.000000 
#    z 0.000000 0.000000 3.016590 
# 
# 
# High freq. dielectric constant tensor:
#      x y z
#    x 1.731800 0.000000 0.000000 
#    y 0.000000 1.731800 0.000000 
#    z 0.000000 0.000000 1.735210 
# 
# From -- ./inp_files/1769.got.cif
#   From: 2010.03.12/outbox.cif.g09.slc.cpg/sg132_1_cif.got.tgz:1769.got - 2010.04.06 17:53:44.
