data_PCOD8316669
_publ_section_title
;
Structure prediction by ZEFSAII (Michael W. Deem and Ramdas Pophale) SiO2 
 PCOD8316669
Probable space group: P 42/M C M
;
_chemical_formula_sum "Si O2"
_cell_formula_units_Z 96
_cell_length_a 23.303206
_cell_length_b 23.303206
_cell_length_c 9.960217
_cell_angle_alpha 90.000000
_cell_angle_beta 90.000000
_cell_angle_gamma 90.000000
_cell_volume 5408.790362
_symmetry_space_group_name_H-M "P 42/M C M"
_symmetry_group_IT_number 132
_symmetry_cell_setting 'tetragonal'
loop_
_space_group_symop_operation_xyz
x,y,z
-y,x,1/2+z
-x,-y,z
y,-x,1/2+z
x,-y,1/2-z
-x,y,1/2-z
y,x,-z
-y,-x,-z
-x,-y,-z
y,-x,1/2-z
x,y,-z
-y,x,1/2-z
-x,y,1/2+z
x,-y,1/2+z
-y,-x,z
y,x,z
loop_
_atom_site_type_symbol
_atom_site_label
_atom_site_fract_x
_atom_site_fract_y
_atom_site_fract_z
Si Si1 0.247724 0.951756 0.000000
Si Si2 0.549189 0.230714 0.151881
Si Si3 0.618564 0.037725 0.000000
Si Si4 0.917926 0.754338 0.000000
Si Si5 0.382176 0.090093 0.000000
Si Si6 0.321737 0.769892 0.158746
Si Si7 0.860990 0.233049 0.225743
Si Si8 0.439367 0.894795 0.770699
O O1 0.229388 0.916142 0.130265
O O2 0.221789 0.016394 0.000000
O O3 0.314210 0.963280 0.000000
O O4 0.500000 0.257569 0.250000
O O5 0.613503 0.243746 0.207364
O O6 0.543793 0.162343 0.148288
O O7 0.540334 0.254572 0.000000
O O8 0.601050 0.067304 0.862358
O O9 0.592582 0.974217 0.000000
O O10 0.884394 0.779311 0.873053
O O11 0.911964 0.685978 0.000000
O O12 0.406601 0.121095 0.867386
O O13 0.284085 0.715916 0.205740
O O14 0.295180 0.828856 0.219034
O O15 0.321135 0.778689 0.000000
O O16 0.815607 0.184394 0.182068
O O17 0.500000 0.927625 0.750000
#
# Coordination Sequence:
#
# PCOD8316669 Si02
#       8
#     8  16   8   8   8  16  16  16
#     4  11  21  36  57  76 100 136 172 200 241 315
#     4  10  20  33  50  70  95 129 167 209 254 302
#     4  11  21  35  48  65  90 123 167 209 249 286
#     4  11  23  36  51  78 110 132 158 204 261 311
#     4  11  23  33  48  65  88 129 165 203 255 294
#     4   9  17  32  55  78 100 134 178 217 255 306
#     4  11  21  36  56  80 106 134 168 210 257 305
#     4  11  22  33  45  63  89 124 170 214 251 288
#
# _framework density 17.748885999999999
#
# number of rings (size 3 to 8) (size 9 to 14) (size 15 to 20)
#    0.000    1.500    1.667    5.000    3.500    4.667 
#    1.500    0.000    0.000    0.000    0.000    0.000 
#    0.000   23.667    0.000    4.167    0.000    0.000 
#
# Total GULP energy -1190134.170217 kJ/mol
# GULP energy per Si atom -12397.230940 kJ/mol
# Density = 1.770849 g / cm^3
# Si number density = 17.748886 Si / 1000 Ang^3
#
#
#
# Elastic Constant Matrix: (Units=GPa)
#
#
# Indices 1 2 3 4 5 6 
#
# 1 72.7135 17.9946 18.5508 0.0000 0.0000 0.0000
# 2 17.9946 72.7135 18.5508 0.0000 0.0000 0.0000
# 3 18.5508 18.5508 89.9758 0.0000 0.0000 0.0000
# 4 0.0000 0.0000 0.0000 26.1449 0.0000 0.0000
# 5 0.0000 0.0000 0.0000 0.0000 26.1449 0.0000
# 6 0.0000 0.0000 0.0000 0.0000 0.0000 14.0352
#
#
#
# Elastic Compliance Matrix: (Units=1/GPa)
#
#
# Indices 1 2 3 4 5 6 
#
# 1 0.015157 -0.003118 -0.002482 0.000000 0.000000 0.000000
# 2 -0.003118 0.015157 -0.002482 0.000000 0.000000 0.000000
# 3 -0.002482 -0.002482 0.012138 0.000000 0.000000 0.000000
# 4 0.000000 0.000000 0.000000 0.038248 0.000000 0.000000
# 5 0.000000 0.000000 0.000000 0.000000 0.038248 0.000000
# 6 0.000000 0.000000 0.000000 0.000000 0.000000 0.071249
#
#
# Mechanical properties :
#
#
# Convention : Reuss Voigt Hill
#
# Bulk Modulus (GPa) = 38.04032 38.39947 38.21990
# Shear Modulus (GPa) = 23.24222 25.28546 24.26384
#
# Velocity S-wave (km/s) = 3.62263 3.77851 3.70139
# Velocity P-wave (km/s) = 6.24316 6.38107 6.31249
#
# Compressibility (1/GPa) = 0.02628789
#
# Stress axis : x y z
#
# Youngs Moduli (GPa) = 65.97410 65.97410 82.38813
#
# Poissons Ratio (x) = 0.20569 0.20451
# Poissons Ratio (y) = 0.20569 0.20451
# Poissons Ratio (z) = 0.16377 0.16377
#
# Static dielectric constant tensor:
#      x y z
#    x 3.274590 0.000000 0.000000 
#    y 0.000000 3.274590 0.000000 
#    z 0.000000 0.000000 3.094150 
# 
# 
# High freq. dielectric constant tensor:
#      x y z
#    x 1.663350 0.000000 0.000000 
#    y 0.000000 1.663350 0.000000 
#    z 0.000000 0.000000 1.693930 
# 
# From -- ./inp_files/1872.got.cif
#   From: 2010.03.12/outbox.cif.g09.slc.cpg/sg132_1_cif.got.tgz:1872.got - 2010.04.06 17:53:44.
