data_PCOD8316029
_publ_section_title
;
Structure prediction by ZEFSAII (Michael W. Deem and Ramdas Pophale) SiO2 
 PCOD8316029
Probable space group: P 42/M M C
;
_chemical_formula_sum "Si O2"
_cell_formula_units_Z 84
_cell_length_a 14.245135
_cell_length_b 14.245135
_cell_length_c 23.813641
_cell_angle_alpha 90.000000
_cell_angle_beta 90.000000
_cell_angle_gamma 90.000000
_cell_volume 4832.356218
_symmetry_space_group_name_H-M "P 42/M M C"
_symmetry_group_IT_number 131
_symmetry_cell_setting 'tetragonal'
loop_
_space_group_symop_operation_xyz
x,y,z
-x,-y,z
-y,x,1/2+z
y,-x,1/2+z
-x,y,-z
x,-y,-z
y,x,1/2-z
-y,-x,1/2-z
-x,-y,-z
x,y,-z
y,-x,1/2-z
-y,x,1/2-z
x,-y,z
-x,y,z
-y,-x,1/2+z
y,x,1/2+z
loop_
_atom_site_type_symbol
_atom_site_label
_atom_site_fract_x
_atom_site_fract_y
_atom_site_fract_z
Si Si1 0.314426 0.500000 0.000000
Si Si2 0.106328 0.895931 0.879411
Si Si3 0.261920 0.707553 0.000000
Si Si4 0.388840 0.000000 0.065708
Si Si5 0.611344 0.673751 0.809044
Si Si6 0.812480 0.700820 0.611565
Si Si7 0.101254 0.843331 0.000000
Si Si8 0.500000 0.391830 0.620968
O O1 0.252971 0.594689 0.000000
O O2 0.379705 0.500000 0.054406
O O3 0.191855 0.825395 0.863780
O O4 0.118024 0.908761 0.946382
O O5 0.000000 0.857984 0.864209
O O6 0.118974 0.000000 0.852668
O O7 0.311384 0.745063 0.056998
O O8 0.158658 0.747784 0.000000
O O9 0.342557 0.088488 0.095404
O O10 0.500000 0.000000 0.075213
O O11 0.363498 0.000000 0.000000
O O12 0.663418 0.663418 0.750000
O O13 0.500000 0.669450 0.799797
O O14 0.640384 0.771673 0.837251
O O15 0.651073 0.592417 0.850142
O O16 0.000000 0.798043 0.000000
O O17 0.500000 0.500000 0.635437
#
# Coordination Sequence:
#
# PCOD8316029 Si02
#       8
#     4  16   8   8  16  16   8   8
#     4  12  19  36  47  82 116 146 170 226 299 356
#     4   9  16  27  49  77 105 138 177 223 275 330
#     4  10  20  29  50  76 112 145 181 220 282 351
#     4  11  22  34  51  81 125 165 188 222 286 377
#     4  11  22  38  59  82 105 144 198 246 282 330
#     4  11  20  35  54  83 115 152 187 233 288 347
#     4   8  15  26  42  70 103 137 179 223 264 317
#     4  10  21  34  56  81 107 138 182 238 287 336
#
# _framework density 17.382823999999999
#
# number of rings (size 3 to 8) (size 9 to 14) (size 15 to 20)
#    0.000    1.810    4.762    1.000    0.000    1.143 
#    0.000    0.238    2.095    0.000    0.000    2.000 
#    0.000    0.000    0.000    0.000    0.000    0.000 
#
# Total GULP energy -1040705.460904 kJ/mol
# GULP energy per Si atom -12389.350725 kJ/mol
# Density = 1.734326 g / cm^3
# Si number density = 17.382824 Si / 1000 Ang^3
#
#
#
# Elastic Constant Matrix: (Units=GPa)
#
#
# Indices 1 2 3 4 5 6 
#
# 1 97.0544 33.2752 35.5676 0.0000 0.0000 0.0000
# 2 33.2752 97.0544 35.5676 0.0000 0.0000 0.0000
# 3 35.5676 35.5676 94.6461 0.0000 0.0000 0.0000
# 4 0.0000 0.0000 0.0000 18.8038 0.0000 0.0000
# 5 0.0000 0.0000 0.0000 0.0000 18.8038 0.0000
# 6 0.0000 0.0000 0.0000 0.0000 0.0000 17.7029
#
#
#
# Elastic Compliance Matrix: (Units=1/GPa)
#
#
# Indices 1 2 3 4 5 6 
#
# 1 0.012666 -0.003013 -0.003627 0.000000 0.000000 0.000000
# 2 -0.003013 0.012666 -0.003627 0.000000 0.000000 0.000000
# 3 -0.003627 -0.003627 0.013292 0.000000 0.000000 0.000000
# 4 0.000000 0.000000 0.000000 0.053181 0.000000 0.000000
# 5 0.000000 0.000000 0.000000 0.000000 0.053181 0.000000
# 6 0.000000 0.000000 0.000000 0.000000 0.000000 0.056488
#
#
# Mechanical properties :
#
#
# Convention : Reuss Voigt Hill
#
# Bulk Modulus (GPa) = 55.28617 55.28619 55.28618
# Shear Modulus (GPa) = 21.92612 23.35175 22.63894
#
# Velocity S-wave (km/s) = 3.55543 3.66919 3.61276
# Velocity P-wave (km/s) = 6.98060 7.05866 7.01974
#
# Compressibility (1/GPa) = 0.01808770
#
# Stress axis : x y z
#
# Youngs Moduli (GPa) = 78.95199 78.95199 75.23295
#
# Poissons Ratio (x) = 0.23790 0.27291
# Poissons Ratio (y) = 0.23790 0.27291
# Poissons Ratio (z) = 0.28640 0.28640
#
# Static dielectric constant tensor:
#      x y z
#    x 3.296240 0.000000 0.000000 
#    y 0.000000 3.296240 0.000000 
#    z 0.000000 0.000000 3.008980 
# 
# 
# High freq. dielectric constant tensor:
#      x y z
#    x 1.666820 0.000000 0.000000 
#    y 0.000000 1.666820 0.000000 
#    z 0.000000 0.000000 1.646190 
# 
# From -- ./inp_files/9685.got.cif
#   From: 2010.03.12/outbox.cif.g09.slc.cpg/sg131_5_cif.got.tgz:9685.got - 2010.04.06 17:36:35.
