data_PCOD8316129
_publ_section_title
;
Structure prediction by ZEFSAII (Michael W. Deem and Ramdas Pophale) SiO2 
 PCOD8316129
Probable space group: P 42/M M C
;
_chemical_formula_sum "Si O2"
_cell_formula_units_Z 96
_cell_length_a 14.022731
_cell_length_b 14.022731
_cell_length_c 28.245880
_cell_angle_alpha 90.000000
_cell_angle_beta 90.000000
_cell_angle_gamma 90.000000
_cell_volume 5554.184673
_symmetry_space_group_name_H-M "P 42/M M C"
_symmetry_group_IT_number 131
_symmetry_cell_setting 'tetragonal'
loop_
_space_group_symop_operation_xyz
x,y,z
-x,-y,z
-y,x,1/2+z
y,-x,1/2+z
-x,y,-z
x,-y,-z
y,x,1/2-z
-y,-x,1/2-z
-x,-y,-z
x,y,-z
y,-x,1/2-z
-y,x,1/2-z
x,-y,z
-x,y,z
-y,-x,1/2+z
y,x,1/2+z
loop_
_atom_site_type_symbol
_atom_site_label
_atom_site_fract_x
_atom_site_fract_y
_atom_site_fract_z
Si Si1 0.891049 0.000000 0.947902
Si Si2 0.727047 0.613237 0.787632
Si Si3 0.891747 0.813140 0.106472
Si Si4 0.611967 0.393297 0.379382
Si Si5 0.500000 0.106088 0.443948
Si Si6 0.237117 0.329716 0.055927
Si Si7 0.888508 0.766085 0.214614
O O1 0.866234 0.084693 0.913131
O O2 0.000000 0.000000 0.961669
O O3 0.837741 0.000000 0.000000
O O4 0.650330 0.650330 0.750000
O O5 0.743908 0.500000 0.781338
O O6 0.678437 0.639327 0.837366
O O7 0.828775 0.667023 0.782523
O O8 0.807757 0.760478 0.079901
O O9 0.879335 0.810352 0.162620
O O10 0.000000 0.780154 0.092496
O O11 0.655955 0.500000 0.372724
O O12 0.500000 0.403694 0.384009
O O13 0.652852 0.345464 0.427124
O O14 0.500000 0.097446 0.500000
O O15 0.411246 0.165801 0.425626
O O16 0.500000 0.000000 0.421127
O O17 0.238813 0.319826 0.000000
O O18 0.844329 0.844329 0.250000
O O19 0.000000 0.746172 0.227212
#
# Coordination Sequence:
#
# PCOD8316129 Si02
#       7
#     8  16  16  16   8  16  16
#     4   9  18  32  52  78 107 141 185 229 266 310
#     4  10  20  37  59  83 110 141 184 233 280 332
#     4  10  20  35  54  78 109 143 182 225 274 327
#     4  10  20  34  52  76 108 145 185 228 273 322
#     4   9  18  30  45  69 103 143 180 216 269 335
#     4  11  20  32  49  74 107 143 185 227 271 325
#     4  10  22  37  56  84 115 148 181 222 279 342
#
# _framework density 17.284265000000001
#
# number of rings (size 3 to 8) (size 9 to 14) (size 15 to 20)
#    0.000    2.000    2.500    1.500    1.167    3.333 
#    0.000    0.833    0.000    0.000    0.000    0.583 
#    0.000    2.000    0.000    0.000    0.000    0.000 
#
# Total GULP energy -1189580.740636 kJ/mol
# GULP energy per Si atom -12391.466048 kJ/mol
# Density = 1.724493 g / cm^3
# Si number density = 17.284265 Si / 1000 Ang^3
#
#
#
# Elastic Constant Matrix: (Units=GPa)
#
#
# Indices 1 2 3 4 5 6 
#
# 1 115.0215 47.6411 42.4167 0.0000 0.0000 0.0000
# 2 47.6411 115.0215 42.4167 0.0000 0.0000 0.0000
# 3 42.4167 42.4167 95.7254 0.0000 0.0000 0.0000
# 4 0.0000 0.0000 0.0000 23.7441 0.0000 0.0000
# 5 0.0000 0.0000 0.0000 0.0000 23.7441 0.0000
# 6 0.0000 0.0000 0.0000 0.0000 0.0000 21.6775
#
#
#
# Elastic Compliance Matrix: (Units=1/GPa)
#
#
# Indices 1 2 3 4 5 6 
#
# 1 0.011418 -0.003423 -0.003543 0.000000 0.000000 0.000000
# 2 -0.003423 0.011418 -0.003543 0.000000 0.000000 0.000000
# 3 -0.003543 -0.003543 0.013586 0.000000 0.000000 0.000000
# 4 0.000000 0.000000 0.000000 0.042116 0.000000 0.000000
# 5 0.000000 0.000000 0.000000 0.000000 0.042116 0.000000
# 6 0.000000 0.000000 0.000000 0.000000 0.000000 0.046131
#
#
# Mechanical properties :
#
#
# Convention : Reuss Voigt Hill
#
# Bulk Modulus (GPa) = 64.91087 65.63526 65.27306
# Shear Modulus (GPa) = 25.91519 26.71942 26.31730
#
# Velocity S-wave (km/s) = 3.87635 3.93603 3.90630
# Velocity P-wave (km/s) = 7.59415 7.66244 7.62837
#
# Compressibility (1/GPa) = 0.01540574
#
# Stress axis : x y z
#
# Youngs Moduli (GPa) = 87.57916 87.57916 73.60377
#
# Poissons Ratio (x) = 0.29977 0.26077
# Poissons Ratio (y) = 0.29977 0.26077
# Poissons Ratio (z) = 0.31028 0.31028
#
# Static dielectric constant tensor:
#      x y z
#    x 3.200280 0.000000 0.000000 
#    y 0.000000 3.200280 0.000000 
#    z 0.000000 0.000000 3.376290 
# 
# 
# High freq. dielectric constant tensor:
#      x y z
#    x 1.659560 0.000000 0.000000 
#    y 0.000000 1.659560 0.000000 
#    z 0.000000 0.000000 1.674590 
# 
# From -- ./inp_files/11146.got.cif
#   From: 2010.03.12/outbox.cif.g09.slc.cpg/sg131_6_cif.got.tgz:11146.got - 2010.04.06 17:36:35.
