data_PCOD8316896
_publ_section_title
;
Structure prediction by ZEFSAII (Michael W. Deem and Ramdas Pophale) SiO2 
 PCOD8316896
Probable space group: P 42/N B C
;
_chemical_formula_sum "Si O2"
_cell_formula_units_Z 80
_cell_length_a 13.200377
_cell_length_b 13.200377
_cell_length_c 26.086229
_cell_angle_alpha 90.000000
_cell_angle_beta 90.000000
_cell_angle_gamma 90.000000
_cell_volume 4545.524176
_symmetry_space_group_name_H-M "P 42/N B C"
_symmetry_group_IT_number 133
_space_group.IT_coordinate_system_code '2'
_symmetry_cell_setting 'tetragonal'
loop_
_space_group_symop_operation_xyz
x,y,z
1/2-y,x,1/2+z
1/2-x,1/2-y,z
y,1/2-x,1/2+z
x,1/2-y,-z
1/2-x,y,-z
y,x,1/2-z
1/2-y,1/2-x,1/2-z
-x,-y,-z
1/2+y,-x,1/2-z
1/2+x,1/2+y,-z
-y,1/2+x,1/2-z
-x,1/2+y,z
1/2+x,-y,z
-y,-x,1/2+z
1/2+y,1/2+x,1/2+z
loop_
_atom_site_type_symbol
_atom_site_label
_atom_site_fract_x
_atom_site_fract_y
_atom_site_fract_z
Si Si1 0.118885 0.947945 0.869663
Si Si2 0.632390 0.234415 0.943335
Si Si3 0.319905 0.492676 0.188298
Si Si4 0.319139 0.473742 0.306065
Si Si5 0.371087 0.976212 0.363324
O O1 0.118143 0.878472 0.920554
O O2 0.226665 0.991242 0.850569
O O3 0.073210 0.880831 0.823640
O O4 0.050340 0.043253 0.884873
O O5 0.750000 0.250000 0.945246
O O6 0.583775 0.322908 0.910080
O O7 0.585166 0.250000 0.000000
O O8 0.288549 0.493355 0.247448
O O9 0.373942 0.384010 0.180233
O O10 0.398662 0.582880 0.178022
O O11 0.214436 0.457474 0.335627
#
# Coordination Sequence:
#
# PCOD8316896 Si02
#       5
#    16  16  16  16  16
#     4  10  20  34  54  78 106 142 173 218 268 309
#     4  10  20  37  59  80 101 132 178 225 271 318
#     4  10  18  33  50  76 111 143 179 217 257 306
#     4   9  20  31  50  78 108 146 181 212 255 316
#     4  10  20  35  52  78 108 138 178 218 264 320
#
# _framework density 17.599730999999998
#
# number of rings (size 3 to 8) (size 9 to 14) (size 15 to 20)
#    0.000    2.200    2.000    1.200    0.000    4.000 
#    0.000    4.000    0.000    0.000    0.000    1.400 
#    0.000    0.000    0.000    0.000    0.000    0.000 
#
# Total GULP energy -991608.385967 kJ/mol
# GULP energy per Si atom -12395.104825 kJ/mol
# Density = 1.755967 g / cm^3
# Si number density = 17.599731 Si / 1000 Ang^3
#
#
#
# Elastic Constant Matrix: (Units=GPa)
#
#
# Indices 1 2 3 4 5 6 
#
# 1 89.2559 34.6264 41.6262 0.0000 0.0000 0.0000
# 2 34.6264 89.2559 41.6262 0.0000 0.0000 0.0000
# 3 41.6262 41.6262 115.1366 0.0000 0.0000 0.0000
# 4 0.0000 0.0000 0.0000 32.1653 0.0000 0.0000
# 5 0.0000 0.0000 0.0000 0.0000 32.1653 0.0000
# 6 0.0000 0.0000 0.0000 0.0000 0.0000 26.1224
#
#
#
# Elastic Compliance Matrix: (Units=1/GPa)
#
#
# Indices 1 2 3 4 5 6 
#
# 1 0.014484 -0.003821 -0.003855 0.000000 0.000000 0.000000
# 2 -0.003821 0.014484 -0.003855 0.000000 0.000000 0.000000
# 3 -0.003855 -0.003855 0.011473 0.000000 0.000000 0.000000
# 4 0.000000 0.000000 0.000000 0.031089 0.000000 0.000000
# 5 0.000000 0.000000 0.000000 0.000000 0.031089 0.000000
# 6 0.000000 0.000000 0.000000 0.000000 0.000000 0.038281
#
#
# Mechanical properties :
#
#
# Convention : Reuss Voigt Hill
#
# Bulk Modulus (GPa) = 57.54256 58.82288 58.18272
# Shear Modulus (GPa) = 29.45399 29.80855 29.63127
#
# Velocity S-wave (km/s) = 4.09534 4.11992 4.10765
# Velocity P-wave (km/s) = 7.42486 7.49178 7.45839
#
# Compressibility (1/GPa) = 0.01737844
#
# Stress axis : x y z
#
# Youngs Moduli (GPa) = 69.04169 69.04169 87.16262
#
# Poissons Ratio (x) = 0.26382 0.33601
# Poissons Ratio (y) = 0.26382 0.33601
# Poissons Ratio (z) = 0.26616 0.26616
#
# Static dielectric constant tensor:
#      x y z
#    x 3.323040 0.000000 0.000000 
#    y 0.000000 3.323040 0.000000 
#    z 0.000000 0.000000 3.442430 
# 
# 
# High freq. dielectric constant tensor:
#      x y z
#    x 1.684120 0.000000 0.000000 
#    y 0.000000 1.684120 0.000000 
#    z 0.000000 0.000000 1.668380 
# 
# From -- ./inp_files/7088.got.cif
#   From: 2010.03.12/outbox.cif.g09.slc.cpg/sg133_4_cif.got.tgz:7088.got - 2010.04.06 18:08:06.
