data_PCOD8316082
_publ_section_title
;
Structure prediction by ZEFSAII (Michael W. Deem and Ramdas Pophale) SiO2 
 PCOD8316082
Probable space group: P 42/M M C
;
_chemical_formula_sum "Si O2"
_cell_formula_units_Z 96
_cell_length_a 25.210097
_cell_length_b 25.210097
_cell_length_c 9.011289
_cell_angle_alpha 90.000000
_cell_angle_beta 90.000000
_cell_angle_gamma 90.000000
_cell_volume 5727.115629
_symmetry_space_group_name_H-M "P 42/M M C"
_symmetry_group_IT_number 131
_symmetry_cell_setting 'tetragonal'
loop_
_space_group_symop_operation_xyz
x,y,z
-x,-y,z
-y,x,1/2+z
y,-x,1/2+z
-x,y,-z
x,-y,-z
y,x,1/2-z
-y,-x,1/2-z
-x,-y,-z
x,y,-z
y,-x,1/2-z
-y,x,1/2-z
x,-y,z
-x,y,z
-y,-x,1/2+z
y,x,1/2+z
loop_
_atom_site_type_symbol
_atom_site_label
_atom_site_fract_x
_atom_site_fract_y
_atom_site_fract_z
Si Si1 0.860736 0.062079 0.671582
Si Si2 0.670305 0.252196 0.669141
Si Si3 0.443481 0.243543 0.330729
Si Si4 0.134957 0.558158 0.672159
Si Si5 0.247247 0.061567 0.826575
Si Si6 0.337587 0.871279 0.325945
O O1 0.909636 0.090365 0.750000
O O2 0.858371 0.078182 0.500000
O O3 0.806377 0.080707 0.747601
O O4 0.869911 0.000000 0.693977
O O5 0.715110 0.284891 0.750000
O O6 0.685971 0.257739 0.500000
O O7 0.610766 0.276429 0.701378
O O8 0.670553 0.190486 0.716431
O O9 0.437927 0.220813 0.500000
O O10 0.500000 0.275838 0.317201
O O11 0.446183 0.196362 0.214482
O O12 0.130061 0.573648 0.500000
O O13 0.108371 0.500000 0.701633
O O14 0.108461 0.604510 0.770601
O O15 0.294767 0.095023 0.760598
O O16 0.258373 0.000000 0.793629
O O17 0.241639 0.073056 0.000000
O O18 0.332367 0.881755 0.500000
#
# Coordination Sequence:
#
# PCOD8316082 Si02
#       6
#    16  16  16  16  16  16
#     4  10  21  37  57  80 105 132 162 197 238 285
#     4   9  18  29  42  64  93 124 153 185 228 274
#     4   8  14  26  42  59  83 117 156 193 230 277
#     4   9  16  26  43  68  94 119 152 195 240 282
#     4  10  21  37  56  76  98 125 159 200 243 284
#     4  10  20  33  49  69  94 127 164 195 232 285
#
# _framework density 16.762363000000001
#
# number of rings (size 3 to 8) (size 9 to 14) (size 15 to 20)
#    0.000    2.667    0.000    3.000    0.000    7.167 
#    0.000    2.500    0.000    0.500    0.000    3.500 
#    0.000    0.333    0.000    4.167    0.000    0.167 
#
# Total GULP energy -1189449.527932 kJ/mol
# GULP energy per Si atom -12390.099249 kJ/mol
# Density = 1.672421 g / cm^3
# Si number density = 16.762363 Si / 1000 Ang^3
#
#
#
# Elastic Constant Matrix: (Units=GPa)
#
#
# Indices 1 2 3 4 5 6 
#
# 1 76.1780 52.7142 47.4838 0.0000 0.0000 0.0000
# 2 52.7142 76.1968 47.4825 0.0000 0.0000 0.0000
# 3 47.4838 47.4825 87.1363 0.0000 0.0000 0.0000
# 4 0.0000 0.0000 0.0000 27.5900 0.0000 0.0000
# 5 0.0000 0.0000 0.0000 0.0000 27.5896 0.0000
# 6 0.0000 0.0000 0.0000 0.0000 0.0000 -3.9517
#
#
#
# Elastic Compliance Matrix: (Units=1/GPa)
#
#
# Indices 1 2 3 4 5 6 
#
# 1 0.027787 -0.014820 -0.007066 0.000000 0.000000 0.000000
# 2 -0.014820 0.027776 -0.007060 0.000000 0.000000 0.000000
# 3 -0.007066 -0.007060 0.019174 0.000000 0.000000 0.000000
# 4 0.000000 0.000000 0.000000 0.036245 0.000000 0.000000
# 5 0.000000 0.000000 0.000000 0.000000 0.036246 0.000000
# 6 0.000000 0.000000 0.000000 0.000000 0.000000 -0.253056
#
#
# Mechanical properties :
#
#
# Convention : Reuss Voigt Hill
#
# Bulk Modulus (GPa) = 59.36607 59.43022 59.39815
# Shear Modulus (GPa) = -118.14646 16.36762 -50.88942
#
# Velocity S-wave (km/s) = -8.40453 3.12821 -5.51591
# Velocity P-wave (km/s) = 7.66084 6.96987 2.24825
#
# Compressibility (1/GPa) = 0.01684464
#
# Stress axis : x y z
#
# Youngs Moduli (GPa) = 35.98782 36.00226 52.15380
#
# Poissons Ratio (x) = 0.53356 0.36854
# Poissons Ratio (y) = 0.53334 0.36819
# Poissons Ratio (z) = 0.25431 0.25417
#
# Static dielectric constant tensor:
#      x y z
#    x 3.168220 0.000000 0.000000 
#    y 0.000000 3.168220 0.000000 
#    z 0.000000 0.000000 3.267510 
# 
# 
# High freq. dielectric constant tensor:
#      x y z
#    x 1.628430 0.000000 0.000000 
#    y 0.000000 1.628430 0.000000 
#    z 0.000000 0.000000 1.660650 
# 
# From -- ./inp_files/2241.got.cif
#   From: 2010.03.12/outbox.cif.g09.slc.cpg/sg131_2_cif.got.tgz:2241.got - 2010.04.06 17:36:35.
