data_PCOD8316147
_publ_section_title
;
Structure prediction by ZEFSAII (Michael W. Deem and Ramdas Pophale) SiO2 
 PCOD8316147
Probable space group: P 42/M M C
;
_chemical_formula_sum "Si O2"
_cell_formula_units_Z 96
_cell_length_a 16.051977
_cell_length_b 16.051977
_cell_length_c 18.741039
_cell_angle_alpha 90.000000
_cell_angle_beta 90.000000
_cell_angle_gamma 90.000000
_cell_volume 4828.927910
_symmetry_space_group_name_H-M "P 42/M M C"
_symmetry_group_IT_number 131
_symmetry_cell_setting 'tetragonal'
loop_
_space_group_symop_operation_xyz
x,y,z
-x,-y,z
-y,x,1/2+z
y,-x,1/2+z
-x,y,-z
x,-y,-z
y,x,1/2-z
-y,-x,1/2-z
-x,-y,-z
x,y,-z
y,-x,1/2-z
-y,x,1/2-z
x,-y,z
-x,y,z
-y,-x,1/2+z
y,x,1/2+z
loop_
_atom_site_type_symbol
_atom_site_label
_atom_site_fract_x
_atom_site_fract_y
_atom_site_fract_z
Si Si1 0.845261 0.907586 0.180580
Si Si2 0.761435 0.406887 0.418941
Si Si3 0.241399 0.903011 0.419352
Si Si4 0.816698 0.690180 0.714795
Si Si5 0.164866 0.405305 0.848831
Si Si6 0.590142 0.661576 0.580306
O O1 0.904725 0.904725 0.250000
O O2 0.860098 0.832423 0.125223
O O3 0.751713 0.895537 0.210212
O O4 0.854891 0.000000 0.145657
O O5 0.784737 0.380436 0.500000
O O6 0.793335 0.500000 0.403190
O O7 0.800932 0.341228 0.365223
O O8 0.661419 0.406841 0.407880
O O9 0.236357 0.868786 0.500000
O O10 0.334528 0.886476 0.390511
O O11 0.223567 0.000000 0.416666
O O12 0.737988 0.737988 0.750000
O O13 0.842106 0.612318 0.764299
O O14 0.132349 0.500000 0.864920
O O15 0.261205 0.396102 0.867842
O O16 0.593583 0.697359 0.500000
O O17 0.500000 0.619506 0.595434
#
# Coordination Sequence:
#
# PCOD8316147 Si02
#       6
#    16  16  16  16  16  16
#     4  11  23  41  67  93 122 161 207 257 314 376
#     4  10  20  34  54  79 113 159 205 253 311 367
#     4  11  24  41  61  91 130 163 200 253 311 380
#     4  11  20  37  59  89 116 154 203 262 310 364
#     4  11  21  36  59  85 119 163 209 255 303 364
#     4   9  17  29  47  73 105 146 198 250 301 362
#
# _framework density 19.880189000000001
#
# number of rings (size 3 to 8) (size 9 to 14) (size 15 to 20)
#    0.000    1.500    5.000    1.500    0.000    5.167 
#    0.000    3.333    0.000    1.500    0.000    1.167 
#    0.000    0.000    0.000    0.000    0.000    0.000 
#
# Total GULP energy -1189763.050791 kJ/mol
# GULP energy per Si atom -12393.365112 kJ/mol
# Density = 1.983494 g / cm^3
# Si number density = 19.880189 Si / 1000 Ang^3
#
#
#
# Elastic Constant Matrix: (Units=GPa)
#
#
# Indices 1 2 3 4 5 6 
#
# 1 96.0357 24.4608 39.0670 0.0000 0.0000 0.0000
# 2 24.4608 96.0357 39.0670 0.0000 0.0000 0.0000
# 3 39.0670 39.0670 119.5214 0.0000 0.0000 0.0000
# 4 0.0000 0.0000 0.0000 23.5600 0.0000 0.0000
# 5 0.0000 0.0000 0.0000 0.0000 23.5600 0.0000
# 6 0.0000 0.0000 0.0000 0.0000 0.0000 14.5498
#
#
#
# Elastic Compliance Matrix: (Units=1/GPa)
#
#
# Indices 1 2 3 4 5 6 
#
# 1 0.012251 -0.001720 -0.003442 0.000000 0.000000 0.000000
# 2 -0.001720 0.012251 -0.003442 0.000000 0.000000 0.000000
# 3 -0.003442 -0.003442 0.010617 0.000000 0.000000 0.000000
# 4 0.000000 0.000000 0.000000 0.042445 0.000000 0.000000
# 5 0.000000 0.000000 0.000000 0.000000 0.042445 0.000000
# 6 0.000000 0.000000 0.000000 0.000000 0.000000 0.068729
#
#
# Mechanical properties :
#
#
# Convention : Reuss Voigt Hill
#
# Bulk Modulus (GPa) = 55.83400 57.42028 56.62714
# Shear Modulus (GPa) = 23.59404 26.26713 24.93059
#
# Velocity S-wave (km/s) = 3.44875 3.63887 3.54509
# Velocity P-wave (km/s) = 6.63361 6.82650 6.73074
#
# Compressibility (1/GPa) = 0.01791023
#
# Stress axis : x y z
#
# Youngs Moduli (GPa) = 81.62456 81.62456 94.18901
#
# Poissons Ratio (x) = 0.14041 0.32422
# Poissons Ratio (y) = 0.14041 0.32422
# Poissons Ratio (z) = 0.28097 0.28097
#
# Static dielectric constant tensor:
#      x y z
#    x 3.510470 0.000000 0.000000 
#    y 0.000000 3.510470 0.000000 
#    z 0.000000 0.000000 3.768460 
# 
# 
# High freq. dielectric constant tensor:
#      x y z
#    x 1.761300 0.000000 0.000000 
#    y 0.000000 1.761300 0.000000 
#    z 0.000000 0.000000 1.778780 
# 
# From -- ./inp_files/9708.got.cif
#   From: 2010.03.12/outbox.cif.g09.slc.cpg/sg131_5_cif.got.tgz:9708.got - 2010.04.06 17:36:35.
