data_PCOD8316607
_publ_section_title
;
Structure prediction by ZEFSAII (Michael W. Deem and Ramdas Pophale) SiO2 
 PCOD8316607
Probable space group: P 42/M C M
;
_chemical_formula_sum "Si O2"
_cell_formula_units_Z 96
_cell_length_a 24.674923
_cell_length_b 24.674923
_cell_length_c 8.736910
_cell_angle_alpha 90.000000
_cell_angle_beta 90.000000
_cell_angle_gamma 90.000000
_cell_volume 5319.483599
_symmetry_space_group_name_H-M "P 42/M C M"
_symmetry_group_IT_number 132
_symmetry_cell_setting 'tetragonal'
loop_
_space_group_symop_operation_xyz
x,y,z
-y,x,1/2+z
-x,-y,z
y,-x,1/2+z
x,-y,1/2-z
-x,y,1/2-z
y,x,-z
-y,-x,-z
-x,-y,-z
y,-x,1/2-z
x,y,-z
-y,x,1/2-z
-x,y,1/2+z
x,-y,1/2+z
-y,-x,z
y,x,z
loop_
_atom_site_type_symbol
_atom_site_label
_atom_site_fract_x
_atom_site_fract_y
_atom_site_fract_z
Si Si1 0.681364 0.945717 0.669474
Si Si2 0.946574 0.190355 0.827727
Si Si3 0.233577 0.557304 0.681332
Si Si4 0.342181 0.174194 0.316874
Si Si5 0.356972 0.443311 0.180298
Si Si6 0.760074 0.239927 0.821937
Si Si7 0.839644 0.160357 0.324292
O O1 0.656480 0.946675 0.500000
O O2 0.745425 0.949355 0.664599
O O3 0.665963 0.887477 0.746643
O O4 0.657491 0.000000 0.750000
O O5 0.901502 0.172007 0.709554
O O6 0.000000 0.166128 0.750000
O O7 0.938262 0.167185 0.000000
O O8 0.215715 0.500000 0.750000
O O9 0.226257 0.557114 0.500000
O O10 0.194310 0.600620 0.757043
O O11 0.295525 0.570233 0.729654
O O12 0.339327 0.173510 0.500000
O O13 0.296330 0.216370 0.251759
O O14 0.376707 0.500000 0.250000
O O15 0.395385 0.395385 0.243350
O O16 0.361638 0.448559 0.000000
O O17 0.805020 0.194981 0.794365
O O18 0.751445 0.248556 0.000000
O O19 0.825581 0.174419 0.500000
#
# Coordination Sequence:
#
# PCOD8316607 Si02
#       7
#    16  16  16  16  16   8   8
#     4   9  18  32  52  76 107 141 175 213 259 316
#     4  10  19  34  52  73 103 141 181 223 270 321
#     4  10  21  37  57  78 105 141 180 223 265 317
#     4  10  20  35  55  80 110 145 179 217 268 321
#     4   9  19  35  52  73 103 135 172 217 263 310
#     4  10  20  36  52  76 115 151 177 215 272 326
#     4  12  22  32  50  77 109 144 182 223 267 324
#
# _framework density 18.046866000000001
#
# number of rings (size 3 to 8) (size 9 to 14) (size 15 to 20)
#    0.000    2.167    1.667    1.750    1.167    3.167 
#    0.000    0.833    0.000    0.750    0.000    5.250 
#    0.000    0.000    0.000    0.000    0.000    0.000 
#
# Total GULP energy -1189958.283713 kJ/mol
# GULP energy per Si atom -12395.398789 kJ/mol
# Density = 1.800579 g / cm^3
# Si number density = 18.046866 Si / 1000 Ang^3
#
#
#
# Elastic Constant Matrix: (Units=GPa)
#
#
# Indices 1 2 3 4 5 6 
#
# 1 106.4731 50.1781 20.1416 0.0000 0.0000 0.0000
# 2 50.1781 106.4728 20.1410 0.0000 0.0000 0.0000
# 3 20.1416 20.1410 33.9507 0.0000 0.0000 0.0000
# 4 0.0000 0.0000 0.0000 25.9103 0.0000 0.0000
# 5 0.0000 0.0000 0.0000 0.0000 25.9104 0.0000
# 6 0.0000 0.0000 0.0000 0.0000 0.0000 20.6844
#
#
#
# Elastic Compliance Matrix: (Units=1/GPa)
#
#
# Indices 1 2 3 4 5 6 
#
# 1 0.012648 -0.005115 -0.004469 0.000000 0.000000 0.000000
# 2 -0.005115 0.012648 -0.004469 0.000000 0.000000 0.000000
# 3 -0.004469 -0.004469 0.034757 0.000000 0.000000 0.000000
# 4 0.000000 0.000000 0.000000 0.038595 0.000000 0.000000
# 5 0.000000 0.000000 0.000000 0.000000 0.038595 0.000000
# 6 0.000000 0.000000 0.000000 0.000000 0.000000 0.048346
#
#
# Mechanical properties :
#
#
# Convention : Reuss Voigt Hill
#
# Bulk Modulus (GPa) = 31.30183 47.53530 39.41857
# Shear Modulus (GPa) = 22.28728 24.93008 23.60868
#
# Velocity S-wave (km/s) = 3.51802 3.72076 3.62081
# Velocity P-wave (km/s) = 5.82103 6.69745 6.27456
#
# Compressibility (1/GPa) = 0.03194702
#
# Stress axis : x y z
#
# Youngs Moduli (GPa) = 79.06257 79.06289 28.77137
#
# Poissons Ratio (x) = 0.40444 0.12858
# Poissons Ratio (y) = 0.40444 0.12857
# Poissons Ratio (z) = 0.35333 0.35330
#
# Static dielectric constant tensor:
#      x y z
#    x 3.190560 0.000000 0.000000 
#    y 0.000000 3.190590 0.000000 
#    z 0.000000 0.000000 3.331370 
# 
# 
# High freq. dielectric constant tensor:
#      x y z
#    x 1.689860 0.000000 0.000000 
#    y 0.000000 1.689860 0.000000 
#    z 0.000000 0.000000 1.693300 
# 
# From -- ./inp_files/1837.got.cif
#   From: 2010.03.12/outbox.cif.g09.slc.cpg/sg132_1_cif.got.tgz:1837.got - 2010.04.06 17:53:44.
