data_PCOD8316564
_publ_section_title
;
Structure prediction by ZEFSAII (Michael W. Deem and Ramdas Pophale) SiO2 
 PCOD8316564
Probable space group: P 42/M C M
;
_chemical_formula_sum "Si O2"
_cell_formula_units_Z 96
_cell_length_a 25.177307
_cell_length_b 25.177307
_cell_length_c 8.802089
_cell_angle_alpha 90.000000
_cell_angle_beta 90.000000
_cell_angle_gamma 90.000000
_cell_volume 5579.615943
_symmetry_space_group_name_H-M "P 42/M C M"
_symmetry_group_IT_number 132
_symmetry_cell_setting 'tetragonal'
loop_
_space_group_symop_operation_xyz
x,y,z
-y,x,1/2+z
-x,-y,z
y,-x,1/2+z
x,-y,1/2-z
-x,y,1/2-z
y,x,-z
-y,-x,-z
-x,-y,-z
y,-x,1/2-z
x,y,-z
-y,x,1/2-z
-x,y,1/2+z
x,-y,1/2+z
-y,-x,z
y,x,z
loop_
_atom_site_type_symbol
_atom_site_label
_atom_site_fract_x
_atom_site_fract_y
_atom_site_fract_z
Si Si1 0.866389 0.338484 0.820945
Si Si2 0.255513 0.659772 0.821714
Si Si3 0.056078 0.254611 0.180331
Si Si4 0.740890 0.552291 0.830582
Si Si5 0.132754 0.447118 0.171726
Si Si6 0.944974 0.142383 0.178806
O O1 0.805155 0.329654 0.773464
O O2 0.898908 0.295357 0.728513
O O3 0.886127 0.396643 0.769714
O O4 0.875505 0.331759 0.000000
O O5 0.290749 0.709252 0.764215
O O6 0.278597 0.605761 0.750926
O O7 0.259362 0.652449 0.000000
O O8 0.072598 0.197273 0.244314
O O9 0.000000 0.273001 0.250000
O O10 0.051213 0.252206 0.000000
O O11 0.717233 0.500000 0.750000
O O12 0.804134 0.549720 0.828531
O O13 0.718315 0.553060 0.000000
O O14 0.109031 0.500000 0.250000
O O15 0.110833 0.442529 0.000000
O O16 0.900558 0.099443 0.216543
O O17 0.000000 0.121761 0.250000
O O18 0.952290 0.151467 0.000000
#
# Coordination Sequence:
#
# PCOD8316564 Si02
#       6
#    16  16  16  16  16  16
#     4  10  19  32  50  72  98 130 166 202 244 294
#     4   9  18  31  46  67  98 132 162 196 240 288
#     4  11  22  37  56  76  99 129 166 206 244 286
#     4   9  16  26  42  63  89 123 162 201 239 283
#     4   9  16  27  44  68  95 124 160 202 246 290
#     4  10  21  37  57  80 105 132 162 198 241 289
#
# _framework density 17.205484999999999
#
# number of rings (size 3 to 8) (size 9 to 14) (size 15 to 20)
#    0.000    2.333    0.000    4.500    0.000    7.167 
#    0.000    2.500    0.000    0.500    0.000    3.500 
#    0.000    0.333    0.000    3.500    0.000    1.833 
#
# Total GULP energy -1190434.782992 kJ/mol
# GULP energy per Si atom -12400.362323 kJ/mol
# Density = 1.716632 g / cm^3
# Si number density = 17.205485 Si / 1000 Ang^3
#
#
#
# Elastic Constant Matrix: (Units=GPa)
#
#
# Indices 1 2 3 4 5 6 
#
# 1 99.2169 72.4956 53.0887 0.0000 0.0000 0.0000
# 2 72.4956 99.2169 53.0887 0.0000 0.0000 0.0000
# 3 53.0887 53.0887 102.3228 0.0000 0.0000 0.0000
# 4 0.0000 0.0000 0.0000 27.1131 0.0000 0.0000
# 5 0.0000 0.0000 0.0000 0.0000 27.1131 0.0000
# 6 0.0000 0.0000 0.0000 0.0000 0.0000 -6.1095
#
#
#
# Elastic Compliance Matrix: (Units=1/GPa)
#
#
# Indices 1 2 3 4 5 6 
#
# 1 0.022999 -0.014424 -0.004449 0.000000 0.000000 0.000000
# 2 -0.014424 0.022999 -0.004449 0.000000 0.000000 0.000000
# 3 -0.004449 -0.004449 0.014389 0.000000 0.000000 0.000000
# 4 0.000000 0.000000 0.000000 0.036883 0.000000 0.000000
# 5 0.000000 0.000000 0.000000 0.000000 0.036883 0.000000
# 6 0.000000 0.000000 0.000000 0.000000 0.000000 -0.163679
#
#
# Mechanical properties :
#
#
# Convention : Reuss Voigt Hill
#
# Bulk Modulus (GPa) = 72.76247 73.12252 72.94250
# Shear Modulus (GPa) = 230.43342 17.76223 124.09783
#
# Velocity S-wave (km/s) = 11.58538 3.21652 8.50197
# Velocity P-wave (km/s) = 14.87761 7.50909 11.78410
#
# Compressibility (1/GPa) = 0.01374335
#
# Stress axis : x y z
#
# Youngs Moduli (GPa) = 43.48025 43.48025 69.49562
#
# Poissons Ratio (x) = 0.62718 0.30917
# Poissons Ratio (y) = 0.62718 0.30917
# Poissons Ratio (z) = 0.19344 0.19344
#
# Static dielectric constant tensor:
#      x y z
#    x 3.164330 0.000000 0.000000 
#    y 0.000000 3.164330 0.000000 
#    z 0.000000 0.000000 3.374900 
# 
# 
# High freq. dielectric constant tensor:
#      x y z
#    x 1.646370 0.000000 0.000000 
#    y 0.000000 1.646370 0.000000 
#    z 0.000000 0.000000 1.681920 
# 
# From -- ./inp_files/1778.got.cif
#   From: 2010.03.12/outbox.cif.g09.slc.cpg/sg132_1_cif.got.tgz:1778.got - 2010.04.06 17:53:44.
