data_PCOD8316895
_publ_section_title
;
Structure prediction by ZEFSAII (Michael W. Deem and Ramdas Pophale) SiO2 
 PCOD8316895
Probable space group: P 42/N B C
;
_chemical_formula_sum "Si O2"
_cell_formula_units_Z 96
_cell_length_a 15.198677
_cell_length_b 15.198677
_cell_length_c 22.176586
_cell_angle_alpha 90.000000
_cell_angle_beta 90.000000
_cell_angle_gamma 90.000000
_cell_volume 5122.786544
_symmetry_space_group_name_H-M "P 42/N B C"
_symmetry_group_IT_number 133
_space_group.IT_coordinate_system_code '2'
_symmetry_cell_setting 'tetragonal'
loop_
_space_group_symop_operation_xyz
x,y,z
1/2-y,x,1/2+z
1/2-x,1/2-y,z
y,1/2-x,1/2+z
x,1/2-y,-z
1/2-x,y,-z
y,x,1/2-z
1/2-y,1/2-x,1/2-z
-x,-y,-z
1/2+y,-x,1/2-z
1/2+x,1/2+y,-z
-y,1/2+x,1/2-z
-x,1/2+y,z
1/2+x,-y,z
-y,-x,1/2+z
1/2+y,1/2+x,1/2+z
loop_
_atom_site_type_symbol
_atom_site_label
_atom_site_fract_x
_atom_site_fract_y
_atom_site_fract_z
Si Si1 0.944953 0.825496 0.541541
Si Si2 0.928550 0.068115 0.377243
Si Si3 0.663837 0.363542 0.258015
Si Si4 0.603050 0.972963 0.809684
Si Si5 0.166443 0.448794 0.461432
Si Si6 0.164880 0.292269 0.377750
O O1 0.992523 0.750000 0.500000
O O2 0.912312 0.907120 0.501173
O O3 0.860958 0.777978 0.571146
O O4 0.006029 0.859630 0.595529
O O5 0.875698 0.112339 0.322820
O O6 0.979219 0.979901 0.354929
O O7 0.864570 0.039906 0.431477
O O8 0.768652 0.368775 0.263416
O O9 0.632395 0.428562 0.205240
O O10 0.577949 0.922052 0.750000
O O11 0.686369 0.918452 0.835465
O O12 0.250000 0.475305 0.500000
O O13 0.195783 0.382664 0.408675
O O14 0.250000 0.250000 0.343277
#
# Coordination Sequence:
#
# PCOD8316895 Si02
#       6
#    16  16  16  16  16  16
#     4  10  20  33  56  81 114 148 187 225 275 344
#     4  10  21  37  55  83 112 146 187 235 285 334
#     4  10  21  40  62  79 106 151 196 238 289 342
#     4   9  20  37  55  80 116 142 185 245 286 338
#     4  10  19  33  53  80 114 148 180 218 277 337
#     4  10  18  32  56  81 110 150 181 221 280 343
#
# _framework density 18.739801
#
# number of rings (size 3 to 8) (size 9 to 14) (size 15 to 20)
#    0.000    2.167    1.667    1.500    0.000    1.667 
#    3.000    3.333    0.000    0.000    0.000    0.000 
#    0.000    0.000    0.000    0.000    0.000    0.000 
#
# Total GULP energy -1190193.910066 kJ/mol
# GULP energy per Si atom -12397.853230 kJ/mol
# Density = 1.869715 g / cm^3
# Si number density = 18.739801 Si / 1000 Ang^3
#
#
#
# Elastic Constant Matrix: (Units=GPa)
#
#
# Indices 1 2 3 4 5 6 
#
# 1 90.3359 49.3430 39.7654 0.0000 0.0000 0.0000
# 2 49.3430 90.3362 39.7651 0.0000 0.0000 0.0000
# 3 39.7654 39.7651 83.0846 0.0000 0.0000 0.0000
# 4 0.0000 0.0000 0.0000 31.3747 0.0000 0.0000
# 5 0.0000 0.0000 0.0000 0.0000 31.3758 0.0000
# 6 0.0000 0.0000 0.0000 0.0000 0.0000 21.4461
#
#
#
# Elastic Compliance Matrix: (Units=1/GPa)
#
#
# Indices 1 2 3 4 5 6 
#
# 1 0.017118 -0.007277 -0.004710 0.000000 0.000000 0.000000
# 2 -0.007277 0.017118 -0.004710 0.000000 0.000000 0.000000
# 3 -0.004710 -0.004710 0.016544 0.000000 0.000000 0.000000
# 4 0.000000 0.000000 0.000000 0.031873 0.000000 0.000000
# 5 0.000000 0.000000 0.000000 0.000000 0.031872 0.000000
# 6 0.000000 0.000000 0.000000 0.000000 0.000000 0.046629
#
#
# Mechanical properties :
#
#
# Convention : Reuss Voigt Hill
#
# Bulk Modulus (GPa) = 57.51609 57.94486 57.73047
# Shear Modulus (GPa) = 24.95732 25.83153 25.39442
#
# Velocity S-wave (km/s) = 3.65332 3.71675 3.68517
# Velocity P-wave (km/s) = 6.96808 7.02900 6.99861
#
# Compressibility (1/GPa) = 0.01738644
#
# Stress axis : x y z
#
# Youngs Moduli (GPa) = 58.41871 58.41916 60.44308
#
# Poissons Ratio (x) = 0.42510 0.28469
# Poissons Ratio (y) = 0.42509 0.28469
# Poissons Ratio (z) = 0.27516 0.27515
#
# Static dielectric constant tensor:
#      x y z
#    x 3.386780 0.000000 0.000000 
#    y 0.000000 3.386780 0.000000 
#    z 0.000000 0.000000 3.484500 
# 
# 
# High freq. dielectric constant tensor:
#      x y z
#    x 1.720810 0.000000 0.000000 
#    y 0.000000 1.720810 0.000000 
#    z 0.000000 0.000000 1.728440 
# 
# From -- ./inp_files/6523.got.cif
#   From: 2010.03.12/outbox.cif.g09.slc.cpg/sg133_4_cif.got.tgz:6523.got - 2010.04.06 18:08:06.
