data_PCOD8316595
_publ_section_title
;
Structure prediction by ZEFSAII (Michael W. Deem and Ramdas Pophale) SiO2 
 PCOD8316595
Probable space group: P 42/M C M
;
_chemical_formula_sum "Si O2"
_cell_formula_units_Z 96
_cell_length_a 16.176826
_cell_length_b 16.176826
_cell_length_c 19.504193
_cell_angle_alpha 90.000000
_cell_angle_beta 90.000000
_cell_angle_gamma 90.000000
_cell_volume 5104.046404
_symmetry_space_group_name_H-M "P 42/M C M"
_symmetry_group_IT_number 132
_symmetry_cell_setting 'tetragonal'
loop_
_space_group_symop_operation_xyz
x,y,z
-y,x,1/2+z
-x,-y,z
y,-x,1/2+z
x,-y,1/2-z
-x,y,1/2-z
y,x,-z
-y,-x,-z
-x,-y,-z
y,-x,1/2-z
x,y,-z
-y,x,1/2-z
-x,y,1/2+z
x,-y,1/2+z
-y,-x,z
y,x,z
loop_
_atom_site_type_symbol
_atom_site_label
_atom_site_fract_x
_atom_site_fract_y
_atom_site_fract_z
Si Si1 0.582150 0.282024 0.293796
Si Si2 0.949719 0.184202 0.815509
Si Si3 0.587259 0.110441 0.076283
Si Si4 0.963297 0.293412 0.578526
Si Si5 0.824300 0.413983 0.422127
Si Si6 0.815597 0.316644 0.192945
O O1 0.500000 0.298783 0.250000
O O2 0.633206 0.366795 0.293113
O O3 0.568194 0.253186 0.372169
O O4 0.631930 0.205659 0.260668
O O5 0.890001 0.110000 0.841984
O O6 0.897167 0.263466 0.791230
O O7 0.000000 0.151538 0.750000
O O8 0.011931 0.213745 0.875703
O O9 0.488090 0.108385 0.084064
O O10 0.621839 0.176593 0.129497
O O11 0.627994 0.022225 0.092134
O O12 0.612332 0.139641 0.000000
O O13 0.968867 0.263473 0.500000
O O14 0.871354 0.327654 0.595371
O O15 0.789675 0.410101 0.500000
O O16 0.741056 0.258945 0.170549
#
# Coordination Sequence:
#
# PCOD8316595 Si02
#       6
#    16  16  16  16  16  16
#     4  11  22  37  56  76 103 140 185 230 274 326
#     4  10  20  34  53  77 108 145 184 227 272 317
#     4   9  16  28  49  78 110 143 174 213 268 326
#     4   9  18  32  53  82 114 144 177 218 268 326
#     4  10  19  33  54  80 111 143 176 218 270 328
#     4   9  18  32  50  74 104 139 180 225 269 318
#
# _framework density 18.808605
#
# number of rings (size 3 to 8) (size 9 to 14) (size 15 to 20)
#    0.000    2.333    1.667    1.500    0.000    3.333 
#    0.000    3.333    0.000    2.000    0.000    2.333 
#    0.000    0.000    0.000    0.000    0.000    0.000 
#
# Total GULP energy -1189899.318438 kJ/mol
# GULP energy per Si atom -12394.784567 kJ/mol
# Density = 1.876580 g / cm^3
# Si number density = 18.808605 Si / 1000 Ang^3
#
#
#
# Elastic Constant Matrix: (Units=GPa)
#
#
# Indices 1 2 3 4 5 6 
#
# 1 66.3116 28.0660 45.9147 0.0000 0.0000 0.0000
# 2 28.0660 66.3116 45.9147 0.0000 0.0000 0.0000
# 3 45.9147 45.9147 117.5445 0.0000 0.0000 0.0000
# 4 0.0000 0.0000 0.0000 25.0105 0.0000 0.0000
# 5 0.0000 0.0000 0.0000 0.0000 25.0105 0.0000
# 6 0.0000 0.0000 0.0000 0.0000 0.0000 15.0069
#
#
#
# Elastic Compliance Matrix: (Units=1/GPa)
#
#
# Indices 1 2 3 4 5 6 
#
# 1 0.021619 -0.004527 -0.006676 0.000000 0.000000 0.000000
# 2 -0.004527 0.021619 -0.006676 0.000000 0.000000 0.000000
# 3 -0.006676 -0.006676 0.013723 0.000000 0.000000 0.000000
# 4 0.000000 0.000000 0.000000 0.039983 0.000000 0.000000
# 5 0.000000 0.000000 0.000000 0.000000 0.039983 0.000000
# 6 0.000000 0.000000 0.000000 0.000000 0.000000 0.066636
#
#
# Mechanical properties :
#
#
# Convention : Reuss Voigt Hill
#
# Bulk Modulus (GPa) = 47.16656 54.43984 50.80320
# Shear Modulus (GPa) = 20.29291 21.69041 20.99166
#
# Velocity S-wave (km/s) = 3.28825 3.39959 3.34438
# Velocity P-wave (km/s) = 6.28875 6.66457 6.47939
#
# Compressibility (1/GPa) = 0.02120146
#
# Stress axis : x y z
#
# Youngs Moduli (GPa) = 46.25504 46.25504 72.86957
#
# Poissons Ratio (x) = 0.20942 0.48650
# Poissons Ratio (y) = 0.20942 0.48650
# Poissons Ratio (z) = 0.30881 0.30881
#
# Static dielectric constant tensor:
#      x y z
#    x 3.296550 0.000000 0.000000 
#    y 0.000000 3.296550 0.000000 
#    z 0.000000 0.000000 3.472800 
# 
# 
# High freq. dielectric constant tensor:
#      x y z
#    x 1.713340 0.000000 0.000000 
#    y 0.000000 1.713340 0.000000 
#    z 0.000000 0.000000 1.733820 
# 
# From -- ./inp_files/7880.got.cif
#   From: 2010.03.12/outbox.cif.g09.slc.cpg/sg132_4_cif.got.tgz:7880.got - 2010.04.06 17:53:44.
