data_PCOD8316267
_publ_section_title
;
Structure prediction by ZEFSAII (Michael W. Deem and Ramdas Pophale) SiO2 
 PCOD8316267
Probable space group: P 42/M M C
;
_chemical_formula_sum "Si O2"
_cell_formula_units_Z 48
_cell_length_a 7.872770
_cell_length_b 7.872770
_cell_length_c 37.244371
_cell_angle_alpha 90.000000
_cell_angle_beta 90.000000
_cell_angle_gamma 90.000000
_cell_volume 2308.425015
_symmetry_space_group_name_H-M "P 42/M M C"
_symmetry_group_IT_number 131
_symmetry_cell_setting 'tetragonal'
loop_
_space_group_symop_operation_xyz
x,y,z
-x,-y,z
-y,x,1/2+z
y,-x,1/2+z
-x,y,-z
x,-y,-z
y,x,1/2-z
-y,-x,1/2-z
-x,-y,-z
x,y,-z
y,-x,1/2-z
-y,x,1/2-z
x,-y,z
-x,y,z
-y,-x,1/2+z
y,x,1/2+z
loop_
_atom_site_type_symbol
_atom_site_label
_atom_site_fract_x
_atom_site_fract_y
_atom_site_fract_z
Si Si1 0.804457 0.804457 0.750000
Si Si2 0.816115 0.697641 0.076441
Si Si3 0.500000 0.805282 0.803003
Si Si4 0.500000 0.694230 0.118033
Si Si5 0.200421 0.305941 0.500000
O O1 0.672231 0.761022 0.781513
O O2 0.000000 0.777940 0.763224
O O3 0.823639 0.500000 0.085126
O O4 0.668017 0.783122 0.100947
O O5 0.000000 0.778967 0.086408
O O6 0.784323 0.724029 0.034589
O O7 0.500000 0.698004 0.839125
O O8 0.500000 0.000000 0.814286
O O9 0.500000 0.500000 0.105265
O O10 0.260340 0.500000 0.500000
O O11 0.000000 0.288121 0.500000
#
# Coordination Sequence:
#
# PCOD8316267 Si02
#       5
#     8  16   8   8   8
#     4   9  20  39  60  88 122 151 190 241 288 348
#     4  10  21  38  58  81 112 152 195 238 290 347
#     4  10  22  38  61  89 116 154 193 229 289 353
#     4  10  22  37  55  84 117 148 186 238 286 339
#     4  11  22  35  56  83 111 148 197 246 289 341
#
# _framework density 20.793398
#
# number of rings (size 3 to 8) (size 9 to 14) (size 15 to 20)
#    0.000    2.000    1.667    1.000    2.333    6.000 
#    0.000    0.000    0.000    0.000    0.000    0.000 
#    0.000    0.000    0.000    0.000    0.000    0.000 
#
# Total GULP energy -595017.470239 kJ/mol
# GULP energy per Si atom -12396.197297 kJ/mol
# Density = 2.074607 g / cm^3
# Si number density = 20.793398 Si / 1000 Ang^3
#
#
#
# Elastic Constant Matrix: (Units=GPa)
#
#
# Indices 1 2 3 4 5 6 
#
# 1 115.5467 33.9723 51.3615 0.0000 0.0000 0.0000
# 2 33.9723 115.5467 51.3615 0.0000 0.0000 0.0000
# 3 51.3615 51.3615 137.5374 0.0000 0.0000 0.0000
# 4 0.0000 0.0000 0.0000 295.7700 0.0000 0.0000
# 5 0.0000 0.0000 0.0000 0.0000 295.7700 0.0000
# 6 0.0000 0.0000 0.0000 0.0000 0.0000 15.9476
#
#
#
# Elastic Compliance Matrix: (Units=1/GPa)
#
#
# Indices 1 2 3 4 5 6 
#
# 1 0.010627 -0.001631 -0.003359 0.000000 0.000000 0.000000
# 2 -0.001631 0.010627 -0.003359 0.000000 0.000000 0.000000
# 3 -0.003359 -0.003359 0.009780 0.000000 0.000000 0.000000
# 4 0.000000 0.000000 0.000000 0.003381 0.000000 0.000000
# 5 0.000000 0.000000 0.000000 0.000000 0.003381 0.000000
# 6 0.000000 0.000000 0.000000 0.000000 0.000000 0.062705
#
#
# Mechanical properties :
#
#
# Convention : Reuss Voigt Hill
#
# Bulk Modulus (GPa) = 69.76317 71.33570 70.54944
# Shear Modulus (GPa) = 40.99012 136.95992 88.97502
#
# Velocity S-wave (km/s) = 4.44475 8.12465 6.54851
# Velocity P-wave (km/s) = 7.74368 11.06321 9.54880
#
# Compressibility (1/GPa) = 0.01433421
#
# Stress axis : x y z
#
# Youngs Moduli (GPa) = 94.09592 94.09592 102.25094
#
# Poissons Ratio (x) = 0.15350 0.34351
# Poissons Ratio (y) = 0.15350 0.34351
# Poissons Ratio (z) = 0.31611 0.31611
#
# Static dielectric constant tensor:
#      x y z
#    x 4.053120 0.000000 0.000000 
#    y 0.000000 4.053120 0.000000 
#    z 0.000000 0.000000 3.418940 
# 
# 
# High freq. dielectric constant tensor:
#      x y z
#    x 1.819450 0.000000 0.000000 
#    y 0.000000 1.819450 0.000000 
#    z 0.000000 0.000000 1.793730 
# 
# From -- ./inp_files/12955.got.cif
#   From: 2010.03.12/outbox.cif.g09.slc.cpg/sg131_7_cif.got.tgz:12955.got - 2010.04.06 17:36:35.
