data_PCOD8316854
_publ_section_title
;
Structure prediction by ZEFSAII (Michael W. Deem and Ramdas Pophale) SiO2 
 PCOD8316854
Probable space group: P 42/M C M
;
_chemical_formula_sum "Si O2"
_cell_formula_units_Z 88
_cell_length_a 12.618689
_cell_length_b 12.618689
_cell_length_c 28.073226
_cell_angle_alpha 90.000000
_cell_angle_beta 90.000000
_cell_angle_gamma 90.000000
_cell_volume 4470.136610
_symmetry_space_group_name_H-M "P 42/M C M"
_symmetry_group_IT_number 132
_symmetry_cell_setting 'tetragonal'
loop_
_space_group_symop_operation_xyz
x,y,z
-y,x,1/2+z
-x,-y,z
y,-x,1/2+z
x,-y,1/2-z
-x,y,1/2-z
y,x,-z
-y,-x,-z
-x,-y,-z
y,-x,1/2-z
x,y,-z
-y,x,1/2-z
-x,y,1/2+z
x,-y,1/2+z
-y,-x,z
y,x,z
loop_
_atom_site_type_symbol
_atom_site_label
_atom_site_fract_x
_atom_site_fract_y
_atom_site_fract_z
Si Si1 0.083707 0.083707 0.056719
Si Si2 0.372409 0.201880 0.605950
Si Si3 0.291862 0.877544 0.694472
Si Si4 0.712717 0.120000 0.198605
Si Si5 0.784003 0.391385 0.604159
Si Si6 0.312486 0.015446 0.055980
O O1 0.197033 0.046781 0.076895
O O2 0.088640 0.088640 0.000000
O O3 0.000000 0.000000 0.075804
O O4 0.284710 0.284710 0.587162
O O5 0.363037 0.182495 0.662528
O O6 0.487672 0.254047 0.597905
O O7 0.356961 0.091060 0.579048
O O8 0.177561 0.822440 0.689644
O O9 0.336469 0.868133 0.748402
O O10 0.373844 0.822706 0.658405
O O11 0.276929 0.999700 0.681084
O O12 0.830592 0.169409 0.197417
O O13 0.688906 0.311095 0.590109
O O14 0.883235 0.383737 0.568296
O O15 0.310051 0.996239 0.000000
#
# Coordination Sequence:
#
# PCOD8316854 Si02
#       6
#     8  16  16  16  16  16
#     4   9  18  34  58  86 117 149 179 221 284 352
#     4  11  24  40  59  86 118 154 198 243 290 343
#     4   9  18  33  54  83 118 155 192 231 281 343
#     4   9  18  33  54  83 119 154 190 233 283 342
#     4  11  23  40  61  86 116 153 199 244 290 345
#     4  11  22  39  61  88 119 150 190 239 294 352
#
# _framework density 19.686199999999999
#
# number of rings (size 3 to 8) (size 9 to 14) (size 15 to 20)
#    0.000    1.909    2.727    1.091    0.000    4.000 
#    0.000    3.636    0.000    0.000    0.000    7.636 
#    0.000    0.000    0.000    0.000    0.000    0.000 
#
# Total GULP energy -1091026.429433 kJ/mol
# GULP energy per Si atom -12398.027607 kJ/mol
# Density = 1.964139 g / cm^3
# Si number density = 19.686200 Si / 1000 Ang^3
#
#
#
# Elastic Constant Matrix: (Units=GPa)
#
#
# Indices 1 2 3 4 5 6 
#
# 1 113.6674 49.1647 20.8394 0.0000 0.0000 0.0000
# 2 49.1647 113.6674 20.8394 0.0000 0.0000 0.0000
# 3 20.8394 20.8394 56.5755 0.0000 0.0000 0.0000
# 4 0.0000 0.0000 0.0000 19.6584 0.0000 0.0000
# 5 0.0000 0.0000 0.0000 0.0000 19.6584 0.0000
# 6 0.0000 0.0000 0.0000 0.0000 0.0000 15.3361
#
#
#
# Elastic Compliance Matrix: (Units=1/GPa)
#
#
# Indices 1 2 3 4 5 6 
#
# 1 0.011142 -0.004361 -0.002498 0.000000 0.000000 0.000000
# 2 -0.004361 0.011142 -0.002498 0.000000 0.000000 0.000000
# 3 -0.002498 -0.002498 0.019515 0.000000 0.000000 0.000000
# 4 0.000000 0.000000 0.000000 0.050869 0.000000 0.000000
# 5 0.000000 0.000000 0.000000 0.000000 0.050869 0.000000
# 6 0.000000 0.000000 0.000000 0.000000 0.000000 0.065206
#
#
# Mechanical properties :
#
#
# Convention : Reuss Voigt Hill
#
# Bulk Modulus (GPa) = 43.31589 51.73302 47.52446
# Shear Modulus (GPa) = 21.26293 23.80170 22.53231
#
# Velocity S-wave (km/s) = 3.29004 3.48092 3.38683
# Velocity P-wave (km/s) = 6.04015 6.51856 6.28391
#
# Compressibility (1/GPa) = 0.02308621
#
# Stress axis : x y z
#
# Youngs Moduli (GPa) = 89.75123 89.75123 51.24139
#
# Poissons Ratio (x) = 0.39143 0.12798
# Poissons Ratio (y) = 0.39143 0.12798
# Poissons Ratio (z) = 0.22416 0.22416
#
# Static dielectric constant tensor:
#      x y z
#    x 3.476770 0.000000 0.000000 
#    y 0.000000 3.476770 0.000000 
#    z 0.000000 0.000000 3.649460 
# 
# 
# High freq. dielectric constant tensor:
#      x y z
#    x 1.754710 0.000000 0.000000 
#    y 0.000000 1.754710 0.000000 
#    z 0.000000 0.000000 1.772870 
# 
# From -- ./inp_files/10784.got.cif
#   From: 2010.03.12/outbox.cif.g09.slc.cpg/sg132_6_cif.got.tgz:10784.got - 2010.04.06 17:53:44.
