data_PCOD8316395
_publ_section_title
;
Structure prediction by ZEFSAII (Michael W. Deem and Ramdas Pophale) SiO2 
 PCOD8316395
Probable space group: P 42/M M C
;
_chemical_formula_sum "Si O2"
_cell_formula_units_Z 48
_cell_length_a 13.072604
_cell_length_b 13.072604
_cell_length_c 16.459616
_cell_angle_alpha 90.000000
_cell_angle_beta 90.000000
_cell_angle_gamma 90.000000
_cell_volume 2812.832751
_symmetry_space_group_name_H-M "P 42/M M C"
_symmetry_group_IT_number 131
_symmetry_cell_setting 'tetragonal'
loop_
_space_group_symop_operation_xyz
x,y,z
-x,-y,z
-y,x,1/2+z
y,-x,1/2+z
-x,y,-z
x,-y,-z
y,x,1/2-z
-y,-x,1/2-z
-x,-y,-z
x,y,-z
y,-x,1/2-z
-y,x,1/2-z
x,-y,z
-x,y,z
-y,-x,1/2+z
y,x,1/2+z
loop_
_atom_site_type_symbol
_atom_site_label
_atom_site_fract_x
_atom_site_fract_y
_atom_site_fract_z
Si Si1 0.883954 0.795503 0.828963
Si Si2 0.383537 0.779752 0.754266
Si Si3 0.880633 0.303714 0.408370
O O1 0.866282 0.866282 0.750000
O O2 0.855506 0.678602 0.805465
O O3 0.811683 0.836949 0.900631
O O4 0.000000 0.801586 0.859187
O O5 0.332848 0.667153 0.750000
O O6 0.500000 0.772848 0.724885
O O7 0.378680 0.822234 0.846429
O O8 0.861435 0.342388 0.500000
O O9 0.000000 0.304302 0.386617
#
# Coordination Sequence:
#
# PCOD8316395 Si02
#       3
#    16  16  16
#     4   9  17  28  43  64  91 123 156 188 219 256
#     4   9  18  32  49  68  89 114 148 191 232 269
#     4   9  18  30  44  68  99 124 147 178 218 264
#
# _framework density 17.064647999999998
#
# number of rings (size 3 to 8) (size 9 to 14) (size 15 to 20)
#    0.000    3.667    0.000    4.000    0.000    6.667 
#    0.000    3.333    0.000   16.000    0.000   18.667 
#    0.000    0.000    0.000    0.000    0.000    0.000 
#
# Total GULP energy -594914.356587 kJ/mol
# GULP energy per Si atom -12394.049096 kJ/mol
# Density = 1.702581 g / cm^3
# Si number density = 17.064648 Si / 1000 Ang^3
#
#
#
# Elastic Constant Matrix: (Units=GPa)
#
#
# Indices 1 2 3 4 5 6 
#
# 1 95.0510 23.3539 13.3221 0.0000 0.0000 0.0000
# 2 23.3539 95.0535 13.3227 0.0000 0.0000 0.0000
# 3 13.3221 13.3227 59.3958 0.0000 0.0000 0.0000
# 4 0.0000 0.0000 0.0000 12.5832 0.0000 0.0000
# 5 0.0000 0.0000 0.0000 0.0000 12.5828 0.0000
# 6 0.0000 0.0000 0.0000 0.0000 0.0000 7.4365
#
#
#
# Elastic Compliance Matrix: (Units=1/GPa)
#
#
# Indices 1 2 3 4 5 6 
#
# 1 0.011421 -0.002526 -0.001995 0.000000 0.000000 0.000000
# 2 -0.002526 0.011421 -0.001995 0.000000 0.000000 0.000000
# 3 -0.001995 -0.001995 0.017731 0.000000 0.000000 0.000000
# 4 0.000000 0.000000 0.000000 0.079471 0.000000 0.000000
# 5 0.000000 0.000000 0.000000 0.000000 0.079473 0.000000
# 6 0.000000 0.000000 0.000000 0.000000 0.000000 0.134471
#
#
# Mechanical properties :
#
#
# Convention : Reuss Voigt Hill
#
# Bulk Modulus (GPa) = 36.31081 38.83307 37.57194
# Shear Modulus (GPa) = 14.03700 19.82062 16.92881
#
# Velocity S-wave (km/s) = 2.87117 3.41178 3.15308
# Velocity P-wave (km/s) = 5.68472 6.19081 5.94316
#
# Compressibility (1/GPa) = 0.02754001
#
# Stress axis : x y z
#
# Youngs Moduli (GPa) = 87.55783 87.55997 56.39787
#
# Poissons Ratio (x) = 0.22121 0.11251
# Poissons Ratio (y) = 0.22121 0.11252
# Poissons Ratio (z) = 0.17468 0.17469
#
# Static dielectric constant tensor:
#      x y z
#    x 3.028790 0.000000 0.000000 
#    y 0.000000 3.028790 0.000000 
#    z 0.000000 0.000000 2.956850 
# 
# 
# High freq. dielectric constant tensor:
#      x y z
#    x 1.648540 0.000000 0.000000 
#    y 0.000000 1.648540 0.000000 
#    z 0.000000 0.000000 1.635520 
# 
# From -- ./inp_files/5111.got.cif
#   From: 2010.03.12/outbox.cif.g09.slc.cpg/sg131_3_cif.got.tgz:5111.got - 2010.04.06 17:36:35.
