data_PCOD8316262
_publ_section_title
;
Structure prediction by ZEFSAII (Michael W. Deem and Ramdas Pophale) SiO2 
 PCOD8316262
Probable space group: P 42/M M C
;
_chemical_formula_sum "Si O2"
_cell_formula_units_Z 42
_cell_length_a 7.913624
_cell_length_b 7.913624
_cell_length_c 31.903145
_cell_angle_alpha 90.000000
_cell_angle_beta 90.000000
_cell_angle_gamma 90.000000
_cell_volume 1997.948647
_symmetry_space_group_name_H-M "P 42/M M C"
_symmetry_group_IT_number 131
_symmetry_cell_setting 'tetragonal'
loop_
_space_group_symop_operation_xyz
x,y,z
-x,-y,z
-y,x,1/2+z
y,-x,1/2+z
-x,y,-z
x,-y,-z
y,x,1/2-z
-y,-x,1/2-z
-x,-y,-z
x,y,-z
y,-x,1/2-z
-y,x,1/2-z
x,-y,z
-x,y,z
-y,-x,1/2+z
y,x,1/2+z
loop_
_atom_site_type_symbol
_atom_site_label
_atom_site_fract_x
_atom_site_fract_y
_atom_site_fract_z
Si Si1 0.181585 0.193514 0.368013
Si Si2 0.500000 0.500000 0.250000
Si Si3 0.306920 0.301765 0.453703
Si Si4 0.500000 0.794550 0.684460
O O1 0.202528 0.208115 0.418001
O O2 0.337649 0.269467 0.342111
O O3 0.000000 0.277858 0.355645
O O4 0.173116 0.000000 0.355702
O O5 0.321211 0.500000 0.225528
O O6 0.235921 0.254950 0.500000
O O7 0.291887 0.500000 0.445949
O O8 0.500000 0.242342 0.450555
O O9 0.500000 0.000000 0.693475
#
# Coordination Sequence:
#
# PCOD8316262 Si02
#       4
#    16   2  16   8
#     4  10  21  37  59  86 119 161 201 243 298 354
#     4  12  28  44  76 100 114 156 200 232 308 392
#     4   9  18  32  52  81 119 161 206 254 296 340
#     4  10  24  46  65  93 129 151 190 251 302 363
#
# _framework density 21.021563
#
# number of rings (size 3 to 8) (size 9 to 14) (size 15 to 20)
#    0.000    2.286    1.905    1.143    2.667    3.810 
#    0.000    5.714    0.000    0.000    0.000    0.000 
#    0.000    0.000    0.000    0.000    0.000    0.000 
#
# Total GULP energy -520340.252735 kJ/mol
# GULP energy per Si atom -12389.053637 kJ/mol
# Density = 2.097372 g / cm^3
# Si number density = 21.021563 Si / 1000 Ang^3
#
#
#
# Elastic Constant Matrix: (Units=GPa)
#
#
# Indices 1 2 3 4 5 6 
#
# 1 103.1218 29.5084 51.8561 0.0000 0.0000 0.0000
# 2 29.5084 103.1218 51.8561 0.0000 0.0000 0.0000
# 3 51.8561 51.8561 125.6373 0.0000 0.0000 0.0000
# 4 0.0000 0.0000 0.0000 17.3928 0.0000 0.0000
# 5 0.0000 0.0000 0.0000 0.0000 17.3928 0.0000
# 6 0.0000 0.0000 0.0000 0.0000 0.0000 9.5401
#
#
#
# Elastic Compliance Matrix: (Units=1/GPa)
#
#
# Indices 1 2 3 4 5 6 
#
# 1 0.012359 -0.001226 -0.004595 0.000000 0.000000 0.000000
# 2 -0.001226 0.012359 -0.004595 0.000000 0.000000 0.000000
# 3 -0.004595 -0.004595 0.011753 0.000000 0.000000 0.000000
# 4 0.000000 0.000000 0.000000 0.057495 0.000000 0.000000
# 5 0.000000 0.000000 0.000000 0.000000 0.057495 0.000000
# 6 0.000000 0.000000 0.000000 0.000000 0.000000 0.104821
#
#
# Mechanical properties :
#
#
# Convention : Reuss Voigt Hill
#
# Bulk Modulus (GPa) = 63.94587 66.48024 65.21305
# Shear Modulus (GPa) = 17.71006 22.10917 19.90961
#
# Velocity S-wave (km/s) = 2.90568 3.24657 3.08084
# Velocity P-wave (km/s) = 6.46085 6.76366 6.61399
#
# Compressibility (1/GPa) = 0.01563823
#
# Stress axis : x y z
#
# Youngs Moduli (GPa) = 80.91467 80.91467 85.08772
#
# Poissons Ratio (x) = 0.09918 0.39098
# Poissons Ratio (y) = 0.09918 0.39098
# Poissons Ratio (z) = 0.37181 0.37181
#
# Static dielectric constant tensor:
#      x y z
#    x 3.935710 0.000000 0.000000 
#    y 0.000000 3.935710 0.000000 
#    z 0.000000 0.000000 3.689270 
# 
# 
# High freq. dielectric constant tensor:
#      x y z
#    x 1.817990 0.000000 0.000000 
#    y 0.000000 1.817990 0.000000 
#    z 0.000000 0.000000 1.806360 
# 
# From -- ./inp_files/11742.got.cif
#   From: 2010.03.12/outbox.cif.g09.slc.cpg/sg131_6_cif.got.tgz:11742.got - 2010.04.06 17:36:35.
