data_PCOD8316513
_publ_section_title
;
Structure prediction by ZEFSAII (Michael W. Deem and Ramdas Pophale) SiO2 
 PCOD8316513
Probable space group: P 42/M C M
;
_chemical_formula_sum "Si O2"
_cell_formula_units_Z 96
_cell_length_a 17.818480
_cell_length_b 17.818480
_cell_length_c 17.823231
_cell_angle_alpha 90.000000
_cell_angle_beta 90.000000
_cell_angle_gamma 90.000000
_cell_volume 5658.844287
_symmetry_space_group_name_H-M "P 42/M C M"
_symmetry_group_IT_number 132
_symmetry_cell_setting 'tetragonal'
loop_
_space_group_symop_operation_xyz
x,y,z
-y,x,1/2+z
-x,-y,z
y,-x,1/2+z
x,-y,1/2-z
-x,y,1/2-z
y,x,-z
-y,-x,-z
-x,-y,-z
y,-x,1/2-z
x,y,-z
-y,x,1/2-z
-x,y,1/2+z
x,-y,1/2+z
-y,-x,z
y,x,z
loop_
_atom_site_type_symbol
_atom_site_label
_atom_site_fract_x
_atom_site_fract_y
_atom_site_fract_z
Si Si1 0.204810 0.086969 0.588359
Si Si2 0.818334 0.442580 0.806588
Si Si3 0.923445 0.343413 0.293039
Si Si4 0.053065 0.177245 0.817068
Si Si5 0.540202 0.921165 0.084694
Si Si6 0.798965 0.325508 0.917228
O O1 0.198775 0.089459 0.500000
O O2 0.137159 0.137159 0.623392
O O3 0.285500 0.123575 0.611916
O O4 0.196840 0.001252 0.613585
O O5 0.774134 0.500000 0.750000
O O6 0.859984 0.385453 0.752433
O O7 0.871154 0.488258 0.862310
O O8 0.768623 0.390310 0.861085
O O9 0.904443 0.254454 0.295606
O O10 0.928487 0.377692 0.377185
O O11 0.000000 0.358029 0.250000
O O12 0.113536 0.113536 0.838477
O O13 0.000000 0.148293 0.750000
O O14 0.500000 0.000000 0.079100
O O15 0.549805 0.888078 0.000000
O O16 0.736839 0.263162 0.923221
O O17 0.812684 0.360599 0.000000
#
# Coordination Sequence:
#
# PCOD8316513 Si02
#       6
#    16  16  16  16  16  16
#     4   9  19  34  50  67  85 110 152 207 258 294
#     4  10  19  29  46  68  99 126 152 189 231 283
#     4  10  19  32  44  62  91 119 149 194 237 294
#     4  11  23  35  48  65  86 119 163 207 250 291
#     4  10  19  29  46  69  91 118 149 183 235 293
#     4   9  17  31  51  74  99 128 163 201 243 290
#
# _framework density 16.964594999999999
#
# number of rings (size 3 to 8) (size 9 to 14) (size 15 to 20)
#    0.000    2.167    1.667    4.000    0.000    4.167 
#    0.000    0.833    0.000    0.000    0.000    0.000 
#    0.000    2.333    0.000    1.833    0.000    1.833 
#
# Total GULP energy -1189301.022596 kJ/mol
# GULP energy per Si atom -12388.552319 kJ/mol
# Density = 1.692598 g / cm^3
# Si number density = 16.964595 Si / 1000 Ang^3
#
#
#
# Elastic Constant Matrix: (Units=GPa)
#
#
# Indices 1 2 3 4 5 6 
#
# 1 59.4000 23.4366 34.2614 0.0000 0.0000 0.0000
# 2 23.4366 59.4000 34.2614 0.0000 0.0000 0.0000
# 3 34.2614 34.2614 89.0106 0.0000 0.0000 0.0000
# 4 0.0000 0.0000 0.0000 35.7291 0.0000 0.0000
# 5 0.0000 0.0000 0.0000 0.0000 35.7291 0.0000
# 6 0.0000 0.0000 0.0000 0.0000 0.0000 14.5227
#
#
#
# Elastic Compliance Matrix: (Units=1/GPa)
#
#
# Indices 1 2 3 4 5 6 
#
# 1 0.022759 -0.005047 -0.006817 0.000000 0.000000 0.000000
# 2 -0.005047 0.022759 -0.006817 0.000000 0.000000 0.000000
# 3 -0.006817 -0.006817 0.016483 0.000000 0.000000 0.000000
# 4 0.000000 0.000000 0.000000 0.027988 0.000000 0.000000
# 5 0.000000 0.000000 0.000000 0.000000 0.027988 0.000000
# 6 0.000000 0.000000 0.000000 0.000000 0.000000 0.068858
#
#
# Mechanical properties :
#
#
# Convention : Reuss Voigt Hill
#
# Bulk Modulus (GPa) = 40.59088 43.52546 42.05817
# Shear Modulus (GPa) = 21.51364 24.91960 23.21662
#
# Velocity S-wave (km/s) = 3.56497 3.83680 3.70338
# Velocity P-wave (km/s) = 6.39720 6.73353 6.56752
#
# Compressibility (1/GPa) = 0.02463607
#
# Stress axis : x y z
#
# Youngs Moduli (GPa) = 43.93928 43.93928 60.66946
#
# Poissons Ratio (x) = 0.22178 0.41360
# Poissons Ratio (y) = 0.22178 0.41360
# Poissons Ratio (z) = 0.29955 0.29955
#
# Static dielectric constant tensor:
#      x y z
#    x 3.131560 0.000000 0.000000 
#    y 0.000000 3.131560 0.000000 
#    z 0.000000 0.000000 3.609190 
# 
# 
# High freq. dielectric constant tensor:
#      x y z
#    x 1.622760 0.000000 0.000000 
#    y 0.000000 1.622760 0.000000 
#    z 0.000000 0.000000 1.673950 
# 
# From -- ./inp_files/6435.got.cif
#   From: 2010.03.12/outbox.cif.g09.slc.cpg/sg132_4_cif.got.tgz:6435.got - 2010.04.06 17:53:44.
