data_PCOD8316586
_publ_section_title
;
Structure prediction by ZEFSAII (Michael W. Deem and Ramdas Pophale) SiO2 
 PCOD8316586
Probable space group: P 42/M C M
;
_chemical_formula_sum "Si O2"
_cell_formula_units_Z 96
_cell_length_a 23.244521
_cell_length_b 23.244521
_cell_length_c 9.152888
_cell_angle_alpha 90.000000
_cell_angle_beta 90.000000
_cell_angle_gamma 90.000000
_cell_volume 4945.376381
_symmetry_space_group_name_H-M "P 42/M C M"
_symmetry_group_IT_number 132
_symmetry_cell_setting 'tetragonal'
loop_
_space_group_symop_operation_xyz
x,y,z
-y,x,1/2+z
-x,-y,z
y,-x,1/2+z
x,-y,1/2-z
-x,y,1/2-z
y,x,-z
-y,-x,-z
-x,-y,-z
y,-x,1/2-z
x,y,-z
-y,x,1/2-z
-x,y,1/2+z
x,-y,1/2+z
-y,-x,z
y,x,z
loop_
_atom_site_type_symbol
_atom_site_label
_atom_site_fract_x
_atom_site_fract_y
_atom_site_fract_z
Si Si1 0.550131 0.891274 0.841927
Si Si2 0.057124 0.358599 0.663996
Si Si3 0.447805 0.760623 0.341350
Si Si4 0.250512 0.126088 0.333340
Si Si5 0.225881 0.319348 0.832064
Si Si6 0.847517 0.061033 0.331067
O O1 0.500000 0.923456 0.750000
O O2 0.609202 0.892061 0.750205
O O3 0.532408 0.825829 0.865916
O O4 0.557513 0.921559 0.000000
O O5 0.052580 0.382398 0.500000
O O6 0.070146 0.291147 0.665205
O O7 0.000000 0.373421 0.750000
O O8 0.500000 0.730414 0.250000
O O9 0.444706 0.729648 0.500000
O O10 0.383607 0.760565 0.268831
O O11 0.233054 0.142276 0.500000
O O12 0.283703 0.179784 0.262560
O O13 0.195214 0.107684 0.240788
O O14 0.285747 0.285747 0.826863
O O15 0.202992 0.324870 0.000000
O O16 0.829750 0.051476 0.500000
O O17 0.911330 0.088671 0.320514
O O18 0.846821 0.000000 0.250000
#
# Coordination Sequence:
#
# PCOD8316586 Si02
#       6
#    16  16  16  16  16  16
#     4  10  19  33  52  72  98 133 175 223 271 320
#     4  11  23  36  51  73 100 135 179 226 271 319
#     4   9  18  32  52  77 106 145 184 224 271 322
#     4  11  23  38  58  84 114 147 182 222 271 326
#     4  10  20  35  56  83 115 150 188 228 272 325
#     4  11  25  44  66  90 115 144 178 220 273 334
#
# _framework density 19.412071999999998
#
# number of rings (size 3 to 8) (size 9 to 14) (size 15 to 20)
#    0.000    1.667    1.667    3.000    0.000    8.833 
#    0.000    2.500    0.000    0.000    0.000    0.000 
#    0.000    0.333    0.000    4.167    0.000    0.000 
#
# Total GULP energy -1189709.840220 kJ/mol
# GULP energy per Si atom -12392.810836 kJ/mol
# Density = 1.936789 g / cm^3
# Si number density = 19.412072 Si / 1000 Ang^3
#
#
#
# Elastic Constant Matrix: (Units=GPa)
#
#
# Indices 1 2 3 4 5 6 
#
# 1 77.3042 36.2447 45.6394 0.0000 0.0000 0.0000
# 2 36.2447 77.3042 45.6394 0.0000 0.0000 0.0000
# 3 45.6394 45.6394 149.5575 0.0000 0.0000 0.0000
# 4 0.0000 0.0000 0.0000 23.7871 0.0000 0.0000
# 5 0.0000 0.0000 0.0000 0.0000 23.7871 0.0000
# 6 0.0000 0.0000 0.0000 0.0000 0.0000 12.5827
#
#
#
# Elastic Compliance Matrix: (Units=1/GPa)
#
#
# Indices 1 2 3 4 5 6 
#
# 1 0.018012 -0.006343 -0.003561 0.000000 0.000000 0.000000
# 2 -0.006343 0.018012 -0.003561 0.000000 0.000000 0.000000
# 3 -0.003561 -0.003561 0.008860 0.000000 0.000000 0.000000
# 4 0.000000 0.000000 0.000000 0.042040 0.000000 0.000000
# 5 0.000000 0.000000 0.000000 0.000000 0.042040 0.000000
# 6 0.000000 0.000000 0.000000 0.000000 0.000000 0.079474
#
#
# Mechanical properties :
#
#
# Convention : Reuss Voigt Hill
#
# Bulk Modulus (GPa) = 55.69676 62.13474 58.91575
# Shear Modulus (GPa) = 20.71660 23.80754 22.26207
#
# Velocity S-wave (km/s) = 3.27035 3.50584 3.39014
# Velocity P-wave (km/s) = 6.55853 6.96173 6.76314
#
# Compressibility (1/GPa) = 0.01795437
#
# Stress axis : x y z
#
# Youngs Moduli (GPa) = 55.51803 55.51803 112.86932
#
# Poissons Ratio (x) = 0.35214 0.40194
# Poissons Ratio (y) = 0.35214 0.40194
# Poissons Ratio (z) = 0.19770 0.19770
#
# Static dielectric constant tensor:
#      x y z
#    x 3.364820 0.000000 0.000000 
#    y 0.000000 3.364820 0.000000 
#    z 0.000000 0.000000 3.981740 
# 
# 
# High freq. dielectric constant tensor:
#      x y z
#    x 1.733950 0.000000 0.000000 
#    y 0.000000 1.733950 0.000000 
#    z 0.000000 0.000000 1.769610 
# 
# From -- ./inp_files/1745.got.cif
#   From: 2010.03.12/outbox.cif.g09.slc.cpg/sg132_1_cif.got.tgz:1745.got - 2010.04.06 17:53:44.
