data_PCOD8316649
_publ_section_title
;
Structure prediction by ZEFSAII (Michael W. Deem and Ramdas Pophale) SiO2 
 PCOD8316649
Probable space group: P 42/M C M
;
_chemical_formula_sum "Si O2"
_cell_formula_units_Z 96
_cell_length_a 23.937418
_cell_length_b 23.937418
_cell_length_c 9.615833
_cell_angle_alpha 90.000000
_cell_angle_beta 90.000000
_cell_angle_gamma 90.000000
_cell_volume 5509.872122
_symmetry_space_group_name_H-M "P 42/M C M"
_symmetry_group_IT_number 132
_symmetry_cell_setting 'tetragonal'
loop_
_space_group_symop_operation_xyz
x,y,z
-y,x,1/2+z
-x,-y,z
y,-x,1/2+z
x,-y,1/2-z
-x,y,1/2-z
y,x,-z
-y,-x,-z
-x,-y,-z
y,-x,1/2-z
x,y,-z
-y,x,1/2-z
-x,y,1/2+z
x,-y,1/2+z
-y,-x,z
y,x,z
loop_
_atom_site_type_symbol
_atom_site_label
_atom_site_fract_x
_atom_site_fract_y
_atom_site_fract_z
Si Si1 0.668682 0.331319 0.164793
Si Si2 0.946247 0.856239 0.342449
Si Si3 0.276554 0.554509 0.162357
Si Si4 0.748887 0.118248 0.164745
Si Si5 0.641313 0.054353 0.162860
Si Si6 0.851470 0.552186 0.658942
Si Si7 0.242659 0.242659 0.333526
O O1 0.684839 0.393891 0.213389
O O2 0.713001 0.287000 0.227586
O O3 0.672457 0.327544 0.000000
O O4 0.964283 0.842346 0.500000
O O5 0.914834 0.914834 0.334520
O O6 0.905903 0.807873 0.284163
O O7 0.000000 0.861118 0.250000
O O8 0.293840 0.500000 0.250000
O O9 0.212049 0.571370 0.190770
O O10 0.286331 0.541381 0.000000
O O11 0.701397 0.075590 0.216493
O O12 0.741092 0.180988 0.223523
O O13 0.746502 0.122665 0.000000
O O14 0.601123 0.106051 0.195703
O O15 0.623288 0.000000 0.250000
O O16 0.640891 0.038746 0.000000
O O17 0.869490 0.500000 0.750000
O O18 0.856990 0.533597 0.500000
O O19 0.243196 0.243196 0.500000
#
# Coordination Sequence:
#
# PCOD8316649 Si02
#       7
#     8  16  16  16  16  16   8
#     4   9  16  26  47  78 104 126 161 204 241 279
#     4  10  20  34  51  71  93 119 152 189 232 283
#     4   9  17  31  50  74 102 131 162 200 243 286
#     4   9  16  29  48  71  97 121 149 191 243 292
#     4  10  20  32  47  69  95 124 159 198 239 287
#     4   9  18  32  49  69  95 127 163 200 240 284
#     4   9  14  24  48  77  99 119 149 199 249 283
#
# _framework density 17.423272000000001
#
# number of rings (size 3 to 8) (size 9 to 14) (size 15 to 20)
#    0.000    2.667    0.833    1.500    0.000    5.500 
#    0.000    2.917    0.000    0.250    0.000    5.250 
#    0.000    0.000    0.000    0.000    0.000    0.000 
#
# Total GULP energy -1190187.535492 kJ/mol
# GULP energy per Si atom -12397.786828 kJ/mol
# Density = 1.738362 g / cm^3
# Si number density = 17.423272 Si / 1000 Ang^3
#
#
#
# Elastic Constant Matrix: (Units=GPa)
#
#
# Indices 1 2 3 4 5 6 
#
# 1 123.0107 62.7263 43.6004 0.0000 0.0000 0.0000
# 2 62.7263 123.0108 43.6003 0.0000 0.0000 0.0000
# 3 43.6004 43.6003 41.4045 0.0000 0.0000 0.0000
# 4 0.0000 0.0000 0.0000 22.2063 0.0000 0.0000
# 5 0.0000 0.0000 0.0000 0.0000 22.2063 0.0000
# 6 0.0000 0.0000 0.0000 0.0000 0.0000 19.8958
#
#
#
# Elastic Compliance Matrix: (Units=1/GPa)
#
#
# Indices 1 2 3 4 5 6 
#
# 1 0.013618 -0.002970 -0.011213 0.000000 0.000000 0.000000
# 2 -0.002970 0.013618 -0.011213 0.000000 0.000000 0.000000
# 3 -0.011213 -0.011213 0.047767 0.000000 0.000000 0.000000
# 4 0.000000 0.000000 0.000000 0.045032 0.000000 0.000000
# 5 0.000000 0.000000 0.000000 0.000000 0.045032 0.000000
# 6 0.000000 0.000000 0.000000 0.000000 0.000000 0.050262
#
#
# Mechanical properties :
#
#
# Convention : Reuss Voigt Hill
#
# Bulk Modulus (GPa) = 41.30210 65.25334 53.27772
# Shear Modulus (GPa) = 18.23538 22.02828 20.13183
#
# Velocity S-wave (km/s) = 3.23865 3.55956 3.40289
# Velocity P-wave (km/s) = 6.14343 7.37747 6.78855
#
# Compressibility (1/GPa) = 0.02421185
#
# Stress axis : x y z
#
# Youngs Moduli (GPa) = 73.43127 73.43153 20.93486
#
# Poissons Ratio (x) = 0.21808 0.23474
# Poissons Ratio (y) = 0.21808 0.23474
# Poissons Ratio (z) = 0.82339 0.82338
#
# Static dielectric constant tensor:
#      x y z
#    x 3.345370 0.000000 0.000000 
#    y 0.000000 3.345380 0.000000 
#    z 0.000000 0.000000 2.924300 
# 
# 
# High freq. dielectric constant tensor:
#      x y z
#    x 1.676340 0.000000 0.000000 
#    y 0.000000 1.676340 0.000000 
#    z 0.000000 0.000000 1.630420 
# 
# From -- ./inp_files/3449.got.cif
#   From: 2010.03.12/outbox.cif.g09.slc.cpg/sg132_2_cif.got.tgz:3449.got - 2010.04.06 17:53:44.
