data_PCOD8316271
_publ_section_title
;
Structure prediction by ZEFSAII (Michael W. Deem and Ramdas Pophale) SiO2 
 PCOD8316271
Probable space group: P 42/M M C
;
_chemical_formula_sum "Si O2"
_cell_formula_units_Z 88
_cell_length_a 14.418225
_cell_length_b 14.418225
_cell_length_c 20.738352
_cell_angle_alpha 90.000000
_cell_angle_beta 90.000000
_cell_angle_gamma 90.000000
_cell_volume 4311.196705
_symmetry_space_group_name_H-M "P 42/M M C"
_symmetry_group_IT_number 131
_symmetry_cell_setting 'tetragonal'
loop_
_space_group_symop_operation_xyz
x,y,z
-x,-y,z
-y,x,1/2+z
y,-x,1/2+z
-x,y,-z
x,-y,-z
y,x,1/2-z
-y,-x,1/2-z
-x,-y,-z
x,y,-z
y,-x,1/2-z
-y,x,1/2-z
x,-y,z
-x,y,z
-y,-x,1/2+z
y,x,1/2+z
loop_
_atom_site_type_symbol
_atom_site_label
_atom_site_fract_x
_atom_site_fract_y
_atom_site_fract_z
Si Si1 0.602332 0.234196 0.886583
Si Si2 0.896283 0.299067 0.137392
Si Si3 0.896120 0.652613 0.281978
Si Si4 0.269001 0.607279 0.074952
Si Si5 0.610219 0.895702 0.000000
Si Si6 0.142243 0.100391 0.822299
O O1 0.500000 0.264685 0.908694
O O2 0.592391 0.182670 0.817354
O O3 0.661858 0.328543 0.883247
O O4 0.645381 0.160649 0.937438
O O5 0.865493 0.333037 0.208293
O O6 0.833390 0.351065 0.085285
O O7 0.892386 0.186514 0.134360
O O8 0.000000 0.330792 0.121650
O O9 0.895273 0.747798 0.320681
O O10 0.000000 0.608117 0.285619
O O11 0.274734 0.500000 0.097993
O O12 0.295088 0.614649 0.000000
O O13 0.500000 0.904085 0.000000
O O14 0.653034 0.000000 0.000000
O O15 0.103478 0.103478 0.750000
O O16 0.111093 0.000000 0.851743
#
# Coordination Sequence:
#
# PCOD8316271 Si02
#       6
#    16  16  16  16   8  16
#     4  11  21  36  60  88 119 153 188 235 295 358
#     4  10  21  38  61  88 118 153 196 245 294 347
#     4   9  18  33  57  91 127 159 188 225 283 355
#     4  11  25  44  63  81 106 148 206 264 307 342
#     4   9  18  32  53  85 120 151 183 219 271 349
#     4   9  16  28  51  85 123 158 188 220 268 339
#
# _framework density 20.411967000000001
#
# number of rings (size 3 to 8) (size 9 to 14) (size 15 to 20)
#    0.000    2.091    2.727    2.182    0.000    4.182 
#    0.000    3.636    0.000    0.000    0.000    3.818 
#    0.000    0.000    0.000    0.000    0.000    0.000 
#
# Total GULP energy -1090706.088927 kJ/mol
# GULP energy per Si atom -12394.387374 kJ/mol
# Density = 2.036551 g / cm^3
# Si number density = 20.411967 Si / 1000 Ang^3
#
#
#
# Elastic Constant Matrix: (Units=GPa)
#
#
# Indices 1 2 3 4 5 6 
#
# 1 112.3309 42.9395 20.0850 0.0000 0.0000 0.0000
# 2 42.9395 112.3309 20.0850 0.0000 0.0000 0.0000
# 3 20.0850 20.0850 37.3348 0.0000 0.0000 0.0000
# 4 0.0000 0.0000 0.0000 23.6789 0.0000 0.0000
# 5 0.0000 0.0000 0.0000 0.0000 23.6789 0.0000
# 6 0.0000 0.0000 0.0000 0.0000 0.0000 10.0013
#
#
#
# Elastic Compliance Matrix: (Units=1/GPa)
#
#
# Indices 1 2 3 4 5 6 
#
# 1 0.010946 -0.003465 -0.004025 0.000000 0.000000 0.000000
# 2 -0.003465 0.010946 -0.004025 0.000000 0.000000 0.000000
# 3 -0.004025 -0.004025 0.031115 0.000000 0.000000 0.000000
# 4 0.000000 0.000000 0.000000 0.042232 0.000000 0.000000
# 5 0.000000 0.000000 0.000000 0.000000 0.042232 0.000000
# 6 0.000000 0.000000 0.000000 0.000000 0.000000 0.099987
#
#
# Mechanical properties :
#
#
# Convention : Reuss Voigt Hill
#
# Bulk Modulus (GPa) = 33.35681 47.57951 40.46816
# Shear Modulus (GPa) = 18.48565 23.39763 20.94164
#
# Velocity S-wave (km/s) = 3.01263 3.38933 3.20652
# Velocity P-wave (km/s) = 5.33653 6.21908 5.79463
#
# Compressibility (1/GPa) = 0.02997889
#
# Stress axis : x y z
#
# Youngs Moduli (GPa) = 91.35487 91.35487 32.13867
#
# Poissons Ratio (x) = 0.31651 0.12935
# Poissons Ratio (y) = 0.31651 0.12935
# Poissons Ratio (z) = 0.36769 0.36769
#
# Static dielectric constant tensor:
#      x y z
#    x 3.720860 0.000000 0.000000 
#    y 0.000000 3.720860 0.000000 
#    z 0.000000 0.000000 3.362300 
# 
# 
# High freq. dielectric constant tensor:
#      x y z
#    x 1.794360 0.000000 0.000000 
#    y 0.000000 1.794360 0.000000 
#    z 0.000000 0.000000 1.760380 
# 
# From -- ./inp_files/9562.got.cif
#   From: 2010.03.12/outbox.cif.g09.slc.cpg/sg131_5_cif.got.tgz:9562.got - 2010.04.06 17:36:35.
