data_PCOD8316471
_publ_section_title
;
Structure prediction by ZEFSAII (Michael W. Deem and Ramdas Pophale) SiO2 
 PCOD8316471
Probable space group: P 42/M C M
;
_chemical_formula_sum "Si O2"
_cell_formula_units_Z 74
_cell_length_a 21.820886
_cell_length_b 21.820886
_cell_length_c 10.146535
_cell_angle_alpha 90.000000
_cell_angle_beta 90.000000
_cell_angle_gamma 90.000000
_cell_volume 4831.283455
_symmetry_space_group_name_H-M "P 42/M C M"
_symmetry_group_IT_number 132
_symmetry_cell_setting 'tetragonal'
loop_
_space_group_symop_operation_xyz
x,y,z
-y,x,1/2+z
-x,-y,z
y,-x,1/2+z
x,-y,1/2-z
-x,y,1/2-z
y,x,-z
-y,-x,-z
-x,-y,-z
y,-x,1/2-z
x,y,-z
-y,x,1/2-z
-x,y,1/2+z
x,-y,1/2+z
-y,-x,z
y,x,z
loop_
_atom_site_type_symbol
_atom_site_label
_atom_site_fract_x
_atom_site_fract_y
_atom_site_fract_z
Si Si1 0.817949 0.000000 0.750000
Si Si2 0.002652 0.098932 0.500000
Si Si3 0.682162 0.777225 0.344998
Si Si4 0.875964 0.774728 0.345632
Si Si5 0.594299 0.594299 0.649547
Si Si6 0.500000 0.500000 0.750000
Si Si7 0.445587 0.726611 0.843164
O O1 0.860658 0.009164 0.626001
O O2 0.776395 0.060592 0.765398
O O3 0.956552 0.043449 0.500000
O O4 0.072123 0.072123 0.500000
O O5 0.690957 0.773845 0.500000
O O6 0.719469 0.719469 0.283589
O O7 0.712809 0.840980 0.297522
O O8 0.610653 0.772121 0.309628
O O9 0.891812 0.772795 0.500000
O O10 0.833655 0.833655 0.314017
O O11 0.609476 0.609476 0.500000
O O12 0.542407 0.542407 0.659226
O O13 0.571257 0.658394 0.710019
O O14 0.500000 0.750773 0.750000
O O15 0.462463 0.727481 0.000000
#
# Coordination Sequence:
#
# PCOD8316471 Si02
#       7
#     8   8  16  16   8   2  16
#     4  12  20  31  48  68  95 124 162 198 228 272
#     4  11  22  32  44  64  96 134 163 186 218 266
#     4   8  14  27  49  69  87 115 160 201 234 271
#     4   9  17  30  48  70  91 119 158 203 236 269
#     4  10  19  27  39  60  91 123 160 186 219 263
#     4  12  18  28  36  58  92 140 158 192 206 264
#     4  10  18  30  47  68  91 120 154 194 232 276
#
# _framework density 15.316841999999999
#
# number of rings (size 3 to 8) (size 9 to 14) (size 15 to 20)
#    0.000    2.270    3.243    3.405    0.000    0.865 
#    0.000    0.541    2.378    0.000    0.000    0.757 
#    0.000    5.189    0.000    0.000    0.000    0.000 
#
# Total GULP energy -917076.763093 kJ/mol
# GULP energy per Si atom -12392.929231 kJ/mol
# Density = 1.528198 g / cm^3
# Si number density = 15.316842 Si / 1000 Ang^3
#
#
#
# Elastic Constant Matrix: (Units=GPa)
#
#
# Indices 1 2 3 4 5 6 
#
# 1 101.4956 70.2145 35.4189 0.0000 0.0000 0.0000
# 2 70.2145 101.4958 35.4190 0.0000 0.0000 0.0000
# 3 35.4189 35.4190 58.7142 0.0000 0.0000 0.0000
# 4 0.0000 0.0000 0.0000 25.6064 0.0000 0.0000
# 5 0.0000 0.0000 0.0000 0.0000 25.5941 0.0000
# 6 0.0000 0.0000 0.0000 0.0000 0.0000 29.2972
#
#
#
# Elastic Compliance Matrix: (Units=1/GPa)
#
#
# Indices 1 2 3 4 5 6 
#
# 1 0.019861 -0.012107 -0.004677 0.000000 0.000000 0.000000
# 2 -0.012107 0.019861 -0.004677 0.000000 0.000000 0.000000
# 3 -0.004677 -0.004677 0.022675 0.000000 0.000000 0.000000
# 4 0.000000 0.000000 0.000000 0.039053 0.000000 0.000000
# 5 0.000000 0.000000 0.000000 0.000000 0.039072 0.000000
# 6 0.000000 0.000000 0.000000 0.000000 0.000000 0.034133
#
#
# Mechanical properties :
#
#
# Convention : Reuss Voigt Hill
#
# Bulk Modulus (GPa) = 51.35414 60.42339 55.88876
# Shear Modulus (GPa) = 22.31472 24.14307 23.22889
#
# Velocity S-wave (km/s) = 3.82104 3.97450 3.89853
# Velocity P-wave (km/s) = 7.28477 7.78440 7.53872
#
# Compressibility (1/GPa) = 0.01947263
#
# Stress axis : x y z
#
# Youngs Moduli (GPa) = 50.35067 50.35074 44.10236
#
# Poissons Ratio (x) = 0.60962 0.20627
# Poissons Ratio (y) = 0.60962 0.20627
# Poissons Ratio (z) = 0.23550 0.23550
#
# Static dielectric constant tensor:
#      x y z
#    x 3.037840 0.000000 0.000000 
#    y 0.000000 3.037840 0.000000 
#    z 0.000000 0.000000 2.624530 
# 
# 
# High freq. dielectric constant tensor:
#      x y z
#    x 1.577280 0.000000 0.000000 
#    y 0.000000 1.577280 0.000000 
#    z 0.000000 0.000000 1.557210 
# 
# From -- ./inp_files/3362.got.cif
#   From: 2010.03.12/outbox.cif.g09.slc.cpg/sg132_2_cif.got.tgz:3362.got - 2010.04.06 17:53:44.
