data_PCOD8316173
_publ_section_title
;
Structure prediction by ZEFSAII (Michael W. Deem and Ramdas Pophale) SiO2 
 PCOD8316173
Probable space group: P 42/M M C
;
_chemical_formula_sum "Si O2"
_cell_formula_units_Z 40
_cell_length_a 8.104055
_cell_length_b 8.104055
_cell_length_c 28.938806
_cell_angle_alpha 90.000000
_cell_angle_beta 90.000000
_cell_angle_gamma 90.000000
_cell_volume 1900.576557
_symmetry_space_group_name_H-M "P 42/M M C"
_symmetry_group_IT_number 131
_symmetry_cell_setting 'tetragonal'
loop_
_space_group_symop_operation_xyz
x,y,z
-x,-y,z
-y,x,1/2+z
y,-x,1/2+z
-x,y,-z
x,-y,-z
y,x,1/2-z
-y,-x,1/2-z
-x,-y,-z
x,y,-z
y,-x,1/2-z
-y,x,1/2-z
x,-y,z
-x,y,z
-y,-x,1/2+z
y,x,1/2+z
loop_
_atom_site_type_symbol
_atom_site_label
_atom_site_fract_x
_atom_site_fract_y
_atom_site_fract_z
Si Si1 0.195251 0.816013 0.608234
Si Si2 0.311651 0.185758 0.203817
Si Si3 0.307120 0.500000 0.551241
O O1 0.260236 0.791577 0.660828
O O2 0.258265 0.670248 0.575832
O O3 0.000000 0.802851 0.608932
O O4 0.251787 0.000000 0.591302
O O5 0.291807 0.291807 0.250000
O O6 0.500000 0.191052 0.187625
O O7 0.254102 0.000000 0.215199
O O8 0.500000 0.500000 0.547241
O O9 0.226931 0.500000 0.500000
#
# Coordination Sequence:
#
# PCOD8316173 Si02
#       3
#    16  16   8
#     4  10  21  40  66  92 121 159 206 262 316 371
#     4  10  20  35  56  84 120 160 202 248 302 367
#     4  11  25  43  63  89 125 165 205 257 317 382
#
# _framework density 21.046246
#
# number of rings (size 3 to 8) (size 9 to 14) (size 15 to 20)
#    0.000    1.800    2.000    1.800    0.000    7.200 
#    0.000    4.000    0.000    0.000    0.000    0.000 
#    0.000    0.000    0.000    0.000    0.000    0.000 
#
# Total GULP energy -495797.472250 kJ/mol
# GULP energy per Si atom -12394.936806 kJ/mol
# Density = 2.099834 g / cm^3
# Si number density = 21.046246 Si / 1000 Ang^3
#
#
#
# Elastic Constant Matrix: (Units=GPa)
#
#
# Indices 1 2 3 4 5 6 
#
# 1 103.0044 33.7223 58.5231 0.0000 0.0000 0.0000
# 2 33.7223 103.0044 58.5231 0.0000 0.0000 0.0000
# 3 58.5231 58.5231 160.2912 0.0000 0.0000 0.0000
# 4 0.0000 0.0000 0.0000 27.8678 0.0000 0.0000
# 5 0.0000 0.0000 0.0000 0.0000 27.8678 0.0000
# 6 0.0000 0.0000 0.0000 0.0000 0.0000 21.8150
#
#
#
# Elastic Compliance Matrix: (Units=1/GPa)
#
#
# Indices 1 2 3 4 5 6 
#
# 1 0.012536 -0.001897 -0.003884 0.000000 0.000000 0.000000
# 2 -0.001897 0.012536 -0.003884 0.000000 0.000000 0.000000
# 3 -0.003884 -0.003884 0.009075 0.000000 0.000000 0.000000
# 4 0.000000 0.000000 0.000000 0.035884 0.000000 0.000000
# 5 0.000000 0.000000 0.000000 0.000000 0.035884 0.000000
# 6 0.000000 0.000000 0.000000 0.000000 0.000000 0.045840
#
#
# Mechanical properties :
#
#
# Convention : Reuss Voigt Hill
#
# Bulk Modulus (GPa) = 67.49575 74.20408 70.84992
# Shear Modulus (GPa) = 28.40488 29.87891 29.14189
#
# Velocity S-wave (km/s) = 3.67773 3.77195 3.72514
# Velocity P-wave (km/s) = 7.08337 7.36915 7.22767
#
# Compressibility (1/GPa) = 0.01481575
#
# Stress axis : x y z
#
# Youngs Moduli (GPa) = 79.76753 79.76753 110.19197
#
# Poissons Ratio (x) = 0.15134 0.42803
# Poissons Ratio (y) = 0.15134 0.42803
# Poissons Ratio (z) = 0.30985 0.30985
#
# Static dielectric constant tensor:
#      x y z
#    x 3.802860 0.000000 0.000000 
#    y 0.000000 3.802860 0.000000 
#    z 0.000000 0.000000 4.038000 
# 
# 
# High freq. dielectric constant tensor:
#      x y z
#    x 1.821550 0.000000 0.000000 
#    y 0.000000 1.821550 0.000000 
#    z 0.000000 0.000000 1.823160 
# 
# From -- ./inp_files/10349.got.cif
#   From: 2010.03.12/outbox.cif.g09.slc.cpg/sg131_6_cif.got.tgz:10349.got - 2010.04.06 17:36:35.
