data_PCOD8316710
_publ_section_title
;
Structure prediction by ZEFSAII (Michael W. Deem and Ramdas Pophale) SiO2 
 PCOD8316710
Probable space group: P 42/M C M
;
_chemical_formula_sum "Si O2"
_cell_formula_units_Z 88
_cell_length_a 17.955313
_cell_length_b 17.955313
_cell_length_c 15.204982
_cell_angle_alpha 90.000000
_cell_angle_beta 90.000000
_cell_angle_gamma 90.000000
_cell_volume 4901.983790
_symmetry_space_group_name_H-M "P 42/M C M"
_symmetry_group_IT_number 132
_symmetry_cell_setting 'tetragonal'
loop_
_space_group_symop_operation_xyz
x,y,z
-y,x,1/2+z
-x,-y,z
y,-x,1/2+z
x,-y,1/2-z
-x,y,1/2-z
y,x,-z
-y,-x,-z
-x,-y,-z
y,-x,1/2-z
x,y,-z
-y,x,1/2-z
-x,y,1/2+z
x,-y,1/2+z
-y,-x,z
y,x,z
loop_
_atom_site_type_symbol
_atom_site_label
_atom_site_fract_x
_atom_site_fract_y
_atom_site_fract_z
Si Si1 0.281684 0.597110 0.899847
Si Si2 0.361418 0.860074 0.327113
Si Si3 0.715796 0.832886 0.655271
Si Si4 0.191481 0.076256 0.000000
Si Si5 0.315735 0.798651 0.500000
Si Si6 0.731386 0.000437 0.651963
Si Si7 0.213099 0.500000 0.250000
O O1 0.358286 0.641715 0.876741
O O2 0.213213 0.654456 0.897733
O O3 0.267002 0.532237 0.827408
O O4 0.286199 0.564749 0.000000
O O5 0.298447 0.829766 0.260375
O O6 0.364810 0.809874 0.413847
O O7 0.440951 0.847332 0.283794
O O8 0.342700 0.946684 0.350157
O O9 0.797464 0.797464 0.638333
O O10 0.709576 0.917532 0.621197
O O11 0.248453 0.143760 0.000000
O O12 0.204041 0.028362 0.087544
O O13 0.107294 0.107294 0.000000
O O14 0.285313 0.714688 0.500000
O O15 0.765461 0.000000 0.750000
#
# Coordination Sequence:
#
# PCOD8316710 Si02
#       7
#    16  16  16   8   8  16   8
#     4   9  19  35  55  79 106 136 175 219 259 303
#     4   9  18  31  47  77 107 135 170 213 266 322
#     4   9  17  31  51  74  99 134 180 224 261 301
#     4   9  18  32  51  75 105 136 173 227 280 312
#     4   9  16  28  50  74 101 132 170 220 263 303
#     4   9  18  31  49  75 104 137 178 221 264 323
#     4  10  20  34  57  77 110 146 172 212 266 319
#
# _framework density 17.951916000000001
#
# number of rings (size 3 to 8) (size 9 to 14) (size 15 to 20)
#    0.000    2.909    0.000    0.545    2.545    5.091 
#    0.000   11.364    0.000    2.455    0.000    5.091 
#    0.000    0.000    0.000    0.000    0.000    0.000 
#
# Total GULP energy -1090437.505988 kJ/mol
# GULP energy per Si atom -12391.335295 kJ/mol
# Density = 1.791106 g / cm^3
# Si number density = 17.951916 Si / 1000 Ang^3
#
#
#
# Elastic Constant Matrix: (Units=GPa)
#
#
# Indices 1 2 3 4 5 6 
#
# 1 72.6424 57.9259 43.5917 0.0000 0.0000 0.0000
# 2 57.9259 72.6425 43.5918 0.0000 0.0000 0.0000
# 3 43.5917 43.5918 122.9932 0.0000 0.0000 0.0000
# 4 0.0000 0.0000 0.0000 21.7760 0.0000 0.0000
# 5 0.0000 0.0000 0.0000 0.0000 21.7751 0.0000
# 6 0.0000 0.0000 0.0000 0.0000 0.0000 20.1127
#
#
#
# Elastic Compliance Matrix: (Units=1/GPa)
#
#
# Indices 1 2 3 4 5 6 
#
# 1 0.038992 -0.028959 -0.003556 0.000000 0.000000 0.000000
# 2 -0.028959 0.038992 -0.003556 0.000000 0.000000 0.000000
# 3 -0.003556 -0.003556 0.010651 0.000000 0.000000 0.000000
# 4 0.000000 0.000000 0.000000 0.045922 0.000000 0.000000
# 5 0.000000 0.000000 0.000000 0.000000 0.045924 0.000000
# 6 0.000000 0.000000 0.000000 0.000000 0.000000 0.049720
#
#
# Mechanical properties :
#
#
# Convention : Reuss Voigt Hill
#
# Bulk Modulus (GPa) = 60.62946 62.05520 61.34233
# Shear Modulus (GPa) = 16.24219 20.94401 18.59310
#
# Velocity S-wave (km/s) = 3.01119 3.41936 3.22175
# Velocity P-wave (km/s) = 6.77763 7.08745 6.93427
#
# Compressibility (1/GPa) = 0.01649363
#
# Stress axis : x y z
#
# Youngs Moduli (GPa) = 25.64632 25.64635 93.88596
#
# Poissons Ratio (x) = 0.74268 0.33386
# Poissons Ratio (y) = 0.74268 0.33386
# Poissons Ratio (z) = 0.09120 0.09120
#
# Static dielectric constant tensor:
#      x y z
#    x 3.191950 0.000000 0.000000 
#    y 0.000000 3.191950 0.000000 
#    z 0.000000 0.000000 3.534380 
# 
# 
# High freq. dielectric constant tensor:
#      x y z
#    x 1.668740 0.000000 0.000000 
#    y 0.000000 1.668740 0.000000 
#    z 0.000000 0.000000 1.710900 
# 
# From -- ./inp_files/4821.got.cif
#   From: 2010.03.12/outbox.cif.g09.slc.cpg/sg132_3_cif.got.tgz:4821.got - 2010.04.06 17:53:44.
