data_PCOD8316826
_publ_section_title
;
Structure prediction by ZEFSAII (Michael W. Deem and Ramdas Pophale) SiO2 
 PCOD8316826
Probable space group: P 42/M C M
;
_chemical_formula_sum "Si O2"
_cell_formula_units_Z 80
_cell_length_a 13.466582
_cell_length_b 13.466582
_cell_length_c 25.757914
_cell_angle_alpha 90.000000
_cell_angle_beta 90.000000
_cell_angle_gamma 90.000000
_cell_volume 4671.167587
_symmetry_space_group_name_H-M "P 42/M C M"
_symmetry_group_IT_number 132
_symmetry_cell_setting 'tetragonal'
loop_
_space_group_symop_operation_xyz
x,y,z
-y,x,1/2+z
-x,-y,z
y,-x,1/2+z
x,-y,1/2-z
-x,y,1/2-z
y,x,-z
-y,-x,-z
-x,-y,-z
y,-x,1/2-z
x,y,-z
-y,x,1/2-z
-x,y,1/2+z
x,-y,1/2+z
-y,-x,z
y,x,z
loop_
_atom_site_type_symbol
_atom_site_label
_atom_site_fract_x
_atom_site_fract_y
_atom_site_fract_z
Si Si1 0.170826 0.329220 0.216612
Si Si2 0.337817 0.178094 0.939978
Si Si3 0.011720 0.382103 0.139082
Si Si4 0.353499 0.801010 0.166929
Si Si5 0.547240 0.299403 0.637320
O O1 0.217394 0.217394 0.217059
O O2 0.061655 0.333353 0.190624
O O3 0.167557 0.376785 0.273842
O O4 0.240588 0.398446 0.182606
O O5 0.229510 0.229510 0.931407
O O6 0.345186 0.072617 0.911039
O O7 0.422044 0.251870 0.917856
O O8 0.360089 0.159536 0.000000
O O9 0.000000 0.500000 0.144371
O O10 0.899266 0.345460 0.132091
O O11 0.245629 0.754372 0.163184
O O12 0.430796 0.717595 0.146053
O O13 0.584720 0.415281 0.639033
#
# Coordination Sequence:
#
# PCOD8316826 Si02
#       5
#    16  16  16  16  16
#     4   9  18  31  49  70  99 133 173 206 239 294
#     4   9  18  34  56  78  98 124 167 215 255 301
#     4  11  19  31  52  77  99 132 166 211 256 295
#     4  11  21  31  45  73 106 138 167 201 246 294
#     4   9  17  31  48  71 100 134 168 202 241 292
#
# _framework density 17.126339999999999
#
# number of rings (size 3 to 8) (size 9 to 14) (size 15 to 20)
#    0.000    2.200    4.000    3.000    0.000    1.600 
#    0.000    0.000    0.000    8.400    0.000    9.800 
#    0.000    0.000    0.000    0.000    0.000    0.000 
#
# Total GULP energy -991181.543651 kJ/mol
# GULP energy per Si atom -12389.769296 kJ/mol
# Density = 1.708736 g / cm^3
# Si number density = 17.126340 Si / 1000 Ang^3
#
#
#
# Elastic Constant Matrix: (Units=GPa)
#
#
# Indices 1 2 3 4 5 6 
#
# 1 81.1746 46.9096 37.3951 0.0000 0.0000 0.0000
# 2 46.9096 81.1746 37.3951 0.0000 0.0000 0.0000
# 3 37.3951 37.3951 102.2248 0.0000 0.0000 0.0000
# 4 0.0000 0.0000 0.0000 16.9901 0.0000 0.0000
# 5 0.0000 0.0000 0.0000 0.0000 16.9901 0.0000
# 6 0.0000 0.0000 0.0000 0.0000 0.0000 23.0378
#
#
#
# Elastic Compliance Matrix: (Units=1/GPa)
#
#
# Indices 1 2 3 4 5 6 
#
# 1 0.019556 -0.009628 -0.003632 0.000000 0.000000 0.000000
# 2 -0.009628 0.019556 -0.003632 0.000000 0.000000 0.000000
# 3 -0.003632 -0.003632 0.012439 0.000000 0.000000 0.000000
# 4 0.000000 0.000000 0.000000 0.058858 0.000000 0.000000
# 5 0.000000 0.000000 0.000000 0.000000 0.058858 0.000000
# 6 0.000000 0.000000 0.000000 0.000000 0.000000 0.043407
#
#
# Mechanical properties :
#
#
# Convention : Reuss Voigt Hill
#
# Bulk Modulus (GPa) = 56.27986 56.44150 56.36068
# Shear Modulus (GPa) = 19.81136 20.92855 20.36996
#
# Velocity S-wave (km/s) = 3.40483 3.49952 3.45250
# Velocity P-wave (km/s) = 6.95630 7.02541 6.99094
#
# Compressibility (1/GPa) = 0.01776834
#
# Stress axis : x y z
#
# Youngs Moduli (GPa) = 51.13479 51.13479 80.38923
#
# Poissons Ratio (x) = 0.49233 0.29196
# Poissons Ratio (y) = 0.49233 0.29196
# Poissons Ratio (z) = 0.18571 0.18571
#
# Static dielectric constant tensor:
#      x y z
#    x 3.266620 0.000000 0.000000 
#    y 0.000000 3.266620 0.000000 
#    z 0.000000 0.000000 3.206850 
# 
# 
# High freq. dielectric constant tensor:
#      x y z
#    x 1.646600 0.000000 0.000000 
#    y 0.000000 1.646600 0.000000 
#    z 0.000000 0.000000 1.651390 
# 
# From -- ./inp_files/8873.got.cif
#   From: 2010.03.12/outbox.cif.g09.slc.cpg/sg132_5_cif.got.tgz:8873.got - 2010.04.06 17:53:44.
