data_PCOD8316687
_publ_section_title
;
Structure prediction by ZEFSAII (Michael W. Deem and Ramdas Pophale) SiO2 
 PCOD8316687
Probable space group: P 42/M C M
;
_chemical_formula_sum "Si O2"
_cell_formula_units_Z 96
_cell_length_a 25.164449
_cell_length_b 25.164449
_cell_length_c 9.439975
_cell_angle_alpha 90.000000
_cell_angle_beta 90.000000
_cell_angle_gamma 90.000000
_cell_volume 5977.859387
_symmetry_space_group_name_H-M "P 42/M C M"
_symmetry_group_IT_number 132
_symmetry_cell_setting 'tetragonal'
loop_
_space_group_symop_operation_xyz
x,y,z
-y,x,1/2+z
-x,-y,z
y,-x,1/2+z
x,-y,1/2-z
-x,y,1/2-z
y,x,-z
-y,-x,-z
-x,-y,-z
y,-x,1/2-z
x,y,-z
-y,x,1/2-z
-x,y,1/2+z
x,-y,1/2+z
-y,-x,z
y,x,z
loop_
_atom_site_type_symbol
_atom_site_label
_atom_site_fract_x
_atom_site_fract_y
_atom_site_fract_z
Si Si1 0.867842 0.333449 0.832033
Si Si2 0.869420 0.452743 0.155675
Si Si3 0.946943 0.259739 0.333019
Si Si4 0.336711 0.252985 0.668457
Si Si5 0.743094 0.452650 0.157065
Si Si6 0.051594 0.862783 0.336439
O O1 0.884993 0.393697 0.790940
O O2 0.899989 0.293404 0.734691
O O3 0.806954 0.323301 0.786934
O O4 0.876566 0.323131 0.000000
O O5 0.894221 0.500000 0.250000
O O6 0.806292 0.457349 0.150194
O O7 0.893373 0.461267 0.000000
O O8 0.953269 0.272154 0.500000
O O9 0.933257 0.198148 0.305697
O O10 0.000000 0.275982 0.250000
O O11 0.338524 0.255865 0.500000
O O12 0.292267 0.292267 0.732712
O O13 0.395013 0.270988 0.724310
O O14 0.718153 0.500000 0.250000
O O15 0.718960 0.458348 0.000000
O O16 0.037670 0.871373 0.500000
O O17 0.101444 0.898557 0.288751
O O18 0.000000 0.880809 0.250000
#
# Coordination Sequence:
#
# PCOD8316687 Si02
#       6
#    16  16  16  16  16  16
#     4   9  17  29  45  66  90 115 145 181 219 257
#     4   8  14  24  39  60  85 111 140 176 215 255
#     4  10  20  34  51  68  88 117 150 181 213 252
#     4   8  14  25  41  62  89 119 148 177 211 257
#     4   8  13  22  37  56  79 110 146 179 211 250
#     4   9  19  35  52  71  95 119 144 177 215 255
#
# _framework density 16.059259999999998
#
# number of rings (size 3 to 8) (size 9 to 14) (size 15 to 20)
#    0.000    3.333    0.000    2.500    0.000    2.500 
#    0.000    3.333    0.000    2.000    0.000    3.500 
#    0.000    0.333    0.000    4.167    0.000    0.333 
#
# Total GULP energy -1189734.669991 kJ/mol
# GULP energy per Si atom -12393.069479 kJ/mol
# Density = 1.602271 g / cm^3
# Si number density = 16.059260 Si / 1000 Ang^3
#
#
#
# Elastic Constant Matrix: (Units=GPa)
#
#
# Indices 1 2 3 4 5 6 
#
# 1 98.3244 68.4982 50.0436 0.0000 0.0000 0.0000
# 2 68.4982 98.3244 50.0436 0.0000 0.0000 0.0000
# 3 50.0436 50.0436 68.7634 0.0000 0.0000 0.0000
# 4 0.0000 0.0000 0.0000 21.8821 0.0000 0.0000
# 5 0.0000 0.0000 0.0000 0.0000 21.8821 0.0000
# 6 0.0000 0.0000 0.0000 0.0000 0.0000 1.4813
#
#
#
# Elastic Compliance Matrix: (Units=1/GPa)
#
#
# Indices 1 2 3 4 5 6 
#
# 1 0.022084 -0.011444 -0.007744 0.000000 0.000000 0.000000
# 2 -0.011444 0.022084 -0.007744 0.000000 0.000000 0.000000
# 3 -0.007744 -0.007744 0.025814 0.000000 0.000000 0.000000
# 4 0.000000 0.000000 0.000000 0.045699 0.000000 0.000000
# 5 0.000000 0.000000 0.000000 0.000000 0.045699 0.000000
# 6 0.000000 0.000000 0.000000 0.000000 0.000000 0.675081
#
#
# Mechanical properties :
#
#
# Convention : Reuss Voigt Hill
#
# Bulk Modulus (GPa) = 62.03567 66.95368 64.49468
# Shear Modulus (GPa) = 5.58225 15.50422 10.54323
#
# Velocity S-wave (km/s) = 1.86643 3.11052 2.56505
# Velocity P-wave (km/s) = 6.58467 7.39477 7.00144
#
# Compressibility (1/GPa) = 0.01611976
#
# Stress axis : x y z
#
# Youngs Moduli (GPa) = 45.28183 45.28183 38.73913
#
# Poissons Ratio (x) = 0.51819 0.29998
# Poissons Ratio (y) = 0.51819 0.29998
# Poissons Ratio (z) = 0.35065 0.35065
#
# Static dielectric constant tensor:
#      x y z
#    x 3.068250 0.000000 0.000000 
#    y 0.000000 3.068250 0.000000 
#    z 0.000000 0.000000 3.082550 
# 
# 
# High freq. dielectric constant tensor:
#      x y z
#    x 1.601810 0.000000 0.000000 
#    y 0.000000 1.601810 0.000000 
#    z 0.000000 0.000000 1.604120 
# 
# From -- ./inp_files/1746.got.cif
#   From: 2010.03.12/outbox.cif.g09.slc.cpg/sg132_1_cif.got.tgz:1746.got - 2010.04.06 17:53:44.
