data_PCOD8316800
_publ_section_title
;
Structure prediction by ZEFSAII (Michael W. Deem and Ramdas Pophale) SiO2 
 PCOD8316800
Probable space group: P 42/M C M
;
_chemical_formula_sum "Si O2"
_cell_formula_units_Z 72
_cell_length_a 13.857987
_cell_length_b 13.857987
_cell_length_c 19.387510
_cell_angle_alpha 90.000000
_cell_angle_beta 90.000000
_cell_angle_gamma 90.000000
_cell_volume 3723.251165
_symmetry_space_group_name_H-M "P 42/M C M"
_symmetry_group_IT_number 132
_symmetry_cell_setting 'tetragonal'
loop_
_space_group_symop_operation_xyz
x,y,z
-y,x,1/2+z
-x,-y,z
y,-x,1/2+z
x,-y,1/2-z
-x,y,1/2-z
y,x,-z
-y,-x,-z
-x,-y,-z
y,-x,1/2-z
x,y,-z
-y,x,1/2-z
-x,y,1/2+z
x,-y,1/2+z
-y,-x,z
y,x,z
loop_
_atom_site_type_symbol
_atom_site_label
_atom_site_fract_x
_atom_site_fract_y
_atom_site_fract_z
Si Si1 0.227017 0.385878 0.420825
Si Si2 0.857320 0.295767 0.703020
Si Si3 0.282444 0.940250 0.852699
Si Si4 0.548528 0.701832 0.819404
Si Si5 0.922162 0.922162 0.581598
O O1 0.225554 0.418757 0.500000
O O2 0.289250 0.289250 0.409701
O O3 0.118301 0.361310 0.397101
O O4 0.274017 0.472119 0.378187
O O5 0.793160 0.206841 0.673680
O O6 0.887199 0.268206 0.780227
O O7 0.797069 0.393809 0.702928
O O8 0.950195 0.318230 0.656341
O O9 0.182117 0.950562 0.891530
O O10 0.500000 0.661586 0.750000
O O11 0.619477 0.619477 0.849108
O O12 0.919861 0.919861 0.500000
O O13 0.000000 0.000000 0.609011
#
# Coordination Sequence:
#
# PCOD8316800 Si02
#       5
#    16  16  16  16   8
#     4  11  23  41  65  91 124 165 208 259 319 385
#     4  10  21  38  60  89 125 159 204 262 312 367
#     4  11  20  37  60  89 123 164 208 251 308 370
#     4  11  23  41  64  91 124 160 208 265 323 377
#     4  11  22  36  58  90 129 171 213 252 298 364
#
# _framework density 19.337938000000001
#
# number of rings (size 3 to 8) (size 9 to 14) (size 15 to 20)
#    0.000    1.222    4.444    2.000    0.000    2.889 
#    0.000    4.444    0.000    2.667    0.000    0.000 
#    0.000    0.000    0.000    0.000    0.000    0.000 
#
# Total GULP energy -892993.184652 kJ/mol
# GULP energy per Si atom -12402.683120 kJ/mol
# Density = 1.929392 g / cm^3
# Si number density = 19.337938 Si / 1000 Ang^3
#
#
#
# Elastic Constant Matrix: (Units=GPa)
#
#
# Indices 1 2 3 4 5 6 
#
# 1 106.4564 37.3349 48.3395 0.0000 0.0000 0.0000
# 2 37.3349 106.4564 48.3395 0.0000 0.0000 0.0000
# 3 48.3395 48.3395 106.4661 0.0000 0.0000 0.0000
# 4 0.0000 0.0000 0.0000 30.4827 0.0000 0.0000
# 5 0.0000 0.0000 0.0000 0.0000 30.4827 0.0000
# 6 0.0000 0.0000 0.0000 0.0000 0.0000 32.6556
#
#
#
# Elastic Compliance Matrix: (Units=1/GPa)
#
#
# Indices 1 2 3 4 5 6 
#
# 1 0.012239 -0.002228 -0.004545 0.000000 0.000000 0.000000
# 2 -0.002228 0.012239 -0.004545 0.000000 0.000000 0.000000
# 3 -0.004545 -0.004545 0.013520 0.000000 0.000000 0.000000
# 4 0.000000 0.000000 0.000000 0.032806 0.000000 0.000000
# 5 0.000000 0.000000 0.000000 0.000000 0.032806 0.000000
# 6 0.000000 0.000000 0.000000 0.000000 0.000000 0.030623
#
#
# Mechanical properties :
#
#
# Convention : Reuss Voigt Hill
#
# Bulk Modulus (GPa) = 65.10237 65.26739 65.18488
# Shear Modulus (GPa) = 30.86634 31.08186 30.97410
#
# Velocity S-wave (km/s) = 3.99952 4.01346 4.00650
# Velocity P-wave (km/s) = 7.42071 7.43649 7.42861
#
# Compressibility (1/GPa) = 0.01536042
#
# Stress axis : x y z
#
# Youngs Moduli (GPa) = 81.70689 81.70689 73.96480
#
# Poissons Ratio (x) = 0.18208 0.33618
# Poissons Ratio (y) = 0.18208 0.33618
# Poissons Ratio (z) = 0.37137 0.37137
#
# Static dielectric constant tensor:
#      x y z
#    x 3.617530 0.000000 0.000000 
#    y 0.000000 3.617530 0.000000 
#    z 0.000000 0.000000 3.461220 
# 
# 
# High freq. dielectric constant tensor:
#      x y z
#    x 1.759750 0.000000 0.000000 
#    y 0.000000 1.759750 0.000000 
#    z 0.000000 0.000000 1.742130 
# 
# From -- ./inp_files/6171.got.cif
#   From: 2010.03.12/outbox.cif.g09.slc.cpg/sg132_4_cif.got.tgz:6171.got - 2010.04.06 17:53:44.
