data_PCOD8316179
_publ_section_title
;
Structure prediction by ZEFSAII (Michael W. Deem and Ramdas Pophale) SiO2 
 PCOD8316179
Probable space group: P 42/M M C
;
_chemical_formula_sum "Si O2"
_cell_formula_units_Z 56
_cell_length_a 17.517652
_cell_length_b 17.517652
_cell_length_c 10.033587
_cell_angle_alpha 90.000000
_cell_angle_beta 90.000000
_cell_angle_gamma 90.000000
_cell_volume 3078.988096
_symmetry_space_group_name_H-M "P 42/M M C"
_symmetry_group_IT_number 131
_symmetry_cell_setting 'tetragonal'
loop_
_space_group_symop_operation_xyz
x,y,z
-x,-y,z
-y,x,1/2+z
y,-x,1/2+z
-x,y,-z
x,-y,-z
y,x,1/2-z
-y,-x,1/2-z
-x,-y,-z
x,y,-z
y,-x,1/2-z
-y,x,1/2-z
x,-y,z
-x,y,z
-y,-x,1/2+z
y,x,1/2+z
loop_
_atom_site_type_symbol
_atom_site_label
_atom_site_fract_x
_atom_site_fract_y
_atom_site_fract_z
Si Si1 0.150464 0.330084 0.344057
Si Si2 0.836297 0.163704 0.750000
Si Si3 0.000000 0.584135 0.341864
Si Si4 0.090227 0.913669 0.000000
Si Si5 0.589742 0.690720 0.845999
O O1 0.145200 0.309712 0.500000
O O2 0.150871 0.253610 0.258989
O O3 0.076229 0.374427 0.292341
O O4 0.224696 0.380501 0.312751
O O5 0.867777 0.118445 0.625796
O O6 0.000000 0.500000 0.279026
O O7 0.000000 0.579416 0.500000
O O8 0.000000 0.916820 0.000000
O O9 0.123669 0.000000 0.000000
O O10 0.629892 0.629892 0.750000
O O11 0.500000 0.688423 0.817366
O O12 0.607406 0.669812 0.000000
#
# Coordination Sequence:
#
# PCOD8316179 Si02
#       5
#    16   8   8   8  16
#     4  10  20  35  57  88 119 151 192 239 287 345
#     4  12  22  37  62  86 113 156 198 240 288 336
#     4   9  18  32  56  87 118 149 187 241 295 341
#     4  11  26  42  58  82 118 156 197 242 290 338
#     4  10  21  38  60  85 117 153 191 236 289 347
#
# _framework density 18.187794
#
# number of rings (size 3 to 8) (size 9 to 14) (size 15 to 20)
#    0.000    1.714    2.857    1.714    4.000    5.429 
#    0.000    1.429    0.000    0.000    0.000    1.000 
#    0.000    0.000    0.000    0.000    0.000    0.000 
#
# Total GULP energy -694515.333146 kJ/mol
# GULP energy per Si atom -12402.059520 kJ/mol
# Density = 1.814640 g / cm^3
# Si number density = 18.187794 Si / 1000 Ang^3
#
#
#
# Elastic Constant Matrix: (Units=GPa)
#
#
# Indices 1 2 3 4 5 6 
#
# 1 167.4392 85.1466 63.9227 0.0000 0.0000 0.0000
# 2 85.1466 167.4408 63.9229 0.0000 0.0000 0.0000
# 3 63.9227 63.9229 94.2792 0.0000 0.0000 0.0000
# 4 0.0000 0.0000 0.0000 29.4486 0.0000 0.0000
# 5 0.0000 0.0000 0.0000 0.0000 29.4454 0.0000
# 6 0.0000 0.0000 0.0000 0.0000 0.0000 32.2052
#
#
#
# Elastic Compliance Matrix: (Units=1/GPa)
#
#
# Indices 1 2 3 4 5 6 
#
# 1 0.009090 -0.003062 -0.004087 0.000000 0.000000 0.000000
# 2 -0.003062 0.009090 -0.004087 0.000000 0.000000 0.000000
# 3 -0.004087 -0.004087 0.016149 0.000000 0.000000 0.000000
# 4 0.000000 0.000000 0.000000 0.033958 0.000000 0.000000
# 5 0.000000 0.000000 0.000000 0.000000 0.033961 0.000000
# 6 0.000000 0.000000 0.000000 0.000000 0.000000 0.031051
#
#
# Mechanical properties :
#
#
# Convention : Reuss Voigt Hill
#
# Bulk Modulus (GPa) = 84.34128 95.01596 89.67862
# Shear Modulus (GPa) = 31.30463 32.63095 31.96779
#
# Velocity S-wave (km/s) = 4.15322 4.24029 4.19698
# Velocity P-wave (km/s) = 8.33500 8.73662 8.53817
#
# Compressibility (1/GPa) = 0.01185659
#
# Stress axis : x y z
#
# Youngs Moduli (GPa) = 110.01542 110.01652 61.92488
#
# Poissons Ratio (x) = 0.33688 0.25307
# Poissons Ratio (y) = 0.33687 0.25307
# Poissons Ratio (z) = 0.44961 0.44961
#
# Static dielectric constant tensor:
#      x y z
#    x 3.548270 0.000000 0.000000 
#    y 0.000000 3.548240 0.000000 
#    z 0.000000 0.000000 3.075130 
# 
# 
# High freq. dielectric constant tensor:
#      x y z
#    x 1.721330 0.000000 0.000000 
#    y 0.000000 1.721330 0.000000 
#    z 0.000000 0.000000 1.678790 
# 
# From -- ./inp_files/1282.got.cif
#   From: 2010.03.12/outbox.cif.g09.slc.cpg/sg131_1_cif.got.tgz:1282.got - 2010.04.06 17:36:35.
