data_PCOD8316064
_publ_section_title
;
Structure prediction by ZEFSAII (Michael W. Deem and Ramdas Pophale) SiO2 
 PCOD8316064
Probable space group: P 42/M M C
;
_chemical_formula_sum "Si O2"
_cell_formula_units_Z 96
_cell_length_a 24.856237
_cell_length_b 24.856237
_cell_length_c 9.074616
_cell_angle_alpha 90.000000
_cell_angle_beta 90.000000
_cell_angle_gamma 90.000000
_cell_volume 5606.592851
_symmetry_space_group_name_H-M "P 42/M M C"
_symmetry_group_IT_number 131
_symmetry_cell_setting 'tetragonal'
loop_
_space_group_symop_operation_xyz
x,y,z
-x,-y,z
-y,x,1/2+z
y,-x,1/2+z
-x,y,-z
x,-y,-z
y,x,1/2-z
-y,-x,1/2-z
-x,-y,-z
x,y,-z
y,-x,1/2-z
-y,x,1/2-z
x,-y,z
-x,y,z
-y,-x,1/2+z
y,x,1/2+z
loop_
_atom_site_type_symbol
_atom_site_label
_atom_site_fract_x
_atom_site_fract_y
_atom_site_fract_z
Si Si1 0.063841 0.259955 0.336833
Si Si2 0.063295 0.635891 0.169906
Si Si3 0.858707 0.939000 0.825929
Si Si4 0.563959 0.748375 0.333291
Si Si5 0.145321 0.436701 0.329627
Si Si6 0.358633 0.563357 0.671256
O O1 0.087150 0.272618 0.500000
O O2 0.083699 0.305605 0.224081
O O3 0.082599 0.200942 0.282171
O O4 0.000000 0.258863 0.346402
O O5 0.092257 0.589729 0.262226
O O6 0.000000 0.628924 0.197035
O O7 0.078713 0.629776 0.000000
O O8 0.902723 0.902723 0.750000
O O9 0.866939 0.000000 0.770122
O O10 0.865924 0.936016 0.000000
O O11 0.586272 0.746503 0.500000
O O12 0.500000 0.749022 0.332010
O O13 0.585745 0.801885 0.253445
O O14 0.584766 0.696380 0.244823
O O15 0.150723 0.421269 0.500000
O O16 0.139126 0.500000 0.306963
O O17 0.408914 0.591087 0.750000
O O18 0.357467 0.578759 0.500000
O O19 0.365596 0.500000 0.694787
#
# Coordination Sequence:
#
# PCOD8316064 Si02
#       6
#    16  16  16  16  16  16
#     4   8  15  30  49  66  88 121 160 197 233 279
#     4  10  20  32  48  72  99 126 158 197 241 286
#     4   9  18  31  47  69  96 126 159 195 236 281
#     4   9  17  31  51  72  95 125 162 202 242 285
#     4  10  20  33  50  72  98 129 163 196 234 284
#     4  10  20  33  50  73 101 132 166 203 243 289
#
# _framework density 17.122698
#
# number of rings (size 3 to 8) (size 9 to 14) (size 15 to 20)
#    0.000    2.667    0.000    3.000    0.000    6.667 
#    0.000    5.000    0.000    1.000    0.000    4.667 
#    0.000    0.000    0.000    0.000    0.000    0.000 
#
# Total GULP energy -1190301.752320 kJ/mol
# GULP energy per Si atom -12398.976587 kJ/mol
# Density = 1.708373 g / cm^3
# Si number density = 17.122698 Si / 1000 Ang^3
#
#
#
# Elastic Constant Matrix: (Units=GPa)
#
#
# Indices 1 2 3 4 5 6 
#
# 1 70.8081 44.9951 57.6703 0.0000 0.0000 0.0000
# 2 44.9951 70.8138 57.6705 0.0000 0.0000 0.0000
# 3 57.6703 57.6705 127.6985 0.0000 0.0000 0.0000
# 4 0.0000 0.0000 0.0000 31.1300 0.0000 0.0000
# 5 0.0000 0.0000 0.0000 0.0000 31.1297 0.0000
# 6 0.0000 0.0000 0.0000 0.0000 0.0000 2.5738
#
#
#
# Elastic Compliance Matrix: (Units=1/GPa)
#
#
# Indices 1 2 3 4 5 6 
#
# 1 0.027217 -0.011521 -0.007089 0.000000 0.000000 0.000000
# 2 -0.011521 0.027214 -0.007087 0.000000 0.000000 0.000000
# 3 -0.007089 -0.007087 0.014233 0.000000 0.000000 0.000000
# 4 0.000000 0.000000 0.000000 0.032123 0.000000 0.000000
# 5 0.000000 0.000000 0.000000 0.000000 0.032124 0.000000
# 6 0.000000 0.000000 0.000000 0.000000 0.000000 0.388537
#
#
# Mechanical properties :
#
#
# Convention : Reuss Voigt Hill
#
# Bulk Modulus (GPa) = 57.90227 65.55470 61.72848
# Shear Modulus (GPa) = 8.64159 20.23233 14.43696
#
# Velocity S-wave (km/s) = 2.24896 3.44118 2.90685
# Velocity P-wave (km/s) = 6.37442 7.35917 6.88443
#
# Compressibility (1/GPa) = 0.01727048
#
# Stress axis : x y z
#
# Youngs Moduli (GPa) = 36.74189 36.74644 70.25976
#
# Poissons Ratio (x) = 0.42334 0.49804
# Poissons Ratio (y) = 0.42329 0.49794
# Poissons Ratio (z) = 0.26045 0.26043
#
# Static dielectric constant tensor:
#      x y z
#    x 3.156150 0.000000 0.000000 
#    y 0.000000 3.156140 0.000000 
#    z 0.000000 0.000000 3.357330 
# 
# 
# High freq. dielectric constant tensor:
#      x y z
#    x 1.643420 0.000000 0.000000 
#    y 0.000000 1.643420 0.000000 
#    z 0.000000 0.000000 1.673240 
# 
# From -- ./inp_files/2277.got.cif
#   From: 2010.03.12/outbox.cif.g09.slc.cpg/sg131_2_cif.got.tgz:2277.got - 2010.04.06 17:36:35.
