data_PCOD8316460
_publ_section_title
;
Structure prediction by ZEFSAII (Michael W. Deem and Ramdas Pophale) SiO2 
 PCOD8316460
Probable space group: P 42/M C M
;
_chemical_formula_sum "Si O2"
_cell_formula_units_Z 64
_cell_length_a 19.358036
_cell_length_b 19.358036
_cell_length_c 10.338844
_cell_angle_alpha 90.000000
_cell_angle_beta 90.000000
_cell_angle_gamma 90.000000
_cell_volume 3874.311795
_symmetry_space_group_name_H-M "P 42/M C M"
_symmetry_group_IT_number 132
_symmetry_cell_setting 'tetragonal'
loop_
_space_group_symop_operation_xyz
x,y,z
-y,x,1/2+z
-x,-y,z
y,-x,1/2+z
x,-y,1/2-z
-x,y,1/2-z
y,x,-z
-y,-x,-z
-x,-y,-z
y,-x,1/2-z
x,y,-z
-y,x,1/2-z
-x,y,1/2+z
x,-y,1/2+z
-y,-x,z
y,x,z
loop_
_atom_site_type_symbol
_atom_site_label
_atom_site_fract_x
_atom_site_fract_y
_atom_site_fract_z
Si Si1 0.715241 0.173722 0.151630
Si Si2 0.577734 0.219641 0.243548
Si Si3 0.416841 0.303220 0.000000
Si Si4 0.569720 0.682878 0.500000
Si Si5 0.939654 0.174857 0.852978
O O1 0.759031 0.240970 0.199824
O O2 0.640445 0.165623 0.221640
O O3 0.757353 0.104408 0.182705
O O4 0.702888 0.181365 0.000000
O O5 0.500000 0.186107 0.250000
O O6 0.593576 0.255742 0.377051
O O7 0.584780 0.273791 0.127905
O O8 0.362222 0.362222 0.000000
O O9 0.490618 0.340809 0.000000
O O10 0.614514 0.614514 0.500000
O O11 0.892496 0.107504 0.842088
O O12 0.000000 0.167753 0.750000
O O13 0.968666 0.180717 0.000000
#
# Coordination Sequence:
#
# PCOD8316460 Si02
#       5
#    16  16   8   8  16
#     4   9  16  30  54  74  92 128 173 209 242 290
#     4  10  19  30  46  68  92 123 161 207 256 299
#     4  10  20  29  38  62  95 117 150 208 260 300
#     4  10  18  29  46  60  79 123 168 196 244 312
#     4   9  19  35  55  81 109 137 168 198 233 282
#
# _framework density 16.519062999999999
#
# number of rings (size 3 to 8) (size 9 to 14) (size 15 to 20)
#    0.000    2.500    1.250    3.750    0.000    1.000 
#    2.250    1.250    0.000    5.250    0.000    3.500 
#    0.000    0.000    0.000    0.000    0.000    0.000 
#
# Total GULP energy -793162.361178 kJ/mol
# GULP energy per Si atom -12393.161893 kJ/mol
# Density = 1.648146 g / cm^3
# Si number density = 16.519063 Si / 1000 Ang^3
#
#
#
# Elastic Constant Matrix: (Units=GPa)
#
#
# Indices 1 2 3 4 5 6 
#
# 1 93.4959 42.4149 46.3924 0.0000 0.0000 0.0000
# 2 42.4149 93.4959 46.3924 0.0000 0.0000 0.0000
# 3 46.3924 46.3924 111.2126 0.0000 0.0000 0.0000
# 4 0.0000 0.0000 0.0000 43.9155 0.0000 0.0000
# 5 0.0000 0.0000 0.0000 0.0000 43.9155 0.0000
# 6 0.0000 0.0000 0.0000 0.0000 0.0000 16.6020
#
#
#
# Elastic Compliance Matrix: (Units=1/GPa)
#
#
# Indices 1 2 3 4 5 6 
#
# 1 0.014932 -0.004645 -0.004291 0.000000 0.000000 0.000000
# 2 -0.004645 0.014932 -0.004291 0.000000 0.000000 0.000000
# 3 -0.004291 -0.004291 0.012572 0.000000 0.000000 0.000000
# 4 0.000000 0.000000 0.000000 0.022771 0.000000 0.000000
# 5 0.000000 0.000000 0.000000 0.000000 0.022771 0.000000
# 6 0.000000 0.000000 0.000000 0.000000 0.000000 0.060234
#
#
# Mechanical properties :
#
#
# Convention : Reuss Voigt Hill
#
# Bulk Modulus (GPa) = 62.57281 63.17818 62.87549
# Shear Modulus (GPa) = 27.77869 31.75357 29.76613
#
# Velocity S-wave (km/s) = 4.10520 4.38909 4.24952
# Velocity P-wave (km/s) = 7.77378 8.00088 7.88815
#
# Compressibility (1/GPa) = 0.01598138
#
# Stress axis : x y z
#
# Youngs Moduli (GPa) = 66.96974 66.96974 79.54104
#
# Poissons Ratio (x) = 0.31105 0.34134
# Poissons Ratio (y) = 0.31105 0.34134
# Poissons Ratio (z) = 0.28740 0.28740
#
# Static dielectric constant tensor:
#      x y z
#    x 3.082500 0.000000 0.000000 
#    y 0.000000 3.082500 0.000000 
#    z 0.000000 0.000000 3.132660 
# 
# 
# High freq. dielectric constant tensor:
#      x y z
#    x 1.620340 0.000000 0.000000 
#    y 0.000000 1.620340 0.000000 
#    z 0.000000 0.000000 1.644840 
# 
# From -- ./inp_files/1293.got.cif
#   From: 2010.03.12/outbox.cif.g09.slc.cpg/sg132_1_cif.got.tgz:1293.got - 2010.04.06 17:53:44.
