data_PCOD8316373
_publ_section_title
;
Structure prediction by ZEFSAII (Michael W. Deem and Ramdas Pophale) SiO2 
 PCOD8316373
Probable space group: P 42/M M C
;
_chemical_formula_sum "Si O2"
_cell_formula_units_Z 88
_cell_length_a 20.095913
_cell_length_b 20.095913
_cell_length_c 16.999478
_cell_angle_alpha 90.000000
_cell_angle_beta 90.000000
_cell_angle_gamma 90.000000
_cell_volume 6865.166421
_symmetry_space_group_name_H-M "P 42/M M C"
_symmetry_group_IT_number 131
_symmetry_cell_setting 'tetragonal'
loop_
_space_group_symop_operation_xyz
x,y,z
-x,-y,z
-y,x,1/2+z
y,-x,1/2+z
-x,y,-z
x,-y,-z
y,x,1/2-z
-y,-x,1/2-z
-x,-y,-z
x,y,-z
y,-x,1/2-z
-y,x,1/2-z
x,-y,z
-x,y,z
-y,-x,1/2+z
y,x,1/2+z
loop_
_atom_site_type_symbol
_atom_site_label
_atom_site_fract_x
_atom_site_fract_y
_atom_site_fract_z
Si Si1 0.922536 0.813943 0.907959
Si Si2 0.927246 0.173726 0.589440
Si Si3 0.920990 0.687534 0.805660
Si Si4 0.576838 0.920613 0.000000
Si Si5 0.319823 0.921089 0.129501
Si Si6 0.079041 0.573212 0.087167
O O1 0.879178 0.875528 0.874796
O O2 0.899895 0.753825 0.851785
O O3 0.000000 0.831151 0.897072
O O4 0.907548 0.796953 0.000000
O O5 0.936987 0.153069 0.500000
O O6 0.899467 0.249001 0.593157
O O7 0.000000 0.168398 0.632272
O O8 0.891488 0.680543 0.717875
O O9 0.889648 0.626030 0.853352
O O10 0.000000 0.683276 0.802240
O O11 0.617887 0.894447 0.077021
O O12 0.500000 0.893650 0.000000
O O13 0.575259 0.000000 0.000000
O O14 0.325145 0.000000 0.130574
O O15 0.099661 0.500000 0.116603
O O16 0.000000 0.580288 0.084550
O O17 0.107502 0.586499 0.000000
#
# Coordination Sequence:
#
# PCOD8316373 Si02
#       6
#    16  16  16   8  16  16
#     4   9  17  27  38  53  70  89 116 151 189 221
#     4   9  16  27  41  51  65  90 118 149 186 232
#     4   9  16  24  35  50  69  88 108 138 171 209
#     4   9  16  26  40  56  71  85 105 135 171 214
#     4   9  16  26  38  51  66  86 109 133 172 220
#     4   8  13  21  33  48  66  88 108 124 152 198
#
# _framework density 12.818334999999999
#
# number of rings (size 3 to 8) (size 9 to 14) (size 15 to 20)
#    0.000    3.182    0.909    1.091    0.000    4.000 
#    0.000    5.455    0.000    0.000    0.000    5.091 
#    0.000    0.000    0.000    0.000    0.000    0.000 
#
# Total GULP energy -1090151.749904 kJ/mol
# GULP energy per Si atom -12388.088067 kJ/mol
# Density = 1.278916 g / cm^3
# Si number density = 12.818335 Si / 1000 Ang^3
#
#
#
# Elastic Constant Matrix: (Units=GPa)
#
#
# Indices 1 2 3 4 5 6 
#
# 1 62.2937 34.9690 34.6863 0.0000 0.0000 0.0000
# 2 34.9690 62.2937 34.6863 0.0000 0.0000 0.0000
# 3 34.6863 34.6863 76.3851 0.0000 0.0000 0.0000
# 4 0.0000 0.0000 0.0000 8.6416 0.0000 0.0000
# 5 0.0000 0.0000 0.0000 0.0000 8.6416 0.0000
# 6 0.0000 0.0000 0.0000 0.0000 0.0000 0.6130
#
#
#
# Elastic Compliance Matrix: (Units=1/GPa)
#
#
# Indices 1 2 3 4 5 6 
#
# 1 0.025902 -0.010695 -0.006905 0.000000 0.000000 0.000000
# 2 -0.010695 0.025902 -0.006905 0.000000 0.000000 0.000000
# 3 -0.006905 -0.006905 0.019363 0.000000 0.000000 0.000000
# 4 0.000000 0.000000 0.000000 0.115719 0.000000 0.000000
# 5 0.000000 0.000000 0.000000 0.000000 0.115719 0.000000
# 6 0.000000 0.000000 0.000000 0.000000 0.000000 1.631329
#
#
# Mechanical properties :
#
#
# Convention : Reuss Voigt Hill
#
# Bulk Modulus (GPa) = 45.13654 45.51730 45.32692
# Shear Modulus (GPa) = 2.51215 10.02130 6.26672
#
# Velocity S-wave (km/s) = 1.40145 2.79909 2.21348
# Velocity P-wave (km/s) = 6.15692 6.78477 6.47846
#
# Compressibility (1/GPa) = 0.02215500
#
# Stress axis : x y z
#
# Youngs Moduli (GPa) = 38.60739 38.60739 51.64508
#
# Poissons Ratio (x) = 0.41291 0.35663
# Poissons Ratio (y) = 0.41291 0.35663
# Poissons Ratio (z) = 0.26660 0.26660
#
# Static dielectric constant tensor:
#      x y z
#    x 2.456930 0.000000 0.000000 
#    y 0.000000 2.456930 0.000000 
#    z 0.000000 0.000000 2.826680 
# 
# 
# High freq. dielectric constant tensor:
#      x y z
#    x 1.447020 0.000000 0.000000 
#    y 0.000000 1.447020 0.000000 
#    z 0.000000 0.000000 1.496070 
# 
# From -- ./inp_files/6154.got.cif
#   From: 2010.03.12/outbox.cif.g09.slc.cpg/sg131_4_cif.got.tgz:6154.got - 2010.04.06 17:36:35.
