data_PCOD8316186
_publ_section_title
;
Structure prediction by ZEFSAII (Michael W. Deem and Ramdas Pophale) SiO2 
 PCOD8316186
Probable space group: P 42/M M C
;
_chemical_formula_sum "Si O2"
_cell_formula_units_Z 72
_cell_length_a 14.809786
_cell_length_b 14.809786
_cell_length_c 16.675491
_cell_angle_alpha 90.000000
_cell_angle_beta 90.000000
_cell_angle_gamma 90.000000
_cell_volume 3657.431462
_symmetry_space_group_name_H-M "P 42/M M C"
_symmetry_group_IT_number 131
_symmetry_cell_setting 'tetragonal'
loop_
_space_group_symop_operation_xyz
x,y,z
-x,-y,z
-y,x,1/2+z
y,-x,1/2+z
-x,y,-z
x,-y,-z
y,x,1/2-z
-y,-x,1/2-z
-x,-y,-z
x,y,-z
y,-x,1/2-z
-y,x,1/2-z
x,-y,z
-x,y,z
-y,-x,1/2+z
y,x,1/2+z
loop_
_atom_site_type_symbol
_atom_site_label
_atom_site_fract_x
_atom_site_fract_y
_atom_site_fract_z
Si Si1 0.398088 0.896746 0.679166
Si Si2 0.600770 0.601292 0.095223
Si Si3 0.724636 0.763664 0.405657
Si Si4 0.105563 0.596918 0.500000
Si Si5 0.706524 0.896597 0.843847
O O1 0.500000 0.858905 0.683902
O O2 0.342038 0.846400 0.610869
O O3 0.352397 0.885280 0.765407
O O4 0.398919 0.000000 0.652836
O O5 0.624656 0.500000 0.126440
O O6 0.500000 0.628035 0.124965
O O7 0.673161 0.674343 0.126795
O O8 0.604529 0.600751 0.000000
O O9 0.746638 0.760608 0.500000
O O10 0.817177 0.781621 0.352637
O O11 0.155116 0.500000 0.500000
O O12 0.134044 0.646626 0.419550
O O13 0.000000 0.582730 0.500000
O O14 0.744483 0.000000 0.851867
#
# Coordination Sequence:
#
# PCOD8316186 Si02
#       5
#    16  16  16   8  16
#     4  10  22  39  58  81 113 153 194 238 284 331
#     4   8  15  28  45  69 104 143 180 218 261 314
#     4  11  21  34  55  84 112 148 192 234 283 338
#     4   9  16  28  50  78 106 137 174 220 276 335
#     4  10  20  36  55  80 113 146 183 230 287 345
#
# _framework density 19.685946999999999
#
# number of rings (size 3 to 8) (size 9 to 14) (size 15 to 20)
#    0.000    2.333    1.111    2.667    0.000    6.222 
#    0.000    1.111    0.000    0.667    0.000    7.778 
#    0.000    0.000    0.000    0.000    0.000    0.000 
#
# Total GULP energy -892154.755656 kJ/mol
# GULP energy per Si atom -12391.038273 kJ/mol
# Density = 1.964114 g / cm^3
# Si number density = 19.685947 Si / 1000 Ang^3
#
#
#
# Elastic Constant Matrix: (Units=GPa)
#
#
# Indices 1 2 3 4 5 6 
#
# 1 98.7840 52.8824 26.3107 0.0000 0.0000 0.0000
# 2 52.8824 98.7840 26.3107 0.0000 0.0000 0.0000
# 3 26.3107 26.3107 34.1999 0.0000 0.0000 0.0000
# 4 0.0000 0.0000 0.0000 19.8923 0.0000 0.0000
# 5 0.0000 0.0000 0.0000 0.0000 19.8923 0.0000
# 6 0.0000 0.0000 0.0000 0.0000 0.0000 24.4317
#
#
#
# Elastic Compliance Matrix: (Units=1/GPa)
#
#
# Indices 1 2 3 4 5 6 
#
# 1 0.015390 -0.006396 -0.006919 0.000000 0.000000 0.000000
# 2 -0.006396 0.015390 -0.006919 0.000000 0.000000 0.000000
# 3 -0.006919 -0.006919 0.039886 0.000000 0.000000 0.000000
# 4 0.000000 0.000000 0.000000 0.050271 0.000000 0.000000
# 5 0.000000 0.000000 0.000000 0.000000 0.050271 0.000000
# 6 0.000000 0.000000 0.000000 0.000000 0.000000 0.040930
#
#
# Mechanical properties :
#
#
# Convention : Reuss Voigt Hill
#
# Bulk Modulus (GPa) = 33.11580 49.19730 41.15655
# Shear Modulus (GPa) = 19.03509 21.26087 20.14798
#
# Velocity S-wave (km/s) = 3.11294 3.28990 3.20264
# Velocity P-wave (km/s) = 5.45702 6.28304 5.88454
#
# Compressibility (1/GPa) = 0.03019706
#
# Stress axis : x y z
#
# Youngs Moduli (GPa) = 64.97748 64.97748 25.07122
#
# Poissons Ratio (x) = 0.41558 0.17348
# Poissons Ratio (y) = 0.41558 0.17348
# Poissons Ratio (z) = 0.44960 0.44960
#
# Static dielectric constant tensor:
#      x y z
#    x 3.757510 0.000000 0.000000 
#    y 0.000000 3.757510 0.000000 
#    z 0.000000 0.000000 3.344810 
# 
# 
# High freq. dielectric constant tensor:
#      x y z
#    x 1.759100 0.000000 0.000000 
#    y 0.000000 1.759100 0.000000 
#    z 0.000000 0.000000 1.751740 
# 
# From -- ./inp_files/7560.got.cif
#   From: 2010.03.12/outbox.cif.g09.slc.cpg/sg131_4_cif.got.tgz:7560.got - 2010.04.06 17:36:35.
