data_PCOD8316845
_publ_section_title
;
Structure prediction by ZEFSAII (Michael W. Deem and Ramdas Pophale) SiO2 
 PCOD8316845
Probable space group: P 42/M C M
;
_chemical_formula_sum "Si O2"
_cell_formula_units_Z 72
_cell_length_a 14.144652
_cell_length_b 14.144652
_cell_length_c 19.045415
_cell_angle_alpha 90.000000
_cell_angle_beta 90.000000
_cell_angle_gamma 90.000000
_cell_volume 3810.438656
_symmetry_space_group_name_H-M "P 42/M C M"
_symmetry_group_IT_number 132
_symmetry_cell_setting 'tetragonal'
loop_
_space_group_symop_operation_xyz
x,y,z
-y,x,1/2+z
-x,-y,z
y,-x,1/2+z
x,-y,1/2-z
-x,y,1/2-z
y,x,-z
-y,-x,-z
-x,-y,-z
y,-x,1/2-z
x,y,-z
-y,x,1/2-z
-x,y,1/2+z
x,-y,1/2+z
-y,-x,z
y,x,z
loop_
_atom_site_type_symbol
_atom_site_label
_atom_site_fract_x
_atom_site_fract_y
_atom_site_fract_z
Si Si1 0.500997 0.653392 0.167538
Si Si2 0.159139 0.466904 0.578117
Si Si3 0.079100 0.079100 0.422208
Si Si4 0.958346 0.800486 0.825754
Si Si5 0.358409 0.020637 0.078177
O O1 0.500000 0.674092 0.250000
O O2 0.414119 0.585882 0.146579
O O3 0.599655 0.599655 0.147129
O O4 0.486679 0.753294 0.129268
O O5 0.200489 0.448478 0.500000
O O6 0.087360 0.552450 0.575560
O O7 0.088994 0.380683 0.600875
O O8 0.111321 0.111321 0.500000
O O9 0.040251 0.166379 0.378366
O O10 0.000000 0.000000 0.428076
O O11 0.873190 0.873190 0.818667
O O12 0.926357 0.704584 0.862998
O O13 0.000000 0.780102 0.750000
O O14 0.311752 0.019817 0.000000
#
# Coordination Sequence:
#
# PCOD8316845 Si02
#       5
#    16  16   8  16  16
#     4   9  19  36  57  82 114 148 179 219 276 341
#     4   9  19  38  59  79 109 145 183 231 278 329
#     4   9  18  32  52  72  98 140 177 217 275 320
#     4  11  21  35  54  78 110 143 184 235 277 323
#     4   9  20  38  57  78 108 147 187 228 281 337
#
# _framework density 18.895461999999998
#
# number of rings (size 3 to 8) (size 9 to 14) (size 15 to 20)
#    0.000    2.556    1.111    2.667    0.000    4.889 
#    2.000    7.778    0.000    0.000    0.000    0.000 
#    0.000    0.000    0.000    0.000    0.000    0.000 
#
# Total GULP energy -891948.723754 kJ/mol
# GULP energy per Si atom -12388.176719 kJ/mol
# Density = 1.885246 g / cm^3
# Si number density = 18.895462 Si / 1000 Ang^3
#
#
#
# Elastic Constant Matrix: (Units=GPa)
#
#
# Indices 1 2 3 4 5 6 
#
# 1 79.4424 10.9101 41.3284 0.0000 0.0000 0.0000
# 2 10.9101 79.4424 41.3284 0.0000 0.0000 0.0000
# 3 41.3284 41.3284 125.0281 0.0000 0.0000 0.0000
# 4 0.0000 0.0000 0.0000 37.2575 0.0000 0.0000
# 5 0.0000 0.0000 0.0000 0.0000 37.2575 0.0000
# 6 0.0000 0.0000 0.0000 0.0000 0.0000 6.6459
#
#
#
# Elastic Compliance Matrix: (Units=1/GPa)
#
#
# Indices 1 2 3 4 5 6 
#
# 1 0.015229 0.000637 -0.005244 0.000000 0.000000 0.000000
# 2 0.000637 0.015229 -0.005244 0.000000 0.000000 0.000000
# 3 -0.005244 -0.005244 0.011465 0.000000 0.000000 0.000000
# 4 0.000000 0.000000 0.000000 0.026840 0.000000 0.000000
# 5 0.000000 0.000000 0.000000 0.000000 0.026840 0.000000
# 6 0.000000 0.000000 0.000000 0.000000 0.000000 0.150469
#
#
# Mechanical properties :
#
#
# Convention : Reuss Voigt Hill
#
# Bulk Modulus (GPa) = 45.00714 52.33853 48.67284
# Shear Modulus (GPa) = 18.30281 28.92191 23.61236
#
# Velocity S-wave (km/s) = 3.11567 3.91657 3.53885
# Velocity P-wave (km/s) = 6.06745 6.94347 6.52019
#
# Compressibility (1/GPa) = 0.02221870
#
# Stress axis : x y z
#
# Youngs Moduli (GPa) = 65.66613 65.66613 87.21982
#
# Poissons Ratio (x) = -0.04182 0.45741
# Poissons Ratio (y) = -0.04182 0.45741
# Poissons Ratio (z) = 0.34438 0.34438
#
# Static dielectric constant tensor:
#      x y z
#    x 3.400670 0.000000 0.000000 
#    y 0.000000 3.400670 0.000000 
#    z 0.000000 0.000000 3.581740 
# 
# 
# High freq. dielectric constant tensor:
#      x y z
#    x 1.726280 0.000000 0.000000 
#    y 0.000000 1.726280 0.000000 
#    z 0.000000 0.000000 1.740240 
# 
# From -- ./inp_files/6091.got.cif
#   From: 2010.03.12/outbox.cif.g09.slc.cpg/sg132_4_cif.got.tgz:6091.got - 2010.04.06 17:53:44.
