data_PCOD8316488
_publ_section_title
;
Structure prediction by ZEFSAII (Michael W. Deem and Ramdas Pophale) SiO2 
 PCOD8316488
Probable space group: P 42/M C M
;
_chemical_formula_sum "Si O2"
_cell_formula_units_Z 96
_cell_length_a 14.701676
_cell_length_b 14.701676
_cell_length_c 23.512248
_cell_angle_alpha 90.000000
_cell_angle_beta 90.000000
_cell_angle_gamma 90.000000
_cell_volume 5081.920288
_symmetry_space_group_name_H-M "P 42/M C M"
_symmetry_group_IT_number 132
_symmetry_cell_setting 'tetragonal'
loop_
_space_group_symop_operation_xyz
x,y,z
-y,x,1/2+z
-x,-y,z
y,-x,1/2+z
x,-y,1/2-z
-x,y,1/2-z
y,x,-z
-y,-x,-z
-x,-y,-z
y,-x,1/2-z
x,y,-z
-y,x,1/2-z
-x,y,1/2+z
x,-y,1/2+z
-y,-x,z
y,x,z
loop_
_atom_site_type_symbol
_atom_site_label
_atom_site_fract_x
_atom_site_fract_y
_atom_site_fract_z
Si Si1 0.075898 0.075898 0.435195
Si Si2 0.495414 0.236849 0.110846
Si Si3 0.137451 0.462079 0.500000
Si Si4 0.256750 0.593937 0.221834
Si Si5 0.349424 0.966215 0.500000
Si Si6 0.937148 0.212699 0.400301
Si Si7 0.575967 0.424034 0.434976
Si Si8 0.324633 0.823859 0.674478
O O1 0.104085 0.104085 0.500000
O O2 0.035326 0.161995 0.400129
O O3 0.000000 0.000000 0.439628
O O4 0.543505 0.199778 0.055061
O O5 0.575215 0.226323 0.157630
O O6 0.463289 0.339380 0.100086
O O7 0.409600 0.176950 0.131235
O O8 0.086440 0.556953 0.500000
O O9 0.072829 0.373874 0.500000
O O10 0.287643 0.500000 0.250000
O O11 0.344496 0.655505 0.221866
O O12 0.175699 0.640419 0.259839
O O13 0.292413 0.937894 0.554412
O O14 0.859500 0.140501 0.417662
O O15 0.912045 0.260982 0.339770
O O16 0.500000 0.500000 0.437375
O O17 0.603845 0.396156 0.500000
O O18 0.267505 0.732496 0.663017
#
# Coordination Sequence:
#
# PCOD8316488 Si02
#       8
#     8  16   8  16   8  16   8  16
#     4   9  16  26  46  82 122 148 164 221 299 359
#     4  11  19  35  51  73 108 156 197 242 294 328
#     4  11  24  35  52  77 113 155 192 240 279 352
#     4   9  19  32  50  75 110 146 193 246 288 334
#     4  11  21  35  52  81 116 148 183 227 288 345
#     4  10  18  31  57  86 118 148 183 233 294 356
#     4  11  22  32  50  76 110 153 205 252 286 339
#     4   9  17  30  51  82 105 142 193 236 283 340
#
# _framework density 18.890497
#
# number of rings (size 3 to 8) (size 9 to 14) (size 15 to 20)
#    0.000    2.000    4.167    0.750    1.167    0.167 
#    1.500    0.000    7.333    1.000    0.000    0.000 
#    5.000    0.000    0.000    0.000    0.000    0.000 
#
# Total GULP energy -1189700.008241 kJ/mol
# GULP energy per Si atom -12392.708419 kJ/mol
# Density = 1.884750 g / cm^3
# Si number density = 18.890497 Si / 1000 Ang^3
#
#
#
# Elastic Constant Matrix: (Units=GPa)
#
#
# Indices 1 2 3 4 5 6 
#
# 1 75.6350 50.0496 53.9699 0.0000 0.0000 0.0000
# 2 50.0496 75.6350 53.9699 0.0000 0.0000 0.0000
# 3 53.9699 53.9699 147.1394 0.0000 0.0000 0.0000
# 4 0.0000 0.0000 0.0000 -16.2813 0.0000 0.0000
# 5 0.0000 0.0000 0.0000 0.0000 -16.2747 0.0000
# 6 0.0000 0.0000 0.0000 0.0000 0.0000 34.5859
#
#
#
# Elastic Compliance Matrix: (Units=1/GPa)
#
#
# Indices 1 2 3 4 5 6 
#
# 1 0.025350 -0.013735 -0.004260 0.000000 0.000000 0.000000
# 2 -0.013735 0.025350 -0.004260 0.000000 0.000000 0.000000
# 3 -0.004260 -0.004260 0.009922 0.000000 0.000000 0.000000
# 4 0.000000 0.000000 0.000000 -0.061420 0.000000 0.000000
# 5 0.000000 0.000000 0.000000 0.000000 -0.061445 0.000000
# 6 0.000000 0.000000 0.000000 0.000000 0.000000 0.028913
#
#
# Mechanical properties :
#
#
# Convention : Reuss Voigt Hill
#
# Bulk Modulus (GPa) = 62.07088 68.26537 65.16812
# Shear Modulus (GPa) = 302.08781 9.76732 155.92757
#
# Velocity S-wave (km/s) = 12.65948 2.27634 9.09517
# Velocity P-wave (km/s) = 15.70391 6.56695 12.03615
#
# Compressibility (1/GPa) = 0.01611061
#
# Stress axis : x y z
#
# Youngs Moduli (GPa) = 39.44759 39.44761 100.78925
#
# Poissons Ratio (x) = 0.54180 0.42941
# Poissons Ratio (y) = 0.54180 0.42941
# Poissons Ratio (z) = 0.16806 0.16806
#
# Static dielectric constant tensor:
#      x y z
#    x 3.457630 0.000000 0.000000 
#    y 0.000000 3.457630 0.000000 
#    z 0.000000 0.000000 3.811610 
# 
# 
# High freq. dielectric constant tensor:
#      x y z
#    x 1.720420 0.000000 0.000000 
#    y 0.000000 1.720420 0.000000 
#    z 0.000000 0.000000 1.728060 
# 
# From -- ./inp_files/9074.got.cif
#   From: 2010.03.12/outbox.cif.g09.slc.cpg/sg132_5_cif.got.tgz:9074.got - 2010.04.06 17:53:44.
