data_PCOD8316714
_publ_section_title
;
Structure prediction by ZEFSAII (Michael W. Deem and Ramdas Pophale) SiO2 
 PCOD8316714
Probable space group: P 42/M C M
;
_chemical_formula_sum "Si O2"
_cell_formula_units_Z 96
_cell_length_a 24.247195
_cell_length_b 24.247195
_cell_length_c 8.987549
_cell_angle_alpha 90.000000
_cell_angle_beta 90.000000
_cell_angle_gamma 90.000000
_cell_volume 5284.017916
_symmetry_space_group_name_H-M "P 42/M C M"
_symmetry_group_IT_number 132
_symmetry_cell_setting 'tetragonal'
loop_
_space_group_symop_operation_xyz
x,y,z
-y,x,1/2+z
-x,-y,z
y,-x,1/2+z
x,-y,1/2-z
-x,y,1/2-z
y,x,-z
-y,-x,-z
-x,-y,-z
y,-x,1/2-z
x,y,-z
-y,x,1/2-z
-x,y,1/2+z
x,-y,1/2+z
-y,-x,z
y,x,z
loop_
_atom_site_type_symbol
_atom_site_label
_atom_site_fract_x
_atom_site_fract_y
_atom_site_fract_z
Si Si1 0.730789 0.355452 0.677609
Si Si2 0.853077 0.650400 0.823594
Si Si3 0.225010 0.863891 0.324482
Si Si4 0.055466 0.853483 0.831685
Si Si5 0.556921 0.354367 0.330215
Si Si6 0.941119 0.558281 0.179488
O O1 0.730843 0.356008 0.500000
O O2 0.702530 0.297471 0.729209
O O3 0.792392 0.363558 0.740728
O O4 0.694557 0.406085 0.739518
O O5 0.865078 0.712174 0.766518
O O6 0.897881 0.605536 0.768980
O O7 0.851813 0.649867 0.000000
O O8 0.222117 0.871812 0.500000
O O9 0.192768 0.807233 0.279463
O O10 0.197961 0.916502 0.248569
O O11 0.093237 0.906764 0.822912
O O12 0.000000 0.869894 0.750000
O O13 0.042901 0.836025 0.000000
O O14 0.500000 0.358838 0.250000
O O15 0.544999 0.340447 0.500000
O O16 0.587679 0.412322 0.311968
O O17 0.921569 0.500000 0.250000
O O18 0.000000 0.574638 0.250000
O O19 0.945435 0.553448 0.000000
#
# Coordination Sequence:
#
# PCOD8316714 Si02
#       6
#    16  16  16  16  16  16
#     4   8  14  27  47  71  99 126 154 193 239 283
#     4   9  17  29  50  78 100 124 161 200 237 286
#     4   9  17  31  52  77 104 132 163 200 243 291
#     4  10  21  36  53  74 102 135 169 207 250 292
#     4   9  18  31  47  68  94 126 162 200 243 288
#     4  10  20  35  52  70  96 126 159 198 241 286
#
# _framework density 18.167992999999999
#
# number of rings (size 3 to 8) (size 9 to 14) (size 15 to 20)
#    0.000    2.833    0.000    3.000    0.000    5.000 
#    0.000    5.000    0.000    2.000    0.000    2.333 
#    0.000    0.000    0.000    0.000    0.000    0.000 
#
# Total GULP energy -1189845.280714 kJ/mol
# GULP energy per Si atom -12394.221674 kJ/mol
# Density = 1.812664 g / cm^3
# Si number density = 18.167993 Si / 1000 Ang^3
#
#
#
# Elastic Constant Matrix: (Units=GPa)
#
#
# Indices 1 2 3 4 5 6 
#
# 1 104.8235 76.0400 36.6410 0.0000 0.0000 0.0000
# 2 76.0400 104.8235 36.6410 0.0000 0.0000 0.0000
# 3 36.6410 36.6410 39.2073 0.0000 0.0000 0.0000
# 4 0.0000 0.0000 0.0000 18.9691 0.0000 0.0000
# 5 0.0000 0.0000 0.0000 0.0000 18.9691 0.0000
# 6 0.0000 0.0000 0.0000 0.0000 0.0000 24.5839
#
#
#
# Elastic Compliance Matrix: (Units=1/GPa)
#
#
# Indices 1 2 3 4 5 6 
#
# 1 0.021820 -0.012922 -0.008316 0.000000 0.000000 0.000000
# 2 -0.012922 0.021820 -0.008316 0.000000 0.000000 0.000000
# 3 -0.008316 -0.008316 0.041049 0.000000 0.000000 0.000000
# 4 0.000000 0.000000 0.000000 0.052717 0.000000 0.000000
# 5 0.000000 0.000000 0.000000 0.000000 0.052717 0.000000
# 6 0.000000 0.000000 0.000000 0.000000 0.000000 0.040677
#
#
# Mechanical properties :
#
#
# Convention : Reuss Voigt Hill
#
# Bulk Modulus (GPa) = 39.09047 60.83316 49.96181
# Shear Modulus (GPa) = 16.75398 19.13990 17.94694
#
# Velocity S-wave (km/s) = 3.04002 3.24928 3.14639
# Velocity P-wave (km/s) = 5.82109 6.90170 6.38430
#
# Compressibility (1/GPa) = 0.02558168
#
# Stress axis : x y z
#
# Youngs Moduli (GPa) = 45.82878 45.82878 24.36115
#
# Poissons Ratio (x) = 0.59219 0.20259
# Poissons Ratio (y) = 0.59219 0.20259
# Poissons Ratio (z) = 0.38112 0.38112
#
# Static dielectric constant tensor:
#      x y z
#    x 3.317220 0.000000 0.000000 
#    y 0.000000 3.317220 0.000000 
#    z 0.000000 0.000000 3.185610 
# 
# 
# High freq. dielectric constant tensor:
#      x y z
#    x 1.709480 0.000000 0.000000 
#    y 0.000000 1.709480 0.000000 
#    z 0.000000 0.000000 1.670820 
# 
# From -- ./inp_files/1768.got.cif
#   From: 2010.03.12/outbox.cif.g09.slc.cpg/sg132_1_cif.got.tgz:1768.got - 2010.04.06 17:53:44.
