data_PCOD8316206
_publ_section_title
;
Structure prediction by ZEFSAII (Michael W. Deem and Ramdas Pophale) SiO2 
 PCOD8316206
Probable space group: P 42/M M C
;
_chemical_formula_sum "Si O2"
_cell_formula_units_Z 42
_cell_length_a 7.809978
_cell_length_b 7.809978
_cell_length_c 32.160309
_cell_angle_alpha 90.000000
_cell_angle_beta 90.000000
_cell_angle_gamma 90.000000
_cell_volume 1961.642372
_symmetry_space_group_name_H-M "P 42/M M C"
_symmetry_group_IT_number 131
_symmetry_cell_setting 'tetragonal'
loop_
_space_group_symop_operation_xyz
x,y,z
-x,-y,z
-y,x,1/2+z
y,-x,1/2+z
-x,y,-z
x,-y,-z
y,x,1/2-z
-y,-x,1/2-z
-x,-y,-z
x,y,-z
y,-x,1/2-z
-y,x,1/2-z
x,-y,z
-x,y,z
-y,-x,1/2+z
y,x,1/2+z
loop_
_atom_site_type_symbol
_atom_site_label
_atom_site_fract_x
_atom_site_fract_y
_atom_site_fract_z
Si Si1 0.195941 0.306249 0.367211
Si Si2 0.500000 0.500000 0.250000
Si Si3 0.202437 0.192476 0.455277
Si Si4 0.500000 0.811639 0.687585
O O1 0.204150 0.500000 0.351370
O O2 0.259217 0.302449 0.415358
O O3 0.327791 0.198857 0.339847
O O4 0.000000 0.235057 0.362709
O O5 0.329185 0.500000 0.223059
O O6 0.272611 0.264576 0.500000
O O7 0.000000 0.192632 0.457625
O O8 0.271060 0.000000 0.448837
O O9 0.500000 0.000000 0.708320
#
# Coordination Sequence:
#
# PCOD8316206 Si02
#       4
#    16   2  16   8
#     4  10  20  37  63  94 131 172 216 263 312 373
#     4  12  28  52  68 100 130 148 200 256 320 404
#     4   8  14  26  47  80 124 172 221 268 308 353
#     4  12  26  46  73  97 127 164 199 257 323 384
#
# _framework density 21.410629
#
# number of rings (size 3 to 8) (size 9 to 14) (size 15 to 20)
#    0.000    2.286    1.905    2.286    0.000    4.571 
#    0.000    4.762    0.000    5.714    0.000    0.000 
#    0.000    0.000    0.000    0.000    0.000    0.000 
#
# Total GULP energy -520333.943484 kJ/mol
# GULP energy per Si atom -12388.903416 kJ/mol
# Density = 2.136190 g / cm^3
# Si number density = 21.410629 Si / 1000 Ang^3
#
#
#
# Elastic Constant Matrix: (Units=GPa)
#
#
# Indices 1 2 3 4 5 6 
#
# 1 103.7369 33.2904 52.2937 0.0000 0.0000 0.0000
# 2 33.2904 103.7369 52.2937 0.0000 0.0000 0.0000
# 3 52.2937 52.2937 126.8624 0.0000 0.0000 0.0000
# 4 0.0000 0.0000 0.0000 33.0716 0.0000 0.0000
# 5 0.0000 0.0000 0.0000 0.0000 33.0716 0.0000
# 6 0.0000 0.0000 0.0000 0.0000 0.0000 15.5769
#
#
#
# Elastic Compliance Matrix: (Units=1/GPa)
#
#
# Indices 1 2 3 4 5 6 
#
# 1 0.012422 -0.001774 -0.004389 0.000000 0.000000 0.000000
# 2 -0.001774 0.012422 -0.004389 0.000000 0.000000 0.000000
# 3 -0.004389 -0.004389 0.011501 0.000000 0.000000 0.000000
# 4 0.000000 0.000000 0.000000 0.030237 0.000000 0.000000
# 5 0.000000 0.000000 0.000000 0.000000 0.030237 0.000000
# 6 0.000000 0.000000 0.000000 0.000000 0.000000 0.064198
#
#
# Mechanical properties :
#
#
# Convention : Reuss Voigt Hill
#
# Bulk Modulus (GPa) = 65.61584 67.78797 66.70191
# Shear Modulus (GPa) = 26.70934 29.44123 28.07528
#
# Velocity S-wave (km/s) = 3.53580 3.71222 3.62509
# Velocity P-wave (km/s) = 6.88347 7.07840 6.98161
#
# Compressibility (1/GPa) = 0.01524022
#
# Stress axis : x y z
#
# Youngs Moduli (GPa) = 80.50545 80.50545 86.94871
#
# Poissons Ratio (x) = 0.14279 0.38163
# Poissons Ratio (y) = 0.14279 0.38163
# Poissons Ratio (z) = 0.35335 0.35335
#
# Static dielectric constant tensor:
#      x y z
#    x 3.712980 0.000000 0.000000 
#    y 0.000000 3.712980 0.000000 
#    z 0.000000 0.000000 4.280010 
# 
# 
# High freq. dielectric constant tensor:
#      x y z
#    x 1.822140 0.000000 0.000000 
#    y 0.000000 1.822140 0.000000 
#    z 0.000000 0.000000 1.833590 
# 
# From -- ./inp_files/11743.got.cif
#   From: 2010.03.12/outbox.cif.g09.slc.cpg/sg131_6_cif.got.tgz:11743.got - 2010.04.06 17:36:35.
