data_PCOD8316022
_publ_section_title
;
Structure prediction by ZEFSAII (Michael W. Deem and Ramdas Pophale) SiO2 
 PCOD8316022
Probable space group: P 42/M M C
;
_chemical_formula_sum "Si O2"
_cell_formula_units_Z 56
_cell_length_a 17.697536
_cell_length_b 17.697536
_cell_length_c 9.035172
_cell_angle_alpha 90.000000
_cell_angle_beta 90.000000
_cell_angle_gamma 90.000000
_cell_volume 2829.840992
_symmetry_space_group_name_H-M "P 42/M M C"
_symmetry_group_IT_number 131
_symmetry_cell_setting 'tetragonal'
loop_
_space_group_symop_operation_xyz
x,y,z
-x,-y,z
-y,x,1/2+z
y,-x,1/2+z
-x,y,-z
x,-y,-z
y,x,1/2-z
-y,-x,1/2-z
-x,-y,-z
x,y,-z
y,-x,1/2-z
-y,x,1/2-z
x,-y,z
-x,y,z
-y,-x,1/2+z
y,x,1/2+z
loop_
_atom_site_type_symbol
_atom_site_label
_atom_site_fract_x
_atom_site_fract_y
_atom_site_fract_z
Si Si1 0.911621 0.800543 0.325495
Si Si2 0.688934 0.415721 0.829558
Si Si3 0.911592 0.500000 0.164655
Si Si4 0.154181 0.653281 0.826640
O O1 0.872901 0.872901 0.250000
O O2 0.897377 0.804339 0.500000
O O3 0.874535 0.724330 0.264716
O O4 0.000000 0.802117 0.286059
O O5 0.614292 0.385709 0.750000
O O6 0.709686 0.500000 0.771684
O O7 0.757038 0.357427 0.800044
O O8 0.668852 0.419374 0.000000
O O9 0.885117 0.577704 0.241078
O O10 0.000000 0.500000 0.156442
O O11 0.874272 0.500000 0.000000
O O12 0.134032 0.664933 0.000000
#
# Coordination Sequence:
#
# PCOD8316022 Si02
#       4
#    16  16   8  16
#     4  11  25  43  63  90 123 158 199 248 301 357
#     4  10  21  37  56  81 114 150 194 245 291 342
#     4   9  16  28  53  87 118 153 194 232 277 341
#     4  10  19  36  61  89 121 156 196 241 291 352
#
# _framework density 19.789097999999999
#
# number of rings (size 3 to 8) (size 9 to 14) (size 15 to 20)
#    0.000    1.857    1.429    2.571    0.000    8.000 
#    0.000    3.571    0.000    2.571    0.000    0.000 
#    0.000    0.000    0.000    0.000    0.000    0.000 
#
# Total GULP energy -694333.787221 kJ/mol
# GULP energy per Si atom -12398.817629 kJ/mol
# Density = 1.974406 g / cm^3
# Si number density = 19.789098 Si / 1000 Ang^3
#
#
#
# Elastic Constant Matrix: (Units=GPa)
#
#
# Indices 1 2 3 4 5 6 
#
# 1 121.4358 76.8453 58.6408 0.0000 0.0000 0.0000
# 2 76.8453 121.4282 58.6417 0.0000 0.0000 0.0000
# 3 58.6408 58.6417 72.1210 0.0000 0.0000 0.0000
# 4 0.0000 0.0000 0.0000 25.5681 0.0000 0.0000
# 5 0.0000 0.0000 0.0000 0.0000 25.5684 0.0000
# 6 0.0000 0.0000 0.0000 0.0000 0.0000 36.9903
#
#
#
# Elastic Compliance Matrix: (Units=1/GPa)
#
#
# Indices 1 2 3 4 5 6 
#
# 1 0.016071 -0.006356 -0.007900 0.000000 0.000000 0.000000
# 2 -0.006356 0.016073 -0.007902 0.000000 0.000000 0.000000
# 3 -0.007900 -0.007902 0.026714 0.000000 0.000000 0.000000
# 4 0.000000 0.000000 0.000000 0.039111 0.000000 0.000000
# 5 0.000000 0.000000 0.000000 0.000000 0.039111 0.000000
# 6 0.000000 0.000000 0.000000 0.000000 0.000000 0.027034
#
#
# Mechanical properties :
#
#
# Convention : Reuss Voigt Hill
#
# Bulk Modulus (GPa) = 68.75473 78.13787 73.44630
# Shear Modulus (GPa) = 23.44372 25.68250 24.56311
#
# Velocity S-wave (km/s) = 3.44565 3.60642 3.52695
# Velocity P-wave (km/s) = 7.11682 7.54405 7.33355
#
# Compressibility (1/GPa) = 0.01454445
#
# Stress axis : x y z
#
# Youngs Moduli (GPa) = 62.22197 62.21432 37.43424
#
# Poissons Ratio (x) = 0.39542 0.29572
# Poissons Ratio (y) = 0.39547 0.29579
# Poissons Ratio (z) = 0.49153 0.49159
#
# Static dielectric constant tensor:
#      x y z
#    x 3.704120 0.000000 0.000000 
#    y 0.000000 3.704120 0.000000 
#    z 0.000000 0.000000 3.456240 
# 
# 
# High freq. dielectric constant tensor:
#      x y z
#    x 1.783790 0.000000 0.000000 
#    y 0.000000 1.783790 0.000000 
#    z 0.000000 0.000000 1.743400 
# 
# From -- ./inp_files/1198.got.cif
#   From: 2010.03.12/outbox.cif.g09.slc.cpg/sg131_1_cif.got.tgz:1198.got - 2010.04.06 17:36:35.
