data_PCOD8316454
_publ_section_title
;
Structure prediction by ZEFSAII (Michael W. Deem and Ramdas Pophale) SiO2 
 PCOD8316454
Probable space group: P 42/M C M
;
_chemical_formula_sum "Si O2"
_cell_formula_units_Z 80
_cell_length_a 22.892483
_cell_length_b 22.892483
_cell_length_c 8.651501
_cell_angle_alpha 90.000000
_cell_angle_beta 90.000000
_cell_angle_gamma 90.000000
_cell_volume 4533.955602
_symmetry_space_group_name_H-M "P 42/M C M"
_symmetry_group_IT_number 132
_symmetry_cell_setting 'tetragonal'
loop_
_space_group_symop_operation_xyz
x,y,z
-y,x,1/2+z
-x,-y,z
y,-x,1/2+z
x,-y,1/2-z
-x,y,1/2-z
y,x,-z
-y,-x,-z
-x,-y,-z
y,-x,1/2-z
x,y,-z
-y,x,1/2-z
-x,y,1/2+z
x,-y,1/2+z
-y,-x,z
y,x,z
loop_
_atom_site_type_symbol
_atom_site_label
_atom_site_fract_x
_atom_site_fract_y
_atom_site_fract_z
Si Si1 0.063094 0.240728 0.682721
Si Si2 0.235622 0.235622 0.820922
Si Si3 0.851206 0.851206 0.678731
Si Si4 0.561877 0.789386 0.817200
Si Si5 0.344043 0.437915 0.182487
Si Si6 0.164830 0.672228 0.818328
O O1 0.058491 0.236769 0.500000
O O2 0.089270 0.177983 0.748183
O O3 0.105074 0.294480 0.730972
O O4 0.000000 0.252672 0.750000
O O5 0.197715 0.197715 0.701305
O O6 0.219943 0.301912 0.778474
O O7 0.222194 0.222194 0.000000
O O8 0.862133 0.862133 0.500000
O O9 0.500000 0.808027 0.750000
O O10 0.576325 0.722556 0.767483
O O11 0.605553 0.835726 0.736596
O O12 0.563243 0.797533 0.000000
O O13 0.364588 0.500000 0.250000
O O14 0.386714 0.386714 0.245380
O O15 0.348315 0.442496 0.000000
O O16 0.175503 0.677693 0.000000
#
# Coordination Sequence:
#
# PCOD8316454 Si02
#       6
#    16   8   8  16  16  16
#     4   9  18  32  52  76 106 137 169 207 249 294
#     4  10  18  28  46  74 101 127 163 205 247 300
#     4   8  16  32  48  69 105 142 167 201 249 290
#     4  10  20  34  52  72  97 130 167 210 258 311
#     4   9  19  34  49  68  95 125 161 207 252 298
#     4  10  20  34  50  73 103 134 165 205 256 306
#
# _framework density 17.644636999999999
#
# number of rings (size 3 to 8) (size 9 to 14) (size 15 to 20)
#    0.000    2.600    0.000    3.300    1.400    5.400 
#    0.000    1.000    0.000    0.900    0.000    6.300 
#    0.000    0.000    0.000    0.000    0.000    0.000 
#
# Total GULP energy -991220.416690 kJ/mol
# GULP energy per Si atom -12390.255209 kJ/mol
# Density = 1.760448 g / cm^3
# Si number density = 17.644637 Si / 1000 Ang^3
#
#
#
# Elastic Constant Matrix: (Units=GPa)
#
#
# Indices 1 2 3 4 5 6 
#
# 1 110.8938 71.1451 34.0676 0.0000 0.0000 0.0000
# 2 71.1451 110.8938 34.0676 0.0000 0.0000 0.0000
# 3 34.0676 34.0676 43.8336 0.0000 0.0000 0.0000
# 4 0.0000 0.0000 0.0000 27.1739 0.0000 0.0000
# 5 0.0000 0.0000 0.0000 0.0000 27.1739 0.0000
# 6 0.0000 0.0000 0.0000 0.0000 0.0000 23.0225
#
#
#
# Elastic Compliance Matrix: (Units=1/GPa)
#
#
# Indices 1 2 3 4 5 6 
#
# 1 0.016452 -0.008706 -0.006021 0.000000 0.000000 0.000000
# 2 -0.008706 0.016452 -0.006021 0.000000 0.000000 0.000000
# 3 -0.006021 -0.006021 0.032172 0.000000 0.000000 0.000000
# 4 0.000000 0.000000 0.000000 0.036800 0.000000 0.000000
# 5 0.000000 0.000000 0.000000 0.000000 0.036800 0.000000
# 6 0.000000 0.000000 0.000000 0.000000 0.000000 0.043436
#
#
# Mechanical properties :
#
#
# Convention : Reuss Voigt Hill
#
# Bulk Modulus (GPa) = 42.40410 60.46466 51.43438
# Shear Modulus (GPa) = 21.60117 23.89679 22.74898
#
# Velocity S-wave (km/s) = 3.50270 3.68412 3.59456
# Velocity P-wave (km/s) = 6.35948 7.24151 6.81478
#
# Compressibility (1/GPa) = 0.02358262
#
# Stress axis : x y z
#
# Youngs Moduli (GPa) = 60.78105 60.78105 31.08245
#
# Poissons Ratio (x) = 0.52914 0.18714
# Poissons Ratio (y) = 0.52914 0.18714
# Poissons Ratio (z) = 0.36596 0.36596
#
# Static dielectric constant tensor:
#      x y z
#    x 3.405720 0.000000 0.000000 
#    y 0.000000 3.405720 0.000000 
#    z 0.000000 0.000000 3.143820 
# 
# 
# High freq. dielectric constant tensor:
#      x y z
#    x 1.667890 0.000000 0.000000 
#    y 0.000000 1.667890 0.000000 
#    z 0.000000 0.000000 1.680530 
# 
# From -- ./inp_files/1605.got.cif
#   From: 2010.03.12/outbox.cif.g09.slc.cpg/sg132_1_cif.got.tgz:1605.got - 2010.04.06 17:53:44.
