data_PCOD8316861
_publ_section_title
;
Structure prediction by ZEFSAII (Michael W. Deem and Ramdas Pophale) SiO2 
 PCOD8316861
Probable space group: P 42/M C M
;
_chemical_formula_sum "Si O2"
_cell_formula_units_Z 88
_cell_length_a 12.128627
_cell_length_b 12.128627
_cell_length_c 27.950091
_cell_angle_alpha 90.000000
_cell_angle_beta 90.000000
_cell_angle_gamma 90.000000
_cell_volume 4111.558808
_symmetry_space_group_name_H-M "P 42/M C M"
_symmetry_group_IT_number 132
_symmetry_cell_setting 'tetragonal'
loop_
_space_group_symop_operation_xyz
x,y,z
-y,x,1/2+z
-x,-y,z
y,-x,1/2+z
x,-y,1/2-z
-x,y,1/2-z
y,x,-z
-y,-x,-z
-x,-y,-z
y,-x,1/2-z
x,y,-z
-y,x,1/2-z
-x,y,1/2+z
x,-y,1/2+z
-y,-x,z
y,x,z
loop_
_atom_site_type_symbol
_atom_site_label
_atom_site_fract_x
_atom_site_fract_y
_atom_site_fract_z
Si Si1 0.695190 0.026752 0.107423
Si Si2 0.782909 0.394867 0.386965
Si Si3 0.273124 0.094778 0.711801
Si Si4 0.725005 0.548823 0.700259
Si Si5 0.914778 0.914778 0.556281
Si Si6 0.593912 0.221989 0.055012
O O1 0.744579 0.041960 0.159983
O O2 0.794016 0.045530 0.070645
O O3 0.609415 0.122167 0.092678
O O4 0.633566 0.910725 0.104359
O O5 0.720353 0.279648 0.389168
O O6 0.756186 0.452189 0.336314
O O7 0.737207 0.472077 0.430208
O O8 0.167630 0.167630 0.725737
O O9 0.384014 0.164969 0.711843
O O10 0.287511 0.000000 0.750000
O O11 0.680465 0.500000 0.750000
O O12 0.629780 0.629780 0.678891
O O13 0.916486 0.916486 0.500000
O O14 0.000000 0.000000 0.579301
O O15 0.683360 0.316641 0.064298
O O16 0.597070 0.182908 0.000000
#
# Coordination Sequence:
#
# PCOD8316861 Si02
#       6
#    16  16  16  16   8  16
#     4  12  23  45  70  99 140 180 231 287 341 414
#     4  12  27  43  67 103 141 183 229 289 352 410
#     4  11  24  42  66  98 136 177 227 281 345 413
#     4  11  24  43  67  97 135 183 237 286 341 413
#     4  11  24  42  70 102 137 185 233 285 346 410
#     4  11  24  45  74 103 135 183 237 287 346 414
#
# _framework density 21.403075000000001
#
# number of rings (size 3 to 8) (size 9 to 14) (size 15 to 20)
#    0.000    0.636    3.636    3.818    0.000    9.818 
#    0.000    0.909    0.000    0.000    0.000    0.000 
#    0.000    0.000    0.000    0.000    0.000    0.000 
#
# Total GULP energy -1091356.782866 kJ/mol
# GULP energy per Si atom -12401.781623 kJ/mol
# Density = 2.135436 g / cm^3
# Si number density = 21.403075 Si / 1000 Ang^3
#
#
#
# Elastic Constant Matrix: (Units=GPa)
#
#
# Indices 1 2 3 4 5 6 
#
# 1 81.3422 58.8930 23.3015 0.0000 0.0000 0.0000
# 2 58.8930 81.3422 23.3015 0.0000 0.0000 0.0000
# 3 23.3015 23.3015 96.4587 0.0000 0.0000 0.0000
# 4 0.0000 0.0000 0.0000 31.1730 0.0000 0.0000
# 5 0.0000 0.0000 0.0000 0.0000 31.1730 0.0000
# 6 0.0000 0.0000 0.0000 0.0000 0.0000 21.6729
#
#
#
# Elastic Compliance Matrix: (Units=1/GPa)
#
#
# Indices 1 2 3 4 5 6 
#
# 1 0.026149 -0.018396 -0.001873 0.000000 0.000000 0.000000
# 2 -0.018396 0.026149 -0.001873 0.000000 0.000000 0.000000
# 3 -0.001873 -0.001873 0.011272 0.000000 0.000000 0.000000
# 4 0.000000 0.000000 0.000000 0.032079 0.000000 0.000000
# 5 0.000000 0.000000 0.000000 0.000000 0.032079 0.000000
# 6 0.000000 0.000000 0.000000 0.000000 0.000000 0.046141
#
#
# Mechanical properties :
#
#
# Convention : Reuss Voigt Hill
#
# Bulk Modulus (GPa) = 51.84899 52.23725 52.04312
# Shear Modulus (GPa) = 22.26366 27.04693 24.65530
#
# Velocity S-wave (km/s) = 3.22873 3.55870 3.39772
# Velocity P-wave (km/s) = 6.17877 6.43003 6.30565
#
# Compressibility (1/GPa) = 0.01928678
#
# Stress axis : x y z
#
# Youngs Moduli (GPa) = 38.24225 38.24225 88.71517
#
# Poissons Ratio (x) = 0.70350 0.16616
# Poissons Ratio (y) = 0.70350 0.16616
# Poissons Ratio (z) = 0.07163 0.07163
#
# Static dielectric constant tensor:
#      x y z
#    x 3.968880 0.000000 0.000000 
#    y 0.000000 3.968880 0.000000 
#    z 0.000000 0.000000 3.934850 
# 
# 
# High freq. dielectric constant tensor:
#      x y z
#    x 1.847360 0.000000 0.000000 
#    y 0.000000 1.847360 0.000000 
#    z 0.000000 0.000000 1.847330 
# 
# From -- ./inp_files/10785.got.cif
#   From: 2010.03.12/outbox.cif.g09.slc.cpg/sg132_6_cif.got.tgz:10785.got - 2010.04.06 17:53:44.
