data_PCOD8316934
_publ_section_title
;
Structure prediction by ZEFSAII (Michael W. Deem and Ramdas Pophale) SiO2 
 PCOD8316934
Probable space group: P 42/N B C
;
_chemical_formula_sum "Si O2"
_cell_formula_units_Z 112
_cell_length_a 14.056081
_cell_length_b 14.056081
_cell_length_c 28.178729
_cell_angle_alpha 90.000000
_cell_angle_beta 90.000000
_cell_angle_gamma 90.000000
_cell_volume 5567.367665
_symmetry_space_group_name_H-M "P 42/N B C"
_symmetry_group_IT_number 133
_space_group.IT_coordinate_system_code '2'
_symmetry_cell_setting 'tetragonal'
loop_
_space_group_symop_operation_xyz
x,y,z
1/2-y,x,1/2+z
1/2-x,1/2-y,z
y,1/2-x,1/2+z
x,1/2-y,-z
1/2-x,y,-z
y,x,1/2-z
1/2-y,1/2-x,1/2-z
-x,-y,-z
1/2+y,-x,1/2-z
1/2+x,1/2+y,-z
-y,1/2+x,1/2-z
-x,1/2+y,z
1/2+x,-y,z
-y,-x,1/2+z
1/2+y,1/2+x,1/2+z
loop_
_atom_site_type_symbol
_atom_site_label
_atom_site_fract_x
_atom_site_fract_y
_atom_site_fract_z
Si Si1 0.547934 0.250000 0.000000
Si Si2 0.203781 0.892676 0.253793
Si Si3 0.677085 0.590162 0.795215
Si Si4 0.750000 0.750000 0.361214
Si Si5 0.513749 0.513804 0.077136
Si Si6 0.946339 0.719872 0.903514
Si Si7 0.138363 0.546265 0.993310
Si Si8 0.876004 0.013283 0.658875
O O1 0.480891 0.261092 0.045945
O O2 0.615136 0.341820 0.996535
O O3 0.306759 0.854014 0.271645
O O4 0.135751 0.911733 0.299029
O O5 0.217945 0.986769 0.220740
O O6 0.655809 0.655809 0.750000
O O7 0.745834 0.653672 0.828736
O O8 0.579846 0.568813 0.822954
O O9 0.761504 0.834997 0.398223
O O10 0.524616 0.611981 0.104309
O O11 0.587062 0.514486 0.033746
O O12 0.548772 0.433379 0.113211
O O13 0.404901 0.505332 0.056618
O O14 0.994147 0.769628 0.858422
O O15 0.250000 0.529090 0.000000
#
# Coordination Sequence:
#
# PCOD8316934 Si02
#       8
#     8  16  16   8  16  16  16  16
#     4  10  19  41  58  84 134 158 209 256 307 372
#     4  10  23  42  62  93 128 162 204 258 326 383
#     4   9  20  39  60  87 119 160 207 262 311 376
#     4  10  21  37  60  92 120 160 220 251 309 380
#     4  10  22  39  60  92 123 160 211 259 303 377
#     4  10  22  37  60  89 121 168 203 262 308 358
#     4  10  21  39  61  89 124 168 207 253 318 367
#     4  10  21  41  63  86 124 159 210 260 307 381
#
# _framework density 20.117228000000001
#
# number of rings (size 3 to 8) (size 9 to 14) (size 15 to 20)
#    0.000    2.143    1.429    0.429    4.000    2.571 
#    0.000    2.857    0.000    0.000    0.000    0.000 
#    0.000    0.000    0.000    0.000    0.000    0.000 
#
# Total GULP energy -1387953.321388 kJ/mol
# GULP energy per Si atom -12392.440370 kJ/mol
# Density = 2.007144 g / cm^3
# Si number density = 20.117228 Si / 1000 Ang^3
#
#
#
# Elastic Constant Matrix: (Units=GPa)
#
#
# Indices 1 2 3 4 5 6 
#
# 1 100.5055 37.1594 29.7701 0.0000 0.0000 0.0000
# 2 37.1594 100.5055 29.7701 0.0000 0.0000 0.0000
# 3 29.7701 29.7701 77.0752 0.0000 0.0000 0.0000
# 4 0.0000 0.0000 0.0000 22.3600 0.0000 0.0000
# 5 0.0000 0.0000 0.0000 0.0000 22.3600 0.0000
# 6 0.0000 0.0000 0.0000 0.0000 0.0000 21.1586
#
#
#
# Elastic Compliance Matrix: (Units=1/GPa)
#
#
# Indices 1 2 3 4 5 6 
#
# 1 0.012254 -0.003533 -0.003368 0.000000 0.000000 0.000000
# 2 -0.003533 0.012254 -0.003368 0.000000 0.000000 0.000000
# 3 -0.003368 -0.003368 0.015576 0.000000 0.000000 0.000000
# 4 0.000000 0.000000 0.000000 0.044723 0.000000 0.000000
# 5 0.000000 0.000000 0.000000 0.000000 0.044723 0.000000
# 6 0.000000 0.000000 0.000000 0.000000 0.000000 0.047262
#
#
# Mechanical properties :
#
#
# Convention : Reuss Voigt Hill
#
# Bulk Modulus (GPa) = 51.16531 52.38728 51.77630
# Shear Modulus (GPa) = 24.52847 25.26818 24.89832
#
# Velocity S-wave (km/s) = 3.49560 3.54792 3.52186
# Velocity P-wave (km/s) = 6.46383 6.54837 6.50624
#
# Compressibility (1/GPa) = 0.01954449
#
# Stress axis : x y z
#
# Youngs Moduli (GPa) = 81.60885 81.60885 64.19963
#
# Poissons Ratio (x) = 0.28830 0.21625
# Poissons Ratio (y) = 0.28830 0.21625
# Poissons Ratio (z) = 0.27489 0.27489
#
# Static dielectric constant tensor:
#      x y z
#    x 3.604530 0.000000 0.000000 
#    y 0.000000 3.604530 0.000000 
#    z 0.000000 0.000000 3.694190 
# 
# 
# High freq. dielectric constant tensor:
#      x y z
#    x 1.781500 0.000000 0.000000 
#    y 0.000000 1.781500 0.000000 
#    z 0.000000 0.000000 1.786240 
# 
# From -- ./inp_files/7700.got.cif
#   From: 2010.03.12/outbox.cif.g09.slc.cpg/sg133_4_cif.got.tgz:7700.got - 2010.04.06 18:08:06.
