data_PCOD8316735
_publ_section_title
;
Structure prediction by ZEFSAII (Michael W. Deem and Ramdas Pophale) SiO2 
 PCOD8316735
Probable space group: P 42/M C M
;
_chemical_formula_sum "Si O2"
_cell_formula_units_Z 40
_cell_length_a 9.664981
_cell_length_b 9.664981
_cell_length_c 21.741543
_cell_angle_alpha 90.000000
_cell_angle_beta 90.000000
_cell_angle_gamma 90.000000
_cell_volume 2030.917922
_symmetry_space_group_name_H-M "P 42/M C M"
_symmetry_group_IT_number 132
_symmetry_cell_setting 'tetragonal'
loop_
_space_group_symop_operation_xyz
x,y,z
-y,x,1/2+z
-x,-y,z
y,-x,1/2+z
x,-y,1/2-z
-x,y,1/2-z
y,x,-z
-y,-x,-z
-x,-y,-z
y,-x,1/2-z
x,y,-z
-y,x,1/2-z
-x,y,1/2+z
x,-y,1/2+z
-y,-x,z
y,x,z
loop_
_atom_site_type_symbol
_atom_site_label
_atom_site_fract_x
_atom_site_fract_y
_atom_site_fract_z
Si Si1 0.000000 0.777515 0.250000
Si Si2 0.681027 0.905269 0.376879
Si Si3 0.183107 0.404657 0.928882
O O1 0.047677 0.680658 0.194080
O O2 0.873468 0.873468 0.227003
O O3 0.817300 0.817300 0.393058
O O4 0.543502 0.814200 0.388036
O O5 0.678244 0.039398 0.420494
O O6 0.309857 0.309857 0.906699
O O7 0.198817 0.445077 0.000000
#
# Coordination Sequence:
#
# PCOD8316735 Si02
#       3
#     8  16  16
#     4   9  18  33  56  86 112 136 178 234 280 320
#     4  10  20  36  58  80 106 145 186 223 272 329
#     4  10  22  37  53  81 117 146 180 228 273 317
#
# _framework density 19.695529000000001
#
# number of rings (size 3 to 8) (size 9 to 14) (size 15 to 20)
#    0.000    2.200    0.000    3.600    0.000    9.600 
#    0.000    4.000    0.000    0.000    0.000   11.200 
#    0.000    0.000    0.000    0.000    0.000    0.000 
#
# Total GULP energy -496037.390803 kJ/mol
# GULP energy per Si atom -12400.934770 kJ/mol
# Density = 1.965070 g / cm^3
# Si number density = 19.695529 Si / 1000 Ang^3
#
#
#
# Elastic Constant Matrix: (Units=GPa)
#
#
# Indices 1 2 3 4 5 6 
#
# 1 85.4123 43.8017 51.9201 0.0000 0.0000 0.0000
# 2 43.8017 85.4123 51.9201 0.0000 0.0000 0.0000
# 3 51.9201 51.9201 86.8627 0.0000 0.0000 0.0000
# 4 0.0000 0.0000 0.0000 34.3981 0.0000 0.0000
# 5 0.0000 0.0000 0.0000 0.0000 34.3981 0.0000
# 6 0.0000 0.0000 0.0000 0.0000 0.0000 41.5903
#
#
#
# Elastic Compliance Matrix: (Units=1/GPa)
#
#
# Indices 1 2 3 4 5 6 
#
# 1 0.019463 -0.004570 -0.008902 0.000000 0.000000 0.000000
# 2 -0.004570 0.019463 -0.008902 0.000000 0.000000 0.000000
# 3 -0.008902 -0.008902 0.022154 0.000000 0.000000 0.000000
# 4 0.000000 0.000000 0.000000 0.029071 0.000000 0.000000
# 5 0.000000 0.000000 0.000000 0.000000 0.029071 0.000000
# 6 0.000000 0.000000 0.000000 0.000000 0.000000 0.024044
#
#
# Mechanical properties :
#
#
# Convention : Reuss Voigt Hill
#
# Bulk Modulus (GPa) = 61.22763 61.44124 61.33444
# Shear Modulus (GPa) = 25.84548 29.41367 27.62958
#
# Velocity S-wave (km/s) = 3.62643 3.86867 3.74951
# Velocity P-wave (km/s) = 6.97777 7.15673 7.06781
#
# Compressibility (1/GPa) = 0.01633249
#
# Stress axis : x y z
#
# Youngs Moduli (GPa) = 51.38050 51.38050 45.13814
#
# Poissons Ratio (x) = 0.23479 0.40182
# Poissons Ratio (y) = 0.23479 0.40182
# Poissons Ratio (z) = 0.45738 0.45738
#
# Static dielectric constant tensor:
#      x y z
#    x 3.610660 0.000000 0.000000 
#    y 0.000000 3.610660 0.000000 
#    z 0.000000 0.000000 3.454950 
# 
# 
# High freq. dielectric constant tensor:
#      x y z
#    x 1.765550 0.000000 0.000000 
#    y 0.000000 1.765550 0.000000 
#    z 0.000000 0.000000 1.762930 
# 
# From -- ./inp_files/8404.got.cif
#   From: 2010.03.12/outbox.cif.g09.slc.cpg/sg132_5_cif.got.tgz:8404.got - 2010.04.06 17:53:44.
