data_PCOD8316575
_publ_section_title
;
Structure prediction by ZEFSAII (Michael W. Deem and Ramdas Pophale) SiO2 
 PCOD8316575
Probable space group: P 42/M C M
;
_chemical_formula_sum "Si O2"
_cell_formula_units_Z 96
_cell_length_a 24.240446
_cell_length_b 24.240446
_cell_length_c 8.850095
_cell_angle_alpha 90.000000
_cell_angle_beta 90.000000
_cell_angle_gamma 90.000000
_cell_volume 5200.308939
_symmetry_space_group_name_H-M "P 42/M C M"
_symmetry_group_IT_number 132
_symmetry_cell_setting 'tetragonal'
loop_
_space_group_symop_operation_xyz
x,y,z
-y,x,1/2+z
-x,-y,z
y,-x,1/2+z
x,-y,1/2-z
-x,y,1/2-z
y,x,-z
-y,-x,-z
-x,-y,-z
y,-x,1/2-z
x,y,-z
-y,x,1/2-z
-x,y,1/2+z
x,-y,1/2+z
-y,-x,z
y,x,z
loop_
_atom_site_type_symbol
_atom_site_label
_atom_site_fract_x
_atom_site_fract_y
_atom_site_fract_z
Si Si1 0.639861 0.140962 0.678196
Si Si2 0.148279 0.235111 0.179419
Si Si3 0.148103 0.059716 0.822002
Si Si4 0.444128 0.356976 0.178720
Si Si5 0.444019 0.940090 0.819880
Si Si6 0.444830 0.233191 0.824225
O O1 0.638126 0.127145 0.500000
O O2 0.702327 0.146406 0.740253
O O3 0.609920 0.093321 0.771467
O O4 0.608975 0.197905 0.715920
O O5 0.202873 0.202873 0.239951
O O6 0.093567 0.202191 0.232792
O O7 0.150693 0.235829 0.000000
O O8 0.093380 0.093380 0.772946
O O9 0.147517 0.000000 0.750000
O O10 0.149590 0.052481 0.000000
O O11 0.500000 0.380883 0.250000
O O12 0.393477 0.393477 0.237903
O O13 0.433576 0.294788 0.236638
O O14 0.449234 0.359606 0.000000
O O15 0.500000 0.913197 0.750000
O O16 0.436627 0.000000 0.750000
O O17 0.449034 0.942775 0.000000
O O18 0.500000 0.207864 0.750000
O O19 0.456625 0.233389 0.000000
#
# Coordination Sequence:
#
# PCOD8316575 Si02
#       6
#    16  16  16  16  16  16
#     4  10  19  32  53  79 103 132 172 211 250 300
#     4   8  16  32  52  74 102 135 170 209 250 294
#     4   9  18  33  52  74 101 132 165 202 244 288
#     4   9  18  32  48  68  95 125 160 202 247 297
#     4  11  22  37  55  76 105 137 170 210 257 305
#     4   9  18  31  48  70  96 126 159 199 245 291
#
# _framework density 18.460440999999999
#
# number of rings (size 3 to 8) (size 9 to 14) (size 15 to 20)
#    0.000    2.667    0.000    3.500    0.000    4.333 
#    0.000    7.500    0.000    1.500    0.000    2.333 
#    0.000    0.000    0.000    0.000    0.000    0.000 
#
# Total GULP energy -1190134.644811 kJ/mol
# GULP energy per Si atom -12397.235883 kJ/mol
# Density = 1.841842 g / cm^3
# Si number density = 18.460441 Si / 1000 Ang^3
#
#
#
# Elastic Constant Matrix: (Units=GPa)
#
#
# Indices 1 2 3 4 5 6 
#
# 1 156.2861 86.8909 41.4504 0.0000 0.0000 0.0000
# 2 86.8909 156.2861 41.4504 0.0000 0.0000 0.0000
# 3 41.4504 41.4504 50.2123 0.0000 0.0000 0.0000
# 4 0.0000 0.0000 0.0000 24.9726 0.0000 0.0000
# 5 0.0000 0.0000 0.0000 0.0000 24.9726 0.0000
# 6 0.0000 0.0000 0.0000 0.0000 0.0000 23.7198
#
#
#
# Elastic Compliance Matrix: (Units=1/GPa)
#
#
# Indices 1 2 3 4 5 6 
#
# 1 0.010066 -0.004344 -0.004724 0.000000 0.000000 0.000000
# 2 -0.004344 0.010066 -0.004724 0.000000 0.000000 0.000000
# 3 -0.004724 -0.004724 0.027715 0.000000 0.000000 0.000000
# 4 0.000000 0.000000 0.000000 0.040044 0.000000 0.000000
# 5 0.000000 0.000000 0.000000 0.000000 0.040044 0.000000
# 6 0.000000 0.000000 0.000000 0.000000 0.000000 0.042159
#
#
# Mechanical properties :
#
#
# Convention : Reuss Voigt Hill
#
# Bulk Modulus (GPa) = 49.34877 78.04091 63.69484
# Shear Modulus (GPa) = 24.45786 27.59917 26.02851
#
# Velocity S-wave (km/s) = 3.64384 3.87077 3.75902
# Velocity P-wave (km/s) = 6.67035 7.89580 7.30880
#
# Compressibility (1/GPa) = 0.02026393
#
# Stress axis : x y z
#
# Youngs Moduli (GPa) = 99.33967 99.33967 36.08157
#
# Poissons Ratio (x) = 0.43151 0.17045
# Poissons Ratio (y) = 0.43151 0.17045
# Poissons Ratio (z) = 0.46929 0.46929
#
# Static dielectric constant tensor:
#      x y z
#    x 3.725330 0.000000 0.000000 
#    y 0.000000 3.725330 0.000000 
#    z 0.000000 0.000000 3.163830 
# 
# 
# High freq. dielectric constant tensor:
#      x y z
#    x 1.720770 0.000000 0.000000 
#    y 0.000000 1.720770 0.000000 
#    z 0.000000 0.000000 1.691020 
# 
# From -- ./inp_files/1765.got.cif
#   From: 2010.03.12/outbox.cif.g09.slc.cpg/sg132_1_cif.got.tgz:1765.got - 2010.04.06 17:53:44.
