data_PCOD8316216
_publ_section_title
;
Structure prediction by ZEFSAII (Michael W. Deem and Ramdas Pophale) SiO2 
 PCOD8316216
Probable space group: P 42/M M C
;
_chemical_formula_sum "Si O2"
_cell_formula_units_Z 72
_cell_length_a 15.426682
_cell_length_b 15.426682
_cell_length_c 19.254578
_cell_angle_alpha 90.000000
_cell_angle_beta 90.000000
_cell_angle_gamma 90.000000
_cell_volume 4582.252946
_symmetry_space_group_name_H-M "P 42/M M C"
_symmetry_group_IT_number 131
_symmetry_cell_setting 'tetragonal'
loop_
_space_group_symop_operation_xyz
x,y,z
-x,-y,z
-y,x,1/2+z
y,-x,1/2+z
-x,y,-z
x,-y,-z
y,x,1/2-z
-y,-x,1/2-z
-x,-y,-z
x,y,-z
y,-x,1/2-z
-y,x,1/2-z
x,-y,z
-x,y,z
-y,-x,1/2+z
y,x,1/2+z
loop_
_atom_site_type_symbol
_atom_site_label
_atom_site_fract_x
_atom_site_fract_y
_atom_site_fract_z
Si Si1 0.896963 0.404115 0.166733
Si Si2 0.500000 0.896605 0.078033
Si Si3 0.897399 0.643174 0.317263
Si Si4 0.898975 0.840911 0.324945
Si Si5 0.899372 0.752775 0.923401
O O1 0.870219 0.500000 0.139600
O O2 0.859349 0.391255 0.244334
O O3 0.857238 0.329377 0.117129
O O4 0.000000 0.394587 0.169316
O O5 0.585010 0.862301 0.118974
O O6 0.500000 0.000000 0.074895
O O7 0.500000 0.857988 0.000000
O O8 0.868307 0.741664 0.327371
O O9 0.000000 0.635952 0.314623
O O10 0.882184 0.882184 0.250000
O O11 0.842673 0.889404 0.382493
O O12 0.000000 0.851685 0.343804
O O13 0.000000 0.733864 0.931755
O O14 0.856504 0.760281 0.000000
#
# Coordination Sequence:
#
# PCOD8316216 Si02
#       5
#    16   8  16  16  16
#     4   9  15  27  48  67  83 105 138 183 237 289
#     4   9  16  26  42  66  91 109 134 180 234 289
#     4   9  16  27  44  64  84 111 146 185 228 274
#     4  11  21  32  47  64  86 122 168 205 232 267
#     4  10  21  34  45  62  88 116 153 201 241 272
#
# _framework density 15.712795
#
# number of rings (size 3 to 8) (size 9 to 14) (size 15 to 20)
#    0.000    2.333    3.333    0.667    0.000    3.333 
#    0.000    5.556    0.000    0.000    0.000    0.000 
#    0.000    0.000    0.000    1.000    7.333    4.444 
#
# Total GULP energy -892425.774897 kJ/mol
# GULP energy per Si atom -12394.802429 kJ/mol
# Density = 1.567703 g / cm^3
# Si number density = 15.712795 Si / 1000 Ang^3
#
#
#
# Elastic Constant Matrix: (Units=GPa)
#
#
# Indices 1 2 3 4 5 6 
#
# 1 63.4300 8.3054 32.7524 0.0000 0.0000 0.0000
# 2 8.3054 63.4300 32.7524 0.0000 0.0000 0.0000
# 3 32.7524 32.7524 138.2882 0.0000 0.0000 0.0000
# 4 0.0000 0.0000 0.0000 17.5173 0.0000 0.0000
# 5 0.0000 0.0000 0.0000 0.0000 17.5173 0.0000
# 6 0.0000 0.0000 0.0000 0.0000 0.0000 0.7889
#
#
#
# Elastic Compliance Matrix: (Units=1/GPa)
#
#
# Indices 1 2 3 4 5 6 
#
# 1 0.017964 -0.000177 -0.004213 0.000000 0.000000 0.000000
# 2 -0.000177 0.017964 -0.004213 0.000000 0.000000 0.000000
# 3 -0.004213 -0.004213 0.009227 0.000000 0.000000 0.000000
# 4 0.000000 0.000000 0.000000 0.057087 0.000000 0.000000
# 5 0.000000 0.000000 0.000000 0.000000 0.057087 0.000000
# 6 0.000000 0.000000 0.000000 0.000000 0.000000 1.267520
#
#
# Mechanical properties :
#
#
# Convention : Reuss Voigt Hill
#
# Bulk Modulus (GPa) = 35.77836 45.86317 40.82076
# Shear Modulus (GPa) = 3.44028 19.92056 11.68042
#
# Velocity S-wave (km/s) = 1.48129 3.56447 2.72944
# Velocity P-wave (km/s) = 5.07398 6.79650 5.99740
#
# Compressibility (1/GPa) = 0.02794986
#
# Stress axis : x y z
#
# Youngs Moduli (GPa) = 55.66744 55.66744 108.38052
#
# Poissons Ratio (x) = 0.00985 0.45657
# Poissons Ratio (y) = 0.00985 0.45657
# Poissons Ratio (z) = 0.23451 0.23451
#
# Static dielectric constant tensor:
#      x y z
#    x 2.828530 0.000000 0.000000 
#    y 0.000000 2.828530 0.000000 
#    z 0.000000 0.000000 3.296220 
# 
# 
# High freq. dielectric constant tensor:
#      x y z
#    x 1.566320 0.000000 0.000000 
#    y 0.000000 1.566320 0.000000 
#    z 0.000000 0.000000 1.614890 
# 
# From -- ./inp_files/7511.got.cif
#   From: 2010.03.12/outbox.cif.g09.slc.cpg/sg131_4_cif.got.tgz:7511.got - 2010.04.06 17:36:35.
