data_PCOD8316729
_publ_section_title
;
Structure prediction by ZEFSAII (Michael W. Deem and Ramdas Pophale) SiO2 
 PCOD8316729
Probable space group: P 42/M C M
;
_chemical_formula_sum "Si O2"
_cell_formula_units_Z 96
_cell_length_a 25.253227
_cell_length_b 25.253227
_cell_length_c 8.922546
_cell_angle_alpha 90.000000
_cell_angle_beta 90.000000
_cell_angle_gamma 90.000000
_cell_volume 5690.134876
_symmetry_space_group_name_H-M "P 42/M C M"
_symmetry_group_IT_number 132
_symmetry_cell_setting 'tetragonal'
loop_
_space_group_symop_operation_xyz
x,y,z
-y,x,1/2+z
-x,-y,z
y,-x,1/2+z
x,-y,1/2-z
-x,y,1/2-z
y,x,-z
-y,-x,-z
-x,-y,-z
y,-x,1/2-z
x,y,-z
-y,x,1/2-z
-x,y,1/2+z
x,-y,1/2+z
-y,-x,z
y,x,z
loop_
_atom_site_type_symbol
_atom_site_label
_atom_site_fract_x
_atom_site_fract_y
_atom_site_fract_z
Si Si1 0.835760 0.749143 0.322383
Si Si2 0.950204 0.240674 0.836194
Si Si3 0.760393 0.444726 0.177359
Si Si4 0.051704 0.366441 0.331785
Si Si5 0.637319 0.839085 0.821563
Si Si6 0.638805 0.554349 0.324662
O O1 0.838283 0.736079 0.500000
O O2 0.790400 0.790400 0.281879
O O3 0.892365 0.773682 0.268711
O O4 0.824196 0.696067 0.231851
O O5 0.954376 0.303713 0.839754
O O6 0.000000 0.215515 0.750000
O O7 0.954583 0.215886 0.000000
O O8 0.777893 0.500000 0.250000
O O9 0.794045 0.399486 0.254867
O O10 0.699350 0.432373 0.216457
O O11 0.770795 0.446050 0.000000
O O12 0.055782 0.389883 0.500000
O O13 0.103997 0.381920 0.239305
O O14 0.000000 0.390841 0.250000
O O15 0.634743 0.839696 0.000000
O O16 0.619775 0.500000 0.250000
O O17 0.632036 0.546637 0.500000
O O18 0.602345 0.602345 0.264965
#
# Coordination Sequence:
#
# PCOD8316729 Si02
#       6
#    16  16  16  16  16  16
#     4   9  18  32  47  65  94 130 164 199 242 291
#     4   8  14  24  40  61  85 117 155 192 232 279
#     4  10  20  36  55  73  95 126 164 203 239 279
#     4   9  16  28  46  69  95 124 159 199 241 283
#     4  11  21  32  48  72  99 128 162 198 240 292
#     4   9  19  35  54  76 100 126 156 191 234 283
#
# _framework density 16.871305
#
# number of rings (size 3 to 8) (size 9 to 14) (size 15 to 20)
#    0.000    2.667    0.000    3.500    0.000    6.167 
#    0.000    2.500    0.000    0.500    0.000    3.500 
#    0.000    0.333    0.000    4.167    0.000    0.167 
#
# Total GULP energy -1190026.687763 kJ/mol
# GULP energy per Si atom -12396.111331 kJ/mol
# Density = 1.683291 g / cm^3
# Si number density = 16.871305 Si / 1000 Ang^3
#
#
#
# Elastic Constant Matrix: (Units=GPa)
#
#
# Indices 1 2 3 4 5 6 
#
# 1 100.7945 72.9707 55.3393 0.0000 0.0000 0.0000
# 2 72.9707 100.7945 55.3393 0.0000 0.0000 0.0000
# 3 55.3393 55.3393 103.1277 0.0000 0.0000 0.0000
# 4 0.0000 0.0000 0.0000 25.4103 0.0000 0.0000
# 5 0.0000 0.0000 0.0000 0.0000 25.4103 0.0000
# 6 0.0000 0.0000 0.0000 0.0000 0.0000 3.9043
#
#
#
# Elastic Compliance Matrix: (Units=1/GPa)
#
#
# Indices 1 2 3 4 5 6 
#
# 1 0.022342 -0.013599 -0.004692 0.000000 0.000000 0.000000
# 2 -0.013599 0.022342 -0.004692 0.000000 0.000000 0.000000
# 3 -0.004692 -0.004692 0.014732 0.000000 0.000000 0.000000
# 4 0.000000 0.000000 0.000000 0.039354 0.000000 0.000000
# 5 0.000000 0.000000 0.000000 0.000000 0.039354 0.000000
# 6 0.000000 0.000000 0.000000 0.000000 0.000000 0.256126
#
#
# Mechanical properties :
#
#
# Convention : Reuss Voigt Hill
#
# Bulk Modulus (GPa) = 74.34059 74.66838 74.50448
# Shear Modulus (GPa) = 11.24359 19.01617 15.12988
#
# Velocity S-wave (km/s) = 2.58434 3.36092 2.99788
# Velocity P-wave (km/s) = 7.28451 7.70810 7.49929
#
# Compressibility (1/GPa) = 0.01345160
#
# Stress axis : x y z
#
# Youngs Moduli (GPa) = 44.75907 44.75907 67.87976
#
# Poissons Ratio (x) = 0.60866 0.31847
# Poissons Ratio (y) = 0.60866 0.31847
# Poissons Ratio (z) = 0.21000 0.21000
#
# Static dielectric constant tensor:
#      x y z
#    x 3.236540 0.000000 0.000000 
#    y 0.000000 3.236540 0.000000 
#    z 0.000000 0.000000 3.305500 
# 
# 
# High freq. dielectric constant tensor:
#      x y z
#    x 1.634170 0.000000 0.000000 
#    y 0.000000 1.634170 0.000000 
#    z 0.000000 0.000000 1.656950 
# 
# From -- ./inp_files/1758.got.cif
#   From: 2010.03.12/outbox.cif.g09.slc.cpg/sg132_1_cif.got.tgz:1758.got - 2010.04.06 17:53:44.
