data_PCOD8316106
_publ_section_title
;
Structure prediction by ZEFSAII (Michael W. Deem and Ramdas Pophale) SiO2 
 PCOD8316106
Probable space group: P 42/M M C
;
_chemical_formula_sum "Si O2"
_cell_formula_units_Z 56
_cell_length_a 13.145860
_cell_length_b 13.145860
_cell_length_c 17.889717
_cell_angle_alpha 90.000000
_cell_angle_beta 90.000000
_cell_angle_gamma 90.000000
_cell_volume 3091.587026
_symmetry_space_group_name_H-M "P 42/M M C"
_symmetry_group_IT_number 131
_symmetry_cell_setting 'tetragonal'
loop_
_space_group_symop_operation_xyz
x,y,z
-x,-y,z
-y,x,1/2+z
y,-x,1/2+z
-x,y,-z
x,-y,-z
y,x,1/2-z
-y,-x,1/2-z
-x,-y,-z
x,y,-z
y,-x,1/2-z
-y,x,1/2-z
x,-y,z
-x,y,z
-y,-x,1/2+z
y,x,1/2+z
loop_
_atom_site_type_symbol
_atom_site_label
_atom_site_fract_x
_atom_site_fract_y
_atom_site_fract_z
Si Si1 0.262529 0.303896 0.585331
Si Si2 0.114639 0.617805 0.861881
Si Si3 0.732743 0.884343 0.784882
Si Si4 0.387030 0.500000 0.588497
O O1 0.228223 0.322014 0.500000
O O2 0.322508 0.197363 0.589451
O O3 0.163105 0.300894 0.636561
O O4 0.330693 0.397542 0.615326
O O5 0.133838 0.500000 0.875817
O O6 0.127617 0.640673 0.773839
O O7 0.000000 0.649037 0.887478
O O8 0.831822 0.831822 0.750000
O O9 0.761852 0.000000 0.800744
O O10 0.500000 0.500000 0.623949
O O11 0.394836 0.500000 0.500000
#
# Coordination Sequence:
#
# PCOD8316106 Si02
#       4
#    16  16  16   8
#     4  10  20  33  51  77 108 139 175 218 265 319
#     4   9  18  33  54  76  99 132 173 219 267 311
#     4   9  19  35  54  75 101 134 173 218 263 316
#     4   9  18  32  49  71 105 147 177 204 254 318
#
# _framework density 18.113675000000001
#
# number of rings (size 3 to 8) (size 9 to 14) (size 15 to 20)
#    0.000    2.714    0.000    0.857    2.000    3.143 
#    0.000    1.429    0.000    2.571    0.000    8.000 
#    0.000    0.000    0.000    0.000    0.000    0.000 
#
# Total GULP energy -694356.715767 kJ/mol
# GULP energy per Si atom -12399.227067 kJ/mol
# Density = 1.807245 g / cm^3
# Si number density = 18.113675 Si / 1000 Ang^3
#
#
#
# Elastic Constant Matrix: (Units=GPa)
#
#
# Indices 1 2 3 4 5 6 
#
# 1 97.8237 33.4091 26.7350 0.0000 0.0000 0.0000
# 2 33.4091 97.8237 26.7350 0.0000 0.0000 0.0000
# 3 26.7350 26.7350 73.7588 0.0000 0.0000 0.0000
# 4 0.0000 0.0000 0.0000 19.4208 0.0000 0.0000
# 5 0.0000 0.0000 0.0000 0.0000 19.4208 0.0000
# 6 0.0000 0.0000 0.0000 0.0000 0.0000 21.0514
#
#
#
# Elastic Compliance Matrix: (Units=1/GPa)
#
#
# Indices 1 2 3 4 5 6 
#
# 1 0.012232 -0.003292 -0.003241 0.000000 0.000000 0.000000
# 2 -0.003292 0.012232 -0.003241 0.000000 0.000000 0.000000
# 3 -0.003241 -0.003241 0.015907 0.000000 0.000000 0.000000
# 4 0.000000 0.000000 0.000000 0.051491 0.000000 0.000000
# 5 0.000000 0.000000 0.000000 0.000000 0.051491 0.000000
# 6 0.000000 0.000000 0.000000 0.000000 0.000000 0.047503
#
#
# Mechanical properties :
#
#
# Convention : Reuss Voigt Hill
#
# Bulk Modulus (GPa) = 48.01836 49.24049 48.62942
# Shear Modulus (GPa) = 23.00489 24.14707 23.57598
#
# Velocity S-wave (km/s) = 3.56761 3.65511 3.61162
# Velocity P-wave (km/s) = 6.59829 6.71239 6.65559
#
# Compressibility (1/GPa) = 0.02082537
#
# Stress axis : x y z
#
# Youngs Moduli (GPa) = 81.75004 81.75004 62.86585
#
# Poissons Ratio (x) = 0.26912 0.20372
# Poissons Ratio (y) = 0.26912 0.20372
# Poissons Ratio (z) = 0.26492 0.26492
#
# Static dielectric constant tensor:
#      x y z
#    x 3.433000 0.000000 0.000000 
#    y 0.000000 3.433000 0.000000 
#    z 0.000000 0.000000 3.152790 
# 
# 
# High freq. dielectric constant tensor:
#      x y z
#    x 1.703040 0.000000 0.000000 
#    y 0.000000 1.703040 0.000000 
#    z 0.000000 0.000000 1.688280 
# 
# From -- ./inp_files/9002.got.cif
#   From: 2010.03.12/outbox.cif.g09.slc.cpg/sg131_5_cif.got.tgz:9002.got - 2010.04.06 17:36:35.
