data_PCOD8316550
_publ_section_title
;
Structure prediction by ZEFSAII (Michael W. Deem and Ramdas Pophale) SiO2 
 PCOD8316550
Probable space group: P 42/M C M
;
_chemical_formula_sum "Si O2"
_cell_formula_units_Z 96
_cell_length_a 16.237543
_cell_length_b 16.237543
_cell_length_c 20.264460
_cell_angle_alpha 90.000000
_cell_angle_beta 90.000000
_cell_angle_gamma 90.000000
_cell_volume 5342.882996
_symmetry_space_group_name_H-M "P 42/M C M"
_symmetry_group_IT_number 132
_symmetry_cell_setting 'tetragonal'
loop_
_space_group_symop_operation_xyz
x,y,z
-y,x,1/2+z
-x,-y,z
y,-x,1/2+z
x,-y,1/2-z
-x,y,1/2-z
y,x,-z
-y,-x,-z
-x,-y,-z
y,-x,1/2-z
x,y,-z
-y,x,1/2-z
-x,y,1/2+z
x,-y,1/2+z
-y,-x,z
y,x,z
loop_
_atom_site_type_symbol
_atom_site_label
_atom_site_fract_x
_atom_site_fract_y
_atom_site_fract_z
Si Si1 0.869083 0.995905 0.928684
Si Si2 0.682622 0.186561 0.803473
Si Si3 0.011370 0.737867 0.825420
Si Si4 0.580937 0.718112 0.926292
Si Si5 0.828737 0.304714 0.348435
Si Si6 0.549078 0.685520 0.682022
O O1 0.905089 0.905089 0.910952
O O2 0.815250 0.032141 0.870092
O O3 0.822018 0.991100 0.000000
O O4 0.944213 0.055787 0.937460
O O5 0.769337 0.230664 0.823062
O O6 0.678769 0.091732 0.828636
O O7 0.670051 0.193140 0.725417
O O8 0.606172 0.235609 0.833791
O O9 0.000000 0.767091 0.750000
O O10 0.927783 0.699833 0.855603
O O11 0.651536 0.651536 0.930222
O O12 0.620764 0.800785 0.895624
O O13 0.510225 0.680141 0.880624
O O14 0.546906 0.737198 0.000000
O O15 0.781490 0.218511 0.366076
O O16 0.500000 0.696603 0.750000
O O17 0.602515 0.602515 0.686946
#
# Coordination Sequence:
#
# PCOD8316550 Si02
#       6
#    16  16  16  16  16  16
#     4   9  18  31  45  66 101 142 183 231 284 330
#     4   9  18  33  53  78 109 142 180 226 273 320
#     4  10  19  31  52  79 106 138 186 233 273 316
#     4  10  21  37  57  83 115 145 174 220 281 335
#     4   9  17  32  52  76 108 144 182 224 270 321
#     4  11  21  36  60  84 108 143 183 223 274 341
#
# _framework density 17.967827
#
# number of rings (size 3 to 8) (size 9 to 14) (size 15 to 20)
#    0.000    2.333    1.667    2.000    0.000    4.167 
#    0.000    5.000    0.000    2.000    0.000    0.000 
#    0.000    0.000    0.000    0.000    0.000    0.000 
#
# Total GULP energy -1189615.100653 kJ/mol
# GULP energy per Si atom -12391.823965 kJ/mol
# Density = 1.792693 g / cm^3
# Si number density = 17.967827 Si / 1000 Ang^3
#
#
#
# Elastic Constant Matrix: (Units=GPa)
#
#
# Indices 1 2 3 4 5 6 
#
# 1 86.0846 31.1627 36.6527 0.0000 0.0000 0.0000
# 2 31.1627 86.0846 36.6527 0.0000 0.0000 0.0000
# 3 36.6527 36.6527 91.6702 0.0000 0.0000 0.0000
# 4 0.0000 0.0000 0.0000 21.8857 0.0000 0.0000
# 5 0.0000 0.0000 0.0000 0.0000 21.8857 0.0000
# 6 0.0000 0.0000 0.0000 0.0000 0.0000 17.7711
#
#
#
# Elastic Compliance Matrix: (Units=1/GPa)
#
#
# Indices 1 2 3 4 5 6 
#
# 1 0.014790 -0.003418 -0.004547 0.000000 0.000000 0.000000
# 2 -0.003418 0.014790 -0.004547 0.000000 0.000000 0.000000
# 3 -0.004547 -0.004547 0.014545 0.000000 0.000000 0.000000
# 4 0.000000 0.000000 0.000000 0.045692 0.000000 0.000000
# 5 0.000000 0.000000 0.000000 0.000000 0.045692 0.000000
# 6 0.000000 0.000000 0.000000 0.000000 0.000000 0.056271
#
#
# Mechanical properties :
#
#
# Convention : Reuss Voigt Hill
#
# Bulk Modulus (GPa) = 52.35359 52.53063 52.44211
# Shear Modulus (GPa) = 22.40456 22.93326 22.66891
#
# Velocity S-wave (km/s) = 3.53502 3.57648 3.55581
# Velocity P-wave (km/s) = 6.77218 6.80840 6.79032
#
# Compressibility (1/GPa) = 0.01910089
#
# Stress axis : x y z
#
# Youngs Moduli (GPa) = 67.61457 67.61457 68.75418
#
# Poissons Ratio (x) = 0.23111 0.31261
# Poissons Ratio (y) = 0.23111 0.31261
# Poissons Ratio (z) = 0.30743 0.30743
#
# Static dielectric constant tensor:
#      x y z
#    x 3.249040 0.000000 0.000000 
#    y 0.000000 3.249040 0.000000 
#    z 0.000000 0.000000 3.441220 
# 
# 
# High freq. dielectric constant tensor:
#      x y z
#    x 1.684270 0.000000 0.000000 
#    y 0.000000 1.684270 0.000000 
#    z 0.000000 0.000000 1.689960 
# 
# From -- ./inp_files/7865.got.cif
#   From: 2010.03.12/outbox.cif.g09.slc.cpg/sg132_4_cif.got.tgz:7865.got - 2010.04.06 17:53:44.
