data_PCOD8316128
_publ_section_title
;
Structure prediction by ZEFSAII (Michael W. Deem and Ramdas Pophale) SiO2 
 PCOD8316128
Probable space group: P 42/M M C
;
_chemical_formula_sum "Si O2"
_cell_formula_units_Z 96
_cell_length_a 24.189876
_cell_length_b 24.189876
_cell_length_c 8.938228
_cell_angle_alpha 90.000000
_cell_angle_beta 90.000000
_cell_angle_gamma 90.000000
_cell_volume 5230.205016
_symmetry_space_group_name_H-M "P 42/M M C"
_symmetry_group_IT_number 131
_symmetry_cell_setting 'tetragonal'
loop_
_space_group_symop_operation_xyz
x,y,z
-x,-y,z
-y,x,1/2+z
y,-x,1/2+z
-x,y,-z
x,-y,-z
y,x,1/2-z
-y,-x,1/2-z
-x,-y,-z
x,y,-z
y,-x,1/2-z
-y,x,1/2-z
x,-y,z
-x,y,z
-y,-x,1/2+z
y,x,1/2+z
loop_
_atom_site_type_symbol
_atom_site_label
_atom_site_fract_x
_atom_site_fract_y
_atom_site_fract_z
Si Si1 0.270856 0.649841 0.823828
Si Si2 0.640113 0.438201 0.823970
Si Si3 0.437433 0.937241 0.176720
Si Si4 0.142234 0.935632 0.825540
Si Si5 0.855156 0.774637 0.822846
Si Si6 0.853389 0.352290 0.175192
O O1 0.293911 0.706090 0.750000
O O2 0.307893 0.598218 0.771721
O O3 0.209074 0.635513 0.770569
O O4 0.272023 0.659943 0.000000
O O5 0.584150 0.415851 0.750000
O O6 0.650944 0.500000 0.766936
O O7 0.632254 0.435733 0.000000
O O8 0.500000 0.921744 0.227945
O O9 0.393331 0.895557 0.245550
O O10 0.423816 0.000000 0.228437
O O11 0.432959 0.932925 0.000000
O O12 0.085737 0.914264 0.750000
O O13 0.193780 0.907580 0.743837
O O14 0.146924 0.000000 0.797954
O O15 0.142552 0.920024 0.000000
O O16 0.798764 0.798764 0.750000
O O17 0.865212 0.710999 0.780949
O O18 0.851104 0.783082 0.000000
O O19 0.859903 0.362314 0.000000
#
# Coordination Sequence:
#
# PCOD8316128 Si02
#       6
#    16  16  16  16  16  16
#     4   9  18  33  51  73 103 135 167 206 251 298
#     4   9  18  32  49  69  95 129 166 204 248 294
#     4   9  20  39  58  76 102 135 170 210 255 302
#     4  10  21  36  54  76 102 135 174 213 256 304
#     4  10  20  34  52  76 107 139 171 210 255 302
#     4  10  21  34  53  82 107 132 169 208 251 305
#
# _framework density 18.354921999999998
#
# number of rings (size 3 to 8) (size 9 to 14) (size 15 to 20)
#    0.000    2.500    0.000    3.000    0.000    6.000 
#    0.000    7.500    0.000    0.000    0.000    0.000 
#    0.000    0.000    0.000    0.000    0.000    0.000 
#
# Total GULP energy -1190231.968062 kJ/mol
# GULP energy per Si atom -12398.249667 kJ/mol
# Density = 1.831315 g / cm^3
# Si number density = 18.354922 Si / 1000 Ang^3
#
#
#
# Elastic Constant Matrix: (Units=GPa)
#
#
# Indices 1 2 3 4 5 6 
#
# 1 148.7426 87.7097 52.8860 0.0000 0.0000 0.0000
# 2 87.7097 148.7359 52.8880 0.0000 0.0000 0.0000
# 3 52.8860 52.8880 63.6395 0.0000 0.0000 0.0000
# 4 0.0000 0.0000 0.0000 30.2795 0.0000 0.0000
# 5 0.0000 0.0000 0.0000 0.0000 30.2801 0.0000
# 6 0.0000 0.0000 0.0000 0.0000 0.0000 28.5182
#
#
#
# Elastic Compliance Matrix: (Units=1/GPa)
#
#
# Indices 1 2 3 4 5 6 
#
# 1 0.011558 -0.004827 -0.005594 0.000000 0.000000 0.000000
# 2 -0.004827 0.011559 -0.005595 0.000000 0.000000 0.000000
# 3 -0.005594 -0.005595 0.025012 0.000000 0.000000 0.000000
# 4 0.000000 0.000000 0.000000 0.033026 0.000000 0.000000
# 5 0.000000 0.000000 0.000000 0.000000 0.033025 0.000000
# 6 0.000000 0.000000 0.000000 0.000000 0.000000 0.035065
#
#
# Mechanical properties :
#
#
# Convention : Reuss Voigt Hill
#
# Bulk Modulus (GPa) = 62.12005 83.12062 72.62033
# Shear Modulus (GPa) = 26.78911 28.99116 27.89014
#
# Velocity S-wave (km/s) = 3.82449 3.97857 3.90229
# Velocity P-wave (km/s) = 7.30887 8.15407 7.74301
#
# Compressibility (1/GPa) = 0.01609786
#
# Stress axis : x y z
#
# Youngs Moduli (GPa) = 86.51900 86.51068 39.98081
#
# Poissons Ratio (x) = 0.41757 0.22364
# Poissons Ratio (y) = 0.41761 0.22370
# Poissons Ratio (z) = 0.48397 0.48405
#
# Static dielectric constant tensor:
#      x y z
#    x 3.577950 0.000000 0.000000 
#    y 0.000000 3.577940 0.000000 
#    z 0.000000 0.000000 3.358850 
# 
# 
# High freq. dielectric constant tensor:
#      x y z
#    x 1.716450 0.000000 0.000000 
#    y 0.000000 1.716450 0.000000 
#    z 0.000000 0.000000 1.709080 
# 
# From -- ./inp_files/2271.got.cif
#   From: 2010.03.12/outbox.cif.g09.slc.cpg/sg131_2_cif.got.tgz:2271.got - 2010.04.06 17:36:35.
