data_PCOD8316053
_publ_section_title
;
Structure prediction by ZEFSAII (Michael W. Deem and Ramdas Pophale) SiO2 
 PCOD8316053
Probable space group: P 42/M M C
;
_chemical_formula_sum "Si O2"
_cell_formula_units_Z 96
_cell_length_a 25.010744
_cell_length_b 25.010744
_cell_length_c 9.113545
_cell_angle_alpha 90.000000
_cell_angle_beta 90.000000
_cell_angle_gamma 90.000000
_cell_volume 5700.862473
_symmetry_space_group_name_H-M "P 42/M M C"
_symmetry_group_IT_number 131
_symmetry_cell_setting 'tetragonal'
loop_
_space_group_symop_operation_xyz
x,y,z
-x,-y,z
-y,x,1/2+z
y,-x,1/2+z
-x,y,-z
x,-y,-z
y,x,1/2-z
-y,-x,1/2-z
-x,-y,-z
x,y,-z
y,-x,1/2-z
-y,x,1/2-z
x,-y,z
-x,y,z
-y,-x,1/2+z
y,x,1/2+z
loop_
_atom_site_type_symbol
_atom_site_label
_atom_site_fract_x
_atom_site_fract_y
_atom_site_fract_z
Si Si1 0.562973 0.640612 0.829141
Si Si2 0.436436 0.746913 0.334009
Si Si3 0.851576 0.563152 0.667955
Si Si4 0.936728 0.629375 0.829878
Si Si5 0.859999 0.937531 0.329267
Si Si6 0.941370 0.254856 0.826458
O O1 0.591008 0.591008 0.750000
O O2 0.500000 0.633281 0.805538
O O3 0.583817 0.695579 0.756462
O O4 0.578106 0.641595 0.000000
O O5 0.414241 0.743997 0.500000
O O6 0.500000 0.748003 0.333181
O O7 0.414362 0.800562 0.257204
O O8 0.844667 0.580656 0.500000
O O9 0.855778 0.500000 0.683554
O O10 0.906305 0.586618 0.731579
O O11 0.913648 0.688668 0.784481
O O12 0.000000 0.625350 0.798804
O O13 0.924873 0.617298 0.000000
O O14 0.907003 0.907003 0.250000
O O15 0.868409 0.928210 0.500000
O O16 0.801356 0.913852 0.278344
O O17 0.863677 0.000000 0.289486
O O18 0.000000 0.255627 0.754309
O O19 0.948327 0.253491 0.000000
#
# Coordination Sequence:
#
# PCOD8316053 Si02
#       6
#    16  16  16  16  16  16
#     4  10  20  33  50  73 101 131 162 197 238 283
#     4   9  17  31  51  71  91 120 161 202 236 275
#     4  10  20  32  46  67  97 128 154 185 230 282
#     4   9  17  30  49  70  90 116 154 196 233 274
#     4   9  17  29  45  65  90 119 149 182 222 267
#     4   7  12  26  46  64  83 112 150 188 225 265
#
# _framework density 16.839556999999999
#
# number of rings (size 3 to 8) (size 9 to 14) (size 15 to 20)
#    0.000    3.000    0.000    3.500    0.000    5.333 
#    0.000    4.167    0.000    4.000    0.000    4.667 
#    0.000    0.000    0.000    0.000    0.000    0.000 
#
# Total GULP energy -1189447.272321 kJ/mol
# GULP energy per Si atom -12390.075753 kJ/mol
# Density = 1.680123 g / cm^3
# Si number density = 16.839557 Si / 1000 Ang^3
#
#
#
# Elastic Constant Matrix: (Units=GPa)
#
#
# Indices 1 2 3 4 5 6 
#
# 1 65.5872 39.7372 51.9598 0.0000 0.0000 0.0000
# 2 39.7372 65.5872 51.9598 0.0000 0.0000 0.0000
# 3 51.9598 51.9598 106.9610 0.0000 0.0000 0.0000
# 4 0.0000 0.0000 0.0000 24.0042 0.0000 0.0000
# 5 0.0000 0.0000 0.0000 0.0000 24.0042 0.0000
# 6 0.0000 0.0000 0.0000 0.0000 0.0000 3.7907
#
#
#
# Elastic Compliance Matrix: (Units=1/GPa)
#
#
# Indices 1 2 3 4 5 6 
#
# 1 0.028459 -0.010225 -0.008858 0.000000 0.000000 0.000000
# 2 -0.010225 0.028459 -0.008858 0.000000 0.000000 0.000000
# 3 -0.008858 -0.008858 0.017955 0.000000 0.000000 0.000000
# 4 0.000000 0.000000 0.000000 0.041659 0.000000 0.000000
# 5 0.000000 0.000000 0.000000 0.000000 0.041659 0.000000
# 6 0.000000 0.000000 0.000000 0.000000 0.000000 0.263804
#
#
# Mechanical properties :
#
#
# Convention : Reuss Voigt Hill
#
# Bulk Modulus (GPa) = 52.65331 58.38321 55.51826
# Shear Modulus (GPa) = 10.32609 16.65837 13.49223
#
# Velocity S-wave (km/s) = 2.47898 3.14863 2.83366
# Velocity P-wave (km/s) = 6.28723 6.92561 6.61413
#
# Compressibility (1/GPa) = 0.01899216
#
# Stress axis : x y z
#
# Youngs Moduli (GPa) = 35.13768 35.13768 55.69422
#
# Poissons Ratio (x) = 0.35929 0.49333
# Poissons Ratio (y) = 0.35929 0.49333
# Poissons Ratio (z) = 0.31124 0.31124
#
# Static dielectric constant tensor:
#      x y z
#    x 3.123010 0.000000 0.000000 
#    y 0.000000 3.123010 0.000000 
#    z 0.000000 0.000000 3.099720 
# 
# 
# High freq. dielectric constant tensor:
#      x y z
#    x 1.633810 0.000000 0.000000 
#    y 0.000000 1.633810 0.000000 
#    z 0.000000 0.000000 1.642400 
# 
# From -- ./inp_files/2210.got.cif
#   From: 2010.03.12/outbox.cif.g09.slc.cpg/sg131_2_cif.got.tgz:2210.got - 2010.04.06 17:36:35.
