data_PCOD8316095
_publ_section_title
;
Structure prediction by ZEFSAII (Michael W. Deem and Ramdas Pophale) SiO2 
 PCOD8316095
Probable space group: P 42/M M C
;
_chemical_formula_sum "Si O2"
_cell_formula_units_Z 104
_cell_length_a 17.202406
_cell_length_b 17.202406
_cell_length_c 18.500850
_cell_angle_alpha 90.000000
_cell_angle_beta 90.000000
_cell_angle_gamma 90.000000
_cell_volume 5474.822820
_symmetry_space_group_name_H-M "P 42/M M C"
_symmetry_group_IT_number 131
_symmetry_cell_setting 'tetragonal'
loop_
_space_group_symop_operation_xyz
x,y,z
-x,-y,z
-y,x,1/2+z
y,-x,1/2+z
-x,y,-z
x,-y,-z
y,x,1/2-z
-y,-x,1/2-z
-x,-y,-z
x,y,-z
y,-x,1/2-z
-y,x,1/2-z
x,-y,z
-x,y,z
-y,-x,1/2+z
y,x,1/2+z
loop_
_atom_site_type_symbol
_atom_site_label
_atom_site_fract_x
_atom_site_fract_y
_atom_site_fract_z
Si Si1 0.654592 0.907619 0.679093
Si Si2 0.205067 0.088834 0.421385
Si Si3 0.296152 0.804951 0.801525
Si Si4 0.585843 0.793754 0.580366
Si Si5 0.351835 0.310461 0.085463
Si Si6 0.500000 0.411662 0.085393
Si Si7 0.847625 0.090450 0.175797
O O1 0.735102 0.880839 0.639687
O O2 0.650444 0.865061 0.756215
O O3 0.587445 0.871004 0.629698
O O4 0.644997 0.000000 0.688120
O O5 0.214539 0.130981 0.500000
O O6 0.117394 0.098620 0.391153
O O7 0.224059 0.000000 0.434009
O O8 0.262799 0.737202 0.750000
O O9 0.348000 0.767982 0.866234
O O10 0.229259 0.858633 0.834937
O O11 0.606733 0.821900 0.500000
O O12 0.500000 0.757300 0.583657
O O13 0.644092 0.726746 0.605173
O O14 0.424189 0.363616 0.110669
O O15 0.357800 0.290029 0.000000
O O16 0.500000 0.500000 0.118069
O O17 0.500000 0.419143 0.000000
O O18 0.892269 0.107732 0.250000
O O19 0.827374 0.000000 0.171013
#
# Coordination Sequence:
#
# PCOD8316095 Si02
#       7
#    16  16  16  16  16   8  16
#     4  11  21  37  57  77 108 150 195 241 289 345
#     4  10  20  33  50  73 101 136 179 230 292 358
#     4  11  20  36  56  81 106 146 193 240 282 341
#     4  10  20  34  55  86 120 152 187 230 281 346
#     4  10  20  37  62  90 120 156 194 234 284 347
#     4   9  18  36  66 100 129 157 190 229 283 355
#     4  11  21  34  52  74 103 142 189 242 299 357
#
# _framework density 18.996047000000001
#
# number of rings (size 3 to 8) (size 9 to 14) (size 15 to 20)
#    0.000    1.615    4.615    1.846    0.000    6.308 
#    1.385    1.538    0.000    1.385    0.000    0.000 
#    0.000    7.385    0.000    0.000    0.000    0.000 
#
# Total GULP energy -1288987.320450 kJ/mol
# GULP energy per Si atom -12394.108850 kJ/mol
# Density = 1.895281 g / cm^3
# Si number density = 18.996047 Si / 1000 Ang^3
#
#
#
# Elastic Constant Matrix: (Units=GPa)
#
#
# Indices 1 2 3 4 5 6 
#
# 1 95.6657 42.6428 45.7797 0.0000 0.0000 0.0000
# 2 42.6428 95.6658 45.7797 0.0000 0.0000 0.0000
# 3 45.7797 45.7797 98.3673 0.0000 0.0000 0.0000
# 4 0.0000 0.0000 0.0000 26.6089 0.0000 0.0000
# 5 0.0000 0.0000 0.0000 0.0000 26.6091 0.0000
# 6 0.0000 0.0000 0.0000 0.0000 0.0000 25.1425
#
#
#
# Elastic Compliance Matrix: (Units=1/GPa)
#
#
# Indices 1 2 3 4 5 6 
#
# 1 0.014655 -0.004205 -0.004863 0.000000 0.000000 0.000000
# 2 -0.004205 0.014655 -0.004863 0.000000 0.000000 0.000000
# 3 -0.004863 -0.004863 0.014693 0.000000 0.000000 0.000000
# 4 0.000000 0.000000 0.000000 0.037581 0.000000 0.000000
# 5 0.000000 0.000000 0.000000 0.000000 0.037581 0.000000
# 6 0.000000 0.000000 0.000000 0.000000 0.000000 0.039773
#
#
# Mechanical properties :
#
#
# Convention : Reuss Voigt Hill
#
# Bulk Modulus (GPa) = 61.96160 62.01146 61.98653
# Shear Modulus (GPa) = 26.01721 26.03854 26.02788
#
# Velocity S-wave (km/s) = 3.70484 3.70636 3.70560
# Velocity P-wave (km/s) = 7.14074 7.14363 7.14218
#
# Compressibility (1/GPa) = 0.01613903
#
# Stress axis : x y z
#
# Youngs Moduli (GPa) = 68.23751 68.23759 68.06139
#
# Poissons Ratio (x) = 0.28694 0.33100
# Poissons Ratio (y) = 0.28694 0.33100
# Poissons Ratio (z) = 0.33185 0.33185
#
# Static dielectric constant tensor:
#      x y z
#    x 3.392930 0.000000 0.000000 
#    y 0.000000 3.392930 0.000000 
#    z 0.000000 0.000000 3.605730 
# 
# 
# High freq. dielectric constant tensor:
#      x y z
#    x 1.725400 0.000000 0.000000 
#    y 0.000000 1.725400 0.000000 
#    z 0.000000 0.000000 1.729770 
# 
# From -- ./inp_files/8120.got.cif
#   From: 2010.03.12/outbox.cif.g09.slc.cpg/sg131_5_cif.got.tgz:8120.got - 2010.04.06 17:36:35.
