data_PCOD8316817
_publ_section_title
;
Structure prediction by ZEFSAII (Michael W. Deem and Ramdas Pophale) SiO2 
 PCOD8316817
Probable space group: P 42/M C M
;
_chemical_formula_sum "Si O2"
_cell_formula_units_Z 96
_cell_length_a 15.083471
_cell_length_b 15.083471
_cell_length_c 23.131824
_cell_angle_alpha 90.000000
_cell_angle_beta 90.000000
_cell_angle_gamma 90.000000
_cell_volume 5262.746663
_symmetry_space_group_name_H-M "P 42/M C M"
_symmetry_group_IT_number 132
_symmetry_cell_setting 'tetragonal'
loop_
_space_group_symop_operation_xyz
x,y,z
-y,x,1/2+z
-x,-y,z
y,-x,1/2+z
x,-y,1/2-z
-x,y,1/2-z
y,x,-z
-y,-x,-z
-x,-y,-z
y,-x,1/2-z
x,y,-z
-y,x,1/2-z
-x,y,1/2+z
x,-y,1/2+z
-y,-x,z
y,x,z
loop_
_atom_site_type_symbol
_atom_site_label
_atom_site_fract_x
_atom_site_fract_y
_atom_site_fract_z
Si Si1 0.197407 0.802594 0.066142
Si Si2 0.478620 0.896371 0.433853
Si Si3 0.858113 0.640062 0.359162
Si Si4 0.992373 0.244057 0.682218
Si Si5 0.319155 0.177091 0.865124
Si Si6 0.397267 0.745077 0.747430
Si Si7 0.073193 0.073193 0.373808
O O1 0.171331 0.711067 0.094397
O O2 0.121227 0.878774 0.071983
O O3 0.215159 0.784842 0.000000
O O4 0.492534 0.865571 0.500000
O O5 0.545709 0.848814 0.390193
O O6 0.379475 0.865829 0.415670
O O7 0.500000 0.000000 0.428522
O O8 0.799043 0.639725 0.301910
O O9 0.957435 0.668717 0.342078
O O10 0.893455 0.247593 0.657644
O O11 0.000000 0.250086 0.750000
O O12 0.030514 0.149353 0.664793
O O13 0.262936 0.262936 0.887532
O O14 0.380633 0.200514 0.810865
O O15 0.500000 0.724506 0.750000
O O16 0.348881 0.651120 0.745412
O O17 0.000000 0.000000 0.393519
#
# Coordination Sequence:
#
# PCOD8316817 Si02
#       7
#     8  16  16  16  16  16   8
#     4  10  22  39  60  82 115 156 198 249 293 338
#     4  11  23  39  60  85 114 153 202 247 294 356
#     4  11  20  37  60  89 114 147 195 245 291 348
#     4  11  22  34  56  84 120 156 193 244 297 354
#     4  11  23  37  58  86 118 155 194 240 299 354
#     4  11  22  37  61  89 119 150 189 237 295 361
#     4  10  24  37  52  82 118 161 208 244 293 352
#
# _framework density 18.241425
#
# number of rings (size 3 to 8) (size 9 to 14) (size 15 to 20)
#    0.000    1.167    5.833    1.000    2.333    0.667 
#    0.000    2.500    0.000    2.000    0.000    0.000 
#    0.000    5.333    0.000    0.000    0.000    0.000 
#
# Total GULP energy -1190086.145059 kJ/mol
# GULP energy per Si atom -12396.730678 kJ/mol
# Density = 1.819991 g / cm^3
# Si number density = 18.241425 Si / 1000 Ang^3
#
#
#
# Elastic Constant Matrix: (Units=GPa)
#
#
# Indices 1 2 3 4 5 6 
#
# 1 102.0695 30.6134 29.6104 0.0000 0.0000 0.0000
# 2 30.6134 102.0694 29.6102 0.0000 0.0000 0.0000
# 3 29.6104 29.6102 83.8797 0.0000 0.0000 0.0000
# 4 0.0000 0.0000 0.0000 18.0030 0.0000 0.0000
# 5 0.0000 0.0000 0.0000 0.0000 18.0031 0.0000
# 6 0.0000 0.0000 0.0000 0.0000 0.0000 28.0255
#
#
#
# Elastic Compliance Matrix: (Units=1/GPa)
#
#
# Indices 1 2 3 4 5 6 
#
# 1 0.011470 -0.002524 -0.003158 0.000000 0.000000 0.000000
# 2 -0.002524 0.011470 -0.003158 0.000000 0.000000 0.000000
# 3 -0.003158 -0.003158 0.014152 0.000000 0.000000 0.000000
# 4 0.000000 0.000000 0.000000 0.055546 0.000000 0.000000
# 5 0.000000 0.000000 0.000000 0.000000 0.055546 0.000000
# 6 0.000000 0.000000 0.000000 0.000000 0.000000 0.035682
#
#
# Mechanical properties :
#
#
# Convention : Reuss Voigt Hill
#
# Bulk Modulus (GPa) = 51.51542 51.96518 51.74030
# Shear Modulus (GPa) = 24.03635 26.01860 25.02748
#
# Velocity S-wave (km/s) = 3.63392 3.78080 3.70809
# Velocity P-wave (km/s) = 6.77565 6.89990 6.83805
#
# Compressibility (1/GPa) = 0.01941166
#
# Stress axis : x y z
#
# Youngs Moduli (GPa) = 87.18026 87.18035 70.66368
#
# Poissons Ratio (x) = 0.22005 0.22317
# Poissons Ratio (y) = 0.22005 0.22316
# Poissons Ratio (z) = 0.27533 0.27533
#
# Static dielectric constant tensor:
#      x y z
#    x 3.285860 0.000000 0.000000 
#    y 0.000000 3.285860 0.000000 
#    z 0.000000 0.000000 3.310720 
# 
# 
# High freq. dielectric constant tensor:
#      x y z
#    x 1.708480 0.000000 0.000000 
#    y 0.000000 1.708480 0.000000 
#    z 0.000000 0.000000 1.706410 
# 
# From -- ./inp_files/9047.got.cif
#   From: 2010.03.12/outbox.cif.g09.slc.cpg/sg132_5_cif.got.tgz:9047.got - 2010.04.06 17:53:44.
