data_PCOD8316222
_publ_section_title
;
Structure prediction by ZEFSAII (Michael W. Deem and Ramdas Pophale) SiO2 
 PCOD8316222
Probable space group: P 42/M M C
;
_chemical_formula_sum "Si O2"
_cell_formula_units_Z 112
_cell_length_a 14.621959
_cell_length_b 14.621959
_cell_length_c 28.719011
_cell_angle_alpha 90.000000
_cell_angle_beta 90.000000
_cell_angle_gamma 90.000000
_cell_volume 6140.172943
_symmetry_space_group_name_H-M "P 42/M M C"
_symmetry_group_IT_number 131
_symmetry_cell_setting 'tetragonal'
loop_
_space_group_symop_operation_xyz
x,y,z
-x,-y,z
-y,x,1/2+z
y,-x,1/2+z
-x,y,-z
x,-y,-z
y,x,1/2-z
-y,-x,1/2-z
-x,-y,-z
x,y,-z
y,-x,1/2-z
-y,x,1/2-z
x,-y,z
-x,y,z
-y,-x,1/2+z
y,x,1/2+z
loop_
_atom_site_type_symbol
_atom_site_label
_atom_site_fract_x
_atom_site_fract_y
_atom_site_fract_z
Si Si1 0.103220 0.103947 0.551182
Si Si2 0.607293 0.401112 0.799004
Si Si3 0.396542 0.236785 0.138766
Si Si4 0.773761 0.109353 0.285235
Si Si5 0.759137 0.200619 0.613618
Si Si6 0.103555 0.398891 0.724684
Si Si7 0.393882 0.106336 0.446320
O O1 0.148229 0.114199 0.500000
O O2 0.153168 0.163523 0.588365
O O3 0.000000 0.138470 0.549245
O O4 0.108640 0.000000 0.567879
O O5 0.643114 0.356887 0.750000
O O6 0.652105 0.500000 0.810021
O O7 0.500000 0.411266 0.790743
O O8 0.627293 0.336804 0.841870
O O9 0.500000 0.233337 0.116319
O O10 0.310133 0.226533 0.104801
O O11 0.388297 0.163171 0.178951
O O12 0.851776 0.148224 0.250000
O O13 0.769299 0.166445 0.333182
O O14 0.674623 0.128888 0.263484
O O15 0.790652 0.000000 0.293265
O O16 0.666085 0.166166 0.589288
O O17 0.118506 0.500000 0.746611
O O18 0.000000 0.384894 0.707780
O O19 0.373368 0.133241 0.500000
O O20 0.500000 0.124419 0.434806
O O21 0.369450 0.000000 0.438419
#
# Coordination Sequence:
#
# PCOD8316222 Si02
#       7
#    16  16  16  16  16  16  16
#     4   9  19  37  61  88 112 134 169 221 281 341
#     4   8  15  28  46  67  91 124 169 221 270 305
#     4  10  21  34  51  74 105 144 187 229 268 315
#     4  11  23  37  51  76 112 149 188 227 274 335
#     4  12  22  33  57  84 112 144 189 228 279 336
#     4   9  19  37  55  68  95 143 192 234 270 308
#     4   9  19  37  60  87 118 148 182 231 293 355
#
# _framework density 18.240528000000001
#
# number of rings (size 3 to 8) (size 9 to 14) (size 15 to 20)
#    0.000    2.286    1.429    3.000    2.000    3.571 
#    0.000    1.429    0.000    1.714    0.000    2.000 
#    0.000    0.000    0.000    0.000    0.000    0.000 
#
# Total GULP energy -1387542.971744 kJ/mol
# GULP energy per Si atom -12388.776533 kJ/mol
# Density = 1.819901 g / cm^3
# Si number density = 18.240528 Si / 1000 Ang^3
#
#
#
# Elastic Constant Matrix: (Units=GPa)
#
#
# Indices 1 2 3 4 5 6 
#
# 1 87.4261 53.9400 43.4645 0.0000 0.0000 0.0000
# 2 53.9400 87.4273 43.4654 0.0000 0.0000 0.0000
# 3 43.4645 43.4654 75.7410 0.0000 0.0000 0.0000
# 4 0.0000 0.0000 0.0000 30.7062 0.0000 0.0000
# 5 0.0000 0.0000 0.0000 0.0000 30.7062 0.0000
# 6 0.0000 0.0000 0.0000 0.0000 0.0000 7.2368
#
#
#
# Elastic Compliance Matrix: (Units=1/GPa)
#
#
# Indices 1 2 3 4 5 6 
#
# 1 0.020397 -0.009466 -0.006273 0.000000 0.000000 0.000000
# 2 -0.009466 0.020397 -0.006273 0.000000 0.000000 0.000000
# 3 -0.006273 -0.006273 0.020403 0.000000 0.000000 0.000000
# 4 0.000000 0.000000 0.000000 0.032567 0.000000 0.000000
# 5 0.000000 0.000000 0.000000 0.000000 0.032567 0.000000
# 6 0.000000 0.000000 0.000000 0.000000 0.000000 0.138183
#
#
# Mechanical properties :
#
#
# Convention : Reuss Voigt Hill
#
# Bulk Modulus (GPa) = 58.23109 59.14826 58.68967
# Shear Modulus (GPa) = 15.91035 21.04481 18.47758
#
# Velocity S-wave (km/s) = 2.95660 3.40036 3.18621
# Velocity P-wave (km/s) = 6.60671 6.92198 6.76618
#
# Compressibility (1/GPa) = 0.01717296
#
# Stress axis : x y z
#
# Youngs Moduli (GPa) = 49.02699 49.02711 49.01326
#
# Poissons Ratio (x) = 0.46407 0.30745
# Poissons Ratio (y) = 0.46407 0.30747
# Poissons Ratio (z) = 0.30754 0.30756
#
# Static dielectric constant tensor:
#      x y z
#    x 3.672110 0.000000 0.000000 
#    y 0.000000 3.672080 0.000000 
#    z 0.000000 0.000000 3.017390 
# 
# 
# High freq. dielectric constant tensor:
#      x y z
#    x 1.713720 0.000000 0.000000 
#    y 0.000000 1.713720 0.000000 
#    z 0.000000 0.000000 1.675540 
# 
# From -- ./inp_files/12415.got.cif
#   From: 2010.03.12/outbox.cif.g09.slc.cpg/sg131_7_cif.got.tgz:12415.got - 2010.04.06 17:36:35.
