data_PCOD8316552
_publ_section_title
;
Structure prediction by ZEFSAII (Michael W. Deem and Ramdas Pophale) SiO2 
 PCOD8316552
Probable space group: P 42/M C M
;
_chemical_formula_sum "Si O2"
_cell_formula_units_Z 96
_cell_length_a 14.181308
_cell_length_b 14.181308
_cell_length_c 29.924625
_cell_angle_alpha 90.000000
_cell_angle_beta 90.000000
_cell_angle_gamma 90.000000
_cell_volume 6018.126269
_symmetry_space_group_name_H-M "P 42/M C M"
_symmetry_group_IT_number 132
_symmetry_cell_setting 'tetragonal'
loop_
_space_group_symop_operation_xyz
x,y,z
-y,x,1/2+z
-x,-y,z
y,-x,1/2+z
x,-y,1/2-z
-x,y,1/2-z
y,x,-z
-y,-x,-z
-x,-y,-z
y,-x,1/2-z
x,y,-z
-y,x,1/2-z
-x,y,1/2+z
x,-y,1/2+z
-y,-x,z
y,x,z
loop_
_atom_site_type_symbol
_atom_site_label
_atom_site_fract_x
_atom_site_fract_y
_atom_site_fract_z
Si Si1 0.217318 0.060092 0.549094
Si Si2 0.622495 0.773933 0.208822
Si Si3 0.865010 0.712485 0.636233
Si Si4 0.965961 0.712431 0.203290
Si Si5 0.078592 0.921409 0.690466
Si Si6 0.587056 0.735811 0.690823
Si Si7 0.922167 0.922167 0.085745
O O1 0.265053 0.050057 0.500000
O O2 0.130371 0.130371 0.546167
O O3 0.293224 0.101880 0.584467
O O4 0.176756 0.957842 0.564581
O O5 0.699130 0.699130 0.193268
O O6 0.653327 0.874021 0.188328
O O7 0.618716 0.783491 0.262581
O O8 0.525241 0.736508 0.187573
O O9 0.813516 0.813516 0.645550
O O10 0.794076 0.628295 0.648819
O O11 0.957325 0.700944 0.665342
O O12 0.947714 0.822268 0.212135
O O13 0.000000 0.668030 0.250000
O O14 0.092418 0.907583 0.637957
O O15 0.000000 0.000000 0.702231
O O16 0.628901 0.628901 0.689201
O O17 0.000000 0.000000 0.076049
#
# Coordination Sequence:
#
# PCOD8316552 Si02
#       7
#    16  16  16  16   8  16   8
#     4   9  16  26  42  63  89 123 163 208 247 279
#     4  10  20  34  49  71  94 121 163 202 239 285
#     4  10  19  32  46  66  98 131 164 198 238 285
#     4  12  22  30  45  64  98 134 166 201 229 270
#     4  11  22  29  40  65  97 139 172 194 224 270
#     4   9  19  35  52  68  92 121 154 201 250 292
#     4   9  15  26  39  58  90 123 165 205 238 271
#
# _framework density 15.951808
#
# number of rings (size 3 to 8) (size 9 to 14) (size 15 to 20)
#    0.000    2.000    4.167    0.750    2.333    2.000 
#    0.000    1.667    0.000    0.000    0.000    2.333 
#    0.000    2.000    0.000    6.500    0.000    0.167 
#
# Total GULP energy -1189920.227404 kJ/mol
# GULP energy per Si atom -12395.002369 kJ/mol
# Density = 1.591550 g / cm^3
# Si number density = 15.951808 Si / 1000 Ang^3
#
#
#
# Elastic Constant Matrix: (Units=GPa)
#
#
# Indices 1 2 3 4 5 6 
#
# 1 137.2842 -10.6996 31.6022 0.0000 0.0000 0.0000
# 2 -10.6996 137.2842 31.6022 0.0000 0.0000 0.0000
# 3 31.6022 31.6022 96.8337 0.0000 0.0000 0.0000
# 4 0.0000 0.0000 0.0000 9.6382 0.0000 0.0000
# 5 0.0000 0.0000 0.0000 0.0000 9.6382 0.0000
# 6 0.0000 0.0000 0.0000 0.0000 0.0000 17.6047
#
#
#
# Elastic Compliance Matrix: (Units=1/GPa)
#
#
# Indices 1 2 3 4 5 6 
#
# 1 0.008098 0.001340 -0.003080 0.000000 0.000000 0.000000
# 2 0.001340 0.008098 -0.003080 0.000000 0.000000 0.000000
# 3 -0.003080 -0.003080 0.012337 0.000000 0.000000 0.000000
# 4 0.000000 0.000000 0.000000 0.103754 0.000000 0.000000
# 5 0.000000 0.000000 0.000000 0.000000 0.103754 0.000000
# 6 0.000000 0.000000 0.000000 0.000000 0.000000 0.056803
#
#
# Mechanical properties :
#
#
# Convention : Reuss Voigt Hill
#
# Bulk Modulus (GPa) = 52.93071 52.93463 52.93267
# Shear Modulus (GPa) = 16.19270 28.63603 22.41437
#
# Velocity S-wave (km/s) = 3.18952 4.24153 3.75257
# Velocity P-wave (km/s) = 6.84235 7.56595 7.21323
#
# Compressibility (1/GPa) = 0.01889263
#
# Stress axis : x y z
#
# Youngs Moduli (GPa) = 123.49306 123.49306 81.05458
#
# Poissons Ratio (x) = -0.16550 0.24965
# Poissons Ratio (y) = -0.16550 0.24965
# Poissons Ratio (z) = 0.38037 0.38037
#
# Static dielectric constant tensor:
#      x y z
#    x 2.947830 0.000000 0.000000 
#    y 0.000000 2.947830 0.000000 
#    z 0.000000 0.000000 3.116000 
# 
# 
# High freq. dielectric constant tensor:
#      x y z
#    x 1.593810 0.000000 0.000000 
#    y 0.000000 1.593810 0.000000 
#    z 0.000000 0.000000 1.590450 
# 
# From -- ./inp_files/10965.got.cif
#   From: 2010.03.12/outbox.cif.g09.slc.cpg/sg132_6_cif.got.tgz:10965.got - 2010.04.06 17:53:44.
