data_PCOD8316046
_publ_section_title
;
Structure prediction by ZEFSAII (Michael W. Deem and Ramdas Pophale) SiO2 
 PCOD8316046
Probable space group: P 42/M M C
;
_chemical_formula_sum "Si O2"
_cell_formula_units_Z 72
_cell_length_a 14.929701
_cell_length_b 14.929701
_cell_length_c 19.145435
_cell_angle_alpha 90.000000
_cell_angle_beta 90.000000
_cell_angle_gamma 90.000000
_cell_volume 4267.440343
_symmetry_space_group_name_H-M "P 42/M M C"
_symmetry_group_IT_number 131
_symmetry_cell_setting 'tetragonal'
loop_
_space_group_symop_operation_xyz
x,y,z
-x,-y,z
-y,x,1/2+z
y,-x,1/2+z
-x,y,-z
x,-y,-z
y,x,1/2-z
-y,-x,1/2-z
-x,-y,-z
x,y,-z
y,-x,1/2-z
-y,x,1/2-z
x,-y,z
-x,y,z
-y,-x,1/2+z
y,x,1/2+z
loop_
_atom_site_type_symbol
_atom_site_label
_atom_site_fract_x
_atom_site_fract_y
_atom_site_fract_z
Si Si1 0.897112 0.102547 0.918106
Si Si2 0.212419 0.758594 0.827371
Si Si3 0.600213 0.899069 0.714636
Si Si4 0.193451 0.399047 0.358675
Si Si5 0.096938 0.604521 0.500000
O O1 0.830054 0.169286 0.879211
O O2 0.000000 0.125693 0.898955
O O3 0.876161 0.000000 0.896330
O O4 0.880837 0.115436 0.000000
O O5 0.200980 0.799021 0.750000
O O6 0.163550 0.663212 0.832342
O O7 0.318096 0.737349 0.843003
O O8 0.500000 0.884789 0.686036
O O9 0.602925 0.879793 0.797400
O O10 0.632996 0.000000 0.703930
O O11 0.236773 0.500000 0.363248
O O12 0.149514 0.368407 0.430897
O O13 0.080767 0.500000 0.500000
O O14 0.000000 0.653369 0.500000
#
# Coordination Sequence:
#
# PCOD8316046 Si02
#       5
#    16  16  16  16   8
#     4   9  19  34  48  65  94 130 162 194 237 287
#     4  10  20  31  48  72  95 125 165 203 238 287
#     4   9  17  31  50  70  95 125 159 204 252 289
#     4   9  18  30  44  68 100 129 156 192 242 294
#     4   9  16  26  42  66  96 127 156 184 224 287
#
# _framework density 16.871939000000001
#
# number of rings (size 3 to 8) (size 9 to 14) (size 15 to 20)
#    0.000    2.778    0.000    2.000    1.556    8.000 
#    0.000    1.111    0.000    1.333    0.000    7.778 
#    0.000    2.667    0.000    0.222    0.000    0.000 
#
# Total GULP energy -892178.186475 kJ/mol
# GULP energy per Si atom -12391.363701 kJ/mol
# Density = 1.683354 g / cm^3
# Si number density = 16.871939 Si / 1000 Ang^3
#
#
#
# Elastic Constant Matrix: (Units=GPa)
#
#
# Indices 1 2 3 4 5 6 
#
# 1 106.5307 67.9309 36.7108 0.0000 0.0000 0.0000
# 2 67.9309 106.5305 36.7107 0.0000 0.0000 0.0000
# 3 36.7108 36.7107 61.5509 0.0000 0.0000 0.0000
# 4 0.0000 0.0000 0.0000 21.4694 0.0000 0.0000
# 5 0.0000 0.0000 0.0000 0.0000 21.4694 0.0000
# 6 0.0000 0.0000 0.0000 0.0000 0.0000 24.0207
#
#
#
# Elastic Compliance Matrix: (Units=1/GPa)
#
#
# Indices 1 2 3 4 5 6 
#
# 1 0.016780 -0.009127 -0.004564 0.000000 0.000000 0.000000
# 2 -0.009127 0.016780 -0.004564 0.000000 0.000000 0.000000
# 3 -0.004564 -0.004564 0.021691 0.000000 0.000000 0.000000
# 4 0.000000 0.000000 0.000000 0.046578 0.000000 0.000000
# 5 0.000000 0.000000 0.000000 0.000000 0.046578 0.000000
# 6 0.000000 0.000000 0.000000 0.000000 0.000000 0.041631
#
#
# Mechanical properties :
#
#
# Convention : Reuss Voigt Hill
#
# Bulk Modulus (GPa) = 53.36313 61.92411 57.64362
# Shear Modulus (GPa) = 21.47807 22.27590 21.87698
#
# Velocity S-wave (km/s) = 3.57179 3.63753 3.60481
# Velocity P-wave (km/s) = 6.97906 7.37728 7.18093
#
# Compressibility (1/GPa) = 0.01873953
#
# Stress axis : x y z
#
# Youngs Moduli (GPa) = 59.59527 59.59513 46.10133
#
# Poissons Ratio (x) = 0.54393 0.21042
# Poissons Ratio (y) = 0.54393 0.21042
# Poissons Ratio (z) = 0.27201 0.27201
#
# Static dielectric constant tensor:
#      x y z
#    x 3.179130 0.000000 0.000000 
#    y 0.000000 3.179130 0.000000 
#    z 0.000000 0.000000 3.243440 
# 
# 
# High freq. dielectric constant tensor:
#      x y z
#    x 1.638730 0.000000 0.000000 
#    y 0.000000 1.638730 0.000000 
#    z 0.000000 0.000000 1.642910 
# 
# From -- ./inp_files/7523.got.cif
#   From: 2010.03.12/outbox.cif.g09.slc.cpg/sg131_4_cif.got.tgz:7523.got - 2010.04.06 17:36:35.
