data_PCOD8316176
_publ_section_title
;
Structure prediction by ZEFSAII (Michael W. Deem and Ramdas Pophale) SiO2 
 PCOD8316176
Probable space group: P 42/M M C
;
_chemical_formula_sum "Si O2"
_cell_formula_units_Z 52
_cell_length_a 19.400658
_cell_length_b 19.400658
_cell_length_c 7.631969
_cell_angle_alpha 90.000000
_cell_angle_beta 90.000000
_cell_angle_gamma 90.000000
_cell_volume 2872.562703
_symmetry_space_group_name_H-M "P 42/M M C"
_symmetry_group_IT_number 131
_symmetry_cell_setting 'tetragonal'
loop_
_space_group_symop_operation_xyz
x,y,z
-x,-y,z
-y,x,1/2+z
y,-x,1/2+z
-x,y,-z
x,-y,-z
y,x,1/2-z
-y,-x,1/2-z
-x,-y,-z
x,y,-z
y,-x,1/2-z
-y,x,1/2-z
x,-y,z
-x,y,z
-y,-x,1/2+z
y,x,1/2+z
loop_
_atom_site_type_symbol
_atom_site_label
_atom_site_fract_x
_atom_site_fract_y
_atom_site_fract_z
Si Si1 0.146080 0.576402 0.500000
Si Si2 0.920554 0.338490 0.196871
Si Si3 0.077355 0.811030 0.296511
Si Si4 0.389027 0.500000 0.795787
Si Si5 0.500000 0.277917 0.000000
O O1 0.111197 0.500000 0.500000
O O2 0.125449 0.616439 0.325275
O O3 0.229268 0.568135 0.500000
O O4 0.897664 0.258445 0.200413
O O5 0.000000 0.344221 0.256998
O O6 0.910093 0.366598 0.000000
O O7 0.125779 0.874222 0.250000
O O8 0.079789 0.794498 0.500000
O O9 0.000000 0.831005 0.236134
O O10 0.432309 0.432309 0.750000
O O11 0.321375 0.500000 0.677801
O O12 0.368305 0.500000 0.000000
#
# Coordination Sequence:
#
# PCOD8316176 Si02
#       5
#     8  16  16   8   4
#     4  10  23  40  59  82 131 149 195 242 299 332
#     4  10  20  37  62  86 111 154 204 246 297 358
#     4  10  20  35  57  83 116 155 199 254 305 359
#     4  11  19  37  70  95 118 150 197 236 283 344
#     4  10  24  39  57  96 124 160 182 242 294 332
#
# _framework density 18.102302999999999
#
# number of rings (size 3 to 8) (size 9 to 14) (size 15 to 20)
#    0.462    1.385    3.077    1.846    0.000    5.231 
#    0.000    4.615    0.000    0.000    0.000    0.000 
#    0.000    0.000    0.000    0.000    0.000    0.000 
#
# Total GULP energy -644762.172453 kJ/mol
# GULP energy per Si atom -12399.272547 kJ/mol
# Density = 1.806110 g / cm^3
# Si number density = 18.102303 Si / 1000 Ang^3
#
#
#
# Elastic Constant Matrix: (Units=GPa)
#
#
# Indices 1 2 3 4 5 6 
#
# 1 113.4466 71.3449 56.7097 0.0000 0.0000 0.0000
# 2 71.3449 113.4435 56.7101 0.0000 0.0000 0.0000
# 3 56.7097 56.7101 138.4346 0.0000 0.0000 0.0000
# 4 0.0000 0.0000 0.0000 29.7809 0.0000 0.0000
# 5 0.0000 0.0000 0.0000 0.0000 29.7809 0.0000
# 6 0.0000 0.0000 0.0000 0.0000 0.0000 214.5831
#
#
#
# Elastic Compliance Matrix: (Units=1/GPa)
#
#
# Indices 1 2 3 4 5 6 
#
# 1 0.015491 -0.008262 -0.002961 0.000000 0.000000 0.000000
# 2 -0.008262 0.015491 -0.002962 0.000000 0.000000 0.000000
# 3 -0.002961 -0.002962 0.009650 0.000000 0.000000 0.000000
# 4 0.000000 0.000000 0.000000 0.033579 0.000000 0.000000
# 5 0.000000 0.000000 0.000000 0.000000 0.033579 0.000000
# 6 0.000000 0.000000 0.000000 0.000000 0.000000 0.004660
#
#
# Mechanical properties :
#
#
# Convention : Reuss Voigt Hill
#
# Bulk Modulus (GPa) = 81.54899 81.65045 81.59972
# Shear Modulus (GPa) = 34.50503 66.86631 50.68567
#
# Velocity S-wave (km/s) = 4.37064 6.08426 5.29720
# Velocity P-wave (km/s) = 8.40338 9.72422 9.08783
#
# Compressibility (1/GPa) = 0.01226257
#
# Stress axis : x y z
#
# Youngs Moduli (GPa) = 64.55461 64.55218 103.62731
#
# Poissons Ratio (x) = 0.53332 0.30687
# Poissons Ratio (y) = 0.53334 0.30690
# Poissons Ratio (z) = 0.19117 0.19118
#
# Static dielectric constant tensor:
#      x y z
#    x 3.313710 0.000000 0.000000 
#    y 0.000000 3.313730 0.000000 
#    z 0.000000 0.000000 3.503510 
# 
# 
# High freq. dielectric constant tensor:
#      x y z
#    x 1.688770 0.000000 0.000000 
#    y 0.000000 1.688770 0.000000 
#    z 0.000000 0.000000 1.720680 
# 
# From -- ./inp_files/1158.got.cif
#   From: 2010.03.12/outbox.cif.g09.slc.cpg/sg131_1_cif.got.tgz:1158.got - 2010.04.06 17:36:35.
