data_PCOD8316906
_publ_section_title
;
Structure prediction by ZEFSAII (Michael W. Deem and Ramdas Pophale) SiO2 
 PCOD8316906
Probable space group: P 42/N B C
;
_chemical_formula_sum "Si O2"
_cell_formula_units_Z 112
_cell_length_a 18.516916
_cell_length_b 18.516916
_cell_length_c 18.765497
_cell_angle_alpha 90.000000
_cell_angle_beta 90.000000
_cell_angle_gamma 90.000000
_cell_volume 6434.241892
_symmetry_space_group_name_H-M "P 42/N B C"
_symmetry_group_IT_number 133
_space_group.IT_coordinate_system_code '2'
_symmetry_cell_setting 'tetragonal'
loop_
_space_group_symop_operation_xyz
x,y,z
1/2-y,x,1/2+z
1/2-x,1/2-y,z
y,1/2-x,1/2+z
x,1/2-y,-z
1/2-x,y,-z
y,x,1/2-z
1/2-y,1/2-x,1/2-z
-x,-y,-z
1/2+y,-x,1/2-z
1/2+x,1/2+y,-z
-y,1/2+x,1/2-z
-x,1/2+y,z
1/2+x,-y,z
-y,-x,1/2+z
1/2+y,1/2+x,1/2+z
loop_
_atom_site_type_symbol
_atom_site_label
_atom_site_fract_x
_atom_site_fract_y
_atom_site_fract_z
Si Si1 0.030143 0.580575 0.080545
Si Si2 0.774926 0.545581 0.424026
Si Si3 0.081546 0.957011 0.068318
Si Si4 0.633875 0.522718 0.336914
Si Si5 0.024768 0.231601 0.416957
Si Si6 0.683652 0.710419 0.575474
Si Si7 0.508413 0.629786 0.328021
O O1 0.072847 0.552573 0.149261
O O2 0.005515 0.660458 0.101480
O O3 0.959125 0.533414 0.064782
O O4 0.080956 0.578341 0.010405
O O5 0.750000 0.515212 0.500000
O O6 0.712243 0.540998 0.366328
O O7 0.800991 0.626762 0.434506
O O8 0.044799 0.901655 0.122875
O O9 0.162853 0.972824 0.094398
O O10 0.586102 0.594951 0.347380
O O11 0.643112 0.500508 0.255328
O O12 0.026959 0.250000 0.500000
O O13 0.105948 0.217884 0.386574
O O14 0.993694 0.297141 0.371012
O O15 0.750000 0.750000 0.618389
O O16 0.678643 0.750000 0.500000
#
# Coordination Sequence:
#
# PCOD8316906 Si02
#       7
#    16  16  16  16  16  16  16
#     4  10  20  34  57  84 115 146 197 244 282 335
#     4  12  20  33  56  90 117 149 194 238 287 342
#     4  10  19  34  56  87 111 147 196 243 278 332
#     4  10  23  38  57  81 121 156 184 235 298 350
#     4  11  20  32  58  87 112 147 195 235 279 334
#     4  10  19  28  48  86 123 152 181 225 277 342
#     4  10  22  40  56  81 119 156 186 233 300 351
#
# _framework density 17.406867999999999
#
# number of rings (size 3 to 8) (size 9 to 14) (size 15 to 20)
#    0.000    1.571    5.714    0.857    2.000    1.143 
#    0.000    0.714    0.000    3.429    0.000    2.000 
#    0.000    0.000    0.000    0.000    0.000    0.000 
#
# Total GULP energy -1388713.106457 kJ/mol
# GULP energy per Si atom -12399.224165 kJ/mol
# Density = 1.736725 g / cm^3
# Si number density = 17.406868 Si / 1000 Ang^3
#
#
#
# Elastic Constant Matrix: (Units=GPa)
#
#
# Indices 1 2 3 4 5 6 
#
# 1 93.8187 47.4551 34.6714 0.0000 0.0000 0.0000
# 2 47.4551 93.8187 34.6714 0.0000 0.0000 0.0000
# 3 34.6714 34.6714 98.0304 0.0000 0.0000 0.0000
# 4 0.0000 0.0000 0.0000 19.5142 0.0000 0.0000
# 5 0.0000 0.0000 0.0000 0.0000 19.5142 0.0000
# 6 0.0000 0.0000 0.0000 0.0000 0.0000 19.4083
#
#
#
# Elastic Compliance Matrix: (Units=1/GPa)
#
#
# Indices 1 2 3 4 5 6 
#
# 1 0.015067 -0.006502 -0.003029 0.000000 0.000000 0.000000
# 2 -0.006502 0.015067 -0.003029 0.000000 0.000000 0.000000
# 3 -0.003029 -0.003029 0.012344 0.000000 0.000000 0.000000
# 4 0.000000 0.000000 0.000000 0.051245 0.000000 0.000000
# 5 0.000000 0.000000 0.000000 0.000000 0.051245 0.000000
# 6 0.000000 0.000000 0.000000 0.000000 0.000000 0.051524
#
#
# Mechanical properties :
#
#
# Convention : Reuss Voigt Hill
#
# Bulk Modulus (GPa) = 57.61377 57.69597 57.65487
# Shear Modulus (GPa) = 21.98787 22.94534 22.46661
#
# Velocity S-wave (km/s) = 3.55797 3.63461 3.59649
# Velocity P-wave (km/s) = 7.07453 7.12961 7.10212
#
# Compressibility (1/GPa) = 0.01735696
#
# Stress axis : x y z
#
# Youngs Moduli (GPa) = 66.37008 66.37008 81.01231
#
# Poissons Ratio (x) = 0.43151 0.24542
# Poissons Ratio (y) = 0.43151 0.24542
# Poissons Ratio (z) = 0.20106 0.20106
#
# Static dielectric constant tensor:
#      x y z
#    x 3.284650 0.000000 0.000000 
#    y 0.000000 3.284650 0.000000 
#    z 0.000000 0.000000 3.266600 
# 
# 
# High freq. dielectric constant tensor:
#      x y z
#    x 1.667750 0.000000 0.000000 
#    y 0.000000 1.667750 0.000000 
#    z 0.000000 0.000000 1.653410 
# 
# From -- ./inp_files/6692.got.cif
#   From: 2010.03.12/outbox.cif.g09.slc.cpg/sg133_4_cif.got.tgz:6692.got - 2010.04.06 18:08:06.
