data_PCOD8316434
_publ_section_title
;
Structure prediction by ZEFSAII (Michael W. Deem and Ramdas Pophale) SiO2 
 PCOD8316434
Probable space group: P 42/M C M
;
_chemical_formula_sum "Si O2"
_cell_formula_units_Z 112
_cell_length_a 28.684642
_cell_length_b 28.684642
_cell_length_c 9.236021
_cell_angle_alpha 90.000000
_cell_angle_beta 90.000000
_cell_angle_gamma 90.000000
_cell_volume 7599.478309
_symmetry_space_group_name_H-M "P 42/M C M"
_symmetry_group_IT_number 132
_symmetry_cell_setting 'tetragonal'
loop_
_space_group_symop_operation_xyz
x,y,z
-y,x,1/2+z
-x,-y,z
y,-x,1/2+z
x,-y,1/2-z
-x,y,1/2-z
y,x,-z
-y,-x,-z
-x,-y,-z
y,-x,1/2-z
x,y,-z
-y,x,1/2-z
-x,y,1/2+z
x,-y,1/2+z
-y,-x,z
y,x,z
loop_
_atom_site_type_symbol
_atom_site_label
_atom_site_fract_x
_atom_site_fract_y
_atom_site_fract_z
Si Si1 0.281946 0.861890 0.336256
Si Si2 0.044191 0.287370 0.338204
Si Si3 0.778911 0.352085 0.327759
Si Si4 0.396911 0.956881 0.839049
Si Si5 0.543149 0.210050 0.340546
Si Si6 0.283201 0.283201 0.328144
Si Si7 0.218572 0.218572 0.838525
Si Si8 0.899156 0.457304 0.339638
O O1 0.292053 0.878748 0.500000
O O2 0.276710 0.906645 0.236067
O O3 0.323168 0.826092 0.287082
O O4 0.231440 0.835961 0.325799
O O5 0.044231 0.265739 0.500000
O O6 0.038122 0.342165 0.348593
O O7 0.000000 0.266227 0.250000
O O8 0.771511 0.349409 0.500000
O O9 0.781557 0.405582 0.272640
O O10 0.734068 0.331411 0.244277
O O11 0.410138 0.910435 0.749257
O O12 0.418739 0.000000 0.750000
O O13 0.418497 0.954879 0.000000
O O14 0.500000 0.232021 0.250000
O O15 0.540721 0.232717 0.500000
O O16 0.535751 0.155366 0.352781
O O17 0.289001 0.289001 0.500000
O O18 0.244672 0.244672 0.290756
O O19 0.235922 0.235922 0.000000
O O20 0.921716 0.500000 0.250000
O O21 0.921233 0.454526 0.500000
#
# Coordination Sequence:
#
# PCOD8316434 Si02
#       8
#    16  16  16  16  16   8   8  16
#     4   9  16  28  46  63  81 106 137 168 200 241
#     4  10  20  31  43  59  79 102 130 163 199 237
#     4   9  17  30  45  60  82 112 137 161 203 254
#     4  10  20  32  43  55  70  90 118 154 195 238
#     4   9  18  30  44  60  78 102 131 161 195 236
#     4  10  18  26  40  64  86 104 132 171 204 233
#     4   8  16  30  44  60  84 112 134 157 198 251
#     4  10  19  31  44  57  72  90 116 152 193 237
#
# _framework density 14.737852999999999
#
# number of rings (size 3 to 8) (size 9 to 14) (size 15 to 20)
#    0.000    2.571    0.000    3.643    0.000    6.571 
#    0.000    1.429    0.000    0.000    0.000    0.000 
#    0.000    0.000    0.000    0.000    0.000    0.714 
#
# Total GULP energy -1387755.674519 kJ/mol
# GULP energy per Si atom -12390.675665 kJ/mol
# Density = 1.470431 g / cm^3
# Si number density = 14.737853 Si / 1000 Ang^3
#
#
#
# Elastic Constant Matrix: (Units=GPa)
#
#
# Indices 1 2 3 4 5 6 
#
# 1 56.7282 37.6922 38.6178 0.0000 0.0000 0.0000
# 2 37.6922 56.7282 38.6178 0.0000 0.0000 0.0000
# 3 38.6178 38.6178 102.8668 0.0000 0.0000 0.0000
# 4 0.0000 0.0000 0.0000 18.7051 0.0000 0.0000
# 5 0.0000 0.0000 0.0000 0.0000 18.7051 0.0000
# 6 0.0000 0.0000 0.0000 0.0000 0.0000 20.2649
#
#
#
# Elastic Compliance Matrix: (Units=1/GPa)
#
#
# Indices 1 2 3 4 5 6 
#
# 1 0.033908 -0.018624 -0.005738 0.000000 0.000000 0.000000
# 2 -0.018624 0.033908 -0.005738 0.000000 0.000000 0.000000
# 3 -0.005738 -0.005738 0.014030 0.000000 0.000000 0.000000
# 4 0.000000 0.000000 0.000000 0.053461 0.000000 0.000000
# 5 0.000000 0.000000 0.000000 0.000000 0.053461 0.000000
# 6 0.000000 0.000000 0.000000 0.000000 0.000000 0.049346
#
#
# Mechanical properties :
#
#
# Convention : Reuss Voigt Hill
#
# Bulk Modulus (GPa) = 46.19661 49.57539 47.88600
# Shear Modulus (GPa) = 16.36495 18.29472 17.32984
#
# Velocity S-wave (km/s) = 3.33589 3.52709 3.43282
# Velocity P-wave (km/s) = 6.80082 7.09213 6.94800
#
# Compressibility (1/GPa) = 0.02164661
#
# Stress axis : x y z
#
# Youngs Moduli (GPa) = 29.49120 29.49120 71.27760
#
# Poissons Ratio (x) = 0.54924 0.40900
# Poissons Ratio (y) = 0.54924 0.40900
# Poissons Ratio (z) = 0.16922 0.16922
#
# Static dielectric constant tensor:
#      x y z
#    x 2.710220 0.000000 0.000000 
#    y 0.000000 2.710220 0.000000 
#    z 0.000000 0.000000 3.166570 
# 
# 
# High freq. dielectric constant tensor:
#      x y z
#    x 1.528700 0.000000 0.000000 
#    y 0.000000 1.528700 0.000000 
#    z 0.000000 0.000000 1.577100 
# 
# From -- ./inp_files/2181.got.cif
#   From: 2010.03.12/outbox.cif.g09.slc.cpg/sg132_2_cif.got.tgz:2181.got - 2010.04.06 17:53:44.
