data_PCOD8316844
_publ_section_title
;
Structure prediction by ZEFSAII (Michael W. Deem and Ramdas Pophale) SiO2 
 PCOD8316844
Probable space group: P 42/M C M
;
_chemical_formula_sum "Si O2"
_cell_formula_units_Z 104
_cell_length_a 20.051788
_cell_length_b 20.051788
_cell_length_c 14.567976
_cell_angle_alpha 90.000000
_cell_angle_beta 90.000000
_cell_angle_gamma 90.000000
_cell_volume 5857.407325
_symmetry_space_group_name_H-M "P 42/M C M"
_symmetry_group_IT_number 132
_symmetry_cell_setting 'tetragonal'
loop_
_space_group_symop_operation_xyz
x,y,z
-y,x,1/2+z
-x,-y,z
y,-x,1/2+z
x,-y,1/2-z
-x,y,1/2-z
y,x,-z
-y,-x,-z
-x,-y,-z
y,-x,1/2-z
x,y,-z
-y,x,1/2-z
-x,y,1/2+z
x,-y,1/2+z
-y,-x,z
y,x,z
loop_
_atom_site_type_symbol
_atom_site_label
_atom_site_fract_x
_atom_site_fract_y
_atom_site_fract_z
Si Si1 0.354394 0.057045 0.316822
Si Si2 0.367942 0.525509 0.849084
Si Si3 0.167425 0.534721 0.500000
Si Si4 0.050985 0.437387 0.500000
Si Si5 0.734651 0.629700 0.694677
Si Si6 0.429701 0.325344 0.000000
Si Si7 0.432208 0.843364 0.298599
Si Si8 0.830153 0.274160 0.105288
O O1 0.391061 0.036031 0.411260
O O2 0.409987 0.091351 0.254424
O O3 0.290105 0.103717 0.336603
O O4 0.325803 0.000000 0.250000
O O5 0.389347 0.500000 0.750000
O O6 0.425019 0.574982 0.887498
O O7 0.296379 0.562976 0.848327
O O8 0.359899 0.461372 0.911539
O O9 0.129942 0.461340 0.500000
O O10 0.247200 0.548115 0.500000
O O11 0.139816 0.567063 0.593510
O O12 0.000000 0.500000 0.500000
O O13 0.675755 0.675755 0.733015
O O14 0.780818 0.616920 0.783342
O O15 0.777944 0.664914 0.615252
O O16 0.350704 0.350704 0.000000
O O17 0.500000 0.820293 0.250000
O O18 0.794528 0.205473 0.139399
O O19 0.850703 0.267995 0.000000
#
# Coordination Sequence:
#
# PCOD8316844 Si02
#       8
#    16  16   8   8  16   8  16  16
#     4  11  23  36  56  86 120 153 189 231 285 342
#     4  11  23  37  54  70  92 125 168 230 304 369
#     4  12  24  37  56  74  98 143 184 230 288 353
#     4  12  24  38  58  83 119 156 192 233 290 357
#     4   9  19  33  52  76 100 131 178 239 299 353
#     4  12  27  40  54  74  98 130 181 239 299 365
#     4  11  21  35  52  72 103 140 180 227 283 351
#     4   9  18  34  57  83 114 149 192 241 283 324
#
# _framework density 17.755296000000001
#
# number of rings (size 3 to 8) (size 9 to 14) (size 15 to 20)
#    0.000    1.385    2.308    3.923    3.231    3.231 
#    0.000    0.000    0.000    0.000    0.000    0.538 
#    0.000    0.308    0.000    1.692    0.000    0.000 
#
# Total GULP energy -1288450.199138 kJ/mol
# GULP energy per Si atom -12388.944222 kJ/mol
# Density = 1.771488 g / cm^3
# Si number density = 17.755296 Si / 1000 Ang^3
#
#
#
# Elastic Constant Matrix: (Units=GPa)
#
#
# Indices 1 2 3 4 5 6 
#
# 1 81.5835 35.1657 32.7873 0.0000 0.0000 0.0000
# 2 35.1657 81.5835 32.7873 0.0000 0.0000 0.0000
# 3 32.7873 32.7873 127.5700 0.0000 0.0000 0.0000
# 4 0.0000 0.0000 0.0000 17.0226 0.0000 0.0000
# 5 0.0000 0.0000 0.0000 0.0000 17.0226 0.0000
# 6 0.0000 0.0000 0.0000 0.0000 0.0000 24.2960
#
#
#
# Elastic Compliance Matrix: (Units=1/GPa)
#
#
# Indices 1 2 3 4 5 6 
#
# 1 0.015777 -0.005766 -0.002573 0.000000 0.000000 0.000000
# 2 -0.005766 0.015777 -0.002573 0.000000 0.000000 0.000000
# 3 -0.002573 -0.002573 0.009161 0.000000 0.000000 0.000000
# 4 0.000000 0.000000 0.000000 0.058745 0.000000 0.000000
# 5 0.000000 0.000000 0.000000 0.000000 0.058745 0.000000
# 6 0.000000 0.000000 0.000000 0.000000 0.000000 0.041159
#
#
# Mechanical properties :
#
#
# Convention : Reuss Voigt Hill
#
# Bulk Modulus (GPa) = 52.93545 54.69084 53.81315
# Shear Modulus (GPa) = 21.97934 24.33469 23.15702
#
# Velocity S-wave (km/s) = 3.52220 3.70612 3.61533
# Velocity P-wave (km/s) = 6.81321 7.01308 6.91386
#
# Compressibility (1/GPa) = 0.01889093
#
# Stress axis : x y z
#
# Youngs Moduli (GPa) = 63.38363 63.38363 109.15435
#
# Poissons Ratio (x) = 0.36550 0.28084
# Poissons Ratio (y) = 0.36550 0.28084
# Poissons Ratio (z) = 0.16308 0.16308
#
# Static dielectric constant tensor:
#      x y z
#    x 3.312080 0.000000 0.000000 
#    y 0.000000 3.312080 0.000000 
#    z 0.000000 0.000000 3.371380 
# 
# 
# High freq. dielectric constant tensor:
#      x y z
#    x 1.663360 0.000000 0.000000 
#    y 0.000000 1.663360 0.000000 
#    z 0.000000 0.000000 1.695780 
# 
# From -- ./inp_files/5112.got.cif
#   From: 2010.03.12/outbox.cif.g09.slc.cpg/sg132_3_cif.got.tgz:5112.got - 2010.04.06 17:53:44.
