data_PCOD8316703
_publ_section_title
;
Structure prediction by ZEFSAII (Michael W. Deem and Ramdas Pophale) SiO2 
 PCOD8316703
Probable space group: P 42/M C M
;
_chemical_formula_sum "Si O2"
_cell_formula_units_Z 96
_cell_length_a 24.052074
_cell_length_b 24.052074
_cell_length_c 8.796987
_cell_angle_alpha 90.000000
_cell_angle_beta 90.000000
_cell_angle_gamma 90.000000
_cell_volume 5089.076893
_symmetry_space_group_name_H-M "P 42/M C M"
_symmetry_group_IT_number 132
_symmetry_cell_setting 'tetragonal'
loop_
_space_group_symop_operation_xyz
x,y,z
-y,x,1/2+z
-x,-y,z
y,-x,1/2+z
x,-y,1/2-z
-x,y,1/2-z
y,x,-z
-y,-x,-z
-x,-y,-z
y,-x,1/2-z
x,y,-z
-y,x,1/2-z
-x,y,1/2+z
x,-y,1/2+z
-y,-x,z
y,x,z
loop_
_atom_site_type_symbol
_atom_site_label
_atom_site_fract_x
_atom_site_fract_y
_atom_site_fract_z
Si Si1 0.056381 0.439850 0.179597
Si Si2 0.732045 0.357336 0.178640
Si Si3 0.263037 0.944055 0.175836
Si Si4 0.859526 0.359501 0.175341
Si Si5 0.057022 0.854030 0.679451
Si Si6 0.560027 0.349474 0.321448
O O1 0.065037 0.500000 0.250000
O O2 0.111018 0.405187 0.220660
O O3 0.000000 0.412768 0.250000
O O4 0.049383 0.443682 0.000000
O O5 0.698260 0.301741 0.227605
O O6 0.796070 0.351125 0.229556
O O7 0.706541 0.411448 0.259349
O O8 0.727293 0.366906 0.000000
O O9 0.301970 0.891263 0.199898
O O10 0.206283 0.928088 0.257663
O O11 0.289037 0.000000 0.250000
O O12 0.251857 0.956697 0.000000
O O13 0.862325 0.378697 0.000000
O O14 0.051050 0.851413 0.500000
O O15 0.105504 0.894497 0.733347
O O16 0.000000 0.876719 0.750000
O O17 0.500000 0.358319 0.250000
O O18 0.553447 0.343351 0.500000
O O19 0.597512 0.402489 0.276287
#
# Coordination Sequence:
#
# PCOD8316703 Si02
#       6
#    16  16  16  16  16  16
#     4  11  22  37  57  80 110 145 180 222 272 320
#     4   9  19  37  58  79 108 145 182 222 267 314
#     4  10  20  34  54  78 106 139 175 219 268 318
#     4  10  21  36  56  83 110 140 182 224 265 319
#     4  10  21  36  54  77 105 137 174 217 266 321
#     4  10  21  37  58  84 113 145 181 221 266 315
#
# _framework density 18.863932999999999
#
# number of rings (size 3 to 8) (size 9 to 14) (size 15 to 20)
#    0.000    2.000    0.000    5.000    0.000    7.333 
#    0.000    3.333    0.000    2.000    0.000    0.000 
#    0.000    0.000    0.000    0.000    0.000    0.000 
#
# Total GULP energy -1190588.694420 kJ/mol
# GULP energy per Si atom -12401.965567 kJ/mol
# Density = 1.882100 g / cm^3
# Si number density = 18.863933 Si / 1000 Ang^3
#
#
#
# Elastic Constant Matrix: (Units=GPa)
#
#
# Indices 1 2 3 4 5 6 
#
# 1 130.8804 68.4897 52.1961 0.0000 0.0000 0.0000
# 2 68.4897 130.8804 52.1961 0.0000 0.0000 0.0000
# 3 52.1961 52.1961 99.8764 0.0000 0.0000 0.0000
# 4 0.0000 0.0000 0.0000 22.2502 0.0000 0.0000
# 5 0.0000 0.0000 0.0000 0.0000 22.2502 0.0000
# 6 0.0000 0.0000 0.0000 0.0000 0.0000 12.0861
#
#
#
# Elastic Compliance Matrix: (Units=1/GPa)
#
#
# Indices 1 2 3 4 5 6 
#
# 1 0.011467 -0.004561 -0.003609 0.000000 0.000000 0.000000
# 2 -0.004561 0.011467 -0.003609 0.000000 0.000000 0.000000
# 3 -0.003609 -0.003609 0.013784 0.000000 0.000000 0.000000
# 4 0.000000 0.000000 0.000000 0.044943 0.000000 0.000000
# 5 0.000000 0.000000 0.000000 0.000000 0.044943 0.000000
# 6 0.000000 0.000000 0.000000 0.000000 0.000000 0.082740
#
#
# Mechanical properties :
#
#
# Convention : Reuss Voigt Hill
#
# Bulk Modulus (GPa) = 75.98835 78.60014 77.29424
# Shear Modulus (GPa) = 21.07137 23.90098 22.48618
#
# Velocity S-wave (km/s) = 3.34581 3.56338 3.45631
# Velocity P-wave (km/s) = 7.43611 7.66078 7.54928
#
# Compressibility (1/GPa) = 0.01315991
#
# Stress axis : x y z
#
# Youngs Moduli (GPa) = 87.20892 87.20892 72.54597
#
# Poissons Ratio (x) = 0.39779 0.26181
# Poissons Ratio (y) = 0.39779 0.26181
# Poissons Ratio (z) = 0.31472 0.31472
#
# Static dielectric constant tensor:
#      x y z
#    x 3.550970 0.000000 0.000000 
#    y 0.000000 3.550970 0.000000 
#    z 0.000000 0.000000 3.318820 
# 
# 
# High freq. dielectric constant tensor:
#      x y z
#    x 1.735280 0.000000 0.000000 
#    y 0.000000 1.735280 0.000000 
#    z 0.000000 0.000000 1.741050 
# 
# From -- ./inp_files/1790.got.cif
#   From: 2010.03.12/outbox.cif.g09.slc.cpg/sg132_1_cif.got.tgz:1790.got - 2010.04.06 17:53:44.
