data_PCOD8316212
_publ_section_title
;
Structure prediction by ZEFSAII (Michael W. Deem and Ramdas Pophale) SiO2 
 PCOD8316212
Probable space group: P 42/M M C
;
_chemical_formula_sum "Si O2"
_cell_formula_units_Z 34
_cell_length_a 7.773938
_cell_length_b 7.773938
_cell_length_c 26.780299
_cell_angle_alpha 90.000000
_cell_angle_beta 90.000000
_cell_angle_gamma 90.000000
_cell_volume 1618.443590
_symmetry_space_group_name_H-M "P 42/M M C"
_symmetry_group_IT_number 131
_symmetry_cell_setting 'tetragonal'
loop_
_space_group_symop_operation_xyz
x,y,z
-x,-y,z
-y,x,1/2+z
y,-x,1/2+z
-x,y,-z
x,-y,-z
y,x,1/2-z
-y,-x,1/2-z
-x,-y,-z
x,y,-z
y,-x,1/2-z
-y,x,1/2-z
x,-y,z
-x,y,z
-y,-x,1/2+z
y,x,1/2+z
loop_
_atom_site_type_symbol
_atom_site_label
_atom_site_fract_x
_atom_site_fract_y
_atom_site_fract_z
Si Si1 0.500000 0.811183 0.174542
Si Si2 0.803507 0.696626 0.892799
Si Si3 0.797177 0.190418 0.000000
Si Si4 0.500000 0.500000 0.750000
O O1 0.327425 0.800687 0.141527
O O2 0.500000 0.670855 0.217411
O O3 0.500000 0.000000 0.199573
O O4 0.794663 0.500000 0.875988
O O5 0.000000 0.767100 0.886636
O O6 0.738989 0.710549 0.950114
O O7 0.000000 0.178337 0.000000
O O8 0.715252 0.000000 0.000000
#
# Coordination Sequence:
#
# PCOD8316212 Si02
#       4
#     8  16   8   2
#     4  12  26  45  71  95 122 163 211 267 329 390
#     4  10  20  38  64  95 134 176 214 257 311 375
#     4   9  17  30  53  92 138 177 217 256 296 364
#     4  12  28  52  64  94 124 152 208 276 340 390
#
# _framework density 21.007840000000002
#
# number of rings (size 3 to 8) (size 9 to 14) (size 15 to 20)
#    0.000    1.647    2.353    2.118    0.000    8.471 
#    0.000    4.706    0.000    0.000    0.000    0.000 
#    0.000    0.000    0.000    0.000    0.000    0.000 
#
# Total GULP energy -421509.044464 kJ/mol
# GULP energy per Si atom -12397.324837 kJ/mol
# Density = 2.096003 g / cm^3
# Si number density = 21.007840 Si / 1000 Ang^3
#
#
#
# Elastic Constant Matrix: (Units=GPa)
#
#
# Indices 1 2 3 4 5 6 
#
# 1 124.3379 39.9278 54.6785 0.0000 0.0000 0.0000
# 2 39.9278 124.3379 54.6785 0.0000 0.0000 0.0000
# 3 54.6785 54.6785 120.2920 0.0000 0.0000 0.0000
# 4 0.0000 0.0000 0.0000 320.0110 0.0000 0.0000
# 5 0.0000 0.0000 0.0000 0.0000 320.0110 0.0000
# 6 0.0000 0.0000 0.0000 0.0000 0.0000 19.6299
#
#
#
# Elastic Compliance Matrix: (Units=1/GPa)
#
#
# Indices 1 2 3 4 5 6 
#
# 1 0.010288 -0.001559 -0.003968 0.000000 0.000000 0.000000
# 2 -0.001559 0.010288 -0.003968 0.000000 0.000000 0.000000
# 3 -0.003968 -0.003968 0.011920 0.000000 0.000000 0.000000
# 4 0.000000 0.000000 0.000000 0.003125 0.000000 0.000000
# 5 0.000000 0.000000 0.000000 0.000000 0.003125 0.000000
# 6 0.000000 0.000000 0.000000 0.000000 0.000000 0.050943
#
#
# Mechanical properties :
#
#
# Convention : Reuss Voigt Hill
#
# Bulk Modulus (GPa) = 74.03402 74.17083 74.10243
# Shear Modulus (GPa) = 44.17720 146.57590 95.37655
#
# Velocity S-wave (km/s) = 4.59070 8.36203 6.74530
# Velocity P-wave (km/s) = 7.96348 11.34082 9.79876
#
# Compressibility (1/GPa) = 0.01350730
#
# Stress axis : x y z
#
# Youngs Moduli (GPa) = 97.19988 97.19988 83.89079
#
# Poissons Ratio (x) = 0.15152 0.33287
# Poissons Ratio (y) = 0.15152 0.33287
# Poissons Ratio (z) = 0.38567 0.38567
#
# Static dielectric constant tensor:
#      x y z
#    x 3.835850 0.000000 0.000000 
#    y 0.000000 3.835850 0.000000 
#    z 0.000000 0.000000 3.768280 
# 
# 
# High freq. dielectric constant tensor:
#      x y z
#    x 1.823860 0.000000 0.000000 
#    y 0.000000 1.823860 0.000000 
#    z 0.000000 0.000000 1.804630 
# 
# From -- ./inp_files/8654.got.cif
#   From: 2010.03.12/outbox.cif.g09.slc.cpg/sg131_5_cif.got.tgz:8654.got - 2010.04.06 17:36:35.
