data_PCOD8316891
_publ_section_title
;
Structure prediction by ZEFSAII (Michael W. Deem and Ramdas Pophale) SiO2 
 PCOD8316891
Probable space group: P 42/N B C
;
_chemical_formula_sum "Si O2"
_cell_formula_units_Z 60
_cell_length_a 13.580138
_cell_length_b 13.580138
_cell_length_c 16.910296
_cell_angle_alpha 90.000000
_cell_angle_beta 90.000000
_cell_angle_gamma 90.000000
_cell_volume 3118.599293
_symmetry_space_group_name_H-M "P 42/N B C"
_symmetry_group_IT_number 133
_space_group.IT_coordinate_system_code '2'
_symmetry_cell_setting 'tetragonal'
loop_
_space_group_symop_operation_xyz
x,y,z
1/2-y,x,1/2+z
1/2-x,1/2-y,z
y,1/2-x,1/2+z
x,1/2-y,-z
1/2-x,y,-z
y,x,1/2-z
1/2-y,1/2-x,1/2-z
-x,-y,-z
1/2+y,-x,1/2-z
1/2+x,1/2+y,-z
-y,1/2+x,1/2-z
-x,1/2+y,z
1/2+x,-y,z
-y,-x,1/2+z
1/2+y,1/2+x,1/2+z
loop_
_atom_site_type_symbol
_atom_site_label
_atom_site_fract_x
_atom_site_fract_y
_atom_site_fract_z
Si Si1 0.250000 0.250000 0.250000
Si Si2 0.309955 0.074284 0.143957
Si Si3 0.468030 0.138847 0.017837
Si Si4 0.995019 0.389617 0.603685
Si Si5 0.482216 0.482216 0.750000
O O1 0.249203 0.154412 0.194199
O O2 0.376790 0.126109 0.077743
O O3 0.380277 0.011199 0.201062
O O4 0.229359 0.002895 0.102645
O O5 0.570768 0.096909 0.052404
O O6 0.490150 0.250000 0.000000
O O7 0.440545 0.090836 0.934225
O O8 0.984704 0.423236 0.694056
#
# Coordination Sequence:
#
# PCOD8316891 Si02
#       5
#     4  16  16  16   8
#     4  10  18  28  54  88 114 140 180 236 282 322
#     4  10  19  33  54  83 112 144 186 232 282 339
#     4  10  21  36  57  86 114 147 192 236 287 350
#     4  10  20  35  57  80 114 150 184 239 292 339
#     4   9  21  35  52  79 109 143 188 230 283 343
#
# _framework density 19.239405000000001
#
# number of rings (size 3 to 8) (size 9 to 14) (size 15 to 20)
#    0.000    2.133    0.000    3.200    0.000    5.333 
#    0.000    0.000    0.000   42.400    0.000    0.000 
#    0.000    0.000    0.000    0.000    0.000    0.000 
#
# Total GULP energy -744002.405986 kJ/mol
# GULP energy per Si atom -12400.040100 kJ/mol
# Density = 1.919562 g / cm^3
# Si number density = 19.239405 Si / 1000 Ang^3
#
#
#
# Elastic Constant Matrix: (Units=GPa)
#
#
# Indices 1 2 3 4 5 6 
#
# 1 98.5250 67.0379 30.6470 0.0000 0.0000 0.0000
# 2 67.0379 98.5250 30.6470 0.0000 0.0000 0.0000
# 3 30.6470 30.6470 79.3102 0.0000 0.0000 0.0000
# 4 0.0000 0.0000 0.0000 20.8262 0.0000 0.0000
# 5 0.0000 0.0000 0.0000 0.0000 20.8262 0.0000
# 6 0.0000 0.0000 0.0000 0.0000 0.0000 10.0788
#
#
#
# Elastic Compliance Matrix: (Units=1/GPa)
#
#
# Indices 1 2 3 4 5 6 
#
# 1 0.019404 -0.012355 -0.002724 0.000000 0.000000 0.000000
# 2 -0.012355 0.019404 -0.002724 0.000000 0.000000 0.000000
# 3 -0.002724 -0.002724 0.014714 0.000000 0.000000 0.000000
# 4 0.000000 0.000000 0.000000 0.048016 0.000000 0.000000
# 5 0.000000 0.000000 0.000000 0.000000 0.048016 0.000000
# 6 0.000000 0.000000 0.000000 0.000000 0.000000 0.099219
#
#
# Mechanical properties :
#
#
# Convention : Reuss Voigt Hill
#
# Bulk Modulus (GPa) = 55.81653 59.22489 57.52071
# Shear Modulus (GPa) = 17.22061 20.21476 18.71768
#
# Velocity S-wave (km/s) = 2.99502 3.24496 3.12249
# Velocity P-wave (km/s) = 6.40583 6.69997 6.55455
#
# Compressibility (1/GPa) = 0.01791584
#
# Stress axis : x y z
#
# Youngs Moduli (GPa) = 51.53651 51.53651 67.96414
#
# Poissons Ratio (x) = 0.63675 0.18511
# Poissons Ratio (y) = 0.63675 0.18511
# Poissons Ratio (z) = 0.14037 0.14037
#
# Static dielectric constant tensor:
#      x y z
#    x 3.393230 0.000000 0.000000 
#    y 0.000000 3.393230 0.000000 
#    z 0.000000 0.000000 3.844100 
# 
# 
# High freq. dielectric constant tensor:
#      x y z
#    x 1.733410 0.000000 0.000000 
#    y 0.000000 1.733410 0.000000 
#    z 0.000000 0.000000 1.770280 
# 
# From -- ./inp_files/4173.got.cif
#   From: 2010.03.12/outbox.cif.g09.slc.cpg/sg133_3_cif.got.tgz:4173.got - 2010.04.06 18:08:06.
