data_PCOD8316856
_publ_section_title
;
Structure prediction by ZEFSAII (Michael W. Deem and Ramdas Pophale) SiO2 
 PCOD8316856
Probable space group: P 42/M C M
;
_chemical_formula_sum "Si O2"
_cell_formula_units_Z 128
_cell_length_a 20.429792
_cell_length_b 20.429792
_cell_length_c 18.244391
_cell_angle_alpha 90.000000
_cell_angle_beta 90.000000
_cell_angle_gamma 90.000000
_cell_volume 7614.778257
_symmetry_space_group_name_H-M "P 42/M C M"
_symmetry_group_IT_number 132
_symmetry_cell_setting 'tetragonal'
loop_
_space_group_symop_operation_xyz
x,y,z
-y,x,1/2+z
-x,-y,z
y,-x,1/2+z
x,-y,1/2-z
-x,y,1/2-z
y,x,-z
-y,-x,-z
-x,-y,-z
y,-x,1/2-z
x,y,-z
-y,x,1/2-z
-x,y,1/2+z
x,-y,1/2+z
-y,-x,z
y,x,z
loop_
_atom_site_type_symbol
_atom_site_label
_atom_site_fract_x
_atom_site_fract_y
_atom_site_fract_z
Si Si1 0.858213 0.748549 0.082065
Si Si2 0.943687 0.162148 0.191889
Si Si3 0.772132 0.662048 0.658757
Si Si4 0.959422 0.851744 0.079411
Si Si5 0.422148 0.315240 0.084889
Si Si6 0.864489 0.754532 0.583206
Si Si7 0.664175 0.225473 0.676248
Si Si8 0.675553 0.571020 0.414217
O O1 0.797904 0.797904 0.080041
O O2 0.923004 0.786437 0.111041
O O3 0.840700 0.688897 0.136179
O O4 0.870197 0.721348 0.000000
O O5 0.885175 0.114826 0.223818
O O6 0.916643 0.224996 0.146642
O O7 0.000000 0.183091 0.250000
O O8 0.983421 0.121389 0.131109
O O9 0.718886 0.718886 0.659399
O O10 0.833516 0.685794 0.609879
O O11 0.794535 0.645200 0.741320
O O12 0.741288 0.596928 0.624232
O O13 0.907539 0.907539 0.069479
O O14 0.989928 0.835156 0.000000
O O15 0.379102 0.379102 0.101273
O O16 0.398570 0.254058 0.133584
O O17 0.495670 0.334393 0.107403
O O18 0.416856 0.294349 0.000000
O O19 0.893318 0.745648 0.500000
O O20 0.810345 0.810345 0.580821
O O21 0.720744 0.279257 0.675874
O O22 0.685754 0.580262 0.500000
O O23 0.611643 0.611643 0.387706
#
# Coordination Sequence:
#
# PCOD8316856 Si02
#       8
#    16  16  16  16  16  16  16  16
#     4   8  14  25  42  62  84 112 145 183 229 278
#     4  11  23  34  46  65  93 126 157 190 228 271
#     4   9  17  28  45  67  86 112 152 202 253 290
#     4   9  18  31  46  63  85 118 157 191 223 267
#     4   9  17  28  42  63  93 130 167 197 230 279
#     4   9  18  33  51  68  87 116 157 202 244 284
#     4   9  16  25  41  63  89 117 148 189 238 287
#     4   9  17  29  44  62  89 126 167 208 242 275
#
# _framework density 16.809418999999998
#
# number of rings (size 3 to 8) (size 9 to 14) (size 15 to 20)
#    0.000    2.875    0.000    2.250    1.750    5.375 
#    0.000    1.875    0.000    0.000    0.000    3.500 
#    0.000    1.000    0.250    7.000    0.750    0.625 
#
# Total GULP energy -1585829.784998 kJ/mol
# GULP energy per Si atom -12389.295195 kJ/mol
# Density = 1.677116 g / cm^3
# Si number density = 16.809419 Si / 1000 Ang^3
#
#
#
# Elastic Constant Matrix: (Units=GPa)
#
#
# Indices 1 2 3 4 5 6 
#
# 1 38.4837 32.3760 29.5781 0.0000 0.0000 0.0000
# 2 32.3760 38.4837 29.5781 0.0000 0.0000 0.0000
# 3 29.5781 29.5781 71.7049 0.0000 0.0000 0.0000
# 4 0.0000 0.0000 0.0000 22.3165 0.0000 0.0000
# 5 0.0000 0.0000 0.0000 0.0000 22.3165 0.0000
# 6 0.0000 0.0000 0.0000 0.0000 0.0000 11.5516
#
#
#
# Elastic Compliance Matrix: (Units=1/GPa)
#
#
# Indices 1 2 3 4 5 6 
#
# 1 0.092627 -0.071102 -0.008879 0.000000 0.000000 0.000000
# 2 -0.071102 0.092627 -0.008879 0.000000 0.000000 0.000000
# 3 -0.008879 -0.008879 0.021271 0.000000 0.000000 0.000000
# 4 0.000000 0.000000 0.000000 0.044810 0.000000 0.000000
# 5 0.000000 0.000000 0.000000 0.000000 0.044810 0.000000
# 6 0.000000 0.000000 0.000000 0.000000 0.000000 0.086568
#
#
# Mechanical properties :
#
#
# Convention : Reuss Voigt Hill
#
# Bulk Modulus (GPa) = 34.71613 36.85962 35.78787
# Shear Modulus (GPa) = 8.77139 15.04626 11.90883
#
# Velocity S-wave (km/s) = 2.28680 2.99508 2.66458
# Velocity P-wave (km/s) = 5.26025 5.82548 5.55007
#
# Compressibility (1/GPa) = 0.02880506
#
# Stress axis : x y z
#
# Youngs Moduli (GPa) = 10.79599 10.79599 47.01208
#
# Poissons Ratio (x) = 0.76762 0.41742
# Poissons Ratio (y) = 0.76762 0.41742
# Poissons Ratio (z) = 0.09586 0.09586
#
# Static dielectric constant tensor:
#      x y z
#    x 3.028160 0.000000 0.000000 
#    y 0.000000 3.028160 0.000000 
#    z 0.000000 0.000000 3.533170 
# 
# 
# High freq. dielectric constant tensor:
#      x y z
#    x 1.611910 0.000000 0.000000 
#    y 0.000000 1.611910 0.000000 
#    z 0.000000 0.000000 1.662880 
# 
# From -- ./inp_files/6841.got.cif
#   From: 2010.03.12/outbox.cif.g09.slc.cpg/sg132_4_cif.got.tgz:6841.got - 2010.04.06 17:53:44.
