data_PCOD8316311
_publ_section_title
;
Structure prediction by ZEFSAII (Michael W. Deem and Ramdas Pophale) SiO2 
 PCOD8316311
Probable space group: P 42/M M C
;
_chemical_formula_sum "Si O2"
_cell_formula_units_Z 72
_cell_length_a 11.746490
_cell_length_b 11.746490
_cell_length_c 28.261075
_cell_angle_alpha 90.000000
_cell_angle_beta 90.000000
_cell_angle_gamma 90.000000
_cell_volume 3899.463901
_symmetry_space_group_name_H-M "P 42/M M C"
_symmetry_group_IT_number 131
_symmetry_cell_setting 'tetragonal'
loop_
_space_group_symop_operation_xyz
x,y,z
-x,-y,z
-y,x,1/2+z
y,-x,1/2+z
-x,y,-z
x,-y,-z
y,x,1/2-z
-y,-x,1/2-z
-x,-y,-z
x,y,-z
y,-x,1/2-z
-y,x,1/2-z
x,-y,z
-x,y,z
-y,-x,1/2+z
y,x,1/2+z
loop_
_atom_site_type_symbol
_atom_site_label
_atom_site_fract_x
_atom_site_fract_y
_atom_site_fract_z
Si Si1 0.000000 0.629021 0.152193
Si Si2 0.240389 0.306421 0.887279
Si Si3 0.127781 0.131705 0.053235
Si Si4 0.000000 0.364706 0.743769
Si Si5 0.500000 0.634371 0.555693
Si Si6 0.635245 0.757097 0.207963
O O1 0.112823 0.650940 0.122133
O O2 0.000000 0.692068 0.203476
O O3 0.000000 0.500000 0.167463
O O4 0.225120 0.188333 0.914933
O O5 0.309337 0.390139 0.920932
O O6 0.310198 0.289203 0.839762
O O7 0.000000 0.153782 0.073348
O O8 0.156407 0.000000 0.053438
O O9 0.134762 0.180105 0.000000
O O10 0.113372 0.322787 0.716709
O O11 0.000000 0.500000 0.745452
O O12 0.500000 0.500000 0.565758
O O13 0.500000 0.660605 0.500000
O O14 0.675603 0.675603 0.250000
O O15 0.500000 0.748913 0.204040
#
# Coordination Sequence:
#
# PCOD8316311 Si02
#       6
#     8  16  16   8   8  16
#     4  11  20  36  57  88 120 157 198 243 301 357
#     4  12  22  38  62  90 119 159 200 248 304 366
#     4   9  19  36  58  86 119 155 197 244 296 356
#     4   9  20  40  56  78 118 158 197 240 295 348
#     4  11  26  45  63  87 123 162 207 265 321 366
#     4  11  24  39  60  87 118 156 200 244 292 357
#
# _framework density 18.464075999999999
#
# number of rings (size 3 to 8) (size 9 to 14) (size 15 to 20)
#    0.000    1.444    4.444    2.000    3.111    0.222 
#    0.000    0.556    0.000    1.667    0.000    4.667 
#    0.000    0.000    0.000    0.000    0.000    0.000 
#
# Total GULP energy -892643.344678 kJ/mol
# GULP energy per Si atom -12397.824232 kJ/mol
# Density = 1.842205 g / cm^3
# Si number density = 18.464076 Si / 1000 Ang^3
#
#
#
# Elastic Constant Matrix: (Units=GPa)
#
#
# Indices 1 2 3 4 5 6 
#
# 1 104.6612 46.7381 62.1040 0.0000 0.0000 0.0000
# 2 46.7381 104.6612 62.1040 0.0000 0.0000 0.0000
# 3 62.1040 62.1040 136.8793 0.0000 0.0000 0.0000
# 4 0.0000 0.0000 0.0000 23.7643 0.0000 0.0000
# 5 0.0000 0.0000 0.0000 0.0000 23.7643 0.0000
# 6 0.0000 0.0000 0.0000 0.0000 0.0000 22.9939
#
#
#
# Elastic Compliance Matrix: (Units=1/GPa)
#
#
# Indices 1 2 3 4 5 6 
#
# 1 0.013893 -0.003371 -0.004774 0.000000 0.000000 0.000000
# 2 -0.003371 0.013893 -0.004774 0.000000 0.000000 0.000000
# 3 -0.004774 -0.004774 0.011637 0.000000 0.000000 0.000000
# 4 0.000000 0.000000 0.000000 0.042080 0.000000 0.000000
# 5 0.000000 0.000000 0.000000 0.000000 0.042080 0.000000
# 6 0.000000 0.000000 0.000000 0.000000 0.000000 0.043490
#
#
# Mechanical properties :
#
#
# Convention : Reuss Voigt Hill
#
# Bulk Modulus (GPa) = 73.60799 76.45488 75.03143
# Shear Modulus (GPa) = 25.32431 25.78823 25.55627
#
# Velocity S-wave (km/s) = 3.70746 3.74126 3.72440
# Velocity P-wave (km/s) = 7.63407 7.75629 7.69542
#
# Compressibility (1/GPa) = 0.01358548
#
# Stress axis : x y z
#
# Youngs Moduli (GPa) = 71.97964 71.97964 85.92920
#
# Poissons Ratio (x) = 0.24267 0.41020
# Poissons Ratio (y) = 0.24267 0.41020
# Poissons Ratio (z) = 0.34361 0.34361
#
# Static dielectric constant tensor:
#      x y z
#    x 3.204940 0.000000 0.000000 
#    y 0.000000 3.204940 0.000000 
#    z 0.000000 0.000000 3.755550 
# 
# 
# High freq. dielectric constant tensor:
#      x y z
#    x 1.713760 0.000000 0.000000 
#    y 0.000000 1.713760 0.000000 
#    z 0.000000 0.000000 1.727030 
# 
# From -- ./inp_files/12154.got.cif
#   From: 2010.03.12/outbox.cif.g09.slc.cpg/sg131_7_cif.got.tgz:12154.got - 2010.04.06 17:36:35.
