data_PCOD8316315
_publ_section_title
;
Structure prediction by ZEFSAII (Michael W. Deem and Ramdas Pophale) SiO2 
 PCOD8316315
Probable space group: P 42/M M C
;
_chemical_formula_sum "Si O2"
_cell_formula_units_Z 72
_cell_length_a 14.841506
_cell_length_b 14.841506
_cell_length_c 17.574173
_cell_angle_alpha 90.000000
_cell_angle_beta 90.000000
_cell_angle_gamma 90.000000
_cell_volume 3871.068365
_symmetry_space_group_name_H-M "P 42/M M C"
_symmetry_group_IT_number 131
_symmetry_cell_setting 'tetragonal'
loop_
_space_group_symop_operation_xyz
x,y,z
-x,-y,z
-y,x,1/2+z
y,-x,1/2+z
-x,y,-z
x,-y,-z
y,x,1/2-z
-y,-x,1/2-z
-x,-y,-z
x,y,-z
y,-x,1/2-z
-y,x,1/2-z
x,-y,z
-x,y,z
-y,-x,1/2+z
y,x,1/2+z
loop_
_atom_site_type_symbol
_atom_site_label
_atom_site_fract_x
_atom_site_fract_y
_atom_site_fract_z
Si Si1 0.899194 0.306238 0.409321
Si Si2 0.500000 0.894058 0.917630
Si Si3 0.728082 0.243796 0.338639
Si Si4 0.397327 0.105352 0.587246
Si Si5 0.601039 0.599813 0.659497
O O1 0.897832 0.310199 0.500000
O O2 0.870898 0.405667 0.375011
O O3 0.825500 0.235882 0.379095
O O4 0.000000 0.278498 0.381712
O O5 0.500000 0.000000 0.931296
O O6 0.500000 0.845612 0.000000
O O7 0.745367 0.254634 0.250000
O O8 0.671475 0.154220 0.355851
O O9 0.671385 0.327757 0.373301
O O10 0.376840 0.132385 0.500000
O O11 0.500000 0.131734 0.608239
O O12 0.382518 0.000000 0.599166
O O13 0.602413 0.602413 0.750000
O O14 0.629619 0.500000 0.631038
O O15 0.500000 0.622507 0.630367
#
# Coordination Sequence:
#
# PCOD8316315 Si02
#       5
#    16   8  16  16  16
#     4   9  18  33  51  71  99 137 176 211 251 307
#     4   7  12  26  46  66  91 127 170 206 236 281
#     4  11  21  30  50  80 111 138 169 219 276 331
#     4   9  19  38  61  80 102 140 192 242 278 313
#     4   8  15  28  43  62  96 139 174 201 239 302
#
# _framework density 18.599516999999999
#
# number of rings (size 3 to 8) (size 9 to 14) (size 15 to 20)
#    0.000    3.000    0.000    4.000    1.556    1.778 
#    0.000    0.000    0.000    0.667    0.000    9.333 
#    0.000    0.000    0.000    0.000    0.000    0.000 
#
# Total GULP energy -892139.435011 kJ/mol
# GULP energy per Si atom -12390.825486 kJ/mol
# Density = 1.855718 g / cm^3
# Si number density = 18.599517 Si / 1000 Ang^3
#
#
#
# Elastic Constant Matrix: (Units=GPa)
#
#
# Indices 1 2 3 4 5 6 
#
# 1 99.9883 59.4679 35.1014 0.0000 0.0000 0.0000
# 2 59.4679 99.9881 35.1013 0.0000 0.0000 0.0000
# 3 35.1014 35.1013 46.8681 0.0000 0.0000 0.0000
# 4 0.0000 0.0000 0.0000 22.3663 0.0000 0.0000
# 5 0.0000 0.0000 0.0000 0.0000 22.3665 0.0000
# 6 0.0000 0.0000 0.0000 0.0000 0.0000 30.0122
#
#
#
# Elastic Compliance Matrix: (Units=1/GPa)
#
#
# Indices 1 2 3 4 5 6 
#
# 1 0.017018 -0.007661 -0.007007 0.000000 0.000000 0.000000
# 2 -0.007661 0.017018 -0.007007 0.000000 0.000000 0.000000
# 3 -0.007007 -0.007007 0.031833 0.000000 0.000000 0.000000
# 4 0.000000 0.000000 0.000000 0.044710 0.000000 0.000000
# 5 0.000000 0.000000 0.000000 0.000000 0.044710 0.000000
# 6 0.000000 0.000000 0.000000 0.000000 0.000000 0.033320
#
#
# Mechanical properties :
#
#
# Convention : Reuss Voigt Hill
#
# Bulk Modulus (GPa) = 44.41291 56.24285 50.32788
# Shear Modulus (GPa) = 20.87986 22.76058 21.82022
#
# Velocity S-wave (km/s) = 3.35416 3.50196 3.42886
# Velocity P-wave (km/s) = 6.23946 6.83053 6.54168
#
# Compressibility (1/GPa) = 0.02251598
#
# Stress axis : x y z
#
# Youngs Moduli (GPa) = 58.76233 58.76236 31.41427
#
# Poissons Ratio (x) = 0.45020 0.22013
# Poissons Ratio (y) = 0.45020 0.22013
# Poissons Ratio (z) = 0.41177 0.41177
#
# Static dielectric constant tensor:
#      x y z
#    x 3.484400 0.000000 0.000000 
#    y 0.000000 3.484400 0.000000 
#    z 0.000000 0.000000 2.963430 
# 
# 
# High freq. dielectric constant tensor:
#      x y z
#    x 1.713010 0.000000 0.000000 
#    y 0.000000 1.713010 0.000000 
#    z 0.000000 0.000000 1.683980 
# 
# From -- ./inp_files/7598.got.cif
#   From: 2010.03.12/outbox.cif.g09.slc.cpg/sg131_4_cif.got.tgz:7598.got - 2010.04.06 17:36:35.
