data_PCOD8316218
_publ_section_title
;
Structure prediction by ZEFSAII (Michael W. Deem and Ramdas Pophale) SiO2 
 PCOD8316218
Probable space group: P 42/M M C
;
_chemical_formula_sum "Si O2"
_cell_formula_units_Z 112
_cell_length_a 14.186522
_cell_length_b 14.186522
_cell_length_c 30.863073
_cell_angle_alpha 90.000000
_cell_angle_beta 90.000000
_cell_angle_gamma 90.000000
_cell_volume 6211.422027
_symmetry_space_group_name_H-M "P 42/M M C"
_symmetry_group_IT_number 131
_symmetry_cell_setting 'tetragonal'
loop_
_space_group_symop_operation_xyz
x,y,z
-x,-y,z
-y,x,1/2+z
y,-x,1/2+z
-x,y,-z
x,-y,-z
y,x,1/2-z
-y,-x,1/2-z
-x,-y,-z
x,y,-z
y,-x,1/2-z
-y,x,1/2-z
x,-y,z
-x,y,z
-y,-x,1/2+z
y,x,1/2+z
loop_
_atom_site_type_symbol
_atom_site_label
_atom_site_fract_x
_atom_site_fract_y
_atom_site_fract_z
Si Si1 0.392830 0.108011 0.620880
Si Si2 0.396714 0.889019 0.124448
Si Si3 0.206372 0.698955 0.801912
Si Si4 0.748942 0.893524 0.548413
Si Si5 0.733950 0.890048 0.951451
Si Si6 0.105340 0.104627 0.800943
Si Si7 0.789185 0.611476 0.712147
O O1 0.500000 0.120996 0.606849
O O2 0.372193 0.174388 0.661413
O O3 0.332095 0.142671 0.580272
O O4 0.370780 0.000000 0.633697
O O5 0.500000 0.848122 0.114542
O O6 0.331813 0.846400 0.086276
O O7 0.369579 0.862899 0.173539
O O8 0.395080 0.000000 0.120849
O O9 0.170331 0.805529 0.813230
O O10 0.321403 0.699487 0.799630
O O11 0.166831 0.655687 0.756493
O O12 0.708206 0.882610 0.500000
O O13 0.843937 0.835384 0.554828
O O14 0.777676 0.000000 0.558905
O O15 0.748728 0.000000 0.944612
O O16 0.693110 0.869100 0.000000
O O17 0.099409 0.099409 0.750000
O O18 0.000000 0.122048 0.819919
O O19 0.142223 0.000000 0.817629
O O20 0.762972 0.500000 0.717171
#
# Coordination Sequence:
#
# PCOD8316218 Si02
#       7
#    16  16  16  16  16  16  16
#     4  10  21  35  53  78 103 127 162 209 256 304
#     4   9  18  31  46  68  99 131 164 203 245 293
#     4  11  20  35  54  73  99 135 168 212 258 300
#     4   9  18  33  52  73 100 134 167 200 243 295
#     4   9  17  30  50  75 101 131 167 204 243 289
#     4   9  17  30  48  71  99 131 167 204 246 297
#     4  10  21  34  49  70  95 129 169 206 248 297
#
# _framework density 18.031298
#
# number of rings (size 3 to 8) (size 9 to 14) (size 15 to 20)
#    0.000    2.429    1.429    2.143    0.000    2.571 
#    0.000    6.429    0.000    8.143    0.000    0.000 
#    0.000    0.000    0.000   12.286    0.000    0.429 
#
# Total GULP energy -1387580.759966 kJ/mol
# GULP energy per Si atom -12389.113928 kJ/mol
# Density = 1.799026 g / cm^3
# Si number density = 18.031298 Si / 1000 Ang^3
#
#
#
# Elastic Constant Matrix: (Units=GPa)
#
#
# Indices 1 2 3 4 5 6 
#
# 1 76.9122 32.5826 40.8046 0.0000 0.0000 0.0000
# 2 32.5826 76.9122 40.8046 0.0000 0.0000 0.0000
# 3 40.8046 40.8046 112.1613 0.0000 0.0000 0.0000
# 4 0.0000 0.0000 0.0000 26.8105 0.0000 0.0000
# 5 0.0000 0.0000 0.0000 0.0000 26.8105 0.0000
# 6 0.0000 0.0000 0.0000 0.0000 0.0000 18.6249
#
#
#
# Elastic Compliance Matrix: (Units=1/GPa)
#
#
# Indices 1 2 3 4 5 6 
#
# 1 0.017544 -0.005014 -0.004559 0.000000 0.000000 0.000000
# 2 -0.005014 0.017544 -0.004559 0.000000 0.000000 0.000000
# 3 -0.004559 -0.004559 0.012233 0.000000 0.000000 0.000000
# 4 0.000000 0.000000 0.000000 0.037299 0.000000 0.000000
# 5 0.000000 0.000000 0.000000 0.000000 0.037299 0.000000
# 6 0.000000 0.000000 0.000000 0.000000 0.000000 0.053692
#
#
# Mechanical properties :
#
#
# Convention : Reuss Voigt Hill
#
# Bulk Modulus (GPa) = 52.46836 54.92993 53.69915
# Shear Modulus (GPa) = 23.78392 24.56876 24.17634
#
# Velocity S-wave (km/s) = 3.63579 3.69529 3.66566
# Velocity P-wave (km/s) = 6.84010 6.98117 6.91100
#
# Compressibility (1/GPa) = 0.01905910
#
# Stress axis : x y z
#
# Youngs Moduli (GPa) = 56.99823 56.99823 81.74856
#
# Poissons Ratio (x) = 0.28578 0.37266
# Poissons Ratio (y) = 0.28578 0.37266
# Poissons Ratio (z) = 0.25983 0.25983
#
# Static dielectric constant tensor:
#      x y z
#    x 3.363730 0.000000 0.000000 
#    y 0.000000 3.363730 0.000000 
#    z 0.000000 0.000000 3.514400 
# 
# 
# High freq. dielectric constant tensor:
#      x y z
#    x 1.680180 0.000000 0.000000 
#    y 0.000000 1.680180 0.000000 
#    z 0.000000 0.000000 1.704150 
# 
# From -- ./inp_files/13816.got.cif
#   From: 2010.03.12/outbox.cif.g09.slc.cpg/sg131_7_cif.got.tgz:13816.got - 2010.04.06 17:36:35.
