data_PCOD8316555
_publ_section_title
;
Structure prediction by ZEFSAII (Michael W. Deem and Ramdas Pophale) SiO2 
 PCOD8316555
Probable space group: P 42/M C M
;
_chemical_formula_sum "Si O2"
_cell_formula_units_Z 88
_cell_length_a 17.017271
_cell_length_b 17.017271
_cell_length_c 19.558454
_cell_angle_alpha 90.000000
_cell_angle_beta 90.000000
_cell_angle_gamma 90.000000
_cell_volume 5663.884038
_symmetry_space_group_name_H-M "P 42/M C M"
_symmetry_group_IT_number 132
_symmetry_cell_setting 'tetragonal'
loop_
_space_group_symop_operation_xyz
x,y,z
-y,x,1/2+z
-x,-y,z
y,-x,1/2+z
x,-y,1/2-z
-x,y,1/2-z
y,x,-z
-y,-x,-z
-x,-y,-z
y,-x,1/2-z
x,y,-z
-y,x,1/2-z
-x,y,1/2+z
x,-y,1/2+z
-y,-x,z
y,x,z
loop_
_atom_site_type_symbol
_atom_site_label
_atom_site_fract_x
_atom_site_fract_y
_atom_site_fract_z
Si Si1 0.408229 0.092754 0.078976
Si Si2 0.063120 0.936881 0.573859
Si Si3 0.284605 0.844922 0.675685
Si Si4 0.716693 0.841088 0.669016
Si Si5 0.087690 0.410383 0.421322
Si Si6 0.189883 0.999865 0.825100
O O1 0.358648 0.155216 0.124147
O O2 0.499513 0.110883 0.090895
O O3 0.392880 0.002216 0.100577
O O4 0.384966 0.105143 0.000000
O O5 0.095402 0.904599 0.500000
O O6 0.020051 0.869821 0.615700
O O7 0.000000 0.000000 0.554972
O O8 0.217091 0.782910 0.651958
O O9 0.311233 0.827061 0.752951
O O10 0.255588 0.933865 0.674005
O O11 0.764787 0.764787 0.643796
O O12 0.639963 0.851722 0.623183
O O13 0.773462 0.915492 0.660367
O O14 0.098761 0.387270 0.500000
O O15 0.148688 0.000000 0.750000
#
# Coordination Sequence:
#
# PCOD8316555 Si02
#       6
#    16   8  16  16  16  16
#     4   9  18  32  49  69  93 121 155 195 240 287
#     4  11  24  34  42  62  82 108 162 212 239 275
#     4  10  19  32  47  69  93 120 161 196 231 281
#     4  10  20  32  47  68  93 121 159 198 232 278
#     4   9  18  32  49  69  92 121 156 194 241 288
#     4  10  20  33  47  61  85 125 159 191 237 278
#
# _framework density 15.537039999999999
#
# number of rings (size 3 to 8) (size 9 to 14) (size 15 to 20)
#    0.000    2.273    2.727    1.636    2.545    2.909 
#    0.000    1.818    0.000    0.000    0.000    0.000 
#    0.000    0.727    0.000    8.000    0.000    5.818 
#
# Total GULP energy -1090758.152770 kJ/mol
# GULP energy per Si atom -12394.979009 kJ/mol
# Density = 1.550168 g / cm^3
# Si number density = 15.537040 Si / 1000 Ang^3
#
#
#
# Elastic Constant Matrix: (Units=GPa)
#
#
# Indices 1 2 3 4 5 6 
#
# 1 70.4278 27.2357 45.9488 0.0000 0.0000 0.0000
# 2 27.2357 70.4278 45.9488 0.0000 0.0000 0.0000
# 3 45.9488 45.9488 97.6954 0.0000 0.0000 0.0000
# 4 0.0000 0.0000 0.0000 28.9396 0.0000 0.0000
# 5 0.0000 0.0000 0.0000 0.0000 28.9397 0.0000
# 6 0.0000 0.0000 0.0000 0.0000 0.0000 19.1242
#
#
#
# Elastic Compliance Matrix: (Units=1/GPa)
#
#
# Indices 1 2 3 4 5 6 
#
# 1 0.020760 -0.002392 -0.008639 0.000000 0.000000 0.000000
# 2 -0.002392 0.020760 -0.008639 0.000000 0.000000 0.000000
# 3 -0.008639 -0.008639 0.018362 0.000000 0.000000 0.000000
# 4 0.000000 0.000000 0.000000 0.034555 0.000000 0.000000
# 5 0.000000 0.000000 0.000000 0.000000 0.034555 0.000000
# 6 0.000000 0.000000 0.000000 0.000000 0.000000 0.052290
#
#
# Mechanical properties :
#
#
# Convention : Reuss Voigt Hill
#
# Bulk Modulus (GPa) = 48.67961 52.97973 50.82967
# Shear Modulus (GPa) = 21.98090 23.36188 22.67139
#
# Velocity S-wave (km/s) = 3.76539 3.88187 3.82407
# Velocity P-wave (km/s) = 7.09250 7.36647 7.23078
#
# Compressibility (1/GPa) = 0.02054248
#
# Stress axis : x y z
#
# Youngs Moduli (GPa) = 48.16870 48.16869 54.45930
#
# Poissons Ratio (x) = 0.11522 0.47048
# Poissons Ratio (y) = 0.11522 0.47048
# Poissons Ratio (z) = 0.41614 0.41614
#
# Static dielectric constant tensor:
#      x y z
#    x 2.768310 0.000000 0.000000 
#    y 0.000000 2.768310 0.000000 
#    z 0.000000 0.000000 3.211860 
# 
# 
# High freq. dielectric constant tensor:
#      x y z
#    x 1.570650 0.000000 0.000000 
#    y 0.000000 1.570650 0.000000 
#    z 0.000000 0.000000 1.606970 
# 
# From -- ./inp_files/4763.got.cif
#   From: 2010.03.12/outbox.cif.g09.slc.cpg/sg132_3_cif.got.tgz:4763.got - 2010.04.06 17:53:44.
