data_PCOD8316612
_publ_section_title
;
Structure prediction by ZEFSAII (Michael W. Deem and Ramdas Pophale) SiO2 
 PCOD8316612
Probable space group: P 42/M C M
;
_chemical_formula_sum "Si O2"
_cell_formula_units_Z 96
_cell_length_a 25.595980
_cell_length_b 25.595980
_cell_length_c 8.867786
_cell_angle_alpha 90.000000
_cell_angle_beta 90.000000
_cell_angle_gamma 90.000000
_cell_volume 5809.767173
_symmetry_space_group_name_H-M "P 42/M C M"
_symmetry_group_IT_number 132
_symmetry_cell_setting 'tetragonal'
loop_
_space_group_symop_operation_xyz
x,y,z
-y,x,1/2+z
-x,-y,z
y,-x,1/2+z
x,-y,1/2-z
-x,y,1/2-z
y,x,-z
-y,-x,-z
-x,-y,-z
y,-x,1/2-z
x,y,-z
-y,x,1/2-z
-x,y,1/2+z
x,-y,1/2+z
-y,-x,z
y,x,z
loop_
_atom_site_type_symbol
_atom_site_label
_atom_site_fract_x
_atom_site_fract_y
_atom_site_fract_z
Si Si1 0.550654 0.920347 0.674537
Si Si2 0.336473 0.336473 0.180159
Si Si3 0.181549 0.575387 0.329320
Si Si4 0.158629 0.305384 0.826020
Si Si5 0.744782 0.255218 0.179487
Si Si6 0.053118 0.334243 0.679900
Si Si7 0.298702 0.551858 0.675276
O O1 0.500000 0.947727 0.750000
O O2 0.545046 0.929218 0.500000
O O3 0.550015 0.858857 0.713166
O O4 0.605105 0.944173 0.734011
O O5 0.296362 0.296362 0.254349
O O6 0.395192 0.324940 0.236845
O O7 0.330301 0.330301 0.000000
O O8 0.165019 0.560485 0.500000
O O9 0.183658 0.637568 0.312089
O O10 0.237621 0.553254 0.285659
O O11 0.196839 0.266897 0.736781
O O12 0.101695 0.302697 0.748633
O O13 0.153546 0.288078 0.000000
O O14 0.742660 0.257340 0.000000
O O15 0.053696 0.329133 0.500000
O O16 0.000000 0.310599 0.750000
O O17 0.323483 0.500000 0.750000
O O18 0.309437 0.547788 0.500000
#
# Coordination Sequence:
#
# PCOD8316612 Si02
#       7
#    16   8  16  16   8  16  16
#     4  10  20  31  44  63  89 119 158 204 247 291
#     4  10  20  38  54  69  97 132 157 184 237 299
#     4   9  17  30  48  68  90 121 154 189 237 292
#     4  10  19  34  54  74 100 133 165 199 246 299
#     4  12  22  32  52  82 109 131 160 205 250 298
#     4  10  21  36  51  70  94 126 168 212 252 294
#     4  10  20  33  50  70  93 120 152 187 231 292
#
# _framework density 16.523897999999999
#
# number of rings (size 3 to 8) (size 9 to 14) (size 15 to 20)
#    0.000    2.000    1.667    2.750    0.000    5.667 
#    0.000    1.667    0.000    0.250    0.000    1.750 
#    0.000    0.000    0.000    0.000    0.000    0.417 
#
# Total GULP energy -1190376.934035 kJ/mol
# GULP energy per Si atom -12399.759730 kJ/mol
# Density = 1.648629 g / cm^3
# Si number density = 16.523898 Si / 1000 Ang^3
#
#
#
# Elastic Constant Matrix: (Units=GPa)
#
#
# Indices 1 2 3 4 5 6 
#
# 1 81.2664 47.6055 37.1526 0.0000 0.0000 0.0000
# 2 47.6055 81.2664 37.1526 0.0000 0.0000 0.0000
# 3 37.1526 37.1526 69.9853 0.0000 0.0000 0.0000
# 4 0.0000 0.0000 0.0000 23.4484 0.0000 0.0000
# 5 0.0000 0.0000 0.0000 0.0000 23.4484 0.0000
# 6 0.0000 0.0000 0.0000 0.0000 0.0000 7.1578
#
#
#
# Elastic Compliance Matrix: (Units=1/GPa)
#
#
# Indices 1 2 3 4 5 6 
#
# 1 0.020445 -0.009263 -0.005936 0.000000 0.000000 0.000000
# 2 -0.009263 0.020445 -0.005936 0.000000 0.000000 0.000000
# 3 -0.005936 -0.005936 0.020591 0.000000 0.000000 0.000000
# 4 0.000000 0.000000 0.000000 0.042647 0.000000 0.000000
# 5 0.000000 0.000000 0.000000 0.000000 0.042647 0.000000
# 6 0.000000 0.000000 0.000000 0.000000 0.000000 0.139707
#
#
# Mechanical properties :
#
#
# Convention : Reuss Voigt Hill
#
# Bulk Modulus (GPa) = 52.05354 52.92660 52.49007
# Shear Modulus (GPa) = 14.91836 18.18476 16.55156
#
# Velocity S-wave (km/s) = 3.00798 3.32100 3.16836
# Velocity P-wave (km/s) = 6.60563 6.84143 6.72456
#
# Compressibility (1/GPa) = 0.01921099
#
# Stress axis : x y z
#
# Youngs Moduli (GPa) = 48.91115 48.91115 48.56382
#
# Poissons Ratio (x) = 0.45305 0.28829
# Poissons Ratio (y) = 0.45305 0.28829
# Poissons Ratio (z) = 0.29035 0.29035
#
# Static dielectric constant tensor:
#      x y z
#    x 3.013120 0.000000 0.000000 
#    y 0.000000 3.013120 0.000000 
#    z 0.000000 0.000000 3.083220 
# 
# 
# High freq. dielectric constant tensor:
#      x y z
#    x 1.612590 0.000000 0.000000 
#    y 0.000000 1.612590 0.000000 
#    z 0.000000 0.000000 1.642570 
# 
# From -- ./inp_files/1832.got.cif
#   From: 2010.03.12/outbox.cif.g09.slc.cpg/sg132_1_cif.got.tgz:1832.got - 2010.04.06 17:53:44.
