data_PCOD8316463
_publ_section_title
;
Structure prediction by ZEFSAII (Michael W. Deem and Ramdas Pophale) SiO2 
 PCOD8316463
Probable space group: P 42/M C M
;
_chemical_formula_sum "Si O2"
_cell_formula_units_Z 80
_cell_length_a 17.269425
_cell_length_b 17.269425
_cell_length_c 18.460114
_cell_angle_alpha 90.000000
_cell_angle_beta 90.000000
_cell_angle_gamma 90.000000
_cell_volume 5505.415914
_symmetry_space_group_name_H-M "P 42/M C M"
_symmetry_group_IT_number 132
_symmetry_cell_setting 'tetragonal'
loop_
_space_group_symop_operation_xyz
x,y,z
-y,x,1/2+z
-x,-y,z
y,-x,1/2+z
x,-y,1/2-z
-x,y,1/2-z
y,x,-z
-y,-x,-z
-x,-y,-z
y,-x,1/2-z
x,y,-z
-y,x,1/2-z
-x,y,1/2+z
x,-y,1/2+z
-y,-x,z
y,x,z
loop_
_atom_site_type_symbol
_atom_site_label
_atom_site_fract_x
_atom_site_fract_y
_atom_site_fract_z
Si Si1 0.630512 0.127411 0.914086
Si Si2 0.392337 0.607664 0.085480
Si Si3 0.408667 0.984501 0.669685
Si Si4 0.269607 0.269607 0.414387
Si Si5 0.476059 0.833673 0.668109
Si Si6 0.464351 0.340691 0.827963
O O1 0.703265 0.182893 0.890051
O O2 0.551077 0.162531 0.883249
O O3 0.641068 0.039954 0.883564
O O4 0.624091 0.123544 0.000000
O O5 0.330922 0.669079 0.118272
O O6 0.369484 0.522632 0.110922
O O7 0.391630 0.608370 0.000000
O O8 0.405920 0.893358 0.647026
O O9 0.500000 0.000000 0.663651
O O10 0.376205 0.000000 0.750000
O O11 0.274126 0.274126 0.500000
O O12 0.500000 0.855707 0.750000
O O13 0.441717 0.748522 0.662592
O O14 0.500000 0.358541 0.750000
O O15 0.384178 0.384178 0.837528
#
# Coordination Sequence:
#
# PCOD8316463 Si02
#       6
#    16   8  16   8  16  16
#     4  10  18  29  47  66  86 115 147 181 227 274
#     4  11  21  34  47  58  80 114 152 197 242 267
#     4   9  15  28  43  62  85 112 140 180 225 267
#     4   9  18  31  44  67  94 112 141 188 228 262
#     4  10  18  30  43  61  87 116 146 188 233 271
#     4  11  22  33  45  62  84 116 158 200 233 268
#
# _framework density 14.531146
#
# number of rings (size 3 to 8) (size 9 to 14) (size 15 to 20)
#    0.000    2.000    7.000    0.300    0.000    4.400 
#    0.000    0.000    0.000    0.000    0.000    0.000 
#    0.000    0.000    0.000    0.900    0.400    5.600 
#
# Total GULP energy -991295.357086 kJ/mol
# GULP energy per Si atom -12391.191964 kJ/mol
# Density = 1.449807 g / cm^3
# Si number density = 14.531146 Si / 1000 Ang^3
#
#
#
# Elastic Constant Matrix: (Units=GPa)
#
#
# Indices 1 2 3 4 5 6 
#
# 1 92.7171 61.2928 30.0978 0.0000 0.0000 0.0000
# 2 61.2928 92.7165 30.0972 0.0000 0.0000 0.0000
# 3 30.0978 30.0972 70.6789 0.0000 0.0000 0.0000
# 4 0.0000 0.0000 0.0000 16.3500 0.0000 0.0000
# 5 0.0000 0.0000 0.0000 0.0000 16.3501 0.0000
# 6 0.0000 0.0000 0.0000 0.0000 0.0000 16.5175
#
#
#
# Elastic Compliance Matrix: (Units=1/GPa)
#
#
# Indices 1 2 3 4 5 6 
#
# 1 0.019806 -0.012017 -0.003317 0.000000 0.000000 0.000000
# 2 -0.012017 0.019806 -0.003317 0.000000 0.000000 0.000000
# 3 -0.003317 -0.003317 0.016974 0.000000 0.000000 0.000000
# 4 0.000000 0.000000 0.000000 0.061162 0.000000 0.000000
# 5 0.000000 0.000000 0.000000 0.000000 0.061162 0.000000
# 6 0.000000 0.000000 0.000000 0.000000 0.000000 0.060542
#
#
# Mechanical properties :
#
#
# Convention : Reuss Voigt Hill
#
# Bulk Modulus (GPa) = 51.85531 55.45422 53.65477
# Shear Modulus (GPa) = 17.65654 18.81850 18.23752
#
# Velocity S-wave (km/s) = 3.48958 3.60258 3.54653
# Velocity P-wave (km/s) = 7.21106 7.45318 7.33312
#
# Compressibility (1/GPa) = 0.01928443
#
# Stress axis : x y z
#
# Youngs Moduli (GPa) = 50.48932 50.48927 58.91519
#
# Poissons Ratio (x) = 0.60671 0.19543
# Poissons Ratio (y) = 0.60671 0.19542
# Poissons Ratio (z) = 0.16748 0.16747
#
# Static dielectric constant tensor:
#      x y z
#    x 2.991400 0.000000 0.000000 
#    y 0.000000 2.991400 0.000000 
#    z 0.000000 0.000000 2.818550 
# 
# 
# High freq. dielectric constant tensor:
#      x y z
#    x 1.532430 0.000000 0.000000 
#    y 0.000000 1.532430 0.000000 
#    z 0.000000 0.000000 1.553790 
# 
# From -- ./inp_files/8000.got.cif
#   From: 2010.03.12/outbox.cif.g09.slc.cpg/sg132_4_cif.got.tgz:8000.got - 2010.04.06 17:53:44.
