data_PCOD8316975
_publ_section_title
;
Structure prediction by ZEFSAII (Michael W. Deem and Ramdas Pophale) SiO2 
 PCOD8316975
Probable space group: P 42/N B C
;
_chemical_formula_sum "Si O2"
_cell_formula_units_Z 112
_cell_length_a 14.150893
_cell_length_b 14.150893
_cell_length_c 28.526285
_cell_angle_alpha 90.000000
_cell_angle_beta 90.000000
_cell_angle_gamma 90.000000
_cell_volume 5712.325035
_symmetry_space_group_name_H-M "P 42/N B C"
_symmetry_group_IT_number 133
_space_group.IT_coordinate_system_code '2'
_symmetry_cell_setting 'tetragonal'
loop_
_space_group_symop_operation_xyz
x,y,z
1/2-y,x,1/2+z
1/2-x,1/2-y,z
y,1/2-x,1/2+z
x,1/2-y,-z
1/2-x,y,-z
y,x,1/2-z
1/2-y,1/2-x,1/2-z
-x,-y,-z
1/2+y,-x,1/2-z
1/2+x,1/2+y,-z
-y,1/2+x,1/2-z
-x,1/2+y,z
1/2+x,-y,z
-y,-x,1/2+z
1/2+y,1/2+x,1/2+z
loop_
_atom_site_type_symbol
_atom_site_label
_atom_site_fract_x
_atom_site_fract_y
_atom_site_fract_z
Si Si1 0.601846 0.528394 0.387202
Si Si2 0.449575 0.360037 0.295480
Si Si3 0.359408 0.250000 0.055367
Si Si4 0.639964 0.949576 0.795480
Si Si5 0.648360 0.355919 0.668800
Si Si6 0.148360 0.644081 0.331200
Si Si7 0.471607 0.398153 0.112798
O O1 0.657448 0.587095 0.426029
O O2 0.596317 0.593633 0.341129
O O3 0.652426 0.429893 0.374044
O O4 0.500000 0.500000 0.407854
O O5 0.408819 0.408819 0.250000
O O6 0.423780 0.250000 0.294709
O O7 0.562602 0.379069 0.295975
O O8 0.403680 0.406368 0.341129
O O9 0.250000 0.250000 0.071692
O O10 0.412905 0.342551 0.073971
O O11 0.366675 0.250000 0.000000
O O12 0.591181 0.908820 0.750000
O O13 0.620932 0.062603 0.795975
O O14 0.750000 0.362670 0.695650
O O15 0.634302 0.250000 0.647966
O O16 0.652426 0.429892 0.625956
#
# Coordination Sequence:
#
# PCOD8316975 Si02
#       7
#    16  16  16  16  16  16  16
#     4  10  21  39  63  89 124 165 205 257 316 377
#     4  10  22  37  56  87 123 162 208 253 305 374
#     4  11  24  42  67  97 127 165 214 266 321 381
#     4  10  22  37  56  87 123 162 208 253 305 374
#     4   9  18  36  61  85 113 152 200 253 309 367
#     4   9  18  36  61  85 113 152 200 253 309 367
#     4  10  21  39  63  89 124 165 205 257 316 377
#
# _framework density 19.606725999999998
#
# number of rings (size 3 to 8) (size 9 to 14) (size 15 to 20)
#    0.000    2.143    1.429    0.857    2.000    7.143 
#    0.000    4.286    0.000   10.286    0.000    0.000 
#    0.000    0.000    0.000    0.000    0.000    0.000 
#
# Total GULP energy -1388211.467975 kJ/mol
# GULP energy per Si atom -12394.745250 kJ/mol
# Density = 1.956210 g / cm^3
# Si number density = 19.606726 Si / 1000 Ang^3
#
#
#
# Elastic Constant Matrix: (Units=GPa)
#
#
# Indices 1 2 3 4 5 6 
#
# 1 141.4421 70.0331 55.4108 0.0000 0.0000 0.0000
# 2 70.0331 141.4408 55.4112 0.0000 0.0000 0.0000
# 3 55.4108 55.4112 85.1362 0.0000 0.0000 0.0000
# 4 0.0000 0.0000 0.0000 25.1215 0.0000 0.0000
# 5 0.0000 0.0000 0.0000 0.0000 25.1216 0.0000
# 6 0.0000 0.0000 0.0000 0.0000 0.0000 32.3051
#
#
#
# Elastic Compliance Matrix: (Units=1/GPa)
#
#
# Indices 1 2 3 4 5 6 
#
# 1 0.010590 -0.003414 -0.004671 0.000000 0.000000 0.000000
# 2 -0.003414 0.010590 -0.004671 0.000000 0.000000 0.000000
# 3 -0.004671 -0.004671 0.017826 0.000000 0.000000 0.000000
# 4 0.000000 0.000000 0.000000 0.039807 0.000000 0.000000
# 5 0.000000 0.000000 0.000000 0.000000 0.039806 0.000000
# 6 0.000000 0.000000 0.000000 0.000000 0.000000 0.030955
#
#
# Mechanical properties :
#
#
# Convention : Reuss Voigt Hill
#
# Bulk Modulus (GPa) = 74.09848 81.08105 77.58977
# Shear Modulus (GPa) = 27.84227 28.98725 28.41476
#
# Velocity S-wave (km/s) = 3.77243 3.84921 3.81101
# Velocity P-wave (km/s) = 7.53985 7.82296 7.68271
#
# Compressibility (1/GPa) = 0.01349555
#
# Stress axis : x y z
#
# Youngs Moduli (GPa) = 94.42795 94.42636 56.09844
#
# Poissons Ratio (x) = 0.32235 0.26202
# Poissons Ratio (y) = 0.32236 0.26203
# Poissons Ratio (z) = 0.44104 0.44105
#
# Static dielectric constant tensor:
#      x y z
#    x 4.021180 0.000000 0.000000 
#    y 0.000000 4.021190 0.000000 
#    z 0.000000 0.000000 3.046880 
# 
# 
# High freq. dielectric constant tensor:
#      x y z
#    x 1.789960 0.000000 0.000000 
#    y 0.000000 1.789960 0.000000 
#    z 0.000000 0.000000 1.707020 
# 
# From -- ./inp_files/7252.got.cif
#   From: 2010.03.12/outbox.cif.g09.slc.cpg/sg133_4_cif.got.tgz:7252.got - 2010.04.06 18:08:06.
