data_PCOD8316254
_publ_section_title
;
Structure prediction by ZEFSAII (Michael W. Deem and Ramdas Pophale) SiO2 
 PCOD8316254
Probable space group: P 42/M M C
;
_chemical_formula_sum "Si O2"
_cell_formula_units_Z 96
_cell_length_a 23.356663
_cell_length_b 23.356663
_cell_length_c 8.646181
_cell_angle_alpha 90.000000
_cell_angle_beta 90.000000
_cell_angle_gamma 90.000000
_cell_volume 4716.783168
_symmetry_space_group_name_H-M "P 42/M M C"
_symmetry_group_IT_number 131
_symmetry_cell_setting 'tetragonal'
loop_
_space_group_symop_operation_xyz
x,y,z
-x,-y,z
-y,x,1/2+z
y,-x,1/2+z
-x,y,-z
x,-y,-z
y,x,1/2-z
-y,-x,1/2-z
-x,-y,-z
x,y,-z
y,-x,1/2-z
-y,x,1/2-z
x,-y,z
-x,y,z
-y,-x,1/2+z
y,x,1/2+z
loop_
_atom_site_type_symbol
_atom_site_label
_atom_site_fract_x
_atom_site_fract_y
_atom_site_fract_z
Si Si1 0.139215 0.222645 0.320501
Si Si2 0.288565 0.380408 0.317168
Si Si3 0.737246 0.500000 0.183698
Si Si4 0.823881 0.667667 0.176114
Si Si5 0.147526 0.934180 0.328388
Si Si6 0.500000 0.864052 0.822134
Si Si7 0.401153 0.065942 0.677643
O O1 0.163388 0.163388 0.250000
O O2 0.146741 0.235903 0.500000
O O3 0.177078 0.267216 0.224964
O O4 0.074351 0.208703 0.268927
O O5 0.334552 0.334552 0.250000
O O6 0.297080 0.381787 0.500000
O O7 0.296594 0.444394 0.249029
O O8 0.222405 0.365374 0.279796
O O9 0.805162 0.500000 0.224936
O O10 0.732756 0.500000 0.000000
O O11 0.890935 0.651822 0.200658
O O12 0.804137 0.658616 0.000000
O O13 0.090812 0.909189 0.250000
O O14 0.155748 0.907464 0.500000
O O15 0.135976 0.000000 0.339863
O O16 0.552338 0.905675 0.787133
O O17 0.500000 0.845388 0.000000
O O18 0.422403 0.066526 0.500000
O O19 0.387119 0.000000 0.727651
#
# Coordination Sequence:
#
# PCOD8316254 Si02
#       7
#    16  16   8  16  16   8  16
#     4  11  22  37  57  80 109 145 187 237 292 356
#     4  12  25  43  68 101 136 173 217 269 325 387
#     4  12  24  43  69  99 135 177 219 270 327 388
#     4  11  22  38  60  87 123 165 210 262 315 372
#     4  10  21  37  57  80 106 138 179 229 290 362
#     4  12  23  37  60  89 123 165 211 266 317 371
#     4  10  22  39  59  83 117 165 216 262 314 373
#
# _framework density 20.352854000000001
#
# number of rings (size 3 to 8) (size 9 to 14) (size 15 to 20)
#    0.000    1.000    1.667    7.250    0.000    4.167 
#    0.000    2.500    0.000    0.250    0.000    1.750 
#    0.000    0.000    0.000    0.000    0.000    0.000 
#
# Total GULP energy -1189256.439019 kJ/mol
# GULP energy per Si atom -12388.087906 kJ/mol
# Density = 2.030653 g / cm^3
# Si number density = 20.352854 Si / 1000 Ang^3
#
#
#
# Elastic Constant Matrix: (Units=GPa)
#
#
# Indices 1 2 3 4 5 6 
#
# 1 92.4190 48.5582 48.6020 0.0000 0.0000 0.0000
# 2 48.5582 92.4115 48.6027 0.0000 0.0000 0.0000
# 3 48.6020 48.6027 136.2072 0.0000 0.0000 0.0000
# 4 0.0000 0.0000 0.0000 -91.7879 0.0000 0.0000
# 5 0.0000 0.0000 0.0000 0.0000 -91.8003 0.0000
# 6 0.0000 0.0000 0.0000 0.0000 0.0000 27.7267
#
#
#
# Elastic Compliance Matrix: (Units=1/GPa)
#
#
# Indices 1 2 3 4 5 6 
#
# 1 0.016104 -0.006696 -0.003357 0.000000 0.000000 0.000000
# 2 -0.006696 0.016106 -0.003358 0.000000 0.000000 0.000000
# 3 -0.003357 -0.003358 0.009738 0.000000 0.000000 0.000000
# 4 0.000000 0.000000 0.000000 -0.010895 0.000000 0.000000
# 5 0.000000 0.000000 0.000000 0.000000 -0.010893 0.000000
# 6 0.000000 0.000000 0.000000 0.000000 0.000000 0.036066
#
#
# Mechanical properties :
#
#
# Convention : Reuss Voigt Hill
#
# Bulk Modulus (GPa) = 66.11255 68.06262 67.08758
# Shear Modulus (GPa) = 56.76056 -19.48732 18.63662
#
# Velocity S-wave (km/s) = 5.28666 -3.09766 3.02930
# Velocity P-wave (km/s) = 8.35576 4.55191 6.72825
#
# Compressibility (1/GPa) = 0.01512572
#
# Stress axis : x y z
#
# Youngs Moduli (GPa) = 62.09636 62.08973 102.69462
#
# Poissons Ratio (x) = 0.41578 0.34473
# Poissons Ratio (y) = 0.41583 0.34480
# Poissons Ratio (z) = 0.20845 0.20847
#
# Static dielectric constant tensor:
#      x y z
#    x 3.823580 0.000000 0.000000 
#    y 0.000000 3.823590 0.000000 
#    z 0.000000 0.000000 3.922280 
# 
# 
# High freq. dielectric constant tensor:
#      x y z
#    x 1.792170 0.000000 0.000000 
#    y 0.000000 1.792170 0.000000 
#    z 0.000000 0.000000 1.806310 
# 
# From -- ./inp_files/2374.got.cif
#   From: 2010.03.12/outbox.cif.g09.slc.cpg/sg131_2_cif.got.tgz:2374.got - 2010.04.06 17:36:35.
