data_PCOD8316228
_publ_section_title
;
Structure prediction by ZEFSAII (Michael W. Deem and Ramdas Pophale) SiO2 
 PCOD8316228
Probable space group: P 42/M M C
;
_chemical_formula_sum "Si O2"
_cell_formula_units_Z 120
_cell_length_a 15.992575
_cell_length_b 15.992575
_cell_length_c 29.381776
_cell_angle_alpha 90.000000
_cell_angle_beta 90.000000
_cell_angle_gamma 90.000000
_cell_volume 7514.755166
_symmetry_space_group_name_H-M "P 42/M M C"
_symmetry_group_IT_number 131
_symmetry_cell_setting 'tetragonal'
loop_
_space_group_symop_operation_xyz
x,y,z
-x,-y,z
-y,x,1/2+z
y,-x,1/2+z
-x,y,-z
x,-y,-z
y,x,1/2-z
-y,-x,1/2-z
-x,-y,-z
x,y,-z
y,-x,1/2-z
-y,x,1/2-z
x,-y,z
-x,y,z
-y,-x,1/2+z
y,x,1/2+z
loop_
_atom_site_type_symbol
_atom_site_label
_atom_site_fract_x
_atom_site_fract_y
_atom_site_fract_z
Si Si1 0.598289 0.095619 0.209837
Si Si2 0.096222 0.340577 0.197049
Si Si3 0.163871 0.094479 0.892300
Si Si4 0.902102 0.646721 0.613917
Si Si5 0.500000 0.900145 0.050951
Si Si6 0.147445 0.095931 0.700130
Si Si7 0.097905 0.753814 0.949519
Si Si8 0.406767 0.900206 0.396525
O O1 0.500000 0.103010 0.210883
O O2 0.635382 0.140782 0.255069
O O3 0.632232 0.139536 0.163755
O O4 0.629382 0.000000 0.209683
O O5 0.105661 0.243382 0.186537
O O6 0.135170 0.391161 0.154541
O O7 0.000000 0.367444 0.201436
O O8 0.260039 0.116019 0.902599
O O9 0.145966 0.095954 0.838111
O O10 0.111442 0.163356 0.919341
O O11 0.142957 0.000000 0.909406
O O12 0.865275 0.582071 0.576975
O O13 0.000000 0.627932 0.618720
O O14 0.500000 0.000000 0.049030
O O15 0.500000 0.863055 0.000000
O O16 0.132860 0.132860 0.750000
O O17 0.118238 0.000000 0.699524
O O18 0.136126 0.667790 0.928382
O O19 0.000000 0.740943 0.953127
O O20 0.136562 0.766495 0.000000
O O21 0.500000 0.871836 0.412948
O O22 0.400892 0.000000 0.395936
#
# Coordination Sequence:
#
# PCOD8316228 Si02
#       8
#    16  16  16  16   8  16  16  16
#     4   9  14  22  39  62  87 110 136 175 227 282
#     4   9  16  26  41  62  87 113 143 185 234 282
#     4  11  22  34  48  64  89 126 166 205 240 272
#     4   9  17  29  43  63  87 112 148 190 231 278
#     4   9  16  28  46  64  84 110 141 187 240 282
#     4  11  21  32  44  61  89 125 168 211 244 272
#     4  10  21  36  50  65  88 119 158 204 245 278
#     4   9  16  29  49  70  89 108 139 186 242 298
#
# _framework density 15.968584
#
# number of rings (size 3 to 8) (size 9 to 14) (size 15 to 20)
#    0.000    2.333    2.000    2.000    0.000    6.533 
#    0.000    3.333    0.000    0.000    0.000    0.000 
#    0.000    0.000    0.000    0.600    0.000    2.667 
#
# Total GULP energy -1487168.799058 kJ/mol
# GULP energy per Si atom -12393.073325 kJ/mol
# Density = 1.593224 g / cm^3
# Si number density = 15.968584 Si / 1000 Ang^3
#
#
#
# Elastic Constant Matrix: (Units=GPa)
#
#
# Indices 1 2 3 4 5 6 
#
# 1 48.2276 11.5611 26.6538 0.0000 0.0000 0.0000
# 2 11.5611 48.2276 26.6538 0.0000 0.0000 0.0000
# 3 26.6538 26.6538 115.3988 0.0000 0.0000 0.0000
# 4 0.0000 0.0000 0.0000 18.0145 0.0000 0.0000
# 5 0.0000 0.0000 0.0000 0.0000 18.0145 0.0000
# 6 0.0000 0.0000 0.0000 0.0000 0.0000 0.1618
#
#
#
# Elastic Compliance Matrix: (Units=1/GPa)
#
#
# Indices 1 2 3 4 5 6 
#
# 1 0.024168 -0.003105 -0.004865 0.000000 0.000000 0.000000
# 2 -0.003105 0.024168 -0.004865 0.000000 0.000000 0.000000
# 3 -0.004865 -0.004865 0.010913 0.000000 0.000000 0.000000
# 4 0.000000 0.000000 0.000000 0.055511 0.000000 0.000000
# 5 0.000000 0.000000 0.000000 0.000000 0.055511 0.000000
# 6 0.000000 0.000000 0.000000 0.000000 0.000000 6.180592
#
#
# Mechanical properties :
#
#
# Convention : Reuss Voigt Hill
#
# Bulk Modulus (GPa) = 29.78019 37.95459 33.86739
# Shear Modulus (GPa) = 0.78275 17.03718 8.90997
#
# Velocity S-wave (km/s) = 0.70089 3.26992 2.36470
# Velocity P-wave (km/s) = 4.39826 6.17060 5.35822
#
# Compressibility (1/GPa) = 0.03357937
#
# Stress axis : x y z
#
# Youngs Moduli (GPa) = 41.37695 41.37695 91.63428
#
# Poissons Ratio (x) = 0.12847 0.44580
# Poissons Ratio (y) = 0.12847 0.44580
# Poissons Ratio (z) = 0.20130 0.20130
#
# Static dielectric constant tensor:
#      x y z
#    x 2.757430 0.000000 0.000000 
#    y 0.000000 2.757430 0.000000 
#    z 0.000000 0.000000 3.394850 
# 
# 
# High freq. dielectric constant tensor:
#      x y z
#    x 1.570390 0.000000 0.000000 
#    y 0.000000 1.570390 0.000000 
#    z 0.000000 0.000000 1.633230 
# 
# From -- ./inp_files/13955.got.cif
#   From: 2010.03.12/outbox.cif.g09.slc.cpg/sg131_7_cif.got.tgz:13955.got - 2010.04.06 17:36:35.
