data_PCOD8316497
_publ_section_title
;
Structure prediction by ZEFSAII (Michael W. Deem and Ramdas Pophale) SiO2 
 PCOD8316497
Probable space group: P 42/M C M
;
_chemical_formula_sum "Si O2"
_cell_formula_units_Z 96
_cell_length_a 15.819876
_cell_length_b 15.819876
_cell_length_c 21.585772
_cell_angle_alpha 90.000000
_cell_angle_beta 90.000000
_cell_angle_gamma 90.000000
_cell_volume 5402.238276
_symmetry_space_group_name_H-M "P 42/M C M"
_symmetry_group_IT_number 132
_symmetry_cell_setting 'tetragonal'
loop_
_space_group_symop_operation_xyz
x,y,z
-y,x,1/2+z
-x,-y,z
y,-x,1/2+z
x,-y,1/2-z
-x,y,1/2-z
y,x,-z
-y,-x,-z
-x,-y,-z
y,-x,1/2-z
x,y,-z
-y,x,1/2-z
-x,y,1/2+z
x,-y,1/2+z
-y,-x,z
y,x,z
loop_
_atom_site_type_symbol
_atom_site_label
_atom_site_fract_x
_atom_site_fract_y
_atom_site_fract_z
Si Si1 0.102951 0.756301 0.106407
Si Si2 0.677588 0.185010 0.661114
Si Si3 0.087399 0.649252 0.220730
Si Si4 0.375794 0.235905 0.567813
Si Si5 0.081451 0.784298 0.430692
Si Si6 0.511542 0.210278 0.819080
O O1 0.165691 0.834310 0.112641
O O2 0.072373 0.724645 0.173040
O O3 0.148318 0.676723 0.073487
O O4 0.020048 0.790141 0.071397
O O5 0.726353 0.273648 0.652587
O O6 0.689891 0.152736 0.730761
O O7 0.710481 0.115036 0.613470
O O8 0.578305 0.195788 0.648844
O O9 0.123442 0.562124 0.192547
O O10 0.000000 0.621416 0.250000
O O11 0.422410 0.232451 0.500000
O O12 0.312240 0.312240 0.567764
O O13 0.436251 0.257490 0.626565
O O14 0.107958 0.759302 0.500000
O O15 0.125787 0.874214 0.412520
O O16 0.500000 0.255339 0.750000
#
# Coordination Sequence:
#
# PCOD8316497 Si02
#       6
#    16  16  16  16  16  16
#     4  10  19  33  54  77 101 135 177 219 268 319
#     4  10  20  35  52  73 103 139 174 212 258 310
#     4  10  18  34  55  78 105 133 170 219 268 319
#     4   9  18  34  56  82 112 141 174 222 277 330
#     4  10  21  35  49  68  98 138 181 220 257 303
#     4   9  20  32  52  83 106 139 177 220 267 326
#
# _framework density 17.770413000000001
#
# number of rings (size 3 to 8) (size 9 to 14) (size 15 to 20)
#    0.000    2.333    1.667    1.000    0.000    9.000 
#    0.000    0.833    0.000    3.500    0.000    4.667 
#    0.000    0.000    0.000    0.000    0.000    0.000 
#
# Total GULP energy -1189313.204222 kJ/mol
# GULP energy per Si atom -12388.679211 kJ/mol
# Density = 1.772997 g / cm^3
# Si number density = 17.770413 Si / 1000 Ang^3
#
#
#
# Elastic Constant Matrix: (Units=GPa)
#
#
# Indices 1 2 3 4 5 6 
#
# 1 84.3413 26.8616 39.6473 0.0000 0.0000 0.0000
# 2 26.8616 84.3413 39.6473 0.0000 0.0000 0.0000
# 3 39.6473 39.6473 107.8516 0.0000 0.0000 0.0000
# 4 0.0000 0.0000 0.0000 23.2316 0.0000 0.0000
# 5 0.0000 0.0000 0.0000 0.0000 23.2316 0.0000
# 6 0.0000 0.0000 0.0000 0.0000 0.0000 11.5187
#
#
#
# Elastic Compliance Matrix: (Units=1/GPa)
#
#
# Indices 1 2 3 4 5 6 
#
# 1 0.014792 -0.002605 -0.004480 0.000000 0.000000 0.000000
# 2 -0.002605 0.014792 -0.004480 0.000000 0.000000 0.000000
# 3 -0.004480 -0.004480 0.012566 0.000000 0.000000 0.000000
# 4 0.000000 0.000000 0.000000 0.043045 0.000000 0.000000
# 5 0.000000 0.000000 0.000000 0.000000 0.043045 0.000000
# 6 0.000000 0.000000 0.000000 0.000000 0.000000 0.086815
#
#
# Mechanical properties :
#
#
# Convention : Reuss Voigt Hill
#
# Bulk Modulus (GPa) = 52.57697 54.31628 53.44662
# Shear Modulus (GPa) = 20.44771 22.95492 21.70132
#
# Velocity S-wave (km/s) = 3.39582 3.59799 3.49837
# Velocity P-wave (km/s) = 6.71018 6.92045 6.81612
#
# Compressibility (1/GPa) = 0.01901973
#
# Stress axis : x y z
#
# Youngs Moduli (GPa) = 67.60275 67.60275 79.58066
#
# Poissons Ratio (x) = 0.17611 0.35653
# Poissons Ratio (y) = 0.17611 0.35653
# Poissons Ratio (z) = 0.30287 0.30287
#
# Static dielectric constant tensor:
#      x y z
#    x 3.153400 0.000000 0.000000 
#    y 0.000000 3.153400 0.000000 
#    z 0.000000 0.000000 3.728950 
# 
# 
# High freq. dielectric constant tensor:
#      x y z
#    x 1.670160 0.000000 0.000000 
#    y 0.000000 1.670160 0.000000 
#    z 0.000000 0.000000 1.703320 
# 
# From -- ./inp_files/7884.got.cif
#   From: 2010.03.12/outbox.cif.g09.slc.cpg/sg132_4_cif.got.tgz:7884.got - 2010.04.06 17:53:44.
