data_PCOD8316486
_publ_section_title
;
Structure prediction by ZEFSAII (Michael W. Deem and Ramdas Pophale) SiO2 
 PCOD8316486
Probable space group: P 42/M C M
;
_chemical_formula_sum "Si O2"
_cell_formula_units_Z 96
_cell_length_a 24.807370
_cell_length_b 24.807370
_cell_length_c 8.819855
_cell_angle_alpha 90.000000
_cell_angle_beta 90.000000
_cell_angle_gamma 90.000000
_cell_volume 5427.788214
_symmetry_space_group_name_H-M "P 42/M C M"
_symmetry_group_IT_number 132
_symmetry_cell_setting 'tetragonal'
loop_
_space_group_symop_operation_xyz
x,y,z
-y,x,1/2+z
-x,-y,z
y,-x,1/2+z
x,-y,1/2-z
-x,y,1/2-z
y,x,-z
-y,-x,-z
-x,-y,-z
y,-x,1/2-z
x,y,-z
-y,x,1/2-z
-x,y,1/2+z
x,-y,1/2+z
-y,-x,z
y,x,z
loop_
_atom_site_type_symbol
_atom_site_label
_atom_site_fract_x
_atom_site_fract_y
_atom_site_fract_z
Si Si1 0.267039 0.850608 0.320232
Si Si2 0.555791 0.780029 0.677388
Si Si3 0.058309 0.941692 0.682639
Si Si4 0.555134 0.904581 0.678169
Si Si5 0.053278 0.340569 0.179268
Si Si6 0.146531 0.853470 0.320045
Si Si7 0.335583 0.249720 0.824933
O O1 0.263545 0.846496 0.500000
O O2 0.304716 0.897941 0.261175
O O3 0.207186 0.864391 0.258797
O O4 0.293809 0.795181 0.259053
O O5 0.500000 0.758428 0.750000
O O6 0.550998 0.770798 0.500000
O O7 0.564707 0.842285 0.720868
O O8 0.607630 0.747943 0.738243
O O9 0.054947 0.945054 0.500000
O O10 0.102666 0.897335 0.738941
O O11 0.000000 0.924708 0.750000
O O12 0.500000 0.925309 0.750000
O O13 0.554925 0.914281 0.500000
O O14 0.599987 0.940782 0.755502
O O15 0.000000 0.314124 0.250000
O O16 0.049875 0.342099 0.000000
O O17 0.144299 0.855702 0.500000
O O18 0.307963 0.307963 0.804821
O O19 0.347882 0.236585 0.000000
#
# Coordination Sequence:
#
# PCOD8316486 Si02
#       7
#    16  16   8  16  16   8  16
#     4   9  17  31  51  75 102 131 168 209 253 310
#     4  10  20  33  52  77 109 143 179 222 266 313
#     4  10  20  35  58  80 104 130 164 210 262 323
#     4  10  20  34  52  73  96 128 172 220 266 312
#     4  11  22  35  51  70  97 132 168 214 262 313
#     4   9  17  32  55  82 104 132 168 206 253 309
#     4  10  18  31  55  82 107 139 179 219 259 314
#
# _framework density 17.686761000000001
#
# number of rings (size 3 to 8) (size 9 to 14) (size 15 to 20)
#    0.000    2.083    2.500    2.000    0.000    2.667 
#    0.000    1.667    0.000    5.000    0.000    0.000 
#    0.000    0.333    0.000    3.500    0.000    1.500 
#
# Total GULP energy -1190184.749642 kJ/mol
# GULP energy per Si atom -12397.757809 kJ/mol
# Density = 1.764651 g / cm^3
# Si number density = 17.686761 Si / 1000 Ang^3
#
#
#
# Elastic Constant Matrix: (Units=GPa)
#
#
# Indices 1 2 3 4 5 6 
#
# 1 110.7048 51.5478 28.6310 0.0000 0.0000 0.0000
# 2 51.5478 110.7048 28.6311 0.0000 0.0000 0.0000
# 3 28.6310 28.6311 56.7018 0.0000 0.0000 0.0000
# 4 0.0000 0.0000 0.0000 23.2253 0.0000 0.0000
# 5 0.0000 0.0000 0.0000 0.0000 23.2253 0.0000
# 6 0.0000 0.0000 0.0000 0.0000 0.0000 24.1502
#
#
#
# Elastic Compliance Matrix: (Units=1/GPa)
#
#
# Indices 1 2 3 4 5 6 
#
# 1 0.012202 -0.004702 -0.003787 0.000000 0.000000 0.000000
# 2 -0.004702 0.012202 -0.003787 0.000000 0.000000 0.000000
# 3 -0.003787 -0.003787 0.021460 0.000000 0.000000 0.000000
# 4 0.000000 0.000000 0.000000 0.043057 0.000000 0.000000
# 5 0.000000 0.000000 0.000000 0.000000 0.043057 0.000000
# 6 0.000000 0.000000 0.000000 0.000000 0.000000 0.041408
#
#
# Mechanical properties :
#
#
# Convention : Reuss Voigt Hill
#
# Bulk Modulus (GPa) = 46.92138 55.08123 51.00131
# Shear Modulus (GPa) = 24.38535 25.40691 24.89613
#
# Velocity S-wave (km/s) = 3.71716 3.79422 3.75589
# Velocity P-wave (km/s) = 6.70893 7.09965 6.90705
#
# Compressibility (1/GPa) = 0.02131225
#
# Stress axis : x y z
#
# Youngs Moduli (GPa) = 81.95418 81.95416 46.59732
#
# Poissons Ratio (x) = 0.38537 0.17646
# Poissons Ratio (y) = 0.38537 0.17646
# Poissons Ratio (z) = 0.31035 0.31035
#
# Static dielectric constant tensor:
#      x y z
#    x 3.326060 0.000000 0.000000 
#    y 0.000000 3.326050 0.000000 
#    z 0.000000 0.000000 3.068860 
# 
# 
# High freq. dielectric constant tensor:
#      x y z
#    x 1.676680 0.000000 0.000000 
#    y 0.000000 1.676680 0.000000 
#    z 0.000000 0.000000 1.667780 
# 
# From -- ./inp_files/1851.got.cif
#   From: 2010.03.12/outbox.cif.g09.slc.cpg/sg132_1_cif.got.tgz:1851.got - 2010.04.06 17:53:44.
