data_PCOD8316806
_publ_section_title
;
Structure prediction by ZEFSAII (Michael W. Deem and Ramdas Pophale) SiO2 
 PCOD8316806
Probable space group: P 42/M C M
;
_chemical_formula_sum "Si O2"
_cell_formula_units_Z 48
_cell_length_a 13.741682
_cell_length_b 13.741682
_cell_length_c 14.091360
_cell_angle_alpha 90.000000
_cell_angle_beta 90.000000
_cell_angle_gamma 90.000000
_cell_volume 2660.925397
_symmetry_space_group_name_H-M "P 42/M C M"
_symmetry_group_IT_number 132
_symmetry_cell_setting 'tetragonal'
loop_
_space_group_symop_operation_xyz
x,y,z
-y,x,1/2+z
-x,-y,z
y,-x,1/2+z
x,-y,1/2-z
-x,y,1/2-z
y,x,-z
-y,-x,-z
-x,-y,-z
y,-x,1/2-z
x,y,-z
-y,x,1/2-z
-x,y,1/2+z
x,-y,1/2+z
-y,-x,z
y,x,z
loop_
_atom_site_type_symbol
_atom_site_label
_atom_site_fract_x
_atom_site_fract_y
_atom_site_fract_z
Si Si1 0.654914 0.818005 0.736643
Si Si2 0.486662 0.115316 0.111635
Si Si3 0.080214 0.919787 0.603242
Si Si4 0.225786 0.000000 0.250000
O O1 0.717670 0.717670 0.737946
O O2 0.612178 0.843395 0.841145
O O3 0.571024 0.816587 0.656664
O O4 0.717884 0.909860 0.705533
O O5 0.500000 0.000000 0.135645
O O6 0.482207 0.133365 0.000000
O O7 0.116390 0.883611 0.500000
O O8 0.035943 0.831416 0.659435
O O9 0.000000 0.000000 0.590312
#
# Coordination Sequence:
#
# PCOD8316806 Si02
#       4
#    16  16   8   8
#     4  11  21  36  60  85 116 152 192 239 291 345
#     4  10  21  39  60  84 116 155 198 242 291 345
#     4  11  22  34  48  70 112 164 201 232 275 331
#     4  12  19  35  52  80 118 150 190 238 280 340
#
# _framework density 18.038836
#
# number of rings (size 3 to 8) (size 9 to 14) (size 15 to 20)
#    0.000    1.167    6.667    1.000    0.000    4.000 
#    0.000    0.000    0.000    8.000    0.000    9.333 
#    0.000    0.000    0.000    0.000    0.000    0.000 
#
# Total GULP energy -594789.372680 kJ/mol
# GULP energy per Si atom -12391.445264 kJ/mol
# Density = 1.799778 g / cm^3
# Si number density = 18.038836 Si / 1000 Ang^3
#
#
#
# Elastic Constant Matrix: (Units=GPa)
#
#
# Indices 1 2 3 4 5 6 
#
# 1 97.2691 52.1698 43.0651 0.0000 0.0000 0.0000
# 2 52.1698 97.2691 43.0651 0.0000 0.0000 0.0000
# 3 43.0651 43.0651 146.7125 0.0000 0.0000 0.0000
# 4 0.0000 0.0000 0.0000 39.0427 0.0000 0.0000
# 5 0.0000 0.0000 0.0000 0.0000 39.0427 0.0000
# 6 0.0000 0.0000 0.0000 0.0000 0.0000 22.6130
#
#
#
# Elastic Compliance Matrix: (Units=1/GPa)
#
#
# Indices 1 2 3 4 5 6 
#
# 1 0.015114 -0.007059 -0.002364 0.000000 0.000000 0.000000
# 2 -0.007059 0.015114 -0.002364 0.000000 0.000000 0.000000
# 3 -0.002364 -0.002364 0.008204 0.000000 0.000000 0.000000
# 4 0.000000 0.000000 0.000000 0.025613 0.000000 0.000000
# 5 0.000000 0.000000 0.000000 0.000000 0.025613 0.000000
# 6 0.000000 0.000000 0.000000 0.000000 0.000000 0.044222
#
#
# Mechanical properties :
#
#
# Convention : Reuss Voigt Hill
#
# Bulk Modulus (GPa) = 67.31382 68.65010 67.98196
# Shear Modulus (GPa) = 30.78671 33.66972 32.22822
#
# Velocity S-wave (km/s) = 4.13569 4.32500 4.23141
# Velocity P-wave (km/s) = 7.75902 7.94231 7.85120
#
# Compressibility (1/GPa) = 0.01485579
#
# Stress axis : x y z
#
# Youngs Moduli (GPa) = 66.16462 66.16465 121.89162
#
# Poissons Ratio (x) = 0.46709 0.28818
# Poissons Ratio (y) = 0.46709 0.28818
# Poissons Ratio (z) = 0.15643 0.15643
#
# Static dielectric constant tensor:
#      x y z
#    x 3.807270 0.000000 0.000000 
#    y 0.000000 3.807260 0.000000 
#    z 0.000000 0.000000 2.819910 
# 
# 
# High freq. dielectric constant tensor:
#      x y z
#    x 1.691440 0.000000 0.000000 
#    y 0.000000 1.691440 0.000000 
#    z 0.000000 0.000000 1.704350 
# 
# From -- ./inp_files/4178.got.cif
#   From: 2010.03.12/outbox.cif.g09.slc.cpg/sg132_3_cif.got.tgz:4178.got - 2010.04.06 17:53:44.
