data_PCOD8316939
_publ_section_title
;
Structure prediction by ZEFSAII (Michael W. Deem and Ramdas Pophale) SiO2 
 PCOD8316939
Probable space group: P 42/N B C
;
_chemical_formula_sum "Si O2"
_cell_formula_units_Z 64
_cell_length_a 12.361413
_cell_length_b 12.361413
_cell_length_c 21.423172
_cell_angle_alpha 90.000000
_cell_angle_beta 90.000000
_cell_angle_gamma 90.000000
_cell_volume 3273.557758
_symmetry_space_group_name_H-M "P 42/N B C"
_symmetry_group_IT_number 133
_space_group.IT_coordinate_system_code '2'
_symmetry_cell_setting 'tetragonal'
loop_
_space_group_symop_operation_xyz
x,y,z
1/2-y,x,1/2+z
1/2-x,1/2-y,z
y,1/2-x,1/2+z
x,1/2-y,-z
1/2-x,y,-z
y,x,1/2-z
1/2-y,1/2-x,1/2-z
-x,-y,-z
1/2+y,-x,1/2-z
1/2+x,1/2+y,-z
-y,1/2+x,1/2-z
-x,1/2+y,z
1/2+x,-y,z
-y,-x,1/2+z
1/2+y,1/2+x,1/2+z
loop_
_atom_site_type_symbol
_atom_site_label
_atom_site_fract_x
_atom_site_fract_y
_atom_site_fract_z
Si Si1 0.873392 0.622795 0.996399
Si Si2 0.480811 0.977740 0.399762
Si Si3 0.972771 0.113098 0.712895
Si Si4 0.366095 0.690894 0.675516
O O1 0.922520 0.581815 0.931249
O O2 0.887044 0.750000 0.000000
O O3 0.750000 0.585651 0.000000
O O4 0.934845 0.572505 0.054874
O O5 0.389432 0.888488 0.382545
O O6 0.542459 0.016132 0.336863
O O7 0.870478 0.125553 0.758612
O O8 0.968775 0.225840 0.675501
O O9 0.085122 0.085122 0.750000
O O10 0.250000 0.750000 0.665949
#
# Coordination Sequence:
#
# PCOD8316939 Si02
#       4
#    16  16  16  16
#     4  10  22  42  60  83 123 161 204 252 299 355
#     4  10  23  37  62  89 118 162 205 246 304 360
#     4  10  20  34  57  86 121 154 193 246 306 359
#     4  11  20  37  60  89 123 156 198 254 303 365
#
# _framework density 19.550592999999999
#
# number of rings (size 3 to 8) (size 9 to 14) (size 15 to 20)
#    0.000    1.750    2.500    1.500    3.500    0.000 
#    0.000    0.000    0.000    5.250    0.000    0.000 
#    0.000    0.000    0.000    0.000    0.000    0.000 
#
# Total GULP energy -793052.301627 kJ/mol
# GULP energy per Si atom -12391.442213 kJ/mol
# Density = 1.950610 g / cm^3
# Si number density = 19.550593 Si / 1000 Ang^3
#
#
#
# Elastic Constant Matrix: (Units=GPa)
#
#
# Indices 1 2 3 4 5 6 
#
# 1 104.8061 63.5379 38.5984 0.0000 0.0000 0.0000
# 2 63.5379 104.8061 38.5984 0.0000 0.0000 0.0000
# 3 38.5984 38.5984 85.7661 0.0000 0.0000 0.0000
# 4 0.0000 0.0000 0.0000 22.2127 0.0000 0.0000
# 5 0.0000 0.0000 0.0000 0.0000 22.2127 0.0000
# 6 0.0000 0.0000 0.0000 0.0000 0.0000 32.9712
#
#
#
# Elastic Compliance Matrix: (Units=1/GPa)
#
#
# Indices 1 2 3 4 5 6 
#
# 1 0.015858 -0.008373 -0.003369 0.000000 0.000000 0.000000
# 2 -0.008373 0.015858 -0.003369 0.000000 0.000000 0.000000
# 3 -0.003369 -0.003369 0.014692 0.000000 0.000000 0.000000
# 4 0.000000 0.000000 0.000000 0.045019 0.000000 0.000000
# 5 0.000000 0.000000 0.000000 0.000000 0.045019 0.000000
# 6 0.000000 0.000000 0.000000 0.000000 0.000000 0.030329
#
#
# Mechanical properties :
#
#
# Convention : Reuss Voigt Hill
#
# Bulk Modulus (GPa) = 61.77686 64.09418 62.93552
# Shear Modulus (GPa) = 24.70444 25.78892 25.24668
#
# Velocity S-wave (km/s) = 3.55859 3.63586 3.59744
# Velocity P-wave (km/s) = 6.96792 7.10499 7.03679
#
# Compressibility (1/GPa) = 0.01618729
#
# Stress axis : x y z
#
# Youngs Moduli (GPa) = 63.05837 63.05837 68.06619
#
# Poissons Ratio (x) = 0.52801 0.22928
# Poissons Ratio (y) = 0.52801 0.22928
# Poissons Ratio (z) = 0.21241 0.21241
#
# Static dielectric constant tensor:
#      x y z
#    x 3.701180 0.000000 0.000000 
#    y 0.000000 3.701180 0.000000 
#    z 0.000000 0.000000 3.681440 
# 
# 
# High freq. dielectric constant tensor:
#      x y z
#    x 1.757850 0.000000 0.000000 
#    y 0.000000 1.757850 0.000000 
#    z 0.000000 0.000000 1.771920 
# 
# From -- ./inp_files/6129.got.cif
#   From: 2010.03.12/outbox.cif.g09.slc.cpg/sg133_4_cif.got.tgz:6129.got - 2010.04.06 18:08:06.
