data_PCOD8316723
_publ_section_title
;
Structure prediction by ZEFSAII (Michael W. Deem and Ramdas Pophale) SiO2 
 PCOD8316723
Probable space group: P 42/M C M
;
_chemical_formula_sum "Si O2"
_cell_formula_units_Z 104
_cell_length_a 13.927212
_cell_length_b 13.927212
_cell_length_c 29.375826
_cell_angle_alpha 90.000000
_cell_angle_beta 90.000000
_cell_angle_gamma 90.000000
_cell_volume 5697.947718
_symmetry_space_group_name_H-M "P 42/M C M"
_symmetry_group_IT_number 132
_symmetry_cell_setting 'tetragonal'
loop_
_space_group_symop_operation_xyz
x,y,z
-y,x,1/2+z
-x,-y,z
y,-x,1/2+z
x,-y,1/2-z
-x,y,1/2-z
y,x,-z
-y,-x,-z
-x,-y,-z
y,-x,1/2-z
x,y,-z
-y,x,1/2-z
-x,y,1/2+z
x,-y,1/2+z
-y,-x,z
y,x,z
loop_
_atom_site_type_symbol
_atom_site_label
_atom_site_fract_x
_atom_site_fract_y
_atom_site_fract_z
Si Si1 0.277907 0.878024 0.204939
Si Si2 0.248139 0.905477 0.302860
Si Si3 0.209437 0.628602 0.876968
Si Si4 0.135852 0.286762 0.902435
Si Si5 0.037347 0.607467 0.946172
Si Si6 0.493270 0.345432 0.500000
Si Si7 0.556270 0.291289 0.407115
O O1 0.192859 0.807142 0.193674
O O2 0.310553 0.873310 0.258219
O O3 0.363204 0.850728 0.170280
O O4 0.233312 0.981500 0.195045
O O5 0.143372 0.856629 0.299772
O O6 0.302820 0.875124 0.348356
O O7 0.285620 0.714381 0.884070
O O8 0.135811 0.626932 0.919275
O O9 0.264723 0.526362 0.870895
O O10 0.179142 0.179142 0.913254
O O11 0.214514 0.362808 0.915803
O O12 0.038973 0.310689 0.929973
O O13 0.000000 0.500000 0.934775
O O14 0.055295 0.620061 0.000000
O O15 0.387502 0.387502 0.500000
O O16 0.574060 0.425941 0.500000
O O17 0.501138 0.283874 0.454863
O O18 0.604706 0.395295 0.395565
#
# Coordination Sequence:
#
# PCOD8316723 Si02
#       7
#    16  16  16  16  16   8  16
#     4   9  18  32  52  80 109 140 181 229 278 328
#     4   9  17  32  54  79 108 141 180 230 281 322
#     4  11  22  36  56  81 114 149 183 227 277 334
#     4  10  20  35  57  81 109 147 188 229 271 330
#     4  11  23  38  56  80 113 148 187 235 277 326
#     4   9  18  32  50  75 104 132 174 231 278 319
#     4  10  21  35  53  77 107 144 184 227 276 329
#
# _framework density 18.252185999999998
#
# number of rings (size 3 to 8) (size 9 to 14) (size 15 to 20)
#    0.000    2.077    3.077    0.462    2.154    1.846 
#    0.000    2.308    0.000    3.231    0.000    2.154 
#    0.000   12.308    0.000    0.000    0.000    0.000 
#
# Total GULP energy -1288559.214251 kJ/mol
# GULP energy per Si atom -12389.992445 kJ/mol
# Density = 1.821064 g / cm^3
# Si number density = 18.252186 Si / 1000 Ang^3
#
#
#
# Elastic Constant Matrix: (Units=GPa)
#
#
# Indices 1 2 3 4 5 6 
#
# 1 77.2823 32.2111 36.7086 0.0000 0.0000 0.0000
# 2 32.2111 77.2824 36.7087 0.0000 0.0000 0.0000
# 3 36.7086 36.7087 99.8982 0.0000 0.0000 0.0000
# 4 0.0000 0.0000 0.0000 87.8994 0.0000 0.0000
# 5 0.0000 0.0000 0.0000 0.0000 87.7750 0.0000
# 6 0.0000 0.0000 0.0000 0.0000 0.0000 24.9185
#
#
#
# Elastic Compliance Matrix: (Units=1/GPa)
#
#
# Indices 1 2 3 4 5 6 
#
# 1 0.017153 -0.005034 -0.004453 0.000000 0.000000 0.000000
# 2 -0.005034 0.017153 -0.004453 0.000000 0.000000 0.000000
# 3 -0.004453 -0.004453 0.013283 0.000000 0.000000 0.000000
# 4 0.000000 0.000000 0.000000 0.011377 0.000000 0.000000
# 5 0.000000 0.000000 0.000000 0.000000 0.011393 0.000000
# 6 0.000000 0.000000 0.000000 0.000000 0.000000 0.040131
#
#
# Mechanical properties :
#
#
# Convention : Reuss Voigt Hill
#
# Bulk Modulus (GPa) = 50.74102 51.74661 51.24382
# Shear Modulus (GPa) = 34.49713 50.04088 42.26901
#
# Velocity S-wave (km/s) = 4.35216 5.24175 4.81753
# Velocity P-wave (km/s) = 7.28803 8.06517 7.68643
#
# Compressibility (1/GPa) = 0.01970792
#
# Stress axis : x y z
#
# Youngs Moduli (GPa) = 58.29880 58.29881 75.28444
#
# Poissons Ratio (x) = 0.29348 0.33526
# Poissons Ratio (y) = 0.29348 0.33526
# Poissons Ratio (z) = 0.25962 0.25962
#
# Static dielectric constant tensor:
#      x y z
#    x 3.476300 0.000000 0.000000 
#    y 0.000000 3.476300 0.000000 
#    z 0.000000 0.000000 3.642420 
# 
# 
# High freq. dielectric constant tensor:
#      x y z
#    x 1.701150 0.000000 0.000000 
#    y 0.000000 1.701150 0.000000 
#    z 0.000000 0.000000 1.710960 
# 
# From -- ./inp_files/9134.got.cif
#   From: 2010.03.12/outbox.cif.g09.slc.cpg/sg132_5_cif.got.tgz:9134.got - 2010.04.06 17:53:44.
