data_PCOD8316577
_publ_section_title
;
Structure prediction by ZEFSAII (Michael W. Deem and Ramdas Pophale) SiO2 
 PCOD8316577
Probable space group: P 42/M C M
;
_chemical_formula_sum "Si O2"
_cell_formula_units_Z 112
_cell_length_a 14.208859
_cell_length_b 14.208859
_cell_length_c 28.182841
_cell_angle_alpha 90.000000
_cell_angle_beta 90.000000
_cell_angle_gamma 90.000000
_cell_volume 5689.880950
_symmetry_space_group_name_H-M "P 42/M C M"
_symmetry_group_IT_number 132
_symmetry_cell_setting 'tetragonal'
loop_
_space_group_symop_operation_xyz
x,y,z
-y,x,1/2+z
-x,-y,z
y,-x,1/2+z
x,-y,1/2-z
-x,y,1/2-z
y,x,-z
-y,-x,-z
-x,-y,-z
y,-x,1/2-z
x,y,-z
-y,x,1/2-z
-x,y,1/2+z
x,-y,1/2+z
-y,-x,z
y,x,z
loop_
_atom_site_type_symbol
_atom_site_label
_atom_site_fract_x
_atom_site_fract_y
_atom_site_fract_z
Si Si1 0.773135 0.622164 0.947060
Si Si2 0.626150 0.224365 0.812209
Si Si3 0.701703 0.550132 0.855593
Si Si4 0.893539 0.260365 0.122855
Si Si5 0.964102 0.811536 0.801851
Si Si6 0.336613 0.819488 0.712682
Si Si7 0.010961 0.391858 0.055131
O O1 0.723377 0.723377 0.940311
O O2 0.723551 0.547253 0.911739
O O3 0.881806 0.638505 0.936167
O O4 0.758017 0.581554 0.000000
O O5 0.724733 0.275268 0.805387
O O6 0.552456 0.300896 0.832587
O O7 0.646455 0.141974 0.849426
O O8 0.598957 0.182501 0.760487
O O9 0.603590 0.603590 0.844282
O O10 0.791361 0.601375 0.832292
O O11 0.807963 0.192038 0.104409
O O12 0.949591 0.309691 0.079892
O O13 0.955751 0.195749 0.158169
O O14 0.888674 0.888674 0.819689
O O15 0.921669 0.706440 0.796849
O O16 0.000000 0.843297 0.750000
O O17 0.250979 0.749022 0.718968
O O18 0.000000 0.500000 0.074106
O O19 0.982197 0.389503 0.000000
#
# Coordination Sequence:
#
# PCOD8316577 Si02
#       7
#    16  16  16  16  16  16  16
#     4   9  18  34  56  81 107 137 177 228 285 337
#     4  10  20  35  51  72 109 147 178 224 279 334
#     4  10  19  32  55  81 104 139 181 225 279 340
#     4  11  23  37  55  82 117 153 184 232 295 338
#     4  11  21  36  57  80 109 150 198 235 271 337
#     4   9  18  33  52  75 106 141 178 223 274 323
#     4  10  21  38  61  85 110 146 194 243 284 339
#
# _framework density 19.684066999999999
#
# number of rings (size 3 to 8) (size 9 to 14) (size 15 to 20)
#    0.000    2.000    1.429    2.571    0.000    3.286 
#    0.000    0.000    0.000    3.857    0.000    5.000 
#    0.000    0.000    0.000    0.000    0.000    0.000 
#
# Total GULP energy -1387942.863030 kJ/mol
# GULP energy per Si atom -12392.346991 kJ/mol
# Density = 1.963927 g / cm^3
# Si number density = 19.684067 Si / 1000 Ang^3
#
#
#
# Elastic Constant Matrix: (Units=GPa)
#
#
# Indices 1 2 3 4 5 6 
#
# 1 72.0400 18.4688 26.8142 0.0000 0.0000 0.0000
# 2 18.4688 72.0400 26.8142 0.0000 0.0000 0.0000
# 3 26.8142 26.8142 81.2622 0.0000 0.0000 0.0000
# 4 0.0000 0.0000 0.0000 26.0992 0.0000 0.0000
# 5 0.0000 0.0000 0.0000 0.0000 26.0992 0.0000
# 6 0.0000 0.0000 0.0000 0.0000 0.0000 29.4871
#
#
#
# Elastic Compliance Matrix: (Units=1/GPa)
#
#
# Indices 1 2 3 4 5 6 
#
# 1 0.016200 -0.002466 -0.004532 0.000000 0.000000 0.000000
# 2 -0.002466 0.016200 -0.004532 0.000000 0.000000 0.000000
# 3 -0.004532 -0.004532 0.015297 0.000000 0.000000 0.000000
# 4 0.000000 0.000000 0.000000 0.038315 0.000000 0.000000
# 5 0.000000 0.000000 0.000000 0.000000 0.038315 0.000000
# 6 0.000000 0.000000 0.000000 0.000000 0.000000 0.033913
#
#
# Mechanical properties :
#
#
# Convention : Reuss Voigt Hill
#
# Bulk Modulus (GPa) = 40.58916 41.05963 40.82439
# Shear Modulus (GPa) = 26.38338 26.55345 26.46841
#
# Velocity S-wave (km/s) = 3.66504 3.67683 3.67094
# Velocity P-wave (km/s) = 6.21089 6.23940 6.22516
#
# Compressibility (1/GPa) = 0.02463712
#
# Stress axis : x y z
#
# Youngs Moduli (GPa) = 61.72728 61.72728 65.37419
#
# Poissons Ratio (x) = 0.15225 0.29626
# Poissons Ratio (y) = 0.15225 0.29626
# Poissons Ratio (z) = 0.27973 0.27973
#
# Static dielectric constant tensor:
#      x y z
#    x 3.541170 0.000000 0.000000 
#    y 0.000000 3.541170 0.000000 
#    z 0.000000 0.000000 3.703460 
# 
# 
# High freq. dielectric constant tensor:
#      x y z
#    x 1.756660 0.000000 0.000000 
#    y 0.000000 1.756660 0.000000 
#    z 0.000000 0.000000 1.767250 
# 
# From -- ./inp_files/10084.got.cif
#   From: 2010.03.12/outbox.cif.g09.slc.cpg/sg132_6_cif.got.tgz:10084.got - 2010.04.06 17:53:44.
