data_PCOD8316398
_publ_section_title
;
Structure prediction by ZEFSAII (Michael W. Deem and Ramdas Pophale) SiO2 
 PCOD8316398
Probable space group: P 42/M M C
;
_chemical_formula_sum "Si O2"
_cell_formula_units_Z 80
_cell_length_a 13.516394
_cell_length_b 13.516394
_cell_length_c 26.282645
_cell_angle_alpha 90.000000
_cell_angle_beta 90.000000
_cell_angle_gamma 90.000000
_cell_volume 4801.652812
_symmetry_space_group_name_H-M "P 42/M M C"
_symmetry_group_IT_number 131
_symmetry_cell_setting 'tetragonal'
loop_
_space_group_symop_operation_xyz
x,y,z
-x,-y,z
-y,x,1/2+z
y,-x,1/2+z
-x,y,-z
x,-y,-z
y,x,1/2-z
-y,-x,1/2-z
-x,-y,-z
x,y,-z
y,-x,1/2-z
-y,x,1/2-z
x,-y,z
-x,y,z
-y,-x,1/2+z
y,x,1/2+z
loop_
_atom_site_type_symbol
_atom_site_label
_atom_site_fract_x
_atom_site_fract_y
_atom_site_fract_z
Si Si1 0.734350 0.391020 0.216311
Si Si2 0.116001 0.757476 0.905994
Si Si3 0.883944 0.108212 0.000000
Si Si4 0.112601 0.225360 0.209866
Si Si5 0.293015 0.611523 0.099502
Si Si6 0.614266 0.500000 0.559238
O O1 0.642155 0.357846 0.250000
O O2 0.767887 0.500000 0.232643
O O3 0.828643 0.322700 0.225820
O O4 0.695757 0.388012 0.159441
O O5 0.147417 0.837055 0.948216
O O6 0.133132 0.803621 0.849403
O O7 0.191661 0.667303 0.916149
O O8 0.000000 0.723964 0.912153
O O9 0.000000 0.095868 0.000000
O O10 0.833130 0.000000 0.000000
O O11 0.138773 0.138773 0.250000
O O12 0.000000 0.253424 0.217368
O O13 0.282175 0.500000 0.077697
O O14 0.396078 0.661292 0.079543
O O15 0.500000 0.500000 0.575884
O O16 0.631007 0.500000 0.500000
#
# Coordination Sequence:
#
# PCOD8316398 Si02
#       6
#    16  16   8  16  16   8
#     4   9  18  30  46  69  95 126 160 197 239 280
#     4   9  18  32  50  72  97 125 158 197 243 291
#     4   9  18  32  49  70  95 122 155 194 237 285
#     4   9  18  32  48  70  98 124 156 197 240 289
#     4   9  18  31  47  70  99 126 160 197 235 285
#     4   9  18  30  44  64  94 128 162 192 222 272
#
# _framework density 16.660928999999999
#
# number of rings (size 3 to 8) (size 9 to 14) (size 15 to 20)
#    0.000    3.000    0.000    0.000    2.800    2.000 
#    0.000    6.000    0.000    1.800    0.000    1.400 
#    0.000    0.000    0.000    0.000    0.000    0.000 
#
# Total GULP energy -991272.993516 kJ/mol
# GULP energy per Si atom -12390.912419 kJ/mol
# Density = 1.662301 g / cm^3
# Si number density = 16.660929 Si / 1000 Ang^3
#
#
#
# Elastic Constant Matrix: (Units=GPa)
#
#
# Indices 1 2 3 4 5 6 
#
# 1 96.6622 40.6105 46.2283 0.0000 0.0000 0.0000
# 2 40.6105 96.6619 46.2284 0.0000 0.0000 0.0000
# 3 46.2283 46.2284 78.2849 0.0000 0.0000 0.0000
# 4 0.0000 0.0000 0.0000 21.0777 0.0000 0.0000
# 5 0.0000 0.0000 0.0000 0.0000 21.0777 0.0000
# 6 0.0000 0.0000 0.0000 0.0000 0.0000 14.2382
#
#
#
# Elastic Compliance Matrix: (Units=1/GPa)
#
#
# Indices 1 2 3 4 5 6 
#
# 1 0.014968 -0.002873 -0.007143 0.000000 0.000000 0.000000
# 2 -0.002873 0.014968 -0.007143 0.000000 0.000000 0.000000
# 3 -0.007143 -0.007143 0.021209 0.000000 0.000000 0.000000
# 4 0.000000 0.000000 0.000000 0.047444 0.000000 0.000000
# 5 0.000000 0.000000 0.000000 0.000000 0.047443 0.000000
# 6 0.000000 0.000000 0.000000 0.000000 0.000000 0.070234
#
#
# Mechanical properties :
#
#
# Convention : Reuss Voigt Hill
#
# Bulk Modulus (GPa) = 59.41716 59.74928 59.58322
# Shear Modulus (GPa) = 19.51663 20.51483 20.01573
#
# Velocity S-wave (km/s) = 3.42629 3.51282 3.46982
# Velocity P-wave (km/s) = 7.16886 7.23830 7.20366
#
# Compressibility (1/GPa) = 0.01683015
#
# Stress axis : x y z
#
# Youngs Moduli (GPa) = 66.80896 66.80854 47.14888
#
# Poissons Ratio (x) = 0.19192 0.33676
# Poissons Ratio (y) = 0.19192 0.33676
# Poissons Ratio (z) = 0.47718 0.47719
#
# Static dielectric constant tensor:
#      x y z
#    x 3.195060 0.000000 0.000000 
#    y 0.000000 3.195060 0.000000 
#    z 0.000000 0.000000 3.235160 
# 
# 
# High freq. dielectric constant tensor:
#      x y z
#    x 1.626620 0.000000 0.000000 
#    y 0.000000 1.626620 0.000000 
#    z 0.000000 0.000000 1.651270 
# 
# From -- ./inp_files/13449.got.cif
#   From: 2010.03.12/outbox.cif.g09.slc.cpg/sg131_7_cif.got.tgz:13449.got - 2010.04.06 17:36:35.
