data_PCOD8316769
_publ_section_title
;
Structure prediction by ZEFSAII (Michael W. Deem and Ramdas Pophale) SiO2 
 PCOD8316769
Probable space group: P 42/M C M
;
_chemical_formula_sum "Si O2"
_cell_formula_units_Z 80
_cell_length_a 13.727223
_cell_length_b 13.727223
_cell_length_c 24.445131
_cell_angle_alpha 90.000000
_cell_angle_beta 90.000000
_cell_angle_gamma 90.000000
_cell_volume 4606.358626
_symmetry_space_group_name_H-M "P 42/M C M"
_symmetry_group_IT_number 132
_symmetry_cell_setting 'tetragonal'
loop_
_space_group_symop_operation_xyz
x,y,z
-y,x,1/2+z
-x,-y,z
y,-x,1/2+z
x,-y,1/2-z
-x,y,1/2-z
y,x,-z
-y,-x,-z
-x,-y,-z
y,-x,1/2-z
x,y,-z
-y,x,1/2-z
-x,y,1/2+z
x,-y,1/2+z
-y,-x,z
y,x,z
loop_
_atom_site_type_symbol
_atom_site_label
_atom_site_fract_x
_atom_site_fract_y
_atom_site_fract_z
Si Si1 0.302541 0.850114 0.359247
Si Si2 0.393015 0.954609 0.142495
Si Si3 0.274684 0.427378 0.061051
Si Si4 0.634573 0.215017 0.062400
Si Si5 0.267631 0.109853 0.260897
O O1 0.197095 0.802906 0.375514
O O2 0.387644 0.794760 0.391164
O O3 0.315799 0.843149 0.293512
O O4 0.313014 0.963582 0.374110
O O5 0.394294 0.884295 0.091259
O O6 0.354902 0.894576 0.195017
O O7 0.500000 0.000000 0.154164
O O8 0.381290 0.381290 0.067881
O O9 0.287174 0.542600 0.067661
O O10 0.232070 0.402760 0.000000
O O11 0.728110 0.271891 0.087556
O O12 0.656647 0.188253 0.000000
O O13 0.177136 0.177136 0.280926
O O14 0.227857 0.000000 0.250000
#
# Coordination Sequence:
#
# PCOD8316769 Si02
#       5
#    16  16  16  16  16
#     4   9  18  33  50  74 104 133 168 213 260 306
#     4  11  20  33  53  79 103 138 173 216 265 316
#     4   9  17  31  51  74 102 135 172 211 254 305
#     4  10  21  35  51  75 107 140 174 214 262 312
#     4   9  19  33  51  74 105 135 172 216 260 310
#
# _framework density 17.367296
#
# number of rings (size 3 to 8) (size 9 to 14) (size 15 to 20)
#    0.000    2.400    2.000    0.600    0.000    5.400 
#    0.000    2.000    0.000    1.800    0.000    1.400 
#    0.000    4.800    0.000    0.000    0.000    0.000 
#
# Total GULP energy -991133.310831 kJ/mol
# GULP energy per Si atom -12389.166385 kJ/mol
# Density = 1.732777 g / cm^3
# Si number density = 17.367296 Si / 1000 Ang^3
#
#
#
# Elastic Constant Matrix: (Units=GPa)
#
#
# Indices 1 2 3 4 5 6 
#
# 1 81.5393 53.6441 46.8154 0.0000 0.0000 0.0000
# 2 53.6441 81.5393 46.8154 0.0000 0.0000 0.0000
# 3 46.8154 46.8154 71.6797 0.0000 0.0000 0.0000
# 4 0.0000 0.0000 0.0000 26.6781 0.0000 0.0000
# 5 0.0000 0.0000 0.0000 0.0000 26.6781 0.0000
# 6 0.0000 0.0000 0.0000 0.0000 0.0000 30.5385
#
#
#
# Elastic Compliance Matrix: (Units=1/GPa)
#
#
# Indices 1 2 3 4 5 6 
#
# 1 0.024678 -0.011170 -0.008822 0.000000 0.000000 0.000000
# 2 -0.011170 0.024678 -0.008822 0.000000 0.000000 0.000000
# 3 -0.008822 -0.008822 0.025475 0.000000 0.000000 0.000000
# 4 0.000000 0.000000 0.000000 0.037484 0.000000 0.000000
# 5 0.000000 0.000000 0.000000 0.000000 0.037484 0.000000
# 6 0.000000 0.000000 0.000000 0.000000 0.000000 0.032746
#
#
# Mechanical properties :
#
#
# Convention : Reuss Voigt Hill
#
# Bulk Modulus (GPa) = 58.13404 58.81204 58.47304
# Shear Modulus (GPa) = 20.33282 22.61118 21.47200
#
# Velocity S-wave (km/s) = 3.42534 3.61216 3.51999
# Velocity P-wave (km/s) = 7.01355 7.16478 7.08957
#
# Compressibility (1/GPa) = 0.01720163
#
# Stress axis : x y z
#
# Youngs Moduli (GPa) = 40.52168 40.52168 39.25437
#
# Poissons Ratio (x) = 0.45264 0.34631
# Poissons Ratio (y) = 0.45264 0.34631
# Poissons Ratio (z) = 0.35749 0.35749
#
# Static dielectric constant tensor:
#      x y z
#    x 3.292390 0.000000 0.000000 
#    y 0.000000 3.292390 0.000000 
#    z 0.000000 0.000000 3.314440 
# 
# 
# High freq. dielectric constant tensor:
#      x y z
#    x 1.662760 0.000000 0.000000 
#    y 0.000000 1.662760 0.000000 
#    z 0.000000 0.000000 1.671910 
# 
# From -- ./inp_files/7595.got.cif
#   From: 2010.03.12/outbox.cif.g09.slc.cpg/sg132_4_cif.got.tgz:7595.got - 2010.04.06 17:53:44.
