data_PCOD8316512
_publ_section_title
;
Structure prediction by ZEFSAII (Michael W. Deem and Ramdas Pophale) SiO2 
 PCOD8316512
Probable space group: P 42/M C M
;
_chemical_formula_sum "Si O2"
_cell_formula_units_Z 112
_cell_length_a 20.318261
_cell_length_b 20.318261
_cell_length_c 17.821950
_cell_angle_alpha 90.000000
_cell_angle_beta 90.000000
_cell_angle_gamma 90.000000
_cell_volume 7357.466452
_symmetry_space_group_name_H-M "P 42/M C M"
_symmetry_group_IT_number 132
_symmetry_cell_setting 'tetragonal'
loop_
_space_group_symop_operation_xyz
x,y,z
-y,x,1/2+z
-x,-y,z
y,-x,1/2+z
x,-y,1/2-z
-x,y,1/2-z
y,x,-z
-y,-x,-z
-x,-y,-z
y,-x,1/2-z
x,y,-z
-y,x,1/2-z
-x,y,1/2+z
x,-y,1/2+z
-y,-x,z
y,x,z
loop_
_atom_site_type_symbol
_atom_site_label
_atom_site_fract_x
_atom_site_fract_y
_atom_site_fract_z
Si Si1 0.076743 0.491564 0.167399
Si Si2 0.377119 0.089469 0.587613
Si Si3 0.938094 0.358729 0.411655
Si Si4 0.958800 0.142938 0.323321
Si Si5 0.179324 0.925203 0.083038
Si Si6 0.854328 0.249316 0.667420
Si Si7 0.727517 0.831819 0.668274
O O1 0.109802 0.500000 0.250000
O O2 0.101031 0.547595 0.110711
O O3 0.093048 0.420615 0.132219
O O4 0.000000 0.500000 0.177068
O O5 0.370480 0.098616 0.500000
O O6 0.339802 0.150899 0.626166
O O7 0.349862 0.015885 0.610987
O O8 0.933449 0.371903 0.500000
O O9 0.891184 0.297062 0.391200
O O10 0.923653 0.076348 0.350369
O O11 0.905992 0.197284 0.300994
O O12 0.000000 0.126280 0.250000
O O13 0.999831 0.169754 0.393470
O O14 0.107969 0.892032 0.080425
O O15 0.223923 0.890129 0.144222
O O16 0.212744 0.923248 0.000000
O O17 0.791054 0.208947 0.632161
O O18 0.831574 0.287316 0.742655
O O19 0.761585 0.761585 0.645151
#
# Coordination Sequence:
#
# PCOD8316512 Si02
#       7
#    16  16  16  16  16  16  16
#     4   9  17  30  47  68  90 113 141 172 212 262
#     4  10  19  29  45  68  90 112 139 175 220 267
#     4  10  20  32  47  67  91 116 142 181 228 267
#     4  11  21  33  46  59  75 100 134 178 226 272
#     4  10  20  32  44  58  76  98 128 170 219 269
#     4  10  21  33  46  62  80 108 146 181 215 262
#     4  10  19  32  46  62  84 110 142 177 213 258
#
# _framework density 15.222632000000001
#
# number of rings (size 3 to 8) (size 9 to 14) (size 15 to 20)
#    0.000    2.000    1.429    3.000    0.000    7.000 
#    0.000    2.143    0.000    0.000    0.000    0.000 
#    0.000    0.000    0.000    0.000    0.000    0.714 
#
# Total GULP energy -1387815.164959 kJ/mol
# GULP energy per Si atom -12391.206830 kJ/mol
# Density = 1.518798 g / cm^3
# Si number density = 15.222632 Si / 1000 Ang^3
#
#
#
# Elastic Constant Matrix: (Units=GPa)
#
#
# Indices 1 2 3 4 5 6 
#
# 1 54.3341 15.4133 10.1554 0.0000 0.0000 0.0000
# 2 15.4133 54.3341 10.1554 0.0000 0.0000 0.0000
# 3 10.1554 10.1554 55.1952 0.0000 0.0000 0.0000
# 4 0.0000 0.0000 0.0000 21.4452 0.0000 0.0000
# 5 0.0000 0.0000 0.0000 0.0000 21.4452 0.0000
# 6 0.0000 0.0000 0.0000 0.0000 0.0000 11.9841
#
#
#
# Elastic Compliance Matrix: (Units=1/GPa)
#
#
# Indices 1 2 3 4 5 6 
#
# 1 0.020421 -0.005272 -0.002787 0.000000 0.000000 0.000000
# 2 -0.005272 0.020421 -0.002787 0.000000 0.000000 0.000000
# 3 -0.002787 -0.002787 0.019143 0.000000 0.000000 0.000000
# 4 0.000000 0.000000 0.000000 0.046630 0.000000 0.000000
# 5 0.000000 0.000000 0.000000 0.000000 0.046630 0.000000
# 6 0.000000 0.000000 0.000000 0.000000 0.000000 0.083444
#
#
# Mechanical properties :
#
#
# Convention : Reuss Voigt Hill
#
# Bulk Modulus (GPa) = 26.11495 26.14574 26.13034
# Shear Modulus (GPa) = 18.44012 19.51751 18.97882
#
# Velocity S-wave (km/s) = 3.48424 3.58458 3.53477
# Velocity P-wave (km/s) = 5.77747 5.86047 5.81912
#
# Compressibility (1/GPa) = 0.03829224
#
# Stress axis : x y z
#
# Youngs Moduli (GPa) = 48.96879 48.96879 52.23789
#
# Poissons Ratio (x) = 0.25817 0.14560
# Poissons Ratio (y) = 0.25817 0.14560
# Poissons Ratio (z) = 0.13649 0.13649
#
# Static dielectric constant tensor:
#      x y z
#    x 2.856600 0.000000 0.000000 
#    y 0.000000 2.856600 0.000000 
#    z 0.000000 0.000000 3.013420 
# 
# 
# High freq. dielectric constant tensor:
#      x y z
#    x 1.550950 0.000000 0.000000 
#    y 0.000000 1.550950 0.000000 
#    z 0.000000 0.000000 1.594830 
# 
# From -- ./inp_files/6769.got.cif
#   From: 2010.03.12/outbox.cif.g09.slc.cpg/sg132_4_cif.got.tgz:6769.got - 2010.04.06 17:53:44.
