data_PCOD8316667
_publ_section_title
;
Structure prediction by ZEFSAII (Michael W. Deem and Ramdas Pophale) SiO2 
 PCOD8316667
Probable space group: P 42/M C M
;
_chemical_formula_sum "Si O2"
_cell_formula_units_Z 80
_cell_length_a 17.035958
_cell_length_b 17.035958
_cell_length_c 17.461464
_cell_angle_alpha 90.000000
_cell_angle_beta 90.000000
_cell_angle_gamma 90.000000
_cell_volume 5067.733570
_symmetry_space_group_name_H-M "P 42/M C M"
_symmetry_group_IT_number 132
_symmetry_cell_setting 'tetragonal'
loop_
_space_group_symop_operation_xyz
x,y,z
-y,x,1/2+z
-x,-y,z
y,-x,1/2+z
x,-y,1/2-z
-x,y,1/2-z
y,x,-z
-y,-x,-z
-x,-y,-z
y,-x,1/2-z
x,y,-z
-y,x,1/2-z
-x,y,1/2+z
x,-y,1/2+z
-y,-x,z
y,x,z
loop_
_atom_site_type_symbol
_atom_site_label
_atom_site_fract_x
_atom_site_fract_y
_atom_site_fract_z
Si Si1 0.328348 0.453875 0.825461
Si Si2 0.371112 0.133860 0.589364
Si Si3 0.828622 0.449554 0.409235
Si Si4 0.591403 0.591403 0.590660
Si Si5 0.984025 0.412575 0.660722
Si Si6 0.718073 0.281928 0.091210
O O1 0.299751 0.500000 0.750000
O O2 0.377844 0.377844 0.799819
O O3 0.254382 0.423639 0.874632
O O4 0.384213 0.507131 0.877742
O O5 0.360014 0.129033 0.500000
O O6 0.458543 0.162062 0.610819
O O7 0.308313 0.196564 0.623385
O O8 0.353875 0.047035 0.622244
O O9 0.831972 0.433859 0.500000
O O10 0.894902 0.395838 0.366507
O O11 0.586090 0.586090 0.500000
O O12 0.654834 0.654834 0.618529
O O13 0.000000 0.500000 0.629559
O O14 0.000000 0.406032 0.750000
O O15 0.719583 0.280418 0.000000
#
# Coordination Sequence:
#
# PCOD8316667 Si02
#       6
#    16  16  16   8  16   8
#     4  12  25  37  49  67  93 126 170 221 268 305
#     4   9  16  28  45  67  92 116 149 190 235 288
#     4  10  20  33  50  68  91 123 163 205 248 301
#     4  11  21  36  53  64  86 122 166 217 264 305
#     4   9  18  29  46  68  91 119 152 193 241 291
#     4   9  16  27  46  71  90 116 151 192 240 284
#
# _framework density 15.786149999999999
#
# number of rings (size 3 to 8) (size 9 to 14) (size 15 to 20)
#    0.000    2.000    3.000    1.500    5.600    4.400 
#    0.000    0.000    0.000    0.000    0.000    0.000 
#    0.000    0.000    0.000    0.900    0.400   10.300 
#
# Total GULP energy -991670.393174 kJ/mol
# GULP energy per Si atom -12395.879915 kJ/mol
# Density = 1.575022 g / cm^3
# Si number density = 15.786150 Si / 1000 Ang^3
#
#
#
# Elastic Constant Matrix: (Units=GPa)
#
#
# Indices 1 2 3 4 5 6 
#
# 1 58.9376 69.1900 29.1200 0.0000 0.0000 0.0000
# 2 69.1900 58.9375 29.1202 0.0000 0.0000 0.0000
# 3 29.1200 29.1202 65.1938 0.0000 0.0000 0.0000
# 4 0.0000 0.0000 0.0000 19.8291 0.0000 0.0000
# 5 0.0000 0.0000 0.0000 0.0000 19.8291 0.0000
# 6 0.0000 0.0000 0.0000 0.0000 0.0000 11.2633
#
#
#
# Elastic Compliance Matrix: (Units=1/GPa)
#
#
# Indices 1 2 3 4 5 6 
#
# 1 -0.043872 0.053665 -0.004375 0.000000 0.000000 0.000000
# 2 0.053665 -0.043873 -0.004374 0.000000 0.000000 0.000000
# 3 -0.004375 -0.004374 0.019247 0.000000 0.000000 0.000000
# 4 0.000000 0.000000 0.000000 0.050431 0.000000 0.000000
# 5 0.000000 0.000000 0.000000 0.000000 0.050431 0.000000
# 6 0.000000 0.000000 0.000000 0.000000 0.000000 0.088784
#
#
# Mechanical properties :
#
#
# Convention : Reuss Voigt Hill
#
# Bulk Modulus (GPa) = 46.86995 48.65881 47.76438
# Shear Modulus (GPa) = 130.12094 13.89353 72.00724
#
# Velocity S-wave (km/s) = 9.08880 2.96988 6.76115
# Velocity P-wave (km/s) = 11.82779 6.53077 9.55373
#
# Compressibility (1/GPa) = 0.02133563
#
# Stress axis : x y z
#
# Youngs Moduli (GPa) = -22.79346 -22.79329 51.95725
#
# Poissons Ratio (x) = 1.22321 0.22729
# Poissons Ratio (y) = 1.22322 0.22726
# Poissons Ratio (z) = -0.09971 -0.09970
#
# Static dielectric constant tensor:
#      x y z
#    x 3.031240 0.000000 0.000000 
#    y 0.000000 3.031240 0.000000 
#    z 0.000000 0.000000 2.955090 
# 
# 
# High freq. dielectric constant tensor:
#      x y z
#    x 1.575080 0.000000 0.000000 
#    y 0.000000 1.575080 0.000000 
#    z 0.000000 0.000000 1.613170 
# 
# From -- ./inp_files/6381.got.cif
#   From: 2010.03.12/outbox.cif.g09.slc.cpg/sg132_4_cif.got.tgz:6381.got - 2010.04.06 17:53:44.
