data_PCOD8316822
_publ_section_title
;
Structure prediction by ZEFSAII (Michael W. Deem and Ramdas Pophale) SiO2 
 PCOD8316822
Probable space group: P 42/M C M
;
_chemical_formula_sum "Si O2"
_cell_formula_units_Z 32
_cell_length_a 9.207172
_cell_length_b 9.207172
_cell_length_c 16.691568
_cell_angle_alpha 90.000000
_cell_angle_beta 90.000000
_cell_angle_gamma 90.000000
_cell_volume 1414.977874
_symmetry_space_group_name_H-M "P 42/M C M"
_symmetry_group_IT_number 132
_symmetry_cell_setting 'tetragonal'
loop_
_space_group_symop_operation_xyz
x,y,z
-y,x,1/2+z
-x,-y,z
y,-x,1/2+z
x,-y,1/2-z
-x,y,1/2-z
y,x,-z
-y,-x,-z
-x,-y,-z
y,-x,1/2-z
x,y,-z
-y,x,1/2-z
-x,y,1/2+z
x,-y,1/2+z
-y,-x,z
y,x,z
loop_
_atom_site_type_symbol
_atom_site_label
_atom_site_fract_x
_atom_site_fract_y
_atom_site_fract_z
Si Si1 0.568985 0.201510 0.408199
Si Si2 0.933920 0.299206 0.162053
O O1 0.517486 0.211353 0.500000
O O2 0.651640 0.348361 0.382397
O O3 0.430154 0.181271 0.350792
O O4 0.680207 0.065419 0.400337
O O5 0.854492 0.145509 0.148245
O O6 0.000000 0.308089 0.250000
#
# Coordination Sequence:
#
# PCOD8316822 Si02
#       2
#    16  16
#     4  10  22  40  63  92 123 156 198 248 302 359
#     4  11  23  39  60  87 122 162 202 246 296 353
#
# _framework density 22.615195
#
# number of rings (size 3 to 8) (size 9 to 14) (size 15 to 20)
#    0.000    1.500    0.000    7.500    0.000    8.500 
#    0.000    5.000    0.000   12.000    0.000    0.000 
#    0.000    0.000    0.000    0.000    0.000    0.000 
#
# Total GULP energy -396714.344789 kJ/mol
# GULP energy per Si atom -12397.323275 kJ/mol
# Density = 2.256372 g / cm^3
# Si number density = 22.615195 Si / 1000 Ang^3
#
#
#
# Elastic Constant Matrix: (Units=GPa)
#
#
# Indices 1 2 3 4 5 6 
#
# 1 53.9642 38.9316 20.7298 0.0000 0.0000 0.0000
# 2 38.9316 53.9642 20.7298 0.0000 0.0000 0.0000
# 3 20.7298 20.7298 48.9236 0.0000 0.0000 0.0000
# 4 0.0000 0.0000 0.0000 13.0538 0.0000 0.0000
# 5 0.0000 0.0000 0.0000 0.0000 13.0538 0.0000
# 6 0.0000 0.0000 0.0000 0.0000 0.0000 58.7927
#
#
#
# Elastic Compliance Matrix: (Units=1/GPa)
#
#
# Indices 1 2 3 4 5 6 
#
# 1 0.039899 -0.026623 -0.005625 0.000000 0.000000 0.000000
# 2 -0.026623 0.039899 -0.005625 0.000000 0.000000 0.000000
# 3 -0.005625 -0.005625 0.025207 0.000000 0.000000 0.000000
# 4 0.000000 0.000000 0.000000 0.076606 0.000000 0.000000
# 5 0.000000 0.000000 0.000000 0.000000 0.076606 0.000000
# 6 0.000000 0.000000 0.000000 0.000000 0.000000 0.017009
#
#
# Mechanical properties :
#
#
# Convention : Reuss Voigt Hill
#
# Bulk Modulus (GPa) = 34.17934 35.29270 34.73602
# Shear Modulus (GPa) = 13.86100 22.07744 17.96922
#
# Velocity S-wave (km/s) = 2.47838 3.12784 2.82186
# Velocity P-wave (km/s) = 4.83074 5.35576 5.10001
#
# Compressibility (1/GPa) = 0.02925744
#
# Stress axis : x y z
#
# Youngs Moduli (GPa) = 25.06351 25.06351 39.67193
#
# Poissons Ratio (x) = 0.66728 0.22315
# Poissons Ratio (y) = 0.66728 0.22315
# Poissons Ratio (z) = 0.14098 0.14098
#
# Static dielectric constant tensor:
#      x y z
#    x 4.184670 0.000000 0.000000 
#    y 0.000000 4.184670 0.000000 
#    z 0.000000 0.000000 3.951980 
# 
# 
# High freq. dielectric constant tensor:
#      x y z
#    x 1.887860 0.000000 0.000000 
#    y 0.000000 1.887860 0.000000 
#    z 0.000000 0.000000 1.887360 
# 
# From -- ./inp_files/6953.got.cif
#   From: 2010.03.12/outbox.cif.g09.slc.cpg/sg132_4_cif.got.tgz:6953.got - 2010.04.06 17:53:44.
