data_PCOD8316336
_publ_section_title
;
Structure prediction by ZEFSAII (Michael W. Deem and Ramdas Pophale) SiO2 
 PCOD8316336
Probable space group: P 42/M M C
;
_chemical_formula_sum "Si O2"
_cell_formula_units_Z 56
_cell_length_a 12.384788
_cell_length_b 12.384788
_cell_length_c 19.673524
_cell_angle_alpha 90.000000
_cell_angle_beta 90.000000
_cell_angle_gamma 90.000000
_cell_volume 3017.583616
_symmetry_space_group_name_H-M "P 42/M M C"
_symmetry_group_IT_number 131
_symmetry_cell_setting 'tetragonal'
loop_
_space_group_symop_operation_xyz
x,y,z
-x,-y,z
-y,x,1/2+z
y,-x,1/2+z
-x,y,-z
x,-y,-z
y,x,1/2-z
-y,-x,1/2-z
-x,-y,-z
x,y,-z
y,-x,1/2-z
-y,x,1/2-z
x,-y,z
-x,y,z
-y,-x,1/2+z
y,x,1/2+z
loop_
_atom_site_type_symbol
_atom_site_label
_atom_site_fract_x
_atom_site_fract_y
_atom_site_fract_z
Si Si1 0.185521 0.267032 0.373236
Si Si2 0.379742 0.381023 0.669451
Si Si3 0.121070 0.121070 0.250000
Si Si4 0.872209 0.876375 0.500000
Si Si5 0.876419 0.500000 0.574750
O O1 0.313119 0.281949 0.361552
O O2 0.131965 0.211761 0.307783
O O3 0.170306 0.186999 0.435256
O O4 0.143476 0.389177 0.383521
O O5 0.375829 0.375829 0.750000
O O6 0.336109 0.500000 0.645793
O O7 0.500000 0.365965 0.641993
O O8 0.000000 0.133810 0.218856
O O9 0.000000 0.873954 0.500000
O O10 0.829831 0.000000 0.500000
O O11 0.816537 0.500000 0.500000
O O12 0.000000 0.500000 0.557488
#
# Coordination Sequence:
#
# PCOD8316336 Si02
#       5
#    16  16   8   8   8
#     4  12  21  37  62  87 120 154 198 252 302 353
#     4   9  18  35  58  86 119 153 189 232 289 354
#     4  11  24  40  58  85 122 162 204 247 296 362
#     4  11  24  41  60  81 112 161 207 242 294 364
#     4  11  22  36  57  89 123 152 190 251 311 354
#
# _framework density 18.557893
#
# number of rings (size 3 to 8) (size 9 to 14) (size 15 to 20)
#    0.000    1.286    4.286    4.286    0.000    2.286 
#    0.000    0.714    0.000    6.000    0.000    0.000 
#    0.000    0.000    0.000    0.000    0.000    0.000 
#
# Total GULP energy -693893.730705 kJ/mol
# GULP energy per Si atom -12390.959477 kJ/mol
# Density = 1.851565 g / cm^3
# Si number density = 18.557893 Si / 1000 Ang^3
#
#
#
# Elastic Constant Matrix: (Units=GPa)
#
#
# Indices 1 2 3 4 5 6 
#
# 1 129.5077 62.2498 50.0074 0.0000 0.0000 0.0000
# 2 62.2498 129.5077 50.0074 0.0000 0.0000 0.0000
# 3 50.0074 50.0074 99.3295 0.0000 0.0000 0.0000
# 4 0.0000 0.0000 0.0000 16.3753 0.0000 0.0000
# 5 0.0000 0.0000 0.0000 0.0000 16.3753 0.0000
# 6 0.0000 0.0000 0.0000 0.0000 0.0000 34.0465
#
#
#
# Elastic Compliance Matrix: (Units=1/GPa)
#
#
# Indices 1 2 3 4 5 6 
#
# 1 0.010970 -0.003898 -0.003560 0.000000 0.000000 0.000000
# 2 -0.003898 0.010970 -0.003560 0.000000 0.000000 0.000000
# 3 -0.003560 -0.003560 0.013652 0.000000 0.000000 0.000000
# 4 0.000000 0.000000 0.000000 0.061067 0.000000 0.000000
# 5 0.000000 0.000000 0.000000 0.000000 0.061067 0.000000
# 6 0.000000 0.000000 0.000000 0.000000 0.000000 0.029372
#
#
# Mechanical properties :
#
#
# Convention : Reuss Voigt Hill
#
# Bulk Modulus (GPa) = 73.77448 75.87488 74.82468
# Shear Modulus (GPa) = 23.40224 26.43145 24.91684
#
# Velocity S-wave (km/s) = 3.55496 3.77804 3.66820
# Velocity P-wave (km/s) = 7.52930 7.74634 7.63859
#
# Compressibility (1/GPa) = 0.01355482
#
# Stress axis : x y z
#
# Youngs Moduli (GPa) = 91.15758 91.15758 73.24713
#
# Poissons Ratio (x) = 0.35534 0.26078
# Poissons Ratio (y) = 0.35534 0.26078
# Poissons Ratio (z) = 0.32455 0.32455
#
# Static dielectric constant tensor:
#      x y z
#    x 3.754280 0.000000 0.000000 
#    y 0.000000 3.754280 0.000000 
#    z 0.000000 0.000000 3.458040 
# 
# 
# High freq. dielectric constant tensor:
#      x y z
#    x 1.725590 0.000000 0.000000 
#    y 0.000000 1.725590 0.000000 
#    z 0.000000 0.000000 1.712090 
# 
# From -- ./inp_files/9085.got.cif
#   From: 2010.03.12/outbox.cif.g09.slc.cpg/sg131_5_cif.got.tgz:9085.got - 2010.04.06 17:36:35.
