data_PCOD8316390
_publ_section_title
;
Structure prediction by ZEFSAII (Michael W. Deem and Ramdas Pophale) SiO2 
 PCOD8316390
Probable space group: P 42/M M C
;
_chemical_formula_sum "Si O2"
_cell_formula_units_Z 96
_cell_length_a 18.598979
_cell_length_b 18.598979
_cell_length_c 17.112979
_cell_angle_alpha 90.000000
_cell_angle_beta 90.000000
_cell_angle_gamma 90.000000
_cell_volume 5919.756261
_symmetry_space_group_name_H-M "P 42/M M C"
_symmetry_group_IT_number 131
_symmetry_cell_setting 'tetragonal'
loop_
_space_group_symop_operation_xyz
x,y,z
-x,-y,z
-y,x,1/2+z
y,-x,1/2+z
-x,y,-z
x,-y,-z
y,x,1/2-z
-y,-x,1/2-z
-x,-y,-z
x,y,-z
y,-x,1/2-z
-y,x,1/2-z
x,-y,z
-x,y,z
-y,-x,1/2+z
y,x,1/2+z
loop_
_atom_site_type_symbol
_atom_site_label
_atom_site_fract_x
_atom_site_fract_y
_atom_site_fract_z
Si Si1 0.849748 0.080179 0.321655
Si Si2 0.918689 0.198391 0.587106
Si Si3 0.415214 0.292775 0.410632
Si Si4 0.294982 0.919732 0.769094
Si Si5 0.418582 0.353810 0.175674
Si Si6 0.230886 0.654291 0.237811
O O1 0.902543 0.097458 0.250000
O O2 0.864098 0.134055 0.392936
O O3 0.767890 0.087955 0.294265
O O4 0.865554 0.000000 0.351203
O O5 0.902033 0.225544 0.500000
O O6 0.908061 0.265810 0.643628
O O7 0.000000 0.168719 0.595469
O O8 0.399744 0.269386 0.500000
O O9 0.500000 0.291676 0.392703
O O10 0.383238 0.372516 0.397072
O O11 0.373995 0.239872 0.350966
O O12 0.349970 0.854476 0.754301
O O13 0.330306 0.000000 0.761770
O O14 0.405458 0.405458 0.250000
O O15 0.500000 0.355552 0.147948
O O16 0.397207 0.272712 0.201383
O O17 0.265196 0.734805 0.250000
#
# Coordination Sequence:
#
# PCOD8316390 Si02
#       6
#    16  16  16  16  16  16
#     4   9  16  25  37  54  77 107 143 182 225 275
#     4   9  17  27  39  57  80 105 136 179 230 282
#     4   9  18  31  48  72  99 126 152 178 215 263
#     4   9  17  30  46  62  82 112 154 199 237 271
#     4   9  17  28  44  68  97 127 157 184 213 257
#     4   9  16  29  48  67  89 121 158 193 228 268
#
# _framework density 16.216885000000001
#
# number of rings (size 3 to 8) (size 9 to 14) (size 15 to 20)
#    0.000    3.333    0.000    5.000    0.000    3.000 
#    0.000    9.167    0.000    3.500    0.000    1.167 
#    0.000    0.000    0.000   22.667    0.000    0.000 
#
# Total GULP energy -1189673.536802 kJ/mol
# GULP energy per Si atom -12392.432675 kJ/mol
# Density = 1.617997 g / cm^3
# Si number density = 16.216885 Si / 1000 Ang^3
#
#
#
# Elastic Constant Matrix: (Units=GPa)
#
#
# Indices 1 2 3 4 5 6 
#
# 1 87.4724 34.5630 36.7805 0.0000 0.0000 0.0000
# 2 34.5630 87.4717 36.7798 0.0000 0.0000 0.0000
# 3 36.7805 36.7798 94.9588 0.0000 0.0000 0.0000
# 4 0.0000 0.0000 0.0000 14.4380 0.0000 0.0000
# 5 0.0000 0.0000 0.0000 0.0000 14.4381 0.0000
# 6 0.0000 0.0000 0.0000 0.0000 0.0000 11.8497
#
#
#
# Elastic Compliance Matrix: (Units=1/GPa)
#
#
# Indices 1 2 3 4 5 6 
#
# 1 0.014795 -0.004105 -0.004141 0.000000 0.000000 0.000000
# 2 -0.004105 0.014795 -0.004141 0.000000 0.000000 0.000000
# 3 -0.004141 -0.004141 0.013738 0.000000 0.000000 0.000000
# 4 0.000000 0.000000 0.000000 0.069262 0.000000 0.000000
# 5 0.000000 0.000000 0.000000 0.000000 0.069261 0.000000
# 6 0.000000 0.000000 0.000000 0.000000 0.000000 0.084390
#
#
# Mechanical properties :
#
#
# Convention : Reuss Voigt Hill
#
# Bulk Modulus (GPa) = 53.88969 54.01664 53.95317
# Shear Modulus (GPa) = 16.82366 18.93046 17.87706
#
# Velocity S-wave (km/s) = 3.22439 3.42033 3.32380
# Velocity P-wave (km/s) = 6.86768 6.99853 6.93341
#
# Compressibility (1/GPa) = 0.01855643
#
# Stress axis : x y z
#
# Youngs Moduli (GPa) = 67.58907 67.58888 72.78842
#
# Poissons Ratio (x) = 0.27746 0.30139
# Poissons Ratio (y) = 0.27746 0.30139
# Poissons Ratio (z) = 0.27987 0.27986
#
# Static dielectric constant tensor:
#      x y z
#    x 2.903730 0.000000 0.000000 
#    y 0.000000 2.903740 0.000000 
#    z 0.000000 0.000000 3.011460 
# 
# 
# High freq. dielectric constant tensor:
#      x y z
#    x 1.602740 0.000000 0.000000 
#    y 0.000000 1.602740 0.000000 
#    z 0.000000 0.000000 1.613220 
# 
# From -- ./inp_files/8242.got.cif
#   From: 2010.03.12/outbox.cif.g09.slc.cpg/sg131_5_cif.got.tgz:8242.got - 2010.04.06 17:36:35.
