data_PCOD8316342
_publ_section_title
;
Structure prediction by ZEFSAII (Michael W. Deem and Ramdas Pophale) SiO2 
 PCOD8316342
Probable space group: P 42/M M C
;
_chemical_formula_sum "Si O2"
_cell_formula_units_Z 96
_cell_length_a 15.417138
_cell_length_b 15.417138
_cell_length_c 20.012245
_cell_angle_alpha 90.000000
_cell_angle_beta 90.000000
_cell_angle_gamma 90.000000
_cell_volume 4756.673374
_symmetry_space_group_name_H-M "P 42/M M C"
_symmetry_group_IT_number 131
_symmetry_cell_setting 'tetragonal'
loop_
_space_group_symop_operation_xyz
x,y,z
-x,-y,z
-y,x,1/2+z
y,-x,1/2+z
-x,y,-z
x,-y,-z
y,x,1/2-z
-y,-x,1/2-z
-x,-y,-z
x,y,-z
y,-x,1/2-z
-y,x,1/2-z
x,-y,z
-x,y,z
-y,-x,1/2+z
y,x,1/2+z
loop_
_atom_site_type_symbol
_atom_site_label
_atom_site_fract_x
_atom_site_fract_y
_atom_site_fract_z
Si Si1 0.149433 0.599117 0.577014
Si Si2 0.594756 0.691884 0.300144
Si Si3 0.724959 0.161198 0.316089
Si Si4 0.352426 0.401392 0.574645
Si Si5 0.595012 0.898176 0.426076
Si Si6 0.747421 0.904250 0.175555
O O1 0.128034 0.624950 0.500000
O O2 0.118929 0.500000 0.589868
O O3 0.251184 0.607058 0.590763
O O4 0.101965 0.662217 0.629008
O O5 0.611802 0.611802 0.250000
O O6 0.500000 0.731209 0.284187
O O7 0.670359 0.759699 0.286637
O O8 0.594367 0.660281 0.376573
O O9 0.675661 0.126383 0.380383
O O10 0.823341 0.187503 0.337981
O O11 0.725375 0.093805 0.254782
O O12 0.372455 0.369316 0.500000
O O13 0.383095 0.500000 0.583793
O O14 0.612425 0.859746 0.500000
O O15 0.500000 0.864407 0.399754
O O16 0.590583 0.000000 0.430438
O O17 0.788914 0.000000 0.160350
#
# Coordination Sequence:
#
# PCOD8316342 Si02
#       6
#    16  16  16  16  16  16
#     4   9  18  35  58  83 115 153 197 252 304 350
#     4  12  23  36  54  79 114 157 200 244 297 356
#     4  11  22  41  59  86 119 155 195 255 311 362
#     4   9  18  34  54  76 109 153 199 246 290 340
#     4   9  19  37  63  95 126 157 196 241 294 358
#     4  11  23  39  61  85 112 152 201 250 307 369
#
# _framework density 20.182172000000001
#
# number of rings (size 3 to 8) (size 9 to 14) (size 15 to 20)
#    0.000    1.833    3.333    3.000    0.000    6.167 
#    0.000    1.667    0.000    8.500    0.000    1.167 
#    0.000    0.000    0.000    0.000    0.000    0.000 
#
# Total GULP energy -1189531.711286 kJ/mol
# GULP energy per Si atom -12390.955326 kJ/mol
# Density = 2.013624 g / cm^3
# Si number density = 20.182172 Si / 1000 Ang^3
#
#
#
# Elastic Constant Matrix: (Units=GPa)
#
#
# Indices 1 2 3 4 5 6 
#
# 1 98.6749 30.2892 34.7994 0.0000 0.0000 0.0000
# 2 30.2892 98.6749 34.7994 0.0000 0.0000 0.0000
# 3 34.7994 34.7994 102.6864 0.0000 0.0000 0.0000
# 4 0.0000 0.0000 0.0000 8.3174 0.0000 0.0000
# 5 0.0000 0.0000 0.0000 0.0000 8.3174 0.0000
# 6 0.0000 0.0000 0.0000 0.0000 0.0000 -20.8426
#
#
#
# Elastic Compliance Matrix: (Units=1/GPa)
#
#
# Indices 1 2 3 4 5 6 
#
# 1 0.012056 -0.002567 -0.003216 0.000000 0.000000 0.000000
# 2 -0.002567 0.012056 -0.003216 0.000000 0.000000 0.000000
# 3 -0.003216 -0.003216 0.011918 0.000000 0.000000 0.000000
# 4 0.000000 0.000000 0.000000 0.120230 0.000000 0.000000
# 5 0.000000 0.000000 0.000000 0.000000 0.120230 0.000000
# 6 0.000000 0.000000 0.000000 0.000000 0.000000 -0.047979
#
#
# Mechanical properties :
#
#
# Convention : Reuss Voigt Hill
#
# Bulk Modulus (GPa) = 55.45199 55.53469 55.49334
# Shear Modulus (GPa) = 19.80034 12.50163 16.15099
#
# Velocity S-wave (km/s) = 3.13562 2.49155 2.83196
# Velocity P-wave (km/s) = 6.37533 5.98778 6.18459
#
# Compressibility (1/GPa) = 0.01803362
#
# Stress axis : x y z
#
# Youngs Moduli (GPa) = 82.94413 82.94413 83.90591
#
# Poissons Ratio (x) = 0.21289 0.26984
# Poissons Ratio (y) = 0.21289 0.26984
# Poissons Ratio (z) = 0.26675 0.26675
#
# Static dielectric constant tensor:
#      x y z
#    x 3.606650 0.000000 0.000000 
#    y 0.000000 3.606650 0.000000 
#    z 0.000000 0.000000 3.895150 
# 
# 
# High freq. dielectric constant tensor:
#      x y z
#    x 1.770900 0.000000 0.000000 
#    y 0.000000 1.770900 0.000000 
#    z 0.000000 0.000000 1.799760 
# 
# From -- ./inp_files/9714.got.cif
#   From: 2010.03.12/outbox.cif.g09.slc.cpg/sg131_5_cif.got.tgz:9714.got - 2010.04.06 17:36:35.
