data_PCOD8316290
_publ_section_title
;
Structure prediction by ZEFSAII (Michael W. Deem and Ramdas Pophale) SiO2 
 PCOD8316290
Probable space group: P 42/M M C
;
_chemical_formula_sum "Si O2"
_cell_formula_units_Z 56
_cell_length_a 17.320158
_cell_length_b 17.320158
_cell_length_c 9.589840
_cell_angle_alpha 90.000000
_cell_angle_beta 90.000000
_cell_angle_gamma 90.000000
_cell_volume 2876.835705
_symmetry_space_group_name_H-M "P 42/M M C"
_symmetry_group_IT_number 131
_symmetry_cell_setting 'tetragonal'
loop_
_space_group_symop_operation_xyz
x,y,z
-x,-y,z
-y,x,1/2+z
y,-x,1/2+z
-x,y,-z
x,-y,-z
y,x,1/2-z
-y,-x,1/2-z
-x,-y,-z
x,y,-z
y,-x,1/2-z
-y,x,1/2-z
x,-y,z
-x,y,z
-y,-x,1/2+z
y,x,1/2+z
loop_
_atom_site_type_symbol
_atom_site_label
_atom_site_fract_x
_atom_site_fract_y
_atom_site_fract_z
Si Si1 0.138972 0.339832 0.337120
Si Si2 0.835117 0.164884 0.750000
Si Si3 0.000000 0.591315 0.162597
Si Si4 0.089163 0.913948 0.000000
Si Si5 0.588969 0.696842 0.839229
O O1 0.115271 0.346053 0.500000
O O2 0.151807 0.252014 0.295631
O O3 0.074455 0.375348 0.238850
O O4 0.216139 0.387005 0.304949
O O5 0.890942 0.140320 0.872325
O O6 0.000000 0.500000 0.178432
O O7 0.000000 0.616038 0.000000
O O8 0.000000 0.930785 0.000000
O O9 0.129967 0.000000 0.000000
O O10 0.637163 0.637163 0.750000
O O11 0.500000 0.686415 0.799674
O O12 0.605008 0.677969 0.000000
#
# Coordination Sequence:
#
# PCOD8316290 Si02
#       5
#    16   8   8   8  16
#     4  11  24  42  67  98 133 174 218 270 332 395
#     4  12  24  39  68  98 125 172 230 268 322 386
#     4  11  27  45  67  99 134 173 220 275 332 393
#     4  11  26  44  62  90 134 176 217 272 328 382
#     4  10  22  41  65  93 128 169 214 263 323 393
#
# _framework density 19.465831999999999
#
# number of rings (size 3 to 8) (size 9 to 14) (size 15 to 20)
#    0.000    1.143    2.857    2.143    6.000    5.429 
#    0.000    1.429    0.000    0.000    0.000    0.000 
#    0.000    0.000    0.000    0.000    0.000    0.000 
#
# Total GULP energy -694457.713087 kJ/mol
# GULP energy per Si atom -12401.030591 kJ/mol
# Density = 1.942153 g / cm^3
# Si number density = 19.465832 Si / 1000 Ang^3
#
#
#
# Elastic Constant Matrix: (Units=GPa)
#
#
# Indices 1 2 3 4 5 6 
#
# 1 125.4337 80.4622 81.9094 0.0000 0.0000 0.0000
# 2 80.4622 125.4314 81.9075 0.0000 0.0000 0.0000
# 3 81.9094 81.9075 140.6877 0.0000 0.0000 0.0000
# 4 0.0000 0.0000 0.0000 42.1151 0.0000 0.0000
# 5 0.0000 0.0000 0.0000 0.0000 42.1149 0.0000
# 6 0.0000 0.0000 0.0000 0.0000 0.0000 41.7756
#
#
#
# Elastic Compliance Matrix: (Units=1/GPa)
#
#
# Indices 1 2 3 4 5 6 
#
# 1 0.015642 -0.006594 -0.005268 0.000000 0.000000 0.000000
# 2 -0.006594 0.015642 -0.005268 0.000000 0.000000 0.000000
# 3 -0.005268 -0.005268 0.013242 0.000000 0.000000 0.000000
# 4 0.000000 0.000000 0.000000 0.023744 0.000000 0.000000
# 5 0.000000 0.000000 0.000000 0.000000 0.023745 0.000000
# 6 0.000000 0.000000 0.000000 0.000000 0.000000 0.023937
#
#
# Mechanical properties :
#
#
# Convention : Reuss Voigt Hill
#
# Bulk Modulus (GPa) = 97.40182 97.79012 97.59597
# Shear Modulus (GPa) = 32.54458 35.01937 33.78198
#
# Velocity S-wave (km/s) = 4.09330 4.24608 4.17039
# Velocity P-wave (km/s) = 8.51388 8.62466 8.56945
#
# Compressibility (1/GPa) = 0.01026675
#
# Stress axis : x y z
#
# Youngs Moduli (GPa) = 63.92843 63.92846 75.51860
#
# Poissons Ratio (x) = 0.42157 0.39783
# Poissons Ratio (y) = 0.42157 0.39781
# Poissons Ratio (z) = 0.33677 0.33675
#
# Static dielectric constant tensor:
#      x y z
#    x 3.663950 0.000000 0.000000 
#    y 0.000000 3.663890 0.000000 
#    z 0.000000 0.000000 3.816300 
# 
# 
# High freq. dielectric constant tensor:
#      x y z
#    x 1.771860 0.000000 0.000000 
#    y 0.000000 1.771860 0.000000 
#    z 0.000000 0.000000 1.771170 
# 
# From -- ./inp_files/1281.got.cif
#   From: 2010.03.12/outbox.cif.g09.slc.cpg/sg131_1_cif.got.tgz:1281.got - 2010.04.06 17:36:35.
