data_PCOD8316663
_publ_section_title
;
Structure prediction by ZEFSAII (Michael W. Deem and Ramdas Pophale) SiO2 
 PCOD8316663
Probable space group: P 42/M C M
;
_chemical_formula_sum "Si O2"
_cell_formula_units_Z 96
_cell_length_a 25.461969
_cell_length_b 25.461969
_cell_length_c 9.192145
_cell_angle_alpha 90.000000
_cell_angle_beta 90.000000
_cell_angle_gamma 90.000000
_cell_volume 5959.376672
_symmetry_space_group_name_H-M "P 42/M C M"
_symmetry_group_IT_number 132
_symmetry_cell_setting 'tetragonal'
loop_
_space_group_symop_operation_xyz
x,y,z
-y,x,1/2+z
-x,-y,z
y,-x,1/2+z
x,-y,1/2-z
-x,y,1/2-z
y,x,-z
-y,-x,-z
-x,-y,-z
y,-x,1/2-z
x,y,-z
-y,x,1/2-z
-x,y,1/2+z
x,-y,1/2+z
-y,-x,z
y,x,z
loop_
_atom_site_type_symbol
_atom_site_label
_atom_site_fract_x
_atom_site_fract_y
_atom_site_fract_z
Si Si1 0.346915 0.183812 0.663885
Si Si2 0.551836 0.192934 0.334284
Si Si3 0.755085 0.157911 0.667362
Si Si4 0.759676 0.949758 0.331198
Si Si5 0.451800 0.932093 0.341576
Si Si6 0.640355 0.061042 0.845427
O O1 0.340739 0.207900 0.500000
O O2 0.395290 0.211922 0.749485
O O3 0.292729 0.188651 0.754317
O O4 0.360020 0.123396 0.649333
O O5 0.500000 0.214174 0.250000
O O6 0.552332 0.215021 0.500000
O O7 0.550484 0.130435 0.338578
O O8 0.738996 0.145223 0.500000
O O9 0.805537 0.194464 0.672549
O O10 0.772351 0.104473 0.748886
O O11 0.778205 0.946152 0.500000
O O12 0.697978 0.960732 0.319793
O O13 0.786801 0.000000 0.250000
O O14 0.500000 0.953855 0.250000
O O15 0.460263 0.954496 0.500000
O O16 0.397676 0.957491 0.283343
O O17 0.618206 0.040860 0.000000
#
# Coordination Sequence:
#
# PCOD8316663 Si02
#       6
#    16  16  16  16  16  16
#     4   9  16  26  40  58  81 109 141 176 215 258
#     4   9  15  22  33  51  76 105 138 176 217 258
#     4  10  20  33  49  69  93 119 146 177 214 257
#     4  10  20  33  50  69  89 112 137 167 202 245
#     4   9  15  21  32  49  69  95 126 163 204 244
#     4   8  15  26  38  54  75  99 128 162 200 241
#
# _framework density 16.109068000000001
#
# number of rings (size 3 to 8) (size 9 to 14) (size 15 to 20)
#    0.000    2.833    0.000    3.500    0.000   10.000 
#    0.000    0.000    0.000    0.500    0.000    3.500 
#    0.000    0.333    0.000    3.500    0.000    1.500 
#
# Total GULP energy -1189526.456763 kJ/mol
# GULP energy per Si atom -12390.900591 kJ/mol
# Density = 1.607240 g / cm^3
# Si number density = 16.109068 Si / 1000 Ang^3
#
#
#
# Elastic Constant Matrix: (Units=GPa)
#
#
# Indices 1 2 3 4 5 6 
#
# 1 33.3446 18.2619 35.0466 0.0000 0.0000 0.0000
# 2 18.2619 33.3446 35.0466 0.0000 0.0000 0.0000
# 3 35.0466 35.0466 156.3578 0.0000 0.0000 0.0000
# 4 0.0000 0.0000 0.0000 18.4135 0.0000 0.0000
# 5 0.0000 0.0000 0.0000 0.0000 18.4135 0.0000
# 6 0.0000 0.0000 0.0000 0.0000 0.0000 0.3984
#
#
#
# Elastic Compliance Matrix: (Units=1/GPa)
#
#
# Indices 1 2 3 4 5 6 
#
# 1 0.047080 -0.019221 -0.006244 0.000000 0.000000 0.000000
# 2 -0.019221 0.047080 -0.006244 0.000000 0.000000 0.000000
# 3 -0.006244 -0.006244 0.009195 0.000000 0.000000 0.000000
# 4 0.000000 0.000000 0.000000 0.054308 0.000000 0.000000
# 5 0.000000 0.000000 0.000000 0.000000 0.054308 0.000000
# 6 0.000000 0.000000 0.000000 0.000000 0.000000 2.509776
#
#
# Mechanical properties :
#
#
# Convention : Reuss Voigt Hill
#
# Bulk Modulus (GPa) = 25.04088 44.41749 34.72918
# Shear Modulus (GPa) = 1.78669 16.42455 9.10562
#
# Velocity S-wave (km/s) = 1.05429 3.19656 2.38007
# Velocity P-wave (km/s) = 4.13042 6.42315 5.39987
#
# Compressibility (1/GPa) = 0.03993471
#
# Stress axis : x y z
#
# Youngs Moduli (GPa) = 21.24045 21.24045 108.75655
#
# Poissons Ratio (x) = 0.40827 0.67911
# Poissons Ratio (y) = 0.40827 0.67911
# Poissons Ratio (z) = 0.13263 0.13263
#
# Static dielectric constant tensor:
#      x y z
#    x 2.718160 0.000000 0.000000 
#    y 0.000000 2.718160 0.000000 
#    z 0.000000 0.000000 3.563160 
# 
# 
# High freq. dielectric constant tensor:
#      x y z
#    x 1.572120 0.000000 0.000000 
#    y 0.000000 1.572120 0.000000 
#    z 0.000000 0.000000 1.648680 
# 
# From -- ./inp_files/1905.got.cif
#   From: 2010.03.12/outbox.cif.g09.slc.cpg/sg132_1_cif.got.tgz:1905.got - 2010.04.06 17:53:44.
