data_PCOD8316316
_publ_section_title
;
Structure prediction by ZEFSAII (Michael W. Deem and Ramdas Pophale) SiO2 
 PCOD8316316
Probable space group: P 42/M M C
;
_chemical_formula_sum "Si O2"
_cell_formula_units_Z 104
_cell_length_a 26.793528
_cell_length_b 26.793528
_cell_length_c 8.798787
_cell_angle_alpha 90.000000
_cell_angle_beta 90.000000
_cell_angle_gamma 90.000000
_cell_volume 6316.588851
_symmetry_space_group_name_H-M "P 42/M M C"
_symmetry_group_IT_number 131
_symmetry_cell_setting 'tetragonal'
loop_
_space_group_symop_operation_xyz
x,y,z
-x,-y,z
-y,x,1/2+z
y,-x,1/2+z
-x,y,-z
x,-y,-z
y,x,1/2-z
-y,-x,1/2-z
-x,-y,-z
x,y,-z
y,-x,1/2-z
-y,x,1/2-z
x,-y,z
-x,y,z
-y,-x,1/2+z
y,x,1/2+z
loop_
_atom_site_type_symbol
_atom_site_label
_atom_site_fract_x
_atom_site_fract_y
_atom_site_fract_z
Si Si1 0.683983 0.165445 0.321525
Si Si2 0.555519 0.757690 0.321476
Si Si3 0.135872 0.208768 0.178318
Si Si4 0.867545 0.578992 0.178025
Si Si5 0.269062 0.344755 0.320211
Si Si6 0.056296 0.869513 0.180062
Si Si7 0.944259 0.500000 0.818182
O O1 0.683903 0.178455 0.500000
O O2 0.733306 0.134845 0.272985
O O3 0.637617 0.129304 0.279510
O O4 0.680388 0.217551 0.233844
O O5 0.567961 0.755224 0.500000
O O6 0.500000 0.736306 0.287251
O O7 0.557450 0.814888 0.262660
O O8 0.597519 0.726354 0.232822
O O9 0.184966 0.184966 0.250000
O O10 0.086083 0.180091 0.234886
O O11 0.140840 0.202856 0.000000
O O12 0.914578 0.548669 0.245749
O O13 0.869185 0.570295 0.000000
O O14 0.315446 0.315446 0.250000
O O15 0.272045 0.341887 0.500000
O O16 0.081269 0.918732 0.250000
O O17 0.000000 0.864999 0.241583
O O18 0.057271 0.874781 0.000000
O O19 0.000000 0.500000 0.749020
O O20 0.947268 0.500000 0.000000
#
# Coordination Sequence:
#
# PCOD8316316 Si02
#       7
#    16  16  16  16  16  16   8
#     4   9  17  29  45  63  86 117 153 187 225 273
#     4   9  16  29  49  67  88 123 160 193 234 281
#     4   9  17  29  45  64  85 113 143 176 215 267
#     4   8  13  23  38  58  84 115 148 184 226 271
#     4  11  21  31  44  66  97 126 155 192 232 275
#     4   9  18  32  48  66  88 112 139 174 218 268
#     4   9  14  20  34  58  87 115 145 185 230 271
#
# _framework density 16.464583000000001
#
# number of rings (size 3 to 8) (size 9 to 14) (size 15 to 20)
#    0.000    2.846    0.769    2.769    0.000    2.615 
#    0.000    1.538    0.000    4.615    0.000    0.000 
#    0.000   24.923    0.000    3.231    0.000    1.385 
#
# Total GULP energy -1288956.523139 kJ/mol
# GULP energy per Si atom -12393.812722 kJ/mol
# Density = 1.642711 g / cm^3
# Si number density = 16.464583 Si / 1000 Ang^3
#
#
#
# Elastic Constant Matrix: (Units=GPa)
#
#
# Indices 1 2 3 4 5 6 
#
# 1 141.8845 68.4357 31.8674 0.0000 0.0000 0.0000
# 2 68.4357 141.8811 31.8762 0.0000 0.0000 0.0000
# 3 31.8674 31.8762 44.1601 0.0000 0.0000 0.0000
# 4 0.0000 0.0000 0.0000 18.2800 0.0000 0.0000
# 5 0.0000 0.0000 0.0000 0.0000 18.2802 0.0000
# 6 0.0000 0.0000 0.0000 0.0000 0.0000 25.2479
#
#
#
# Elastic Compliance Matrix: (Units=1/GPa)
#
#
# Indices 1 2 3 4 5 6 
#
# 1 0.009850 -0.003765 -0.004391 0.000000 0.000000 0.000000
# 2 -0.003765 0.009851 -0.004394 0.000000 0.000000 0.000000
# 3 -0.004391 -0.004394 0.028985 0.000000 0.000000 0.000000
# 4 0.000000 0.000000 0.000000 0.054704 0.000000 0.000000
# 5 0.000000 0.000000 0.000000 0.000000 0.054704 0.000000
# 6 0.000000 0.000000 0.000000 0.000000 0.000000 0.039607
#
#
# Mechanical properties :
#
#
# Convention : Reuss Voigt Hill
#
# Bulk Modulus (GPa) = 42.39557 65.80937 54.10247
# Shear Modulus (GPa) = 21.67658 25.41138 23.54398
#
# Velocity S-wave (km/s) = 3.63238 3.93287 3.78561
# Velocity P-wave (km/s) = 6.58769 7.78976 7.21381
#
# Compressibility (1/GPa) = 0.02358737
#
# Stress axis : x y z
#
# Youngs Moduli (GPa) = 101.52353 101.50973 34.50039
#
# Poissons Ratio (x) = 0.38215 0.15148
# Poissons Ratio (y) = 0.38220 0.15160
# Poissons Ratio (z) = 0.44575 0.44606
#
# Static dielectric constant tensor:
#      x y z
#    x 3.121720 0.000000 0.000000 
#    y 0.000000 3.121720 0.000000 
#    z 0.000000 0.000000 2.837110 
# 
# 
# High freq. dielectric constant tensor:
#      x y z
#    x 1.625180 0.000000 0.000000 
#    y 0.000000 1.625180 0.000000 
#    z 0.000000 0.000000 1.607270 
# 
# From -- ./inp_files/2543.got.cif
#   From: 2010.03.12/outbox.cif.g09.slc.cpg/sg131_2_cif.got.tgz:2543.got - 2010.04.06 17:36:35.
