data_PCOD8316056
_publ_section_title
;
Structure prediction by ZEFSAII (Michael W. Deem and Ramdas Pophale) SiO2 
 PCOD8316056
Probable space group: P 42/M M C
;
_chemical_formula_sum "Si O2"
_cell_formula_units_Z 96
_cell_length_a 14.578255
_cell_length_b 14.578255
_cell_length_c 25.660250
_cell_angle_alpha 90.000000
_cell_angle_beta 90.000000
_cell_angle_gamma 90.000000
_cell_volume 5453.457945
_symmetry_space_group_name_H-M "P 42/M M C"
_symmetry_group_IT_number 131
_symmetry_cell_setting 'tetragonal'
loop_
_space_group_symop_operation_xyz
x,y,z
-x,-y,z
-y,x,1/2+z
y,-x,1/2+z
-x,y,-z
x,-y,-z
y,x,1/2-z
-y,-x,1/2-z
-x,-y,-z
x,y,-z
y,-x,1/2-z
-y,x,1/2-z
x,-y,z
-x,y,z
-y,-x,1/2+z
y,x,1/2+z
loop_
_atom_site_type_symbol
_atom_site_label
_atom_site_fract_x
_atom_site_fract_y
_atom_site_fract_z
Si Si1 0.279016 0.606230 0.208905
Si Si2 0.285916 0.102525 0.857847
Si Si3 0.103819 0.099799 0.682829
Si Si4 0.398782 0.602995 0.391769
Si Si5 0.897627 0.704665 0.763249
Si Si6 0.785261 0.394945 0.442039
O O1 0.337220 0.662781 0.250000
O O2 0.277006 0.500000 0.225531
O O3 0.324189 0.620860 0.153109
O O4 0.175682 0.645464 0.204524
O O5 0.175534 0.114048 0.862682
O O6 0.310181 0.125407 0.797868
O O7 0.334253 0.169607 0.897616
O O8 0.317335 0.000000 0.872249
O O9 0.186930 0.109796 0.724419
O O10 0.000000 0.112965 0.709187
O O11 0.108691 0.000000 0.655945
O O12 0.391685 0.500000 0.368036
O O13 0.500000 0.619143 0.415844
O O14 0.324505 0.615610 0.437334
O O15 0.000000 0.667992 0.776106
O O16 0.813794 0.362002 0.500000
O O17 0.815772 0.500000 0.433575
#
# Coordination Sequence:
#
# PCOD8316056 Si02
#       6
#    16  16  16  16  16  16
#     4  11  21  32  48  70 100 135 167 197 233 286
#     4  10  20  32  47  69  97 128 161 197 236 275
#     4   9  17  30  51  79 107 133 162 195 231 278
#     4   9  18  32  50  73  97 119 149 193 244 293
#     4  10  20  32  48  73 105 138 167 196 236 285
#     4  10  21  36  53  70  88 117 159 204 248 291
#
# _framework density 17.603508000000001
#
# number of rings (size 3 to 8) (size 9 to 14) (size 15 to 20)
#    0.000    2.167    0.000    4.000    0.000    6.167 
#    0.000    9.167    0.000    0.500    0.000    2.333 
#    0.000    0.000    0.000   14.333    0.000    0.333 
#
# Total GULP energy -1189549.677378 kJ/mol
# GULP energy per Si atom -12391.142473 kJ/mol
# Density = 1.756344 g / cm^3
# Si number density = 17.603508 Si / 1000 Ang^3
#
#
#
# Elastic Constant Matrix: (Units=GPa)
#
#
# Indices 1 2 3 4 5 6 
#
# 1 99.5400 51.0078 44.7507 0.0000 0.0000 0.0000
# 2 51.0078 99.5409 44.7501 0.0000 0.0000 0.0000
# 3 44.7507 44.7501 74.4844 0.0000 0.0000 0.0000
# 4 0.0000 0.0000 0.0000 17.5851 0.0000 0.0000
# 5 0.0000 0.0000 0.0000 0.0000 17.5851 0.0000
# 6 0.0000 0.0000 0.0000 0.0000 0.0000 29.4037
#
#
#
# Elastic Compliance Matrix: (Units=1/GPa)
#
#
# Indices 1 2 3 4 5 6 
#
# 1 0.015469 -0.005136 -0.006208 0.000000 0.000000 0.000000
# 2 -0.005136 0.015469 -0.006208 0.000000 0.000000 0.000000
# 3 -0.006208 -0.006208 0.020885 0.000000 0.000000 0.000000
# 4 0.000000 0.000000 0.000000 0.056866 0.000000 0.000000
# 5 0.000000 0.000000 0.000000 0.000000 0.056866 0.000000
# 6 0.000000 0.000000 0.000000 0.000000 0.000000 0.034009
#
#
# Mechanical properties :
#
#
# Convention : Reuss Voigt Hill
#
# Bulk Modulus (GPa) = 59.81224 61.62027 60.71626
# Shear Modulus (GPa) = 20.81233 21.78524 21.29878
#
# Velocity S-wave (km/s) = 3.44216 3.52170 3.48216
# Velocity P-wave (km/s) = 7.06040 7.18450 7.12272
#
# Compressibility (1/GPa) = 0.01671899
#
# Stress axis : x y z
#
# Youngs Moduli (GPa) = 64.64507 64.64647 47.88037
#
# Poissons Ratio (x) = 0.33201 0.29726
# Poissons Ratio (y) = 0.33200 0.29724
# Poissons Ratio (z) = 0.40134 0.40132
#
# Static dielectric constant tensor:
#      x y z
#    x 3.511760 0.000000 0.000000 
#    y 0.000000 3.511770 0.000000 
#    z 0.000000 0.000000 2.865870 
# 
# 
# High freq. dielectric constant tensor:
#      x y z
#    x 1.692270 0.000000 0.000000 
#    y 0.000000 1.692270 0.000000 
#    z 0.000000 0.000000 1.631730 
# 
# From -- ./inp_files/9715.got.cif
#   From: 2010.03.12/outbox.cif.g09.slc.cpg/sg131_5_cif.got.tgz:9715.got - 2010.04.06 17:36:35.
