data_PCOD8316364
_publ_section_title
;
Structure prediction by ZEFSAII (Michael W. Deem and Ramdas Pophale) SiO2 
 PCOD8316364
Probable space group: P 42/M M C
;
_chemical_formula_sum "Si O2"
_cell_formula_units_Z 64
_cell_length_a 10.138475
_cell_length_b 10.138475
_cell_length_c 40.947350
_cell_angle_alpha 90.000000
_cell_angle_beta 90.000000
_cell_angle_gamma 90.000000
_cell_volume 4208.923865
_symmetry_space_group_name_H-M "P 42/M M C"
_symmetry_group_IT_number 131
_symmetry_cell_setting 'tetragonal'
loop_
_space_group_symop_operation_xyz
x,y,z
-x,-y,z
-y,x,1/2+z
y,-x,1/2+z
-x,y,-z
x,-y,-z
y,x,1/2-z
-y,-x,1/2-z
-x,-y,-z
x,y,-z
y,-x,1/2-z
-y,x,1/2-z
x,-y,z
-x,y,z
-y,-x,1/2+z
y,x,1/2+z
loop_
_atom_site_type_symbol
_atom_site_label
_atom_site_fract_x
_atom_site_fract_y
_atom_site_fract_z
Si Si1 0.656969 0.647496 0.536466
Si Si2 0.147408 0.656945 0.911458
Si Si3 0.852497 0.656946 0.838461
Si Si4 0.656891 0.646930 0.713697
O O1 0.704590 0.686404 0.500000
O O2 0.705966 0.500000 0.545234
O O3 0.500000 0.651814 0.537837
O O4 0.718384 0.749941 0.562529
O O5 0.151566 0.500000 0.912898
O O6 0.186203 0.704135 0.874969
O O7 0.000000 0.706156 0.920249
O O8 0.849022 0.500000 0.836844
O O9 0.748270 0.717624 0.812742
O O10 0.000000 0.706558 0.829702
O O11 0.696179 0.696179 0.750000
O O12 0.713583 0.500000 0.706817
O O13 0.500000 0.641987 0.711230
#
# Coordination Sequence:
#
# PCOD8316364 Si02
#       4
#    16  16  16  16
#     4   8  13  19  24  30  41  57  79 110 147 184
#     4   8  13  19  25  33  44  59  81 108 140 181
#     4   8  13  20  28  38  53  71  90 115 149 188
#     4   8  13  20  29  41  56  73  93 117 147 185
#
# _framework density 15.205788
#
# number of rings (size 3 to 8) (size 9 to 14) (size 15 to 20)
#    0.000    4.000    0.000    3.000    0.000    1.500 
#    0.000    7.500    0.000    0.000    0.000    0.000 
#    0.000    0.500    0.000    0.000    0.000    0.000 
#
# Total GULP energy -792847.053487 kJ/mol
# GULP energy per Si atom -12388.235211 kJ/mol
# Density = 1.517118 g / cm^3
# Si number density = 15.205788 Si / 1000 Ang^3
#
#
#
# Elastic Constant Matrix: (Units=GPa)
#
#
# Indices 1 2 3 4 5 6 
#
# 1 45.8620 21.6566 57.0133 0.0000 0.0000 0.0000
# 2 21.6566 45.8620 57.0133 0.0000 0.0000 0.0000
# 3 57.0133 57.0133 151.8101 0.0000 0.0000 0.0000
# 4 0.0000 0.0000 0.0000 3.3269 0.0000 0.0000
# 5 0.0000 0.0000 0.0000 0.0000 3.3269 0.0000
# 6 0.0000 0.0000 0.0000 0.0000 0.0000 1.4115
#
#
#
# Elastic Compliance Matrix: (Units=1/GPa)
#
#
# Indices 1 2 3 4 5 6 
#
# 1 0.040903 -0.000410 -0.015208 0.000000 0.000000 0.000000
# 2 -0.000410 0.040903 -0.015208 0.000000 0.000000 0.000000
# 3 -0.015208 -0.015208 0.018010 0.000000 0.000000 0.000000
# 4 0.000000 0.000000 0.000000 0.300580 0.000000 0.000000
# 5 0.000000 0.000000 0.000000 0.000000 0.300580 0.000000
# 6 0.000000 0.000000 0.000000 0.000000 0.000000 0.708463
#
#
# Mechanical properties :
#
#
# Convention : Reuss Voigt Hill
#
# Bulk Modulus (GPa) = 26.20088 57.21116 41.70602
# Shear Modulus (GPa) = 3.36970 8.80312 6.08641
#
# Velocity S-wave (km/s) = 1.49026 2.40871 2.00284
# Velocity P-wave (km/s) = 4.49771 6.74108 5.73025
#
# Compressibility (1/GPa) = 0.03816665
#
# Stress axis : x y z
#
# Youngs Moduli (GPa) = 24.44784 24.44784 55.52496
#
# Poissons Ratio (x) = 0.01001 0.84441
# Poissons Ratio (y) = 0.01001 0.84441
# Poissons Ratio (z) = 0.37180 0.37180
#
# Static dielectric constant tensor:
#      x y z
#    x 2.653920 0.000000 0.000000 
#    y 0.000000 2.653920 0.000000 
#    z 0.000000 0.000000 3.330280 
# 
# 
# High freq. dielectric constant tensor:
#      x y z
#    x 1.527620 0.000000 0.000000 
#    y 0.000000 1.527620 0.000000 
#    z 0.000000 0.000000 1.596820 
# 
# From -- ./inp_files/13130.got.cif
#   From: 2010.03.12/outbox.cif.g09.slc.cpg/sg131_7_cif.got.tgz:13130.got - 2010.04.06 17:36:35.
