data_PCOD8316243
_publ_section_title
;
Structure prediction by ZEFSAII (Michael W. Deem and Ramdas Pophale) SiO2 
 PCOD8316243
Probable space group: P 42/M M C
;
_chemical_formula_sum "Si O2"
_cell_formula_units_Z 64
_cell_length_a 14.684872
_cell_length_b 14.684872
_cell_length_c 15.311768
_cell_angle_alpha 90.000000
_cell_angle_beta 90.000000
_cell_angle_gamma 90.000000
_cell_volume 3301.913340
_symmetry_space_group_name_H-M "P 42/M M C"
_symmetry_group_IT_number 131
_symmetry_cell_setting 'tetragonal'
loop_
_space_group_symop_operation_xyz
x,y,z
-x,-y,z
-y,x,1/2+z
y,-x,1/2+z
-x,y,-z
x,-y,-z
y,x,1/2-z
-y,-x,1/2-z
-x,-y,-z
x,y,-z
y,-x,1/2-z
-y,x,1/2-z
x,-y,z
-x,y,z
-y,-x,1/2+z
y,x,1/2+z
loop_
_atom_site_type_symbol
_atom_site_label
_atom_site_fract_x
_atom_site_fract_y
_atom_site_fract_z
Si Si1 0.604250 0.101408 0.225845
Si Si2 0.103017 0.896183 0.852840
Si Si3 0.212119 0.725850 0.403718
Si Si4 0.193949 0.398620 0.097485
O O1 0.500000 0.112580 0.197145
O O2 0.662489 0.172338 0.171019
O O3 0.616112 0.116778 0.329362
O O4 0.639853 0.000000 0.205224
O O5 0.115252 0.884749 0.750000
O O6 0.172137 0.828240 0.900090
O O7 0.000000 0.870658 0.880608
O O8 0.124472 0.000000 0.880635
O O9 0.190049 0.685846 0.500000
O O10 0.321348 0.729095 0.389902
O O11 0.237596 0.500000 0.108856
O O12 0.150746 0.389413 0.000000
#
# Coordination Sequence:
#
# PCOD8316243 Si02
#       4
#    16  16  16  16
#     4  10  21  36  55  80 110 144 179 216 261 315
#     4   9  18  32  49  70  99 137 180 223 262 301
#     4  11  22  34  52  77 106 143 180 215 260 314
#     4   9  19  36  57  80 104 133 175 227 279 324
#
# _framework density 19.382701000000001
#
# number of rings (size 3 to 8) (size 9 to 14) (size 15 to 20)
#    0.000    2.250    0.000    3.750    0.000    6.500 
#    0.000    7.500    0.000    0.750    0.000    7.000 
#    0.000    0.000    0.000    0.000    0.000    0.500 
#
# Total GULP energy -793315.229732 kJ/mol
# GULP energy per Si atom -12395.550465 kJ/mol
# Density = 1.933859 g / cm^3
# Si number density = 19.382701 Si / 1000 Ang^3
#
#
#
# Elastic Constant Matrix: (Units=GPa)
#
#
# Indices 1 2 3 4 5 6 
#
# 1 100.6323 52.1214 53.2490 0.0000 0.0000 0.0000
# 2 52.1214 100.6325 53.2489 0.0000 0.0000 0.0000
# 3 53.2490 53.2489 107.9711 0.0000 0.0000 0.0000
# 4 0.0000 0.0000 0.0000 22.0897 0.0000 0.0000
# 5 0.0000 0.0000 0.0000 0.0000 22.0898 0.0000
# 6 0.0000 0.0000 0.0000 0.0000 0.0000 19.8298
#
#
#
# Elastic Compliance Matrix: (Units=1/GPa)
#
#
# Indices 1 2 3 4 5 6 
#
# 1 0.015295 -0.005318 -0.004920 0.000000 0.000000 0.000000
# 2 -0.005318 0.015295 -0.004920 0.000000 0.000000 0.000000
# 3 -0.004920 -0.004920 0.014115 0.000000 0.000000 0.000000
# 4 0.000000 0.000000 0.000000 0.045270 0.000000 0.000000
# 5 0.000000 0.000000 0.000000 0.000000 0.045270 0.000000
# 6 0.000000 0.000000 0.000000 0.000000 0.000000 0.050429
#
#
# Mechanical properties :
#
#
# Convention : Reuss Voigt Hill
#
# Bulk Modulus (GPa) = 69.50599 69.60829 69.55714
# Shear Modulus (GPa) = 22.64606 22.84297 22.74452
#
# Velocity S-wave (km/s) = 3.42184 3.43669 3.42927
# Velocity P-wave (km/s) = 7.17981 7.19293 7.18638
#
# Compressibility (1/GPa) = 0.01438725
#
# Stress axis : x y z
#
# Youngs Moduli (GPa) = 65.37901 65.37923 70.84668
#
# Poissons Ratio (x) = 0.34772 0.34859
# Poissons Ratio (y) = 0.34772 0.34859
# Poissons Ratio (z) = 0.32169 0.32169
#
# Static dielectric constant tensor:
#      x y z
#    x 3.519550 0.000000 0.000000 
#    y 0.000000 3.519550 0.000000 
#    z 0.000000 0.000000 3.601320 
# 
# 
# High freq. dielectric constant tensor:
#      x y z
#    x 1.738470 0.000000 0.000000 
#    y 0.000000 1.738470 0.000000 
#    z 0.000000 0.000000 1.765780 
# 
# From -- ./inp_files/5436.got.cif
#   From: 2010.03.12/outbox.cif.g09.slc.cpg/sg131_3_cif.got.tgz:5436.got - 2010.04.06 17:36:35.
