data_PCOD8316165
_publ_section_title
;
Structure prediction by ZEFSAII (Michael W. Deem and Ramdas Pophale) SiO2 
 PCOD8316165
Probable space group: P 42/M M C
;
_chemical_formula_sum "Si O2"
_cell_formula_units_Z 48
_cell_length_a 17.222728
_cell_length_b 17.222728
_cell_length_c 8.227249
_cell_angle_alpha 90.000000
_cell_angle_beta 90.000000
_cell_angle_gamma 90.000000
_cell_volume 2440.386013
_symmetry_space_group_name_H-M "P 42/M M C"
_symmetry_group_IT_number 131
_symmetry_cell_setting 'tetragonal'
loop_
_space_group_symop_operation_xyz
x,y,z
-x,-y,z
-y,x,1/2+z
y,-x,1/2+z
-x,y,-z
x,-y,-z
y,x,1/2-z
-y,-x,1/2-z
-x,-y,-z
x,y,-z
y,-x,1/2-z
-y,x,1/2-z
x,-y,z
-x,y,z
-y,-x,1/2+z
y,x,1/2+z
loop_
_atom_site_type_symbol
_atom_site_label
_atom_site_fract_x
_atom_site_fract_y
_atom_site_fract_z
Si Si1 0.284485 0.000000 0.816391
Si Si2 0.706853 0.411210 0.191518
Si Si3 0.000000 0.880178 0.193234
Si Si4 0.829660 0.292406 0.309731
O O1 0.193030 0.000000 0.808138
O O2 0.307953 0.916556 0.732815
O O3 0.316058 0.000000 0.000000
O O4 0.626181 0.373820 0.250000
O O5 0.707752 0.500000 0.248821
O O6 0.779360 0.368137 0.271972
O O7 0.714270 0.402425 0.000000
O O8 0.924121 0.924121 0.250000
O O9 0.000000 0.863309 0.000000
O O10 0.785896 0.214105 0.250000
O O11 0.840223 0.281676 0.500000
#
# Coordination Sequence:
#
# PCOD8316165 Si02
#       4
#     8  16   8  16
#     4  10  21  35  51  75 103 136 182 225 264 316
#     4  10  21  37  58  84 112 141 174 213 260 316
#     4  11  21  32  47  67  95 131 170 220 277 325
#     4  10  20  35  55  78 107 142 180 223 269 317
#
# _framework density 19.669018999999999
#
# number of rings (size 3 to 8) (size 9 to 14) (size 15 to 20)
#    0.000    1.833    0.000    7.000    0.000    8.333 
#    0.000    2.500    0.000    5.000    0.000    0.000 
#    0.000    0.000    0.000    0.000    0.000    0.000 
#
# Total GULP energy -594659.869920 kJ/mol
# GULP energy per Si atom -12388.747290 kJ/mol
# Density = 1.962425 g / cm^3
# Si number density = 19.669019 Si / 1000 Ang^3
#
#
#
# Elastic Constant Matrix: (Units=GPa)
#
#
# Indices 1 2 3 4 5 6 
#
# 1 153.6790 63.7238 13.3879 0.0000 0.0000 0.0000
# 2 63.7238 153.6732 13.3877 0.0000 0.0000 0.0000
# 3 13.3879 13.3877 50.1403 0.0000 0.0000 0.0000
# 4 0.0000 0.0000 0.0000 13.6614 0.0000 0.0000
# 5 0.0000 0.0000 0.0000 0.0000 13.6616 0.0000
# 6 0.0000 0.0000 0.0000 0.0000 0.0000 21.1210
#
#
#
# Elastic Compliance Matrix: (Units=1/GPa)
#
#
# Indices 1 2 3 4 5 6 
#
# 1 0.007936 -0.003180 -0.001270 0.000000 0.000000 0.000000
# 2 -0.003180 0.007937 -0.001270 0.000000 0.000000 0.000000
# 3 -0.001270 -0.001270 0.020622 0.000000 0.000000 0.000000
# 4 0.000000 0.000000 0.000000 0.073199 0.000000 0.000000
# 5 0.000000 0.000000 0.000000 0.000000 0.073198 0.000000
# 6 0.000000 0.000000 0.000000 0.000000 0.000000 0.047346
#
#
# Mechanical properties :
#
#
# Convention : Reuss Voigt Hill
#
# Bulk Modulus (GPa) = 39.91240 59.83238 49.87239
# Shear Modulus (GPa) = 19.99758 27.48836 23.74297
#
# Velocity S-wave (km/s) = 3.19204 3.74243 3.47814
# Velocity P-wave (km/s) = 5.82422 7.01142 6.44522
#
# Compressibility (1/GPa) = 0.02505487
#
# Stress axis : x y z
#
# Youngs Moduli (GPa) = 126.00073 125.99595 48.49146
#
# Poissons Ratio (x) = 0.40072 0.06158
# Poissons Ratio (y) = 0.40073 0.06158
# Poissons Ratio (z) = 0.16001 0.16001
#
# Static dielectric constant tensor:
#      x y z
#    x 3.786890 0.000000 0.000000 
#    y 0.000000 3.786900 0.000000 
#    z 0.000000 0.000000 3.528980 
# 
# 
# High freq. dielectric constant tensor:
#      x y z
#    x 1.765190 0.000000 0.000000 
#    y 0.000000 1.765190 0.000000 
#    z 0.000000 0.000000 1.763450 
# 
# From -- ./inp_files/1009.got.cif
#   From: 2010.03.12/outbox.cif.g09.slc.cpg/sg131_1_cif.got.tgz:1009.got - 2010.04.06 17:36:35.
