data_PCOD8316614
_publ_section_title
;
Structure prediction by ZEFSAII (Michael W. Deem and Ramdas Pophale) SiO2 
 PCOD8316614
Probable space group: P 42/M C M
;
_chemical_formula_sum "Si O2"
_cell_formula_units_Z 72
_cell_length_a 11.933406
_cell_length_b 11.933406
_cell_length_c 26.438387
_cell_angle_alpha 90.000000
_cell_angle_beta 90.000000
_cell_angle_gamma 90.000000
_cell_volume 3764.989665
_symmetry_space_group_name_H-M "P 42/M C M"
_symmetry_group_IT_number 132
_symmetry_cell_setting 'tetragonal'
loop_
_space_group_symop_operation_xyz
x,y,z
-y,x,1/2+z
-x,-y,z
y,-x,1/2+z
x,-y,1/2-z
-x,y,1/2-z
y,x,-z
-y,-x,-z
-x,-y,-z
y,-x,1/2-z
x,y,-z
-y,x,1/2-z
-x,y,1/2+z
x,-y,1/2+z
-y,-x,z
y,x,z
loop_
_atom_site_type_symbol
_atom_site_label
_atom_site_fract_x
_atom_site_fract_y
_atom_site_fract_z
Si Si1 0.943200 0.759136 0.799827
Si Si2 0.908575 0.091426 0.864299
Si Si3 0.781588 0.218413 0.942557
Si Si4 0.531072 0.868610 0.441544
Si Si5 0.223054 0.592913 0.652778
Si Si6 0.500000 0.315464 0.750000
O O1 0.857390 0.857390 0.783671
O O2 0.884796 0.664345 0.832448
O O3 0.000000 0.706841 0.750000
O O4 0.042528 0.805327 0.833612
O O5 0.866438 0.133563 0.917410
O O6 0.000000 0.000000 0.876917
O O7 0.823007 0.344178 0.928925
O O8 0.803184 0.196817 0.000000
O O9 0.501289 0.838537 0.500000
O O10 0.458836 0.797165 0.402144
O O11 0.500000 0.000000 0.432583
O O12 0.333663 0.666338 0.646862
O O13 0.241254 0.504564 0.698767
O O14 0.388456 0.388456 0.745280
#
# Coordination Sequence:
#
# PCOD8316614 Si02
#       6
#    16   8   8  16  16   8
#     4  10  19  34  54  82 118 154 192 232 289 354
#     4  10  20  33  58  83 115 158 186 233 293 342
#     4  10  22  39  59  86 112 151 201 238 301 366
#     4  10  22  41  61  84 119 153 192 250 302 350
#     4  10  22  37  57  86 113 148 201 239 286 358
#     4   9  20  38  55  76 114 152 179 234 301 338
#
# _framework density 19.123559
#
# number of rings (size 3 to 8) (size 9 to 14) (size 15 to 20)
#    0.000    2.111    1.111    1.333    1.556    4.222 
#    0.000    0.000    0.000   10.000    0.000    0.000 
#    0.000    0.000    0.000    0.000    0.000    0.000 
#
# Total GULP energy -892204.430909 kJ/mol
# GULP energy per Si atom -12391.728207 kJ/mol
# Density = 1.908003 g / cm^3
# Si number density = 19.123559 Si / 1000 Ang^3
#
#
#
# Elastic Constant Matrix: (Units=GPa)
#
#
# Indices 1 2 3 4 5 6 
#
# 1 80.7012 47.7069 63.2554 0.0000 0.0000 0.0000
# 2 47.7069 80.7017 63.2559 0.0000 0.0000 0.0000
# 3 63.2554 63.2559 140.4041 0.0000 0.0000 0.0000
# 4 0.0000 0.0000 0.0000 15.1824 0.0000 0.0000
# 5 0.0000 0.0000 0.0000 0.0000 15.1825 0.0000
# 6 0.0000 0.0000 0.0000 0.0000 0.0000 24.2261
#
#
#
# Elastic Compliance Matrix: (Units=1/GPa)
#
#
# Indices 1 2 3 4 5 6 
#
# 1 0.022156 -0.008152 -0.006309 0.000000 0.000000 0.000000
# 2 -0.008152 0.022156 -0.006309 0.000000 0.000000 0.000000
# 3 -0.006309 -0.006309 0.012807 0.000000 0.000000 0.000000
# 4 0.000000 0.000000 0.000000 0.065866 0.000000 0.000000
# 5 0.000000 0.000000 0.000000 0.000000 0.065865 0.000000
# 6 0.000000 0.000000 0.000000 0.000000 0.000000 0.041278
#
#
# Mechanical properties :
#
#
# Convention : Reuss Voigt Hill
#
# Bulk Modulus (GPa) = 64.19263 72.24927 68.22095
# Shear Modulus (GPa) = 18.05968 19.42412 18.74190
#
# Velocity S-wave (km/s) = 3.07639 3.19049 3.13396
# Velocity P-wave (km/s) = 6.80140 7.17179 6.98905
#
# Compressibility (1/GPa) = 0.01557811
#
# Stress axis : x y z
#
# Youngs Moduli (GPa) = 45.13515 45.13521 78.08290
#
# Poissons Ratio (x) = 0.36796 0.49261
# Poissons Ratio (y) = 0.36796 0.49262
# Poissons Ratio (z) = 0.28475 0.28475
#
# Static dielectric constant tensor:
#      x y z
#    x 3.611860 0.000000 0.000000 
#    y 0.000000 3.611870 0.000000 
#    z 0.000000 0.000000 3.585420 
# 
# 
# High freq. dielectric constant tensor:
#      x y z
#    x 1.741210 0.000000 0.000000 
#    y 0.000000 1.741210 0.000000 
#    z 0.000000 0.000000 1.755920 
# 
# From -- ./inp_files/9837.got.cif
#   From: 2010.03.12/outbox.cif.g09.slc.cpg/sg132_5_cif.got.tgz:9837.got - 2010.04.06 17:53:44.
