data_PCOD8316733
_publ_section_title
;
Structure prediction by ZEFSAII (Michael W. Deem and Ramdas Pophale) SiO2 
 PCOD8316733
Probable space group: P 42/M C M
;
_chemical_formula_sum "Si O2"
_cell_formula_units_Z 104
_cell_length_a 18.325499
_cell_length_b 18.325499
_cell_length_c 17.354266
_cell_angle_alpha 90.000000
_cell_angle_beta 90.000000
_cell_angle_gamma 90.000000
_cell_volume 5827.977526
_symmetry_space_group_name_H-M "P 42/M C M"
_symmetry_group_IT_number 132
_symmetry_cell_setting 'tetragonal'
loop_
_space_group_symop_operation_xyz
x,y,z
-y,x,1/2+z
-x,-y,z
y,-x,1/2+z
x,-y,1/2-z
-x,y,1/2-z
y,x,-z
-y,-x,-z
-x,-y,-z
y,-x,1/2-z
x,y,-z
-y,x,1/2-z
-x,y,1/2+z
x,-y,1/2+z
-y,-x,z
y,x,z
loop_
_atom_site_type_symbol
_atom_site_label
_atom_site_fract_x
_atom_site_fract_y
_atom_site_fract_z
Si Si1 0.340580 0.224376 0.285956
Si Si2 0.558952 0.677010 0.813831
Si Si3 0.335207 0.924504 0.294550
Si Si4 0.207414 0.907507 0.587107
Si Si5 0.054862 0.945139 0.410520
Si Si6 0.772734 0.543188 0.587682
Si Si7 0.922354 0.536906 0.086856
O O1 0.261437 0.261437 0.292930
O O2 0.387003 0.261584 0.218436
O O3 0.329663 0.139257 0.268342
O O4 0.382201 0.236530 0.365985
O O5 0.500000 0.652369 0.750000
O O6 0.605583 0.605583 0.839582
O O7 0.518242 0.714679 0.885548
O O8 0.266115 0.924297 0.349406
O O9 0.403295 0.910414 0.348849
O O10 0.342135 0.000000 0.250000
O O11 0.237236 0.921228 0.500000
O O12 0.175928 0.824073 0.591941
O O13 0.140035 0.962344 0.607285
O O14 0.043287 0.956714 0.500000
O O15 0.000000 0.000000 0.365127
O O16 0.753910 0.560521 0.500000
O O17 0.856717 0.519727 0.598284
O O18 0.000000 0.500000 0.101864
O O19 0.919598 0.569780 0.000000
#
# Coordination Sequence:
#
# PCOD8316733 Si02
#       7
#    16  16  16  16   8  16  16
#     4  10  21  37  56  77 110 151 184 224 280 346
#     4   9  18  34  56  81 112 146 182 230 285 342
#     4  12  22  33  54  81 113 148 182 230 277 330
#     4   8  17  34  56  79 105 137 180 228 280 334
#     4   7  12  28  56  80 100 134 175 217 272 337
#     4  10  20  36  57  81 109 144 191 234 272 336
#     4  10  21  36  54  78 109 143 183 230 276 324
#
# _framework density 17.844954999999999
#
# number of rings (size 3 to 8) (size 9 to 14) (size 15 to 20)
#    0.462    1.923    1.538    1.846    0.000    2.308 
#    0.000    2.308    0.000    0.000    0.000    4.308 
#    0.000    0.000    0.000    0.000    0.000    0.000 
#
# Total GULP energy -1288811.585982 kJ/mol
# GULP energy per Si atom -12392.419096 kJ/mol
# Density = 1.780434 g / cm^3
# Si number density = 17.844955 Si / 1000 Ang^3
#
#
#
# Elastic Constant Matrix: (Units=GPa)
#
#
# Indices 1 2 3 4 5 6 
#
# 1 99.5550 24.5864 36.6355 0.0000 0.0000 0.0000
# 2 24.5864 99.5555 36.6354 0.0000 0.0000 0.0000
# 3 36.6355 36.6354 92.3366 0.0000 0.0000 0.0000
# 4 0.0000 0.0000 0.0000 28.1488 0.0000 0.0000
# 5 0.0000 0.0000 0.0000 0.0000 28.1489 0.0000
# 6 0.0000 0.0000 0.0000 0.0000 0.0000 25.2999
#
#
#
# Elastic Compliance Matrix: (Units=1/GPa)
#
#
# Indices 1 2 3 4 5 6 
#
# 1 0.011929 -0.001410 -0.004173 0.000000 0.000000 0.000000
# 2 -0.001410 0.011929 -0.004173 0.000000 0.000000 0.000000
# 3 -0.004173 -0.004173 0.014142 0.000000 0.000000 0.000000
# 4 0.000000 0.000000 0.000000 0.035525 0.000000 0.000000
# 5 0.000000 0.000000 0.000000 0.000000 0.035525 0.000000
# 6 0.000000 0.000000 0.000000 0.000000 0.000000 0.039526
#
#
# Mechanical properties :
#
#
# Convention : Reuss Voigt Hill
#
# Bulk Modulus (GPa) = 54.09710 54.12906 54.11308
# Shear Modulus (GPa) = 28.69424 29.22550 28.95987
#
# Velocity S-wave (km/s) = 4.01431 4.05130 4.03284
# Velocity P-wave (km/s) = 7.20188 7.23069 7.21630
#
# Compressibility (1/GPa) = 0.01848528
#
# Stress axis : x y z
#
# Youngs Moduli (GPa) = 83.83126 83.83189 70.71358
#
# Poissons Ratio (x) = 0.11822 0.29511
# Poissons Ratio (y) = 0.11822 0.29511
# Poissons Ratio (z) = 0.34986 0.34985
#
# Static dielectric constant tensor:
#      x y z
#    x 3.424240 0.000000 0.000000 
#    y 0.000000 3.424230 0.000000 
#    z 0.000000 0.000000 3.229340 
# 
# 
# High freq. dielectric constant tensor:
#      x y z
#    x 1.686330 0.000000 0.000000 
#    y 0.000000 1.686320 0.000000 
#    z 0.000000 0.000000 1.683800 
# 
# From -- ./inp_files/6555.got.cif
#   From: 2010.03.12/outbox.cif.g09.slc.cpg/sg132_4_cif.got.tgz:6555.got - 2010.04.06 17:53:44.
