data_PCOD8316809
_publ_section_title
;
Structure prediction by ZEFSAII (Michael W. Deem and Ramdas Pophale) SiO2 
 PCOD8316809
Probable space group: P 42/M C M
;
_chemical_formula_sum "Si O2"
_cell_formula_units_Z 44
_cell_length_a 9.764189
_cell_length_b 9.764189
_cell_length_c 25.842970
_cell_angle_alpha 90.000000
_cell_angle_beta 90.000000
_cell_angle_gamma 90.000000
_cell_volume 2463.852914
_symmetry_space_group_name_H-M "P 42/M C M"
_symmetry_group_IT_number 132
_symmetry_cell_setting 'tetragonal'
loop_
_space_group_symop_operation_xyz
x,y,z
-y,x,1/2+z
-x,-y,z
y,-x,1/2+z
x,-y,1/2-z
-x,y,1/2-z
y,x,-z
-y,-x,-z
-x,-y,-z
y,-x,1/2-z
x,y,-z
-y,x,1/2-z
-x,y,1/2+z
x,-y,1/2+z
-y,-x,z
y,x,z
loop_
_atom_site_type_symbol
_atom_site_label
_atom_site_fract_x
_atom_site_fract_y
_atom_site_fract_z
Si Si1 0.500000 0.500000 0.750000
Si Si2 0.349424 0.032841 0.366530
Si Si3 0.295672 0.704328 0.202653
Si Si4 0.000000 0.000000 0.250000
Si Si5 0.887035 0.112966 0.060666
Si Si6 0.193362 0.806639 0.690950
O O1 0.411768 0.411768 0.708157
O O2 0.349000 0.157767 0.325285
O O3 0.257673 0.068248 0.415911
O O4 0.500000 0.000000 0.387386
O O5 0.303340 0.889647 0.341918
O O6 0.267032 0.732969 0.262308
O O7 0.085384 0.085384 0.210430
O O8 0.868898 0.131103 0.000000
O O9 0.000000 0.000000 0.075195
#
# Coordination Sequence:
#
# PCOD8316809 Si02
#       6
#     2  16   8   2   8   8
#     4  12  24  36  44  72 122 176 192 240 272 336
#     4  11  22  36  58  88 113 152 195 240 291 348
#     4  11  22  34  51  77 120 161 199 228 279 336
#     4  12  16  32  56  80 114 148 200 244 272 304
#     4  10  21  41  65  87 111 143 192 252 307 351
#     4  12  19  34  56  84 119 152 195 242 280 333
#
# _framework density 17.858208999999999
#
# number of rings (size 3 to 8) (size 9 to 14) (size 15 to 20)
#    0.000    0.909    5.455    3.273    0.000    2.182 
#    0.000    0.000    0.000    0.000    0.000    3.818 
#    0.000    0.000    0.000    0.000    0.000    0.000 
#
# Total GULP energy -545547.538243 kJ/mol
# GULP energy per Si atom -12398.807687 kJ/mol
# Density = 1.781756 g / cm^3
# Si number density = 17.858209 Si / 1000 Ang^3
#
#
#
# Elastic Constant Matrix: (Units=GPa)
#
#
# Indices 1 2 3 4 5 6 
#
# 1 139.8079 54.4658 54.7349 0.0000 0.0000 0.0000
# 2 54.4658 139.8071 54.7342 0.0000 0.0000 0.0000
# 3 54.7349 54.7342 104.5044 0.0000 0.0000 0.0000
# 4 0.0000 0.0000 0.0000 25.5364 0.0000 0.0000
# 5 0.0000 0.0000 0.0000 0.0000 25.5364 0.0000
# 6 0.0000 0.0000 0.0000 0.0000 0.0000 38.3055
#
#
#
# Elastic Compliance Matrix: (Units=1/GPa)
#
#
# Indices 1 2 3 4 5 6 
#
# 1 0.009510 -0.002208 -0.003825 0.000000 0.000000 0.000000
# 2 -0.002208 0.009510 -0.003825 0.000000 0.000000 0.000000
# 3 -0.003825 -0.003825 0.013575 0.000000 0.000000 0.000000
# 4 0.000000 0.000000 0.000000 0.039160 0.000000 0.000000
# 5 0.000000 0.000000 0.000000 0.000000 0.039160 0.000000
# 6 0.000000 0.000000 0.000000 0.000000 0.000000 0.026106
#
#
# Mechanical properties :
#
#
# Convention : Reuss Voigt Hill
#
# Bulk Modulus (GPa) = 77.63030 79.10990 78.37010
# Shear Modulus (GPa) = 31.05033 32.55464 31.80249
#
# Velocity S-wave (km/s) = 4.17431 4.27424 4.22457
# Velocity P-wave (km/s) = 8.17300 8.29179 8.23261
#
# Compressibility (1/GPa) = 0.01288157
#
# Stress axis : x y z
#
# Youngs Moduli (GPa) = 105.15172 105.15165 73.66260
#
# Poissons Ratio (x) = 0.23212 0.28174
# Poissons Ratio (y) = 0.23212 0.28174
# Poissons Ratio (z) = 0.40218 0.40217
#
# Static dielectric constant tensor:
#      x y z
#    x 3.490500 0.000000 0.000000 
#    y 0.000000 3.490500 0.000000 
#    z 0.000000 0.000000 3.087430 
# 
# 
# High freq. dielectric constant tensor:
#      x y z
#    x 1.702550 0.000000 0.000000 
#    y 0.000000 1.702550 0.000000 
#    z 0.000000 0.000000 1.668270 
# 
# From -- ./inp_files/10282.got.cif
#   From: 2010.03.12/outbox.cif.g09.slc.cpg/sg132_6_cif.got.tgz:10282.got - 2010.04.06 17:53:44.
