data_PCOD8316907
_publ_section_title
;
Structure prediction by ZEFSAII (Michael W. Deem and Ramdas Pophale) SiO2 
 PCOD8316907
Probable space group: P 42/N B C
;
_chemical_formula_sum "Si O2"
_cell_formula_units_Z 84
_cell_length_a 15.406197
_cell_length_b 15.406197
_cell_length_c 21.185966
_cell_angle_alpha 90.000000
_cell_angle_beta 90.000000
_cell_angle_gamma 90.000000
_cell_volume 5028.508225
_symmetry_space_group_name_H-M "P 42/N B C"
_symmetry_group_IT_number 133
_space_group.IT_coordinate_system_code '2'
_symmetry_cell_setting 'tetragonal'
loop_
_space_group_symop_operation_xyz
x,y,z
1/2-y,x,1/2+z
1/2-x,1/2-y,z
y,1/2-x,1/2+z
x,1/2-y,-z
1/2-x,y,-z
y,x,1/2-z
1/2-y,1/2-x,1/2-z
-x,-y,-z
1/2+y,-x,1/2-z
1/2+x,1/2+y,-z
-y,1/2+x,1/2-z
-x,1/2+y,z
1/2+x,-y,z
-y,-x,1/2+z
1/2+y,1/2+x,1/2+z
loop_
_atom_site_type_symbol
_atom_site_label
_atom_site_fract_x
_atom_site_fract_y
_atom_site_fract_z
Si Si1 0.255592 0.994951 0.677057
Si Si2 0.056668 0.431592 0.175343
Si Si3 0.572236 0.578841 0.675357
Si Si4 0.750000 0.250000 0.500000
Si Si5 0.182087 0.815589 0.378528
Si Si6 0.762321 0.500159 0.825933
O O1 0.160936 0.020485 0.650654
O O2 0.326606 0.067255 0.656852
O O3 0.294923 0.909348 0.646810
O O4 0.246340 0.982743 0.751716
O O5 0.057748 0.442253 0.250000
O O6 0.157211 0.438137 0.154541
O O7 0.995287 0.507847 0.146590
O O8 0.568722 0.568722 0.750000
O O9 0.542471 0.672751 0.649838
O O10 0.809141 0.188281 0.544902
O O11 0.250000 0.750000 0.346067
O O12 0.088684 0.781045 0.360628
#
# Coordination Sequence:
#
# PCOD8316907 Si02
#       6
#    16  16  16   4  16  16
#     4  10  19  29  51  75 103 137 163 200 247 297
#     4   9  17  29  42  73 111 133 165 200 236 294
#     4   9  17  29  42  73 111 133 165 200 236 294
#     4   8  24  36  46  72 100 124 160 230 256 280
#     4  10  20  33  50  70  97 127 164 212 249 294
#     4  10  19  29  51  75 103 137 163 200 247 297
#
# _framework density 16.704754000000001
#
# number of rings (size 3 to 8) (size 9 to 14) (size 15 to 20)
#    0.571    1.905    1.905    1.143    5.333    0.762 
#    0.000    3.810    0.000    4.571    0.000    0.000 
#    0.000    3.048    0.000    0.000    0.000    0.000 
#
# Total GULP energy -1040600.364517 kJ/mol
# GULP energy per Si atom -12388.099578 kJ/mol
# Density = 1.666673 g / cm^3
# Si number density = 16.704754 Si / 1000 Ang^3
#
#
#
# Elastic Constant Matrix: (Units=GPa)
#
#
# Indices 1 2 3 4 5 6 
#
# 1 89.7081 17.8789 5.6491 0.0000 0.0000 0.0000
# 2 17.8789 89.7083 5.6494 0.0000 0.0000 0.0000
# 3 5.6491 5.6494 26.5909 0.0000 0.0000 0.0000
# 4 0.0000 0.0000 0.0000 6.3854 0.0000 0.0000
# 5 0.0000 0.0000 0.0000 0.0000 6.3849 0.0000
# 6 0.0000 0.0000 0.0000 0.0000 0.0000 36.7773
#
#
#
# Elastic Compliance Matrix: (Units=1/GPa)
#
#
# Indices 1 2 3 4 5 6 
#
# 1 0.011714 -0.002207 -0.002020 0.000000 0.000000 0.000000
# 2 -0.002207 0.011714 -0.002020 0.000000 0.000000 0.000000
# 3 -0.002020 -0.002020 0.038465 0.000000 0.000000 0.000000
# 4 0.000000 0.000000 0.000000 0.156607 0.000000 0.000000
# 5 0.000000 0.000000 0.000000 0.000000 0.156620 0.000000
# 6 0.000000 0.000000 0.000000 0.000000 0.000000 0.027191
#
#
# Mechanical properties :
#
#
# Convention : Reuss Voigt Hill
#
# Bulk Modulus (GPa) = 20.24298 29.37356 24.80827
# Shear Modulus (GPa) = 11.59362 21.69818 16.64590
#
# Velocity S-wave (km/s) = 2.63731 3.60797 3.16013
# Velocity P-wave (km/s) = 4.62798 5.91428 5.31022
#
# Compressibility (1/GPa) = 0.04939985
#
# Stress axis : x y z
#
# Youngs Moduli (GPa) = 85.36503 85.36504 25.99764
#
# Poissons Ratio (x) = 0.18844 0.05251
# Poissons Ratio (y) = 0.18844 0.05251
# Poissons Ratio (z) = 0.17241 0.17242
#
# Static dielectric constant tensor:
#      x y z
#    x 1.922550 0.000000 0.000000 
#    y 0.000000 1.921750 0.000000 
#    z 0.000000 0.000000 2.567550 
# 
# 
# High freq. dielectric constant tensor:
#      x y z
#    x 1.656110 0.000000 0.000000 
#    y 0.000000 1.656110 0.000000 
#    z 0.000000 0.000000 1.570180 
# 
# From -- ./inp_files/7149.got.cif
#   From: 2010.03.12/outbox.cif.g09.slc.cpg/sg133_4_cif.got.tgz:7149.got - 2010.04.06 18:08:06.
