data_PCOD8316367
_publ_section_title
;
Structure prediction by ZEFSAII (Michael W. Deem and Ramdas Pophale) SiO2 
 PCOD8316367
Probable space group: P 42/M M C
;
_chemical_formula_sum "Si O2"
_cell_formula_units_Z 80
_cell_length_a 16.434589
_cell_length_b 16.434589
_cell_length_c 27.024100
_cell_angle_alpha 90.000000
_cell_angle_beta 90.000000
_cell_angle_gamma 90.000000
_cell_volume 7299.093628
_symmetry_space_group_name_H-M "P 42/M M C"
_symmetry_group_IT_number 131
_symmetry_cell_setting 'tetragonal'
loop_
_space_group_symop_operation_xyz
x,y,z
-x,-y,z
-y,x,1/2+z
y,-x,1/2+z
-x,y,-z
x,-y,-z
y,x,1/2-z
-y,-x,1/2-z
-x,-y,-z
x,y,-z
y,-x,1/2-z
-y,x,1/2-z
x,-y,z
-x,y,z
-y,-x,1/2+z
y,x,1/2+z
loop_
_atom_site_type_symbol
_atom_site_label
_atom_site_fract_x
_atom_site_fract_y
_atom_site_fract_z
Si Si1 0.904482 0.225571 0.643355
Si Si2 0.326428 0.095622 0.761442
Si Si3 0.095243 0.826556 0.203995
Si Si4 0.335144 0.903244 0.055217
Si Si5 0.902973 0.500000 0.603789
Si Si6 0.500000 0.097359 0.216097
O O1 0.881912 0.292771 0.684399
O O2 0.855276 0.142843 0.654975
O O3 0.875800 0.260590 0.590419
O O4 0.000000 0.205301 0.644119
O O5 0.264423 0.126717 0.719035
O O6 0.418477 0.130896 0.756299
O O7 0.330594 0.000000 0.756518
O O8 0.113109 0.886891 0.250000
O O9 0.000000 0.828485 0.191954
O O10 0.420562 0.868707 0.075642
O O11 0.340160 0.000000 0.055092
O O12 0.319346 0.869299 0.000000
O O13 0.870542 0.500000 0.659858
O O14 0.000000 0.500000 0.603538
O O15 0.500000 0.000000 0.215653
#
# Coordination Sequence:
#
# PCOD8316367 Si02
#       6
#    16  16  16  16   8   8
#     4   9  15  22  30  40  56  78 103 132 161 179
#     4   8  13  20  29  42  57  74  94 118 148 183
#     4   9  16  23  31  42  55  72 101 135 162 181
#     4   9  15  21  29  42  58  76 101 130 156 182
#     4   9  13  18  29  42  58  78  98 121 148 181
#     4   9  12  17  30  43  60  78  91 112 147 187
#
# _framework density 10.960265
#
# number of rings (size 3 to 8) (size 9 to 14) (size 15 to 20)
#    0.000    3.200    2.000    2.100    0.000    2.600 
#    0.000    0.000    0.000    0.600    0.000    2.800 
#    0.000    0.000    0.000    0.900    0.000   71.200 
#
# Total GULP energy -991132.650905 kJ/mol
# GULP energy per Si atom -12389.158136 kJ/mol
# Density = 1.093532 g / cm^3
# Si number density = 10.960265 Si / 1000 Ang^3
#
#
#
# Elastic Constant Matrix: (Units=GPa)
#
#
# Indices 1 2 3 4 5 6 
#
# 1 56.5937 23.8824 33.2964 0.0000 0.0000 0.0000
# 2 23.8824 56.5929 33.2967 0.0000 0.0000 0.0000
# 3 33.2964 33.2967 55.7171 0.0000 0.0000 0.0000
# 4 0.0000 0.0000 0.0000 9.5582 0.0000 0.0000
# 5 0.0000 0.0000 0.0000 0.0000 9.5581 0.0000
# 6 0.0000 0.0000 0.0000 0.0000 0.0000 1.1102
#
#
#
# Elastic Compliance Matrix: (Units=1/GPa)
#
#
# Indices 1 2 3 4 5 6 
#
# 1 0.027576 -0.002994 -0.014690 0.000000 0.000000 0.000000
# 2 -0.002994 0.027577 -0.014691 0.000000 0.000000 0.000000
# 3 -0.014690 -0.014691 0.035506 0.000000 0.000000 0.000000
# 4 0.000000 0.000000 0.000000 0.104622 0.000000 0.000000
# 5 0.000000 0.000000 0.000000 0.000000 0.104623 0.000000
# 6 0.000000 0.000000 0.000000 0.000000 0.000000 0.900767
#
#
# Mechanical properties :
#
#
# Convention : Reuss Voigt Hill
#
# Bulk Modulus (GPa) = 38.59688 38.87273 38.73481
# Shear Modulus (GPa) = 3.92447 9.27385 6.59916
#
# Velocity S-wave (km/s) = 1.89431 2.91199 2.45643
# Velocity P-wave (km/s) = 6.33058 6.84472 6.59267
#
# Compressibility (1/GPa) = 0.02590883
#
# Stress axis : x y z
#
# Youngs Moduli (GPa) = 36.26319 36.26210 28.16446
#
# Poissons Ratio (x) = 0.10858 0.41374
# Poissons Ratio (y) = 0.10858 0.41376
# Poissons Ratio (z) = 0.53271 0.53272
#
# Static dielectric constant tensor:
#      x y z
#    x 2.310780 0.000000 0.000000 
#    y 0.000000 2.310780 0.000000 
#    z 0.000000 0.000000 2.348650 
# 
# 
# High freq. dielectric constant tensor:
#      x y z
#    x 1.384810 0.000000 0.000000 
#    y 0.000000 1.384810 0.000000 
#    z 0.000000 0.000000 1.396400 
# 
# From -- ./inp_files/9847.got.cif
#   From: 2010.03.12/outbox.cif.g09.slc.cpg/sg131_5_cif.got.tgz:9847.got - 2010.04.06 17:36:35.
