data_PCOD8316444
_publ_section_title
;
Structure prediction by ZEFSAII (Michael W. Deem and Ramdas Pophale) SiO2 
 PCOD8316444
Probable space group: P 42/M C M
;
_chemical_formula_sum "Si O2"
_cell_formula_units_Z 112
_cell_length_a 20.633529
_cell_length_b 20.633529
_cell_length_c 18.037181
_cell_angle_alpha 90.000000
_cell_angle_beta 90.000000
_cell_angle_gamma 90.000000
_cell_volume 7679.194874
_symmetry_space_group_name_H-M "P 42/M C M"
_symmetry_group_IT_number 132
_symmetry_cell_setting 'tetragonal'
loop_
_space_group_symop_operation_xyz
x,y,z
-y,x,1/2+z
-x,-y,z
y,-x,1/2+z
x,-y,1/2-z
-x,y,1/2-z
y,x,-z
-y,-x,-z
-x,-y,-z
y,-x,1/2-z
x,y,-z
-y,x,1/2-z
-x,y,1/2+z
x,-y,1/2+z
-y,-x,z
y,x,z
loop_
_atom_site_type_symbol
_atom_site_label
_atom_site_fract_x
_atom_site_fract_y
_atom_site_fract_z
Si Si1 0.960142 0.363767 0.412869
Si Si2 0.036266 0.136280 0.820443
Si Si3 0.932337 0.726862 0.789522
Si Si4 0.923976 0.179481 0.081338
Si Si5 0.887831 0.612207 0.585675
Si Si6 0.074570 0.489696 0.163469
Si Si7 0.725855 0.166401 0.170580
O O1 0.943148 0.365314 0.500000
O O2 0.934817 0.298133 0.374217
O O3 0.916646 0.417487 0.368974
O O4 0.037730 0.366287 0.400242
O O5 0.083200 0.083200 0.856196
O O6 0.076613 0.195962 0.787262
O O7 0.000000 0.104323 0.750000
O O8 0.993462 0.165131 0.885585
O O9 0.866413 0.703264 0.748192
O O10 0.000000 0.704603 0.750000
O O11 0.888916 0.111085 0.074372
O O12 0.884927 0.227116 0.132863
O O13 0.932005 0.211851 0.000000
O O14 0.870981 0.607965 0.500000
O O15 0.879885 0.540460 0.620143
O O16 0.833502 0.660475 0.621020
O O17 0.089720 0.500000 0.250000
O O18 0.000000 0.500000 0.144585
O O19 0.762949 0.237052 0.176898
#
# Coordination Sequence:
#
# PCOD8316444 Si02
#       7
#    16  16  16  16  16  16  16
#     4  10  19  30  46  66  88 112 136 168 216 269
#     4  11  21  33  46  59  74  97 131 173 223 276
#     4  11  19  31  47  62  78 102 138 172 215 264
#     4  10  20  32  44  58  74  93 122 165 217 272
#     4  10  18  28  42  64  89 110 135 171 213 264
#     4   9  17  27  44  65  90 114 137 162 199 257
#     4  11  20  32  47  62  80 107 141 178 218 268
#
# _framework density 14.584861999999999
#
# number of rings (size 3 to 8) (size 9 to 14) (size 15 to 20)
#    0.000    1.714    4.286    2.571    2.000    5.571 
#    0.000    0.714    0.000    1.286    0.000    0.000 
#    0.000    0.000    0.000    0.000    0.000    0.000 
#
# Total GULP energy -1387575.191220 kJ/mol
# GULP energy per Si atom -12389.064207 kJ/mol
# Density = 1.455167 g / cm^3
# Si number density = 14.584862 Si / 1000 Ang^3
#
#
#
# Elastic Constant Matrix: (Units=GPa)
#
#
# Indices 1 2 3 4 5 6 
#
# 1 38.7597 21.0623 11.3546 0.0000 0.0000 0.0000
# 2 21.0623 38.7597 11.3546 0.0000 0.0000 0.0000
# 3 11.3546 11.3546 61.7016 0.0000 0.0000 0.0000
# 4 0.0000 0.0000 0.0000 15.6159 0.0000 0.0000
# 5 0.0000 0.0000 0.0000 0.0000 15.6159 0.0000
# 6 0.0000 0.0000 0.0000 0.0000 0.0000 12.6830
#
#
#
# Elastic Compliance Matrix: (Units=1/GPa)
#
#
# Indices 1 2 3 4 5 6 
#
# 1 0.037239 -0.019267 -0.003307 0.000000 0.000000 0.000000
# 2 -0.019267 0.037239 -0.003307 0.000000 0.000000 0.000000
# 3 -0.003307 -0.003307 0.017424 0.000000 0.000000 0.000000
# 4 0.000000 0.000000 0.000000 0.064037 0.000000 0.000000
# 5 0.000000 0.000000 0.000000 0.000000 0.064037 0.000000
# 6 0.000000 0.000000 0.000000 0.000000 0.000000 0.078845
#
#
# Mechanical properties :
#
#
# Convention : Reuss Voigt Hill
#
# Bulk Modulus (GPa) = 24.91357 25.19601 25.05479
# Shear Modulus (GPa) = 13.73761 15.14625 14.44193
#
# Velocity S-wave (km/s) = 3.07238 3.22606 3.15016
# Velocity P-wave (km/s) = 5.45022 5.58476 5.51790
#
# Compressibility (1/GPa) = 0.04013876
#
# Stress axis : x y z
#
# Youngs Moduli (GPa) = 26.85381 26.85381 57.39128
#
# Poissons Ratio (x) = 0.51739 0.18981
# Poissons Ratio (y) = 0.51739 0.18981
# Poissons Ratio (z) = 0.08881 0.08881
#
# Static dielectric constant tensor:
#      x y z
#    x 2.766360 0.000000 0.000000 
#    y 0.000000 2.766360 0.000000 
#    z 0.000000 0.000000 2.996180 
# 
# 
# High freq. dielectric constant tensor:
#      x y z
#    x 1.517330 0.000000 0.000000 
#    y 0.000000 1.517330 0.000000 
#    z 0.000000 0.000000 1.573180 
# 
# From -- ./inp_files/6777.got.cif
#   From: 2010.03.12/outbox.cif.g09.slc.cpg/sg132_4_cif.got.tgz:6777.got - 2010.04.06 17:53:44.
