data_PCOD8316313
_publ_section_title
;
Structure prediction by ZEFSAII (Michael W. Deem and Ramdas Pophale) SiO2 
 PCOD8316313
Probable space group: P 42/M M C
;
_chemical_formula_sum "Si O2"
_cell_formula_units_Z 48
_cell_length_a 10.153044
_cell_length_b 10.153044
_cell_length_c 25.138062
_cell_angle_alpha 90.000000
_cell_angle_beta 90.000000
_cell_angle_gamma 90.000000
_cell_volume 2591.339587
_symmetry_space_group_name_H-M "P 42/M M C"
_symmetry_group_IT_number 131
_symmetry_cell_setting 'tetragonal'
loop_
_space_group_symop_operation_xyz
x,y,z
-x,-y,z
-y,x,1/2+z
y,-x,1/2+z
-x,y,-z
x,-y,-z
y,x,1/2-z
-y,-x,1/2-z
-x,-y,-z
x,y,-z
y,-x,1/2-z
-y,x,1/2-z
x,-y,z
-x,y,z
-y,-x,1/2+z
y,x,1/2+z
loop_
_atom_site_type_symbol
_atom_site_label
_atom_site_fract_x
_atom_site_fract_y
_atom_site_fract_z
Si Si1 0.500000 0.740668 0.674227
Si Si2 0.000000 0.000000 0.750000
Si Si3 0.740287 0.000000 0.177819
Si Si4 0.500000 0.500000 0.750000
Si Si5 0.351474 0.653974 0.500000
Si Si6 0.000000 0.500000 0.757928
Si Si7 0.657108 0.248609 0.887075
O O1 0.500000 0.631472 0.718010
O O2 0.373632 0.725094 0.638298
O O3 0.500000 0.878030 0.703247
O O4 0.000000 0.124312 0.710477
O O5 0.627322 0.000000 0.221432
O O6 0.728162 0.123809 0.138638
O O7 0.500000 0.718697 0.500000
O O8 0.376852 0.500000 0.500000
O O9 0.261727 0.692226 0.550617
O O10 0.500000 0.244132 0.876543
#
# Coordination Sequence:
#
# PCOD8316313 Si02
#       7
#     8   2   8   2   8   4  16
#     4  12  22  35  59  84 123 162 204 251 318 360
#     4  12  28  48  64  82 128 180 204 244 328 378
#     4  12  24  43  61  86 121 160 214 257 300 374
#     4  12  20  32  56  86 104 156 216 268 296 362
#     4   9  18  33  61  96 129 157 193 252 323 365
#     4  12  24  40  56  92 126 162 210 264 304 362
#     4  11  20  38  62  93 125 157 204 259 305 370
#
# _framework density 18.523237999999999
#
# number of rings (size 3 to 8) (size 9 to 14) (size 15 to 20)
#    0.000    0.833    5.000    4.000    0.000    0.667 
#    0.000    2.500    0.000    6.000    0.000    0.000 
#    0.000    0.000    0.000    0.000    0.000    0.000 
#
# Total GULP energy -595049.330013 kJ/mol
# GULP energy per Si atom -12396.861042 kJ/mol
# Density = 1.848108 g / cm^3
# Si number density = 18.523238 Si / 1000 Ang^3
#
#
#
# Elastic Constant Matrix: (Units=GPa)
#
#
# Indices 1 2 3 4 5 6 
#
# 1 159.5383 38.1527 86.0674 0.0000 0.0000 0.0000
# 2 38.1527 159.5383 86.0674 0.0000 0.0000 0.0000
# 3 86.0674 86.0674 178.2038 0.0000 0.0000 0.0000
# 4 0.0000 0.0000 0.0000 5.0867 0.0000 0.0000
# 5 0.0000 0.0000 0.0000 0.0000 5.0867 0.0000
# 6 0.0000 0.0000 0.0000 0.0000 0.0000 42.0082
#
#
#
# Elastic Compliance Matrix: (Units=1/GPa)
#
#
# Indices 1 2 3 4 5 6 
#
# 1 0.008484 0.000246 -0.004216 0.000000 0.000000 0.000000
# 2 0.000246 0.008484 -0.004216 0.000000 0.000000 0.000000
# 3 -0.004216 -0.004216 0.009684 0.000000 0.000000 0.000000
# 4 0.000000 0.000000 0.000000 0.196591 0.000000 0.000000
# 5 0.000000 0.000000 0.000000 0.000000 0.196591 0.000000
# 6 0.000000 0.000000 0.000000 0.000000 0.000000 0.023805
#
#
# Mechanical properties :
#
#
# Convention : Reuss Voigt Hill
#
# Bulk Modulus (GPa) = 97.28918 101.98393 99.63656
# Shear Modulus (GPa) = 10.78895 29.56918 20.17906
#
# Velocity S-wave (km/s) = 2.41603 3.99974 3.30417
# Velocity P-wave (km/s) = 7.77301 8.74685 8.27427
#
# Compressibility (1/GPa) = 0.01027863
#
# Stress axis : x y z
#
# Youngs Moduli (GPa) = 117.87132 117.87132 103.26271
#
# Poissons Ratio (x) = -0.02895 0.43536
# Poissons Ratio (y) = -0.02895 0.43536
# Poissons Ratio (z) = 0.49695 0.49695
#
# Static dielectric constant tensor:
#      x y z
#    x 3.362200 0.000000 0.000000 
#    y 0.000000 3.362200 0.000000 
#    z 0.000000 0.000000 3.643180 
# 
# 
# High freq. dielectric constant tensor:
#      x y z
#    x 1.712250 0.000000 0.000000 
#    y 0.000000 1.712250 0.000000 
#    z 0.000000 0.000000 1.740560 
# 
# From -- ./inp_files/13076.got.cif
#   From: 2010.03.12/outbox.cif.g09.slc.cpg/sg131_7_cif.got.tgz:13076.got - 2010.04.06 17:36:35.
