data_PCOD8316591
_publ_section_title
;
Structure prediction by ZEFSAII (Michael W. Deem and Ramdas Pophale) SiO2 
 PCOD8316591
Probable space group: P 42/M C M
;
_chemical_formula_sum "Si O2"
_cell_formula_units_Z 96
_cell_length_a 24.429078
_cell_length_b 24.429078
_cell_length_c 9.149792
_cell_angle_alpha 90.000000
_cell_angle_beta 90.000000
_cell_angle_gamma 90.000000
_cell_volume 5460.411515
_symmetry_space_group_name_H-M "P 42/M C M"
_symmetry_group_IT_number 132
_symmetry_cell_setting 'tetragonal'
loop_
_space_group_symop_operation_xyz
x,y,z
-y,x,1/2+z
-x,-y,z
y,-x,1/2+z
x,-y,1/2-z
-x,y,1/2-z
y,x,-z
-y,-x,-z
-x,-y,-z
y,-x,1/2-z
x,y,-z
-y,x,1/2-z
-x,y,1/2+z
x,-y,1/2+z
-y,-x,z
y,x,z
loop_
_atom_site_type_symbol
_atom_site_label
_atom_site_fract_x
_atom_site_fract_y
_atom_site_fract_z
Si Si1 0.267141 0.945820 0.829794
Si Si2 0.945081 0.857173 0.328304
Si Si3 0.838149 0.332028 0.825965
Si Si4 0.258695 0.258695 0.658691
Si Si5 0.651302 0.651302 0.659812
Si Si6 0.177832 0.446817 0.164757
Si Si7 0.693234 0.449286 0.337656
O O1 0.205111 0.931360 0.781735
O O2 0.306977 0.896658 0.786098
O O3 0.288697 0.000000 0.750000
O O4 0.269555 0.957948 0.000000
O O5 0.954656 0.862248 0.500000
O O6 0.894534 0.894534 0.276231
O O7 0.000000 0.877964 0.250000
O O8 0.792895 0.288528 0.761914
O O9 0.835261 0.390957 0.750176
O O10 0.829050 0.339706 0.000000
O O11 0.237476 0.237476 0.500000
O O12 0.303775 0.303775 0.634120
O O13 0.630824 0.630824 0.500000
O O14 0.604001 0.678346 0.750695
O O15 0.153213 0.500000 0.250000
O O16 0.242164 0.454635 0.152742
O O17 0.153027 0.444396 0.000000
O O18 0.667503 0.500000 0.250000
O O19 0.667694 0.447633 0.500000
#
# Coordination Sequence:
#
# PCOD8316591 Si02
#       7
#    16  16  16   8   8  16  16
#     4   9  19  34  54  75 101 136 175 215 256 307
#     4   9  18  32  49  71  98 131 172 216 260 307
#     4  10  19  33  53  78 105 137 172 211 256 306
#     4   9  18  29  47  77 108 134 166 206 253 308
#     4  11  19  31  51  74 104 137 167 210 258 307
#     4  10  20  33  51  75 105 138 170 208 251 303
#     4  10  20  33  49  71 100 136 175 212 253 304
#
# _framework density 17.581092999999999
#
# number of rings (size 3 to 8) (size 9 to 14) (size 15 to 20)
#    0.000    2.333    1.667    1.250    1.167    2.500 
#    0.000    1.250    0.000    0.750    0.000    5.250 
#    0.000    0.000    0.000    0.000    0.000    0.000 
#
# Total GULP energy -1189917.770119 kJ/mol
# GULP energy per Si atom -12394.976772 kJ/mol
# Density = 1.754108 g / cm^3
# Si number density = 17.581093 Si / 1000 Ang^3
#
#
#
# Elastic Constant Matrix: (Units=GPa)
#
#
# Indices 1 2 3 4 5 6 
#
# 1 97.4320 44.5907 40.8693 0.0000 0.0000 0.0000
# 2 44.5907 97.4320 40.8693 0.0000 0.0000 0.0000
# 3 40.8693 40.8693 91.0576 0.0000 0.0000 0.0000
# 4 0.0000 0.0000 0.0000 28.9449 0.0000 0.0000
# 5 0.0000 0.0000 0.0000 0.0000 28.9449 0.0000
# 6 0.0000 0.0000 0.0000 0.0000 0.0000 18.7243
#
#
#
# Elastic Compliance Matrix: (Units=1/GPa)
#
#
# Indices 1 2 3 4 5 6 
#
# 1 0.014209 -0.004716 -0.004261 0.000000 0.000000 0.000000
# 2 -0.004716 0.014209 -0.004261 0.000000 0.000000 0.000000
# 3 -0.004261 -0.004261 0.014807 0.000000 0.000000 0.000000
# 4 0.000000 0.000000 0.000000 0.034548 0.000000 0.000000
# 5 0.000000 0.000000 0.000000 0.000000 0.034548 0.000000
# 6 0.000000 0.000000 0.000000 0.000000 0.000000 0.053407
#
#
# Mechanical properties :
#
#
# Convention : Reuss Voigt Hill
#
# Bulk Modulus (GPa) = 59.70130 59.84228 59.77179
# Shear Modulus (GPa) = 25.27977 25.96229 25.62103
#
# Velocity S-wave (km/s) = 3.79607 3.84698 3.82161
# Velocity P-wave (km/s) = 7.29691 7.33785 7.31741
#
# Compressibility (1/GPa) = 0.01675005
#
# Stress axis : x y z
#
# Youngs Moduli (GPa) = 70.37791 70.37791 67.53598
#
# Poissons Ratio (x) = 0.33187 0.28777
# Poissons Ratio (y) = 0.33187 0.28777
# Poissons Ratio (z) = 0.29988 0.29988
#
# Static dielectric constant tensor:
#      x y z
#    x 3.060040 0.000000 0.000000 
#    y 0.000000 3.060040 0.000000 
#    z 0.000000 0.000000 3.381040 
# 
# 
# High freq. dielectric constant tensor:
#      x y z
#    x 1.668440 0.000000 0.000000 
#    y 0.000000 1.668440 0.000000 
#    z 0.000000 0.000000 1.677370 
# 
# From -- ./inp_files/1862.got.cif
#   From: 2010.03.12/outbox.cif.g09.slc.cpg/sg132_1_cif.got.tgz:1862.got - 2010.04.06 17:53:44.
