data_PCOD8316358
_publ_section_title
;
Structure prediction by ZEFSAII (Michael W. Deem and Ramdas Pophale) SiO2 
 PCOD8316358
Probable space group: P 42/M M C
;
_chemical_formula_sum "Si O2"
_cell_formula_units_Z 48
_cell_length_a 9.761236
_cell_length_b 9.761236
_cell_length_c 24.323488
_cell_angle_alpha 90.000000
_cell_angle_beta 90.000000
_cell_angle_gamma 90.000000
_cell_volume 2317.583974
_symmetry_space_group_name_H-M "P 42/M M C"
_symmetry_group_IT_number 131
_symmetry_cell_setting 'tetragonal'
loop_
_space_group_symop_operation_xyz
x,y,z
-x,-y,z
-y,x,1/2+z
y,-x,1/2+z
-x,y,-z
x,-y,-z
y,x,1/2-z
-y,-x,1/2-z
-x,-y,-z
x,y,-z
y,-x,1/2-z
-y,x,1/2-z
x,-y,z
-x,y,z
-y,-x,1/2+z
y,x,1/2+z
loop_
_atom_site_type_symbol
_atom_site_label
_atom_site_fract_x
_atom_site_fract_y
_atom_site_fract_z
Si Si1 0.500000 0.719175 0.665946
Si Si2 0.000000 0.000000 0.750000
Si Si3 0.725953 0.000000 0.182641
Si Si4 0.500000 0.500000 0.750000
Si Si5 0.335412 0.835747 0.500000
Si Si6 0.000000 0.500000 0.775891
Si Si7 0.656721 0.239125 0.900484
O O1 0.500000 0.646696 0.723285
O O2 0.500000 0.879005 0.679340
O O3 0.376806 0.660452 0.632045
O O4 0.000000 0.124516 0.707820
O O5 0.630087 0.000000 0.236256
O O6 0.703583 0.872592 0.143145
O O7 0.500000 0.803390 0.500000
O O8 0.255668 0.766829 0.550778
O O9 0.312392 0.000000 0.500000
O O10 0.500000 0.210629 0.921633
#
# Coordination Sequence:
#
# PCOD8316358 Si02
#       7
#     8   2   8   2   8   4  16
#     4  12  24  37  72  96 139 186 231 291 346 410
#     4  12  28  48  72  98 148 192 236 284 344 426
#     4  12  26  47  68 102 141 188 229 285 354 420
#     4  12  20  40  56 106 124 176 248 272 344 434
#     4  11  27  46  75 108 138 179 236 298 366 419
#     4  12  24  44  64 102 146 182 238 286 340 418
#     4  12  24  46  70 104 143 182 235 294 353 419
#
# _framework density 20.711224999999999
#
# number of rings (size 3 to 8) (size 9 to 14) (size 15 to 20)
#    0.000    0.167    5.000    4.500    4.667    1.333 
#    0.000    2.500    0.000    0.000    0.000    0.000 
#    0.000    0.000    0.000    0.000    0.000    0.000 
#
# Total GULP energy -594721.886009 kJ/mol
# GULP energy per Si atom -12390.039292 kJ/mol
# Density = 2.066409 g / cm^3
# Si number density = 20.711225 Si / 1000 Ang^3
#
#
#
# Elastic Constant Matrix: (Units=GPa)
#
#
# Indices 1 2 3 4 5 6 
#
# 1 150.5129 20.2362 35.6425 0.0000 0.0000 0.0000
# 2 20.2362 150.5129 35.6425 0.0000 0.0000 0.0000
# 3 35.6425 35.6425 82.4976 0.0000 0.0000 0.0000
# 4 0.0000 0.0000 0.0000 41.4310 0.0000 0.0000
# 5 0.0000 0.0000 0.0000 0.0000 41.4310 0.0000
# 6 0.0000 0.0000 0.0000 0.0000 0.0000 27.3350
#
#
#
# Elastic Compliance Matrix: (Units=1/GPa)
#
#
# Indices 1 2 3 4 5 6 
#
# 1 0.007411 -0.000265 -0.003087 0.000000 0.000000 0.000000
# 2 -0.000265 0.007411 -0.003087 0.000000 0.000000 0.000000
# 3 -0.003087 -0.003087 0.014789 0.000000 0.000000 0.000000
# 4 0.000000 0.000000 0.000000 0.024137 0.000000 0.000000
# 5 0.000000 0.000000 0.000000 0.000000 0.024137 0.000000
# 6 0.000000 0.000000 0.000000 0.000000 0.000000 0.036583
#
#
# Mechanical properties :
#
#
# Convention : Reuss Voigt Hill
#
# Bulk Modulus (GPa) = 59.76786 62.95174 61.35980
# Shear Modulus (GPa) = 37.61582 41.50621 39.56102
#
# Velocity S-wave (km/s) = 4.26632 4.48151 4.37524
# Velocity P-wave (km/s) = 7.29308 7.56568 7.43063
#
# Compressibility (1/GPa) = 0.01673140
#
# Stress axis : x y z
#
# Youngs Moduli (GPa) = 134.94060 134.94060 67.61744
#
# Poissons Ratio (x) = 0.03580 0.20874
# Poissons Ratio (y) = 0.03580 0.20874
# Poissons Ratio (z) = 0.41658 0.41658
#
# Static dielectric constant tensor:
#      x y z
#    x 4.672900 0.000000 0.000000 
#    y 0.000000 4.672900 0.000000 
#    z 0.000000 0.000000 4.265350 
# 
# 
# High freq. dielectric constant tensor:
#      x y z
#    x 1.826350 0.000000 0.000000 
#    y 0.000000 1.826350 0.000000 
#    z 0.000000 0.000000 1.822970 
# 
# From -- ./inp_files/13077.got.cif
#   From: 2010.03.12/outbox.cif.g09.slc.cpg/sg131_7_cif.got.tgz:13077.got - 2010.04.06 17:36:35.
