data_PCOD8316634
_publ_section_title
;
Structure prediction by ZEFSAII (Michael W. Deem and Ramdas Pophale) SiO2 
 PCOD8316634
Probable space group: P 42/M C M
;
_chemical_formula_sum "Si O2"
_cell_formula_units_Z 42
_cell_length_a 14.456194
_cell_length_b 14.456194
_cell_length_c 10.210858
_cell_angle_alpha 90.000000
_cell_angle_beta 90.000000
_cell_angle_gamma 90.000000
_cell_volume 2133.880880
_symmetry_space_group_name_H-M "P 42/M C M"
_symmetry_group_IT_number 132
_symmetry_cell_setting 'tetragonal'
loop_
_space_group_symop_operation_xyz
x,y,z
-y,x,1/2+z
-x,-y,z
y,-x,1/2+z
x,-y,1/2-z
-x,y,1/2-z
y,x,-z
-y,-x,-z
-x,-y,-z
y,-x,1/2-z
x,y,-z
-y,x,1/2-z
-x,y,1/2+z
x,-y,1/2+z
-y,-x,z
y,x,z
loop_
_atom_site_type_symbol
_atom_site_label
_atom_site_fract_x
_atom_site_fract_y
_atom_site_fract_z
Si Si1 0.649709 0.500000 0.750000
Si Si2 0.000000 0.000000 0.250000
Si Si3 0.583499 0.736584 0.000000
Si Si4 0.954208 0.399891 0.500000
Si Si5 0.000000 0.282992 0.750000
Si Si6 0.137107 0.137107 0.349910
O O1 0.586624 0.413377 0.790715
O O2 0.713513 0.476820 0.627164
O O3 0.940982 0.059019 0.147573
O O4 0.601097 0.844328 0.000000
O O5 0.679553 0.679553 0.000000
O O6 0.989356 0.346607 0.625565
O O7 0.000000 0.500000 0.500000
O O8 0.905703 0.223842 0.770824
O O9 0.163112 0.163112 0.500000
#
# Coordination Sequence:
#
# PCOD8316634 Si02
#       6
#     8   2   8   8   8   8
#     4   9  18  38  67  98 128 160 203 266 328 379
#     4   8  18  28  64  94 136 158 192 258 336 374
#     4  10  23  40  65  96 128 167 219 261 313 390
#     4  12  28  46  64  91 133 181 217 266 331 395
#     4  11  25  43  71  94 130 174 213 275 327 391
#     4  10  19  40  64 100 128 158 217 265 326 377
#
# _framework density 19.682448000000001
#
# number of rings (size 3 to 8) (size 9 to 14) (size 15 to 20)
#    0.000    1.714    1.905    1.429    8.000    2.286 
#    0.000    0.000    4.190    0.000    0.000    0.000 
#    0.000    0.000    0.000    0.000    0.000    0.000 
#
# Total GULP energy -520763.337501 kJ/mol
# GULP energy per Si atom -12399.127083 kJ/mol
# Density = 1.963765 g / cm^3
# Si number density = 19.682448 Si / 1000 Ang^3
#
#
#
# Elastic Constant Matrix: (Units=GPa)
#
#
# Indices 1 2 3 4 5 6 
#
# 1 129.2647 56.6188 69.9129 0.0000 0.0000 0.0000
# 2 56.6188 129.2647 69.9129 0.0000 0.0000 0.0000
# 3 69.9129 69.9129 163.3428 0.0000 0.0000 0.0000
# 4 0.0000 0.0000 0.0000 29.6238 0.0000 0.0000
# 5 0.0000 0.0000 0.0000 0.0000 29.6238 0.0000
# 6 0.0000 0.0000 0.0000 0.0000 0.0000 23.4974
#
#
#
# Elastic Compliance Matrix: (Units=1/GPa)
#
#
# Indices 1 2 3 4 5 6 
#
# 1 0.010850 -0.002916 -0.003396 0.000000 0.000000 0.000000
# 2 -0.002916 0.010850 -0.003396 0.000000 0.000000 0.000000
# 3 -0.003396 -0.003396 0.009029 0.000000 0.000000 0.000000
# 4 0.000000 0.000000 0.000000 0.033757 0.000000 0.000000
# 5 0.000000 0.000000 0.000000 0.000000 0.033757 0.000000
# 6 0.000000 0.000000 0.000000 0.000000 0.000000 0.042558
#
#
# Mechanical properties :
#
#
# Convention : Reuss Voigt Hill
#
# Bulk Modulus (GPa) = 88.38798 90.52905 89.45851
# Shear Modulus (GPa) = 30.49038 31.57751 31.03395
#
# Velocity S-wave (km/s) = 3.94015 4.00978 3.97512
# Velocity P-wave (km/s) = 8.10581 8.21781 8.16200
#
# Compressibility (1/GPa) = 0.01131376
#
# Stress axis : x y z
#
# Youngs Moduli (GPa) = 92.16748 92.16748 110.75268
#
# Poissons Ratio (x) = 0.26872 0.37611
# Poissons Ratio (y) = 0.26872 0.37611
# Poissons Ratio (z) = 0.31300 0.31300
#
# Static dielectric constant tensor:
#      x y z
#    x 3.675650 0.000000 0.000000 
#    y 0.000000 3.675650 0.000000 
#    z 0.000000 0.000000 3.638940 
# 
# 
# High freq. dielectric constant tensor:
#      x y z
#    x 1.766880 0.000000 0.000000 
#    y 0.000000 1.766880 0.000000 
#    z 0.000000 0.000000 1.782020 
# 
# From -- ./inp_files/627.got.cif
#   From: 2010.03.12/outbox.cif.g09.slc.cpg/sg132_1_cif.got.tgz:627.got - 2010.04.06 17:53:44.
