data_PCOD8316135
_publ_section_title
;
Structure prediction by ZEFSAII (Michael W. Deem and Ramdas Pophale) SiO2 
 PCOD8316135
Probable space group: P 42/M M C
;
_chemical_formula_sum "Si O2"
_cell_formula_units_Z 80
_cell_length_a 12.769573
_cell_length_b 12.769573
_cell_length_c 29.081007
_cell_angle_alpha 90.000000
_cell_angle_beta 90.000000
_cell_angle_gamma 90.000000
_cell_volume 4742.007006
_symmetry_space_group_name_H-M "P 42/M M C"
_symmetry_group_IT_number 131
_symmetry_cell_setting 'tetragonal'
loop_
_space_group_symop_operation_xyz
x,y,z
-x,-y,z
-y,x,1/2+z
y,-x,1/2+z
-x,y,-z
x,-y,-z
y,x,1/2-z
-y,-x,1/2-z
-x,-y,-z
x,y,-z
y,-x,1/2-z
-y,x,1/2-z
x,-y,z
-x,y,z
-y,-x,1/2+z
y,x,1/2+z
loop_
_atom_site_type_symbol
_atom_site_label
_atom_site_fract_x
_atom_site_fract_y
_atom_site_fract_z
Si Si1 0.000000 0.374596 0.388264
Si Si2 0.620269 0.810123 0.947967
Si Si3 0.211179 0.375638 0.767187
Si Si4 0.113652 0.622996 0.860078
Si Si5 0.000000 0.623790 0.284474
Si Si6 0.380542 0.235813 0.448343
O O1 0.103179 0.330053 0.414002
O O2 0.000000 0.500000 0.390842
O O3 0.000000 0.331793 0.336351
O O4 0.500000 0.796095 0.936028
O O5 0.666776 0.695239 0.940382
O O6 0.638040 0.849769 0.000000
O O7 0.312653 0.312653 0.750000
O O8 0.232038 0.500000 0.760545
O O9 0.195493 0.343084 0.820638
O O10 0.105874 0.338561 0.740736
O O11 0.099904 0.500000 0.855673
O O12 0.149379 0.653604 0.911323
O O13 0.000000 0.675873 0.851852
O O14 0.000000 0.500000 0.285031
O O15 0.368098 0.189271 0.500000
O O16 0.500000 0.273618 0.439957
#
# Coordination Sequence:
#
# PCOD8316135 Si02
#       6
#     8  16  16  16   8  16
#     4   9  17  28  45  66  90 121 164 205 232 267
#     4   9  17  29  45  66  96 130 159 192 235 283
#     4  10  20  34  53  76 103 133 165 202 246 296
#     4   9  17  32  51  69  93 127 164 199 240 286
#     4   9  18  33  50  72  98 130 169 204 242 291
#     4   9  18  30  45  70  99 125 157 195 238 289
#
# _framework density 16.870494000000001
#
# number of rings (size 3 to 8) (size 9 to 14) (size 15 to 20)
#    0.000    2.800    1.000    0.300    2.800    2.200 
#    0.000    4.000    0.000    3.900    0.000    2.100 
#    0.000    3.200    0.000    0.000    0.000    0.000 
#
# Total GULP energy -991410.585683 kJ/mol
# GULP energy per Si atom -12392.632321 kJ/mol
# Density = 1.683210 g / cm^3
# Si number density = 16.870494 Si / 1000 Ang^3
#
#
#
# Elastic Constant Matrix: (Units=GPa)
#
#
# Indices 1 2 3 4 5 6 
#
# 1 69.6056 39.7921 48.1848 0.0000 0.0000 0.0000
# 2 39.7921 69.6056 48.1848 0.0000 0.0000 0.0000
# 3 48.1848 48.1848 134.8227 0.0000 0.0000 0.0000
# 4 0.0000 0.0000 0.0000 17.0434 0.0000 0.0000
# 5 0.0000 0.0000 0.0000 0.0000 17.0434 0.0000
# 6 0.0000 0.0000 0.0000 0.0000 0.0000 4.8559
#
#
#
# Elastic Compliance Matrix: (Units=1/GPa)
#
#
# Indices 1 2 3 4 5 6 
#
# 1 0.023442 -0.010100 -0.004768 0.000000 0.000000 0.000000
# 2 -0.010100 0.023442 -0.004768 0.000000 0.000000 0.000000
# 3 -0.004768 -0.004768 0.010825 0.000000 0.000000 0.000000
# 4 0.000000 0.000000 0.000000 0.058674 0.000000 0.000000
# 5 0.000000 0.000000 0.000000 0.000000 0.058674 0.000000
# 6 0.000000 0.000000 0.000000 0.000000 0.000000 0.205937
#
#
# Mechanical properties :
#
#
# Convention : Reuss Voigt Hill
#
# Bulk Modulus (GPa) = 54.24335 60.70636 57.47485
# Shear Modulus (GPa) = 11.72579 16.98001 14.35290
#
# Velocity S-wave (km/s) = 2.63923 3.17597 2.91996
# Velocity P-wave (km/s) = 6.44283 7.03640 6.74614
#
# Compressibility (1/GPa) = 0.01843544
#
# Stress axis : x y z
#
# Youngs Moduli (GPa) = 42.65932 42.65932 92.37627
#
# Poissons Ratio (x) = 0.43087 0.44045
# Poissons Ratio (y) = 0.43087 0.44045
# Poissons Ratio (z) = 0.20340 0.20340
#
# Static dielectric constant tensor:
#      x y z
#    x 2.993950 0.000000 0.000000 
#    y 0.000000 2.993950 0.000000 
#    z 0.000000 0.000000 3.559530 
# 
# 
# High freq. dielectric constant tensor:
#      x y z
#    x 1.620880 0.000000 0.000000 
#    y 0.000000 1.620880 0.000000 
#    z 0.000000 0.000000 1.670910 
# 
# From -- ./inp_files/13457.got.cif
#   From: 2010.03.12/outbox.cif.g09.slc.cpg/sg131_7_cif.got.tgz:13457.got - 2010.04.06 17:36:35.
