data_PCOD8316528
_publ_section_title
;
Structure prediction by ZEFSAII (Michael W. Deem and Ramdas Pophale) SiO2 
 PCOD8316528
Probable space group: P 42/M C M
;
_chemical_formula_sum "Si O2"
_cell_formula_units_Z 112
_cell_length_a 29.067349
_cell_length_b 29.067349
_cell_length_c 8.692071
_cell_angle_alpha 90.000000
_cell_angle_beta 90.000000
_cell_angle_gamma 90.000000
_cell_volume 7344.024470
_symmetry_space_group_name_H-M "P 42/M C M"
_symmetry_group_IT_number 132
_symmetry_cell_setting 'tetragonal'
loop_
_space_group_symop_operation_xyz
x,y,z
-y,x,1/2+z
-x,-y,z
y,-x,1/2+z
x,-y,1/2-z
-x,y,1/2-z
y,x,-z
-y,-x,-z
-x,-y,-z
y,-x,1/2-z
x,y,-z
-y,x,1/2-z
-x,y,1/2+z
x,-y,1/2+z
-y,-x,z
y,x,z
loop_
_atom_site_type_symbol
_atom_site_label
_atom_site_fract_x
_atom_site_fract_y
_atom_site_fract_z
Si Si1 0.280904 0.854140 0.318103
Si Si2 0.046409 0.289828 0.328814
Si Si3 0.779002 0.354681 0.318514
Si Si4 0.397686 0.955270 0.829318
Si Si5 0.453430 0.211618 0.679649
Si Si6 0.287839 0.287839 0.328766
Si Si7 0.211258 0.211258 0.670599
Si Si8 0.886329 0.456306 0.319812
O O1 0.280533 0.853237 0.500000
O O2 0.280644 0.906817 0.263661
O O3 0.325670 0.824290 0.259013
O O4 0.233093 0.831999 0.259838
O O5 0.050828 0.268494 0.500000
O O6 0.039574 0.343760 0.341637
O O7 0.000000 0.268855 0.250000
O O8 0.781851 0.357809 0.500000
O O9 0.772604 0.405760 0.254018
O O10 0.732224 0.330281 0.266521
O O11 0.409545 0.913304 0.715606
O O12 0.419613 0.000000 0.750000
O O13 0.418864 0.948573 0.000000
O O14 0.500000 0.235358 0.750000
O O15 0.452210 0.222291 0.500000
O O16 0.456177 0.157946 0.712402
O O17 0.303438 0.303438 0.500000
O O18 0.249555 0.249555 0.343767
O O19 0.195504 0.195504 0.500000
O O20 0.915010 0.500000 0.250000
O O21 0.874308 0.459355 0.500000
#
# Coordination Sequence:
#
# PCOD8316528 Si02
#       8
#    16  16  16  16  16   8   8  16
#     4  10  19  30  46  66  89 114 142 176 216 258
#     4  10  20  32  46  62  82 107 137 171 208 250
#     4  10  19  31  47  67  90 116 144 178 219 261
#     4  10  20  33  46  60  76  96 125 163 206 252
#     4  11  21  33  47  63  83 108 139 174 211 254
#     4   9  17  29  45  67  91 115 143 176 213 256
#     4   9  17  29  45  65  89 113 141 174 211 254
#     4  11  21  33  46  59  75  96 125 163 207 254
#
# _framework density 15.250494
#
# number of rings (size 3 to 8) (size 9 to 14) (size 15 to 20)
#    0.000    1.857    0.000    6.429    0.000    7.714 
#    0.000    1.429    0.000    0.000    0.000    0.000 
#    0.000    0.000    0.000    0.000    0.000    0.714 
#
# Total GULP energy -1387786.578575 kJ/mol
# GULP energy per Si atom -12390.951594 kJ/mol
# Density = 1.521578 g / cm^3
# Si number density = 15.250494 Si / 1000 Ang^3
#
#
#
# Elastic Constant Matrix: (Units=GPa)
#
#
# Indices 1 2 3 4 5 6 
#
# 1 68.1323 40.6622 31.2236 0.0000 0.0000 0.0000
# 2 40.6622 68.1323 31.2236 0.0000 0.0000 0.0000
# 3 31.2236 31.2236 98.0391 0.0000 0.0000 0.0000
# 4 0.0000 0.0000 0.0000 24.1887 0.0000 0.0000
# 5 0.0000 0.0000 0.0000 0.0000 24.1887 0.0000
# 6 0.0000 0.0000 0.0000 0.0000 0.0000 18.1995
#
#
#
# Elastic Compliance Matrix: (Units=1/GPa)
#
#
# Indices 1 2 3 4 5 6 
#
# 1 0.023826 -0.012578 -0.003582 0.000000 0.000000 0.000000
# 2 -0.012578 0.023826 -0.003582 0.000000 0.000000 0.000000
# 3 -0.003582 -0.003582 0.012482 0.000000 0.000000 0.000000
# 4 0.000000 0.000000 0.000000 0.041342 0.000000 0.000000
# 5 0.000000 0.000000 0.000000 0.000000 0.041342 0.000000
# 6 0.000000 0.000000 0.000000 0.000000 0.000000 0.054946
#
#
# Mechanical properties :
#
#
# Convention : Reuss Voigt Hill
#
# Bulk Modulus (GPa) = 48.42969 48.94697 48.68833
# Shear Modulus (GPa) = 20.48092 22.06167 21.27129
#
# Velocity S-wave (km/s) = 3.66863 3.80757 3.73875
# Velocity P-wave (km/s) = 7.05480 7.17601 7.11566
#
# Compressibility (1/GPa) = 0.02064849
#
# Stress axis : x y z
#
# Youngs Moduli (GPa) = 41.97179 41.97179 80.11696
#
# Poissons Ratio (x) = 0.52791 0.28700
# Poissons Ratio (y) = 0.52791 0.28700
# Poissons Ratio (z) = 0.15035 0.15035
#
# Static dielectric constant tensor:
#      x y z
#    x 2.836740 0.000000 0.000000 
#    y 0.000000 2.836740 0.000000 
#    z 0.000000 0.000000 3.195080 
# 
# 
# High freq. dielectric constant tensor:
#      x y z
#    x 1.551910 0.000000 0.000000 
#    y 0.000000 1.551910 0.000000 
#    z 0.000000 0.000000 1.608060 
# 
# From -- ./inp_files/2180.got.cif
#   From: 2010.03.12/outbox.cif.g09.slc.cpg/sg132_2_cif.got.tgz:2180.got - 2010.04.06 17:53:44.
