data_PCOD8316580
_publ_section_title
;
Structure prediction by ZEFSAII (Michael W. Deem and Ramdas Pophale) SiO2 
 PCOD8316580
Probable space group: P 42/M C M
;
_chemical_formula_sum "Si O2"
_cell_formula_units_Z 104
_cell_length_a 20.067798
_cell_length_b 20.067798
_cell_length_c 18.447149
_cell_angle_alpha 90.000000
_cell_angle_beta 90.000000
_cell_angle_gamma 90.000000
_cell_volume 7428.971586
_symmetry_space_group_name_H-M "P 42/M C M"
_symmetry_group_IT_number 132
_symmetry_cell_setting 'tetragonal'
loop_
_space_group_symop_operation_xyz
x,y,z
-y,x,1/2+z
-x,-y,z
y,-x,1/2+z
x,-y,1/2-z
-x,y,1/2-z
y,x,-z
-y,-x,-z
-x,-y,-z
y,-x,1/2-z
x,y,-z
-y,x,1/2-z
-x,y,1/2+z
x,-y,1/2+z
-y,-x,z
y,x,z
loop_
_atom_site_type_symbol
_atom_site_label
_atom_site_fract_x
_atom_site_fract_y
_atom_site_fract_z
Si Si1 0.001712 0.579187 0.668542
Si Si2 0.374516 0.734296 0.082917
Si Si3 0.272425 0.620187 0.417112
Si Si4 0.672759 0.495477 0.164047
Si Si5 0.574265 0.870542 0.082931
Si Si6 0.551545 0.551545 0.577498
Si Si7 0.421207 0.874763 0.082534
O O1 0.069474 0.604102 0.630775
O O2 0.000000 0.500000 0.664595
O O3 0.000000 0.606336 0.750000
O O4 0.935993 0.606883 0.629216
O O5 0.305259 0.694742 0.099307
O O6 0.430805 0.713688 0.139746
O O7 0.368970 0.813913 0.094144
O O8 0.397694 0.720645 0.000000
O O9 0.286767 0.597980 0.500000
O O10 0.308652 0.691349 0.400988
O O11 0.298535 0.564885 0.362848
O O12 0.192798 0.622925 0.404285
O O13 0.667781 0.500000 0.250000
O O14 0.602003 0.487332 0.127811
O O15 0.497208 0.853342 0.104524
O O16 0.576715 0.893915 0.000000
O O17 0.500000 0.500000 0.547612
O O18 0.581680 0.581680 0.500000
O O19 0.421443 0.898904 0.000000
#
# Coordination Sequence:
#
# PCOD8316580 Si02
#       7
#    16  16  16  16  16   8  16
#     4   9  17  27  41  63  85 105 127 162 211 256
#     4  10  19  33  50  63  80 109 143 172 210 262
#     4  10  20  34  49  62  80 109 143 172 210 262
#     4  12  24  32  45  61  81 101 132 181 222 253
#     4   9  16  28  45  63  81 105 136 171 205 248
#     4  11  24  38  50  56  68 100 134 172 220 268
#     4   9  16  28  45  63  81 105 136 171 205 248
#
# _framework density 13.999247
#
# number of rings (size 3 to 8) (size 9 to 14) (size 15 to 20)
#    0.000    2.077    2.308    2.308    2.154    4.308 
#    0.000    0.000    0.000    0.000    0.000    0.000 
#    0.000    0.000    0.000    0.000    0.000    0.769 
#
# Total GULP energy -1288626.533272 kJ/mol
# GULP energy per Si atom -12390.639743 kJ/mol
# Density = 1.396738 g / cm^3
# Si number density = 13.999247 Si / 1000 Ang^3
#
#
#
# Elastic Constant Matrix: (Units=GPa)
#
#
# Indices 1 2 3 4 5 6 
#
# 1 84.5405 36.0538 45.0917 0.0000 0.0000 0.0000
# 2 36.0538 84.5405 45.0917 0.0000 0.0000 0.0000
# 3 45.0917 45.0917 102.4953 0.0000 0.0000 0.0000
# 4 0.0000 0.0000 0.0000 15.9591 0.0000 0.0000
# 5 0.0000 0.0000 0.0000 0.0000 15.9591 0.0000
# 6 0.0000 0.0000 0.0000 0.0000 0.0000 7.2104
#
#
#
# Elastic Compliance Matrix: (Units=1/GPa)
#
#
# Indices 1 2 3 4 5 6 
#
# 1 0.016491 -0.004133 -0.005437 0.000000 0.000000 0.000000
# 2 -0.004133 0.016491 -0.005437 0.000000 0.000000 0.000000
# 3 -0.005437 -0.005437 0.014540 0.000000 0.000000 0.000000
# 4 0.000000 0.000000 0.000000 0.062660 0.000000 0.000000
# 5 0.000000 0.000000 0.000000 0.000000 0.062660 0.000000
# 6 0.000000 0.000000 0.000000 0.000000 0.000000 0.138689
#
#
# Mechanical properties :
#
#
# Convention : Reuss Voigt Hill
#
# Bulk Modulus (GPa) = 57.11288 58.22783 57.67036
# Shear Modulus (GPa) = 14.39341 17.51499 15.95420
#
# Velocity S-wave (km/s) = 3.20997 3.54098 3.37953
# Velocity P-wave (km/s) = 7.39082 7.64211 7.51752
#
# Compressibility (1/GPa) = 0.01750919
#
# Stress axis : x y z
#
# Youngs Moduli (GPa) = 60.63864 60.63864 68.77461
#
# Poissons Ratio (x) = 0.25063 0.37391
# Poissons Ratio (y) = 0.25063 0.37391
# Poissons Ratio (z) = 0.32968 0.32968
#
# Static dielectric constant tensor:
#      x y z
#    x 2.655430 0.000000 0.000000 
#    y 0.000000 2.655430 0.000000 
#    z 0.000000 0.000000 2.817370 
# 
# 
# High freq. dielectric constant tensor:
#      x y z
#    x 1.503100 0.000000 0.000000 
#    y 0.000000 1.503100 0.000000 
#    z 0.000000 0.000000 1.543980 
# 
# From -- ./inp_files/5096.got.cif
#   From: 2010.03.12/outbox.cif.g09.slc.cpg/sg132_3_cif.got.tgz:5096.got - 2010.04.06 17:53:44.
