data_PCOD8316599
_publ_section_title
;
Structure prediction by ZEFSAII (Michael W. Deem and Ramdas Pophale) SiO2 
 PCOD8316599
Probable space group: P 42/M C M
;
_chemical_formula_sum "Si O2"
_cell_formula_units_Z 56
_cell_length_a 15.371283
_cell_length_b 15.371283
_cell_length_c 13.720452
_cell_angle_alpha 90.000000
_cell_angle_beta 90.000000
_cell_angle_gamma 90.000000
_cell_volume 3241.818196
_symmetry_space_group_name_H-M "P 42/M C M"
_symmetry_group_IT_number 132
_symmetry_cell_setting 'tetragonal'
loop_
_space_group_symop_operation_xyz
x,y,z
-y,x,1/2+z
-x,-y,z
y,-x,1/2+z
x,-y,1/2-z
-x,y,1/2-z
y,x,-z
-y,-x,-z
-x,-y,-z
y,-x,1/2-z
x,y,-z
-y,x,1/2-z
-x,y,1/2+z
x,-y,1/2+z
-y,-x,z
y,x,z
loop_
_atom_site_type_symbol
_atom_site_label
_atom_site_fract_x
_atom_site_fract_y
_atom_site_fract_z
Si Si1 0.994583 0.862665 0.000000
Si Si2 0.075923 0.218330 0.679162
Si Si3 0.214601 0.357070 0.611956
Si Si4 0.426964 0.426964 0.115074
Si Si5 0.500000 0.719171 0.750000
O O1 0.014096 0.805057 0.908519
O O2 0.053430 0.946571 0.000000
O O3 0.893844 0.893844 0.000000
O O4 0.136038 0.136038 0.714067
O O5 0.136270 0.297421 0.647787
O O6 0.000000 0.249707 0.750000
O O7 0.198297 0.388699 0.500000
O O8 0.305410 0.305410 0.614844
O O9 0.219318 0.434565 0.690144
O O10 0.500000 0.500000 0.132311
O O11 0.338114 0.455152 0.166212
O O12 0.411303 0.411303 0.000000
#
# Coordination Sequence:
#
# PCOD8316599 Si02
#       5
#     8  16  16   8   8
#     4   9  16  28  50  82 113 137 175 226 275 337
#     4  10  19  33  55  82 113 146 184 227 282 339
#     4  10  20  36  58  81 111 151 191 233 283 349
#     4  11  20  32  52  84 116 138 178 245 303 347
#     4  12  19  34  55  82 110 146 192 232 289 337
#
# _framework density 17.274256000000001
#
# number of rings (size 3 to 8) (size 9 to 14) (size 15 to 20)
#    0.000    1.714    4.286    1.714    0.000    3.714 
#    0.000    0.714    6.286    1.714    0.000    0.000 
#    0.000    0.000    0.000    0.000    0.000    0.000 
#
# Total GULP energy -693804.679041 kJ/mol
# GULP energy per Si atom -12389.369269 kJ/mol
# Density = 1.723494 g / cm^3
# Si number density = 17.274256 Si / 1000 Ang^3
#
#
#
# Elastic Constant Matrix: (Units=GPa)
#
#
# Indices 1 2 3 4 5 6 
#
# 1 82.7657 49.1036 59.8092 0.0000 0.0000 0.0000
# 2 49.1036 82.7644 59.8098 0.0000 0.0000 0.0000
# 3 59.8092 59.8098 139.4398 0.0000 0.0000 0.0000
# 4 0.0000 0.0000 0.0000 37.1045 0.0000 0.0000
# 5 0.0000 0.0000 0.0000 0.0000 37.1048 0.0000
# 6 0.0000 0.0000 0.0000 0.0000 0.0000 29.7727
#
#
#
# Elastic Compliance Matrix: (Units=1/GPa)
#
#
# Indices 1 2 3 4 5 6 
#
# 1 0.021060 -0.008647 -0.005324 0.000000 0.000000 0.000000
# 2 -0.008647 0.021061 -0.005324 0.000000 0.000000 0.000000
# 3 -0.005324 -0.005324 0.011739 0.000000 0.000000 0.000000
# 4 0.000000 0.000000 0.000000 0.026951 0.000000 0.000000
# 5 0.000000 0.000000 0.000000 0.000000 0.026951 0.000000
# 6 0.000000 0.000000 0.000000 0.000000 0.000000 0.033588
#
#
# Mechanical properties :
#
#
# Convention : Reuss Voigt Hill
#
# Bulk Modulus (GPa) = 65.49686 71.37945 68.43816
# Shear Modulus (GPa) = 27.02264 29.87954 28.45109
#
# Velocity S-wave (km/s) = 3.95945 4.16350 4.06276
# Velocity P-wave (km/s) = 7.67471 8.03268 7.85573
#
# Compressibility (1/GPa) = 0.01526791
#
# Stress axis : x y z
#
# Youngs Moduli (GPa) = 47.48348 47.48191 85.18612
#
# Poissons Ratio (x) = 0.41059 0.45353
# Poissons Ratio (y) = 0.41060 0.45357
# Poissons Ratio (z) = 0.25280 0.25282
#
# Static dielectric constant tensor:
#      x y z
#    x 3.222200 0.000000 0.000000 
#    y 0.000000 3.222190 0.000000 
#    z 0.000000 0.000000 3.189860 
# 
# 
# High freq. dielectric constant tensor:
#      x y z
#    x 1.647920 0.000000 0.000000 
#    y 0.000000 1.647920 0.000000 
#    z 0.000000 0.000000 1.684230 
# 
# From -- ./inp_files/2906.got.cif
#   From: 2010.03.12/outbox.cif.g09.slc.cpg/sg132_2_cif.got.tgz:2906.got - 2010.04.06 17:53:44.
