data_PCOD8316787
_publ_section_title
;
Structure prediction by ZEFSAII (Michael W. Deem and Ramdas Pophale) SiO2 
 PCOD8316787
Probable space group: P 42/M C M
;
_chemical_formula_sum "Si O2"
_cell_formula_units_Z 96
_cell_length_a 25.298417
_cell_length_b 25.298417
_cell_length_c 8.723906
_cell_angle_alpha 90.000000
_cell_angle_beta 90.000000
_cell_angle_gamma 90.000000
_cell_volume 5583.386230
_symmetry_space_group_name_H-M "P 42/M C M"
_symmetry_group_IT_number 132
_symmetry_cell_setting 'tetragonal'
loop_
_space_group_symop_operation_xyz
x,y,z
-y,x,1/2+z
-x,-y,z
y,-x,1/2+z
x,-y,1/2-z
-x,y,1/2-z
y,x,-z
-y,-x,-z
-x,-y,-z
y,-x,1/2-z
x,y,-z
-y,x,1/2-z
-x,y,1/2+z
x,-y,1/2+z
-y,-x,z
y,x,z
loop_
_atom_site_type_symbol
_atom_site_label
_atom_site_fract_x
_atom_site_fract_y
_atom_site_fract_z
Si Si1 0.556464 0.245859 0.681718
Si Si2 0.633787 0.947723 0.171194
Si Si3 0.444045 0.357512 0.319017
Si Si4 0.837326 0.635683 0.680745
Si Si5 0.050734 0.240984 0.166983
Si Si6 0.251277 0.164868 0.817836
O O1 0.500000 0.229702 0.750000
O O2 0.552396 0.249090 0.500000
O O3 0.574967 0.302402 0.746533
O O4 0.598262 0.202352 0.730045
O O5 0.619536 0.896691 0.272160
O O6 0.696253 0.954785 0.160317
O O7 0.608965 0.000000 0.250000
O O8 0.610132 0.941322 0.000000
O O9 0.500000 0.375533 0.250000
O O10 0.449825 0.350265 0.500000
O O11 0.401511 0.401511 0.274505
O O12 0.830541 0.628992 0.500000
O O13 0.822544 0.695057 0.729268
O O14 0.108183 0.228050 0.240865
O O15 0.000000 0.215614 0.250000
O O16 0.049131 0.215395 0.000000
O O17 0.209789 0.209789 0.775021
O O18 0.263013 0.161735 0.000000
#
# Coordination Sequence:
#
# PCOD8316787 Si02
#       6
#    16  16  16  16  16  16
#     4  11  22  38  58  77  99 129 166 206 245 288
#     4   9  16  28  46  70  97 126 162 203 246 289
#     4  10  21  37  57  81 107 133 163 200 242 290
#     4  11  21  33  50  73 100 131 166 202 244 295
#     4   8  14  24  40  61  86 119 157 195 236 284
#     4   9  18  32  47  66  96 131 165 202 246 295
#
# _framework density 17.193867999999998
#
# number of rings (size 3 to 8) (size 9 to 14) (size 15 to 20)
#    0.000    2.333    0.000    6.000    0.000    6.500 
#    0.000    0.833    0.000    0.500    0.000    3.500 
#    0.000    0.333    0.000    4.167    0.000    0.167 
#
# Total GULP energy -1190043.846114 kJ/mol
# GULP energy per Si atom -12396.290064 kJ/mol
# Density = 1.715473 g / cm^3
# Si number density = 17.193868 Si / 1000 Ang^3
#
#
#
# Elastic Constant Matrix: (Units=GPa)
#
#
# Indices 1 2 3 4 5 6 
#
# 1 93.2781 67.5189 34.3506 0.0000 0.0000 0.0000
# 2 67.5189 93.2781 34.3506 0.0000 0.0000 0.0000
# 3 34.3506 34.3506 89.2745 0.0000 0.0000 0.0000
# 4 0.0000 0.0000 0.0000 25.9587 0.0000 0.0000
# 5 0.0000 0.0000 0.0000 0.0000 25.9587 0.0000
# 6 0.0000 0.0000 0.0000 0.0000 0.0000 -3.7309
#
#
#
# Elastic Compliance Matrix: (Units=1/GPa)
#
#
# Indices 1 2 3 4 5 6 
#
# 1 0.023132 -0.015689 -0.002864 0.000000 0.000000 0.000000
# 2 -0.015689 0.023132 -0.002864 0.000000 0.000000 0.000000
# 3 -0.002864 -0.002864 0.013405 0.000000 0.000000 0.000000
# 4 0.000000 0.000000 0.000000 0.038523 0.000000 0.000000
# 5 0.000000 0.000000 0.000000 0.000000 0.038523 0.000000
# 6 0.000000 0.000000 0.000000 0.000000 0.000000 -0.268031
#
#
# Mechanical properties :
#
#
# Convention : Reuss Voigt Hill
#
# Bulk Modulus (GPa) = 59.39849 60.91899 60.15874
# Shear Modulus (GPa) = -60.33461 18.94467 -20.69497
#
# Velocity S-wave (km/s) = -5.93017 3.32298 -3.47309
# Velocity P-wave (km/s) = 3.50256 7.08735 4.35675
#
# Compressibility (1/GPa) = 0.01683545
#
# Stress axis : x y z
#
# Youngs Moduli (GPa) = 43.23047 43.23047 74.59801
#
# Poissons Ratio (x) = 0.67825 0.21363
# Poissons Ratio (y) = 0.67825 0.21363
# Poissons Ratio (z) = 0.12380 0.12380
#
# Static dielectric constant tensor:
#      x y z
#    x 3.177890 0.000000 0.000000 
#    y 0.000000 3.177890 0.000000 
#    z 0.000000 0.000000 3.398310 
# 
# 
# High freq. dielectric constant tensor:
#      x y z
#    x 1.647500 0.000000 0.000000 
#    y 0.000000 1.647500 0.000000 
#    z 0.000000 0.000000 1.675820 
# 
# From -- ./inp_files/1748.got.cif
#   From: 2010.03.12/outbox.cif.g09.slc.cpg/sg132_1_cif.got.tgz:1748.got - 2010.04.06 17:53:44.
