data_PCOD8316936
_publ_section_title
;
Structure prediction by ZEFSAII (Michael W. Deem and Ramdas Pophale) SiO2 
 PCOD8316936
Probable space group: P 42/N B C
;
_chemical_formula_sum "Si O2"
_cell_formula_units_Z 116
_cell_length_a 29.132336
_cell_length_b 29.132336
_cell_length_c 9.336981
_cell_angle_alpha 90.000000
_cell_angle_beta 90.000000
_cell_angle_gamma 90.000000
_cell_volume 7924.230423
_symmetry_space_group_name_H-M "P 42/N B C"
_symmetry_group_IT_number 133
_space_group.IT_coordinate_system_code '2'
_symmetry_cell_setting 'tetragonal'
loop_
_space_group_symop_operation_xyz
x,y,z
1/2-y,x,1/2+z
1/2-x,1/2-y,z
y,1/2-x,1/2+z
x,1/2-y,-z
1/2-x,y,-z
y,x,1/2-z
1/2-y,1/2-x,1/2-z
-x,-y,-z
1/2+y,-x,1/2-z
1/2+x,1/2+y,-z
-y,1/2+x,1/2-z
-x,1/2+y,z
1/2+x,-y,z
-y,-x,1/2+z
1/2+y,1/2+x,1/2+z
loop_
_atom_site_type_symbol
_atom_site_label
_atom_site_fract_x
_atom_site_fract_y
_atom_site_fract_z
Si Si1 0.860437 0.937605 0.267877
Si Si2 0.506365 0.437585 0.330051
Si Si3 0.750000 0.750000 0.500000
Si Si4 0.822103 0.817163 0.910290
Si Si5 0.560779 0.637371 0.715717
Si Si6 0.433037 0.997618 0.173821
Si Si7 0.300381 0.088690 0.029679
Si Si8 0.698502 0.576555 0.527798
O O1 0.896870 0.896870 0.250000
O O2 0.842316 0.943925 0.429054
O O3 0.881035 0.985698 0.206934
O O4 0.812903 0.923332 0.191635
O O5 0.473132 0.473132 0.250000
O O6 0.489083 0.387068 0.285582
O O7 0.506276 0.443185 0.503244
O O8 0.556146 0.449333 0.257874
O O9 0.721432 0.783409 0.396967
O O10 0.834566 0.834566 0.750000
O O11 0.799621 0.857032 0.004548
O O12 0.868268 0.799638 0.986327
O O13 0.600757 0.600757 0.750000
O O14 0.567271 0.657537 0.558424
O O15 0.560791 0.681884 0.816404
O O16 0.463979 0.036022 0.250000
O O17 0.250000 0.067938 0.000000
O O18 0.750000 0.557206 0.500000
#
# Coordination Sequence:
#
# PCOD8316936 Si02
#       8
#    16  16   4  16  16  16  16  16
#     4  11  22  33  51  69  89 111 147 186 231 283
#     4  10  20  31  51  72  94 114 135 169 221 284
#     4  12  26  36  48  62  80  98 148 220 246 286
#     4  12  23  37  47  60  76 107 146 192 248 287
#     4  11  20  35  51  65  88 116 145 181 237 285
#     4  10  20  32  49  74  94 112 136 169 220 284
#     4  12  21  35  49  62  83 114 148 187 233 282
#     4  12  23  35  49  64  86 115 155 190 235 285
#
# _framework density 14.638646
#
# number of rings (size 3 to 8) (size 9 to 14) (size 15 to 20)
#    0.000    0.828    6.897    2.690    7.724    0.000 
#    2.483    0.000    0.000    0.000    0.000    0.000 
#    0.000    0.000    0.000    0.000    0.000    0.000 
#
# Total GULP energy -1437344.418519 kJ/mol
# GULP energy per Si atom -12390.900160 kJ/mol
# Density = 1.460533 g / cm^3
# Si number density = 14.638646 Si / 1000 Ang^3
#
#
#
# Elastic Constant Matrix: (Units=GPa)
#
#
# Indices 1 2 3 4 5 6 
#
# 1 52.8101 40.8901 17.3170 0.0000 0.0000 0.0000
# 2 40.8901 52.8099 17.3173 0.0000 0.0000 0.0000
# 3 17.3170 17.3173 67.7073 0.0000 0.0000 0.0000
# 4 0.0000 0.0000 0.0000 14.8138 0.0000 0.0000
# 5 0.0000 0.0000 0.0000 0.0000 14.8138 0.0000
# 6 0.0000 0.0000 0.0000 0.0000 0.0000 27.3059
#
#
#
# Elastic Compliance Matrix: (Units=1/GPa)
#
#
# Indices 1 2 3 4 5 6 
#
# 1 0.047840 -0.036053 -0.003014 0.000000 0.000000 0.000000
# 2 -0.036053 0.047840 -0.003015 0.000000 0.000000 0.000000
# 3 -0.003014 -0.003015 0.016312 0.000000 0.000000 0.000000
# 4 0.000000 0.000000 0.000000 0.067504 0.000000 0.000000
# 5 0.000000 0.000000 0.000000 0.000000 0.067504 0.000000
# 6 0.000000 0.000000 0.000000 0.000000 0.000000 0.036622
#
#
# Mechanical properties :
#
#
# Convention : Reuss Voigt Hill
#
# Bulk Modulus (GPa) = 35.93714 36.04177 35.98946
# Shear Modulus (GPa) = 13.26037 17.90691 15.58364
#
# Velocity S-wave (km/s) = 3.01299 3.50131 3.26629
# Velocity P-wave (km/s) = 6.05863 6.40469 6.23406
#
# Compressibility (1/GPa) = 0.02782637
#
# Stress axis : x y z
#
# Youngs Moduli (GPa) = 20.90307 20.90292 61.30635
#
# Poissons Ratio (x) = 0.75362 0.18480
# Poissons Ratio (y) = 0.75363 0.18483
# Poissons Ratio (z) = 0.06301 0.06302
#
# Static dielectric constant tensor:
#      x y z
#    x 2.981270 0.000000 0.000000 
#    y 0.000000 2.981250 0.000000 
#    z 0.000000 0.000000 3.121860 
# 
# 
# High freq. dielectric constant tensor:
#      x y z
#    x 1.525830 0.000000 0.000000 
#    y 0.000000 1.525830 0.000000 
#    z 0.000000 0.000000 1.580650 
# 
# From -- ./inp_files/2131.got.cif
#   From: 2010.03.12/outbox.cif.g09.slc.cpg/sg133_2_cif.got.tgz:2131.got - 2010.04.06 18:08:06.
