data_PCOD8316144
_publ_section_title
;
Structure prediction by ZEFSAII (Michael W. Deem and Ramdas Pophale) SiO2 
 PCOD8316144
Probable space group: P 42/M M C
;
_chemical_formula_sum "Si O2"
_cell_formula_units_Z 72
_cell_length_a 21.260174
_cell_length_b 21.260174
_cell_length_c 8.760007
_cell_angle_alpha 90.000000
_cell_angle_beta 90.000000
_cell_angle_gamma 90.000000
_cell_volume 3959.479351
_symmetry_space_group_name_H-M "P 42/M M C"
_symmetry_group_IT_number 131
_symmetry_cell_setting 'tetragonal'
loop_
_space_group_symop_operation_xyz
x,y,z
-x,-y,z
-y,x,1/2+z
y,-x,1/2+z
-x,y,-z
x,-y,-z
y,x,1/2-z
-y,-x,1/2-z
-x,-y,-z
x,y,-z
y,-x,1/2-z
-y,x,1/2-z
x,-y,z
-x,y,z
-y,-x,1/2+z
y,x,1/2+z
loop_
_atom_site_type_symbol
_atom_site_label
_atom_site_fract_x
_atom_site_fract_y
_atom_site_fract_z
Si Si1 0.069249 0.500000 0.320002
Si Si2 0.500000 0.406338 0.679825
Si Si3 0.265038 0.171927 0.680395
Si Si4 0.070861 0.163326 0.820170
Si Si5 0.500000 0.260430 0.320121
Si Si6 0.401430 0.829493 0.181024
O O1 0.062102 0.500000 0.500000
O O2 0.107453 0.561720 0.268738
O O3 0.000000 0.500000 0.242836
O O4 0.500000 0.417552 0.500000
O O5 0.437655 0.437655 0.750000
O O6 0.500000 0.333414 0.722842
O O7 0.234562 0.234562 0.750000
O O8 0.269433 0.179422 0.500000
O O9 0.224109 0.111247 0.729529
O O10 0.333073 0.163512 0.750200
O O11 0.100229 0.100229 0.750000
O O12 0.000000 0.172047 0.758176
O O13 0.071579 0.155253 0.000000
O O14 0.500000 0.248760 0.500000
O O15 0.562953 0.230856 0.248661
O O16 0.398478 0.821770 0.000000
#
# Coordination Sequence:
#
# PCOD8316144 Si02
#       6
#     8   8  16  16   8  16
#     4   8  16  32  52  75 104 136 170 208 250 301
#     4  10  21  36  56  79 104 134 167 206 250 297
#     4  10  20  35  54  75 103 137 173 215 261 312
#     4   9  19  35  53  75 104 137 174 216 262 313
#     4  10  21  37  55  77 106 141 178 214 254 303
#     4  10  20  34  54  79 106 137 173 216 263 308
#
# _framework density 18.184208000000002
#
# number of rings (size 3 to 8) (size 9 to 14) (size 15 to 20)
#    0.000    2.444    0.000    3.000    0.000    5.111 
#    0.000    3.333    0.000   11.333    0.000    0.000 
#    0.000    0.000    0.000    0.000    0.000    0.000 
#
# Total GULP energy -892872.973125 kJ/mol
# GULP energy per Si atom -12401.013516 kJ/mol
# Density = 1.814282 g / cm^3
# Si number density = 18.184208 Si / 1000 Ang^3
#
#
#
# Elastic Constant Matrix: (Units=GPa)
#
#
# Indices 1 2 3 4 5 6 
#
# 1 171.1871 82.3470 51.3985 0.0000 0.0000 0.0000
# 2 82.3470 171.1871 51.3985 0.0000 0.0000 0.0000
# 3 51.3985 51.3985 73.3528 0.0000 0.0000 0.0000
# 4 0.0000 0.0000 0.0000 29.0638 0.0000 0.0000
# 5 0.0000 0.0000 0.0000 0.0000 29.0638 0.0000
# 6 0.0000 0.0000 0.0000 0.0000 0.0000 23.8116
#
#
#
# Elastic Compliance Matrix: (Units=1/GPa)
#
#
# Indices 1 2 3 4 5 6 
#
# 1 0.008383 -0.002873 -0.003861 0.000000 0.000000 0.000000
# 2 -0.002873 0.008383 -0.003861 0.000000 0.000000 0.000000
# 3 -0.003861 -0.003861 0.019043 0.000000 0.000000 0.000000
# 4 0.000000 0.000000 0.000000 0.034407 0.000000 0.000000
# 5 0.000000 0.000000 0.000000 0.000000 0.034407 0.000000
# 6 0.000000 0.000000 0.000000 0.000000 0.000000 0.041996
#
#
# Mechanical properties :
#
#
# Convention : Reuss Voigt Hill
#
# Bulk Modulus (GPa) = 68.40027 87.33500 77.86763
# Shear Modulus (GPa) = 28.95507 31.76002 30.35755
#
# Velocity S-wave (km/s) = 3.99472 4.18373 4.09032
# Velocity P-wave (km/s) = 7.67945 8.45402 8.07602
#
# Compressibility (1/GPa) = 0.01461983
#
# Stress axis : x y z
#
# Youngs Moduli (GPa) = 119.29115 119.29115 52.51293
#
# Poissons Ratio (x) = 0.34276 0.20273
# Poissons Ratio (y) = 0.34276 0.20273
# Poissons Ratio (z) = 0.46053 0.46053
#
# Static dielectric constant tensor:
#      x y z
#    x 3.526540 0.000000 0.000000 
#    y 0.000000 3.526540 0.000000 
#    z 0.000000 0.000000 3.340580 
# 
# 
# High freq. dielectric constant tensor:
#      x y z
#    x 1.708960 0.000000 0.000000 
#    y 0.000000 1.708960 0.000000 
#    z 0.000000 0.000000 1.706080 
# 
# From -- ./inp_files/1904.got.cif
#   From: 2010.03.12/outbox.cif.g09.slc.cpg/sg131_1_cif.got.tgz:1904.got - 2010.04.06 17:36:35.
