data_PCOD8316684
_publ_section_title
;
Structure prediction by ZEFSAII (Michael W. Deem and Ramdas Pophale) SiO2 
 PCOD8316684
Probable space group: P 42/M C M
;
_chemical_formula_sum "Si O2"
_cell_formula_units_Z 32
_cell_length_a 15.090695
_cell_length_b 15.090695
_cell_length_c 8.910769
_cell_angle_alpha 90.000000
_cell_angle_beta 90.000000
_cell_angle_gamma 90.000000
_cell_volume 2029.241187
_symmetry_space_group_name_H-M "P 42/M C M"
_symmetry_group_IT_number 132
_symmetry_cell_setting 'tetragonal'
loop_
_space_group_symop_operation_xyz
x,y,z
-y,x,1/2+z
-x,-y,z
y,-x,1/2+z
x,-y,1/2-z
-x,y,1/2-z
y,x,-z
-y,-x,-z
-x,-y,-z
y,-x,1/2-z
x,y,-z
-y,x,1/2-z
-x,y,1/2+z
x,-y,1/2+z
-y,-x,z
y,x,z
loop_
_atom_site_type_symbol
_atom_site_label
_atom_site_fract_x
_atom_site_fract_y
_atom_site_fract_z
Si Si1 0.407452 0.592549 0.321843
Si Si2 0.906956 0.768804 0.330505
Si Si3 0.262842 0.262842 0.176533
O O1 0.376679 0.500000 0.250000
O O2 0.417985 0.582016 0.500000
O O3 0.334975 0.665026 0.277176
O O4 0.917481 0.734091 0.500000
O O5 0.870693 0.870693 0.327995
O O6 0.832976 0.708480 0.245607
O O7 0.000000 0.762197 0.250000
O O8 0.253155 0.253155 0.000000
#
# Coordination Sequence:
#
# PCOD8316684 Si02
#       3
#     8  16   8
#     4  10  20  33  54  79 101 125 152 195 242 289
#     4   9  18  29  45  68  95 130 165 201 240 278
#     4   9  18  32  48  69  98 129 160 196 240 284
#
# _framework density 15.769442
#
# number of rings (size 3 to 8) (size 9 to 14) (size 15 to 20)
#    1.500    1.250    0.000    3.000    0.000    4.500 
#    0.000    2.500    0.000    1.500    0.000   10.500 
#    0.000    0.000    0.000    0.000    0.000    0.000 
#
# Total GULP energy -396417.519951 kJ/mol
# GULP energy per Si atom -12388.047498 kJ/mol
# Density = 1.573355 g / cm^3
# Si number density = 15.769442 Si / 1000 Ang^3
#
#
#
# Elastic Constant Matrix: (Units=GPa)
#
#
# Indices 1 2 3 4 5 6 
#
# 1 84.6801 93.6886 64.7949 0.0000 0.0000 0.0000
# 2 93.6886 84.6802 64.7949 0.0000 0.0000 0.0000
# 3 64.7949 64.7949 135.3272 0.0000 0.0000 0.0000
# 4 0.0000 0.0000 0.0000 20.9043 0.0000 0.0000
# 5 0.0000 0.0000 0.0000 0.0000 20.9044 0.0000
# 6 0.0000 0.0000 0.0000 0.0000 0.0000 24.9454
#
#
#
# Elastic Compliance Matrix: (Units=1/GPa)
#
#
# Indices 1 2 3 4 5 6 
#
# 1 -0.051205 0.059801 -0.004116 0.000000 0.000000 0.000000
# 2 0.059801 -0.051204 -0.004116 0.000000 0.000000 0.000000
# 3 -0.004116 -0.004116 0.011331 0.000000 0.000000 0.000000
# 4 0.000000 0.000000 0.000000 0.047837 0.000000 0.000000
# 5 0.000000 0.000000 0.000000 0.000000 0.047837 0.000000
# 6 0.000000 0.000000 0.000000 0.000000 0.000000 0.040087
#
#
# Mechanical properties :
#
#
# Convention : Reuss Voigt Hill
#
# Bulk Modulus (GPa) = 82.91767 83.47159 83.19463
# Shear Modulus (GPa) = -91.85340 18.77809 -36.53765
#
# Velocity S-wave (km/s) = -7.64030 3.45453 -4.81874
# Velocity P-wave (km/s) = 5.01367 8.30416 4.68093
#
# Compressibility (1/GPa) = 0.01206016
#
# Stress axis : x y z
#
# Youngs Moduli (GPa) = -19.52948 -19.52954 88.25196
#
# Poissons Ratio (x) = 1.16790 0.36326
# Poissons Ratio (y) = 1.16789 0.36327
# Poissons Ratio (z) = -0.08039 -0.08039
#
# Static dielectric constant tensor:
#      x y z
#    x 2.802580 0.000000 0.000000 
#    y 0.000000 2.802580 0.000000 
#    z 0.000000 0.000000 3.151340 
# 
# 
# High freq. dielectric constant tensor:
#      x y z
#    x 1.582430 0.000000 0.000000 
#    y 0.000000 1.582430 0.000000 
#    z 0.000000 0.000000 1.630340 
# 
# From -- ./inp_files/396.got.cif
#   From: 2010.03.12/outbox.cif.g09.slc.cpg/sg132_1_cif.got.tgz:396.got - 2010.04.06 17:53:44.
