data_PCOD8316976
_publ_section_title
;
Structure prediction by ZEFSAII (Michael W. Deem and Ramdas Pophale) SiO2 
 PCOD8316976
Probable space group: P 42/N B C
;
_chemical_formula_sum "Si O2"
_cell_formula_units_Z 64
_cell_length_a 14.509020
_cell_length_b 14.509020
_cell_length_c 14.731459
_cell_angle_alpha 90.000000
_cell_angle_beta 90.000000
_cell_angle_gamma 90.000000
_cell_volume 3101.143908
_symmetry_space_group_name_H-M "P 42/N B C"
_symmetry_group_IT_number 133
_space_group.IT_coordinate_system_code '2'
_symmetry_cell_setting 'tetragonal'
loop_
_space_group_symop_operation_xyz
x,y,z
1/2-y,x,1/2+z
1/2-x,1/2-y,z
y,1/2-x,1/2+z
x,1/2-y,-z
1/2-x,y,-z
y,x,1/2-z
1/2-y,1/2-x,1/2-z
-x,-y,-z
1/2+y,-x,1/2-z
1/2+x,1/2+y,-z
-y,1/2+x,1/2-z
-x,1/2+y,z
1/2+x,-y,z
-y,-x,1/2+z
1/2+y,1/2+x,1/2+z
loop_
_atom_site_type_symbol
_atom_site_label
_atom_site_fract_x
_atom_site_fract_y
_atom_site_fract_z
Si Si1 0.852687 0.753302 0.893581
Si Si2 0.855359 0.346524 0.756664
Si Si3 0.389088 0.991718 0.593981
Si Si4 0.998905 0.603767 0.887734
O O1 0.750000 0.750000 0.847931
O O2 0.910413 0.664572 0.857728
O O3 0.908189 0.849157 0.873565
O O4 0.838494 0.750000 0.000000
O O5 0.864724 0.247752 0.708010
O O6 0.915939 0.337940 0.846882
O O7 0.887122 0.420608 0.684121
O O8 0.496393 0.975632 0.611643
O O9 0.364118 0.972271 0.488829
#
# Coordination Sequence:
#
# PCOD8316976 Si02
#       4
#    16  16  16  16
#     4   9  18  36  63  93 122 157 205 259 319 384
#     4  11  23  38  60  88 123 165 208 258 312 379
#     4  10  21  39  63  90 125 165 206 261 320 378
#     4  10  21  39  63  90 125 165 206 261 320 378
#
# _framework density 20.637544999999999
#
# number of rings (size 3 to 8) (size 9 to 14) (size 15 to 20)
#    0.000    2.000    2.500    0.750    0.000    3.000 
#    0.000    7.500    0.000    0.000    0.000    0.000 
#    0.000    0.000    0.000    0.000    0.000    0.000 
#
# Total GULP energy -793134.251750 kJ/mol
# GULP energy per Si atom -12392.722684 kJ/mol
# Density = 2.059057 g / cm^3
# Si number density = 20.637545 Si / 1000 Ang^3
#
#
#
# Elastic Constant Matrix: (Units=GPa)
#
#
# Indices 1 2 3 4 5 6 
#
# 1 101.7654 22.1832 27.2446 0.0000 0.0000 0.0000
# 2 22.1832 101.7654 27.2446 0.0000 0.0000 0.0000
# 3 27.2446 27.2446 65.8011 0.0000 0.0000 0.0000
# 4 0.0000 0.0000 0.0000 14.8257 0.0000 0.0000
# 5 0.0000 0.0000 0.0000 0.0000 14.8257 0.0000
# 6 0.0000 0.0000 0.0000 0.0000 0.0000 29.1779
#
#
#
# Elastic Compliance Matrix: (Units=1/GPa)
#
#
# Indices 1 2 3 4 5 6 
#
# 1 0.011214 -0.001351 -0.004084 0.000000 0.000000 0.000000
# 2 -0.001351 0.011214 -0.004084 0.000000 0.000000 0.000000
# 3 -0.004084 -0.004084 0.018579 0.000000 0.000000 0.000000
# 4 0.000000 0.000000 0.000000 0.067450 0.000000 0.000000
# 5 0.000000 0.000000 0.000000 0.000000 0.067450 0.000000
# 6 0.000000 0.000000 0.000000 0.000000 0.000000 0.034273
#
#
# Mechanical properties :
#
#
# Convention : Reuss Voigt Hill
#
# Bulk Modulus (GPa) = 45.51617 46.96406 46.24012
# Shear Modulus (GPa) = 21.13788 24.60983 22.87385
#
# Velocity S-wave (km/s) = 3.20385 3.45697 3.33282
# Velocity P-wave (km/s) = 5.98240 6.22417 6.10448
#
# Compressibility (1/GPa) = 0.02197021
#
# Stress axis : x y z
#
# Youngs Moduli (GPa) = 89.17124 89.17124 53.82408
#
# Poissons Ratio (x) = 0.12049 0.21981
# Poissons Ratio (y) = 0.12049 0.21981
# Poissons Ratio (z) = 0.36416 0.36416
#
# Static dielectric constant tensor:
#      x y z
#    x 4.069900 0.000000 0.000000 
#    y 0.000000 4.069900 0.000000 
#    z 0.000000 0.000000 3.681760 
# 
# 
# High freq. dielectric constant tensor:
#      x y z
#    x 1.814330 0.000000 0.000000 
#    y 0.000000 1.814330 0.000000 
#    z 0.000000 0.000000 1.793980 
# 
# From -- ./inp_files/4123.got.cif
#   From: 2010.03.12/outbox.cif.g09.slc.cpg/sg133_3_cif.got.tgz:4123.got - 2010.04.06 18:08:06.
