data_PCOD8316439
_publ_section_title
;
Structure prediction by ZEFSAII (Michael W. Deem and Ramdas Pophale) SiO2 
 PCOD8316439
Probable space group: P 42/M C M
;
_chemical_formula_sum "Si O2"
_cell_formula_units_Z 72
_cell_length_a 12.104571
_cell_length_b 12.104571
_cell_length_c 33.539468
_cell_angle_alpha 90.000000
_cell_angle_beta 90.000000
_cell_angle_gamma 90.000000
_cell_volume 4914.224286
_symmetry_space_group_name_H-M "P 42/M C M"
_symmetry_group_IT_number 132
_symmetry_cell_setting 'tetragonal'
loop_
_space_group_symop_operation_xyz
x,y,z
-y,x,1/2+z
-x,-y,z
y,-x,1/2+z
x,-y,1/2-z
-x,y,1/2-z
y,x,-z
-y,-x,-z
-x,-y,-z
y,-x,1/2-z
x,y,-z
-y,x,1/2-z
-x,y,1/2+z
x,-y,1/2+z
-y,-x,z
y,x,z
loop_
_atom_site_type_symbol
_atom_site_label
_atom_site_fract_x
_atom_site_fract_y
_atom_site_fract_z
Si Si1 0.323871 0.507188 0.500000
Si Si2 0.891705 0.283752 0.201045
Si Si3 0.488130 0.126170 0.349997
Si Si4 0.684194 0.862030 0.790459
Si Si5 0.502955 0.683557 0.413406
O O1 0.429828 0.429828 0.500000
O O2 0.366528 0.633473 0.500000
O O3 0.261238 0.486674 0.542043
O O4 0.833076 0.166925 0.194593
O O5 0.853870 0.365228 0.166020
O O6 0.856715 0.338414 0.243192
O O7 0.021602 0.258925 0.198885
O O8 0.569023 0.149273 0.313088
O O9 0.512830 0.212951 0.384601
O O10 0.500000 0.000000 0.365758
O O11 0.765380 0.765380 0.804853
O O12 0.396674 0.603327 0.410693
O O13 0.612838 0.612838 0.402927
#
# Coordination Sequence:
#
# PCOD8316439 Si02
#       5
#     8  16  16  16  16
#     4   7  12  24  41  60  78  96 121 155 192 222
#     4   9  17  28  41  56  75 101 132 164 194 223
#     4  10  18  27  39  57  82 107 127 150 188 236
#     4   9  17  28  41  56  75 101 132 164 194 223
#     4   9  16  27  44  62  78  98 127 160 189 221
#
# _framework density 14.651344999999999
#
# number of rings (size 3 to 8) (size 9 to 14) (size 15 to 20)
#    0.000    3.000    0.000    3.333    0.000    3.111 
#    0.000    2.778    0.000    0.000    0.000    9.333 
#    0.000    0.000    0.000    0.000    0.000  133.333 
#
# Total GULP energy -892142.139569 kJ/mol
# GULP energy per Si atom -12390.863050 kJ/mol
# Density = 1.461800 g / cm^3
# Si number density = 14.651345 Si / 1000 Ang^3
#
#
#
# Elastic Constant Matrix: (Units=GPa)
#
#
# Indices 1 2 3 4 5 6 
#
# 1 51.0592 17.2208 22.3749 0.0000 0.0000 0.0000
# 2 17.2208 51.0590 22.3749 0.0000 0.0000 0.0000
# 3 22.3749 22.3749 64.6326 0.0000 0.0000 0.0000
# 4 0.0000 0.0000 0.0000 14.2079 0.0000 0.0000
# 5 0.0000 0.0000 0.0000 0.0000 14.2080 0.0000
# 6 0.0000 0.0000 0.0000 0.0000 0.0000 17.9581
#
#
#
# Elastic Compliance Matrix: (Units=1/GPa)
#
#
# Indices 1 2 3 4 5 6 
#
# 1 0.024248 -0.005304 -0.006558 0.000000 0.000000 0.000000
# 2 -0.005304 0.024248 -0.006558 0.000000 0.000000 0.000000
# 3 -0.006558 -0.006558 0.020013 0.000000 0.000000 0.000000
# 4 0.000000 0.000000 0.000000 0.070383 0.000000 0.000000
# 5 0.000000 0.000000 0.000000 0.000000 0.070383 0.000000
# 6 0.000000 0.000000 0.000000 0.000000 0.000000 0.055685
#
#
# Mechanical properties :
#
#
# Convention : Reuss Voigt Hill
#
# Bulk Modulus (GPa) = 31.57777 32.29911 31.93844
# Shear Modulus (GPa) = 16.00735 16.26016 16.13375
#
# Velocity S-wave (km/s) = 3.30896 3.33499 3.32200
# Velocity P-wave (km/s) = 6.01653 6.07639 6.04653
#
# Compressibility (1/GPa) = 0.03166785
#
# Stress axis : x y z
#
# Youngs Moduli (GPa) = 41.24060 41.24046 49.96841
#
# Poissons Ratio (x) = 0.21875 0.32769
# Poissons Ratio (y) = 0.21876 0.32769
# Poissons Ratio (z) = 0.27046 0.27046
#
# Static dielectric constant tensor:
#      x y z
#    x 2.713620 0.000000 0.000000 
#    y 0.000000 2.713620 0.000000 
#    z 0.000000 0.000000 2.944630 
# 
# 
# High freq. dielectric constant tensor:
#      x y z
#    x 1.547070 0.000000 0.000000 
#    y 0.000000 1.547070 0.000000 
#    z 0.000000 0.000000 1.552870 
# 
# From -- ./inp_files/9746.got.cif
#   From: 2010.03.12/outbox.cif.g09.slc.cpg/sg132_5_cif.got.tgz:9746.got - 2010.04.06 17:53:44.
