data_PCOD8316679
_publ_section_title
;
Structure prediction by ZEFSAII (Michael W. Deem and Ramdas Pophale) SiO2 
 PCOD8316679
Probable space group: P 42/M C M
;
_chemical_formula_sum "Si O2"
_cell_formula_units_Z 80
_cell_length_a 13.205292
_cell_length_b 13.205292
_cell_length_c 25.869452
_cell_angle_alpha 90.000000
_cell_angle_beta 90.000000
_cell_angle_gamma 90.000000
_cell_volume 4511.108231
_symmetry_space_group_name_H-M "P 42/M C M"
_symmetry_group_IT_number 132
_symmetry_cell_setting 'tetragonal'
loop_
_space_group_symop_operation_xyz
x,y,z
-y,x,1/2+z
-x,-y,z
y,-x,1/2+z
x,-y,1/2-z
-x,y,1/2-z
y,x,-z
-y,-x,-z
-x,-y,-z
y,-x,1/2-z
x,y,-z
-y,x,1/2-z
-x,y,1/2+z
x,-y,1/2+z
-y,-x,z
y,x,z
loop_
_atom_site_type_symbol
_atom_site_label
_atom_site_fract_x
_atom_site_fract_y
_atom_site_fract_z
Si Si1 0.069943 0.773436 0.939674
Si Si2 0.383827 0.980405 0.193805
Si Si3 0.369155 0.797281 0.879707
Si Si4 0.731863 0.433960 0.439734
Si Si5 0.283219 0.123789 0.887997
O O1 0.132561 0.867440 0.915685
O O2 0.125817 0.669128 0.923979
O O3 0.956390 0.782716 0.919787
O O4 0.069511 0.779316 0.000000
O O5 0.374561 0.865238 0.172499
O O6 0.500000 0.000000 0.199072
O O7 0.332385 0.000000 0.250000
O O8 0.338664 0.066735 0.157698
O O9 0.292281 0.707720 0.867065
O O10 0.471655 0.743930 0.900487
O O11 0.735584 0.468004 0.500000
O O12 0.625951 0.374050 0.428795
O O13 0.826533 0.361295 0.428284
O O14 0.208632 0.208632 0.864525
#
# Coordination Sequence:
#
# PCOD8316679 Si02
#       5
#    16  16  16  16  16
#     4   9  18  31  49  75 107 144 182 220 265 318
#     4  10  20  37  59  80 101 131 177 224 272 322
#     4  10  20  35  54  80 110 141 178 222 269 318
#     4  10  20  33  51  78 112 151 189 222 264 320
#     4  10  20  34  52  77 108 141 178 223 273 326
#
# _framework density 17.734002
#
# number of rings (size 3 to 8) (size 9 to 14) (size 15 to 20)
#    0.000    2.200    2.000    1.200    0.000    4.000 
#    0.000    5.000    0.000    0.000    0.000    2.800 
#    0.000    0.000    0.000    0.000    0.000    0.000 
#
# Total GULP energy -991340.489561 kJ/mol
# GULP energy per Si atom -12391.756120 kJ/mol
# Density = 1.769364 g / cm^3
# Si number density = 17.734002 Si / 1000 Ang^3
#
#
#
# Elastic Constant Matrix: (Units=GPa)
#
#
# Indices 1 2 3 4 5 6 
#
# 1 88.8105 28.6789 43.7344 0.0000 0.0000 0.0000
# 2 28.6789 88.8105 43.7344 0.0000 0.0000 0.0000
# 3 43.7344 43.7344 103.0041 0.0000 0.0000 0.0000
# 4 0.0000 0.0000 0.0000 22.9379 0.0000 0.0000
# 5 0.0000 0.0000 0.0000 0.0000 22.9379 0.0000
# 6 0.0000 0.0000 0.0000 0.0000 0.0000 21.8208
#
#
#
# Elastic Compliance Matrix: (Units=1/GPa)
#
#
# Indices 1 2 3 4 5 6 
#
# 1 0.014538 -0.002092 -0.005284 0.000000 0.000000 0.000000
# 2 -0.002092 0.014538 -0.005284 0.000000 0.000000 0.000000
# 3 -0.005284 -0.005284 0.014196 0.000000 0.000000 0.000000
# 4 0.000000 0.000000 0.000000 0.043596 0.000000 0.000000
# 5 0.000000 0.000000 0.000000 0.000000 0.043596 0.000000
# 6 0.000000 0.000000 0.000000 0.000000 0.000000 0.045828
#
#
# Mechanical properties :
#
#
# Convention : Reuss Voigt Hill
#
# Bulk Modulus (GPa) = 55.71145 56.99115 56.35130
# Shear Modulus (GPa) = 24.08530 24.50449 24.29490
#
# Velocity S-wave (km/s) = 3.68930 3.72126 3.70531
# Velocity P-wave (km/s) = 7.04494 7.11830 7.08171
#
# Compressibility (1/GPa) = 0.01794963
#
# Stress axis : x y z
#
# Youngs Moduli (GPa) = 68.78633 68.78633 70.44461
#
# Poissons Ratio (x) = 0.14393 0.37224
# Poissons Ratio (y) = 0.14393 0.37224
# Poissons Ratio (z) = 0.36348 0.36348
#
# Static dielectric constant tensor:
#      x y z
#    x 3.440790 0.000000 0.000000 
#    y 0.000000 3.440790 0.000000 
#    z 0.000000 0.000000 3.532500 
# 
# 
# High freq. dielectric constant tensor:
#      x y z
#    x 1.689880 0.000000 0.000000 
#    y 0.000000 1.689880 0.000000 
#    z 0.000000 0.000000 1.671800 
# 
# From -- ./inp_files/10570.got.cif
#   From: 2010.03.12/outbox.cif.g09.slc.cpg/sg132_6_cif.got.tgz:10570.got - 2010.04.06 17:53:44.
