data_PCOD8316633
_publ_section_title
;
Structure prediction by ZEFSAII (Michael W. Deem and Ramdas Pophale) SiO2 
 PCOD8316633
Probable space group: P 42/M C M
;
_chemical_formula_sum "Si O2"
_cell_formula_units_Z 104
_cell_length_a 18.152512
_cell_length_b 18.152512
_cell_length_c 16.603909
_cell_angle_alpha 90.000000
_cell_angle_beta 90.000000
_cell_angle_gamma 90.000000
_cell_volume 5471.215355
_symmetry_space_group_name_H-M "P 42/M C M"
_symmetry_group_IT_number 132
_symmetry_cell_setting 'tetragonal'
loop_
_space_group_symop_operation_xyz
x,y,z
-y,x,1/2+z
-x,-y,z
y,-x,1/2+z
x,-y,1/2-z
-x,y,1/2-z
y,x,-z
-y,-x,-z
-x,-y,-z
y,-x,1/2-z
x,y,-z
-y,x,1/2-z
-x,y,1/2+z
x,-y,1/2+z
-y,-x,z
y,x,z
loop_
_atom_site_type_symbol
_atom_site_label
_atom_site_fract_x
_atom_site_fract_y
_atom_site_fract_z
Si Si1 0.518476 0.711296 0.164914
Si Si2 0.558432 0.558432 0.907290
Si Si3 0.255061 0.631361 0.908832
Si Si4 0.311676 0.887407 0.845438
Si Si5 0.920518 0.802525 0.778098
Si Si6 0.575542 0.863445 0.795187
Si Si7 0.048553 0.324592 0.904966
O O1 0.500000 0.673846 0.250000
O O2 0.543831 0.644266 0.109909
O O3 0.445948 0.753560 0.134869
O O4 0.576920 0.777887 0.174626
O O5 0.500000 0.500000 0.865913
O O6 0.546952 0.546952 0.000000
O O7 0.321719 0.678282 0.869225
O O8 0.180522 0.679029 0.905948
O O9 0.275214 0.614496 0.000000
O O10 0.231750 0.887716 0.804374
O O11 0.364004 0.876243 0.770595
O O12 0.331162 0.960999 0.894216
O O13 0.870857 0.870857 0.806178
O O14 0.923169 0.745508 0.853228
O O15 0.000000 0.831708 0.750000
O O16 0.500000 0.886074 0.750000
O O17 0.599335 0.914136 0.871702
O O18 0.067436 0.315033 0.000000
#
# Coordination Sequence:
#
# PCOD8316633 Si02
#       7
#    16   8  16  16  16  16  16
#     4  11  23  39  60  84 111 150 197 243 296 363
#     4  11  26  44  62  86 118 154 194 252 313 362
#     4  11  22  36  57  82 111 144 187 243 296 346
#     4  10  19  38  59  82 115 154 201 239 282 349
#     4   9  19  36  61  89 120 158 197 243 286 349
#     4  10  20  40  57  82 115 153 195 247 294 348
#     4  10  22  37  59  89 123 161 198 241 302 364
#
# _framework density 19.008575
#
# number of rings (size 3 to 8) (size 9 to 14) (size 15 to 20)
#    0.000    1.769    3.077    3.231    2.154    4.154 
#    5.538    0.769    0.000    4.154    0.000    4.308 
#    0.000    0.000    0.000    0.000    0.000    0.000 
#
# Total GULP energy -1288627.829746 kJ/mol
# GULP energy per Si atom -12390.652209 kJ/mol
# Density = 1.896531 g / cm^3
# Si number density = 19.008575 Si / 1000 Ang^3
#
#
#
# Elastic Constant Matrix: (Units=GPa)
#
#
# Indices 1 2 3 4 5 6 
#
# 1 78.3371 45.5965 37.8876 0.0000 0.0000 0.0000
# 2 45.5965 78.3371 37.8876 0.0000 0.0000 0.0000
# 3 37.8876 37.8876 90.4485 0.0000 0.0000 0.0000
# 4 0.0000 0.0000 0.0000 25.3724 0.0000 0.0000
# 5 0.0000 0.0000 0.0000 0.0000 25.3724 0.0000
# 6 0.0000 0.0000 0.0000 0.0000 0.0000 31.6207
#
#
#
# Elastic Compliance Matrix: (Units=1/GPa)
#
#
# Indices 1 2 3 4 5 6 
#
# 1 0.020695 -0.009848 -0.004544 0.000000 0.000000 0.000000
# 2 -0.009848 0.020695 -0.004544 0.000000 0.000000 0.000000
# 3 -0.004544 -0.004544 0.014863 0.000000 0.000000 0.000000
# 4 0.000000 0.000000 0.000000 0.039413 0.000000 0.000000
# 5 0.000000 0.000000 0.000000 0.000000 0.039413 0.000000
# 6 0.000000 0.000000 0.000000 0.000000 0.000000 0.031625
#
#
# Mechanical properties :
#
#
# Convention : Reuss Voigt Hill
#
# Bulk Modulus (GPa) = 54.40149 54.42959 54.41554
# Shear Modulus (GPa) = 23.73028 24.85650 24.29339
#
# Velocity S-wave (km/s) = 3.53710 3.62006 3.57882
# Velocity P-wave (km/s) = 6.73521 6.79482 6.76508
#
# Compressibility (1/GPa) = 0.01838185
#
# Stress axis : x y z
#
# Youngs Moduli (GPa) = 48.32076 48.32076 67.28334
#
# Poissons Ratio (x) = 0.47587 0.30571
# Poissons Ratio (y) = 0.47587 0.30571
# Poissons Ratio (z) = 0.21955 0.21955
#
# Static dielectric constant tensor:
#      x y z
#    x 4.152940 0.000000 0.000000 
#    y 0.000000 4.152940 0.000000 
#    z 0.000000 0.000000 3.644880 
# 
# 
# High freq. dielectric constant tensor:
#      x y z
#    x 1.735820 0.000000 0.000000 
#    y 0.000000 1.735820 0.000000 
#    z 0.000000 0.000000 1.737000 
# 
# From -- ./inp_files/6579.got.cif
#   From: 2010.03.12/outbox.cif.g09.slc.cpg/sg132_4_cif.got.tgz:6579.got - 2010.04.06 17:53:44.
