data_PCOD8316767
_publ_section_title
;
Structure prediction by ZEFSAII (Michael W. Deem and Ramdas Pophale) SiO2 
 PCOD8316767
Probable space group: P 42/M C M
;
_chemical_formula_sum "Si O2"
_cell_formula_units_Z 80
_cell_length_a 12.772300
_cell_length_b 12.772300
_cell_length_c 27.212261
_cell_angle_alpha 90.000000
_cell_angle_beta 90.000000
_cell_angle_gamma 90.000000
_cell_volume 4439.180963
_symmetry_space_group_name_H-M "P 42/M C M"
_symmetry_group_IT_number 132
_symmetry_cell_setting 'tetragonal'
loop_
_space_group_symop_operation_xyz
x,y,z
-y,x,1/2+z
-x,-y,z
y,-x,1/2+z
x,-y,1/2-z
-x,y,1/2-z
y,x,-z
-y,-x,-z
-x,-y,-z
y,-x,1/2-z
x,y,-z
-y,x,1/2-z
-x,y,1/2+z
x,-y,1/2+z
-y,-x,z
y,x,z
loop_
_atom_site_type_symbol
_atom_site_label
_atom_site_fract_x
_atom_site_fract_y
_atom_site_fract_z
Si Si1 0.069057 0.763217 0.205728
Si Si2 0.559864 0.106994 0.557417
Si Si3 0.212446 0.382732 0.235910
Si Si4 0.882123 0.710382 0.857205
Si Si5 0.499109 0.664833 0.941995
O O1 0.151743 0.848258 0.187740
O O2 0.125635 0.659737 0.226384
O O3 0.000000 0.811398 0.250000
O O4 0.000295 0.734369 0.158789
O O5 0.588851 0.108331 0.500000
O O6 0.666911 0.111780 0.587745
O O7 0.495376 0.212257 0.572764
O O8 0.500000 0.000000 0.571382
O O9 0.238999 0.500000 0.250000
O O10 0.319299 0.319299 0.241455
O O11 0.169333 0.373550 0.180190
O O12 0.817576 0.817576 0.856484
O O13 0.395816 0.604185 0.921208
O O14 0.604652 0.604652 0.922467
O O15 0.498773 0.656145 0.000000
#
# Coordination Sequence:
#
# PCOD8316767 Si02
#       5
#    16  16  16  16  16
#     4   9  18  32  53  80 106 136 176 222 271 318
#     4  10  21  35  52  77 109 145 182 224 273 322
#     4   9  19  34  53  80 110 142 175 210 263 327
#     4  10  21  34  53  80 104 136 182 223 266 320
#     4   8  14  28  52  76  97 128 172 221 268 310
#
# _framework density 18.021341
#
# number of rings (size 3 to 8) (size 9 to 14) (size 15 to 20)
#    0.000    2.800    0.000    3.000    2.800    5.600 
#    0.000    2.000    0.000    3.000    0.000    1.400 
#    0.000    0.000    0.000    0.000    0.000    0.000 
#
# Total GULP energy -991588.678603 kJ/mol
# GULP energy per Si atom -12394.858483 kJ/mol
# Density = 1.798032 g / cm^3
# Si number density = 18.021341 Si / 1000 Ang^3
#
#
#
# Elastic Constant Matrix: (Units=GPa)
#
#
# Indices 1 2 3 4 5 6 
#
# 1 125.6820 53.0182 39.0532 0.0000 0.0000 0.0000
# 2 53.0182 125.6820 39.0532 0.0000 0.0000 0.0000
# 3 39.0532 39.0532 65.7012 0.0000 0.0000 0.0000
# 4 0.0000 0.0000 0.0000 19.9323 0.0000 0.0000
# 5 0.0000 0.0000 0.0000 0.0000 19.9323 0.0000
# 6 0.0000 0.0000 0.0000 0.0000 0.0000 14.6910
#
#
#
# Elastic Compliance Matrix: (Units=1/GPa)
#
#
# Indices 1 2 3 4 5 6 
#
# 1 0.010661 -0.003101 -0.004494 0.000000 0.000000 0.000000
# 2 -0.003101 0.010661 -0.004494 0.000000 0.000000 0.000000
# 3 -0.004494 -0.004494 0.020563 0.000000 0.000000 0.000000
# 4 0.000000 0.000000 0.000000 0.050170 0.000000 0.000000
# 5 0.000000 0.000000 0.000000 0.000000 0.050170 0.000000
# 6 0.000000 0.000000 0.000000 0.000000 0.000000 0.068069
#
#
# Mechanical properties :
#
#
# Convention : Reuss Voigt Hill
#
# Bulk Modulus (GPa) = 56.47227 64.36824 60.42026
# Shear Modulus (GPa) = 20.80099 23.30715 22.05407
#
# Velocity S-wave (km/s) = 3.40110 3.60016 3.50205
# Velocity P-wave (km/s) = 6.84307 7.28539 7.06769
#
# Compressibility (1/GPa) = 0.01770781
#
# Stress axis : x y z
#
# Youngs Moduli (GPa) = 93.79933 93.79933 48.63179
#
# Poissons Ratio (x) = 0.29087 0.21854
# Poissons Ratio (y) = 0.29087 0.21854
# Poissons Ratio (z) = 0.42151 0.42151
#
# Static dielectric constant tensor:
#      x y z
#    x 3.441570 0.000000 0.000000 
#    y 0.000000 3.441570 0.000000 
#    z 0.000000 0.000000 3.128040 
# 
# 
# High freq. dielectric constant tensor:
#      x y z
#    x 1.695570 0.000000 0.000000 
#    y 0.000000 1.695570 0.000000 
#    z 0.000000 0.000000 1.673880 
# 
# From -- ./inp_files/10590.got.cif
#   From: 2010.03.12/outbox.cif.g09.slc.cpg/sg132_6_cif.got.tgz:10590.got - 2010.04.06 17:53:44.
