data_PCOD8316328
_publ_section_title
;
Structure prediction by ZEFSAII (Michael W. Deem and Ramdas Pophale) SiO2 
 PCOD8316328
Probable space group: P 42/M M C
;
_chemical_formula_sum "Si O2"
_cell_formula_units_Z 48
_cell_length_a 7.846706
_cell_length_b 7.846706
_cell_length_c 38.087118
_cell_angle_alpha 90.000000
_cell_angle_beta 90.000000
_cell_angle_gamma 90.000000
_cell_volume 2345.054136
_symmetry_space_group_name_H-M "P 42/M M C"
_symmetry_group_IT_number 131
_symmetry_cell_setting 'tetragonal'
loop_
_space_group_symop_operation_xyz
x,y,z
-x,-y,z
-y,x,1/2+z
y,-x,1/2+z
-x,y,-z
x,-y,-z
y,x,1/2-z
-y,-x,1/2-z
-x,-y,-z
x,y,-z
y,-x,1/2-z
-y,x,1/2-z
x,-y,z
-x,y,z
-y,-x,1/2+z
y,x,1/2+z
loop_
_atom_site_type_symbol
_atom_site_label
_atom_site_fract_x
_atom_site_fract_y
_atom_site_fract_z
Si Si1 0.000000 0.295615 0.835328
Si Si2 0.310930 0.701551 0.210574
Si Si3 0.798885 0.689658 0.539123
Si Si4 0.304945 0.000000 0.587049
O O1 0.170188 0.224494 0.816238
O O2 0.000000 0.500000 0.834117
O O3 0.000000 0.216350 0.874725
O O4 0.251705 0.748296 0.250000
O O5 0.322459 0.500000 0.207111
O O6 0.500000 0.778470 0.202330
O O7 0.728197 0.730680 0.500000
O O8 0.736804 0.500000 0.550651
O O9 0.000000 0.694859 0.538008
O O10 0.736100 0.829519 0.566085
O O11 0.500000 0.000000 0.595788
#
# Coordination Sequence:
#
# PCOD8316328 Si02
#       4
#     8  16  16   8
#     4   9  18  30  46  73 108 140 170 208 260 329
#     4   8  14  27  49  71  91 127 176 216 252 303
#     4   9  19  37  59  77  97 139 194 233 263 315
#     4  11  22  32  49  82 118 146 168 212 286 342
#
# _framework density 20.468609000000001
#
# number of rings (size 3 to 8) (size 9 to 14) (size 15 to 20)
#    0.000    3.000    0.000    3.000    0.000    4.667 
#    0.000    5.000    7.333    0.000    0.000    0.000 
#    0.000    0.000    0.000    0.000    0.000    0.000 
#
# Total GULP energy -594782.345151 kJ/mol
# GULP energy per Si atom -12391.298857 kJ/mol
# Density = 2.042202 g / cm^3
# Si number density = 20.468609 Si / 1000 Ang^3
#
#
#
# Elastic Constant Matrix: (Units=GPa)
#
#
# Indices 1 2 3 4 5 6 
#
# 1 91.8774 29.0322 71.1295 0.0000 0.0000 0.0000
# 2 29.0322 91.8771 71.1294 0.0000 0.0000 0.0000
# 3 71.1295 71.1294 185.6291 0.0000 0.0000 0.0000
# 4 0.0000 0.0000 0.0000 16.2844 0.0000 0.0000
# 5 0.0000 0.0000 0.0000 0.0000 16.2844 0.0000
# 6 0.0000 0.0000 0.0000 0.0000 0.0000 43.6588
#
#
#
# Elastic Compliance Matrix: (Units=1/GPa)
#
#
# Indices 1 2 3 4 5 6 
#
# 1 0.015486 -0.000426 -0.005771 0.000000 0.000000 0.000000
# 2 -0.000426 0.015486 -0.005771 0.000000 0.000000 0.000000
# 3 -0.005771 -0.005771 0.009810 0.000000 0.000000 0.000000
# 4 0.000000 0.000000 0.000000 0.061408 0.000000 0.000000
# 5 0.000000 0.000000 0.000000 0.000000 0.061408 0.000000
# 6 0.000000 0.000000 0.000000 0.000000 0.000000 0.022905
#
#
# Mechanical properties :
#
#
# Convention : Reuss Voigt Hill
#
# Bulk Modulus (GPa) = 59.35717 79.10728 69.23222
# Shear Modulus (GPa) = 23.14226 28.45170 25.79698
#
# Velocity S-wave (km/s) = 3.36612 3.73234 3.55395
# Velocity P-wave (km/s) = 6.64603 7.57006 7.12305
#
# Compressibility (1/GPa) = 0.01684717
#
# Stress axis : x y z
#
# Youngs Moduli (GPa) = 64.57306 64.57285 101.94001
#
# Poissons Ratio (x) = 0.02749 0.58829
# Poissons Ratio (y) = 0.02749 0.58829
# Poissons Ratio (z) = 0.37265 0.37264
#
# Static dielectric constant tensor:
#      x y z
#    x 3.645090 0.000000 0.000000 
#    y 0.000000 3.645090 0.000000 
#    z 0.000000 0.000000 4.536870 
# 
# 
# High freq. dielectric constant tensor:
#      x y z
#    x 1.785780 0.000000 0.000000 
#    y 0.000000 1.785780 0.000000 
#    z 0.000000 0.000000 1.796160 
# 
# From -- ./inp_files/12948.got.cif
#   From: 2010.03.12/outbox.cif.g09.slc.cpg/sg131_7_cif.got.tgz:12948.got - 2010.04.06 17:36:35.
