data_PCOD8316606
_publ_section_title
;
Structure prediction by ZEFSAII (Michael W. Deem and Ramdas Pophale) SiO2 
 PCOD8316606
Probable space group: P 42/M C M
;
_chemical_formula_sum "Si O2"
_cell_formula_units_Z 72
_cell_length_a 12.756917
_cell_length_b 12.756917
_cell_length_c 27.293034
_cell_angle_alpha 90.000000
_cell_angle_beta 90.000000
_cell_angle_gamma 90.000000
_cell_volume 4441.639186
_symmetry_space_group_name_H-M "P 42/M C M"
_symmetry_group_IT_number 132
_symmetry_cell_setting 'tetragonal'
loop_
_space_group_symop_operation_xyz
x,y,z
-y,x,1/2+z
-x,-y,z
y,-x,1/2+z
x,-y,1/2-z
-x,y,1/2-z
y,x,-z
-y,-x,-z
-x,-y,-z
y,-x,1/2-z
x,y,-z
-y,x,1/2-z
-x,y,1/2+z
x,-y,1/2+z
-y,-x,z
y,x,z
loop_
_atom_site_type_symbol
_atom_site_label
_atom_site_fract_x
_atom_site_fract_y
_atom_site_fract_z
Si Si1 0.926985 0.248401 0.556971
Si Si2 0.086856 0.913145 0.056086
Si Si3 0.777520 0.608504 0.773548
Si Si4 0.390673 0.942295 0.643359
Si Si5 0.920787 0.246423 0.790705
O O1 0.934983 0.281376 0.500000
O O2 0.831438 0.168563 0.564559
O O3 0.906818 0.351167 0.589697
O O4 0.036916 0.195063 0.576564
O O5 0.108766 0.891235 0.000000
O O6 0.000000 0.000000 0.063153
O O7 0.740411 0.500000 0.750000
O O8 0.675002 0.675002 0.786340
O O9 0.840578 0.590233 0.823561
O O10 0.850109 0.665079 0.734061
O O11 0.500000 0.000000 0.637319
O O12 0.300410 0.016303 0.665601
O O13 0.849392 0.150609 0.810928
O O14 0.000000 0.200016 0.750000
#
# Coordination Sequence:
#
# PCOD8316606 Si02
#       5
#    16   8  16  16  16
#     4   9  18  32  48  69  98 128 162 204 245 289
#     4   7  12  26  46  66  92 124 155 193 239 283
#     4  10  19  34  52  71  95 126 163 200 244 291
#     4  11  20  31  51  72  99 133 163 200 244 296
#     4   9  19  32  48  69  98 132 163 197 240 291
#
# _framework density 16.210232999999999
#
# number of rings (size 3 to 8) (size 9 to 14) (size 15 to 20)
#    0.000    2.556    2.222    2.000    1.556    1.778 
#    0.000    0.000    0.000    0.000    0.000    0.000 
#    0.000    0.000    0.000    7.556    0.000    0.000 
#
# Total GULP energy -892209.831497 kJ/mol
# GULP energy per Si atom -12391.803215 kJ/mol
# Density = 1.617334 g / cm^3
# Si number density = 16.210233 Si / 1000 Ang^3
#
#
#
# Elastic Constant Matrix: (Units=GPa)
#
#
# Indices 1 2 3 4 5 6 
#
# 1 84.7781 43.1591 45.0540 0.0000 0.0000 0.0000
# 2 43.1591 84.7781 45.0539 0.0000 0.0000 0.0000
# 3 45.0540 45.0539 90.1433 0.0000 0.0000 0.0000
# 4 0.0000 0.0000 0.0000 13.7977 0.0000 0.0000
# 5 0.0000 0.0000 0.0000 0.0000 13.7976 0.0000
# 6 0.0000 0.0000 0.0000 0.0000 0.0000 21.8163
#
#
#
# Elastic Compliance Matrix: (Units=1/GPa)
#
#
# Indices 1 2 3 4 5 6 
#
# 1 0.018045 -0.005982 -0.006029 0.000000 0.000000 0.000000
# 2 -0.005982 0.018045 -0.006029 0.000000 0.000000 0.000000
# 3 -0.006029 -0.006029 0.017120 0.000000 0.000000 0.000000
# 4 0.000000 0.000000 0.000000 0.072476 0.000000 0.000000
# 5 0.000000 0.000000 0.000000 0.000000 0.072476 0.000000
# 6 0.000000 0.000000 0.000000 0.000000 0.000000 0.045837
#
#
# Mechanical properties :
#
#
# Convention : Reuss Voigt Hill
#
# Bulk Modulus (GPa) = 58.37889 58.47039 58.42464
# Shear Modulus (GPa) = 17.49536 18.31115 17.90326
#
# Velocity S-wave (km/s) = 3.28880 3.36460 3.32692
# Velocity P-wave (km/s) = 7.10728 7.15838 7.13288
#
# Compressibility (1/GPa) = 0.01712948
#
# Stress axis : x y z
#
# Youngs Moduli (GPa) = 55.41688 55.41686 58.41115
#
# Poissons Ratio (x) = 0.33153 0.35216
# Poissons Ratio (y) = 0.33153 0.35216
# Poissons Ratio (z) = 0.33410 0.33410
#
# Static dielectric constant tensor:
#      x y z
#    x 3.002790 0.000000 0.000000 
#    y 0.000000 3.002790 0.000000 
#    z 0.000000 0.000000 2.917720 
# 
# 
# High freq. dielectric constant tensor:
#      x y z
#    x 1.610410 0.000000 0.000000 
#    y 0.000000 1.610410 0.000000 
#    z 0.000000 0.000000 1.616160 
# 
# From -- ./inp_files/9755.got.cif
#   From: 2010.03.12/outbox.cif.g09.slc.cpg/sg132_5_cif.got.tgz:9755.got - 2010.04.06 17:53:44.
