data_PCOD8316740
_publ_section_title
;
Structure prediction by ZEFSAII (Michael W. Deem and Ramdas Pophale) SiO2 
 PCOD8316740
Probable space group: P 42/M C M
;
_chemical_formula_sum "Si O2"
_cell_formula_units_Z 80
_cell_length_a 11.941200
_cell_length_b 11.941200
_cell_length_c 30.822733
_cell_angle_alpha 90.000000
_cell_angle_beta 90.000000
_cell_angle_gamma 90.000000
_cell_volume 4395.083079
_symmetry_space_group_name_H-M "P 42/M C M"
_symmetry_group_IT_number 132
_symmetry_cell_setting 'tetragonal'
loop_
_space_group_symop_operation_xyz
x,y,z
-y,x,1/2+z
-x,-y,z
y,-x,1/2+z
x,-y,1/2-z
-x,y,1/2-z
y,x,-z
-y,-x,-z
-x,-y,-z
y,-x,1/2-z
x,y,-z
-y,x,1/2-z
-x,y,1/2+z
x,-y,1/2+z
-y,-x,z
y,x,z
loop_
_atom_site_type_symbol
_atom_site_label
_atom_site_fract_x
_atom_site_fract_y
_atom_site_fract_z
Si Si1 0.868888 0.315519 0.249409
Si Si2 0.524943 0.172634 0.584808
Si Si3 0.911094 0.088907 0.948461
Si Si4 0.869447 0.500755 0.818889
Si Si5 0.334316 0.024019 0.551068
Si Si6 0.587630 0.412371 0.550828
O O1 0.798326 0.201675 0.249613
O O2 0.837843 0.387928 0.206926
O O3 0.837457 0.389636 0.291276
O O4 0.000000 0.284124 0.250000
O O5 0.503443 0.194768 0.635630
O O6 0.413721 0.129194 0.560846
O O7 0.558118 0.288483 0.564479
O O8 0.625562 0.084499 0.577574
O O9 0.788689 0.054879 0.931534
O O10 0.910943 0.089058 0.000000
O O11 0.000000 0.000000 0.929855
O O12 0.000000 0.500000 0.829366
O O13 0.336001 0.996775 0.500000
O O14 0.500000 0.500000 0.571978
O O15 0.579678 0.420323 0.500000
#
# Coordination Sequence:
#
# PCOD8316740 Si02
#       6
#    16  16   8  16  16   8
#     4   9  19  35  60  84 113 144 178 223 281 349
#     4  11  21  37  60  83 108 152 202 241 283 349
#     4   9  20  36  56  83 114 147 189 244 297 339
#     4   9  18  37  58  83 108 145 186 228 281 333
#     4  10  20  36  59  82 110 150 198 244 290 346
#     4  11  26  40  52  79 120 157 193 246 297 335
#
# _framework density 18.202159999999999
#
# number of rings (size 3 to 8) (size 9 to 14) (size 15 to 20)
#    0.000    2.200    2.000    3.600    4.200    1.000 
#    0.000    0.000    0.000    1.200    0.000    0.000 
#    0.000    0.000    0.000    0.000    0.000    0.000 
#
# Total GULP energy -992058.534202 kJ/mol
# GULP energy per Si atom -12400.731678 kJ/mol
# Density = 1.816073 g / cm^3
# Si number density = 18.202160 Si / 1000 Ang^3
#
#
#
# Elastic Constant Matrix: (Units=GPa)
#
#
# Indices 1 2 3 4 5 6 
#
# 1 127.1187 86.5150 26.9706 0.0000 0.0000 0.0000
# 2 86.5150 127.1183 26.9704 0.0000 0.0000 0.0000
# 3 26.9706 26.9704 90.0783 0.0000 0.0000 0.0000
# 4 0.0000 0.0000 0.0000 5.5010 0.0000 0.0000
# 5 0.0000 0.0000 0.0000 0.0000 5.5007 0.0000
# 6 0.0000 0.0000 0.0000 0.0000 0.0000 21.4388
#
#
#
# Elastic Compliance Matrix: (Units=1/GPa)
#
#
# Indices 1 2 3 4 5 6 
#
# 1 0.014846 -0.009782 -0.001516 0.000000 0.000000 0.000000
# 2 -0.009782 0.014846 -0.001516 0.000000 0.000000 0.000000
# 3 -0.001516 -0.001516 0.012009 0.000000 0.000000 0.000000
# 4 0.000000 0.000000 0.000000 0.181787 0.000000 0.000000
# 5 0.000000 0.000000 0.000000 0.000000 0.181794 0.000000
# 6 0.000000 0.000000 0.000000 0.000000 0.000000 0.046644
#
#
# Mechanical properties :
#
#
# Convention : Reuss Voigt Hill
#
# Bulk Modulus (GPa) = 62.21906 69.46972 65.84439
# Shear Modulus (GPa) = 10.35382 20.07872 15.21627
#
# Velocity S-wave (km/s) = 2.38759 3.32489 2.89443
# Velocity P-wave (km/s) = 6.46972 7.27931 6.88642
#
# Compressibility (1/GPa) = 0.01607224
#
# Stress axis : x y z
#
# Youngs Moduli (GPa) = 67.35786 67.35775 83.26847
#
# Poissons Ratio (x) = 0.65892 0.12625
# Poissons Ratio (y) = 0.65892 0.12624
# Poissons Ratio (z) = 0.10213 0.10212
#
# Static dielectric constant tensor:
#      x y z
#    x 3.318340 0.000000 0.000000 
#    y 0.000000 3.318340 0.000000 
#    z 0.000000 0.000000 3.473690 
# 
# 
# High freq. dielectric constant tensor:
#      x y z
#    x 1.701330 0.000000 0.000000 
#    y 0.000000 1.701330 0.000000 
#    z 0.000000 0.000000 1.701630 
# 
# From -- ./inp_files/10667.got.cif
#   From: 2010.03.12/outbox.cif.g09.slc.cpg/sg132_6_cif.got.tgz:10667.got - 2010.04.06 17:53:44.
