data_PCOD8316524
_publ_section_title
;
Structure prediction by ZEFSAII (Michael W. Deem and Ramdas Pophale) SiO2 
 PCOD8316524
Probable space group: P 42/M C M
;
_chemical_formula_sum "Si O2"
_cell_formula_units_Z 96
_cell_length_a 27.286659
_cell_length_b 27.286659
_cell_length_c 8.849366
_cell_angle_alpha 90.000000
_cell_angle_beta 90.000000
_cell_angle_gamma 90.000000
_cell_volume 6588.899518
_symmetry_space_group_name_H-M "P 42/M C M"
_symmetry_group_IT_number 132
_symmetry_cell_setting 'tetragonal'
loop_
_space_group_symop_operation_xyz
x,y,z
-y,x,1/2+z
-x,-y,z
y,-x,1/2+z
x,-y,1/2-z
-x,y,1/2-z
y,x,-z
-y,-x,-z
-x,-y,-z
y,-x,1/2-z
x,y,-z
-y,x,1/2-z
-x,y,1/2+z
x,-y,1/2+z
-y,-x,z
y,x,z
loop_
_atom_site_type_symbol
_atom_site_label
_atom_site_fract_x
_atom_site_fract_y
_atom_site_fract_z
Si Si1 0.947026 0.868743 0.320614
Si Si2 0.654333 0.734134 0.321881
Si Si3 0.790275 0.872669 0.332314
Si Si4 0.449990 0.275842 0.177833
Si Si5 0.724147 0.194381 0.333384
Si Si6 0.377509 0.543612 0.170387
O O1 0.950732 0.868611 0.500000
O O2 0.915524 0.915524 0.265558
O O3 0.920421 0.818404 0.266467
O O4 0.000000 0.872362 0.250000
O O5 0.646664 0.731036 0.500000
O O6 0.685215 0.685215 0.268307
O O7 0.601354 0.742388 0.246589
O O8 0.684214 0.782884 0.279512
O O9 0.770103 0.883688 0.500000
O O10 0.828660 0.828660 0.341521
O O11 0.743773 0.857756 0.229351
O O12 0.500000 0.251831 0.250000
O O13 0.450410 0.333049 0.214761
O O14 0.450205 0.265618 0.000000
O O15 0.701048 0.186323 0.500000
O O16 0.769774 0.230227 0.345972
O O17 0.409237 0.500000 0.250000
O O18 0.406427 0.593574 0.165426
O O19 0.360211 0.530412 0.000000
#
# Coordination Sequence:
#
# PCOD8316524 Si02
#       6
#    16  16  16  16  16  16
#     4   9  18  30  42  57  78 107 145 187 228 266
#     4  10  19  30  44  61  81 103 126 154 190 231
#     4   8  14  26  41  55  75 103 132 164 206 253
#     4  11  21  32  45  58  74  96 122 151 183 222
#     4   9  16  25  39  61  83 100 123 156 194 236
#     4  10  20  32  44  56  69  86 110 141 179 222
#
# _framework density 14.56996
#
# number of rings (size 3 to 8) (size 9 to 14) (size 15 to 20)
#    0.000    2.500    0.000    5.500    0.000    7.667 
#    0.000    3.333    0.000    0.000    0.000    0.000 
#    0.000    0.000    0.000    0.000    0.000    0.833 
#
# Total GULP energy -1189256.890423 kJ/mol
# GULP energy per Si atom -12388.092609 kJ/mol
# Density = 1.453680 g / cm^3
# Si number density = 14.569960 Si / 1000 Ang^3
#
#
#
# Elastic Constant Matrix: (Units=GPa)
#
#
# Indices 1 2 3 4 5 6 
#
# 1 59.0667 52.1256 31.1409 0.0000 0.0000 0.0000
# 2 52.1256 59.0667 31.1409 0.0000 0.0000 0.0000
# 3 31.1409 31.1409 77.9386 0.0000 0.0000 0.0000
# 4 0.0000 0.0000 0.0000 21.5531 0.0000 0.0000
# 5 0.0000 0.0000 0.0000 0.0000 21.5531 0.0000
# 6 0.0000 0.0000 0.0000 0.0000 0.0000 16.2393
#
#
#
# Elastic Compliance Matrix: (Units=1/GPa)
#
#
# Indices 1 2 3 4 5 6 
#
# 1 0.077829 -0.066242 -0.004629 0.000000 0.000000 0.000000
# 2 -0.066242 0.077829 -0.004629 0.000000 0.000000 0.000000
# 3 -0.004629 -0.004629 0.016530 0.000000 0.000000 0.000000
# 4 0.000000 0.000000 0.000000 0.046397 0.000000 0.000000
# 5 0.000000 0.000000 0.000000 0.000000 0.046397 0.000000
# 6 0.000000 0.000000 0.000000 0.000000 0.000000 0.061579
#
#
# Mechanical properties :
#
#
# Convention : Reuss Voigt Hill
#
# Bulk Modulus (GPa) = 47.20267 47.20963 47.20615
# Shear Modulus (GPa) = 10.31727 17.31340 13.81533
#
# Velocity S-wave (km/s) = 2.66394 3.45090 3.08264
# Velocity P-wave (km/s) = 6.47531 6.95347 6.71864
#
# Compressibility (1/GPa) = 0.02118524
#
# Stress axis : x y z
#
# Youngs Moduli (GPa) = 12.84874 12.84874 60.49574
#
# Poissons Ratio (x) = 0.85113 0.28006
# Poissons Ratio (y) = 0.85113 0.28006
# Poissons Ratio (z) = 0.05948 0.05948
#
# Static dielectric constant tensor:
#      x y z
#    x 2.917600 0.000000 0.000000 
#    y 0.000000 2.917600 0.000000 
#    z 0.000000 0.000000 3.088440 
# 
# 
# High freq. dielectric constant tensor:
#      x y z
#    x 1.524170 0.000000 0.000000 
#    y 0.000000 1.524170 0.000000 
#    z 0.000000 0.000000 1.571460 
# 
# From -- ./inp_files/1944.got.cif
#   From: 2010.03.12/outbox.cif.g09.slc.cpg/sg132_1_cif.got.tgz:1944.got - 2010.04.06 17:53:44.
