data_PCOD8316566
_publ_section_title
;
Structure prediction by ZEFSAII (Michael W. Deem and Ramdas Pophale) SiO2 
 PCOD8316566
Probable space group: P 42/M C M
;
_chemical_formula_sum "Si O2"
_cell_formula_units_Z 88
_cell_length_a 14.754444
_cell_length_b 14.754444
_cell_length_c 23.674675
_cell_angle_alpha 90.000000
_cell_angle_beta 90.000000
_cell_angle_gamma 90.000000
_cell_volume 5153.825650
_symmetry_space_group_name_H-M "P 42/M C M"
_symmetry_group_IT_number 132
_symmetry_cell_setting 'tetragonal'
loop_
_space_group_symop_operation_xyz
x,y,z
-y,x,1/2+z
-x,-y,z
y,-x,1/2+z
x,-y,1/2-z
-x,y,1/2-z
y,x,-z
-y,-x,-z
-x,-y,-z
y,-x,1/2-z
x,y,-z
-y,x,1/2-z
-x,y,1/2+z
x,-y,1/2+z
-y,-x,z
y,x,z
loop_
_atom_site_type_symbol
_atom_site_label
_atom_site_fract_x
_atom_site_fract_y
_atom_site_fract_z
Si Si1 0.452494 0.134468 0.436196
Si Si2 0.736451 0.881251 0.288460
Si Si3 0.396029 0.754589 0.161803
Si Si4 0.073865 0.776763 0.666147
Si Si5 0.355095 0.952344 0.435109
Si Si6 0.500000 0.647178 0.750000
O O1 0.448343 0.167859 0.500000
O O2 0.435058 0.223158 0.399416
O O3 0.551768 0.098079 0.421728
O O4 0.374689 0.058803 0.425725
O O5 0.802798 0.802798 0.306576
O O6 0.637829 0.850487 0.311062
O O7 0.724939 0.885750 0.220572
O O8 0.782594 0.967897 0.318499
O O9 0.316053 0.683948 0.154943
O O10 0.477157 0.711628 0.197700
O O11 0.125095 0.874906 0.659624
O O12 0.085327 0.720969 0.607972
O O13 0.323349 0.934934 0.500000
O O14 0.585589 0.585589 0.767672
#
# Coordination Sequence:
#
# PCOD8316566 Si02
#       6
#    16  16  16  16  16   8
#     4   9  18  33  52  73 100 133 171 215 258 301
#     4   9  19  33  48  75 105 132 174 216 255 301
#     4  10  19  33  54  77 104 134 168 213 253 307
#     4  10  19  32  51  73 104 139 170 212 259 308
#     4   9  18  33  50  71 101 135 173 215 258 303
#     4   9  20  36  52  75 106 140 170 207 274 334
#
# _framework density 17.074694000000001
#
# number of rings (size 3 to 8) (size 9 to 14) (size 15 to 20)
#    0.000    2.636    1.818    1.091    2.545    1.091 
#    0.000    1.818    0.000    2.182    0.000    3.818 
#    0.000    0.000    0.000    0.000    0.000    0.000 
#
# Total GULP energy -1090317.164625 kJ/mol
# GULP energy per Si atom -12389.967780 kJ/mol
# Density = 1.703583 g / cm^3
# Si number density = 17.074694 Si / 1000 Ang^3
#
#
#
# Elastic Constant Matrix: (Units=GPa)
#
#
# Indices 1 2 3 4 5 6 
#
# 1 74.7775 32.0608 52.5128 0.0000 0.0000 0.0000
# 2 32.0608 74.7775 52.5128 0.0000 0.0000 0.0000
# 3 52.5128 52.5128 117.0360 0.0000 0.0000 0.0000
# 4 0.0000 0.0000 0.0000 30.8815 0.0000 0.0000
# 5 0.0000 0.0000 0.0000 0.0000 30.8815 0.0000
# 6 0.0000 0.0000 0.0000 0.0000 0.0000 7.4072
#
#
#
# Elastic Compliance Matrix: (Units=1/GPa)
#
#
# Indices 1 2 3 4 5 6 
#
# 1 0.020078 -0.003332 -0.007514 0.000000 0.000000 0.000000
# 2 -0.003332 0.020078 -0.007514 0.000000 0.000000 0.000000
# 3 -0.007514 -0.007514 0.015287 0.000000 0.000000 0.000000
# 4 0.000000 0.000000 0.000000 0.032382 0.000000 0.000000
# 5 0.000000 0.000000 0.000000 0.000000 0.032382 0.000000
# 6 0.000000 0.000000 0.000000 0.000000 0.000000 0.135004
#
#
# Mechanical properties :
#
#
# Convention : Reuss Voigt Hill
#
# Bulk Modulus (GPa) = 53.40659 60.08487 56.74573
# Shear Modulus (GPa) = 16.76884 22.46768 19.61826
#
# Velocity S-wave (km/s) = 3.13723 3.63140 3.39332
# Velocity P-wave (km/s) = 6.66851 7.26970 6.97559
#
# Compressibility (1/GPa) = 0.01872428
#
# Stress axis : x y z
#
# Youngs Moduli (GPa) = 49.80526 49.80526 65.41418
#
# Poissons Ratio (x) = 0.16594 0.49152
# Poissons Ratio (y) = 0.16594 0.49152
# Poissons Ratio (z) = 0.37423 0.37423
#
# Static dielectric constant tensor:
#      x y z
#    x 3.150200 0.000000 0.000000 
#    y 0.000000 3.150200 0.000000 
#    z 0.000000 0.000000 3.217500 
# 
# 
# High freq. dielectric constant tensor:
#      x y z
#    x 1.646870 0.000000 0.000000 
#    y 0.000000 1.646870 0.000000 
#    z 0.000000 0.000000 1.662790 
# 
# From -- ./inp_files/8960.got.cif
#   From: 2010.03.12/outbox.cif.g09.slc.cpg/sg132_5_cif.got.tgz:8960.got - 2010.04.06 17:53:44.
