data_PCOD8316188
_publ_section_title
;
Structure prediction by ZEFSAII (Michael W. Deem and Ramdas Pophale) SiO2 
 PCOD8316188
Probable space group: P 42/M M C
;
_chemical_formula_sum "Si O2"
_cell_formula_units_Z 72
_cell_length_a 14.938682
_cell_length_b 14.938682
_cell_length_c 16.584582
_cell_angle_alpha 90.000000
_cell_angle_beta 90.000000
_cell_angle_gamma 90.000000
_cell_volume 3701.085304
_symmetry_space_group_name_H-M "P 42/M M C"
_symmetry_group_IT_number 131
_symmetry_cell_setting 'tetragonal'
loop_
_space_group_symop_operation_xyz
x,y,z
-x,-y,z
-y,x,1/2+z
y,-x,1/2+z
-x,y,-z
x,-y,-z
y,x,1/2-z
-y,-x,1/2-z
-x,-y,-z
x,y,-z
y,-x,1/2-z
-y,x,1/2-z
x,-y,z
-x,y,z
-y,-x,1/2+z
y,x,1/2+z
loop_
_atom_site_type_symbol
_atom_site_label
_atom_site_fract_x
_atom_site_fract_y
_atom_site_fract_z
Si Si1 0.100901 0.000000 0.095509
Si Si2 0.401234 0.605400 0.089652
Si Si3 0.897415 0.398290 0.288180
Si Si4 0.235167 0.317289 0.824366
Si Si5 0.761237 0.147567 0.907180
O O1 0.157349 0.913841 0.125052
O O2 0.000000 0.000000 0.133269
O O3 0.091607 0.000000 0.000000
O O4 0.403310 0.500000 0.085363
O O5 0.500000 0.640537 0.116972
O O6 0.327080 0.633086 0.153781
O O7 0.378908 0.643220 0.000000
O O8 0.881224 0.500000 0.318216
O O9 0.842672 0.384650 0.204034
O O10 0.868049 0.331720 0.359564
O O11 0.000000 0.381373 0.265798
O O12 0.251522 0.251522 0.750000
O O13 0.206548 0.250908 0.897097
O O14 0.740965 0.125710 0.000000
#
# Coordination Sequence:
#
# PCOD8316188 Si02
#       5
#     8  16  16  16  16
#     4   9  18  34  57  83 109 137 173 224 292 352
#     4   9  18  33  53  77 105 139 182 231 281 334
#     4  10  21  37  57  80 114 156 195 237 286 344
#     4  10  21  34  51  77 111 144 184 227 280 343
#     4  10  20  36  58  84 113 145 188 244 295 349
#
# _framework density 19.453754
#
# number of rings (size 3 to 8) (size 9 to 14) (size 15 to 20)
#    0.000    2.333    1.111    2.000    0.000    5.778 
#    0.000    2.222    0.000    2.000    0.000    7.778 
#    0.000    0.000    0.000    0.000    0.000    0.000 
#
# Total GULP energy -892228.722421 kJ/mol
# GULP energy per Si atom -12392.065589 kJ/mol
# Density = 1.940948 g / cm^3
# Si number density = 19.453754 Si / 1000 Ang^3
#
#
#
# Elastic Constant Matrix: (Units=GPa)
#
#
# Indices 1 2 3 4 5 6 
#
# 1 117.7543 45.3734 46.5546 0.0000 0.0000 0.0000
# 2 45.3734 117.7543 46.5546 0.0000 0.0000 0.0000
# 3 46.5546 46.5546 64.3611 0.0000 0.0000 0.0000
# 4 0.0000 0.0000 0.0000 24.8545 0.0000 0.0000
# 5 0.0000 0.0000 0.0000 0.0000 24.8545 0.0000
# 6 0.0000 0.0000 0.0000 0.0000 0.0000 29.7488
#
#
#
# Elastic Compliance Matrix: (Units=1/GPa)
#
#
# Indices 1 2 3 4 5 6 
#
# 1 0.012128 -0.001688 -0.007552 0.000000 0.000000 0.000000
# 2 -0.001688 0.012128 -0.007552 0.000000 0.000000 0.000000
# 3 -0.007552 -0.007552 0.026463 0.000000 0.000000 0.000000
# 4 0.000000 0.000000 0.000000 0.040234 0.000000 0.000000
# 5 0.000000 0.000000 0.000000 0.000000 0.040234 0.000000
# 6 0.000000 0.000000 0.000000 0.000000 0.000000 0.033615
#
#
# Mechanical properties :
#
#
# Convention : Reuss Voigt Hill
#
# Bulk Modulus (GPa) = 58.35778 64.09278 61.22528
# Shear Modulus (GPa) = 24.49804 26.65071 25.57437
#
# Velocity S-wave (km/s) = 3.55251 3.70530 3.62971
# Velocity P-wave (km/s) = 6.84766 7.16404 7.00763
#
# Compressibility (1/GPa) = 0.01713568
#
# Stress axis : x y z
#
# Youngs Moduli (GPa) = 82.45198 82.45198 37.78892
#
# Poissons Ratio (x) = 0.13914 0.28539
# Poissons Ratio (y) = 0.13914 0.28539
# Poissons Ratio (z) = 0.62269 0.62269
#
# Static dielectric constant tensor:
#      x y z
#    x 3.749840 0.000000 0.000000 
#    y 0.000000 3.749840 0.000000 
#    z 0.000000 0.000000 3.629590 
# 
# 
# High freq. dielectric constant tensor:
#      x y z
#    x 1.759130 0.000000 0.000000 
#    y 0.000000 1.759130 0.000000 
#    z 0.000000 0.000000 1.737330 
# 
# From -- ./inp_files/7524.got.cif
#   From: 2010.03.12/outbox.cif.g09.slc.cpg/sg131_4_cif.got.tgz:7524.got - 2010.04.06 17:36:35.
