data_PCOD8316051
_publ_section_title
;
Structure prediction by ZEFSAII (Michael W. Deem and Ramdas Pophale) SiO2 
 PCOD8316051
Probable space group: P 42/M M C
;
_chemical_formula_sum "Si O2"
_cell_formula_units_Z 64
_cell_length_a 19.839197
_cell_length_b 19.839197
_cell_length_c 8.593004
_cell_angle_alpha 90.000000
_cell_angle_beta 90.000000
_cell_angle_gamma 90.000000
_cell_volume 3382.152562
_symmetry_space_group_name_H-M "P 42/M M C"
_symmetry_group_IT_number 131
_symmetry_cell_setting 'tetragonal'
loop_
_space_group_symop_operation_xyz
x,y,z
-x,-y,z
-y,x,1/2+z
y,-x,1/2+z
-x,y,-z
x,-y,-z
y,x,1/2-z
-y,-x,1/2-z
-x,-y,-z
x,y,-z
y,-x,1/2-z
-y,x,1/2-z
x,-y,z
-x,y,z
-y,-x,1/2+z
y,x,1/2+z
loop_
_atom_site_type_symbol
_atom_site_label
_atom_site_fract_x
_atom_site_fract_y
_atom_site_fract_z
Si Si1 0.676357 0.577385 0.183713
Si Si2 0.687789 0.075224 0.680689
Si Si3 0.320374 0.218232 0.183134
Si Si4 0.925148 0.827455 0.328765
O O1 0.606239 0.606239 0.250000
O O2 0.682357 0.500000 0.233626
O O3 0.738518 0.617225 0.256887
O O4 0.678007 0.587029 0.000000
O O5 0.670578 0.083578 0.500000
O O6 0.660436 0.141014 0.770894
O O7 0.766954 0.077728 0.707638
O O8 0.661070 0.000000 0.737665
O O9 0.249247 0.249247 0.250000
O O10 0.315103 0.223763 0.000000
O O11 0.887855 0.887855 0.250000
O O12 0.895286 0.806867 0.500000
O O13 0.000000 0.853487 0.353070
#
# Coordination Sequence:
#
# PCOD8316051 Si02
#       4
#    16  16  16  16
#     4  10  21  37  58  85 117 151 186 222 260 307
#     4  10  20  34  52  73  99 131 169 216 269 322
#     4  11  21  34  55  80 109 143 181 225 270 321
#     4  10  20  32  45  62  86 117 156 203 255 313
#
# _framework density 18.92286
#
# number of rings (size 3 to 8) (size 9 to 14) (size 15 to 20)
#    0.000    1.750    0.000    6.750    0.000    5.500 
#    0.000    2.500    0.000    0.750    0.000    5.250 
#    0.000    0.000    0.000    0.000    0.000    0.000 
#
# Total GULP energy -792951.513085 kJ/mol
# GULP energy per Si atom -12389.867392 kJ/mol
# Density = 1.887979 g / cm^3
# Si number density = 18.922860 Si / 1000 Ang^3
#
#
#
# Elastic Constant Matrix: (Units=GPa)
#
#
# Indices 1 2 3 4 5 6 
#
# 1 114.7427 45.7403 42.1362 0.0000 0.0000 0.0000
# 2 45.7403 114.7427 42.1362 0.0000 0.0000 0.0000
# 3 42.1362 42.1362 101.7130 0.0000 0.0000 0.0000
# 4 0.0000 0.0000 0.0000 26.9248 0.0000 0.0000
# 5 0.0000 0.0000 0.0000 0.0000 26.9248 0.0000
# 6 0.0000 0.0000 0.0000 0.0000 0.0000 18.9134
#
#
#
# Elastic Compliance Matrix: (Units=1/GPa)
#
#
# Indices 1 2 3 4 5 6 
#
# 1 0.011228 -0.003264 -0.003299 0.000000 0.000000 0.000000
# 2 -0.003264 0.011228 -0.003299 0.000000 0.000000 0.000000
# 3 -0.003299 -0.003299 0.012565 0.000000 0.000000 0.000000
# 4 0.000000 0.000000 0.000000 0.037140 0.000000 0.000000
# 5 0.000000 0.000000 0.000000 0.000000 0.037140 0.000000
# 6 0.000000 0.000000 0.000000 0.000000 0.000000 0.052873
#
#
# Mechanical properties :
#
#
# Convention : Reuss Voigt Hill
#
# Bulk Modulus (GPa) = 65.37679 65.69151 65.53415
# Shear Modulus (GPa) = 26.73829 27.96498 27.35164
#
# Velocity S-wave (km/s) = 3.76309 3.84844 3.80600
# Velocity P-wave (km/s) = 7.31473 7.38499 7.34994
#
# Compressibility (1/GPa) = 0.01529595
#
# Stress axis : x y z
#
# Youngs Moduli (GPa) = 89.06377 89.06377 79.58657
#
# Poissons Ratio (x) = 0.29073 0.26256
# Poissons Ratio (y) = 0.29073 0.26256
# Poissons Ratio (z) = 0.29382 0.29382
#
# Static dielectric constant tensor:
#      x y z
#    x 3.540800 0.000000 0.000000 
#    y 0.000000 3.540800 0.000000 
#    z 0.000000 0.000000 3.734450 
# 
# 
# High freq. dielectric constant tensor:
#      x y z
#    x 1.721930 0.000000 0.000000 
#    y 0.000000 1.721930 0.000000 
#    z 0.000000 0.000000 1.753330 
# 
# From -- ./inp_files/1607.got.cif
#   From: 2010.03.12/outbox.cif.g09.slc.cpg/sg131_1_cif.got.tgz:1607.got - 2010.04.06 17:36:35.
