data_PCOD8316920
_publ_section_title
;
Structure prediction by ZEFSAII (Michael W. Deem and Ramdas Pophale) SiO2 
 PCOD8316920
Probable space group: P 42/N B C
;
_chemical_formula_sum "Si O2"
_cell_formula_units_Z 88
_cell_length_a 14.731455
_cell_length_b 14.731455
_cell_length_c 21.501609
_cell_angle_alpha 90.000000
_cell_angle_beta 90.000000
_cell_angle_gamma 90.000000
_cell_volume 4666.188156
_symmetry_space_group_name_H-M "P 42/N B C"
_symmetry_group_IT_number 133
_space_group.IT_coordinate_system_code '2'
_symmetry_cell_setting 'tetragonal'
loop_
_space_group_symop_operation_xyz
x,y,z
1/2-y,x,1/2+z
1/2-x,1/2-y,z
y,1/2-x,1/2+z
x,1/2-y,-z
1/2-x,y,-z
y,x,1/2-z
1/2-y,1/2-x,1/2-z
-x,-y,-z
1/2+y,-x,1/2-z
1/2+x,1/2+y,-z
-y,1/2+x,1/2-z
-x,1/2+y,z
1/2+x,-y,z
-y,-x,1/2+z
1/2+y,1/2+x,1/2+z
loop_
_atom_site_type_symbol
_atom_site_label
_atom_site_fract_x
_atom_site_fract_y
_atom_site_fract_z
Si Si1 0.341844 0.847482 0.728100
Si Si2 0.989968 0.995303 0.096322
Si Si3 0.977760 0.204775 0.628257
Si Si4 0.852774 0.448228 0.502627
Si Si5 0.026825 0.128315 0.296295
Si Si6 0.250000 0.596975 0.000000
O O1 0.361308 0.766562 0.777935
O O2 0.381274 0.820613 0.660524
O O3 0.388176 0.936481 0.755794
O O4 0.028491 0.902574 0.067104
O O5 0.052135 0.027964 0.151700
O O6 0.888824 0.968216 0.118870
O O7 0.988220 0.082601 0.050897
O O8 0.033749 0.271593 0.673690
O O9 0.965080 0.254721 0.562070
O O10 0.750000 0.488906 0.500000
O O11 0.842317 0.339787 0.496073
O O12 0.112250 0.112250 0.250000
#
# Coordination Sequence:
#
# PCOD8316920 Si02
#       6
#    16  16  16  16  16   8
#     4   9  19  34  54  85 118 149 187 236 307 371
#     4  10  21  38  58  86 117 155 200 237 301 357
#     4  10  20  36  57  86 118 159 191 248 298 360
#     4  10  21  38  58  89 119 157 191 244 301 365
#     4  11  20  36  57  85 116 160 197 245 293 359
#     4  10  19  34  58  92 125 140 187 250 316 366
#
# _framework density 18.859078
#
# number of rings (size 3 to 8) (size 9 to 14) (size 15 to 20)
#    0.000    2.000    3.636    0.273    0.000    2.909 
#   13.091    0.000    0.000    2.182    4.727    0.000 
#    0.000    0.000    0.000    0.000    0.000    0.000 
#
# Total GULP energy -1090696.371958 kJ/mol
# GULP energy per Si atom -12394.276954 kJ/mol
# Density = 1.881615 g / cm^3
# Si number density = 18.859078 Si / 1000 Ang^3
#
#
#
# Elastic Constant Matrix: (Units=GPa)
#
#
# Indices 1 2 3 4 5 6 
#
# 1 74.8081 29.0540 32.6993 0.0000 0.0000 0.0000
# 2 29.0540 74.8081 32.6993 0.0000 0.0000 0.0000
# 3 32.6993 32.6993 95.4358 0.0000 0.0000 0.0000
# 4 0.0000 0.0000 0.0000 20.8281 0.0000 0.0000
# 5 0.0000 0.0000 0.0000 0.0000 20.8281 0.0000
# 6 0.0000 0.0000 0.0000 0.0000 0.0000 19.5744
#
#
#
# Elastic Compliance Matrix: (Units=1/GPa)
#
#
# Indices 1 2 3 4 5 6 
#
# 1 0.017066 -0.004790 -0.004206 0.000000 0.000000 0.000000
# 2 -0.004790 0.017066 -0.004206 0.000000 0.000000 0.000000
# 3 -0.004206 -0.004206 0.013361 0.000000 0.000000 0.000000
# 4 0.000000 0.000000 0.000000 0.048012 0.000000 0.000000
# 5 0.000000 0.000000 0.000000 0.000000 0.048012 0.000000
# 6 0.000000 0.000000 0.000000 0.000000 0.000000 0.051087
#
#
# Mechanical properties :
#
#
# Convention : Reuss Voigt Hill
#
# Bulk Modulus (GPa) = 47.41879 48.21745 47.81812
# Shear Modulus (GPa) = 21.92607 22.28609 22.10608
#
# Velocity S-wave (km/s) = 3.41343 3.44134 3.42741
# Velocity P-wave (km/s) = 6.38229 6.43531 6.40886
#
# Compressibility (1/GPa) = 0.02108868
#
# Stress axis : x y z
#
# Youngs Moduli (GPa) = 58.59472 58.59472 74.84618
#
# Poissons Ratio (x) = 0.28064 0.31483
# Poissons Ratio (y) = 0.28064 0.31483
# Poissons Ratio (z) = 0.24647 0.24647
#
# Static dielectric constant tensor:
#      x y z
#    x 3.393270 0.000000 0.000000 
#    y 0.000000 3.393270 0.000000 
#    z 0.000000 0.000000 3.650190 
# 
# 
# High freq. dielectric constant tensor:
#      x y z
#    x 1.715370 0.000000 0.000000 
#    y 0.000000 1.715370 0.000000 
#    z 0.000000 0.000000 1.744330 
# 
# From -- ./inp_files/7133.got.cif
#   From: 2010.03.12/outbox.cif.g09.slc.cpg/sg133_4_cif.got.tgz:7133.got - 2010.04.06 18:08:06.
