data_PCOD8316092
_publ_section_title
;
Structure prediction by ZEFSAII (Michael W. Deem and Ramdas Pophale) SiO2 
 PCOD8316092
Probable space group: P 42/M M C
;
_chemical_formula_sum "Si O2"
_cell_formula_units_Z 96
_cell_length_a 14.574185
_cell_length_b 14.574185
_cell_length_c 24.151664
_cell_angle_alpha 90.000000
_cell_angle_beta 90.000000
_cell_angle_gamma 90.000000
_cell_volume 5129.979317
_symmetry_space_group_name_H-M "P 42/M M C"
_symmetry_group_IT_number 131
_symmetry_cell_setting 'tetragonal'
loop_
_space_group_symop_operation_xyz
x,y,z
-x,-y,z
-y,x,1/2+z
y,-x,1/2+z
-x,y,-z
x,-y,-z
y,x,1/2-z
-y,-x,1/2-z
-x,-y,-z
x,y,-z
y,-x,1/2-z
-y,x,1/2-z
x,-y,z
-x,y,z
-y,-x,1/2+z
y,x,1/2+z
loop_
_atom_site_type_symbol
_atom_site_label
_atom_site_fract_x
_atom_site_fract_y
_atom_site_fract_z
Si Si1 0.894213 0.255582 0.563045
Si Si2 0.897104 0.752332 0.935188
Si Si3 0.601047 0.391165 0.062611
Si Si4 0.754618 0.604648 0.247630
Si Si5 0.894894 0.606483 0.341637
Si Si6 0.218388 0.605110 0.878150
O O1 0.871037 0.285011 0.500000
O O2 0.837785 0.166373 0.581845
O O3 0.867575 0.339987 0.602583
O O4 0.000000 0.228274 0.569152
O O5 0.863057 0.659595 0.906795
O O6 0.000000 0.774263 0.914875
O O7 0.894231 0.734811 0.000000
O O8 0.597682 0.500000 0.065045
O O9 0.500000 0.353488 0.081192
O O10 0.681466 0.354456 0.103137
O O11 0.622907 0.358441 0.000000
O O12 0.662120 0.662120 0.250000
O O13 0.726777 0.500000 0.259881
O O14 0.830529 0.639836 0.291257
O O15 0.797244 0.614969 0.186970
O O16 0.880231 0.500000 0.354732
O O17 0.000000 0.626758 0.324445
O O18 0.210765 0.500000 0.897624
#
# Coordination Sequence:
#
# PCOD8316092 Si02
#       6
#    16  16  16  16  16  16
#     4   9  18  34  57  82 105 130 161 200 252 314
#     4  10  21  35  51  74 104 136 170 209 251 295
#     4   8  14  26  45  68  94 126 165 210 258 301
#     4  10  21  35  51  72 100 137 177 215 255 298
#     4   9  18  34  56  80 105 131 162 207 262 316
#     4  10  20  33  50  72 100 137 179 217 251 295
#
# _framework density 18.713526000000002
#
# number of rings (size 3 to 8) (size 9 to 14) (size 15 to 20)
#    0.000    2.667    0.000    2.000    0.000    3.500 
#    0.000    8.333    0.000    1.000    0.000    0.000 
#    0.000    4.000    0.000    0.000    0.000    0.167 
#
# Total GULP energy -1190350.656329 kJ/mol
# GULP energy per Si atom -12399.486003 kJ/mol
# Density = 1.867093 g / cm^3
# Si number density = 18.713526 Si / 1000 Ang^3
#
#
#
# Elastic Constant Matrix: (Units=GPa)
#
#
# Indices 1 2 3 4 5 6 
#
# 1 95.7978 60.1998 56.7401 0.0000 0.0000 0.0000
# 2 60.1998 95.7978 56.7401 0.0000 0.0000 0.0000
# 3 56.7401 56.7401 89.4997 0.0000 0.0000 0.0000
# 4 0.0000 0.0000 0.0000 22.4973 0.0000 0.0000
# 5 0.0000 0.0000 0.0000 0.0000 22.4973 0.0000
# 6 0.0000 0.0000 0.0000 0.0000 0.0000 30.6705
#
#
#
# Elastic Compliance Matrix: (Units=1/GPa)
#
#
# Indices 1 2 3 4 5 6 
#
# 1 0.019994 -0.008097 -0.007542 0.000000 0.000000 0.000000
# 2 -0.008097 0.019994 -0.007542 0.000000 0.000000 0.000000
# 3 -0.007542 -0.007542 0.020736 0.000000 0.000000 0.000000
# 4 0.000000 0.000000 0.000000 0.044450 0.000000 0.000000
# 5 0.000000 0.000000 0.000000 0.000000 0.044450 0.000000
# 6 0.000000 0.000000 0.000000 0.000000 0.000000 0.032605
#
#
# Mechanical properties :
#
#
# Convention : Reuss Voigt Hill
#
# Bulk Modulus (GPa) = 69.63250 69.82835 69.73043
# Shear Modulus (GPa) = 21.42429 22.29405 21.85917
#
# Velocity S-wave (km/s) = 3.38724 3.45531 3.42145
# Velocity P-wave (km/s) = 7.25178 7.30166 7.27677
#
# Compressibility (1/GPa) = 0.01436111
#
# Stress axis : x y z
#
# Youngs Moduli (GPa) = 50.01442 50.01442 48.22421
#
# Poissons Ratio (x) = 0.40498 0.36372
# Poissons Ratio (y) = 0.40498 0.36372
# Poissons Ratio (z) = 0.37723 0.37723
#
# Static dielectric constant tensor:
#      x y z
#    x 3.473720 0.000000 0.000000 
#    y 0.000000 3.473720 0.000000 
#    z 0.000000 0.000000 3.486620 
# 
# 
# High freq. dielectric constant tensor:
#      x y z
#    x 1.720080 0.000000 0.000000 
#    y 0.000000 1.720080 0.000000 
#    z 0.000000 0.000000 1.722850 
# 
# From -- ./inp_files/9765.got.cif
#   From: 2010.03.12/outbox.cif.g09.slc.cpg/sg131_5_cif.got.tgz:9765.got - 2010.04.06 17:36:35.
