data_PCOD8316195
_publ_section_title
;
Structure prediction by ZEFSAII (Michael W. Deem and Ramdas Pophale) SiO2 
 PCOD8316195
Probable space group: P 42/M M C
;
_chemical_formula_sum "Si O2"
_cell_formula_units_Z 112
_cell_length_a 14.948433
_cell_length_b 14.948433
_cell_length_c 24.311191
_cell_angle_alpha 90.000000
_cell_angle_beta 90.000000
_cell_angle_gamma 90.000000
_cell_volume 5432.472967
_symmetry_space_group_name_H-M "P 42/M M C"
_symmetry_group_IT_number 131
_symmetry_cell_setting 'tetragonal'
loop_
_space_group_symop_operation_xyz
x,y,z
-x,-y,z
-y,x,1/2+z
y,-x,1/2+z
-x,y,-z
x,-y,-z
y,x,1/2-z
-y,-x,1/2-z
-x,-y,-z
x,y,-z
y,-x,1/2-z
-y,x,1/2-z
x,-y,z
-x,y,z
-y,-x,1/2+z
y,x,1/2+z
loop_
_atom_site_type_symbol
_atom_site_label
_atom_site_fract_x
_atom_site_fract_y
_atom_site_fract_z
Si Si1 0.729979 0.598355 0.634049
Si Si2 0.898051 0.717759 0.937118
Si Si3 0.900867 0.174667 0.404054
Si Si4 0.902204 0.227208 0.719456
Si Si5 0.182839 0.400508 0.747170
Si Si6 0.395948 0.241984 0.370294
Si Si7 0.100511 0.364539 0.439042
O O1 0.688170 0.500000 0.625052
O O2 0.744962 0.615209 0.698899
O O3 0.658540 0.669697 0.611114
O O4 0.825049 0.600388 0.602737
O O5 0.893795 0.821285 0.917088
O O6 0.841525 0.649707 0.900447
O O7 0.000000 0.686914 0.931146
O O8 0.865370 0.711035 0.000000
O O9 0.884631 0.219594 0.344903
O O10 0.894967 0.257243 0.445619
O O11 0.000000 0.128229 0.407464
O O12 0.828248 0.171753 0.750000
O O13 0.896767 0.329822 0.738960
O O14 0.000000 0.190540 0.735475
O O15 0.141245 0.500000 0.743797
O O16 0.231599 0.386348 0.805106
O O17 0.500000 0.249844 0.388068
O O18 0.118226 0.404205 0.500000
O O19 0.000000 0.392192 0.418643
#
# Coordination Sequence:
#
# PCOD8316195 Si02
#       7
#    16  16  16  16  16  16  16
#     4  11  22  38  63  93 124 157 196 242 296 362
#     4  11  24  42  65  90 116 153 204 258 309 356
#     4  10  20  36  60  90 123 159 197 240 295 362
#     4  11  22  36  56  84 123 165 203 243 291 352
#     4  10  21  38  62  89 118 154 197 246 301 359
#     4  11  24  42  63  87 118 158 202 250 307 359
#     4  10  20  36  59  87 122 160 195 234 286 352
#
# _framework density 20.616761
#
# number of rings (size 3 to 8) (size 9 to 14) (size 15 to 20)
#    0.000    1.429    2.857    2.571    0.000    5.286 
#    0.000    6.429    0.000    2.571    0.000    2.000 
#    0.000    0.000    0.000    0.000    0.000    0.000 
#
# Total GULP energy -1388446.726276 kJ/mol
# GULP energy per Si atom -12396.845770 kJ/mol
# Density = 2.056984 g / cm^3
# Si number density = 20.616761 Si / 1000 Ang^3
#
#
#
# Elastic Constant Matrix: (Units=GPa)
#
#
# Indices 1 2 3 4 5 6 
#
# 1 121.8081 61.2065 51.1328 0.0000 0.0000 0.0000
# 2 61.2065 121.8082 51.1312 0.0000 0.0000 0.0000
# 3 51.1328 51.1312 86.6870 0.0000 0.0000 0.0000
# 4 0.0000 0.0000 0.0000 12.8573 0.0000 0.0000
# 5 0.0000 0.0000 0.0000 0.0000 12.8565 0.0000
# 6 0.0000 0.0000 0.0000 0.0000 0.0000 10.4132
#
#
#
# Elastic Compliance Matrix: (Units=1/GPa)
#
#
# Indices 1 2 3 4 5 6 
#
# 1 0.012326 -0.004175 -0.004808 0.000000 0.000000 0.000000
# 2 -0.004175 0.012326 -0.004807 0.000000 0.000000 0.000000
# 3 -0.004808 -0.004807 0.017207 0.000000 0.000000 0.000000
# 4 0.000000 0.000000 0.000000 0.077777 0.000000 0.000000
# 5 0.000000 0.000000 0.000000 0.000000 0.077782 0.000000
# 6 0.000000 0.000000 0.000000 0.000000 0.000000 0.096032
#
#
# Mechanical properties :
#
#
# Convention : Reuss Voigt Hill
#
# Bulk Modulus (GPa) = 70.03808 73.02715 71.53261
# Shear Modulus (GPa) = 15.34736 18.34759 16.84748
#
# Velocity S-wave (km/s) = 2.73135 2.98642 2.86173
# Velocity P-wave (km/s) = 6.63266 6.88402 6.75951
#
# Compressibility (1/GPa) = 0.01427795
#
# Stress axis : x y z
#
# Youngs Moduli (GPa) = 81.13000 81.13177 58.11576
#
# Poissons Ratio (x) = 0.33876 0.27940
# Poissons Ratio (y) = 0.33875 0.27937
# Poissons Ratio (z) = 0.39005 0.39002
#
# Static dielectric constant tensor:
#      x y z
#    x 3.499100 0.000000 0.000000 
#    y 0.000000 3.499040 0.000000 
#    z 0.000000 0.000000 4.064210 
# 
# 
# High freq. dielectric constant tensor:
#      x y z
#    x 1.798660 0.000000 0.000000 
#    y 0.000000 1.798660 0.000000 
#    z 0.000000 0.000000 1.811310 
# 
# From -- ./inp_files/11263.got.cif
#   From: 2010.03.12/outbox.cif.g09.slc.cpg/sg131_6_cif.got.tgz:11263.got - 2010.04.06 17:36:35.
