data_PCOD8316695
_publ_section_title
;
Structure prediction by ZEFSAII (Michael W. Deem and Ramdas Pophale) SiO2 
 PCOD8316695
Probable space group: P 42/M C M
;
_chemical_formula_sum "Si O2"
_cell_formula_units_Z 96
_cell_length_a 23.497260
_cell_length_b 23.497260
_cell_length_c 9.126107
_cell_angle_alpha 90.000000
_cell_angle_beta 90.000000
_cell_angle_gamma 90.000000
_cell_volume 5038.717399
_symmetry_space_group_name_H-M "P 42/M C M"
_symmetry_group_IT_number 132
_symmetry_cell_setting 'tetragonal'
loop_
_space_group_symop_operation_xyz
x,y,z
-y,x,1/2+z
-x,-y,z
y,-x,1/2+z
x,-y,1/2-z
-x,y,1/2-z
y,x,-z
-y,-x,-z
-x,-y,-z
y,-x,1/2-z
x,y,-z
-y,x,1/2-z
-x,y,1/2+z
x,-y,1/2+z
-y,-x,z
y,x,z
loop_
_atom_site_type_symbol
_atom_site_label
_atom_site_fract_x
_atom_site_fract_y
_atom_site_fract_z
Si Si1 0.262759 0.173869 0.668371
Si Si2 0.717131 0.056945 0.332232
Si Si3 0.252091 0.637110 0.838284
Si Si4 0.546012 0.161033 0.158705
Si Si5 0.417473 0.054005 0.834932
Si Si6 0.437788 0.345526 0.827849
O O1 0.279519 0.159990 0.500000
O O2 0.199092 0.199092 0.679266
O O3 0.261877 0.115542 0.759157
O O4 0.304771 0.224952 0.727497
O O5 0.738646 0.054879 0.500000
O O6 0.649849 0.058032 0.323431
O O7 0.740399 0.000000 0.250000
O O8 0.195636 0.602057 0.860449
O O9 0.297941 0.605929 0.734926
O O10 0.280001 0.646873 0.000000
O O11 0.500000 0.198869 0.250000
O O12 0.554656 0.107485 0.260622
O O13 0.522583 0.142688 0.000000
O O14 0.441178 0.000000 0.750000
O O15 0.438422 0.049722 0.000000
O O16 0.500000 0.345479 0.750000
O O17 0.407032 0.407032 0.805860
O O18 0.447344 0.332860 0.000000
#
# Coordination Sequence:
#
# PCOD8316695 Si02
#       6
#    16  16  16  16  16  16
#     4  10  20  35  57  86 119 153 190 231 277 331
#     4  10  20  34  55  80 111 150 191 235 281 332
#     4  10  21  38  60  84 113 149 184 223 274 332
#     4  11  22  35  52  74 102 137 181 229 274 327
#     4  10  20  34  52  73  99 135 179 228 278 326
#     4  11  25  43  64  89 114 142 178 223 277 340
#
# _framework density 19.052467
#
# number of rings (size 3 to 8) (size 9 to 14) (size 15 to 20)
#    0.000    1.667    1.667    3.000    0.000    7.500 
#    0.000    2.500    0.000    0.000    0.000    0.000 
#    0.000    0.333    0.000    3.500    0.000    1.500 
#
# Total GULP energy -1189269.877725 kJ/mol
# GULP energy per Si atom -12388.227893 kJ/mol
# Density = 1.900910 g / cm^3
# Si number density = 19.052467 Si / 1000 Ang^3
#
#
#
# Elastic Constant Matrix: (Units=GPa)
#
#
# Indices 1 2 3 4 5 6 
#
# 1 72.6090 68.6966 59.2263 0.0000 0.0000 0.0000
# 2 68.6966 72.6090 59.2263 0.0000 0.0000 0.0000
# 3 59.2263 59.2263 156.6892 0.0000 0.0000 0.0000
# 4 0.0000 0.0000 0.0000 19.7232 0.0000 0.0000
# 5 0.0000 0.0000 0.0000 0.0000 19.7232 0.0000
# 6 0.0000 0.0000 0.0000 0.0000 0.0000 13.3138
#
#
#
# Elastic Compliance Matrix: (Units=1/GPa)
#
#
# Indices 1 2 3 4 5 6 
#
# 1 0.132978 -0.122619 -0.003916 0.000000 0.000000 0.000000
# 2 -0.122619 0.132978 -0.003916 0.000000 0.000000 0.000000
# 3 -0.003916 -0.003916 0.009342 0.000000 0.000000 0.000000
# 4 0.000000 0.000000 0.000000 0.050702 0.000000 0.000000
# 5 0.000000 0.000000 0.000000 0.000000 0.050702 0.000000
# 6 0.000000 0.000000 0.000000 0.000000 0.000000 0.075110
#
#
# Mechanical properties :
#
#
# Convention : Reuss Voigt Hill
#
# Bulk Modulus (GPa) = 69.45374 75.13395 72.29385
# Shear Modulus (GPa) = 6.96853 18.20260 12.58556
#
# Velocity S-wave (km/s) = 1.91455 3.09430 2.57295
# Velocity P-wave (km/s) = 6.43587 7.23098 6.84498
#
# Compressibility (1/GPa) = 0.01439807
#
# Stress axis : x y z
#
# Youngs Moduli (GPa) = 7.52003 7.52003 107.04155
#
# Poissons Ratio (x) = 0.92210 0.41914
# Poissons Ratio (y) = 0.92210 0.41914
# Poissons Ratio (z) = 0.02945 0.02945
#
# Static dielectric constant tensor:
#      x y z
#    x 2.691430 0.000000 0.000000 
#    y 0.000000 2.691430 0.000000 
#    z 0.000000 0.000000 3.776620 
# 
# 
# High freq. dielectric constant tensor:
#      x y z
#    x 1.730970 0.000000 0.000000 
#    y 0.000000 1.730970 0.000000 
#    z 0.000000 0.000000 1.750730 
# 
# From -- ./inp_files/1744.got.cif
#   From: 2010.03.12/outbox.cif.g09.slc.cpg/sg132_1_cif.got.tgz:1744.got - 2010.04.06 17:53:44.
