data_PCOD8316494
_publ_section_title
;
Structure prediction by ZEFSAII (Michael W. Deem and Ramdas Pophale) SiO2 
 PCOD8316494
Probable space group: P 42/M C M
;
_chemical_formula_sum "Si O2"
_cell_formula_units_Z 88
_cell_length_a 14.316667
_cell_length_b 14.316667
_cell_length_c 25.832269
_cell_angle_alpha 90.000000
_cell_angle_beta 90.000000
_cell_angle_gamma 90.000000
_cell_volume 5294.761492
_symmetry_space_group_name_H-M "P 42/M C M"
_symmetry_group_IT_number 132
_symmetry_cell_setting 'tetragonal'
loop_
_space_group_symop_operation_xyz
x,y,z
-y,x,1/2+z
-x,-y,z
y,-x,1/2+z
x,-y,1/2-z
-x,y,1/2-z
y,x,-z
-y,-x,-z
-x,-y,-z
y,-x,1/2-z
x,y,-z
-y,x,1/2-z
-x,y,1/2+z
x,-y,1/2+z
-y,-x,z
y,x,z
loop_
_atom_site_type_symbol
_atom_site_label
_atom_site_fract_x
_atom_site_fract_y
_atom_site_fract_z
Si Si1 0.862027 0.713483 0.701487
Si Si2 0.922454 0.423884 0.056012
Si Si3 0.485888 0.886669 0.838764
Si Si4 0.075866 0.075866 0.056397
Si Si5 0.167401 0.315517 0.185141
Si Si6 0.252962 0.008098 0.884085
O O1 0.764112 0.764112 0.687731
O O2 0.854633 0.602831 0.693802
O O3 0.882740 0.724051 0.762888
O O4 0.941833 0.759589 0.666051
O O5 0.856366 0.465279 0.101412
O O6 0.000000 0.500000 0.045494
O O7 0.965570 0.326141 0.075436
O O8 0.871443 0.406894 0.000000
O O9 0.571949 0.828940 0.815261
O O10 0.500000 0.000000 0.835433
O O11 0.024175 0.155879 0.088204
O O12 0.112636 0.112636 0.000000
O O13 0.000000 0.000000 0.044668
O O14 0.271378 0.271378 0.180291
O O15 0.108305 0.287842 0.135044
#
# Coordination Sequence:
#
# PCOD8316494 Si02
#       6
#    16  16  16   8  16  16
#     4  10  21  32  51  74 102 131 166 210 257 300
#     4   9  16  28  48  72  97 123 161 209 259 291
#     4  10  18  33  53  75  97 132 171 209 252 302
#     4  11  24  38  50  64  96 146 183 207 243 301
#     4  11  20  32  49  75 104 132 163 208 257 307
#     4  11  19  33  49  71  99 132 171 209 252 298
#
# _framework density 16.620200000000001
#
# number of rings (size 3 to 8) (size 9 to 14) (size 15 to 20)
#    0.000    1.727    6.364    2.182    0.000    0.727 
#    0.000    0.000    0.000    5.455    0.000    2.545 
#    0.000    0.000    0.000    6.545    0.000    0.727 
#
# Total GULP energy -1090160.331891 kJ/mol
# GULP energy per Si atom -12388.185590 kJ/mol
# Density = 1.658237 g / cm^3
# Si number density = 16.620200 Si / 1000 Ang^3
#
#
#
# Elastic Constant Matrix: (Units=GPa)
#
#
# Indices 1 2 3 4 5 6 
#
# 1 80.5221 41.6631 28.4035 0.0000 0.0000 0.0000
# 2 41.6631 80.5221 28.4035 0.0000 0.0000 0.0000
# 3 28.4035 28.4035 97.2202 0.0000 0.0000 0.0000
# 4 0.0000 0.0000 0.0000 23.3106 0.0000 0.0000
# 5 0.0000 0.0000 0.0000 0.0000 23.3106 0.0000
# 6 0.0000 0.0000 0.0000 0.0000 0.0000 23.0609
#
#
#
# Elastic Compliance Matrix: (Units=1/GPa)
#
#
# Indices 1 2 3 4 5 6 
#
# 1 0.017602 -0.008132 -0.002767 0.000000 0.000000 0.000000
# 2 -0.008132 0.017602 -0.002767 0.000000 0.000000 0.000000
# 3 -0.002767 -0.002767 0.011903 0.000000 0.000000 0.000000
# 4 0.000000 0.000000 0.000000 0.042899 0.000000 0.000000
# 5 0.000000 0.000000 0.000000 0.000000 0.042899 0.000000
# 6 0.000000 0.000000 0.000000 0.000000 0.000000 0.043364
#
#
# Mechanical properties :
#
#
# Convention : Reuss Voigt Hill
#
# Bulk Modulus (GPa) = 50.56537 50.57831 50.57184
# Shear Modulus (GPa) = 23.78775 24.58935 24.18855
#
# Velocity S-wave (km/s) = 3.78730 3.85058 3.81907
# Velocity P-wave (km/s) = 7.04379 7.08994 7.06690
#
# Compressibility (1/GPa) = 0.01977638
#
# Stress axis : x y z
#
# Youngs Moduli (GPa) = 56.81048 56.81048 84.01462
#
# Poissons Ratio (x) = 0.46196 0.23246
# Poissons Ratio (y) = 0.46196 0.23246
# Poissons Ratio (z) = 0.15719 0.15719
#
# Static dielectric constant tensor:
#      x y z
#    x 3.135910 0.000000 0.000000 
#    y 0.000000 3.135910 0.000000 
#    z 0.000000 0.000000 3.549840 
# 
# 
# High freq. dielectric constant tensor:
#      x y z
#    x 1.613760 0.000000 0.000000 
#    y 0.000000 1.613760 0.000000 
#    z 0.000000 0.000000 1.664990 
# 
# From -- ./inp_files/9923.got.cif
#   From: 2010.03.12/outbox.cif.g09.slc.cpg/sg132_5_cif.got.tgz:9923.got - 2010.04.06 17:53:44.
