data_PCOD8316353
_publ_section_title
;
Structure prediction by ZEFSAII (Michael W. Deem and Ramdas Pophale) SiO2 
 PCOD8316353
Probable space group: P 42/M M C
;
_chemical_formula_sum "Si O2"
_cell_formula_units_Z 64
_cell_length_a 11.824603
_cell_length_b 11.824603
_cell_length_c 24.027248
_cell_angle_alpha 90.000000
_cell_angle_beta 90.000000
_cell_angle_gamma 90.000000
_cell_volume 3359.519516
_symmetry_space_group_name_H-M "P 42/M M C"
_symmetry_group_IT_number 131
_symmetry_cell_setting 'tetragonal'
loop_
_space_group_symop_operation_xyz
x,y,z
-x,-y,z
-y,x,1/2+z
y,-x,1/2+z
-x,y,-z
x,-y,-z
y,x,1/2-z
-y,-x,1/2-z
-x,-y,-z
x,y,-z
y,-x,1/2-z
-y,x,1/2-z
x,-y,z
-x,y,z
-y,-x,1/2+z
y,x,1/2+z
loop_
_atom_site_type_symbol
_atom_site_label
_atom_site_fract_x
_atom_site_fract_y
_atom_site_fract_z
Si Si1 0.375110 0.866801 0.701082
Si Si2 0.626490 0.500000 0.935504
Si Si3 0.877493 0.368421 0.679210
Si Si4 0.272907 0.751819 0.400468
Si Si5 0.865393 0.865742 0.000000
O O1 0.500000 0.813949 0.689313
O O2 0.326943 0.824546 0.761359
O O3 0.292652 0.837514 0.650441
O O4 0.385146 0.000000 0.704854
O O5 0.500000 0.500000 0.906945
O O6 0.699751 0.610477 0.921830
O O7 0.604570 0.500000 0.000000
O O8 0.894970 0.500000 0.686144
O O9 0.799584 0.348914 0.625786
O O10 0.000000 0.310404 0.668540
O O11 0.199245 0.814854 0.446920
O O12 0.000000 0.851192 0.000000
O O13 0.833056 0.000000 0.000000
#
# Coordination Sequence:
#
# PCOD8316353 Si02
#       5
#    16   8  16  16   8
#     4   9  18  33  55  84 116 146 186 233 277 332
#     4  11  24  40  56  84 120 152 190 241 288 333
#     4   9  19  35  56  83 114 150 190 234 277 332
#     4  12  20  38  60  84 111 157 191 229 290 353
#     4  11  26  43  59  84 114 145 190 250 297 337
#
# _framework density 19.050343999999999
#
# number of rings (size 3 to 8) (size 9 to 14) (size 15 to 20)
#    0.000    1.750    2.500    4.500    0.000    0.000 
#    0.000    0.625    0.000    3.000    0.000   10.500 
#    0.000    0.000    0.000    0.000    0.000    0.000 
#
# Total GULP energy -792851.056333 kJ/mol
# GULP energy per Si atom -12388.297755 kJ/mol
# Density = 1.900699 g / cm^3
# Si number density = 19.050344 Si / 1000 Ang^3
#
#
#
# Elastic Constant Matrix: (Units=GPa)
#
#
# Indices 1 2 3 4 5 6 
#
# 1 93.3521 49.3160 54.0921 0.0000 0.0000 0.0000
# 2 49.3160 93.3521 54.0921 0.0000 0.0000 0.0000
# 3 54.0921 54.0921 141.3277 0.0000 0.0000 0.0000
# 4 0.0000 0.0000 0.0000 30.9762 0.0000 0.0000
# 5 0.0000 0.0000 0.0000 0.0000 30.9762 0.0000
# 6 0.0000 0.0000 0.0000 0.0000 0.0000 25.7355
#
#
#
# Elastic Compliance Matrix: (Units=1/GPa)
#
#
# Indices 1 2 3 4 5 6 
#
# 1 0.016292 -0.006417 -0.003780 0.000000 0.000000 0.000000
# 2 -0.006417 0.016292 -0.003780 0.000000 0.000000 0.000000
# 3 -0.003780 -0.003780 0.009969 0.000000 0.000000 0.000000
# 4 0.000000 0.000000 0.000000 0.032283 0.000000 0.000000
# 5 0.000000 0.000000 0.000000 0.000000 0.032283 0.000000
# 6 0.000000 0.000000 0.000000 0.000000 0.000000 0.038857
#
#
# Mechanical properties :
#
#
# Convention : Reuss Voigt Hill
#
# Bulk Modulus (GPa) = 68.48861 71.44804 69.96832
# Shear Modulus (GPa) = 27.96500 28.90636 28.43568
#
# Velocity S-wave (km/s) = 3.83554 3.89956 3.86769
# Velocity P-wave (km/s) = 7.45953 7.60669 7.53347
#
# Compressibility (1/GPa) = 0.01460097
#
# Stress axis : x y z
#
# Youngs Moduli (GPa) = 61.37967 61.37967 100.31006
#
# Poissons Ratio (x) = 0.39385 0.37915
# Poissons Ratio (y) = 0.39385 0.37915
# Poissons Ratio (z) = 0.23200 0.23200
#
# Static dielectric constant tensor:
#      x y z
#    x 9.374760 0.000000 0.000000 
#    y 0.000000 9.374760 0.000000 
#    z 0.000000 0.000000 3.684580 
# 
# 
# High freq. dielectric constant tensor:
#      x y z
#    x 1.736100 0.000000 0.000000 
#    y 0.000000 1.736100 0.000000 
#    z 0.000000 0.000000 1.755020 
# 
# From -- ./inp_files/10796.got.cif
#   From: 2010.03.12/outbox.cif.g09.slc.cpg/sg131_6_cif.got.tgz:10796.got - 2010.04.06 17:36:35.
