data_PCOD8316041
_publ_section_title
;
Structure prediction by ZEFSAII (Michael W. Deem and Ramdas Pophale) SiO2 
 PCOD8316041
Probable space group: P 42/M M C
;
_chemical_formula_sum "Si O2"
_cell_formula_units_Z 96
_cell_length_a 24.797596
_cell_length_b 24.797596
_cell_length_c 9.375857
_cell_angle_alpha 90.000000
_cell_angle_beta 90.000000
_cell_angle_gamma 90.000000
_cell_volume 5765.409181
_symmetry_space_group_name_H-M "P 42/M M C"
_symmetry_group_IT_number 131
_symmetry_cell_setting 'tetragonal'
loop_
_space_group_symop_operation_xyz
x,y,z
-x,-y,z
-y,x,1/2+z
y,-x,1/2+z
-x,y,-z
x,-y,-z
y,x,1/2-z
-y,-x,1/2-z
-x,-y,-z
x,y,-z
y,-x,1/2-z
-y,x,1/2-z
x,-y,z
-x,y,z
-y,-x,1/2+z
y,x,1/2+z
loop_
_atom_site_type_symbol
_atom_site_label
_atom_site_fract_x
_atom_site_fract_y
_atom_site_fract_z
Si Si1 0.436799 0.859695 0.165777
Si Si2 0.062798 0.638469 0.165248
Si Si3 0.561598 0.639332 0.667400
Si Si4 0.241328 0.435990 0.842385
Si Si5 0.063786 0.860279 0.335019
Si Si6 0.064030 0.758664 0.158537
O O1 0.500000 0.868252 0.195801
O O2 0.405240 0.908393 0.237367
O O3 0.415666 0.803337 0.231203
O O4 0.423481 0.858666 0.000000
O O5 0.083907 0.698866 0.203527
O O6 0.000000 0.633416 0.199561
O O7 0.074473 0.625856 0.000000
O O8 0.596144 0.596144 0.750000
O O9 0.566960 0.629022 0.500000
O O10 0.500000 0.632572 0.717203
O O11 0.583490 0.699301 0.705838
O O12 0.242720 0.500000 0.849769
O O13 0.227149 0.413215 0.000000
O O14 0.090827 0.909174 0.250000
O O15 0.080724 0.862502 0.500000
O O16 0.084575 0.803333 0.270559
O O17 0.000000 0.866667 0.315591
O O18 0.000000 0.757583 0.154113
O O19 0.085784 0.773172 0.000000
#
# Coordination Sequence:
#
# PCOD8316041 Si02
#       6
#    16  16  16  16  16  16
#     4  10  20  31  45  69  98 125 154 191 235 277
#     4   9  18  32  50  71  94 124 159 190 226 275
#     4   9  18  31  47  69  95 123 155 190 230 275
#     4   8  15  30  49  65  85 118 159 196 228 270
#     4  10  20  32  48  71  97 126 158 191 231 277
#     4   8  15  30  50  69  90 118 155 196 232 270
#
# _framework density 16.651029000000001
#
# number of rings (size 3 to 8) (size 9 to 14) (size 15 to 20)
#    0.000    3.000    0.000    3.000    0.000    4.667 
#    0.000    6.667    0.000    1.000    0.000    4.667 
#    0.000    0.000    0.000    0.000    0.000    0.000 
#
# Total GULP energy -1190028.839247 kJ/mol
# GULP energy per Si atom -12396.133742 kJ/mol
# Density = 1.661313 g / cm^3
# Si number density = 16.651029 Si / 1000 Ang^3
#
#
#
# Elastic Constant Matrix: (Units=GPa)
#
#
# Indices 1 2 3 4 5 6 
#
# 1 77.0182 47.7024 62.6342 0.0000 0.0000 0.0000
# 2 47.7024 77.0135 62.6332 0.0000 0.0000 0.0000
# 3 62.6342 62.6332 115.8161 0.0000 0.0000 0.0000
# 4 0.0000 0.0000 0.0000 27.5546 0.0000 0.0000
# 5 0.0000 0.0000 0.0000 0.0000 27.5549 0.0000
# 6 0.0000 0.0000 0.0000 0.0000 0.0000 0.2907
#
#
#
# Elastic Compliance Matrix: (Units=1/GPa)
#
#
# Indices 1 2 3 4 5 6 
#
# 1 0.025832 -0.008281 -0.009492 0.000000 0.000000 0.000000
# 2 -0.008281 0.025834 -0.009493 0.000000 0.000000 0.000000
# 3 -0.009492 -0.009493 0.018901 0.000000 0.000000 0.000000
# 4 0.000000 0.000000 0.000000 0.036292 0.000000 0.000000
# 5 0.000000 0.000000 0.000000 0.000000 0.036291 0.000000
# 6 0.000000 0.000000 0.000000 0.000000 0.000000 3.440124
#
#
# Mechanical properties :
#
#
# Convention : Reuss Voigt Hill
#
# Bulk Modulus (GPa) = 62.35768 68.42082 65.38925
# Shear Modulus (GPa) = 1.37244 17.53855 9.45550
#
# Velocity S-wave (km/s) = 0.90886 3.24898 2.38557
# Velocity P-wave (km/s) = 6.21550 7.43335 6.85154
#
# Compressibility (1/GPa) = 0.01603652
#
# Stress axis : x y z
#
# Youngs Moduli (GPa) = 38.71167 38.70843 52.90652
#
# Poissons Ratio (x) = 0.32054 0.50218
# Poissons Ratio (y) = 0.32057 0.50222
# Poissons Ratio (z) = 0.36744 0.36745
#
# Static dielectric constant tensor:
#      x y z
#    x 3.081060 0.000000 0.000000 
#    y 0.000000 3.081070 0.000000 
#    z 0.000000 0.000000 3.211270 
# 
# 
# High freq. dielectric constant tensor:
#      x y z
#    x 1.625310 0.000000 0.000000 
#    y 0.000000 1.625310 0.000000 
#    z 0.000000 0.000000 1.645230 
# 
# From -- ./inp_files/2217.got.cif
#   From: 2010.03.12/outbox.cif.g09.slc.cpg/sg131_2_cif.got.tgz:2217.got - 2010.04.06 17:36:35.
