data_PCOD8316546
_publ_section_title
;
Structure prediction by ZEFSAII (Michael W. Deem and Ramdas Pophale) SiO2 
 PCOD8316546
Probable space group: P 42/M C M
;
_chemical_formula_sum "Si O2"
_cell_formula_units_Z 64
_cell_length_a 19.829938
_cell_length_b 19.829938
_cell_length_c 8.841605
_cell_angle_alpha 90.000000
_cell_angle_beta 90.000000
_cell_angle_gamma 90.000000
_cell_volume 3476.752868
_symmetry_space_group_name_H-M "P 42/M C M"
_symmetry_group_IT_number 132
_symmetry_cell_setting 'tetragonal'
loop_
_space_group_symop_operation_xyz
x,y,z
-y,x,1/2+z
-x,-y,z
y,-x,1/2+z
x,-y,1/2-z
-x,y,1/2-z
y,x,-z
-y,-x,-z
-x,-y,-z
y,-x,1/2-z
x,y,-z
-y,x,1/2-z
-x,y,1/2+z
x,-y,1/2+z
-y,-x,z
y,x,z
loop_
_atom_site_type_symbol
_atom_site_label
_atom_site_fract_x
_atom_site_fract_y
_atom_site_fract_z
Si Si1 0.567655 0.810014 0.323116
Si Si2 0.281059 0.172305 0.679575
Si Si3 0.928641 0.818279 0.175032
Si Si4 0.330654 0.560662 0.671692
O O1 0.500000 0.844972 0.250000
O O2 0.562741 0.822884 0.500000
O O3 0.641293 0.833427 0.261732
O O4 0.567031 0.731738 0.284035
O O5 0.279247 0.168531 0.500000
O O6 0.241084 0.241084 0.732117
O O7 0.245114 0.107131 0.747321
O O8 0.885461 0.885461 0.200539
O O9 0.000000 0.831773 0.250000
O O10 0.938007 0.801121 0.000000
O O11 0.373900 0.500000 0.750000
O O12 0.308500 0.543621 0.500000
O O13 0.370561 0.629440 0.674722
#
# Coordination Sequence:
#
# PCOD8316546 Si02
#       4
#    16  16  16  16
#     4  10  19  31  49  72  98 129 165 209 261 311
#     4   9  18  33  53  76 103 137 176 217 261 310
#     4  10  21  36  56  83 113 145 178 211 249 295
#     4  10  20  31  43  60  83 114 153 199 251 307
#
# _framework density 18.407979999999998
#
# number of rings (size 3 to 8) (size 9 to 14) (size 15 to 20)
#    0.000    2.250    0.000    4.500    0.000    7.000 
#    0.000    5.000    0.000    0.750    0.000    5.250 
#    0.000    0.000    0.000    0.000    0.000    0.000 
#
# Total GULP energy -792879.977368 kJ/mol
# GULP energy per Si atom -12388.749646 kJ/mol
# Density = 1.836608 g / cm^3
# Si number density = 18.407980 Si / 1000 Ang^3
#
#
#
# Elastic Constant Matrix: (Units=GPa)
#
#
# Indices 1 2 3 4 5 6 
#
# 1 107.1294 35.1515 24.9550 0.0000 0.0000 0.0000
# 2 35.1515 107.1294 24.9550 0.0000 0.0000 0.0000
# 3 24.9550 24.9550 31.4881 0.0000 0.0000 0.0000
# 4 0.0000 0.0000 0.0000 24.0410 0.0000 0.0000
# 5 0.0000 0.0000 0.0000 0.0000 24.0410 0.0000
# 6 0.0000 0.0000 0.0000 0.0000 0.0000 15.6329
#
#
#
# Elastic Compliance Matrix: (Units=1/GPa)
#
#
# Indices 1 2 3 4 5 6 
#
# 1 0.011814 -0.002079 -0.007715 0.000000 0.000000 0.000000
# 2 -0.002079 0.011814 -0.007715 0.000000 0.000000 0.000000
# 3 -0.007715 -0.007715 0.043986 0.000000 0.000000 0.000000
# 4 0.000000 0.000000 0.000000 0.041596 0.000000 0.000000
# 5 0.000000 0.000000 0.000000 0.000000 0.041596 0.000000
# 6 0.000000 0.000000 0.000000 0.000000 0.000000 0.063968
#
#
# Mechanical properties :
#
#
# Convention : Reuss Voigt Hill
#
# Bulk Modulus (GPa) = 30.67850 46.20776 38.44313
# Shear Modulus (GPa) = 19.18232 23.45534 21.31883
#
# Velocity S-wave (km/s) = 3.23161 3.57346 3.40682
# Velocity P-wave (km/s) = 5.53411 6.49482 6.03362
#
# Compressibility (1/GPa) = 0.03259611
#
# Stress axis : x y z
#
# Youngs Moduli (GPa) = 84.64612 84.64612 22.73428
#
# Poissons Ratio (x) = 0.17600 0.17539
# Poissons Ratio (y) = 0.17600 0.17539
# Poissons Ratio (z) = 0.65304 0.65304
#
# Static dielectric constant tensor:
#      x y z
#    x 3.539290 0.000000 0.000000 
#    y 0.000000 3.539290 0.000000 
#    z 0.000000 0.000000 3.503470 
# 
# 
# High freq. dielectric constant tensor:
#      x y z
#    x 1.700590 0.000000 0.000000 
#    y 0.000000 1.700590 0.000000 
#    z 0.000000 0.000000 1.723060 
# 
# From -- ./inp_files/1236.got.cif
#   From: 2010.03.12/outbox.cif.g09.slc.cpg/sg132_1_cif.got.tgz:1236.got - 2010.04.06 17:53:44.
