data_PCOD8316658
_publ_section_title
;
Structure prediction by ZEFSAII (Michael W. Deem and Ramdas Pophale) SiO2 
 PCOD8316658
Probable space group: P 42/M C M
;
_chemical_formula_sum "Si O2"
_cell_formula_units_Z 80
_cell_length_a 23.800425
_cell_length_b 23.800425
_cell_length_c 9.638979
_cell_angle_alpha 90.000000
_cell_angle_beta 90.000000
_cell_angle_gamma 90.000000
_cell_volume 5460.098263
_symmetry_space_group_name_H-M "P 42/M C M"
_symmetry_group_IT_number 132
_symmetry_cell_setting 'tetragonal'
loop_
_space_group_symop_operation_xyz
x,y,z
-y,x,1/2+z
-x,-y,z
y,-x,1/2+z
x,-y,1/2-z
-x,y,1/2-z
y,x,-z
-y,-x,-z
-x,-y,-z
y,-x,1/2-z
x,y,-z
-y,x,1/2-z
-x,y,1/2+z
x,-y,1/2+z
-y,-x,z
y,x,z
loop_
_atom_site_type_symbol
_atom_site_label
_atom_site_fract_x
_atom_site_fract_y
_atom_site_fract_z
Si Si1 0.088750 0.998189 0.000000
Si Si2 0.352666 0.444325 0.338321
Si Si3 0.166525 0.000000 0.750000
Si Si4 0.286122 0.191899 0.843450
Si Si5 0.261992 0.643554 0.154295
Si Si6 0.117683 0.209833 0.337878
O O1 0.125772 0.016591 0.127544
O O2 0.032542 0.032542 0.000000
O O3 0.068092 0.931909 0.000000
O O4 0.357559 0.500000 0.250000
O O5 0.354906 0.459677 0.500000
O O6 0.404432 0.404432 0.297589
O O7 0.293867 0.413519 0.302307
O O8 0.204026 0.946908 0.792826
O O9 0.241790 0.241790 0.850191
O O10 0.342612 0.213590 0.766525
O O11 0.260896 0.141075 0.753807
O O12 0.300919 0.171763 0.000000
O O13 0.306466 0.693535 0.148969
O O14 0.235391 0.637248 0.000000
O O15 0.121576 0.225796 0.500000
O O16 0.152663 0.152663 0.308640
#
# Coordination Sequence:
#
# PCOD8316658 Si02
#       6
#     8  16   8  16  16  16
#     4  11  22  34  46  58  74 100 138 180 215 248
#     4   9  18  30  43  61  87 122 161 196 228 257
#     4  12  22  33  46  60  78 104 137 174 218 260
#     4   9  17  27  43  65  82  98 127 169 214 260
#     4   8  14  27  44  60  81 109 140 175 217 263
#     4  10  20  33  45  58  78 105 134 166 212 265
#
# _framework density 14.651751000000001
#
# number of rings (size 3 to 8) (size 9 to 14) (size 15 to 20)
#    0.000    2.500    1.000    3.600    1.400    4.600 
#    0.000    3.000    0.000    0.000    0.000    0.000 
#    0.000    0.000    0.000    0.900    0.000   13.600 
#
# Total GULP energy -991566.458614 kJ/mol
# GULP energy per Si atom -12394.580733 kJ/mol
# Density = 1.461840 g / cm^3
# Si number density = 14.651751 Si / 1000 Ang^3
#
#
#
# Elastic Constant Matrix: (Units=GPa)
#
#
# Indices 1 2 3 4 5 6 
#
# 1 58.4701 51.4942 50.0399 0.0000 0.0000 0.0000
# 2 51.4942 58.4699 50.0397 0.0000 0.0000 0.0000
# 3 50.0399 50.0397 120.2779 0.0000 0.0000 0.0000
# 4 0.0000 0.0000 0.0000 29.0580 0.0000 0.0000
# 5 0.0000 0.0000 0.0000 0.0000 29.0576 0.0000
# 6 0.0000 0.0000 0.0000 0.0000 0.0000 18.3080
#
#
#
# Elastic Compliance Matrix: (Units=1/GPa)
#
#
# Indices 1 2 3 4 5 6 
#
# 1 0.078994 -0.064358 -0.006089 0.000000 0.000000 0.000000
# 2 -0.064358 0.078994 -0.006089 0.000000 0.000000 0.000000
# 3 -0.006089 -0.006089 0.013380 0.000000 0.000000 0.000000
# 4 0.000000 0.000000 0.000000 0.034414 0.000000 0.000000
# 5 0.000000 0.000000 0.000000 0.000000 0.034414 0.000000
# 6 0.000000 0.000000 0.000000 0.000000 0.000000 0.054621
#
#
# Mechanical properties :
#
#
# Convention : Reuss Voigt Hill
#
# Bulk Modulus (GPa) = 54.65721 60.04063 57.34892
# Shear Modulus (GPa) = 11.01353 20.99434 16.00393
#
# Velocity S-wave (km/s) = 2.74467 3.78946 3.30856
# Velocity P-wave (km/s) = 6.88690 7.75977 7.33633
#
# Compressibility (1/GPa) = 0.01829585
#
# Stress axis : x y z
#
# Youngs Moduli (GPa) = 12.65926 12.65925 74.73614
#
# Poissons Ratio (x) = 0.81473 0.45506
# Poissons Ratio (y) = 0.81473 0.45505
# Poissons Ratio (z) = 0.07708 0.07708
#
# Static dielectric constant tensor:
#      x y z
#    x 2.663200 0.000000 0.000000 
#    y 0.000000 2.663200 0.000000 
#    z 0.000000 0.000000 3.139580 
# 
# 
# High freq. dielectric constant tensor:
#      x y z
#    x 1.527580 0.000000 0.000000 
#    y 0.000000 1.527580 0.000000 
#    z 0.000000 0.000000 1.578500 
# 
# From -- ./inp_files/1659.got.cif
#   From: 2010.03.12/outbox.cif.g09.slc.cpg/sg132_1_cif.got.tgz:1659.got - 2010.04.06 17:53:44.
