data_PCOD8316236
_publ_section_title
;
Structure prediction by ZEFSAII (Michael W. Deem and Ramdas Pophale) SiO2 
 PCOD8316236
Probable space group: P 42/M M C
;
_chemical_formula_sum "Si O2"
_cell_formula_units_Z 88
_cell_length_a 12.898439
_cell_length_b 12.898439
_cell_length_c 27.379638
_cell_angle_alpha 90.000000
_cell_angle_beta 90.000000
_cell_angle_gamma 90.000000
_cell_volume 4555.142944
_symmetry_space_group_name_H-M "P 42/M M C"
_symmetry_group_IT_number 131
_symmetry_cell_setting 'tetragonal'
loop_
_space_group_symop_operation_xyz
x,y,z
-x,-y,z
-y,x,1/2+z
y,-x,1/2+z
-x,y,-z
x,-y,-z
y,x,1/2-z
-y,-x,1/2-z
-x,-y,-z
x,y,-z
y,-x,1/2-z
-y,x,1/2-z
x,-y,z
-x,y,z
-y,-x,1/2+z
y,x,1/2+z
loop_
_atom_site_type_symbol
_atom_site_label
_atom_site_fract_x
_atom_site_fract_y
_atom_site_fract_z
Si Si1 0.879717 0.618120 0.417059
Si Si2 0.749738 0.807223 0.445124
Si Si3 0.239476 0.615276 0.320657
Si Si4 0.377444 0.205948 0.351225
Si Si5 0.721085 0.118014 0.739018
Si Si6 0.114541 0.000000 0.557663
O O1 0.856720 0.500000 0.434453
O O2 0.810621 0.697983 0.447901
O O3 0.850642 0.632290 0.360471
O O4 0.000000 0.645232 0.424547
O O5 0.708843 0.831240 0.500000
O O6 0.652699 0.805906 0.408226
O O7 0.826071 0.896724 0.425389
O O8 0.282600 0.500000 0.319827
O O9 0.341431 0.681917 0.332161
O O10 0.186977 0.639583 0.269075
O O11 0.500000 0.191198 0.345942
O O12 0.314680 0.123445 0.317687
O O13 0.835385 0.164616 0.750000
O O14 0.721677 0.000000 0.756442
O O15 0.103831 0.000000 0.500000
O O16 0.000000 0.000000 0.581764
#
# Coordination Sequence:
#
# PCOD8316236 Si02
#       6
#    16  16  16  16  16   8
#     4   9  17  30  52  82 112 140 174 222 282 342
#     4  10  21  36  53  75 108 146 191 238 279 327
#     4   9  18  34  56  82 112 143 179 221 271 332
#     4  10  22  37  55  80 110 144 186 232 275 322
#     4  10  21  37  58  83 113 143 179 219 269 332
#     4   9  18  34  55  75  99 137 182 230 281 329
#
# _framework density 19.318822000000001
#
# number of rings (size 3 to 8) (size 9 to 14) (size 15 to 20)
#    0.000    2.455    0.000    1.636    1.273    4.545 
#    0.000    1.818    0.000    4.909    0.000    5.091 
#    0.000    0.000    0.000    0.000    0.000    0.000 
#
# Total GULP energy -1090953.561090 kJ/mol
# GULP energy per Si atom -12397.199558 kJ/mol
# Density = 1.927485 g / cm^3
# Si number density = 19.318822 Si / 1000 Ang^3
#
#
#
# Elastic Constant Matrix: (Units=GPa)
#
#
# Indices 1 2 3 4 5 6 
#
# 1 92.9593 51.6558 26.2861 0.0000 0.0000 0.0000
# 2 51.6558 92.9655 26.2874 0.0000 0.0000 0.0000
# 3 26.2861 26.2874 94.4355 0.0000 0.0000 0.0000
# 4 0.0000 0.0000 0.0000 17.9444 0.0000 0.0000
# 5 0.0000 0.0000 0.0000 0.0000 17.9440 0.0000
# 6 0.0000 0.0000 0.0000 0.0000 0.0000 18.4768
#
#
#
# Elastic Compliance Matrix: (Units=1/GPa)
#
#
# Indices 1 2 3 4 5 6 
#
# 1 0.015952 -0.008258 -0.002141 0.000000 0.000000 0.000000
# 2 -0.008258 0.015951 -0.002142 0.000000 0.000000 0.000000
# 3 -0.002141 -0.002142 0.011781 0.000000 0.000000 0.000000
# 4 0.000000 0.000000 0.000000 0.055728 0.000000 0.000000
# 5 0.000000 0.000000 0.000000 0.000000 0.055729 0.000000
# 6 0.000000 0.000000 0.000000 0.000000 0.000000 0.054122
#
#
# Mechanical properties :
#
#
# Convention : Reuss Voigt Hill
#
# Bulk Modulus (GPa) = 53.75749 54.31320 54.03535
# Shear Modulus (GPa) = 20.78613 22.61510 21.70061
#
# Velocity S-wave (km/s) = 3.28373 3.42515 3.35519
# Velocity P-wave (km/s) = 6.50108 6.61947 6.56054
#
# Compressibility (1/GPa) = 0.01860206
#
# Stress axis : x y z
#
# Youngs Moduli (GPa) = 62.68912 62.69306 84.87940
#
# Poissons Ratio (x) = 0.51772 0.18176
# Poissons Ratio (y) = 0.51769 0.18177
# Poissons Ratio (z) = 0.13424 0.13426
#
# Static dielectric constant tensor:
#      x y z
#    x 3.462110 0.000000 0.000000 
#    y 0.000000 3.462110 0.000000 
#    z 0.000000 0.000000 3.489140 
# 
# 
# High freq. dielectric constant tensor:
#      x y z
#    x 1.742720 0.000000 0.000000 
#    y 0.000000 1.742720 0.000000 
#    z 0.000000 0.000000 1.752100 
# 
# From -- ./inp_files/13572.got.cif
#   From: 2010.03.12/outbox.cif.g09.slc.cpg/sg131_7_cif.got.tgz:13572.got - 2010.04.06 17:36:35.
