data_PCOD8316719
_publ_section_title
;
Structure prediction by ZEFSAII (Michael W. Deem and Ramdas Pophale) SiO2 
 PCOD8316719
Probable space group: P 42/M C M
;
_chemical_formula_sum "Si O2"
_cell_formula_units_Z 96
_cell_length_a 23.958143
_cell_length_b 23.958143
_cell_length_c 9.009841
_cell_angle_alpha 90.000000
_cell_angle_beta 90.000000
_cell_angle_gamma 90.000000
_cell_volume 5171.582205
_symmetry_space_group_name_H-M "P 42/M C M"
_symmetry_group_IT_number 132
_symmetry_cell_setting 'tetragonal'
loop_
_space_group_symop_operation_xyz
x,y,z
-y,x,1/2+z
-x,-y,z
y,-x,1/2+z
x,-y,1/2-z
-x,y,1/2-z
y,x,-z
-y,-x,-z
-x,-y,-z
y,-x,1/2-z
x,y,-z
-y,x,1/2-z
-x,y,1/2+z
x,-y,1/2+z
-y,-x,z
y,x,z
loop_
_atom_site_type_symbol
_atom_site_label
_atom_site_fract_x
_atom_site_fract_y
_atom_site_fract_z
Si Si1 0.944530 0.441758 0.173299
Si Si2 0.740149 0.351180 0.327807
Si Si3 0.270305 0.943729 0.325481
Si Si4 0.857716 0.346607 0.172323
Si Si5 0.054774 0.857407 0.673338
Si Si6 0.351683 0.440412 0.174329
O O1 0.930201 0.500000 0.250000
O O2 0.890788 0.403753 0.200574
O O3 0.000000 0.415555 0.250000
O O4 0.956950 0.450281 0.000000
O O5 0.757524 0.353426 0.500000
O O6 0.704944 0.295057 0.295839
O O7 0.794669 0.352546 0.226875
O O8 0.703370 0.405081 0.284697
O O9 0.280124 0.948907 0.500000
O O10 0.298861 0.888318 0.264642
O O11 0.206230 0.935940 0.279993
O O12 0.294533 0.000000 0.250000
O O13 0.857710 0.330207 0.000000
O O14 0.045826 0.863452 0.500000
O O15 0.108304 0.891697 0.728942
O O16 0.000000 0.882470 0.750000
O O17 0.349139 0.500000 0.250000
O O18 0.406369 0.406369 0.228732
O O19 0.354909 0.449533 0.000000
#
# Coordination Sequence:
#
# PCOD8316719 Si02
#       6
#    16  16  16  16  16  16
#     4  10  21  36  54  77 107 140 174 214 261 310
#     4   9  20  39  58  76 104 143 182 220 265 315
#     4  10  20  35  55  77 104 139 177 220 268 317
#     4  11  23  36  54  82 109 137 177 221 266 319
#     4   9  19  35  53  75 103 134 170 211 256 309
#     4   9  19  36  57  82 112 145 181 221 266 316
#
# _framework density 18.562982999999999
#
# number of rings (size 3 to 8) (size 9 to 14) (size 15 to 20)
#    0.000    2.333    0.000    3.500    0.000    8.000 
#    0.000    8.333    0.000    0.000    0.000    0.000 
#    0.000    0.000    0.000    0.000    0.000    0.000 
#
# Total GULP energy -1190471.659933 kJ/mol
# GULP energy per Si atom -12400.746458 kJ/mol
# Density = 1.852073 g / cm^3
# Si number density = 18.562983 Si / 1000 Ang^3
#
#
#
# Elastic Constant Matrix: (Units=GPa)
#
#
# Indices 1 2 3 4 5 6 
#
# 1 124.3348 61.9941 55.7230 0.0000 0.0000 0.0000
# 2 61.9941 124.3348 55.7230 0.0000 0.0000 0.0000
# 3 55.7230 55.7230 85.4833 0.0000 0.0000 0.0000
# 4 0.0000 0.0000 0.0000 34.7177 0.0000 0.0000
# 5 0.0000 0.0000 0.0000 0.0000 34.7177 0.0000
# 6 0.0000 0.0000 0.0000 0.0000 0.0000 27.6054
#
#
#
# Elastic Compliance Matrix: (Units=1/GPa)
#
#
# Indices 1 2 3 4 5 6 
#
# 1 0.012419 -0.003622 -0.005734 0.000000 0.000000 0.000000
# 2 -0.003622 0.012419 -0.005734 0.000000 0.000000 0.000000
# 3 -0.005734 -0.005734 0.019174 0.000000 0.000000 0.000000
# 4 0.000000 0.000000 0.000000 0.028804 0.000000 0.000000
# 5 0.000000 0.000000 0.000000 0.000000 0.028804 0.000000
# 6 0.000000 0.000000 0.000000 0.000000 0.000000 0.036225
#
#
# Mechanical properties :
#
#
# Convention : Reuss Voigt Hill
#
# Bulk Modulus (GPa) = 72.30397 75.67037 73.98717
# Shear Modulus (GPa) = 28.96297 30.12235 29.54266
#
# Velocity S-wave (km/s) = 3.95429 4.03266 3.99367
# Velocity P-wave (km/s) = 7.73846 7.90795 7.82366
#
# Compressibility (1/GPa) = 0.01383050
#
# Stress axis : x y z
#
# Youngs Moduli (GPa) = 80.52389 80.52389 52.15455
#
# Poissons Ratio (x) = 0.29167 0.29906
# Poissons Ratio (y) = 0.29167 0.29906
# Poissons Ratio (z) = 0.46173 0.46173
#
# Static dielectric constant tensor:
#      x y z
#    x 3.575720 0.000000 0.000000 
#    y 0.000000 3.575720 0.000000 
#    z 0.000000 0.000000 3.465270 
# 
# 
# High freq. dielectric constant tensor:
#      x y z
#    x 1.723580 0.000000 0.000000 
#    y 0.000000 1.723580 0.000000 
#    z 0.000000 0.000000 1.723980 
# 
# From -- ./inp_files/1792.got.cif
#   From: 2010.03.12/outbox.cif.g09.slc.cpg/sg132_1_cif.got.tgz:1792.got - 2010.04.06 17:53:44.
