data_PCOD8316858
_publ_section_title
;
Structure prediction by ZEFSAII (Michael W. Deem and Ramdas Pophale) SiO2 
 PCOD8316858
Probable space group: P 42/M C M
;
_chemical_formula_sum "Si O2"
_cell_formula_units_Z 80
_cell_length_a 16.748374
_cell_length_b 16.748374
_cell_length_c 15.676524
_cell_angle_alpha 90.000000
_cell_angle_beta 90.000000
_cell_angle_gamma 90.000000
_cell_volume 4397.390890
_symmetry_space_group_name_H-M "P 42/M C M"
_symmetry_group_IT_number 132
_symmetry_cell_setting 'tetragonal'
loop_
_space_group_symop_operation_xyz
x,y,z
-y,x,1/2+z
-x,-y,z
y,-x,1/2+z
x,-y,1/2-z
-x,y,1/2-z
y,x,-z
-y,-x,-z
-x,-y,-z
y,-x,1/2-z
x,y,-z
-y,x,1/2-z
-x,y,1/2+z
x,-y,1/2+z
-y,-x,z
y,x,z
loop_
_atom_site_type_symbol
_atom_site_label
_atom_site_fract_x
_atom_site_fract_y
_atom_site_fract_z
Si Si1 0.715654 0.586942 0.858934
Si Si2 0.158915 0.291713 0.405814
Si Si3 0.327860 0.805220 0.500000
Si Si4 0.201073 0.930047 0.500000
Si Si5 0.042180 0.825236 0.159769
Si Si6 0.722771 0.406278 0.160280
O O1 0.634257 0.634257 0.882845
O O2 0.701962 0.493364 0.875972
O O3 0.737221 0.598807 0.760866
O O4 0.789519 0.618737 0.915605
O O5 0.119504 0.296305 0.500000
O O6 0.234426 0.234426 0.406730
O O7 0.093499 0.256798 0.340314
O O8 0.192405 0.377986 0.378813
O O9 0.255082 0.744919 0.500000
O O10 0.292659 0.895864 0.500000
O O11 0.146164 0.853837 0.500000
O O12 0.180679 0.978677 0.584698
O O13 0.098673 0.901328 0.142163
O O14 0.000000 0.835203 0.250000
O O15 0.648928 0.351072 0.132100
#
# Coordination Sequence:
#
# PCOD8316858 Si02
#       6
#    16  16   8   8  16  16
#     4   9  18  33  51  78 112 142 178 227 272 316
#     4   9  18  34  54  77 107 141 181 221 258 313
#     4   9  20  35  52  75 106 145 185 217 260 322
#     4  11  23  38  58  81 109 146 180 217 268 328
#     4  11  23  38  58  85 113 141 172 216 272 325
#     4   9  18  31  54  81 106 143 184 223 269 317
#
# _framework density 18.192606999999999
#
# number of rings (size 3 to 8) (size 9 to 14) (size 15 to 20)
#    0.000    2.400    1.000    0.900    4.200    2.200 
#    0.000    2.000    0.000    4.200    0.000    0.000 
#    0.000    0.000    0.000    0.000    0.000    0.000 
#
# Total GULP energy -991586.755300 kJ/mol
# GULP energy per Si atom -12394.834441 kJ/mol
# Density = 1.815120 g / cm^3
# Si number density = 18.192607 Si / 1000 Ang^3
#
#
#
# Elastic Constant Matrix: (Units=GPa)
#
#
# Indices 1 2 3 4 5 6 
#
# 1 80.2641 74.3949 45.7151 0.0000 0.0000 0.0000
# 2 74.3949 80.2605 45.7146 0.0000 0.0000 0.0000
# 3 45.7151 45.7146 91.7608 0.0000 0.0000 0.0000
# 4 0.0000 0.0000 0.0000 39.5968 0.0000 0.0000
# 5 0.0000 0.0000 0.0000 0.0000 39.5772 0.0000
# 6 0.0000 0.0000 0.0000 0.0000 0.0000 26.4598
#
#
#
# Elastic Compliance Matrix: (Units=1/GPa)
#
#
# Indices 1 2 3 4 5 6 
#
# 1 0.089796 -0.080634 -0.004565 0.000000 0.000000 0.000000
# 2 -0.080634 0.089801 -0.004567 0.000000 0.000000 0.000000
# 3 -0.004565 -0.004567 0.015448 0.000000 0.000000 0.000000
# 4 0.000000 0.000000 0.000000 0.025255 0.000000 0.000000
# 5 0.000000 0.000000 0.000000 0.000000 0.025267 0.000000
# 6 0.000000 0.000000 0.000000 0.000000 0.000000 0.037793
#
#
# Mechanical properties :
#
#
# Convention : Reuss Voigt Hill
#
# Bulk Modulus (GPa) = 64.45925 64.88161 64.67043
# Shear Modulus (GPa) = 10.68233 26.89082 18.78657
#
# Velocity S-wave (km/s) = 2.42581 3.84880 3.21697
# Velocity P-wave (km/s) = 6.58442 7.44931 7.03017
#
# Compressibility (1/GPa) = 0.01551368
#
# Stress axis : x y z
#
# Youngs Moduli (GPa) = 11.13631 11.13570 64.73531
#
# Poissons Ratio (x) = 0.89791 0.29554
# Poissons Ratio (y) = 0.89796 0.29564
# Poissons Ratio (z) = 0.05084 0.05086
#
# Static dielectric constant tensor:
#      x y z
#    x 3.437700 0.000000 0.000000 
#    y 0.000000 3.437710 0.000000 
#    z 0.000000 0.000000 3.334850 
# 
# 
# High freq. dielectric constant tensor:
#      x y z
#    x 1.691730 0.000000 0.000000 
#    y 0.000000 1.691730 0.000000 
#    z 0.000000 0.000000 1.712840 
# 
# From -- ./inp_files/4678.got.cif
#   From: 2010.03.12/outbox.cif.g09.slc.cpg/sg132_3_cif.got.tgz:4678.got - 2010.04.06 17:53:44.
