data_PCOD8316443
_publ_section_title
;
Structure prediction by ZEFSAII (Michael W. Deem and Ramdas Pophale) SiO2 
 PCOD8316443
Probable space group: P 42/M C M
;
_chemical_formula_sum "Si O2"
_cell_formula_units_Z 64
_cell_length_a 21.477353
_cell_length_b 21.477353
_cell_length_c 8.907273
_cell_angle_alpha 90.000000
_cell_angle_beta 90.000000
_cell_angle_gamma 90.000000
_cell_volume 4108.717423
_symmetry_space_group_name_H-M "P 42/M C M"
_symmetry_group_IT_number 132
_symmetry_cell_setting 'tetragonal'
loop_
_space_group_symop_operation_xyz
x,y,z
-y,x,1/2+z
-x,-y,z
y,-x,1/2+z
x,-y,1/2-z
-x,y,1/2-z
y,x,-z
-y,-x,-z
-x,-y,-z
y,-x,1/2-z
x,y,-z
-y,x,1/2-z
-x,y,1/2+z
x,-y,1/2+z
-y,-x,z
y,x,z
loop_
_atom_site_type_symbol
_atom_site_label
_atom_site_fract_x
_atom_site_fract_y
_atom_site_fract_z
Si Si1 0.769695 0.940693 0.833874
Si Si2 0.846306 0.657038 0.165498
Si Si3 0.850779 0.149222 0.175297
Si Si4 0.064177 0.566968 0.821521
Si Si5 0.758397 0.241604 0.675803
O O1 0.717663 0.888536 0.838331
O O2 0.830441 0.916498 0.746025
O O3 0.741131 0.000000 0.750000
O O4 0.790213 0.960137 0.000000
O O5 0.875022 0.608690 0.284460
O O6 0.776869 0.684972 0.206282
O O7 0.845104 0.625302 0.000000
O O8 0.799084 0.200917 0.211236
O O9 0.858683 0.141318 0.000000
O O10 0.076613 0.500000 0.750000
O O11 0.000000 0.594639 0.750000
O O12 0.056208 0.562381 0.000000
O O13 0.773957 0.226044 0.500000
#
# Coordination Sequence:
#
# PCOD8316443 Si02
#       5
#    16  16   8  16   8
#     4  10  19  30  44  61  80 101 126 158 198 242
#     4   9  17  30  46  64  85 108 136 170 208 248
#     4  10  18  28  42  59  79 100 124 156 195 239
#     4  11  21  32  45  61  84 115 149 184 218 255
#     4   8  16  30  46  62  83 109 134 167 209 250
#
# _framework density 15.576637
#
# number of rings (size 3 to 8) (size 9 to 14) (size 15 to 20)
#    0.000    2.250    0.000    7.125    0.000    7.000 
#    0.000    0.000    0.000    0.375    0.000    2.625 
#    0.000    0.000    0.000    0.000    0.000    0.625 
#
# Total GULP energy -792901.352466 kJ/mol
# GULP energy per Si atom -12389.083632 kJ/mol
# Density = 1.554118 g / cm^3
# Si number density = 15.576637 Si / 1000 Ang^3
#
#
#
# Elastic Constant Matrix: (Units=GPa)
#
#
# Indices 1 2 3 4 5 6 
#
# 1 50.0724 28.0643 28.9886 0.0000 0.0000 0.0000
# 2 28.0643 50.0723 28.9886 0.0000 0.0000 0.0000
# 3 28.9886 28.9886 127.3617 0.0000 0.0000 0.0000
# 4 0.0000 0.0000 0.0000 20.5875 0.0000 0.0000
# 5 0.0000 0.0000 0.0000 0.0000 20.5875 0.0000
# 6 0.0000 0.0000 0.0000 0.0000 0.0000 25.8927
#
#
#
# Elastic Compliance Matrix: (Units=1/GPa)
#
#
# Indices 1 2 3 4 5 6 
#
# 1 0.030418 -0.015020 -0.003505 0.000000 0.000000 0.000000
# 2 -0.015020 0.030418 -0.003505 0.000000 0.000000 0.000000
# 3 -0.003505 -0.003505 0.009447 0.000000 0.000000 0.000000
# 4 0.000000 0.000000 0.000000 0.048573 0.000000 0.000000
# 5 0.000000 0.000000 0.000000 0.000000 0.048573 0.000000
# 6 0.000000 0.000000 0.000000 0.000000 0.000000 0.038621
#
#
# Mechanical properties :
#
#
# Convention : Reuss Voigt Hill
#
# Bulk Modulus (GPa) = 38.13148 44.39880 41.26514
# Shear Modulus (GPa) = 19.31610 22.84454 21.08032
#
# Velocity S-wave (km/s) = 3.52528 3.83376 3.68275
# Velocity P-wave (km/s) = 6.41118 6.93991 6.68078
#
# Compressibility (1/GPa) = 0.02622505
#
# Stress axis : x y z
#
# Youngs Moduli (GPa) = 32.87493 32.87488 105.85226
#
# Poissons Ratio (x) = 0.49377 0.37100
# Poissons Ratio (y) = 0.49377 0.37100
# Poissons Ratio (z) = 0.11522 0.11522
#
# Static dielectric constant tensor:
#      x y z
#    x 2.950170 0.000000 0.000000 
#    y 0.000000 2.950170 0.000000 
#    z 0.000000 0.000000 3.117050 
# 
# 
# High freq. dielectric constant tensor:
#      x y z
#    x 1.563140 0.000000 0.000000 
#    y 0.000000 1.563140 0.000000 
#    z 0.000000 0.000000 1.611480 
# 
# From -- ./inp_files/1268.got.cif
#   From: 2010.03.12/outbox.cif.g09.slc.cpg/sg132_1_cif.got.tgz:1268.got - 2010.04.06 17:53:44.
