data_PCOD8316232
_publ_section_title
;
Structure prediction by ZEFSAII (Michael W. Deem and Ramdas Pophale) SiO2 
 PCOD8316232
Probable space group: P 42/M M C
;
_chemical_formula_sum "Si O2"
_cell_formula_units_Z 96
_cell_length_a 23.559457
_cell_length_b 23.559457
_cell_length_c 9.722978
_cell_angle_alpha 90.000000
_cell_angle_beta 90.000000
_cell_angle_gamma 90.000000
_cell_volume 5396.719630
_symmetry_space_group_name_H-M "P 42/M M C"
_symmetry_group_IT_number 131
_symmetry_cell_setting 'tetragonal'
loop_
_space_group_symop_operation_xyz
x,y,z
-x,-y,z
-y,x,1/2+z
y,-x,1/2+z
-x,y,-z
x,-y,-z
y,x,1/2-z
-y,-x,1/2-z
-x,-y,-z
x,y,-z
y,-x,1/2-z
-y,x,1/2-z
x,-y,z
-x,y,z
-y,-x,1/2+z
y,x,1/2+z
loop_
_atom_site_type_symbol
_atom_site_label
_atom_site_fract_x
_atom_site_fract_y
_atom_site_fract_z
Si Si1 0.409852 0.224751 0.153680
Si Si2 0.633294 0.000000 0.165213
Si Si3 0.105139 0.437301 0.658452
Si Si4 0.117781 0.192240 0.660642
Si Si5 0.351138 0.566379 0.662641
Si Si6 0.720994 0.212816 0.150412
Si Si7 0.239594 0.000000 0.162750
O O1 0.437120 0.168911 0.227413
O O2 0.421642 0.286750 0.220892
O O3 0.345234 0.205503 0.153817
O O4 0.434606 0.231328 0.000000
O O5 0.603994 0.057588 0.224309
O O6 0.696981 0.000000 0.223289
O O7 0.628386 0.000000 0.000000
O O8 0.114482 0.419311 0.500000
O O9 0.079477 0.500000 0.672228
O O10 0.139561 0.139561 0.750000
O O11 0.119657 0.176186 0.500000
O O12 0.154410 0.248510 0.694118
O O13 0.054624 0.205073 0.712850
O O14 0.395297 0.604704 0.750000
O O15 0.356018 0.582306 0.500000
O O16 0.365783 0.500000 0.685945
O O17 0.735969 0.264032 0.250000
O O18 0.742733 0.230574 0.000000
O O19 0.246089 0.000000 0.000000
#
# Coordination Sequence:
#
# PCOD8316232 Si02
#       7
#    16   8  16  16  16  16   8
#     4   9  16  27  43  63  88 119 154 188 224 271
#     4   9  15  22  35  59  90 124 160 190 217 258
#     4   9  15  22  34  55  87 124 157 188 220 255
#     4   9  17  29  45  66  91 119 150 183 220 262
#     4  10  21  36  53  72  93 119 153 193 240 294
#     4   9  16  26  42  64  89 116 145 178 218 263
#     4   9  16  27  43  61  84 115 149 182 217 260
#
# _framework density 17.788585000000001
#
# number of rings (size 3 to 8) (size 9 to 14) (size 15 to 20)
#    0.000    2.833    0.000    2.250    0.000    7.500 
#    0.000    1.250    0.000    0.250    0.000    1.750 
#    0.000    0.000    0.000    1.500    0.000   39.417 
#
# Total GULP energy -1189275.061379 kJ/mol
# GULP energy per Si atom -12388.281889 kJ/mol
# Density = 1.774810 g / cm^3
# Si number density = 17.788585 Si / 1000 Ang^3
#
#
#
# Elastic Constant Matrix: (Units=GPa)
#
#
# Indices 1 2 3 4 5 6 
#
# 1 130.9234 66.7348 28.6405 0.0000 0.0000 0.0000
# 2 66.7348 130.9218 28.6400 0.0000 0.0000 0.0000
# 3 28.6405 28.6400 28.2238 0.0000 0.0000 0.0000
# 4 0.0000 0.0000 0.0000 12.8193 0.0000 0.0000
# 5 0.0000 0.0000 0.0000 0.0000 12.8181 0.0000
# 6 0.0000 0.0000 0.0000 0.0000 0.0000 25.8933
#
#
#
# Elastic Compliance Matrix: (Units=1/GPa)
#
#
# Indices 1 2 3 4 5 6 
#
# 1 0.011373 -0.004206 -0.007273 0.000000 0.000000 0.000000
# 2 -0.004206 0.011373 -0.007272 0.000000 0.000000 0.000000
# 3 -0.007273 -0.007272 0.050191 0.000000 0.000000 0.000000
# 4 0.000000 0.000000 0.000000 0.078007 0.000000 0.000000
# 5 0.000000 0.000000 0.000000 0.000000 0.078015 0.000000
# 6 0.000000 0.000000 0.000000 0.000000 0.000000 0.038620
#
#
# Mechanical properties :
#
#
# Convention : Reuss Voigt Hill
#
# Bulk Modulus (GPa) = 28.22128 59.78883 44.00506
# Shear Modulus (GPa) = 15.77820 21.37641 18.57730
#
# Velocity S-wave (km/s) = 2.98146 3.47030 3.23513
# Velocity P-wave (km/s) = 5.26796 7.05274 6.22465
#
# Compressibility (1/GPa) = 0.03543426
#
# Stress axis : x y z
#
# Youngs Moduli (GPa) = 87.92735 87.92680 19.92391
#
# Poissons Ratio (x) = 0.36984 0.14490
# Poissons Ratio (y) = 0.36984 0.14490
# Poissons Ratio (z) = 0.63947 0.63945
#
# Static dielectric constant tensor:
#      x y z
#    x 3.409450 0.000000 0.000000 
#    y 0.000000 3.409450 0.000000 
#    z 0.000000 0.000000 2.869620 
# 
# 
# High freq. dielectric constant tensor:
#      x y z
#    x 1.696420 0.000000 0.000000 
#    y 0.000000 1.696420 0.000000 
#    z 0.000000 0.000000 1.614530 
# 
# From -- ./inp_files/4351.got.cif
#   From: 2010.03.12/outbox.cif.g09.slc.cpg/sg131_3_cif.got.tgz:4351.got - 2010.04.06 17:36:35.
