data_PCOD8316675
_publ_section_title
;
Structure prediction by ZEFSAII (Michael W. Deem and Ramdas Pophale) SiO2 
 PCOD8316675
Probable space group: P 42/M C M
;
_chemical_formula_sum "Si O2"
_cell_formula_units_Z 112
_cell_length_a 14.347076
_cell_length_b 14.347076
_cell_length_c 29.240105
_cell_angle_alpha 90.000000
_cell_angle_beta 90.000000
_cell_angle_gamma 90.000000
_cell_volume 6018.741977
_symmetry_space_group_name_H-M "P 42/M C M"
_symmetry_group_IT_number 132
_symmetry_cell_setting 'tetragonal'
loop_
_space_group_symop_operation_xyz
x,y,z
-y,x,1/2+z
-x,-y,z
y,-x,1/2+z
x,-y,1/2-z
-x,y,1/2-z
y,x,-z
-y,-x,-z
-x,-y,-z
y,-x,1/2-z
x,y,-z
-y,x,1/2-z
-x,y,1/2+z
x,-y,1/2+z
-y,-x,z
y,x,z
loop_
_atom_site_type_symbol
_atom_site_label
_atom_site_fract_x
_atom_site_fract_y
_atom_site_fract_z
Si Si1 0.559145 0.291909 0.580893
Si Si2 0.610419 0.019063 0.898750
Si Si3 0.376686 0.764085 0.774025
Si Si4 0.147586 0.706264 0.552037
Si Si5 0.032144 0.604429 0.203061
Si Si6 0.302085 0.450242 0.814864
Si Si7 0.216034 0.367629 0.552919
O O1 0.604623 0.395378 0.573601
O O2 0.618025 0.215838 0.553727
O O3 0.562142 0.263202 0.634234
O O4 0.453615 0.286512 0.563083
O O5 0.641886 0.999626 0.846146
O O6 0.630087 0.124290 0.915397
O O7 0.500000 0.000000 0.906600
O O8 0.680034 0.949387 0.924440
O O9 0.270885 0.729116 0.779213
O O10 0.390622 0.857898 0.800754
O O11 0.402157 0.772425 0.720055
O O12 0.442664 0.688602 0.799711
O O13 0.122937 0.728183 0.500000
O O14 0.202680 0.797321 0.572963
O O15 0.000000 0.500000 0.208562
O O16 0.000000 0.659109 0.250000
O O17 0.402973 0.402973 0.809212
O O18 0.184993 0.371342 0.500000
O O19 0.273170 0.273170 0.563448
#
# Coordination Sequence:
#
# PCOD8316675 Si02
#       7
#    16  16  16  16  16  16  16
#     4  10  20  33  52  79 113 151 190 230 275 332
#     4  11  22  36  60  85 110 146 188 234 281 334
#     4  10  20  33  51  73 106 148 188 228 268 320
#     4  10  21  36  57  83 109 140 182 234 286 334
#     4  10  21  34  52  77 108 142 179 221 276 328
#     4   9  18  30  47  72 104 146 190 228 265 309
#     4  11  24  39  56  81 114 151 192 237 285 337
#
# _framework density 18.608539
#
# number of rings (size 3 to 8) (size 9 to 14) (size 15 to 20)
#    0.000    1.857    1.429    3.429    4.000    4.286 
#    0.000    3.571    0.000    0.429    0.000    2.000 
#    0.000    1.429    0.000    0.143    0.000    0.143 
#
# Total GULP energy -1387610.156851 kJ/mol
# GULP energy per Si atom -12389.376400 kJ/mol
# Density = 1.856618 g / cm^3
# Si number density = 18.608539 Si / 1000 Ang^3
#
#
#
# Elastic Constant Matrix: (Units=GPa)
#
#
# Indices 1 2 3 4 5 6 
#
# 1 87.4610 43.3595 34.7485 0.0000 0.0000 0.0000
# 2 43.3595 87.4610 34.7485 0.0000 0.0000 0.0000
# 3 34.7485 34.7485 111.8816 0.0000 0.0000 0.0000
# 4 0.0000 0.0000 0.0000 17.0193 0.0000 0.0000
# 5 0.0000 0.0000 0.0000 0.0000 17.0193 0.0000
# 6 0.0000 0.0000 0.0000 0.0000 0.0000 25.2165
#
#
#
# Elastic Compliance Matrix: (Units=1/GPa)
#
#
# Indices 1 2 3 4 5 6 
#
# 1 0.015915 -0.006760 -0.002843 0.000000 0.000000 0.000000
# 2 -0.006760 0.015915 -0.002843 0.000000 0.000000 0.000000
# 3 -0.002843 -0.002843 0.010704 0.000000 0.000000 0.000000
# 4 0.000000 0.000000 0.000000 0.058757 0.000000 0.000000
# 5 0.000000 0.000000 0.000000 0.000000 0.058757 0.000000
# 6 0.000000 0.000000 0.000000 0.000000 0.000000 0.039656
#
#
# Mechanical properties :
#
#
# Convention : Reuss Voigt Hill
#
# Bulk Modulus (GPa) = 56.68864 56.94627 56.81746
# Shear Modulus (GPa) = 21.69414 23.44752 22.57083
#
# Velocity S-wave (km/s) = 3.41811 3.55356 3.48649
# Velocity P-wave (km/s) = 6.79028 6.89244 6.84155
#
# Compressibility (1/GPa) = 0.01764022
#
# Stress axis : x y z
#
# Youngs Moduli (GPa) = 62.83492 62.83492 93.42191
#
# Poissons Ratio (x) = 0.42478 0.26562
# Poissons Ratio (y) = 0.42478 0.26562
# Poissons Ratio (z) = 0.17865 0.17865
#
# Static dielectric constant tensor:
#      x y z
#    x 3.267270 0.000000 0.000000 
#    y 0.000000 3.267270 0.000000 
#    z 0.000000 0.000000 3.885430 
# 
# 
# High freq. dielectric constant tensor:
#      x y z
#    x 1.694580 0.000000 0.000000 
#    y 0.000000 1.694580 0.000000 
#    z 0.000000 0.000000 1.744510 
# 
# From -- ./inp_files/10065.got.cif
#   From: 2010.03.12/outbox.cif.g09.slc.cpg/sg132_6_cif.got.tgz:10065.got - 2010.04.06 17:53:44.
