data_PCOD8316545
_publ_section_title
;
Structure prediction by ZEFSAII (Michael W. Deem and Ramdas Pophale) SiO2 
 PCOD8316545
Probable space group: P 42/M C M
;
_chemical_formula_sum "Si O2"
_cell_formula_units_Z 128
_cell_length_a 17.244737
_cell_length_b 17.244737
_cell_length_c 25.686560
_cell_angle_alpha 90.000000
_cell_angle_beta 90.000000
_cell_angle_gamma 90.000000
_cell_volume 7638.693723
_symmetry_space_group_name_H-M "P 42/M C M"
_symmetry_group_IT_number 132
_symmetry_cell_setting 'tetragonal'
loop_
_space_group_symop_operation_xyz
x,y,z
-y,x,1/2+z
-x,-y,z
y,-x,1/2+z
x,-y,1/2-z
-x,y,1/2-z
y,x,-z
-y,-x,-z
-x,-y,-z
y,-x,1/2-z
x,y,-z
-y,x,1/2-z
-x,y,1/2+z
x,-y,1/2+z
-y,-x,z
y,x,z
loop_
_atom_site_type_symbol
_atom_site_label
_atom_site_fract_x
_atom_site_fract_y
_atom_site_fract_z
Si Si1 0.591185 0.000038 0.689634
Si Si2 0.206678 0.665700 0.941708
Si Si3 0.203713 0.915443 0.561811
Si Si4 0.794241 0.331764 0.441186
Si Si5 0.410902 0.166280 0.340825
Si Si6 0.795930 0.084989 0.939009
Si Si7 0.406888 0.721219 0.749647
Si Si8 0.410459 0.166186 0.841497
O O1 0.626863 0.079510 0.664675
O O2 0.500000 0.000000 0.679538
O O3 0.612281 0.000000 0.750000
O O4 0.626779 0.920299 0.664840
O O5 0.285195 0.714806 0.936456
O O6 0.202829 0.599271 0.898419
O O7 0.132343 0.718105 0.929588
O O8 0.201675 0.629929 0.000000
O O9 0.204152 0.920035 0.500000
O O10 0.123716 0.876285 0.581295
O O11 0.275109 0.862124 0.578416
O O12 0.210828 0.000476 0.587347
O O13 0.808391 0.363059 0.500000
O O14 0.711851 0.288150 0.439065
O O15 0.798329 0.400834 0.399560
O O16 0.378623 0.228103 0.299210
O O17 0.500279 0.156419 0.328446
O O18 0.868607 0.131394 0.914156
O O19 0.810855 0.076000 0.000000
O O20 0.500000 0.704033 0.750000
O O21 0.360613 0.639388 0.749867
O O22 0.378567 0.771087 0.699702
#
# Coordination Sequence:
#
# PCOD8316545 Si02
#       8
#    16  16  16  16  16  16  16  16
#     4   9  16  30  47  67  95 123 153 187 232 286
#     4   9  18  31  45  63  91 125 157 191 233 280
#     4   8  14  24  37  54  77 107 143 181 221 261
#     4   9  18  31  45  63  91 125 157 191 233 280
#     4  10  19  31  49  71  94 122 156 193 233 279
#     4   8  14  24  37  54  77 107 143 181 221 261
#     4  10  20  34  53  75  97 121 152 192 237 284
#     4  10  19  31  49  71  94 122 156 193 233 279
#
# _framework density 16.756791
#
# number of rings (size 3 to 8) (size 9 to 14) (size 15 to 20)
#    0.000    2.875    1.250    2.250    1.750    0.875 
#    0.000    1.250    0.000    2.250    0.000    0.000 
#    0.000    0.000    0.000   23.250    0.000   24.500 
#
# Total GULP energy -1585744.209681 kJ/mol
# GULP energy per Si atom -12388.626638 kJ/mol
# Density = 1.671865 g / cm^3
# Si number density = 16.756791 Si / 1000 Ang^3
#
#
#
# Elastic Constant Matrix: (Units=GPa)
#
#
# Indices 1 2 3 4 5 6 
#
# 1 41.9295 28.3300 22.1275 0.0000 0.0000 0.0000
# 2 28.3300 41.9295 22.1275 0.0000 0.0000 0.0000
# 3 22.1275 22.1275 86.9059 0.0000 0.0000 0.0000
# 4 0.0000 0.0000 0.0000 20.0383 0.0000 0.0000
# 5 0.0000 0.0000 0.0000 0.0000 20.0383 0.0000
# 6 0.0000 0.0000 0.0000 0.0000 0.0000 6.0824
#
#
#
# Elastic Compliance Matrix: (Units=1/GPa)
#
#
# Indices 1 2 3 4 5 6 
#
# 1 0.045242 -0.028290 -0.004316 0.000000 0.000000 0.000000
# 2 -0.028290 0.045242 -0.004316 0.000000 0.000000 0.000000
# 3 -0.004316 -0.004316 0.013705 0.000000 0.000000 0.000000
# 4 0.000000 0.000000 0.000000 0.049904 0.000000 0.000000
# 5 0.000000 0.000000 0.000000 0.000000 0.049904 0.000000
# 6 0.000000 0.000000 0.000000 0.000000 0.000000 0.164409
#
#
# Mechanical properties :
#
#
# Convention : Reuss Voigt Hill
#
# Bulk Modulus (GPa) = 32.95623 35.10389 34.03006
# Shear Modulus (GPa) = 11.05300 15.77714 13.41507
#
# Velocity S-wave (km/s) = 2.57108 3.07178 2.83251
# Velocity P-wave (km/s) = 5.34079 5.79445 5.57224
#
# Compressibility (1/GPa) = 0.03034328
#
# Stress axis : x y z
#
# Youngs Moduli (GPa) = 22.10333 22.10333 72.96822
#
# Poissons Ratio (x) = 0.62531 0.31494
# Poissons Ratio (y) = 0.62531 0.31494
# Poissons Ratio (z) = 0.09540 0.09540
#
# Static dielectric constant tensor:
#      x y z
#    x 3.133740 0.000000 0.000000 
#    y 0.000000 3.133740 0.000000 
#    z 0.000000 0.000000 2.926660 
# 
# 
# High freq. dielectric constant tensor:
#      x y z
#    x 1.629860 0.000000 0.000000 
#    y 0.000000 1.629860 0.000000 
#    z 0.000000 0.000000 1.628860 
# 
# From -- ./inp_files/9350.got.cif
#   From: 2010.03.12/outbox.cif.g09.slc.cpg/sg132_5_cif.got.tgz:9350.got - 2010.04.06 17:53:44.
