data_PCOD8316531
_publ_section_title
;
Structure prediction by ZEFSAII (Michael W. Deem and Ramdas Pophale) SiO2 
 PCOD8316531
Probable space group: P 42/M C M
;
_chemical_formula_sum "Si O2"
_cell_formula_units_Z 120
_cell_length_a 15.469889
_cell_length_b 15.469889
_cell_length_c 28.518992
_cell_angle_alpha 90.000000
_cell_angle_beta 90.000000
_cell_angle_gamma 90.000000
_cell_volume 6825.092889
_symmetry_space_group_name_H-M "P 42/M C M"
_symmetry_group_IT_number 132
_symmetry_cell_setting 'tetragonal'
loop_
_space_group_symop_operation_xyz
x,y,z
-y,x,1/2+z
-x,-y,z
y,-x,1/2+z
x,-y,1/2-z
-x,y,1/2-z
y,x,-z
-y,-x,-z
-x,-y,-z
y,-x,1/2-z
x,y,-z
-y,x,1/2-z
-x,y,1/2+z
x,-y,1/2+z
-y,-x,z
y,x,z
loop_
_atom_site_type_symbol
_atom_site_label
_atom_site_fract_x
_atom_site_fract_y
_atom_site_fract_z
Si Si1 0.307035 0.165976 0.302374
Si Si2 0.429828 0.832130 0.448079
Si Si3 0.417340 0.720812 0.363347
Si Si4 0.000000 0.500000 0.090471
Si Si5 0.240044 0.902706 0.553773
Si Si6 0.995677 0.313050 0.133285
Si Si7 0.842063 0.698235 0.196161
Si Si8 0.695336 0.554948 0.705059
O O1 0.220330 0.220330 0.303606
O O2 0.321701 0.130893 0.249641
O O3 0.390082 0.224118 0.314428
O O4 0.292154 0.093859 0.341656
O O5 0.445162 0.794487 0.500000
O O6 0.459013 0.763159 0.409528
O O7 0.488885 0.917254 0.442968
O O8 0.328053 0.848776 0.439604
O O9 0.342327 0.657674 0.380136
O O10 0.383080 0.792296 0.326536
O O11 0.492200 0.667250 0.337210
O O12 0.994423 0.415148 0.122714
O O13 0.229620 0.934060 0.500000
O O14 0.158907 0.841094 0.568101
O O15 0.252190 0.987482 0.587071
O O16 0.070769 0.285974 0.168460
O O17 0.783157 0.783157 0.192641
O O18 0.723008 0.500000 0.750000
O O19 0.616098 0.616098 0.719880
#
# Coordination Sequence:
#
# PCOD8316531 Si02
#       8
#    16  16  16   8  16  16  16  16
#     4  10  22  36  51  73 107 144 177 214 257 317
#     4  10  19  31  49  74 107 143 173 209 265 325
#     4  11  20  33  52  77 107 133 169 221 268 311
#     4  10  19  30  47  78 108 136 171 218 261 320
#     4   9  17  30  51  79 106 134 175 225 272 317
#     4  11  20  32  52  77 106 143 176 210 268 323
#     4  10  19  34  52  75 105 139 174 215 263 311
#     4  11  22  37  56  76 101 138 181 225 268 312
#
# _framework density 17.582179
#
# number of rings (size 3 to 8) (size 9 to 14) (size 15 to 20)
#    0.000    1.733    4.000    2.600    0.000    2.267 
#    0.000    0.667    0.000    2.400    0.000    7.467 
#    0.000    0.000    0.000    0.000    0.000    0.000 
#
# Total GULP energy -1487558.898508 kJ/mol
# GULP energy per Si atom -12396.324154 kJ/mol
# Density = 1.754216 g / cm^3
# Si number density = 17.582179 Si / 1000 Ang^3
#
#
#
# Elastic Constant Matrix: (Units=GPa)
#
#
# Indices 1 2 3 4 5 6 
#
# 1 69.4863 26.2435 44.2495 0.0000 0.0000 0.0000
# 2 26.2435 69.4863 44.2495 0.0000 0.0000 0.0000
# 3 44.2495 44.2495 125.8746 0.0000 0.0000 0.0000
# 4 0.0000 0.0000 0.0000 18.6864 0.0000 0.0000
# 5 0.0000 0.0000 0.0000 0.0000 18.6864 0.0000
# 6 0.0000 0.0000 0.0000 0.0000 0.0000 16.7410
#
#
#
# Elastic Compliance Matrix: (Units=1/GPa)
#
#
# Indices 1 2 3 4 5 6 
#
# 1 0.019300 -0.003825 -0.005440 0.000000 0.000000 0.000000
# 2 -0.003825 0.019300 -0.005440 0.000000 0.000000 0.000000
# 3 -0.005440 -0.005440 0.011769 0.000000 0.000000 0.000000
# 4 0.000000 0.000000 0.000000 0.053515 0.000000 0.000000
# 5 0.000000 0.000000 0.000000 0.000000 0.053515 0.000000
# 6 0.000000 0.000000 0.000000 0.000000 0.000000 0.059734
#
#
# Mechanical properties :
#
#
# Convention : Reuss Voigt Hill
#
# Bulk Modulus (GPa) = 47.71154 54.92581 51.31868
# Shear Modulus (GPa) = 19.72151 20.82971 20.27561
#
# Velocity S-wave (km/s) = 3.35278 3.44569 3.39955
# Velocity P-wave (km/s) = 6.49487 6.86569 6.68285
#
# Compressibility (1/GPa) = 0.02095929
#
# Stress axis : x y z
#
# Youngs Moduli (GPa) = 51.81273 51.81273 84.96734
#
# Poissons Ratio (x) = 0.19818 0.46223
# Poissons Ratio (y) = 0.19818 0.46223
# Poissons Ratio (z) = 0.28187 0.28187
#
# Static dielectric constant tensor:
#      x y z
#    x 3.133290 0.000000 0.000000 
#    y 0.000000 3.133290 0.000000 
#    z 0.000000 0.000000 3.481170 
# 
# 
# High freq. dielectric constant tensor:
#      x y z
#    x 1.659730 0.000000 0.000000 
#    y 0.000000 1.659730 0.000000 
#    z 0.000000 0.000000 1.689310 
# 
# From -- ./inp_files/11100.got.cif
#   From: 2010.03.12/outbox.cif.g09.slc.cpg/sg132_6_cif.got.tgz:11100.got - 2010.04.06 17:53:44.
