data_PCOD8316363
_publ_section_title
;
Structure prediction by ZEFSAII (Michael W. Deem and Ramdas Pophale) SiO2 
 PCOD8316363
Probable space group: P 42/M M C
;
_chemical_formula_sum "Si O2"
_cell_formula_units_Z 96
_cell_length_a 18.572654
_cell_length_b 18.572654
_cell_length_c 17.577128
_cell_angle_alpha 90.000000
_cell_angle_beta 90.000000
_cell_angle_gamma 90.000000
_cell_volume 6063.115641
_symmetry_space_group_name_H-M "P 42/M M C"
_symmetry_group_IT_number 131
_symmetry_cell_setting 'tetragonal'
loop_
_space_group_symop_operation_xyz
x,y,z
-x,-y,z
-y,x,1/2+z
y,-x,1/2+z
-x,y,-z
x,-y,-z
y,x,1/2-z
-y,-x,1/2-z
-x,-y,-z
x,y,-z
y,-x,1/2-z
-y,x,1/2-z
x,-y,z
-x,y,z
-y,-x,1/2+z
y,x,1/2+z
loop_
_atom_site_type_symbol
_atom_site_label
_atom_site_fract_x
_atom_site_fract_y
_atom_site_fract_z
Si Si1 0.583122 0.309745 0.713822
Si Si2 0.220727 0.419626 0.640573
Si Si3 0.165796 0.787489 0.589829
Si Si4 0.918283 0.352523 0.410210
Si Si5 0.694907 0.288902 0.586400
Si Si6 0.080684 0.079521 0.409381
O O1 0.618799 0.381202 0.750000
O O2 0.500000 0.326954 0.695218
O O3 0.591605 0.243161 0.771592
O O4 0.623160 0.286684 0.636557
O O5 0.239995 0.500000 0.613979
O O6 0.134966 0.407571 0.632667
O O7 0.266216 0.366640 0.586792
O O8 0.172803 0.792369 0.500000
O O9 0.106492 0.727898 0.611471
O O10 0.245797 0.767616 0.620317
O O11 0.137453 0.862922 0.624672
O O12 0.912541 0.366078 0.500000
O O13 0.000000 0.364625 0.381756
O O14 0.672515 0.270844 0.500000
O O15 0.079929 0.084479 0.500000
O O16 0.000000 0.095919 0.379363
O O17 0.105093 0.000000 0.382811
#
# Coordination Sequence:
#
# PCOD8316363 Si02
#       6
#    16  16  16  16  16  16
#     4   9  18  32  48  64  83 109 138 169 208 255
#     4   9  17  29  43  59  84 116 142 164 199 250
#     4   8  13  22  35  53  82 113 137 166 205 246
#     4   9  16  24  37  60  87 114 142 170 202 241
#     4   9  17  28  44  65  84 107 140 175 211 248
#     4   8  12  17  28  49  77 109 141 169 200 240
#
# _framework density 15.833444
#
# number of rings (size 3 to 8) (size 9 to 14) (size 15 to 20)
#    0.000    3.333    0.000    2.500    0.000    4.167 
#    0.000    0.833    0.000    1.000    0.000    4.667 
#    0.000    0.000    0.000   53.000    0.000   39.333 
#
# Total GULP energy -1189690.408314 kJ/mol
# GULP energy per Si atom -12392.608420 kJ/mol
# Density = 1.579741 g / cm^3
# Si number density = 15.833444 Si / 1000 Ang^3
#
#
#
# Elastic Constant Matrix: (Units=GPa)
#
#
# Indices 1 2 3 4 5 6 
#
# 1 112.3243 49.2641 31.2905 0.0000 0.0000 0.0000
# 2 49.2641 112.3238 31.2905 0.0000 0.0000 0.0000
# 3 31.2905 31.2905 42.6917 0.0000 0.0000 0.0000
# 4 0.0000 0.0000 0.0000 13.6702 0.0000 0.0000
# 5 0.0000 0.0000 0.0000 0.0000 13.6705 0.0000
# 6 0.0000 0.0000 0.0000 0.0000 0.0000 18.0431
#
#
#
# Elastic Compliance Matrix: (Units=1/GPa)
#
#
# Indices 1 2 3 4 5 6 
#
# 1 0.012250 -0.003608 -0.006334 0.000000 0.000000 0.000000
# 2 -0.003608 0.012250 -0.006334 0.000000 0.000000 0.000000
# 3 -0.006334 -0.006334 0.032708 0.000000 0.000000 0.000000
# 4 0.000000 0.000000 0.000000 0.073152 0.000000 0.000000
# 5 0.000000 0.000000 0.000000 0.000000 0.073150 0.000000
# 6 0.000000 0.000000 0.000000 0.000000 0.000000 0.055423
#
#
# Mechanical properties :
#
#
# Convention : Reuss Voigt Hill
#
# Bulk Modulus (GPa) = 40.55740 54.55889 47.55815
# Shear Modulus (GPa) = 16.68320 19.44309 18.06315
#
# Velocity S-wave (km/s) = 3.24955 3.50805 3.38127
# Velocity P-wave (km/s) = 6.30476 7.13732 6.73392
#
# Compressibility (1/GPa) = 0.02465641
#
# Stress axis : x y z
#
# Youngs Moduli (GPa) = 81.63465 81.63416 30.57323
#
# Poissons Ratio (x) = 0.29455 0.19364
# Poissons Ratio (y) = 0.29455 0.19364
# Poissons Ratio (z) = 0.51705 0.51705
#
# Static dielectric constant tensor:
#      x y z
#    x 3.147130 0.000000 0.000000 
#    y 0.000000 3.147130 0.000000 
#    z 0.000000 0.000000 2.636700 
# 
# 
# High freq. dielectric constant tensor:
#      x y z
#    x 1.603630 0.000000 0.000000 
#    y 0.000000 1.603630 0.000000 
#    z 0.000000 0.000000 1.565990 
# 
# From -- ./inp_files/9897.got.cif
#   From: 2010.03.12/outbox.cif.g09.slc.cpg/sg131_5_cif.got.tgz:9897.got - 2010.04.06 17:36:35.
