data_PCOD8316465
_publ_section_title
;
Structure prediction by ZEFSAII (Michael W. Deem and Ramdas Pophale) SiO2 
 PCOD8316465
Probable space group: P 42/M C M
;
_chemical_formula_sum "Si O2"
_cell_formula_units_Z 112
_cell_length_a 19.210069
_cell_length_b 19.210069
_cell_length_c 19.201062
_cell_angle_alpha 90.000000
_cell_angle_beta 90.000000
_cell_angle_gamma 90.000000
_cell_volume 7085.705525
_symmetry_space_group_name_H-M "P 42/M C M"
_symmetry_group_IT_number 132
_symmetry_cell_setting 'tetragonal'
loop_
_space_group_symop_operation_xyz
x,y,z
-y,x,1/2+z
-x,-y,z
y,-x,1/2+z
x,-y,1/2-z
-x,y,1/2-z
y,x,-z
-y,-x,-z
-x,-y,-z
y,-x,1/2-z
x,y,-z
-y,x,1/2-z
-x,y,1/2+z
x,-y,1/2+z
-y,-x,z
y,x,z
loop_
_atom_site_type_symbol
_atom_site_label
_atom_site_fract_x
_atom_site_fract_y
_atom_site_fract_z
Si Si1 0.255474 0.633921 0.685240
Si Si2 0.939428 0.631943 0.922461
Si Si3 0.075106 0.812982 0.766869
Si Si4 0.536082 0.188395 0.417556
Si Si5 0.667365 0.949365 0.314417
Si Si6 0.562410 0.173894 0.797073
Si Si7 0.744638 0.149295 0.639757
O O1 0.332691 0.667310 0.686243
O O2 0.246955 0.587227 0.615198
O O3 0.242883 0.589237 0.755801
O O4 0.196966 0.693160 0.684757
O O5 0.888386 0.568071 0.902837
O O6 0.896286 0.703876 0.916612
O O7 0.010156 0.634207 0.879160
O O8 0.966149 0.622724 0.000000
O O9 0.128006 0.871994 0.795202
O O10 0.069597 0.749571 0.822980
O O11 0.098834 0.781811 0.693569
O O12 0.000000 0.847065 0.750000
O O13 0.525310 0.202539 0.500000
O O14 0.463380 0.192746 0.375226
O O15 0.624972 0.879690 0.302323
O O16 0.658543 0.000000 0.250000
O O17 0.500000 0.141666 0.750000
O O18 0.801683 0.198318 0.601179
#
# Coordination Sequence:
#
# PCOD8316465 Si02
#       7
#    16  16  16  16  16  16  16
#     4   9  16  28  48  72  93 120 161 200 233 274
#     4  10  19  30  43  64  90 120 160 196 230 288
#     4  10  18  29  48  69  89 114 153 204 258 308
#     4   9  19  32  44  66 101 132 156 190 237 288
#     4  11  18  30  45  63  87 121 158 198 239 288
#     4  10  19  29  45  67  94 126 158 194 236 280
#     4   9  15  27  45  66  87 111 147 196 250 290
#
# _framework density 15.806471999999999
#
# number of rings (size 3 to 8) (size 9 to 14) (size 15 to 20)
#    0.000    2.286    4.286    1.714    0.000    3.286 
#    0.000    4.286    0.000    0.857    0.000    2.000 
#    0.000   25.429    0.000   11.571    0.000    0.429 
#
# Total GULP energy -1387881.756127 kJ/mol
# GULP energy per Si atom -12391.801394 kJ/mol
# Density = 1.577050 g / cm^3
# Si number density = 15.806472 Si / 1000 Ang^3
#
#
#
# Elastic Constant Matrix: (Units=GPa)
#
#
# Indices 1 2 3 4 5 6 
#
# 1 63.8754 30.2607 30.7442 0.0000 0.0000 0.0000
# 2 30.2607 63.8754 30.7442 0.0000 0.0000 0.0000
# 3 30.7442 30.7442 90.0367 0.0000 0.0000 0.0000
# 4 0.0000 0.0000 0.0000 60.7346 0.0000 0.0000
# 5 0.0000 0.0000 0.0000 0.0000 60.7346 0.0000
# 6 0.0000 0.0000 0.0000 0.0000 0.0000 19.2497
#
#
#
# Elastic Compliance Matrix: (Units=1/GPa)
#
#
# Indices 1 2 3 4 5 6 
#
# 1 0.021711 -0.008038 -0.004669 0.000000 0.000000 0.000000
# 2 -0.008038 0.021711 -0.004669 0.000000 0.000000 0.000000
# 3 -0.004669 -0.004669 0.014295 0.000000 0.000000 0.000000
# 4 0.000000 0.000000 0.000000 0.016465 0.000000 0.000000
# 5 0.000000 0.000000 0.000000 0.000000 0.016465 0.000000
# 6 0.000000 0.000000 0.000000 0.000000 0.000000 0.051949
#
#
# Mechanical properties :
#
#
# Convention : Reuss Voigt Hill
#
# Bulk Modulus (GPa) = 43.54411 44.58731 44.06571
# Shear Modulus (GPa) = 27.02687 36.54633 31.78660
#
# Velocity S-wave (km/s) = 4.13953 4.81366 4.48927
# Velocity P-wave (km/s) = 7.10322 7.69185 7.40339
#
# Compressibility (1/GPa) = 0.02296522
#
# Stress axis : x y z
#
# Youngs Moduli (GPa) = 46.06041 46.06041 69.95494
#
# Poissons Ratio (x) = 0.37024 0.32659
# Poissons Ratio (y) = 0.37024 0.32659
# Poissons Ratio (z) = 0.21504 0.21504
#
# Static dielectric constant tensor:
#      x y z
#    x 3.194090 0.000000 0.000000 
#    y 0.000000 3.194090 0.000000 
#    z 0.000000 0.000000 2.870640 
# 
# 
# High freq. dielectric constant tensor:
#      x y z
#    x 1.592970 0.000000 0.000000 
#    y 0.000000 1.592970 0.000000 
#    z 0.000000 0.000000 1.587200 
# 
# From -- ./inp_files/6801.got.cif
#   From: 2010.03.12/outbox.cif.g09.slc.cpg/sg132_4_cif.got.tgz:6801.got - 2010.04.06 17:53:44.
