data_PCOD8316527
_publ_section_title
;
Structure prediction by ZEFSAII (Michael W. Deem and Ramdas Pophale) SiO2 
 PCOD8316527
Probable space group: P 42/M C M
;
_chemical_formula_sum "Si O2"
_cell_formula_units_Z 74
_cell_length_a 25.289658
_cell_length_b 25.289658
_cell_length_c 7.656544
_cell_angle_alpha 90.000000
_cell_angle_beta 90.000000
_cell_angle_gamma 90.000000
_cell_volume 4896.871359
_symmetry_space_group_name_H-M "P 42/M C M"
_symmetry_group_IT_number 132
_symmetry_cell_setting 'tetragonal'
loop_
_space_group_symop_operation_xyz
x,y,z
-y,x,1/2+z
-x,-y,z
y,-x,1/2+z
x,-y,1/2-z
-x,y,1/2-z
y,x,-z
-y,-x,-z
-x,-y,-z
y,-x,1/2-z
x,y,-z
-y,x,1/2-z
-x,y,1/2+z
x,-y,1/2+z
-y,-x,z
y,x,z
loop_
_atom_site_type_symbol
_atom_site_label
_atom_site_fract_x
_atom_site_fract_y
_atom_site_fract_z
Si Si1 0.311970 0.223022 0.000000
Si Si2 0.921640 0.078361 0.795656
Si Si3 0.000000 0.000000 0.750000
Si Si4 0.273923 0.362274 0.307997
Si Si5 0.643838 0.560221 0.203832
Si Si6 0.059138 0.800570 0.203100
Si Si7 0.862909 0.773009 0.000000
O O1 0.349814 0.227732 0.169565
O O2 0.268551 0.268551 0.000000
O O3 0.282787 0.167082 0.000000
O O4 0.861881 0.064949 0.750848
O O5 0.958122 0.041879 0.666199
O O6 0.934682 0.065319 0.000000
O O7 0.248369 0.358057 0.500000
O O8 0.320544 0.320544 0.279619
O O9 0.300560 0.419968 0.285347
O O10 0.633232 0.500000 0.250000
O O11 0.594449 0.594449 0.277607
O O12 0.648850 0.568615 0.000000
O O13 0.101406 0.771367 0.325582
O O14 0.000000 0.781531 0.250000
O O15 0.072225 0.788905 0.000000
O O16 0.822950 0.822950 0.000000
#
# Coordination Sequence:
#
# PCOD8316527 Si02
#       7
#     8   8   2  16  16  16   8
#     4   9  18  32  48  68  87 112 148 194 245 281
#     4  10  21  30  40  60  81 105 146 190 226 268
#     4  12  18  28  44  62  76 110 160 198 230 272
#     4   9  16  29  48  66  88 117 152 197 243 285
#     4  10  19  30  44  64  94 131 173 216 247 280
#     4  11  21  34  48  62  85 117 147 183 233 279
#     4  11  22  34  50  68  90 113 149 197 233 281
#
# _framework density 15.111689999999999
#
# number of rings (size 3 to 8) (size 9 to 14) (size 15 to 20)
#    0.000    1.946    4.324    0.811    0.000    2.378 
#    1.946    3.243    0.000    0.000    0.000    0.000 
#    0.000    0.000    0.000    0.000    0.000    3.243 
#
# Total GULP energy -916920.829562 kJ/mol
# GULP energy per Si atom -12390.822021 kJ/mol
# Density = 1.507729 g / cm^3
# Si number density = 15.111690 Si / 1000 Ang^3
#
#
#
# Elastic Constant Matrix: (Units=GPa)
#
#
# Indices 1 2 3 4 5 6 
#
# 1 65.9341 52.4820 39.9441 0.0000 0.0000 0.0000
# 2 52.4820 65.9341 39.9441 0.0000 0.0000 0.0000
# 3 39.9441 39.9441 106.2517 0.0000 0.0000 0.0000
# 4 0.0000 0.0000 0.0000 14.8708 0.0000 0.0000
# 5 0.0000 0.0000 0.0000 0.0000 14.8709 0.0000
# 6 0.0000 0.0000 0.0000 0.0000 0.0000 23.4281
#
#
#
# Elastic Compliance Matrix: (Units=1/GPa)
#
#
# Indices 1 2 3 4 5 6 
#
# 1 0.042826 -0.031512 -0.004254 0.000000 0.000000 0.000000
# 2 -0.031512 0.042826 -0.004253 0.000000 0.000000 0.000000
# 3 -0.004254 -0.004253 0.012610 0.000000 0.000000 0.000000
# 4 0.000000 0.000000 0.000000 0.067246 0.000000 0.000000
# 5 0.000000 0.000000 0.000000 0.000000 0.067245 0.000000
# 6 0.000000 0.000000 0.000000 0.000000 0.000000 0.042684
#
#
# Mechanical properties :
#
#
# Convention : Reuss Voigt Hill
#
# Bulk Modulus (GPa) = 54.87133 55.87336 55.37235
# Shear Modulus (GPa) = 13.82935 17.68394 15.75664
#
# Velocity S-wave (km/s) = 3.02841 3.42455 3.23256
# Velocity P-wave (km/s) = 6.97264 7.25883 7.11717
#
# Compressibility (1/GPa) = 0.01822445
#
# Stress axis : x y z
#
# Youngs Moduli (GPa) = 23.35012 23.35015 79.30379
#
# Poissons Ratio (x) = 0.73581 0.33732
# Poissons Ratio (y) = 0.73581 0.33732
# Poissons Ratio (z) = 0.09932 0.09932
#
# Static dielectric constant tensor:
#      x y z
#    x 2.567780 0.000000 0.000000 
#    y 0.000000 2.567780 0.000000 
#    z 0.000000 0.000000 3.062280 
# 
# 
# High freq. dielectric constant tensor:
#      x y z
#    x 1.541670 0.000000 0.000000 
#    y 0.000000 1.541670 0.000000 
#    z 0.000000 0.000000 1.597280 
# 
# From -- ./inp_files/1583.got.cif
#   From: 2010.03.12/outbox.cif.g09.slc.cpg/sg132_1_cif.got.tgz:1583.got - 2010.04.06 17:53:44.
