data_PCOD8316539
_publ_section_title
;
Structure prediction by ZEFSAII (Michael W. Deem and Ramdas Pophale) SiO2 
 PCOD8316539
Probable space group: P 42/M C M
;
_chemical_formula_sum "Si O2"
_cell_formula_units_Z 96
_cell_length_a 25.064217
_cell_length_b 25.064217
_cell_length_c 9.030076
_cell_angle_alpha 90.000000
_cell_angle_beta 90.000000
_cell_angle_gamma 90.000000
_cell_volume 5672.828958
_symmetry_space_group_name_H-M "P 42/M C M"
_symmetry_group_IT_number 132
_symmetry_cell_setting 'tetragonal'
loop_
_space_group_symop_operation_xyz
x,y,z
-y,x,1/2+z
-x,-y,z
y,-x,1/2+z
x,-y,1/2-z
-x,y,1/2-z
y,x,-z
-y,-x,-z
-x,-y,-z
y,-x,1/2-z
x,y,-z
-y,x,1/2-z
-x,y,1/2+z
x,-y,1/2+z
-y,-x,z
y,x,z
loop_
_atom_site_type_symbol
_atom_site_label
_atom_site_fract_x
_atom_site_fract_y
_atom_site_fract_z
Si Si1 0.261199 0.945202 0.325032
Si Si2 0.257163 0.343014 0.671881
Si Si3 0.946359 0.138624 0.672954
Si Si4 0.865916 0.659695 0.325287
Si Si5 0.448438 0.260009 0.165854
Si Si6 0.866993 0.447808 0.332042
O O1 0.271416 0.948333 0.500000
O O2 0.199662 0.934226 0.285258
O O3 0.292858 0.896532 0.254451
O O4 0.280706 0.000000 0.250000
O O5 0.262527 0.356495 0.500000
O O6 0.291520 0.291520 0.717970
O O7 0.196063 0.331004 0.713134
O O8 0.279926 0.394320 0.757289
O O9 0.955344 0.131970 0.500000
O O10 0.896838 0.103163 0.729378
O O11 0.000000 0.117993 0.750000
O O12 0.876854 0.660066 0.500000
O O13 0.886514 0.603786 0.258543
O O14 0.500000 0.283367 0.250000
O O15 0.450386 0.196451 0.167743
O O16 0.449480 0.282482 0.000000
O O17 0.890369 0.500000 0.250000
O O18 0.889010 0.445426 0.500000
#
# Coordination Sequence:
#
# PCOD8316539 Si02
#       6
#    16  16  16  16  16  16
#     4  10  20  35  53  71  93 123 159 197 234 275
#     4   9  18  31  45  65  97 131 159 192 235 281
#     4   9  19  35  53  74  99 125 154 190 233 280
#     4  10  19  31  48  70  95 125 160 195 235 283
#     4   9  16  26  42  63  88 121 160 198 235 278
#     4   9  16  27  44  67  93 121 155 195 237 279
#
# _framework density 16.922774
#
# number of rings (size 3 to 8) (size 9 to 14) (size 15 to 20)
#    0.000    2.667    0.000    2.000    0.000    6.833 
#    0.000    0.833    0.000    0.500    0.000    3.500 
#    0.000    0.333    0.000    3.500    0.000    1.833 
#
# Total GULP energy -1190468.827193 kJ/mol
# GULP energy per Si atom -12400.716950 kJ/mol
# Density = 1.688426 g / cm^3
# Si number density = 16.922774 Si / 1000 Ang^3
#
#
#
# Elastic Constant Matrix: (Units=GPa)
#
#
# Indices 1 2 3 4 5 6 
#
# 1 92.2250 61.4550 53.6457 0.0000 0.0000 0.0000
# 2 61.4550 92.2250 53.6457 0.0000 0.0000 0.0000
# 3 53.6457 53.6457 102.9879 0.0000 0.0000 0.0000
# 4 0.0000 0.0000 0.0000 27.3302 0.0000 0.0000
# 5 0.0000 0.0000 0.0000 0.0000 27.3302 0.0000
# 6 0.0000 0.0000 0.0000 0.0000 0.0000 3.4462
#
#
#
# Elastic Compliance Matrix: (Units=1/GPa)
#
#
# Indices 1 2 3 4 5 6 
#
# 1 0.021362 -0.011137 -0.005327 0.000000 0.000000 0.000000
# 2 -0.011137 0.021362 -0.005327 0.000000 0.000000 0.000000
# 3 -0.005327 -0.005327 0.015259 0.000000 0.000000 0.000000
# 4 0.000000 0.000000 0.000000 0.036590 0.000000 0.000000
# 5 0.000000 0.000000 0.000000 0.000000 0.036590 0.000000
# 6 0.000000 0.000000 0.000000 0.000000 0.000000 0.290176
#
#
# Mechanical properties :
#
#
# Convention : Reuss Voigt Hill
#
# Bulk Modulus (GPa) = 69.42340 69.43676 69.43008
# Shear Modulus (GPa) = 10.64465 19.53408 15.08936
#
# Velocity S-wave (km/s) = 2.51073 3.40120 2.98931
# Velocity P-wave (km/s) = 7.03689 7.51963 7.28226
#
# Compressibility (1/GPa) = 0.01440437
#
# Stress axis : x y z
#
# Youngs Moduli (GPa) = 46.81106 46.81106 65.53522
#
# Poissons Ratio (x) = 0.52132 0.34907
# Poissons Ratio (y) = 0.52132 0.34907
# Poissons Ratio (z) = 0.24934 0.24934
#
# Static dielectric constant tensor:
#      x y z
#    x 3.098280 0.000000 0.000000 
#    y 0.000000 3.098280 0.000000 
#    z 0.000000 0.000000 3.312850 
# 
# 
# High freq. dielectric constant tensor:
#      x y z
#    x 1.633670 0.000000 0.000000 
#    y 0.000000 1.633670 0.000000 
#    z 0.000000 0.000000 1.666680 
# 
# From -- ./inp_files/1696.got.cif
#   From: 2010.03.12/outbox.cif.g09.slc.cpg/sg132_1_cif.got.tgz:1696.got - 2010.04.06 17:53:44.
