data_PCOD8316295
_publ_section_title
;
Structure prediction by ZEFSAII (Michael W. Deem and Ramdas Pophale) SiO2 
 PCOD8316295
Probable space group: P 42/M M C
;
_chemical_formula_sum "Si O2"
_cell_formula_units_Z 56
_cell_length_a 18.163451
_cell_length_b 18.163451
_cell_length_c 7.936225
_cell_angle_alpha 90.000000
_cell_angle_beta 90.000000
_cell_angle_gamma 90.000000
_cell_volume 2618.247547
_symmetry_space_group_name_H-M "P 42/M M C"
_symmetry_group_IT_number 131
_symmetry_cell_setting 'tetragonal'
loop_
_space_group_symop_operation_xyz
x,y,z
-x,-y,z
-y,x,1/2+z
y,-x,1/2+z
-x,y,-z
x,-y,-z
y,x,1/2-z
-y,-x,1/2-z
-x,-y,-z
x,y,-z
y,-x,1/2-z
-y,x,1/2-z
x,-y,z
-x,y,z
-y,-x,1/2+z
y,x,1/2+z
loop_
_atom_site_type_symbol
_atom_site_label
_atom_site_fract_x
_atom_site_fract_y
_atom_site_fract_z
Si Si1 0.918371 0.806546 0.303819
Si Si2 0.696488 0.415143 0.801532
Si Si3 0.914287 0.581979 0.000000
Si Si4 0.159057 0.659247 0.693149
O O1 0.884720 0.884720 0.250000
O O2 0.929871 0.806436 0.500000
O O3 0.860110 0.742921 0.252468
O O4 0.000000 0.795650 0.220170
O O5 0.616219 0.383782 0.750000
O O6 0.702222 0.500000 0.739588
O O7 0.755232 0.361906 0.709364
O O8 0.709827 0.410657 0.000000
O O9 0.885901 0.611570 0.823834
O O10 0.885567 0.500000 0.000000
O O11 0.000000 0.592153 0.000000
O O12 0.133685 0.644443 0.500000
#
# Coordination Sequence:
#
# PCOD8316295 Si02
#       4
#    16  16   8  16
#     4  10  23  41  62  93 128 167 217 268 324 388
#     4  11  24  42  65  96 133 172 220 275 328 391
#     4  11  24  40  62  96 132 170 218 267 326 396
#     4  11  23  42  68  94 130 172 220 270 328 388
#
# _framework density 21.388351
#
# number of rings (size 3 to 8) (size 9 to 14) (size 15 to 20)
#    0.000    1.286    1.429    3.429    2.000    9.143 
#    0.000    4.286    0.000    0.000    0.000    0.000 
#    0.000    0.000    0.000    0.000    0.000    0.000 
#
# Total GULP energy -694114.964932 kJ/mol
# GULP energy per Si atom -12394.910088 kJ/mol
# Density = 2.133967 g / cm^3
# Si number density = 21.388351 Si / 1000 Ang^3
#
#
#
# Elastic Constant Matrix: (Units=GPa)
#
#
# Indices 1 2 3 4 5 6 
#
# 1 142.5904 81.1123 29.5676 0.0000 0.0000 0.0000
# 2 81.1123 142.5850 29.5688 0.0000 0.0000 0.0000
# 3 29.5676 29.5688 95.4979 0.0000 0.0000 0.0000
# 4 0.0000 0.0000 0.0000 30.9850 0.0000 0.0000
# 5 0.0000 0.0000 0.0000 0.0000 30.9848 0.0000
# 6 0.0000 0.0000 0.0000 0.0000 0.0000 41.8003
#
#
#
# Elastic Compliance Matrix: (Units=1/GPa)
#
#
# Indices 1 2 3 4 5 6 
#
# 1 0.010567 -0.005699 -0.001507 0.000000 0.000000 0.000000
# 2 -0.005699 0.010568 -0.001508 0.000000 0.000000 0.000000
# 3 -0.001507 -0.001508 0.011405 0.000000 0.000000 0.000000
# 4 0.000000 0.000000 0.000000 0.032274 0.000000 0.000000
# 5 0.000000 0.000000 0.000000 0.000000 0.032274 0.000000
# 6 0.000000 0.000000 0.000000 0.000000 0.000000 0.023923
#
#
# Mechanical properties :
#
#
# Convention : Reuss Voigt Hill
#
# Bulk Modulus (GPa) = 66.17006 73.46342 69.81674
# Shear Modulus (GPa) = 34.84889 36.78232 35.81561
#
# Velocity S-wave (km/s) = 4.04089 4.15147 4.09655
# Velocity P-wave (km/s) = 7.26473 7.57638 7.42219
#
# Compressibility (1/GPa) = 0.01511258
#
# Stress axis : x y z
#
# Youngs Moduli (GPa) = 94.62993 94.62560 87.68140
#
# Poissons Ratio (x) = 0.53927 0.13216
# Poissons Ratio (y) = 0.53929 0.13219
# Poissons Ratio (z) = 0.14264 0.14266
#
# Static dielectric constant tensor:
#      x y z
#    x 3.691160 0.000000 0.000000 
#    y 0.000000 3.691180 0.000000 
#    z 0.000000 0.000000 3.817350 
# 
# 
# High freq. dielectric constant tensor:
#      x y z
#    x 1.843460 0.000000 0.000000 
#    y 0.000000 1.843460 0.000000 
#    z 0.000000 0.000000 1.842700 
# 
# From -- ./inp_files/1218.got.cif
#   From: 2010.03.12/outbox.cif.g09.slc.cpg/sg131_1_cif.got.tgz:1218.got - 2010.04.06 17:36:35.
