data_PCOD8316343
_publ_section_title
;
Structure prediction by ZEFSAII (Michael W. Deem and Ramdas Pophale) SiO2 
 PCOD8316343
Probable space group: P 42/M M C
;
_chemical_formula_sum "Si O2"
_cell_formula_units_Z 80
_cell_length_a 18.927275
_cell_length_b 18.927275
_cell_length_c 16.143859
_cell_angle_alpha 90.000000
_cell_angle_beta 90.000000
_cell_angle_gamma 90.000000
_cell_volume 5783.404121
_symmetry_space_group_name_H-M "P 42/M M C"
_symmetry_group_IT_number 131
_symmetry_cell_setting 'tetragonal'
loop_
_space_group_symop_operation_xyz
x,y,z
-x,-y,z
-y,x,1/2+z
y,-x,1/2+z
-x,y,-z
x,-y,-z
y,x,1/2-z
-y,-x,1/2-z
-x,-y,-z
x,y,-z
y,-x,1/2-z
-y,x,1/2-z
x,-y,z
-x,y,z
-y,-x,1/2+z
y,x,1/2+z
loop_
_atom_site_type_symbol
_atom_site_label
_atom_site_fract_x
_atom_site_fract_y
_atom_site_fract_z
Si Si1 0.077913 0.583926 0.636002
Si Si2 0.416665 0.359289 0.663235
Si Si3 0.415527 0.184103 0.000000
Si Si4 0.213768 0.416665 0.091117
Si Si5 0.415856 0.077481 0.321146
Si Si6 0.342796 0.582710 0.500000
O O1 0.081120 0.500000 0.635949
O O2 0.141079 0.613853 0.579404
O O3 0.089326 0.613078 0.728526
O O4 0.000000 0.607525 0.603508
O O5 0.385511 0.385511 0.750000
O O6 0.500000 0.374206 0.662528
O O7 0.398672 0.276215 0.655290
O O8 0.383970 0.397376 0.583464
O O9 0.500000 0.185414 0.000000
O O10 0.384129 0.263527 0.000000
O O11 0.205618 0.500000 0.083923
O O12 0.139676 0.383571 0.122165
O O13 0.231690 0.385399 0.000000
O O14 0.500000 0.081701 0.320467
O O15 0.392086 0.000000 0.354440
O O16 0.334223 0.500000 0.500000
#
# Coordination Sequence:
#
# PCOD8316343 Si02
#       6
#    16  16   8  16  16   8
#     4   8  13  22  36  55  80 104 120 137 169 220
#     4  11  23  37  50  61  73  97 132 173 227 272
#     4   9  17  25  37  57  77  98 121 149 190 238
#     4   9  17  30  45  58  76  98 118 150 197 247
#     4   8  14  23  38  60  81  99 118 140 171 221
#     4  11  23  35  47  63  78  93 127 179 223 265
#
# _framework density 13.832684
#
# number of rings (size 3 to 8) (size 9 to 14) (size 15 to 20)
#    0.000    2.800    1.000    2.400    2.800    3.400 
#    0.000    2.000    0.000    0.000    0.000    0.000 
#    0.000    0.000    0.000    0.000    0.000    0.000 
#
# Total GULP energy -991149.829491 kJ/mol
# GULP energy per Si atom -12389.372869 kJ/mol
# Density = 1.380120 g / cm^3
# Si number density = 13.832684 Si / 1000 Ang^3
#
#
#
# Elastic Constant Matrix: (Units=GPa)
#
#
# Indices 1 2 3 4 5 6 
#
# 1 73.7222 20.3560 42.6422 0.0000 0.0000 0.0000
# 2 20.3560 73.7222 42.6422 0.0000 0.0000 0.0000
# 3 42.6422 42.6422 106.2238 0.0000 0.0000 0.0000
# 4 0.0000 0.0000 0.0000 15.6027 0.0000 0.0000
# 5 0.0000 0.0000 0.0000 0.0000 15.6027 0.0000
# 6 0.0000 0.0000 0.0000 0.0000 0.0000 -0.1624
#
#
#
# Elastic Compliance Matrix: (Units=1/GPa)
#
#
# Indices 1 2 3 4 5 6 
#
# 1 0.017725 -0.001014 -0.006708 0.000000 0.000000 0.000000
# 2 -0.001014 0.017725 -0.006708 0.000000 0.000000 0.000000
# 3 -0.006708 -0.006708 0.014800 0.000000 0.000000 0.000000
# 4 0.000000 0.000000 0.000000 0.064092 0.000000 0.000000
# 5 0.000000 0.000000 0.000000 0.000000 0.064092 0.000000
# 6 0.000000 0.000000 0.000000 0.000000 0.000000 -6.157327
#
#
# Mechanical properties :
#
#
# Convention : Reuss Voigt Hill
#
# Bulk Modulus (GPa) = 46.75468 51.66097 49.20783
# Shear Modulus (GPa) = -0.84134 16.07711 7.61789
#
# Velocity S-wave (km/s) = -0.78073 3.41289 2.34928
# Velocity P-wave (km/s) = 5.74985 7.27726 6.55817
#
# Compressibility (1/GPa) = 0.02138823
#
# Stress axis : x y z
#
# Youngs Moduli (GPa) = 56.41884 56.41884 67.56753
#
# Poissons Ratio (x) = 0.05720 0.45326
# Poissons Ratio (y) = 0.05720 0.45326
# Poissons Ratio (z) = 0.37847 0.37847
#
# Static dielectric constant tensor:
#      x y z
#    x 2.643840 0.000000 0.000000 
#    y 0.000000 2.643840 0.000000 
#    z 0.000000 0.000000 3.106120 
# 
# 
# High freq. dielectric constant tensor:
#      x y z
#    x 1.488120 0.000000 0.000000 
#    y 0.000000 1.488120 0.000000 
#    z 0.000000 0.000000 1.543590 
# 
# From -- ./inp_files/7833.got.cif
#   From: 2010.03.12/outbox.cif.g09.slc.cpg/sg131_4_cif.got.tgz:7833.got - 2010.04.06 17:36:35.
