data_PCOD8316823
_publ_section_title
;
Structure prediction by ZEFSAII (Michael W. Deem and Ramdas Pophale) SiO2 
 PCOD8316823
Probable space group: P 42/M C M
;
_chemical_formula_sum "Si O2"
_cell_formula_units_Z 88
_cell_length_a 12.363960
_cell_length_b 12.363960
_cell_length_c 27.533388
_cell_angle_alpha 90.000000
_cell_angle_beta 90.000000
_cell_angle_gamma 90.000000
_cell_volume 4208.960380
_symmetry_space_group_name_H-M "P 42/M C M"
_symmetry_group_IT_number 132
_symmetry_cell_setting 'tetragonal'
loop_
_space_group_symop_operation_xyz
x,y,z
-y,x,1/2+z
-x,-y,z
y,-x,1/2+z
x,-y,1/2-z
-x,y,1/2-z
y,x,-z
-y,-x,-z
-x,-y,-z
y,-x,1/2-z
x,y,-z
-y,x,1/2-z
-x,y,1/2+z
x,-y,1/2+z
-y,-x,z
y,x,z
loop_
_atom_site_type_symbol
_atom_site_label
_atom_site_fract_x
_atom_site_fract_y
_atom_site_fract_z
Si Si1 0.212704 0.392188 0.384883
Si Si2 0.016541 0.319350 0.553485
Si Si3 0.209697 0.386876 0.270431
Si Si4 0.601355 0.219929 0.556095
Si Si5 0.089508 0.089508 0.575578
Si Si6 0.910043 0.910043 0.316523
Si Si7 0.273911 0.000000 0.750000
O O1 0.298507 0.298507 0.398223
O O2 0.097019 0.372375 0.408742
O O3 0.191658 0.399241 0.327759
O O4 0.254082 0.504504 0.407832
O O5 0.037141 0.369146 0.500000
O O6 0.037579 0.191274 0.548716
O O7 0.895678 0.347175 0.570569
O O8 0.250912 0.500000 0.250000
O O9 0.300301 0.300301 0.258315
O O10 0.102124 0.351716 0.240399
O O11 0.562067 0.221218 0.500000
O O12 0.694101 0.305900 0.565181
O O13 0.124942 0.124942 0.629817
O O14 0.000000 0.000000 0.579372
O O15 0.801860 0.959910 0.293809
O O16 0.000000 0.000000 0.313003
#
# Coordination Sequence:
#
# PCOD8316823 Si02
#       7
#    16  16  16  16   8   8   8
#     4  11  24  43  66  93 127 166 215 269 320 385
#     4  11  22  39  63  92 130 172 209 256 318 387
#     4  11  26  45  66  93 128 168 216 272 327 388
#     4  10  23  42  65  95 131 169 213 265 320 381
#     4  11  23  34  55  92 131 170 212 256 311 384
#     4  11  20  35  60  91 127 169 206 262 327 384
#     4  12  20  40  66  92 122 163 211 266 326 388
#
# _framework density 20.907776999999999
#
# number of rings (size 3 to 8) (size 9 to 14) (size 15 to 20)
#    0.000    1.091    2.727    3.273    0.000    9.636 
#    0.000    2.727    0.000    0.000    0.000    0.000 
#    0.000    0.000    0.000    0.000    0.000    0.000 
#
# Total GULP energy -1091182.252336 kJ/mol
# GULP energy per Si atom -12399.798322 kJ/mol
# Density = 2.086019 g / cm^3
# Si number density = 20.907777 Si / 1000 Ang^3
#
#
#
# Elastic Constant Matrix: (Units=GPa)
#
#
# Indices 1 2 3 4 5 6 
#
# 1 129.5036 51.9345 46.5845 0.0000 0.0000 0.0000
# 2 51.9345 129.5036 46.5845 0.0000 0.0000 0.0000
# 3 46.5845 46.5845 87.2913 0.0000 0.0000 0.0000
# 4 0.0000 0.0000 0.0000 32.1027 0.0000 0.0000
# 5 0.0000 0.0000 0.0000 0.0000 32.1027 0.0000
# 6 0.0000 0.0000 0.0000 0.0000 0.0000 1.3617
#
#
#
# Elastic Compliance Matrix: (Units=1/GPa)
#
#
# Indices 1 2 3 4 5 6 
#
# 1 0.010242 -0.002650 -0.004052 0.000000 0.000000 0.000000
# 2 -0.002650 0.010242 -0.004052 0.000000 0.000000 0.000000
# 3 -0.004052 -0.004052 0.015780 0.000000 0.000000 0.000000
# 4 0.000000 0.000000 0.000000 0.031150 0.000000 0.000000
# 5 0.000000 0.000000 0.000000 0.000000 0.031150 0.000000
# 6 0.000000 0.000000 0.000000 0.000000 0.000000 0.734389
#
#
# Mechanical properties :
#
#
# Convention : Reuss Voigt Hill
#
# Bulk Modulus (GPa) = 67.76020 70.72281 69.24150
# Shear Modulus (GPa) = 5.81816 26.52639 16.17228
#
# Velocity S-wave (km/s) = 1.66997 3.56579 2.78421
# Velocity P-wave (km/s) = 6.01647 7.13111 6.59737
#
# Compressibility (1/GPa) = 0.01475793
#
# Stress axis : x y z
#
# Youngs Moduli (GPa) = 97.63823 97.63823 63.37001
#
# Poissons Ratio (x) = 0.25873 0.25675
# Poissons Ratio (y) = 0.25873 0.25675
# Poissons Ratio (z) = 0.39559 0.39559
#
# Static dielectric constant tensor:
#      x y z
#    x 3.995190 0.000000 0.000000 
#    y 0.000000 3.995190 0.000000 
#    z 0.000000 0.000000 4.091680 
# 
# 
# High freq. dielectric constant tensor:
#      x y z
#    x 1.828280 0.000000 0.000000 
#    y 0.000000 1.828280 0.000000 
#    z 0.000000 0.000000 1.816640 
# 
# From -- ./inp_files/10816.got.cif
#   From: 2010.03.12/outbox.cif.g09.slc.cpg/sg132_6_cif.got.tgz:10816.got - 2010.04.06 17:53:44.
