data_PCOD8316693
_publ_section_title
;
Structure prediction by ZEFSAII (Michael W. Deem and Ramdas Pophale) SiO2 
 PCOD8316693
Probable space group: P 42/M C M
;
_chemical_formula_sum "Si O2"
_cell_formula_units_Z 104
_cell_length_a 15.686595
_cell_length_b 15.686595
_cell_length_c 23.649331
_cell_angle_alpha 90.000000
_cell_angle_beta 90.000000
_cell_angle_gamma 90.000000
_cell_volume 5819.373442
_symmetry_space_group_name_H-M "P 42/M C M"
_symmetry_group_IT_number 132
_symmetry_cell_setting 'tetragonal'
loop_
_space_group_symop_operation_xyz
x,y,z
-y,x,1/2+z
-x,-y,z
y,-x,1/2+z
x,-y,1/2-z
-x,y,1/2-z
y,x,-z
-y,-x,-z
-x,-y,-z
y,-x,1/2-z
x,y,-z
-y,x,1/2-z
-x,y,1/2+z
x,-y,1/2+z
-y,-x,z
y,x,z
loop_
_atom_site_type_symbol
_atom_site_label
_atom_site_fract_x
_atom_site_fract_y
_atom_site_fract_z
Si Si1 0.738301 0.400945 0.385456
Si Si2 0.726410 0.983172 0.837151
Si Si3 0.188391 0.326057 0.218978
Si Si4 0.826839 0.310381 0.845648
Si Si5 0.585444 0.723480 0.434451
Si Si6 0.000000 0.136529 0.250000
Si Si7 0.277437 0.864747 0.562494
O O1 0.655858 0.344143 0.397366
O O2 0.765580 0.398687 0.319004
O O3 0.713140 0.493390 0.406857
O O4 0.819726 0.365661 0.419894
O O5 0.680670 0.912517 0.796772
O O6 0.746164 0.943371 0.897791
O O7 0.677627 0.071280 0.848763
O O8 0.810814 0.015692 0.806552
O O9 0.234862 0.234862 0.205011
O O10 0.200288 0.349890 0.284667
O O11 0.785545 0.214455 0.849947
O O12 0.793543 0.364915 0.898118
O O13 0.580153 0.752998 0.500000
O O14 0.632572 0.632572 0.429836
O O15 0.916746 0.083255 0.261854
O O16 0.287659 0.902177 0.500000
O O17 0.202366 0.797635 0.566805
#
# Coordination Sequence:
#
# PCOD8316693 Si02
#       7
#    16  16  16  16  16   8  16
#     4   9  18  34  59  84 104 128 163 213 271 325
#     4  11  18  30  52  76 103 136 178 218 258 312
#     4   9  17  32  54  80 106 134 172 217 265 315
#     4  10  20  34  52  72 103 145 179 213 259 309
#     4  10  22  38  54  76 106 138 174 214 256 310
#     4  11  20  28  46  78 109 132 166 224 277 308
#     4   9  18  32  51  76 106 140 178 219 262 312
#
# _framework density 17.87134
#
# number of rings (size 3 to 8) (size 9 to 14) (size 15 to 20)
#    0.000    2.231    1.538    3.231    0.000    2.462 
#    0.000    3.846    0.000    9.692    0.000    9.692 
#    0.000    0.000    0.000    0.000    0.000    0.000 
#
# Total GULP energy -1288789.166774 kJ/mol
# GULP energy per Si atom -12392.203527 kJ/mol
# Density = 1.783066 g / cm^3
# Si number density = 17.871340 Si / 1000 Ang^3
#
#
#
# Elastic Constant Matrix: (Units=GPa)
#
#
# Indices 1 2 3 4 5 6 
#
# 1 87.5240 23.8695 40.5952 0.0000 0.0000 0.0000
# 2 23.8695 87.5240 40.5952 0.0000 0.0000 0.0000
# 3 40.5952 40.5952 127.2418 0.0000 0.0000 0.0000
# 4 0.0000 0.0000 0.0000 25.9711 0.0000 0.0000
# 5 0.0000 0.0000 0.0000 0.0000 25.9711 0.0000
# 6 0.0000 0.0000 0.0000 0.0000 0.0000 14.8133
#
#
#
# Elastic Compliance Matrix: (Units=1/GPa)
#
#
# Indices 1 2 3 4 5 6 
#
# 1 0.013703 -0.002006 -0.003732 0.000000 0.000000 0.000000
# 2 -0.002006 0.013703 -0.003732 0.000000 0.000000 0.000000
# 3 -0.003732 -0.003732 0.010240 0.000000 0.000000 0.000000
# 4 0.000000 0.000000 0.000000 0.038504 0.000000 0.000000
# 5 0.000000 0.000000 0.000000 0.000000 0.038504 0.000000
# 6 0.000000 0.000000 0.000000 0.000000 0.000000 0.067507
#
#
# Mechanical properties :
#
#
# Convention : Reuss Voigt Hill
#
# Bulk Modulus (GPa) = 53.45538 56.93440 55.19489
# Shear Modulus (GPa) = 24.11517 26.49980 25.30748
#
# Velocity S-wave (km/s) = 3.67737 3.85490 3.76718
# Velocity P-wave (km/s) = 6.92870 7.19311 7.06214
#
# Compressibility (1/GPa) = 0.01870719
#
# Stress axis : x y z
#
# Youngs Moduli (GPa) = 72.97409 72.97409 97.65364
#
# Poissons Ratio (x) = 0.14641 0.36443
# Poissons Ratio (y) = 0.14641 0.36443
# Poissons Ratio (z) = 0.27233 0.27233
#
# Static dielectric constant tensor:
#      x y z
#    x 3.169690 0.000000 0.000000 
#    y 0.000000 3.169690 0.000000 
#    z 0.000000 0.000000 3.594200 
# 
# 
# High freq. dielectric constant tensor:
#      x y z
#    x 1.673480 0.000000 0.000000 
#    y 0.000000 1.673480 0.000000 
#    z 0.000000 0.000000 1.707790 
# 
# From -- ./inp_files/9157.got.cif
#   From: 2010.03.12/outbox.cif.g09.slc.cpg/sg132_5_cif.got.tgz:9157.got - 2010.04.06 17:53:44.
