data_PCOD8316876
_publ_section_title
;
Structure prediction by ZEFSAII (Michael W. Deem and Ramdas Pophale) SiO2 
 PCOD8316876
Probable space group: P 42/M C M
;
_chemical_formula_sum "Si O2"
_cell_formula_units_Z 96
_cell_length_a 24.645791
_cell_length_b 24.645791
_cell_length_c 9.723848
_cell_angle_alpha 90.000000
_cell_angle_beta 90.000000
_cell_angle_gamma 90.000000
_cell_volume 5906.411269
_symmetry_space_group_name_H-M "P 42/M C M"
_symmetry_group_IT_number 132
_symmetry_cell_setting 'tetragonal'
loop_
_space_group_symop_operation_xyz
x,y,z
-y,x,1/2+z
-x,-y,z
y,-x,1/2+z
x,-y,1/2-z
-x,y,1/2-z
y,x,-z
-y,-x,-z
-x,-y,-z
y,-x,1/2-z
x,y,-z
-y,x,1/2-z
-x,y,1/2+z
x,-y,1/2+z
-y,-x,z
y,x,z
loop_
_atom_site_type_symbol
_atom_site_label
_atom_site_fract_x
_atom_site_fract_y
_atom_site_fract_z
Si Si1 0.842022 0.157979 0.336216
Si Si2 0.045366 0.196447 0.847103
Si Si3 0.242860 0.757141 0.663396
Si Si4 0.173004 0.342625 0.162040
Si Si5 0.449314 0.763691 0.658874
Si Si6 0.639387 0.448847 0.341167
Si Si7 0.949850 0.324816 0.655773
O O1 0.840080 0.159920 0.500000
O O2 0.825440 0.099977 0.279201
O O3 0.799685 0.200315 0.278451
O O4 0.045335 0.260766 0.849719
O O5 0.000000 0.171786 0.750000
O O6 0.036869 0.173317 0.000000
O O7 0.247443 0.752558 0.500000
O O8 0.299961 0.781685 0.721164
O O9 0.196008 0.401268 0.200901
O O10 0.110594 0.338265 0.218081
O O11 0.169077 0.332364 0.000000
O O12 0.500000 0.781423 0.750000
O O13 0.465208 0.770693 0.500000
O O14 0.432210 0.701521 0.689335
O O15 0.621367 0.500000 0.250000
O O16 0.631442 0.465115 0.500000
O O17 0.602572 0.397429 0.301181
O O18 0.956007 0.348493 0.500000
O O19 0.000000 0.347888 0.750000
#
# Coordination Sequence:
#
# PCOD8316876 Si02
#       7
#     8  16   8  16  16  16  16
#     4   9  14  24  41  62  90 115 140 177 221 268
#     4   9  16  26  41  61  85 114 145 176 215 263
#     4   9  14  22  40  71  98 114 138 183 232 265
#     4   9  16  26  45  71  95 117 148 188 225 263
#     4   9  18  32  49  69  92 120 152 187 224 266
#     4   9  18  31  46  66  91 118 150 187 226 267
#     4   9  16  27  43  66  93 118 144 177 218 266
#
# _framework density 16.253525
#
# number of rings (size 3 to 8) (size 9 to 14) (size 15 to 20)
#    0.000    3.000    1.667    0.000    1.167    0.500 
#    0.000    2.083    0.000    0.750    0.000    7.000 
#    0.000    0.000    0.000    0.000    0.000    0.000 
#
# Total GULP energy -1189378.585734 kJ/mol
# GULP energy per Si atom -12389.360268 kJ/mol
# Density = 1.621653 g / cm^3
# Si number density = 16.253525 Si / 1000 Ang^3
#
#
#
# Elastic Constant Matrix: (Units=GPa)
#
#
# Indices 1 2 3 4 5 6 
#
# 1 98.8918 44.0954 31.5964 0.0000 0.0000 0.0000
# 2 44.0954 98.8927 31.5966 0.0000 0.0000 0.0000
# 3 31.5964 31.5966 39.7607 0.0000 0.0000 0.0000
# 4 0.0000 0.0000 0.0000 20.9581 0.0000 0.0000
# 5 0.0000 0.0000 0.0000 0.0000 20.9581 0.0000
# 6 0.0000 0.0000 0.0000 0.0000 0.0000 23.1140
#
#
#
# Elastic Compliance Matrix: (Units=1/GPa)
#
#
# Indices 1 2 3 4 5 6 
#
# 1 0.014514 -0.003735 -0.008566 0.000000 0.000000 0.000000
# 2 -0.003735 0.014514 -0.008566 0.000000 0.000000 0.000000
# 3 -0.008566 -0.008566 0.038765 0.000000 0.000000 0.000000
# 4 0.000000 0.000000 0.000000 0.047714 0.000000 0.000000
# 5 0.000000 0.000000 0.000000 0.000000 0.047714 0.000000
# 6 0.000000 0.000000 0.000000 0.000000 0.000000 0.043264
#
#
# Mechanical properties :
#
#
# Convention : Reuss Voigt Hill
#
# Bulk Modulus (GPa) = 38.37384 50.23578 44.30481
# Shear Modulus (GPa) = 19.46240 21.68983 20.57611
#
# Velocity S-wave (km/s) = 3.46414 3.65700 3.56188
# Velocity P-wave (km/s) = 6.29771 6.98615 6.65084
#
# Compressibility (1/GPa) = 0.02605942
#
# Stress axis : x y z
#
# Youngs Moduli (GPa) = 68.89742 68.89793 25.79671
#
# Poissons Ratio (x) = 0.25733 0.22097
# Poissons Ratio (y) = 0.25733 0.22097
# Poissons Ratio (z) = 0.59017 0.59018
#
# Static dielectric constant tensor:
#      x y z
#    x 3.109640 0.000000 0.000000 
#    y 0.000000 3.109640 0.000000 
#    z 0.000000 0.000000 2.931460 
# 
# 
# High freq. dielectric constant tensor:
#      x y z
#    x 1.619220 0.000000 0.000000 
#    y 0.000000 1.619220 0.000000 
#    z 0.000000 0.000000 1.587440 
# 
# From -- ./inp_files/3523.got.cif
#   From: 2010.03.12/outbox.cif.g09.slc.cpg/sg132_2_cif.got.tgz:3523.got - 2010.04.06 17:53:44.
