data_PCOD8316277
_publ_section_title
;
Structure prediction by ZEFSAII (Michael W. Deem and Ramdas Pophale) SiO2 
 PCOD8316277
Probable space group: P 42/M M C
;
_chemical_formula_sum "Si O2"
_cell_formula_units_Z 48
_cell_length_a 8.193549
_cell_length_b 8.193549
_cell_length_c 34.423697
_cell_angle_alpha 90.000000
_cell_angle_beta 90.000000
_cell_angle_gamma 90.000000
_cell_volume 2311.008916
_symmetry_space_group_name_H-M "P 42/M M C"
_symmetry_group_IT_number 131
_symmetry_cell_setting 'tetragonal'
loop_
_space_group_symop_operation_xyz
x,y,z
-x,-y,z
-y,x,1/2+z
y,-x,1/2+z
-x,y,-z
x,-y,-z
y,x,1/2-z
-y,-x,1/2-z
-x,-y,-z
x,y,-z
y,-x,1/2-z
-y,x,1/2-z
x,-y,z
-x,y,z
-y,-x,1/2+z
y,x,1/2+z
loop_
_atom_site_type_symbol
_atom_site_label
_atom_site_fract_x
_atom_site_fract_y
_atom_site_fract_z
Si Si1 0.687164 0.685526 0.088772
Si Si2 0.000000 0.190418 0.457020
Si Si3 0.691980 0.819833 0.329886
Si Si4 0.310302 0.689699 0.250000
O O1 0.762004 0.500000 0.081688
O O2 0.500000 0.678124 0.077534
O O3 0.764528 0.829941 0.063700
O O4 0.704995 0.737289 0.133910
O O5 0.000000 0.270897 0.500000
O O6 0.000000 0.000000 0.460909
O O7 0.500000 0.817070 0.323514
O O8 0.771856 0.762635 0.289146
O O9 0.756569 0.000000 0.340056
O O10 0.500000 0.727812 0.248815
#
# Coordination Sequence:
#
# PCOD8316277 Si02
#       4
#    16   8  16   8
#     4  10  21  39  64  91 119 157 203 250 303 360
#     4  11  25  43  63  91 125 159 197 245 305 371
#     4   9  17  31  52  78 110 149 193 241 296 355
#     4   9  16  28  48  73 104 144 190 241 292 345
#
# _framework density 20.770150000000001
#
# number of rings (size 3 to 8) (size 9 to 14) (size 15 to 20)
#    0.000    2.333    0.000    2.500    0.000    8.000 
#    3.000    3.333    0.000    0.000    0.000    0.000 
#    0.000    0.000    0.000    0.000    0.000    0.000 
#
# Total GULP energy -594631.872882 kJ/mol
# GULP energy per Si atom -12388.164018 kJ/mol
# Density = 2.072288 g / cm^3
# Si number density = 20.770150 Si / 1000 Ang^3
#
#
#
# Elastic Constant Matrix: (Units=GPa)
#
#
# Indices 1 2 3 4 5 6 
#
# 1 93.4019 15.0807 49.4166 0.0000 0.0000 0.0000
# 2 15.0807 93.4014 49.4163 0.0000 0.0000 0.0000
# 3 49.4166 49.4163 165.0271 0.0000 0.0000 0.0000
# 4 0.0000 0.0000 0.0000 26.9325 0.0000 0.0000
# 5 0.0000 0.0000 0.0000 0.0000 26.9323 0.0000
# 6 0.0000 0.0000 0.0000 0.0000 0.0000 23.0179
#
#
#
# Elastic Compliance Matrix: (Units=1/GPa)
#
#
# Indices 1 2 3 4 5 6 
#
# 1 0.012722 -0.000046 -0.003796 0.000000 0.000000 0.000000
# 2 -0.000046 0.012722 -0.003796 0.000000 0.000000 0.000000
# 3 -0.003796 -0.003796 0.008333 0.000000 0.000000 0.000000
# 4 0.000000 0.000000 0.000000 0.037130 0.000000 0.000000
# 5 0.000000 0.000000 0.000000 0.000000 0.037130 0.000000
# 6 0.000000 0.000000 0.000000 0.000000 0.000000 0.043444
#
#
# Mechanical properties :
#
#
# Convention : Reuss Voigt Hill
#
# Bulk Modulus (GPa) = 54.04790 64.40640 59.22715
# Shear Modulus (GPa) = 28.91443 31.23767 30.07605
#
# Velocity S-wave (km/s) = 3.73515 3.88231 3.80944
# Velocity P-wave (km/s) = 6.68433 7.15352 6.92290
#
# Compressibility (1/GPa) = 0.01850211
#
# Stress axis : x y z
#
# Youngs Moduli (GPa) = 78.60332 78.60303 120.00627
#
# Poissons Ratio (x) = 0.00360 0.45553
# Poissons Ratio (y) = 0.00360 0.45552
# Poissons Ratio (z) = 0.29837 0.29836
#
# Static dielectric constant tensor:
#      x y z
#    x 3.763310 0.000000 0.000000 
#    y 0.000000 3.763320 0.000000 
#    z 0.000000 0.000000 4.090460 
# 
# 
# High freq. dielectric constant tensor:
#      x y z
#    x 1.797220 0.000000 0.000000 
#    y 0.000000 1.797220 0.000000 
#    z 0.000000 0.000000 1.821940 
# 
# From -- ./inp_files/12873.got.cif
#   From: 2010.03.12/outbox.cif.g09.slc.cpg/sg131_7_cif.got.tgz:12873.got - 2010.04.06 17:36:35.
