data_PCOD8316096
_publ_section_title
;
Structure prediction by ZEFSAII (Michael W. Deem and Ramdas Pophale) SiO2 
 PCOD8316096
Probable space group: P 42/M M C
;
_chemical_formula_sum "Si O2"
_cell_formula_units_Z 120
_cell_length_a 26.866920
_cell_length_b 26.866920
_cell_length_c 9.283921
_cell_angle_alpha 90.000000
_cell_angle_beta 90.000000
_cell_angle_gamma 90.000000
_cell_volume 6701.425603
_symmetry_space_group_name_H-M "P 42/M M C"
_symmetry_group_IT_number 131
_symmetry_cell_setting 'tetragonal'
loop_
_space_group_symop_operation_xyz
x,y,z
-x,-y,z
-y,x,1/2+z
y,-x,1/2+z
-x,y,-z
x,-y,-z
y,x,1/2-z
-y,-x,1/2-z
-x,-y,-z
x,y,-z
y,-x,1/2-z
-y,x,1/2-z
x,-y,z
-x,y,z
-y,-x,1/2+z
y,x,1/2+z
loop_
_atom_site_type_symbol
_atom_site_label
_atom_site_fract_x
_atom_site_fract_y
_atom_site_fract_z
Si Si1 0.373147 0.559010 0.335570
Si Si2 0.442967 0.182467 0.165196
Si Si3 0.000000 0.558528 0.840043
Si Si4 0.278386 0.559063 0.161933
Si Si5 0.611180 0.081888 0.835414
Si Si6 0.868305 0.201450 0.832397
Si Si7 0.058109 0.725098 0.331190
Si Si8 0.884498 0.053237 0.660524
O O1 0.420760 0.579241 0.250000
O O2 0.373404 0.578065 0.500000
O O3 0.375731 0.500000 0.329728
O O4 0.323857 0.579941 0.256840
O O5 0.500000 0.166599 0.202407
O O6 0.423941 0.227118 0.265249
O O7 0.403952 0.138623 0.195390
O O8 0.440361 0.200272 0.000000
O O9 0.950677 0.575891 0.761968
O O10 0.000000 0.500000 0.843300
O O11 0.000000 0.581066 0.000000
O O12 0.281212 0.500000 0.158860
O O13 0.281324 0.580841 0.000000
O O14 0.668048 0.070655 0.797474
O O15 0.600282 0.067661 0.000000
O O16 0.817301 0.182700 0.750000
O O17 0.898471 0.246063 0.755543
O O18 0.906515 0.157279 0.821134
O O19 0.855857 0.214745 0.000000
O O20 0.064140 0.737537 0.500000
O O21 0.000000 0.736023 0.284174
O O22 0.933085 0.066916 0.750000
O O23 0.903980 0.050140 0.500000
O O24 0.863079 0.000000 0.712746
#
# Coordination Sequence:
#
# PCOD8316096 Si02
#       8
#    16  16   8  16  16  16  16  16
#     4  10  20  33  50  73 103 139 179 223 272 332
#     4   9  17  30  51  77 102 133 176 221 263 310
#     4  11  23  35  49  75 113 151 187 229 270 313
#     4   9  17  30  49  72  99 131 168 213 263 312
#     4  10  20  36  55  77 107 146 187 222 264 322
#     4  10  20  35  55  77  99 127 166 212 264 316
#     4  10  20  35  55  80 110 142 179 223 268 320
#     4   9  18  31  45  64  91 120 152 188 227 279
#
# _framework density 17.906638000000001
#
# number of rings (size 3 to 8) (size 9 to 14) (size 15 to 20)
#    0.000    2.333    0.667    2.200    0.000    6.400 
#    0.000    2.667    0.000    0.800    0.000    3.733 
#    0.000    0.000    0.000    0.000    0.000    0.000 
#
# Total GULP energy -1487187.836414 kJ/mol
# GULP energy per Si atom -12393.231970 kJ/mol
# Density = 1.786588 g / cm^3
# Si number density = 17.906638 Si / 1000 Ang^3
#
#
#
# Elastic Constant Matrix: (Units=GPa)
#
#
# Indices 1 2 3 4 5 6 
#
# 1 64.1543 33.2274 49.2032 0.0000 0.0000 0.0000
# 2 33.2274 64.1624 49.2053 0.0000 0.0000 0.0000
# 3 49.2032 49.2053 114.9889 0.0000 0.0000 0.0000
# 4 0.0000 0.0000 0.0000 26.3643 0.0000 0.0000
# 5 0.0000 0.0000 0.0000 0.0000 26.3642 0.0000
# 6 0.0000 0.0000 0.0000 0.0000 0.0000 12.4292
#
#
#
# Elastic Compliance Matrix: (Units=1/GPa)
#
#
# Indices 1 2 3 4 5 6 
#
# 1 0.025212 -0.007120 -0.007742 0.000000 0.000000 0.000000
# 2 -0.007120 0.025209 -0.007741 0.000000 0.000000 0.000000
# 3 -0.007742 -0.007741 0.015321 0.000000 0.000000 0.000000
# 4 0.000000 0.000000 0.000000 0.037930 0.000000 0.000000
# 5 0.000000 0.000000 0.000000 0.000000 0.037930 0.000000
# 6 0.000000 0.000000 0.000000 0.000000 0.000000 0.080456
#
#
# Mechanical properties :
#
#
# Convention : Reuss Voigt Hill
#
# Bulk Modulus (GPa) = 48.68889 56.28639 52.48764
# Shear Modulus (GPa) = 18.24093 20.47618 19.35856
#
# Velocity S-wave (km/s) = 3.19512 3.38523 3.29155
# Velocity P-wave (km/s) = 6.39227 6.83968 6.61976
#
# Compressibility (1/GPa) = 0.02053857
#
# Stress axis : x y z
#
# Youngs Moduli (GPa) = 39.66310 39.66893 65.26796
#
# Poissons Ratio (x) = 0.28243 0.50528
# Poissons Ratio (y) = 0.28238 0.50522
# Poissons Ratio (z) = 0.30706 0.30706
#
# Static dielectric constant tensor:
#      x y z
#    x 3.719280 0.000000 0.000000 
#    y 0.000000 3.719180 0.000000 
#    z 0.000000 0.000000 3.598110 
# 
# 
# High freq. dielectric constant tensor:
#      x y z
#    x 1.678930 0.000000 0.000000 
#    y 0.000000 1.678930 0.000000 
#    z 0.000000 0.000000 1.702790 
# 
# From -- ./inp_files/2696.got.cif
#   From: 2010.03.12/outbox.cif.g09.slc.cpg/sg131_2_cif.got.tgz:2696.got - 2010.04.06 17:36:35.
