data_PCOD8316201
_publ_section_title
;
Structure prediction by ZEFSAII (Michael W. Deem and Ramdas Pophale) SiO2 
 PCOD8316201
Probable space group: P 42/M M C
;
_chemical_formula_sum "Si O2"
_cell_formula_units_Z 104
_cell_length_a 17.129068
_cell_length_b 17.129068
_cell_length_c 19.734339
_cell_angle_alpha 90.000000
_cell_angle_beta 90.000000
_cell_angle_gamma 90.000000
_cell_volume 5790.153153
_symmetry_space_group_name_H-M "P 42/M M C"
_symmetry_group_IT_number 131
_symmetry_cell_setting 'tetragonal'
loop_
_space_group_symop_operation_xyz
x,y,z
-x,-y,z
-y,x,1/2+z
y,-x,1/2+z
-x,y,-z
x,-y,-z
y,x,1/2-z
-y,-x,1/2-z
-x,-y,-z
x,y,-z
y,-x,1/2-z
-y,x,1/2-z
x,-y,z
-x,y,z
-y,-x,1/2+z
y,x,1/2+z
loop_
_atom_site_type_symbol
_atom_site_label
_atom_site_fract_x
_atom_site_fract_y
_atom_site_fract_z
Si Si1 0.824251 0.090080 0.811715
Si Si2 0.592630 0.326774 0.185881
Si Si3 0.311918 0.811040 0.776350
Si Si4 0.172627 0.091875 0.420770
Si Si5 0.849605 0.667779 0.870151
Si Si6 0.307945 0.590469 0.078962
Si Si7 0.583712 0.000000 0.578863
O O1 0.867601 0.132399 0.750000
O O2 0.736897 0.126748 0.821266
O O3 0.875994 0.097383 0.880225
O O4 0.814605 0.000000 0.793396
O O5 0.628515 0.371486 0.250000
O O6 0.500000 0.328795 0.190217
O O7 0.620528 0.235458 0.182822
O O8 0.619875 0.370906 0.118197
O O9 0.254943 0.745058 0.750000
O O10 0.347420 0.853569 0.710256
O O11 0.162271 0.109147 0.500000
O O12 0.241287 0.143934 0.388514
O O13 0.185832 0.000000 0.407779
O O14 0.771310 0.633902 0.901716
O O15 0.923089 0.628709 0.903275
O O16 0.299778 0.500000 0.099393
O O17 0.325093 0.600494 0.000000
O O18 0.500000 0.000000 0.615934
O O19 0.571634 0.000000 0.500000
#
# Coordination Sequence:
#
# PCOD8316201 Si02
#       7
#    16  16  16  16  16  16   8
#     4  11  22  37  58  80 109 148 190 236 285 339
#     4  11  22  39  61  83 111 150 194 237 285 343
#     4  10  20  37  58  81 106 137 193 241 272 324
#     4  11  22  35  54  81 112 149 190 230 278 336
#     4  12  20  36  58  80 114 156 195 233 278 336
#     4  11  23  37  56  85 119 152 187 233 286 340
#     4  11  24  36  52  84 121 157 192 229 281 349
#
# _framework density 17.961528999999999
#
# number of rings (size 3 to 8) (size 9 to 14) (size 15 to 20)
#    0.000    1.000    6.923    2.769    1.077    4.615 
#    0.000    1.538    0.000    0.000    0.000    0.000 
#    0.000    0.000    0.000    6.000    0.000    0.000 
#
# Total GULP energy -1289393.047557 kJ/mol
# GULP energy per Si atom -12398.010073 kJ/mol
# Density = 1.792065 g / cm^3
# Si number density = 17.961529 Si / 1000 Ang^3
#
#
#
# Elastic Constant Matrix: (Units=GPa)
#
#
# Indices 1 2 3 4 5 6 
#
# 1 91.6655 60.4452 32.5265 0.0000 0.0000 0.0000
# 2 60.4452 91.6672 32.5285 0.0000 0.0000 0.0000
# 3 32.5265 32.5285 91.5672 0.0000 0.0000 0.0000
# 4 0.0000 0.0000 0.0000 30.5751 0.0000 0.0000
# 5 0.0000 0.0000 0.0000 0.0000 30.5752 0.0000
# 6 0.0000 0.0000 0.0000 0.0000 0.0000 -5.2684
#
#
#
# Elastic Compliance Matrix: (Units=1/GPa)
#
#
# Indices 1 2 3 4 5 6 
#
# 1 0.019891 -0.012139 -0.002753 0.000000 0.000000 0.000000
# 2 -0.012139 0.019891 -0.002754 0.000000 0.000000 0.000000
# 3 -0.002753 -0.002754 0.012877 0.000000 0.000000 0.000000
# 4 0.000000 0.000000 0.000000 0.032706 0.000000 0.000000
# 5 0.000000 0.000000 0.000000 0.000000 0.032706 0.000000
# 6 0.000000 0.000000 0.000000 0.000000 0.000000 -0.189809
#
#
# Mechanical properties :
#
#
# Convention : Reuss Voigt Hill
#
# Bulk Modulus (GPa) = 57.58305 58.43337 58.00821
# Shear Modulus (GPa) = -163.09700 21.13635 -70.98032
#
# Velocity S-wave (km/s) = -9.53943 3.43411 -6.29315
# Velocity P-wave (km/s) = 9.44487 6.95178 4.52096
#
# Compressibility (1/GPa) = 0.01736622
#
# Stress axis : x y z
#
# Youngs Moduli (GPa) = 50.27465 50.27485 77.65587
#
# Poissons Ratio (x) = 0.61028 0.21381
# Poissons Ratio (y) = 0.61028 0.21387
# Poissons Ratio (z) = 0.13842 0.13846
#
# Static dielectric constant tensor:
#      x y z
#    x 3.215960 0.000000 0.000000 
#    y 0.000000 3.217710 0.000000 
#    z 0.000000 0.000000 2.462150 
# 
# 
# High freq. dielectric constant tensor:
#      x y z
#    x 1.694070 0.000000 0.000000 
#    y 0.000000 1.694070 0.000000 
#    z 0.000000 0.000000 1.688550 
# 
# From -- ./inp_files/8086.got.cif
#   From: 2010.03.12/outbox.cif.g09.slc.cpg/sg131_5_cif.got.tgz:8086.got - 2010.04.06 17:36:35.
