data_PCOD8316713
_publ_section_title
;
Structure prediction by ZEFSAII (Michael W. Deem and Ramdas Pophale) SiO2 
 PCOD8316713
Probable space group: P 42/M C M
;
_chemical_formula_sum "Si O2"
_cell_formula_units_Z 96
_cell_length_a 18.443074
_cell_length_b 18.443074
_cell_length_c 17.744195
_cell_angle_alpha 90.000000
_cell_angle_beta 90.000000
_cell_angle_gamma 90.000000
_cell_volume 6035.634316
_symmetry_space_group_name_H-M "P 42/M C M"
_symmetry_group_IT_number 132
_symmetry_cell_setting 'tetragonal'
loop_
_space_group_symop_operation_xyz
x,y,z
-y,x,1/2+z
-x,-y,z
y,-x,1/2+z
x,-y,1/2-z
-x,y,1/2-z
y,x,-z
-y,-x,-z
-x,-y,-z
y,-x,1/2-z
x,y,-z
-y,x,1/2-z
-x,y,1/2+z
x,-y,1/2+z
-y,-x,z
y,x,z
loop_
_atom_site_type_symbol
_atom_site_label
_atom_site_fract_x
_atom_site_fract_y
_atom_site_fract_z
Si Si1 0.028171 0.577664 0.668397
Si Si2 0.721313 0.840467 0.299988
Si Si3 0.656345 0.774694 0.081557
Si Si4 0.713673 0.970258 0.412041
Si Si5 0.422640 0.811819 0.718020
Si Si6 0.113842 0.229173 0.859540
O O1 0.113410 0.569797 0.673462
O O2 0.000000 0.500000 0.642906
O O3 0.000000 0.602957 0.750000
O O4 0.002793 0.634903 0.606644
O O5 0.768658 0.768658 0.316214
O O6 0.726122 0.893751 0.370999
O O7 0.638089 0.815682 0.283947
O O8 0.752885 0.884154 0.228973
O O9 0.703475 0.703475 0.077033
O O10 0.600543 0.758826 0.149809
O O11 0.706937 0.844125 0.097579
O O12 0.617895 0.787013 0.000000
O O13 0.720280 0.954493 0.500000
O O14 0.773389 0.030445 0.387017
O O15 0.500000 0.786230 0.750000
O O16 0.151578 0.151578 0.876142
#
# Coordination Sequence:
#
# PCOD8316713 Si02
#       6
#    16  16  16  16  16  16
#     4  11  18  31  46  63  95 132 164 199 228 276
#     4  10  20  35  51  66  91 131 168 198 240 297
#     4   9  17  29  46  71 101 126 154 202 255 293
#     4  12  21  30  47  69  96 126 162 205 245 291
#     4  11  18  29  51  71  97 130 165 199 236 286
#     4   9  17  30  51  72  89 117 161 208 249 291
#
# _framework density 15.905536
#
# number of rings (size 3 to 8) (size 9 to 14) (size 15 to 20)
#    0.000    1.667    6.667    2.500    0.000    1.667 
#    0.000    2.500    0.000    0.500    0.000    3.500 
#    0.000    5.333    0.000    7.333    0.000    0.000 
#
# Total GULP energy -1189914.047439 kJ/mol
# GULP energy per Si atom -12394.937994 kJ/mol
# Density = 1.586933 g / cm^3
# Si number density = 15.905536 Si / 1000 Ang^3
#
#
#
# Elastic Constant Matrix: (Units=GPa)
#
#
# Indices 1 2 3 4 5 6 
#
# 1 73.6297 40.0781 40.1171 0.0000 0.0000 0.0000
# 2 40.0781 73.6297 40.1171 0.0000 0.0000 0.0000
# 3 40.1171 40.1171 114.8156 0.0000 0.0000 0.0000
# 4 0.0000 0.0000 0.0000 -28.3727 0.0000 0.0000
# 5 0.0000 0.0000 0.0000 0.0000 -28.3727 0.0000
# 6 0.0000 0.0000 0.0000 0.0000 0.0000 15.4096
#
#
#
# Elastic Compliance Matrix: (Units=1/GPa)
#
#
# Indices 1 2 3 4 5 6 
#
# 1 0.020738 -0.009066 -0.004078 0.000000 0.000000 0.000000
# 2 -0.009066 0.020738 -0.004078 0.000000 0.000000 0.000000
# 3 -0.004078 -0.004078 0.011560 0.000000 0.000000 0.000000
# 4 0.000000 0.000000 0.000000 -0.035245 0.000000 0.000000
# 5 0.000000 0.000000 0.000000 0.000000 -0.035245 0.000000
# 6 0.000000 0.000000 0.000000 0.000000 0.000000 0.064895
#
#
# Mechanical properties :
#
#
# Convention : Reuss Voigt Hill
#
# Bulk Modulus (GPa) = 53.79032 55.85552 54.82292
# Shear Modulus (GPa) = 56.76415 1.18370 28.97392
#
# Velocity S-wave (km/s) = 5.98045 0.86361 4.27268
# Velocity P-wave (km/s) = 9.03215 6.01562 7.67357
#
# Compressibility (1/GPa) = 0.01859070
#
# Stress axis : x y z
#
# Youngs Moduli (GPa) = 48.21951 48.21951 86.50833
#
# Poissons Ratio (x) = 0.43717 0.35281
# Poissons Ratio (y) = 0.43717 0.35281
# Poissons Ratio (z) = 0.19665 0.19665
#
# Static dielectric constant tensor:
#      x y z
#    x 2.352580 0.000000 0.000000 
#    y 0.000000 2.352580 0.000000 
#    z 0.000000 0.000000 3.256790 
# 
# 
# High freq. dielectric constant tensor:
#      x y z
#    x 1.587790 0.000000 0.000000 
#    y 0.000000 1.587790 0.000000 
#    z 0.000000 0.000000 1.610860 
# 
# From -- ./inp_files/6449.got.cif
#   From: 2010.03.12/outbox.cif.g09.slc.cpg/sg132_4_cif.got.tgz:6449.got - 2010.04.06 17:53:44.
