data_PCOD8316231
_publ_section_title
;
Structure prediction by ZEFSAII (Michael W. Deem and Ramdas Pophale) SiO2 
 PCOD8316231
Probable space group: P 42/M M C
;
_chemical_formula_sum "Si O2"
_cell_formula_units_Z 64
_cell_length_a 13.558412
_cell_length_b 13.558412
_cell_length_c 19.627530
_cell_angle_alpha 90.000000
_cell_angle_beta 90.000000
_cell_angle_gamma 90.000000
_cell_volume 3608.139360
_symmetry_space_group_name_H-M "P 42/M M C"
_symmetry_group_IT_number 131
_symmetry_cell_setting 'tetragonal'
loop_
_space_group_symop_operation_xyz
x,y,z
-x,-y,z
-y,x,1/2+z
y,-x,1/2+z
-x,y,-z
x,-y,-z
y,x,1/2-z
-y,-x,1/2-z
-x,-y,-z
x,y,-z
y,-x,1/2-z
-y,x,1/2-z
x,-y,z
-x,y,z
-y,-x,1/2+z
y,x,1/2+z
loop_
_atom_site_type_symbol
_atom_site_label
_atom_site_fract_x
_atom_site_fract_y
_atom_site_fract_z
Si Si1 0.764868 0.109728 0.156040
Si Si2 0.286979 0.890580 0.688626
Si Si3 0.694440 0.614111 0.820383
Si Si4 0.235538 0.387243 0.421534
O O1 0.716337 0.108573 0.230136
O O2 0.859614 0.181490 0.156236
O O3 0.682105 0.147109 0.103768
O O4 0.799073 0.000000 0.134478
O O5 0.369682 0.811359 0.666183
O O6 0.314008 0.000000 0.661271
O O7 0.666603 0.666603 0.750000
O O8 0.667547 0.500000 0.817814
O O9 0.632631 0.663522 0.880777
O O10 0.257511 0.364362 0.500000
O O11 0.202557 0.500000 0.410372
#
# Coordination Sequence:
#
# PCOD8316231 Si02
#       4
#    16  16  16  16
#     4   9  17  31  51  77 108 140 173 210 256 310
#     4   9  17  32  53  79 107 134 170 216 262 307
#     4  11  21  35  54  77 104 136 178 224 269 314
#     4  10  21  36  52  75 109 144 178 217 263 316
#
# _framework density 17.737673000000001
#
# number of rings (size 3 to 8) (size 9 to 14) (size 15 to 20)
#    0.000    2.250    5.000    0.750    0.000    4.250 
#    0.000    7.500    0.000   12.000    0.000   14.000 
#    0.000    0.000    0.000    0.000    0.000    0.000 
#
# Total GULP energy -793438.963614 kJ/mol
# GULP energy per Si atom -12397.483806 kJ/mol
# Density = 1.769730 g / cm^3
# Si number density = 17.737673 Si / 1000 Ang^3
#
#
#
# Elastic Constant Matrix: (Units=GPa)
#
#
# Indices 1 2 3 4 5 6 
#
# 1 104.0421 17.8927 40.7202 0.0000 0.0000 0.0000
# 2 17.8927 104.0421 40.7202 0.0000 0.0000 0.0000
# 3 40.7202 40.7202 87.5825 0.0000 0.0000 0.0000
# 4 0.0000 0.0000 0.0000 14.7026 0.0000 0.0000
# 5 0.0000 0.0000 0.0000 0.0000 14.7026 0.0000
# 6 0.0000 0.0000 0.0000 0.0000 0.0000 10.8757
#
#
#
# Elastic Compliance Matrix: (Units=1/GPa)
#
#
# Indices 1 2 3 4 5 6 
#
# 1 0.011751 0.000144 -0.005530 0.000000 0.000000 0.000000
# 2 0.000144 0.011751 -0.005530 0.000000 0.000000 0.000000
# 3 -0.005530 -0.005530 0.016560 0.000000 0.000000 0.000000
# 4 0.000000 0.000000 0.000000 0.068015 0.000000 0.000000
# 5 0.000000 0.000000 0.000000 0.000000 0.068015 0.000000
# 6 0.000000 0.000000 0.000000 0.000000 0.000000 0.091948
#
#
# Mechanical properties :
#
#
# Convention : Reuss Voigt Hill
#
# Bulk Modulus (GPa) = 54.85872 54.92586 54.89229
# Shear Modulus (GPa) = 16.89464 21.14508 19.01986
#
# Velocity S-wave (km/s) = 3.08956 3.45643 3.27813
# Velocity P-wave (km/s) = 6.61227 6.85289 6.73365
#
# Compressibility (1/GPa) = 0.01822864
#
# Stress axis : x y z
#
# Youngs Moduli (GPa) = 85.09715 85.09715 60.38542
#
# Poissons Ratio (x) = -0.01221 0.33395
# Poissons Ratio (y) = -0.01221 0.33395
# Poissons Ratio (z) = 0.47061 0.47061
#
# Static dielectric constant tensor:
#      x y z
#    x 3.401460 0.000000 0.000000 
#    y 0.000000 3.401460 0.000000 
#    z 0.000000 0.000000 3.091460 
# 
# 
# High freq. dielectric constant tensor:
#      x y z
#    x 1.683890 0.000000 0.000000 
#    y 0.000000 1.683890 0.000000 
#    z 0.000000 0.000000 1.661050 
# 
# From -- ./inp_files/7315.got.cif
#   From: 2010.03.12/outbox.cif.g09.slc.cpg/sg131_4_cif.got.tgz:7315.got - 2010.04.06 17:36:35.
