data_PCOD8316853
_publ_section_title
;
Structure prediction by ZEFSAII (Michael W. Deem and Ramdas Pophale) SiO2 
 PCOD8316853
Probable space group: P 42/M C M
;
_chemical_formula_sum "Si O2"
_cell_formula_units_Z 48
_cell_length_a 11.173804
_cell_length_b 11.173804
_cell_length_c 17.789978
_cell_angle_alpha 90.000000
_cell_angle_beta 90.000000
_cell_angle_gamma 90.000000
_cell_volume 2221.148060
_symmetry_space_group_name_H-M "P 42/M C M"
_symmetry_group_IT_number 132
_symmetry_cell_setting 'tetragonal'
loop_
_space_group_symop_operation_xyz
x,y,z
-y,x,1/2+z
-x,-y,z
y,-x,1/2+z
x,-y,1/2-z
-x,y,1/2-z
y,x,-z
-y,-x,-z
-x,-y,-z
y,-x,1/2-z
x,y,-z
-y,x,1/2-z
-x,y,1/2+z
x,-y,1/2+z
-y,-x,z
y,x,z
loop_
_atom_site_type_symbol
_atom_site_label
_atom_site_fract_x
_atom_site_fract_y
_atom_site_fract_z
Si Si1 0.829645 0.170356 0.413222
Si Si2 0.238708 0.569820 0.823429
Si Si3 0.725813 0.073790 0.084887
Si Si4 0.368331 0.631670 0.412978
O O1 0.857059 0.142942 0.500000
O O2 0.730968 0.269033 0.400189
O O3 0.953751 0.218591 0.377199
O O4 0.194768 0.500000 0.750000
O O5 0.315959 0.684042 0.796770
O O6 0.119908 0.611946 0.867759
O O7 0.323439 0.490616 0.876325
O O8 0.825987 0.174014 0.083909
O O9 0.680931 0.046718 0.000000
O O10 0.393665 0.606336 0.500000
#
# Coordination Sequence:
#
# PCOD8316853 Si02
#       4
#     8  16  16   8
#     4   9  19  37  59  89 125 157 198 260 313 364
#     4  11  22  38  61  85 123 166 208 259 315 371
#     4   9  18  35  63  93 121 158 208 258 314 377
#     4  11  23  37  59  89 123 163 210 255 306 372
#
# _framework density 21.610444999999999
#
# number of rings (size 3 to 8) (size 9 to 14) (size 15 to 20)
#    0.000    2.000    1.667    2.000    0.000    6.000 
#    0.000    8.333    0.000    0.000    4.333    0.000 
#    0.000    0.000    0.000    0.167    0.000    0.000 
#
# Total GULP energy -595271.423328 kJ/mol
# GULP energy per Si atom -12401.487986 kJ/mol
# Density = 2.156126 g / cm^3
# Si number density = 21.610445 Si / 1000 Ang^3
#
#
#
# Elastic Constant Matrix: (Units=GPa)
#
#
# Indices 1 2 3 4 5 6 
#
# 1 207.3136 -42.4810 50.3600 0.0000 0.0000 0.0000
# 2 -42.4810 207.3139 50.3585 0.0000 0.0000 0.0000
# 3 50.3600 50.3585 103.6867 0.0000 0.0000 0.0000
# 4 0.0000 0.0000 0.0000 19.4452 0.0000 0.0000
# 5 0.0000 0.0000 0.0000 0.0000 19.4452 0.0000
# 6 0.0000 0.0000 0.0000 0.0000 0.0000 45.5953
#
#
#
# Elastic Compliance Matrix: (Units=1/GPa)
#
#
# Indices 1 2 3 4 5 6 
#
# 1 0.006315 0.002312 -0.004190 0.000000 0.000000 0.000000
# 2 0.002312 0.006315 -0.004190 0.000000 0.000000 0.000000
# 3 -0.004190 -0.004190 0.013715 0.000000 0.000000 0.000000
# 4 0.000000 0.000000 0.000000 0.051426 0.000000 0.000000
# 5 0.000000 0.000000 0.000000 0.000000 0.051427 0.000000
# 6 0.000000 0.000000 0.000000 0.000000 0.000000 0.021932
#
#
# Mechanical properties :
#
#
# Convention : Reuss Voigt Hill
#
# Bulk Modulus (GPa) = 70.38073 70.53214 70.45643
# Shear Modulus (GPa) = 29.76146 47.56892 38.66519
#
# Velocity S-wave (km/s) = 3.71506 4.69678 4.23447
# Velocity P-wave (km/s) = 7.14429 7.88174 7.52206
#
# Compressibility (1/GPa) = 0.01420844
#
# Stress axis : x y z
#
# Youngs Moduli (GPa) = 158.34873 158.35020 72.91539
#
# Poissons Ratio (x) = -0.36608 0.30552
# Poissons Ratio (y) = -0.36608 0.30551
# Poissons Ratio (z) = 0.66349 0.66348
#
# Static dielectric constant tensor:
#      x y z
#    x 3.926800 0.000000 0.000000 
#    y 0.000000 3.926800 0.000000 
#    z 0.000000 0.000000 3.824520 
# 
# 
# High freq. dielectric constant tensor:
#      x y z
#    x 1.853000 0.000000 0.000000 
#    y 0.000000 1.853000 0.000000 
#    z 0.000000 0.000000 1.826990 
# 
# From -- ./inp_files/5711.got.cif
#   From: 2010.03.12/outbox.cif.g09.slc.cpg/sg132_3_cif.got.tgz:5711.got - 2010.04.06 17:53:44.
