data_PCOD8316055
_publ_section_title
;
Structure prediction by ZEFSAII (Michael W. Deem and Ramdas Pophale) SiO2 
 PCOD8316055
Probable space group: P 42/M M C
;
_chemical_formula_sum "Si O2"
_cell_formula_units_Z 112
_cell_length_a 18.601168
_cell_length_b 18.601168
_cell_length_c 18.988364
_cell_angle_alpha 90.000000
_cell_angle_beta 90.000000
_cell_angle_gamma 90.000000
_cell_volume 6570.039472
_symmetry_space_group_name_H-M "P 42/M M C"
_symmetry_group_IT_number 131
_symmetry_cell_setting 'tetragonal'
loop_
_space_group_symop_operation_xyz
x,y,z
-x,-y,z
-y,x,1/2+z
y,-x,1/2+z
-x,y,-z
x,-y,-z
y,x,1/2-z
-y,-x,1/2-z
-x,-y,-z
x,y,-z
y,-x,1/2-z
-y,x,1/2-z
x,-y,z
-x,y,z
-y,-x,1/2+z
y,x,1/2+z
loop_
_atom_site_type_symbol
_atom_site_label
_atom_site_fract_x
_atom_site_fract_y
_atom_site_fract_z
Si Si1 0.416899 0.843500 0.827966
Si Si2 0.920332 0.706136 0.919066
Si Si3 0.419005 0.082393 0.684584
Si Si4 0.664135 0.699068 0.830478
Si Si5 0.919742 0.302645 0.582178
Si Si6 0.417020 0.416540 0.919106
Si Si7 0.780771 0.778833 0.418368
O O1 0.500000 0.853202 0.845522
O O2 0.397874 0.866704 0.748979
O O3 0.395688 0.760738 0.837258
O O4 0.375826 0.895667 0.881112
O O5 0.898523 0.633948 0.878657
O O6 0.863516 0.769472 0.903160
O O7 0.000000 0.733760 0.897183
O O8 0.918402 0.683672 0.000000
O O9 0.500000 0.098004 0.658598
O O10 0.410882 0.000000 0.709201
O O11 0.682254 0.682254 0.750000
O O12 0.634018 0.627893 0.867404
O O13 0.735656 0.724799 0.870385
O O14 0.918956 0.318743 0.500000
O O15 0.863342 0.239358 0.601823
O O16 0.000000 0.279806 0.607028
O O17 0.398888 0.500000 0.907304
O O18 0.500000 0.401349 0.900373
O O19 0.401901 0.394612 0.000000
O O20 0.765548 0.759682 0.500000
#
# Coordination Sequence:
#
# PCOD8316055 Si02
#       7
#    16  16  16  16  16  16  16
#     4  10  20  32  46  68  97 126 155 189 232 279
#     4   9  17  30  49  70  91 120 159 198 233 273
#     4   9  17  29  45  66  95 128 156 186 229 279
#     4  11  21  32  49  72  97 124 157 199 240 280
#     4   9  18  32  50  71  94 123 157 190 227 276
#     4   9  19  36  54  69  89 122 162 200 240 286
#     4   9  18  33  50  69  96 126 155 190 234 283
#
# _framework density 17.047082
#
# number of rings (size 3 to 8) (size 9 to 14) (size 15 to 20)
#    0.000    2.571    0.000    2.571    0.000    3.143 
#    0.000    3.571    0.000    1.286    0.000    3.000 
#    0.000    0.000    0.000    6.857    0.000    9.429 
#
# Total GULP energy -1388687.287225 kJ/mol
# GULP energy per Si atom -12398.993636 kJ/mol
# Density = 1.700828 g / cm^3
# Si number density = 17.047082 Si / 1000 Ang^3
#
#
#
# Elastic Constant Matrix: (Units=GPa)
#
#
# Indices 1 2 3 4 5 6 
#
# 1 105.2474 67.1208 50.3230 0.0000 0.0000 0.0000
# 2 67.1208 105.2474 50.3230 0.0000 0.0000 0.0000
# 3 50.3230 50.3230 68.0992 0.0000 0.0000 0.0000
# 4 0.0000 0.0000 0.0000 24.0081 0.0000 0.0000
# 5 0.0000 0.0000 0.0000 0.0000 24.0081 0.0000
# 6 0.0000 0.0000 0.0000 0.0000 0.0000 20.1810
#
#
#
# Elastic Compliance Matrix: (Units=1/GPa)
#
#
# Indices 1 2 3 4 5 6 
#
# 1 0.018217 -0.008012 -0.007541 0.000000 0.000000 0.000000
# 2 -0.008012 0.018217 -0.007541 0.000000 0.000000 0.000000
# 3 -0.007541 -0.007541 0.025829 0.000000 0.000000 0.000000
# 4 0.000000 0.000000 0.000000 0.041653 0.000000 0.000000
# 5 0.000000 0.000000 0.000000 0.000000 0.041653 0.000000
# 6 0.000000 0.000000 0.000000 0.000000 0.000000 0.049552
#
#
# Mechanical properties :
#
#
# Convention : Reuss Voigt Hill
#
# Bulk Modulus (GPa) = 62.20791 68.23639 65.22215
# Shear Modulus (GPa) = 20.27042 21.02793 20.64917
#
# Velocity S-wave (km/s) = 3.45205 3.51596 3.48415
# Velocity P-wave (km/s) = 7.24292 7.52315 7.38436
#
# Compressibility (1/GPa) = 0.01607513
#
# Stress axis : x y z
#
# Youngs Moduli (GPa) = 54.89522 54.89522 38.71559
#
# Poissons Ratio (x) = 0.43981 0.29195
# Poissons Ratio (y) = 0.43981 0.29195
# Poissons Ratio (z) = 0.41396 0.41396
#
# Static dielectric constant tensor:
#      x y z
#    x 3.237040 0.000000 0.000000 
#    y 0.000000 3.237040 0.000000 
#    z 0.000000 0.000000 3.179290 
# 
# 
# High freq. dielectric constant tensor:
#      x y z
#    x 1.652990 0.000000 0.000000 
#    y 0.000000 1.652990 0.000000 
#    z 0.000000 0.000000 1.659050 
# 
# From -- ./inp_files/10057.got.cif
#   From: 2010.03.12/outbox.cif.g09.slc.cpg/sg131_6_cif.got.tgz:10057.got - 2010.04.06 17:36:35.
