data_PCOD8316700
_publ_section_title
;
Structure prediction by ZEFSAII (Michael W. Deem and Ramdas Pophale) SiO2 
 PCOD8316700
Probable space group: P 42/M C M
;
_chemical_formula_sum "Si O2"
_cell_formula_units_Z 96
_cell_length_a 24.467256
_cell_length_b 24.467256
_cell_length_c 8.707638
_cell_angle_alpha 90.000000
_cell_angle_beta 90.000000
_cell_angle_gamma 90.000000
_cell_volume 5212.798024
_symmetry_space_group_name_H-M "P 42/M C M"
_symmetry_group_IT_number 132
_symmetry_cell_setting 'tetragonal'
loop_
_space_group_symop_operation_xyz
x,y,z
-y,x,1/2+z
-x,-y,z
y,-x,1/2+z
x,-y,1/2-z
-x,y,1/2-z
y,x,-z
-y,-x,-z
-x,-y,-z
y,-x,1/2-z
x,y,-z
-y,x,1/2-z
-x,y,1/2+z
x,-y,1/2+z
-y,-x,z
y,x,z
loop_
_atom_site_type_symbol
_atom_site_label
_atom_site_fract_x
_atom_site_fract_y
_atom_site_fract_z
Si Si1 0.661450 0.661450 0.824272
Si Si2 0.853883 0.941956 0.681835
Si Si3 0.555215 0.819161 0.329354
Si Si4 0.553561 0.309765 0.171765
Si Si5 0.672451 0.163032 0.677645
Si Si6 0.741524 0.258477 0.821583
Si Si7 0.261491 0.943475 0.321616
O O1 0.673540 0.599042 0.792629
O O2 0.695929 0.695929 0.702865
O O3 0.676311 0.676311 0.000000
O O4 0.852407 0.946204 0.500000
O O5 0.896759 0.896759 0.738868
O O6 0.794387 0.924382 0.741395
O O7 0.872091 0.000000 0.750000
O O8 0.500000 0.843319 0.250000
O O9 0.558668 0.844475 0.500000
O O10 0.549352 0.754790 0.339747
O O11 0.611405 0.833014 0.242954
O O12 0.500000 0.334902 0.250000
O O13 0.562670 0.334031 0.000000
O O14 0.669384 0.178746 0.500000
O O15 0.718320 0.202445 0.750943
O O16 0.691980 0.101366 0.705854
O O17 0.751601 0.248400 0.000000
O O18 0.248944 0.952509 0.500000
O O19 0.283240 0.000000 0.250000
#
# Coordination Sequence:
#
# PCOD8316700 Si02
#       7
#     8  16  16  16  16   8  16
#     4  12  22  34  54  77 111 148 180 227 277 328
#     4  10  21  36  55  80 108 143 185 231 280 331
#     4  10  20  34  55  81 113 149 184 224 273 328
#     4  10  20  34  52  76 106 143 186 226 273 328
#     4  11  23  38  57  84 116 149 186 229 279 333
#     4  12  24  36  52  82 117 151 185 225 278 332
#     4  10  22  39  60  83 110 147 188 230 277 330
#
# _framework density 18.416214
#
# number of rings (size 3 to 8) (size 9 to 14) (size 15 to 20)
#    0.000    1.500    1.667    5.000    1.167    5.500 
#    0.000    0.833    0.000    0.750    0.000    5.250 
#    0.000    0.000    0.000    0.000    0.000    0.000 
#
# Total GULP energy -1190258.116665 kJ/mol
# GULP energy per Si atom -12398.522049 kJ/mol
# Density = 1.837430 g / cm^3
# Si number density = 18.416214 Si / 1000 Ang^3
#
#
#
# Elastic Constant Matrix: (Units=GPa)
#
#
# Indices 1 2 3 4 5 6 
#
# 1 86.2575 38.4387 45.6218 0.0000 0.0000 0.0000
# 2 38.4387 86.2573 45.6218 0.0000 0.0000 0.0000
# 3 45.6218 45.6218 137.2774 0.0000 0.0000 0.0000
# 4 0.0000 0.0000 0.0000 21.1431 0.0000 0.0000
# 5 0.0000 0.0000 0.0000 0.0000 21.1431 0.0000
# 6 0.0000 0.0000 0.0000 0.0000 0.0000 21.0697
#
#
#
# Elastic Compliance Matrix: (Units=1/GPa)
#
#
# Indices 1 2 3 4 5 6 
#
# 1 0.015754 -0.005158 -0.003521 0.000000 0.000000 0.000000
# 2 -0.005158 0.015754 -0.003522 0.000000 0.000000 0.000000
# 3 -0.003521 -0.003522 0.009625 0.000000 0.000000 0.000000
# 4 0.000000 0.000000 0.000000 0.047297 0.000000 0.000000
# 5 0.000000 0.000000 0.000000 0.000000 0.047297 0.000000
# 6 0.000000 0.000000 0.000000 0.000000 0.000000 0.047462
#
#
# Mechanical properties :
#
#
# Convention : Reuss Voigt Hill
#
# Bulk Modulus (GPa) = 59.76675 63.23966 61.50321
# Shear Modulus (GPa) = 23.45565 24.67848 24.06706
#
# Velocity S-wave (km/s) = 3.57268 3.66463 3.61895
# Velocity P-wave (km/s) = 7.03865 7.23323 7.13660
#
# Compressibility (1/GPa) = 0.01673171
#
# Stress axis : x y z
#
# Youngs Moduli (GPa) = 63.47479 63.47461 103.89465
#
# Poissons Ratio (x) = 0.32740 0.36586
# Poissons Ratio (y) = 0.32741 0.36587
# Poissons Ratio (z) = 0.22353 0.22353
#
# Static dielectric constant tensor:
#      x y z
#    x 3.357610 0.000000 0.000000 
#    y 0.000000 3.357610 0.000000 
#    z 0.000000 0.000000 3.662240 
# 
# 
# High freq. dielectric constant tensor:
#      x y z
#    x 1.703040 0.000000 0.000000 
#    y 0.000000 1.703040 0.000000 
#    z 0.000000 0.000000 1.736310 
# 
# From -- ./inp_files/1844.got.cif
#   From: 2010.03.12/outbox.cif.g09.slc.cpg/sg132_1_cif.got.tgz:1844.got - 2010.04.06 17:53:44.
