data_PCOD8316103
_publ_section_title
;
Structure prediction by ZEFSAII (Michael W. Deem and Ramdas Pophale) SiO2 
 PCOD8316103
Probable space group: P 42/M M C
;
_chemical_formula_sum "Si O2"
_cell_formula_units_Z 88
_cell_length_a 18.007893
_cell_length_b 18.007893
_cell_length_c 14.934706
_cell_angle_alpha 90.000000
_cell_angle_beta 90.000000
_cell_angle_gamma 90.000000
_cell_volume 4843.089341
_symmetry_space_group_name_H-M "P 42/M M C"
_symmetry_group_IT_number 131
_symmetry_cell_setting 'tetragonal'
loop_
_space_group_symop_operation_xyz
x,y,z
-x,-y,z
-y,x,1/2+z
y,-x,1/2+z
-x,y,-z
x,-y,-z
y,x,1/2-z
-y,-x,1/2-z
-x,-y,-z
x,y,-z
y,-x,1/2-z
-y,x,1/2-z
x,-y,z
-x,y,z
-y,-x,1/2+z
y,x,1/2+z
loop_
_atom_site_type_symbol
_atom_site_label
_atom_site_fract_x
_atom_site_fract_y
_atom_site_fract_z
Si Si1 0.081498 0.711712 0.605855
Si Si2 0.146902 0.166235 0.106625
Si Si3 0.000000 0.914577 0.106877
Si Si4 0.582339 0.296602 0.265732
Si Si5 0.308472 0.774146 0.599611
Si Si6 0.623059 0.782652 0.901553
O O1 0.076561 0.722979 0.500000
O O2 0.116368 0.786773 0.647834
O O3 0.132196 0.639680 0.626626
O O4 0.000000 0.698226 0.647461
O O5 0.070751 0.131276 0.143787
O O6 0.159461 0.253536 0.133959
O O7 0.148643 0.162850 0.000000
O O8 0.000000 0.000000 0.142635
O O9 0.000000 0.916274 0.000000
O O10 0.627347 0.372654 0.250000
O O11 0.500000 0.315996 0.302734
O O12 0.623452 0.239841 0.333008
O O13 0.570481 0.255253 0.171181
O O14 0.340196 0.791587 0.500000
O O15 0.258192 0.701601 0.595387
O O16 0.585192 0.778237 0.000000
#
# Coordination Sequence:
#
# PCOD8316103 Si02
#       6
#    16  16   8  16  16  16
#     4   8  12  20  38  63  90 119 151 188 227 270
#     4   8  13  21  35  59  92 127 161 197 235 277
#     4   9  14  18  30  60 101 135 162 199 247 291
#     4  10  20  33  51  73  95 119 148 186 235 291
#     4   8  15  29  47  66  90 122 163 202 227 263
#     4   8  15  28  46  69  95 121 150 184 226 281
#
# _framework density 18.17022
#
# number of rings (size 3 to 8) (size 9 to 14) (size 15 to 20)
#    0.000    3.545    0.000    2.727    0.000    3.091 
#    0.000    0.000    2.000    0.545    0.000    7.636 
#    0.000    3.636    0.000    0.000    0.000    0.182 
#
# Total GULP energy -1090184.307195 kJ/mol
# GULP energy per Si atom -12388.458036 kJ/mol
# Density = 1.812886 g / cm^3
# Si number density = 18.170220 Si / 1000 Ang^3
#
#
#
# Elastic Constant Matrix: (Units=GPa)
#
#
# Indices 1 2 3 4 5 6 
#
# 1 103.6883 49.1309 30.1582 0.0000 0.0000 0.0000
# 2 49.1309 103.6877 30.1581 0.0000 0.0000 0.0000
# 3 30.1582 30.1581 54.1313 0.0000 0.0000 0.0000
# 4 0.0000 0.0000 0.0000 12.3888 0.0000 0.0000
# 5 0.0000 0.0000 0.0000 0.0000 12.3890 0.0000
# 6 0.0000 0.0000 0.0000 0.0000 0.0000 15.5916
#
#
#
# Elastic Compliance Matrix: (Units=1/GPa)
#
#
# Indices 1 2 3 4 5 6 
#
# 1 0.013359 -0.004971 -0.004673 0.000000 0.000000 0.000000
# 2 -0.004971 0.013359 -0.004673 0.000000 0.000000 0.000000
# 3 -0.004673 -0.004673 0.023681 0.000000 0.000000 0.000000
# 4 0.000000 0.000000 0.000000 0.080718 0.000000 0.000000
# 5 0.000000 0.000000 0.000000 0.000000 0.080717 0.000000
# 6 0.000000 0.000000 0.000000 0.000000 0.000000 0.064137
#
#
# Mechanical properties :
#
#
# Convention : Reuss Voigt Hill
#
# Bulk Modulus (GPa) = 45.94739 53.37798 49.66268
# Shear Modulus (GPa) = 16.03283 18.21120 17.12201
#
# Velocity S-wave (km/s) = 2.97369 3.16928 3.07304
# Velocity P-wave (km/s) = 6.09365 6.54468 6.32319
#
# Compressibility (1/GPa) = 0.02176402
#
# Stress axis : x y z
#
# Youngs Moduli (GPa) = 74.85714 74.85672 42.22812
#
# Poissons Ratio (x) = 0.37208 0.19735
# Poissons Ratio (y) = 0.37208 0.19735
# Poissons Ratio (z) = 0.34983 0.34983
#
# Static dielectric constant tensor:
#      x y z
#    x 3.292290 0.000000 0.000000 
#    y 0.000000 3.292290 0.000000 
#    z 0.000000 0.000000 3.311280 
# 
# 
# High freq. dielectric constant tensor:
#      x y z
#    x 1.680350 0.000000 0.000000 
#    y 0.000000 1.680350 0.000000 
#    z 0.000000 0.000000 1.682170 
# 
# From -- ./inp_files/5858.got.cif
#   From: 2010.03.12/outbox.cif.g09.slc.cpg/sg131_3_cif.got.tgz:5858.got - 2010.04.06 17:36:35.
