data_PCOD8316198
_publ_section_title
;
Structure prediction by ZEFSAII (Michael W. Deem and Ramdas Pophale) SiO2 
 PCOD8316198
Probable space group: P 42/M M C
;
_chemical_formula_sum "Si O2"
_cell_formula_units_Z 88
_cell_length_a 17.516442
_cell_length_b 17.516442
_cell_length_c 14.251195
_cell_angle_alpha 90.000000
_cell_angle_beta 90.000000
_cell_angle_gamma 90.000000
_cell_volume 4372.633457
_symmetry_space_group_name_H-M "P 42/M M C"
_symmetry_group_IT_number 131
_symmetry_cell_setting 'tetragonal'
loop_
_space_group_symop_operation_xyz
x,y,z
-x,-y,z
-y,x,1/2+z
y,-x,1/2+z
-x,y,-z
x,-y,-z
y,x,1/2-z
-y,-x,1/2-z
-x,-y,-z
x,y,-z
y,-x,1/2-z
-y,x,1/2-z
x,-y,z
-x,y,z
-y,-x,1/2+z
y,x,1/2+z
loop_
_atom_site_type_symbol
_atom_site_label
_atom_site_fract_x
_atom_site_fract_y
_atom_site_fract_z
Si Si1 0.284648 0.500000 0.601724
Si Si2 0.500000 0.120515 0.391665
Si Si3 0.085605 0.720901 0.395335
Si Si4 0.341709 0.083875 0.295983
Si Si5 0.500000 0.275214 0.305522
Si Si6 0.660922 0.357701 0.895605
Si Si7 0.791084 0.757420 0.106336
O O1 0.239235 0.500000 0.500000
O O2 0.237232 0.500000 0.699996
O O3 0.339277 0.572340 0.605880
O O4 0.500000 0.094181 0.500000
O O5 0.425029 0.090796 0.339911
O O6 0.500000 0.211242 0.385334
O O7 0.099439 0.686049 0.500000
O O8 0.092820 0.653794 0.317642
O O9 0.151438 0.784126 0.375459
O O10 0.000000 0.757871 0.389978
O O11 0.279228 0.143686 0.330568
O O12 0.310425 0.000000 0.321944
O O13 0.423919 0.324921 0.319514
O O14 0.710302 0.282658 0.869078
O O15 0.684298 0.385971 0.000000
O O16 0.814970 0.740698 0.000000
#
# Coordination Sequence:
#
# PCOD8316198 Si02
#       7
#     8   8  16  16   8  16  16
#     4  10  24  39  53  82 116 145 191 248 292 335
#     4  12  25  40  57  84 120 157 194 241 295 343
#     4   9  20  39  61  87 118 152 194 242 291 346
#     4  11  23  38  60  89 121 158 197 239 288 344
#     4  12  22  36  61  81 110 154 195 236 289 352
#     4  10  21  38  58  83 112 148 194 243 292 342
#     4  10  20  36  62  88 116 153 194 240 291 347
#
# _framework density 20.125171999999999
#
# number of rings (size 3 to 8) (size 9 to 14) (size 15 to 20)
#    0.000    1.636    1.818    2.727    2.545    3.636 
#    0.000    2.727    0.000    2.727    0.000    5.091 
#    0.000    0.000    0.000    0.000    0.000    0.000 
#
# Total GULP energy -1090303.679793 kJ/mol
# GULP energy per Si atom -12389.814543 kJ/mol
# Density = 2.007937 g / cm^3
# Si number density = 20.125172 Si / 1000 Ang^3
#
#
#
# Elastic Constant Matrix: (Units=GPa)
#
#
# Indices 1 2 3 4 5 6 
#
# 1 125.8121 45.6632 53.8332 0.0000 0.0000 0.0000
# 2 45.6632 125.8121 53.8332 0.0000 0.0000 0.0000
# 3 53.8332 53.8332 150.0771 0.0000 0.0000 0.0000
# 4 0.0000 0.0000 0.0000 23.9261 0.0000 0.0000
# 5 0.0000 0.0000 0.0000 0.0000 23.9261 0.0000
# 6 0.0000 0.0000 0.0000 0.0000 0.0000 24.6842
#
#
#
# Elastic Compliance Matrix: (Units=1/GPa)
#
#
# Indices 1 2 3 4 5 6 
#
# 1 0.010002 -0.002475 -0.002700 0.000000 0.000000 0.000000
# 2 -0.002475 0.010002 -0.002700 0.000000 0.000000 0.000000
# 3 -0.002700 -0.002700 0.008600 0.000000 0.000000 0.000000
# 4 0.000000 0.000000 0.000000 0.041795 0.000000 0.000000
# 5 0.000000 0.000000 0.000000 0.000000 0.041795 0.000000
# 6 0.000000 0.000000 0.000000 0.000000 0.000000 0.040512
#
#
# Mechanical properties :
#
#
# Convention : Reuss Voigt Hill
#
# Bulk Modulus (GPa) = 77.79453 78.70669 78.25061
# Shear Modulus (GPa) = 28.94512 31.06542 30.00527
#
# Velocity S-wave (km/s) = 3.79655 3.93314 3.86545
# Velocity P-wave (km/s) = 7.61299 7.73432 7.67389
#
# Compressibility (1/GPa) = 0.01285437
#
# Stress axis : x y z
#
# Youngs Moduli (GPa) = 99.98111 99.98111 116.27621
#
# Poissons Ratio (x) = 0.24744 0.31394
# Poissons Ratio (y) = 0.24744 0.31394
# Poissons Ratio (z) = 0.26995 0.26995
#
# Static dielectric constant tensor:
#      x y z
#    x 3.598320 0.000000 0.000000 
#    y 0.000000 3.598320 0.000000 
#    z 0.000000 0.000000 4.212870 
# 
# 
# High freq. dielectric constant tensor:
#      x y z
#    x 1.766070 0.000000 0.000000 
#    y 0.000000 1.766070 0.000000 
#    z 0.000000 0.000000 1.817030 
# 
# From -- ./inp_files/5932.got.cif
#   From: 2010.03.12/outbox.cif.g09.slc.cpg/sg131_3_cif.got.tgz:5932.got - 2010.04.06 17:36:35.
