data_PCOD8316493
_publ_section_title
;
Structure prediction by ZEFSAII (Michael W. Deem and Ramdas Pophale) SiO2 
 PCOD8316493
Probable space group: P 42/M C M
;
_chemical_formula_sum "Si O2"
_cell_formula_units_Z 52
_cell_length_a 16.465747
_cell_length_b 16.465747
_cell_length_c 10.181036
_cell_angle_alpha 90.000000
_cell_angle_beta 90.000000
_cell_angle_gamma 90.000000
_cell_volume 2760.290872
_symmetry_space_group_name_H-M "P 42/M C M"
_symmetry_group_IT_number 132
_symmetry_cell_setting 'tetragonal'
loop_
_space_group_symop_operation_xyz
x,y,z
-y,x,1/2+z
-x,-y,z
y,-x,1/2+z
x,-y,1/2-z
-x,y,1/2-z
y,x,-z
-y,-x,-z
-x,-y,-z
y,-x,1/2-z
x,y,-z
-y,x,1/2-z
-x,y,1/2+z
x,-y,1/2+z
-y,-x,z
y,x,z
loop_
_atom_site_type_symbol
_atom_site_label
_atom_site_fract_x
_atom_site_fract_y
_atom_site_fract_z
Si Si1 0.503330 0.631733 0.000000
Si Si2 0.258755 0.500000 0.750000
Si Si3 0.500000 0.000000 0.750000
Si Si4 0.791889 0.927623 0.848016
Si Si5 0.384404 0.130940 0.148977
O O1 0.487231 0.685790 0.125527
O O2 0.594474 0.594474 0.000000
O O3 0.440799 0.559202 0.000000
O O4 0.203228 0.580577 0.738544
O O5 0.556976 0.946729 0.843954
O O6 0.858299 0.858299 0.831874
O O7 0.705397 0.891811 0.802148
O O8 0.816152 0.000000 0.750000
O O9 0.787760 0.958056 0.000000
O O10 0.381673 0.162596 0.000000
#
# Coordination Sequence:
#
# PCOD8316493 Si02
#       5
#     8   8   4  16  16
#     4  11  24  42  62  85 120 166 212 257 304 360
#     4  11  22  40  62  91 122 162 204 255 312 360
#     4  10  18  32  64  88 122 156 200 240 300 366
#     4  10  22  41  63  89 122 162 203 249 306 365
#     4  10  20  37  60  91 122 159 197 249 307 366
#
# _framework density 18.838594000000001
#
# number of rings (size 3 to 8) (size 9 to 14) (size 15 to 20)
#    0.000    1.692    3.077    1.385    0.000    4.615 
#    2.769    1.538    0.000    0.000    0.000    0.000 
#    0.000    0.000    0.000    0.000    0.000    0.000 
#
# Total GULP energy -644917.875529 kJ/mol
# GULP energy per Si atom -12402.266837 kJ/mol
# Density = 1.879572 g / cm^3
# Si number density = 18.838594 Si / 1000 Ang^3
#
#
#
# Elastic Constant Matrix: (Units=GPa)
#
#
# Indices 1 2 3 4 5 6 
#
# 1 119.5836 55.5553 53.1880 0.0000 0.0000 0.0000
# 2 55.5553 119.5860 53.1887 0.0000 0.0000 0.0000
# 3 53.1880 53.1887 108.6688 0.0000 0.0000 0.0000
# 4 0.0000 0.0000 0.0000 36.0785 0.0000 0.0000
# 5 0.0000 0.0000 0.0000 0.0000 36.0791 0.0000
# 6 0.0000 0.0000 0.0000 0.0000 0.0000 22.6806
#
#
#
# Elastic Compliance Matrix: (Units=1/GPa)
#
#
# Indices 1 2 3 4 5 6 
#
# 1 0.011872 -0.003746 -0.003977 0.000000 0.000000 0.000000
# 2 -0.003746 0.011871 -0.003977 0.000000 0.000000 0.000000
# 3 -0.003977 -0.003977 0.013095 0.000000 0.000000 0.000000
# 4 0.000000 0.000000 0.000000 0.027717 0.000000 0.000000
# 5 0.000000 0.000000 0.000000 0.000000 0.027717 0.000000
# 6 0.000000 0.000000 0.000000 0.000000 0.000000 0.044091
#
#
# Mechanical properties :
#
#
# Convention : Reuss Voigt Hill
#
# Bulk Modulus (GPa) = 74.41542 74.63358 74.52450
# Shear Modulus (GPa) = 30.44276 31.36141 30.90208
#
# Velocity S-wave (km/s) = 4.02428 4.08455 4.05453
# Velocity P-wave (km/s) = 7.82180 7.87071 7.84629
#
# Compressibility (1/GPa) = 0.01343807
#
# Stress axis : x y z
#
# Youngs Moduli (GPa) = 84.23451 84.23606 76.36326
#
# Poissons Ratio (x) = 0.31557 0.30369
# Poissons Ratio (y) = 0.31557 0.30369
# Poissons Ratio (z) = 0.33499 0.33500
#
# Static dielectric constant tensor:
#      x y z
#    x 3.556330 0.000000 0.000000 
#    y 0.000000 3.556330 0.000000 
#    z 0.000000 0.000000 3.877380 
# 
# 
# High freq. dielectric constant tensor:
#      x y z
#    x 1.737710 0.000000 0.000000 
#    y 0.000000 1.737710 0.000000 
#    z 0.000000 0.000000 1.729700 
# 
# From -- ./inp_files/2917.got.cif
#   From: 2010.03.12/outbox.cif.g09.slc.cpg/sg132_2_cif.got.tgz:2917.got - 2010.04.06 17:53:44.
