data_PCOD8316902
_publ_section_title
;
Structure prediction by ZEFSAII (Michael W. Deem and Ramdas Pophale) SiO2 
 PCOD8316902
Probable space group: P 42/N B C
;
_chemical_formula_sum "Si O2"
_cell_formula_units_Z 112
_cell_length_a 15.289395
_cell_length_b 15.289395
_cell_length_c 25.984555
_cell_angle_alpha 90.000000
_cell_angle_beta 90.000000
_cell_angle_gamma 90.000000
_cell_volume 6074.295076
_symmetry_space_group_name_H-M "P 42/N B C"
_symmetry_group_IT_number 133
_space_group.IT_coordinate_system_code '2'
_symmetry_cell_setting 'tetragonal'
loop_
_space_group_symop_operation_xyz
x,y,z
1/2-y,x,1/2+z
1/2-x,1/2-y,z
y,1/2-x,1/2+z
x,1/2-y,-z
1/2-x,y,-z
y,x,1/2-z
1/2-y,1/2-x,1/2-z
-x,-y,-z
1/2+y,-x,1/2-z
1/2+x,1/2+y,-z
-y,1/2+x,1/2-z
-x,1/2+y,z
1/2+x,-y,z
-y,-x,1/2+z
1/2+y,1/2+x,1/2+z
loop_
_atom_site_type_symbol
_atom_site_label
_atom_site_fract_x
_atom_site_fract_y
_atom_site_fract_z
Si Si1 0.483931 0.005163 0.870563
Si Si2 0.443173 0.850360 0.057952
Si Si3 0.345076 0.934030 0.441266
Si Si4 0.912649 0.249093 0.556773
Si Si5 0.515012 0.299458 0.340602
Si Si6 0.980734 0.628629 0.714291
Si Si7 0.338593 0.657131 0.732390
O O1 0.471795 0.915206 0.901661
O O2 0.498384 0.084964 0.908846
O O3 0.395323 0.029539 0.838862
O O4 0.566176 0.991012 0.834303
O O5 0.466541 0.751365 0.074639
O O6 0.340921 0.864516 0.068498
O O7 0.467767 0.867499 0.998533
O O8 0.343353 0.828375 0.441602
O O9 0.958148 0.250000 0.500000
O O10 0.985438 0.264557 0.600809
O O11 0.465568 0.228658 0.304636
O O12 0.615235 0.311859 0.320371
O O13 0.068387 0.617599 0.747801
O O14 0.898994 0.601007 0.750000
O O15 0.234011 0.645712 0.724624
#
# Coordination Sequence:
#
# PCOD8316902 Si02
#       7
#    16  16  16  16  16  16  16
#     4  11  21  35  56  86 110 149 189 234 285 340
#     4  10  18  35  55  82 117 155 183 228 285 341
#     4   9  20  33  54  85 118 148 190 228 278 349
#     4   9  17  31  53  86 121 145 173 224 295 361
#     4  10  20  36  54  83 116 145 193 231 282 348
#     4  11  21  37  55  80 112 149 189 239 288 337
#     4   9  19  35  55  84 110 141 180 231 290 349
#
# _framework density 18.438355000000001
#
# number of rings (size 3 to 8) (size 9 to 14) (size 15 to 20)
#    0.000    2.143    2.857    0.857    0.000    4.000 
#   10.286    0.000    0.000    0.857    3.714    2.000 
#    0.000    0.000    0.000    0.000    0.000    0.000 
#
# Total GULP energy -1388124.456294 kJ/mol
# GULP energy per Si atom -12393.968360 kJ/mol
# Density = 1.839639 g / cm^3
# Si number density = 18.438355 Si / 1000 Ang^3
#
#
#
# Elastic Constant Matrix: (Units=GPa)
#
#
# Indices 1 2 3 4 5 6 
#
# 1 83.2086 42.8254 30.3776 0.0000 0.0000 0.0000
# 2 42.8254 83.2082 30.3778 0.0000 0.0000 0.0000
# 3 30.3776 30.3778 67.9576 0.0000 0.0000 0.0000
# 4 0.0000 0.0000 0.0000 27.7680 0.0000 0.0000
# 5 0.0000 0.0000 0.0000 0.0000 27.7681 0.0000
# 6 0.0000 0.0000 0.0000 0.0000 0.0000 23.1595
#
#
#
# Elastic Compliance Matrix: (Units=1/GPa)
#
#
# Indices 1 2 3 4 5 6 
#
# 1 0.017438 -0.007325 -0.004521 0.000000 0.000000 0.000000
# 2 -0.007325 0.017438 -0.004521 0.000000 0.000000 0.000000
# 3 -0.004521 -0.004521 0.018757 0.000000 0.000000 0.000000
# 4 0.000000 0.000000 0.000000 0.036013 0.000000 0.000000
# 5 0.000000 0.000000 0.000000 0.000000 0.036013 0.000000
# 6 0.000000 0.000000 0.000000 0.000000 0.000000 0.043179
#
#
# Mechanical properties :
#
#
# Convention : Reuss Voigt Hill
#
# Bulk Modulus (GPa) = 47.84558 49.05957 48.45257
# Shear Modulus (GPa) = 23.97651 24.45868 24.21759
#
# Velocity S-wave (km/s) = 3.60996 3.64608 3.62807
# Velocity P-wave (km/s) = 6.58643 6.66261 6.62463
#
# Compressibility (1/GPa) = 0.02090057
#
# Stress axis : x y z
#
# Youngs Moduli (GPa) = 57.34522 57.34473 53.31383
#
# Poissons Ratio (x) = 0.42003 0.24102
# Poissons Ratio (y) = 0.42003 0.24103
# Poissons Ratio (z) = 0.25925 0.25926
#
# Static dielectric constant tensor:
#      x y z
#    x 3.302240 0.000000 0.000000 
#    y 0.000000 3.302240 0.000000 
#    z 0.000000 0.000000 3.574000 
# 
# 
# High freq. dielectric constant tensor:
#      x y z
#    x 1.694480 0.000000 0.000000 
#    y 0.000000 1.694480 0.000000 
#    z 0.000000 0.000000 1.725530 
# 
# From -- ./inp_files/7669.got.cif
#   From: 2010.03.12/outbox.cif.g09.slc.cpg/sg133_4_cif.got.tgz:7669.got - 2010.04.06 18:08:06.
