data_PCOD8316105
_publ_section_title
;
Structure prediction by ZEFSAII (Michael W. Deem and Ramdas Pophale) SiO2 
 PCOD8316105
Probable space group: P 42/M M C
;
_chemical_formula_sum "Si O2"
_cell_formula_units_Z 120
_cell_length_a 27.625230
_cell_length_b 27.625230
_cell_length_c 8.398773
_cell_angle_alpha 90.000000
_cell_angle_beta 90.000000
_cell_angle_gamma 90.000000
_cell_volume 6409.551604
_symmetry_space_group_name_H-M "P 42/M M C"
_symmetry_group_IT_number 131
_symmetry_cell_setting 'tetragonal'
loop_
_space_group_symop_operation_xyz
x,y,z
-x,-y,z
-y,x,1/2+z
y,-x,1/2+z
-x,y,-z
x,-y,-z
y,x,1/2-z
-y,-x,1/2-z
-x,-y,-z
x,y,-z
y,-x,1/2-z
-y,x,1/2-z
x,-y,z
-x,y,z
-y,-x,1/2+z
y,x,1/2+z
loop_
_atom_site_type_symbol
_atom_site_label
_atom_site_fract_x
_atom_site_fract_y
_atom_site_fract_z
Si Si1 0.694759 0.116761 0.324691
Si Si2 0.773194 0.946152 0.817919
Si Si3 0.224579 0.554468 0.186611
Si Si4 0.945970 0.444685 0.500000
Si Si5 0.366294 0.705014 0.177007
Si Si6 0.871574 0.946184 0.684911
Si Si7 0.115406 0.584044 0.185950
Si Si8 0.284307 0.215073 0.177849
O O1 0.715687 0.106753 0.500000
O O2 0.726123 0.086716 0.200558
O O3 0.639738 0.100802 0.313840
O O4 0.696349 0.173378 0.290296
O O5 0.819084 0.923528 0.725540
O O6 0.761271 0.000000 0.753161
O O7 0.788070 0.947576 0.000000
O O8 0.229915 0.500000 0.258531
O O9 0.269885 0.587661 0.239420
O O10 0.171655 0.575438 0.234729
O O11 0.227704 0.551834 0.000000
O O12 0.957441 0.500000 0.500000
O O13 0.917028 0.435880 0.332444
O O14 0.000000 0.418865 0.500000
O O15 0.345658 0.654343 0.250000
O O16 0.323086 0.742788 0.178464
O O17 0.383137 0.692328 0.000000
O O18 0.914338 0.914338 0.750000
O O19 0.878419 0.949375 0.500000
O O20 0.874694 0.000000 0.761375
O O21 0.105990 0.564268 0.000000
O O22 0.233984 0.233984 0.250000
O O23 0.275245 0.195396 0.000000
#
# Coordination Sequence:
#
# PCOD8316105 Si02
#       8
#    16  16  16   8  16  16  16  16
#     4  11  22  36  57  81 109 144 186 232 281 343
#     4  10  22  39  58  79 105 138 176 223 277 334
#     4  10  20  35  57  85 118 157 201 249 303 359
#     4  11  26  44  64  88 114 150 196 250 310 372
#     4  10  20  33  53  79 113 154 193 237 288 347
#     4  10  21  38  60  85 114 145 179 222 272 332
#     4  10  23  41  62  88 120 154 195 252 308 364
#     4  10  20  33  51  76 108 143 181 224 272 326
#
# _framework density 18.722057
#
# number of rings (size 3 to 8) (size 9 to 14) (size 15 to 20)
#    0.000    1.800    1.333    2.400    2.800    5.200 
#    0.000    5.333    0.000    0.000    0.000    0.000 
#    0.000    0.267    0.000    2.800    0.000    1.200 
#
# Total GULP energy -1486838.372631 kJ/mol
# GULP energy per Si atom -12390.319772 kJ/mol
# Density = 1.867944 g / cm^3
# Si number density = 18.722057 Si / 1000 Ang^3
#
#
#
# Elastic Constant Matrix: (Units=GPa)
#
#
# Indices 1 2 3 4 5 6 
#
# 1 80.2847 43.8575 38.1062 0.0000 0.0000 0.0000
# 2 43.8575 80.2863 38.1063 0.0000 0.0000 0.0000
# 3 38.1062 38.1063 82.2766 0.0000 0.0000 0.0000
# 4 0.0000 0.0000 0.0000 25.1253 0.0000 0.0000
# 5 0.0000 0.0000 0.0000 0.0000 25.1251 0.0000
# 6 0.0000 0.0000 0.0000 0.0000 0.0000 19.5567
#
#
#
# Elastic Compliance Matrix: (Units=1/GPa)
#
#
# Indices 1 2 3 4 5 6 
#
# 1 0.019354 -0.008098 -0.005213 0.000000 0.000000 0.000000
# 2 -0.008098 0.019353 -0.005213 0.000000 0.000000 0.000000
# 3 -0.005213 -0.005213 0.016983 0.000000 0.000000 0.000000
# 4 0.000000 0.000000 0.000000 0.039801 0.000000 0.000000
# 5 0.000000 0.000000 0.000000 0.000000 0.039801 0.000000
# 6 0.000000 0.000000 0.000000 0.000000 0.000000 0.051133
#
#
# Mechanical properties :
#
#
# Convention : Reuss Voigt Hill
#
# Bulk Modulus (GPa) = 53.64223 53.66529 53.65376
# Shear Modulus (GPa) = 21.76882 22.14660 21.95771
#
# Velocity S-wave (km/s) = 3.41359 3.44308 3.42837
# Velocity P-wave (km/s) = 6.65214 6.67330 6.66272
#
# Compressibility (1/GPa) = 0.01864203
#
# Stress axis : x y z
#
# Youngs Moduli (GPa) = 51.66968 51.67089 58.88284
#
# Poissons Ratio (x) = 0.41843 0.30696
# Poissons Ratio (y) = 0.41842 0.30695
# Poissons Ratio (z) = 0.26936 0.26935
#
# Static dielectric constant tensor:
#      x y z
#    x 3.377190 0.000000 0.000000 
#    y 0.000000 3.377190 0.000000 
#    z 0.000000 0.000000 3.861030 
# 
# 
# High freq. dielectric constant tensor:
#      x y z
#    x 1.712880 0.000000 0.000000 
#    y 0.000000 1.712880 0.000000 
#    z 0.000000 0.000000 1.740880 
# 
# From -- ./inp_files/2667.got.cif
#   From: 2010.03.12/outbox.cif.g09.slc.cpg/sg131_2_cif.got.tgz:2667.got - 2010.04.06 17:36:35.
