data_PCOD8316124
_publ_section_title
;
Structure prediction by ZEFSAII (Michael W. Deem and Ramdas Pophale) SiO2 
 PCOD8316124
Probable space group: P 42/M M C
;
_chemical_formula_sum "Si O2"
_cell_formula_units_Z 96
_cell_length_a 23.793713
_cell_length_b 23.793713
_cell_length_c 8.632914
_cell_angle_alpha 90.000000
_cell_angle_beta 90.000000
_cell_angle_gamma 90.000000
_cell_volume 4887.444651
_symmetry_space_group_name_H-M "P 42/M M C"
_symmetry_group_IT_number 131
_symmetry_cell_setting 'tetragonal'
loop_
_space_group_symop_operation_xyz
x,y,z
-x,-y,z
-y,x,1/2+z
y,-x,1/2+z
-x,y,-z
x,-y,-z
y,x,1/2-z
-y,-x,1/2-z
-x,-y,-z
x,y,-z
y,-x,1/2-z
-y,x,1/2-z
x,-y,z
-x,y,z
-y,-x,1/2+z
y,x,1/2+z
loop_
_atom_site_type_symbol
_atom_site_label
_atom_site_fract_x
_atom_site_fract_y
_atom_site_fract_z
Si Si1 0.331255 0.939327 0.668306
Si Si2 0.065223 0.148917 0.182877
Si Si3 0.864744 0.749387 0.323887
Si Si4 0.204213 0.437757 0.180017
Si Si5 0.084302 0.561819 0.323136
Si Si6 0.323072 0.758492 0.184406
O O1 0.324431 0.909090 0.500000
O O2 0.303066 0.906337 0.808350
O O3 0.396367 0.947990 0.709396
O O4 0.302244 0.000000 0.656023
O O5 0.090698 0.090698 0.250000
O O6 0.108583 0.199299 0.226826
O O7 0.000000 0.157300 0.242168
O O8 0.064722 0.144661 0.000000
O O9 0.859997 0.769790 0.500000
O O10 0.806136 0.722809 0.262393
O O11 0.233275 0.500000 0.201947
O O12 0.149688 0.436384 0.285720
O O13 0.239923 0.384815 0.238827
O O14 0.188829 0.428997 0.000000
O O15 0.075213 0.580276 0.500000
O O16 0.059334 0.500000 0.294591
O O17 0.299864 0.700137 0.250000
O O18 0.329212 0.759469 0.000000
#
# Coordination Sequence:
#
# PCOD8316124 Si02
#       6
#    16  16  16  16  16  16
#     4  11  23  36  52  75 105 143 188 238 287 338
#     4  11  25  44  66  91 117 146 182 227 282 346
#     4  11  23  39  60  86 115 150 188 230 283 340
#     4  10  20  35  57  83 113 152 194 238 288 340
#     4  10  20  34  52  74 102 139 186 237 286 336
#     4  11  23  37  57  87 120 155 195 239 285 336
#
# _framework density 19.642167000000001
#
# number of rings (size 3 to 8) (size 9 to 14) (size 15 to 20)
#    0.000    1.333    1.667    4.000    0.000   10.500 
#    0.000    2.500    0.000    0.000    0.000    0.000 
#    0.000    0.333    0.000    3.500    0.000    1.500 
#
# Total GULP energy -1189265.342718 kJ/mol
# GULP energy per Si atom -12388.180653 kJ/mol
# Density = 1.959746 g / cm^3
# Si number density = 19.642167 Si / 1000 Ang^3
#
#
#
# Elastic Constant Matrix: (Units=GPa)
#
#
# Indices 1 2 3 4 5 6 
#
# 1 90.0507 57.1840 27.0390 0.0000 0.0000 0.0000
# 2 57.1840 90.0541 27.0401 0.0000 0.0000 0.0000
# 3 27.0390 27.0401 63.9278 0.0000 0.0000 0.0000
# 4 0.0000 0.0000 0.0000 -20.3985 0.0000 0.0000
# 5 0.0000 0.0000 0.0000 0.0000 -20.3548 0.0000
# 6 0.0000 0.0000 0.0000 0.0000 0.0000 7.2874
#
#
#
# Elastic Compliance Matrix: (Units=1/GPa)
#
#
# Indices 1 2 3 4 5 6 
#
# 1 0.019233 -0.011192 -0.003401 0.000000 0.000000 0.000000
# 2 -0.011192 0.019232 -0.003401 0.000000 0.000000 0.000000
# 3 -0.003401 -0.003401 0.018520 0.000000 0.000000 0.000000
# 4 0.000000 0.000000 0.000000 -0.049023 0.000000 0.000000
# 5 0.000000 0.000000 0.000000 0.000000 -0.049128 0.000000
# 6 0.000000 0.000000 0.000000 0.000000 0.000000 0.137224
#
#
# Mechanical properties :
#
#
# Convention : Reuss Voigt Hill
#
# Bulk Modulus (GPa) = 47.62501 51.83986 49.73244
# Shear Modulus (GPa) = 35.95980 2.15811 19.05896
#
# Velocity S-wave (km/s) = 4.28336 1.04933 3.11836
# Velocity P-wave (km/s) = 6.98297 5.28371 6.19191
#
# Compressibility (1/GPa) = 0.02099737
#
# Stress axis : x y z
#
# Youngs Moduli (GPa) = 51.99396 51.99568 53.99634
#
# Poissons Ratio (x) = 0.58192 0.18364
# Poissons Ratio (y) = 0.58190 0.18365
# Poissons Ratio (z) = 0.17683 0.17685
#
# Static dielectric constant tensor:
#      x y z
#    x 3.706450 0.000000 0.000000 
#    y 0.000000 3.706440 0.000000 
#    z 0.000000 0.000000 3.569740 
# 
# 
# High freq. dielectric constant tensor:
#      x y z
#    x 1.751880 0.000000 0.000000 
#    y 0.000000 1.751880 0.000000 
#    z 0.000000 0.000000 1.775940 
# 
# From -- ./inp_files/2190.got.cif
#   From: 2010.03.12/outbox.cif.g09.slc.cpg/sg131_2_cif.got.tgz:2190.got - 2010.04.06 17:36:35.
