data_PCOD8316489
_publ_section_title
;
Structure prediction by ZEFSAII (Michael W. Deem and Ramdas Pophale) SiO2 
 PCOD8316489
Probable space group: P 42/M C M
;
_chemical_formula_sum "Si O2"
_cell_formula_units_Z 96
_cell_length_a 24.450333
_cell_length_b 24.450333
_cell_length_c 9.345242
_cell_angle_alpha 90.000000
_cell_angle_beta 90.000000
_cell_angle_gamma 90.000000
_cell_volume 5586.761207
_symmetry_space_group_name_H-M "P 42/M C M"
_symmetry_group_IT_number 132
_symmetry_cell_setting 'tetragonal'
loop_
_space_group_symop_operation_xyz
x,y,z
-y,x,1/2+z
-x,-y,z
y,-x,1/2+z
x,-y,1/2-z
-x,y,1/2-z
y,x,-z
-y,-x,-z
-x,-y,-z
y,-x,1/2-z
x,y,-z
-y,x,1/2-z
-x,y,1/2+z
x,-y,1/2+z
-y,-x,z
y,x,z
loop_
_atom_site_type_symbol
_atom_site_label
_atom_site_fract_x
_atom_site_fract_y
_atom_site_fract_z
Si Si1 0.661195 0.661195 0.669633
Si Si2 0.857612 0.945991 0.832671
Si Si3 0.552843 0.824150 0.337215
Si Si4 0.547541 0.304251 0.157594
Si Si5 0.666275 0.158933 0.665531
Si Si6 0.735733 0.264267 0.661451
Si Si7 0.267024 0.946568 0.333195
O O1 0.661320 0.661320 0.500000
O O2 0.678258 0.603251 0.734444
O O3 0.704496 0.704496 0.717127
O O4 0.895171 0.895171 0.785070
O O5 0.795244 0.930949 0.791490
O O6 0.877306 0.000000 0.750000
O O7 0.863573 0.958038 0.000000
O O8 0.500000 0.849142 0.250000
O O9 0.554782 0.848689 0.500000
O O10 0.542569 0.760328 0.349727
O O11 0.611408 0.832705 0.259200
O O12 0.500000 0.331045 0.250000
O O13 0.543953 0.329874 0.000000
O O14 0.647715 0.159746 0.500000
O O15 0.717125 0.201471 0.687662
O O16 0.692075 0.101488 0.711980
O O17 0.718864 0.281137 0.500000
O O18 0.271157 0.959201 0.500000
O O19 0.286956 0.000000 0.250000
#
# Coordination Sequence:
#
# PCOD8316489 Si02
#       7
#     8  16  16  16  16   8  16
#     4  10  18  32  48  67  99 132 161 201 249 296
#     4   9  18  32  50  71  97 131 170 212 257 303
#     4  10  19  32  51  74 103 136 167 203 246 298
#     4   9  18  30  46  66  93 127 164 201 241 290
#     4  10  20  33  51  77 106 135 168 207 250 300
#     4  10  20  30  46  76 107 133 161 199 247 301
#     4   9  19  35  54  74 100 134 173 212 250 299
#
# _framework density 17.183479999999999
#
# number of rings (size 3 to 8) (size 9 to 14) (size 15 to 20)
#    0.000    2.500    1.667    0.500    1.167    2.500 
#    0.000    0.833    0.000    0.750    0.000    5.250 
#    0.000    0.000    0.000    0.000    0.000    0.000 
#
# Total GULP energy -1189522.746490 kJ/mol
# GULP energy per Si atom -12390.861943 kJ/mol
# Density = 1.714437 g / cm^3
# Si number density = 17.183480 Si / 1000 Ang^3
#
#
#
# Elastic Constant Matrix: (Units=GPa)
#
#
# Indices 1 2 3 4 5 6 
#
# 1 87.1305 38.1196 41.6341 0.0000 0.0000 0.0000
# 2 38.1196 87.1302 41.6341 0.0000 0.0000 0.0000
# 3 41.6341 41.6341 66.1970 0.0000 0.0000 0.0000
# 4 0.0000 0.0000 0.0000 25.9242 0.0000 0.0000
# 5 0.0000 0.0000 0.0000 0.0000 25.9243 0.0000
# 6 0.0000 0.0000 0.0000 0.0000 0.0000 22.5512
#
#
#
# Elastic Compliance Matrix: (Units=1/GPa)
#
#
# Indices 1 2 3 4 5 6 
#
# 1 0.017063 -0.003341 -0.008630 0.000000 0.000000 0.000000
# 2 -0.003341 0.017063 -0.008630 0.000000 0.000000 0.000000
# 3 -0.008630 -0.008630 0.025962 0.000000 0.000000 0.000000
# 4 0.000000 0.000000 0.000000 0.038574 0.000000 0.000000
# 5 0.000000 0.000000 0.000000 0.000000 0.038574 0.000000
# 6 0.000000 0.000000 0.000000 0.000000 0.000000 0.044344
#
#
# Mechanical properties :
#
#
# Convention : Reuss Voigt Hill
#
# Bulk Modulus (GPa) = 52.95253 53.69261 53.32257
# Shear Modulus (GPa) = 21.82687 22.81794 22.32240
#
# Velocity S-wave (km/s) = 3.56789 3.64799 3.60816
# Velocity P-wave (km/s) = 6.91780 7.00416 6.96111
#
# Compressibility (1/GPa) = 0.01888484
#
# Stress axis : x y z
#
# Youngs Moduli (GPa) = 58.60806 58.60781 38.51790
#
# Poissons Ratio (x) = 0.19582 0.33241
# Poissons Ratio (y) = 0.19582 0.33241
# Poissons Ratio (z) = 0.50578 0.50579
#
# Static dielectric constant tensor:
#      x y z
#    x 3.148170 0.000000 0.000000 
#    y 0.000000 3.148170 0.000000 
#    z 0.000000 0.000000 3.343700 
# 
# 
# High freq. dielectric constant tensor:
#      x y z
#    x 1.651570 0.000000 0.000000 
#    y 0.000000 1.651570 0.000000 
#    z 0.000000 0.000000 1.664650 
# 
# From -- ./inp_files/1843.got.cif
#   From: 2010.03.12/outbox.cif.g09.slc.cpg/sg132_1_cif.got.tgz:1843.got - 2010.04.06 17:53:44.
