data_PCOD8316745
_publ_section_title
;
Structure prediction by ZEFSAII (Michael W. Deem and Ramdas Pophale) SiO2 
 PCOD8316745
Probable space group: P 42/M C M
;
_chemical_formula_sum "Si O2"
_cell_formula_units_Z 112
_cell_length_a 14.751658
_cell_length_b 14.751658
_cell_length_c 25.140707
_cell_angle_alpha 90.000000
_cell_angle_beta 90.000000
_cell_angle_gamma 90.000000
_cell_volume 5470.904793
_symmetry_space_group_name_H-M "P 42/M C M"
_symmetry_group_IT_number 132
_symmetry_cell_setting 'tetragonal'
loop_
_space_group_symop_operation_xyz
x,y,z
-y,x,1/2+z
-x,-y,z
y,-x,1/2+z
x,-y,1/2-z
-x,y,1/2-z
y,x,-z
-y,-x,-z
-x,-y,-z
y,-x,1/2-z
x,y,-z
-y,x,1/2-z
-x,y,1/2+z
x,-y,1/2+z
-y,-x,z
y,x,z
loop_
_atom_site_type_symbol
_atom_site_label
_atom_site_fract_x
_atom_site_fract_y
_atom_site_fract_z
Si Si1 0.211783 0.068625 0.636205
Si Si2 0.266418 0.875600 0.638101
Si Si3 0.448911 0.776786 0.198315
Si Si4 0.355853 0.355853 0.439941
Si Si5 0.854585 0.634691 0.559619
Si Si6 0.098365 0.303525 0.259163
Si Si7 0.095067 0.469676 0.883809
Si Si8 0.424658 0.575343 0.164904
O O1 0.122076 0.122076 0.617155
O O2 0.298558 0.103694 0.603173
O O3 0.220716 0.078545 0.700422
O O4 0.202328 0.961479 0.625012
O O5 0.214889 0.785112 0.616897
O O6 0.278542 0.862399 0.701571
O O7 0.361741 0.893807 0.607308
O O8 0.500000 0.807978 0.250000
O O9 0.352266 0.823932 0.206017
O O10 0.502713 0.818441 0.149818
O O11 0.450820 0.669466 0.191977
O O12 0.383161 0.383161 0.500000
O O13 0.374989 0.251344 0.428032
O O14 0.414992 0.414992 0.398905
O O15 0.870899 0.672314 0.500000
O O16 0.898896 0.533598 0.563506
O O17 0.000000 0.353910 0.250000
O O18 0.000000 0.500000 0.855876
O O19 0.500000 0.500000 0.178216
#
# Coordination Sequence:
#
# PCOD8316745 Si02
#       8
#    16  16  16   8  16  16  16   8
#     4  11  21  38  63  90 127 164 200 253 313 370
#     4  11  24  39  58  91 130 168 210 247 298 382
#     4  12  25  36  61  86 124 166 207 256 304 367
#     4  10  20  41  68  94 117 152 210 275 327 368
#     4  11  22  38  66  98 122 150 203 267 324 374
#     4  10  20  36  60  93 126 160 204 253 309 368
#     4  12  22  40  62  93 122 158 206 261 318 373
#     4  12  28  45  58  84 128 175 223 258 304 380
#
# _framework density 20.471933
#
# number of rings (size 3 to 8) (size 9 to 14) (size 15 to 20)
#    0.000    0.857    6.429    1.286    3.000    1.286 
#    0.000    0.000    0.000    4.286    0.000    1.000 
#    0.000    0.000    0.000    0.000    0.000    0.000 
#
# Total GULP energy -1387463.514551 kJ/mol
# GULP energy per Si atom -12388.067094 kJ/mol
# Density = 2.042534 g / cm^3
# Si number density = 20.471933 Si / 1000 Ang^3
#
#
#
# Elastic Constant Matrix: (Units=GPa)
#
#
# Indices 1 2 3 4 5 6 
#
# 1 114.2820 61.4858 9.9036 0.0000 0.0000 0.0000
# 2 61.4858 114.2820 9.9036 0.0000 0.0000 0.0000
# 3 9.9036 9.9036 60.1494 0.0000 0.0000 0.0000
# 4 0.0000 0.0000 0.0000 21.1594 0.0000 0.0000
# 5 0.0000 0.0000 0.0000 0.0000 21.1594 0.0000
# 6 0.0000 0.0000 0.0000 0.0000 0.0000 39.2898
#
#
#
# Elastic Compliance Matrix: (Units=1/GPa)
#
#
# Indices 1 2 3 4 5 6 
#
# 1 0.012369 -0.006572 -0.000954 0.000000 0.000000 0.000000
# 2 -0.006572 0.012369 -0.000954 0.000000 0.000000 0.000000
# 3 -0.000954 -0.000954 0.016940 0.000000 0.000000 0.000000
# 4 0.000000 0.000000 0.000000 0.047260 0.000000 0.000000
# 5 0.000000 0.000000 0.000000 0.000000 0.047260 0.000000
# 6 0.000000 0.000000 0.000000 0.000000 0.000000 0.025452
#
#
# Mechanical properties :
#
#
# Convention : Reuss Voigt Hill
#
# Bulk Modulus (GPa) = 40.46041 50.14437 45.30239
# Shear Modulus (GPa) = 26.75946 30.14976 28.45461
#
# Velocity S-wave (km/s) = 3.61935 3.84179 3.73222
# Velocity P-wave (km/s) = 6.10516 6.65030 6.38355
#
# Compressibility (1/GPa) = 0.02471552
#
# Stress axis : x y z
#
# Youngs Moduli (GPa) = 80.84852 80.84852 59.03336
#
# Poissons Ratio (x) = 0.53133 0.05634
# Poissons Ratio (y) = 0.53133 0.05634
# Poissons Ratio (z) = 0.07717 0.07717
#
# Static dielectric constant tensor:
#      x y z
#    x 3.705530 0.000000 0.000000 
#    y 0.000000 3.705530 0.000000 
#    z 0.000000 0.000000 3.535980 
# 
# 
# High freq. dielectric constant tensor:
#      x y z
#    x 1.793530 0.000000 0.000000 
#    y 0.000000 1.793530 0.000000 
#    z 0.000000 0.000000 1.782890 
# 
# From -- ./inp_files/10096.got.cif
#   From: 2010.03.12/outbox.cif.g09.slc.cpg/sg132_6_cif.got.tgz:10096.got - 2010.04.06 17:53:44.
