data_PCOD8316709
_publ_section_title
;
Structure prediction by ZEFSAII (Michael W. Deem and Ramdas Pophale) SiO2 
 PCOD8316709
Probable space group: P 42/M C M
;
_chemical_formula_sum "Si O2"
_cell_formula_units_Z 88
_cell_length_a 18.476359
_cell_length_b 18.476359
_cell_length_c 14.061713
_cell_angle_alpha 90.000000
_cell_angle_beta 90.000000
_cell_angle_gamma 90.000000
_cell_volume 4800.329114
_symmetry_space_group_name_H-M "P 42/M C M"
_symmetry_group_IT_number 132
_symmetry_cell_setting 'tetragonal'
loop_
_space_group_symop_operation_xyz
x,y,z
-y,x,1/2+z
-x,-y,z
y,-x,1/2+z
x,-y,1/2-z
-x,y,1/2-z
y,x,-z
-y,-x,-z
-x,-y,-z
y,-x,1/2-z
x,y,-z
-y,x,1/2-z
-x,y,1/2+z
x,-y,1/2+z
-y,-x,z
y,x,z
loop_
_atom_site_type_symbol
_atom_site_label
_atom_site_fract_x
_atom_site_fract_y
_atom_site_fract_z
Si Si1 0.773182 0.470926 0.112907
Si Si2 0.820944 0.939054 0.177255
Si Si3 0.884487 0.004445 0.000000
Si Si4 0.611807 0.272719 0.710505
Si Si5 0.466752 0.072878 0.111343
Si Si6 0.680852 0.858999 0.886710
O O1 0.725564 0.540221 0.144563
O O2 0.748383 0.404176 0.178892
O O3 0.857060 0.486021 0.139883
O O4 0.762369 0.455140 0.000000
O O5 0.891583 0.891583 0.207018
O O6 0.834799 0.990159 0.088764
O O7 0.755903 0.885793 0.155026
O O8 0.797627 0.000000 0.250000
O O9 0.952099 0.952099 0.000000
O O10 0.912826 0.087175 0.000000
O O11 0.647996 0.352004 0.709727
O O12 0.667793 0.216865 0.664505
O O13 0.383218 0.084884 0.141038
O O14 0.500000 0.000000 0.159689
O O15 0.470558 0.063469 0.000000
O O16 0.685066 0.847053 0.000000
#
# Coordination Sequence:
#
# PCOD8316709 Si02
#       6
#    16  16   8  16  16  16
#     4   9  19  35  54  82 114 145 185 229 272 331
#     4  11  22  35  53  77 104 137 184 239 289 341
#     4   9  18  34  54  72  93 130 178 230 288 337
#     4  10  20  34  56  83 112 146 183 225 273 328
#     4   8  15  30  53  78 106 138 173 215 266 326
#     4  10  20  35  55  81 110 141 182 229 280 336
#
# _framework density 18.332077000000002
#
# number of rings (size 3 to 8) (size 9 to 14) (size 15 to 20)
#    0.000    2.455    0.909    2.727    0.000    4.909 
#    0.000    6.364    2.000    4.364    0.000    5.091 
#    0.000    0.000    0.000    0.000    0.000    0.000 
#
# Total GULP energy -1090549.463319 kJ/mol
# GULP energy per Si atom -12392.607538 kJ/mol
# Density = 1.829035 g / cm^3
# Si number density = 18.332077 Si / 1000 Ang^3
#
#
#
# Elastic Constant Matrix: (Units=GPa)
#
#
# Indices 1 2 3 4 5 6 
#
# 1 80.7615 34.5931 29.9459 0.0000 0.0000 0.0000
# 2 34.5931 80.7610 29.9461 0.0000 0.0000 0.0000
# 3 29.9459 29.9461 107.8894 0.0000 0.0000 0.0000
# 4 0.0000 0.0000 0.0000 26.1329 0.0000 0.0000
# 5 0.0000 0.0000 0.0000 0.0000 26.1332 0.0000
# 6 0.0000 0.0000 0.0000 0.0000 0.0000 53.4387
#
#
#
# Elastic Compliance Matrix: (Units=1/GPa)
#
#
# Indices 1 2 3 4 5 6 
#
# 1 0.015894 -0.005766 -0.002811 0.000000 0.000000 0.000000
# 2 -0.005766 0.015894 -0.002811 0.000000 0.000000 0.000000
# 3 -0.002811 -0.002811 0.010829 0.000000 0.000000 0.000000
# 4 0.000000 0.000000 0.000000 0.038266 0.000000 0.000000
# 5 0.000000 0.000000 0.000000 0.000000 0.038265 0.000000
# 6 0.000000 0.000000 0.000000 0.000000 0.000000 0.018713
#
#
# Mechanical properties :
#
#
# Convention : Reuss Voigt Hill
#
# Bulk Modulus (GPa) = 50.39997 50.93137 50.66567
# Shear Modulus (GPa) = 29.89488 32.80275 31.34881
#
# Velocity S-wave (km/s) = 4.04263 4.23468 4.13976
# Velocity P-wave (km/s) = 7.02445 7.19395 7.10971
#
# Compressibility (1/GPa) = 0.01984128
#
# Stress axis : x y z
#
# Youngs Moduli (GPa) = 62.91600 62.91552 92.34140
#
# Poissons Ratio (x) = 0.36275 0.25960
# Poissons Ratio (y) = 0.36275 0.25960
# Poissons Ratio (z) = 0.17687 0.17688
#
# Static dielectric constant tensor:
#      x y z
#    x 3.408810 0.000000 0.000000 
#    y 0.000000 3.408810 0.000000 
#    z 0.000000 0.000000 0.734150 
# 
# 
# High freq. dielectric constant tensor:
#      x y z
#    x 1.698580 0.000000 0.000000 
#    y 0.000000 1.698580 0.000000 
#    z 0.000000 0.000000 1.716240 
# 
# From -- ./inp_files/4777.got.cif
#   From: 2010.03.12/outbox.cif.g09.slc.cpg/sg132_3_cif.got.tgz:4777.got - 2010.04.06 17:53:44.
