data_PCOD8316467
_publ_section_title
;
Structure prediction by ZEFSAII (Michael W. Deem and Ramdas Pophale) SiO2 
 PCOD8316467
Probable space group: P 42/M C M
;
_chemical_formula_sum "Si O2"
_cell_formula_units_Z 88
_cell_length_a 12.555365
_cell_length_b 12.555365
_cell_length_c 28.406582
_cell_angle_alpha 90.000000
_cell_angle_beta 90.000000
_cell_angle_gamma 90.000000
_cell_volume 4477.933772
_symmetry_space_group_name_H-M "P 42/M C M"
_symmetry_group_IT_number 132
_symmetry_cell_setting 'tetragonal'
loop_
_space_group_symop_operation_xyz
x,y,z
-y,x,1/2+z
-x,-y,z
y,-x,1/2+z
x,-y,1/2-z
-x,y,1/2-z
y,x,-z
-y,-x,-z
-x,-y,-z
y,-x,1/2-z
x,y,-z
-y,x,1/2-z
-x,y,1/2+z
x,-y,1/2+z
-y,-x,z
y,x,z
loop_
_atom_site_type_symbol
_atom_site_label
_atom_site_fract_x
_atom_site_fract_y
_atom_site_fract_z
Si Si1 0.321288 0.065369 0.446584
Si Si2 0.082814 0.917186 0.944333
Si Si3 0.401512 0.232324 0.848309
Si Si4 0.634407 0.812286 0.640214
Si Si5 0.012763 0.625798 0.302927
Si Si6 0.821350 0.656273 0.948525
O O1 0.328443 0.108835 0.500000
O O2 0.201301 0.057310 0.427523
O O3 0.386505 0.147459 0.413554
O O4 0.364532 0.946371 0.442859
O O5 0.073882 0.926119 0.000000
O O6 0.000000 0.000000 0.920649
O O7 0.336421 0.336421 0.829740
O O8 0.526936 0.235132 0.835582
O O9 0.345009 0.127530 0.825770
O O10 0.401977 0.234006 0.905085
O O11 0.721603 0.721603 0.642517
O O12 0.677459 0.916261 0.667747
O O13 0.000000 0.500000 0.304845
O O14 0.000000 0.669481 0.250000
O O15 0.781050 0.781050 0.947289
O O16 0.788121 0.608708 0.000000
#
# Coordination Sequence:
#
# PCOD8316467 Si02
#       6
#    16   8  16  16  16  16
#     4  10  18  29  48  76 110 148 186 232 282 331
#     4   9  16  26  42  68 105 147 185 223 278 338
#     4  10  21  37  58  83 112 149 191 232 275 327
#     4  11  22  36  55  83 116 149 189 230 275 333
#     4   9  19  38  62  84 106 136 178 229 283 336
#     4   9  17  30  50  78 110 143 184 232 278 325
#
# _framework density 19.651921000000002
#
# number of rings (size 3 to 8) (size 9 to 14) (size 15 to 20)
#    0.000    2.273    2.727    0.545    0.000    4.000 
#    0.000    1.818    0.000    0.000    0.000   10.182 
#    0.000    0.000    0.000    0.000    0.000    0.000 
#
# Total GULP energy -1090262.724692 kJ/mol
# GULP energy per Si atom -12389.349144 kJ/mol
# Density = 1.960719 g / cm^3
# Si number density = 19.651921 Si / 1000 Ang^3
#
#
#
# Elastic Constant Matrix: (Units=GPa)
#
#
# Indices 1 2 3 4 5 6 
#
# 1 80.2772 27.0380 19.1897 0.0000 0.0000 0.0000
# 2 27.0380 80.2773 19.1895 0.0000 0.0000 0.0000
# 3 19.1897 19.1895 92.5457 0.0000 0.0000 0.0000
# 4 0.0000 0.0000 0.0000 16.5815 0.0000 0.0000
# 5 0.0000 0.0000 0.0000 0.0000 16.5815 0.0000
# 6 0.0000 0.0000 0.0000 0.0000 0.0000 29.9850
#
#
#
# Elastic Compliance Matrix: (Units=1/GPa)
#
#
# Indices 1 2 3 4 5 6 
#
# 1 0.014424 -0.004359 -0.002087 0.000000 0.000000 0.000000
# 2 -0.004359 0.014424 -0.002087 0.000000 0.000000 0.000000
# 3 -0.002087 -0.002087 0.011671 0.000000 0.000000 0.000000
# 4 0.000000 0.000000 0.000000 0.060308 0.000000 0.000000
# 5 0.000000 0.000000 0.000000 0.000000 0.060308 0.000000
# 6 0.000000 0.000000 0.000000 0.000000 0.000000 0.033350
#
#
# Mechanical properties :
#
#
# Convention : Reuss Voigt Hill
#
# Bulk Modulus (GPa) = 42.63927 42.65940 42.64933
# Shear Modulus (GPa) = 22.79263 25.14177 23.96720
#
# Velocity S-wave (km/s) = 3.40930 3.58069 3.49605
# Velocity P-wave (km/s) = 6.10263 6.23295 6.16814
#
# Compressibility (1/GPa) = 0.02345256
#
# Stress axis : x y z
#
# Youngs Moduli (GPa) = 69.32919 69.32937 85.68285
#
# Poissons Ratio (x) = 0.30222 0.17882
# Poissons Ratio (y) = 0.30222 0.17881
# Poissons Ratio (z) = 0.14469 0.14469
#
# Static dielectric constant tensor:
#      x y z
#    x 3.492600 0.000000 0.000000 
#    y 0.000000 3.492590 0.000000 
#    z 0.000000 0.000000 3.677410 
# 
# 
# High freq. dielectric constant tensor:
#      x y z
#    x 1.745210 0.000000 0.000000 
#    y 0.000000 1.745210 0.000000 
#    z 0.000000 0.000000 1.756450 
# 
# From -- ./inp_files/10797.got.cif
#   From: 2010.03.12/outbox.cif.g09.slc.cpg/sg132_6_cif.got.tgz:10797.got - 2010.04.06 17:53:44.
