data_PCOD8316992
_publ_section_title
;
Structure prediction by ZEFSAII (Michael W. Deem and Ramdas Pophale) SiO2 
 PCOD8316992
Probable space group: P 42/N B C
;
_chemical_formula_sum "Si O2"
_cell_formula_units_Z 48
_cell_length_a 15.588764
_cell_length_b 15.588764
_cell_length_c 9.716279
_cell_angle_alpha 90.000000
_cell_angle_beta 90.000000
_cell_angle_gamma 90.000000
_cell_volume 2361.148714
_symmetry_space_group_name_H-M "P 42/N B C"
_symmetry_group_IT_number 133
_space_group.IT_coordinate_system_code '2'
_symmetry_cell_setting 'tetragonal'
loop_
_space_group_symop_operation_xyz
x,y,z
1/2-y,x,1/2+z
1/2-x,1/2-y,z
y,1/2-x,1/2+z
x,1/2-y,-z
1/2-x,y,-z
y,x,1/2-z
1/2-y,1/2-x,1/2-z
-x,-y,-z
1/2+y,-x,1/2-z
1/2+x,1/2+y,-z
-y,1/2+x,1/2-z
-x,1/2+y,z
1/2+x,-y,z
-y,-x,1/2+z
1/2+y,1/2+x,1/2+z
loop_
_atom_site_type_symbol
_atom_site_label
_atom_site_fract_x
_atom_site_fract_y
_atom_site_fract_z
Si Si1 0.648655 0.672605 0.094582
Si Si2 0.250000 0.988181 0.500000
Si Si3 0.984754 0.750000 0.500000
Si Si4 0.112268 0.721629 0.251200
O O1 0.682904 0.682904 0.250000
O O2 0.687814 0.750000 0.000000
O O3 0.545330 0.681717 0.087400
O O4 0.671523 0.578663 0.036549
O O5 0.195614 0.932816 0.391525
O O6 0.044873 0.721328 0.374931
O O7 0.151805 0.815201 0.221787
#
# Coordination Sequence:
#
# PCOD8316992 Si02
#       4
#    16   8   8  16
#     4  10  22  40  67 100 131 168 212 268 337 396
#     4  10  22  42  64  94 138 164 218 286 321 385
#     4  12  21  41  70  94 130 176 218 271 331 396
#     4  11  24  43  66  94 132 182 228 268 321 392
#
# _framework density 20.329086
#
# number of rings (size 3 to 8) (size 9 to 14) (size 15 to 20)
#    1.000    0.333    3.333    2.500    0.000    9.333 
#    0.000   10.000    0.000    0.000    0.000    0.000 
#    0.000    0.000    0.000    0.000    0.000    0.000 
#
# Total GULP energy -594822.734190 kJ/mol
# GULP energy per Si atom -12392.140296 kJ/mol
# Density = 2.028282 g / cm^3
# Si number density = 20.329086 Si / 1000 Ang^3
#
#
#
# Elastic Constant Matrix: (Units=GPa)
#
#
# Indices 1 2 3 4 5 6 
#
# 1 107.2171 24.4051 46.4293 0.0000 0.0000 0.0000
# 2 24.4051 107.2171 46.4293 0.0000 0.0000 0.0000
# 3 46.4293 46.4293 179.2238 0.0000 0.0000 0.0000
# 4 0.0000 0.0000 0.0000 32.7838 0.0000 0.0000
# 5 0.0000 0.0000 0.0000 0.0000 32.7838 0.0000
# 6 0.0000 0.0000 0.0000 0.0000 0.0000 23.8535
#
#
#
# Elastic Compliance Matrix: (Units=1/GPa)
#
#
# Indices 1 2 3 4 5 6 
#
# 1 0.010686 -0.001389 -0.002408 0.000000 0.000000 0.000000
# 2 -0.001389 0.010686 -0.002408 0.000000 0.000000 0.000000
# 3 -0.002408 -0.002408 0.006827 0.000000 0.000000 0.000000
# 4 0.000000 0.000000 0.000000 0.030503 0.000000 0.000000
# 5 0.000000 0.000000 0.000000 0.000000 0.030503 0.000000
# 6 0.000000 0.000000 0.000000 0.000000 0.000000 0.041923
#
#
# Mechanical properties :
#
#
# Convention : Reuss Voigt Hill
#
# Bulk Modulus (GPa) = 63.34256 69.79840 66.57048
# Shear Modulus (GPa) = 33.60156 36.31050 34.95603
#
# Velocity S-wave (km/s) = 4.06997 4.23085 4.15119
# Velocity P-wave (km/s) = 7.30154 7.63385 7.46954
#
# Compressibility (1/GPa) = 0.01578717
#
# Stress axis : x y z
#
# Youngs Moduli (GPa) = 93.57989 93.57989 146.46821
#
# Poissons Ratio (x) = 0.13003 0.35275
# Poissons Ratio (y) = 0.13003 0.35275
# Poissons Ratio (z) = 0.22537 0.22537
#
# Static dielectric constant tensor:
#      x y z
#    x 3.603960 0.000000 0.000000 
#    y 0.000000 3.603960 0.000000 
#    z 0.000000 0.000000 3.771280 
# 
# 
# High freq. dielectric constant tensor:
#      x y z
#    x 1.787590 0.000000 0.000000 
#    y 0.000000 1.787590 0.000000 
#    z 0.000000 0.000000 1.812540 
# 
# From -- ./inp_files/2686.got.cif
#   From: 2010.03.12/outbox.cif.g09.slc.cpg/sg133_2_cif.got.tgz:2686.got - 2010.04.06 18:08:06.
