data_PCOD8316269
_publ_section_title
;
Structure prediction by ZEFSAII (Michael W. Deem and Ramdas Pophale) SiO2 
 PCOD8316269
Probable space group: P 42/M M C
;
_chemical_formula_sum "Si O2"
_cell_formula_units_Z 104
_cell_length_a 17.554626
_cell_length_b 17.554626
_cell_length_c 17.326062
_cell_angle_alpha 90.000000
_cell_angle_beta 90.000000
_cell_angle_gamma 90.000000
_cell_volume 5339.284060
_symmetry_space_group_name_H-M "P 42/M M C"
_symmetry_group_IT_number 131
_symmetry_cell_setting 'tetragonal'
loop_
_space_group_symop_operation_xyz
x,y,z
-x,-y,z
-y,x,1/2+z
y,-x,1/2+z
-x,y,-z
x,-y,-z
y,x,1/2-z
-y,-x,1/2-z
-x,-y,-z
x,y,-z
y,-x,1/2-z
-y,x,1/2-z
x,-y,z
-x,y,z
-y,-x,1/2+z
y,x,1/2+z
loop_
_atom_site_type_symbol
_atom_site_label
_atom_site_fract_x
_atom_site_fract_y
_atom_site_fract_z
Si Si1 0.702025 0.913305 0.586399
Si Si2 0.588232 0.793248 0.647350
Si Si3 0.410903 0.917037 0.083814
Si Si4 0.793875 0.910882 0.263735
Si Si5 0.654676 0.664896 0.911187
Si Si6 0.500000 0.586231 0.091663
Si Si7 0.333738 0.806727 0.806388
O O1 0.731777 0.893487 0.500000
O O2 0.627995 0.864302 0.606133
O O3 0.770508 0.899389 0.646768
O O4 0.674029 0.000000 0.591593
O O5 0.500000 0.812964 0.656266
O O6 0.598413 0.717473 0.595752
O O7 0.626194 0.776756 0.729809
O O8 0.500000 0.923617 0.076564
O O9 0.394155 0.857468 0.149477
O O10 0.376956 0.000000 0.106044
O O11 0.377661 0.891611 0.000000
O O12 0.879799 0.879799 0.250000
O O13 0.740477 0.857915 0.209980
O O14 0.789380 0.000000 0.239792
O O15 0.574191 0.632621 0.879684
O O16 0.686453 0.734768 0.859928
O O17 0.646585 0.690976 0.000000
O O18 0.500000 0.500000 0.125954
O O19 0.500000 0.580628 0.000000
#
# Coordination Sequence:
#
# PCOD8316269 Si02
#       7
#    16  16  16  16  16   8  16
#     4   9  19  37  60  85 114 150 190 230 276 334
#     4  11  23  36  54  80 113 148 183 233 293 347
#     4   9  18  32  52  79 111 148 188 231 279 335
#     4  10  21  38  61  87 116 150 187 232 285 342
#     4  11  23  38  59  81 106 147 197 245 293 346
#     4   9  20  38  58  80 105 139 192 253 299 339
#     4  11  21  37  55  81 113 148 185 232 284 351
#
# _framework density 19.478266999999999
#
# number of rings (size 3 to 8) (size 9 to 14) (size 15 to 20)
#    0.000    1.923    0.000    5.077    2.154    2.923 
#    0.000    1.538    0.000    2.308    0.000    2.154 
#    0.000    0.000    0.000    0.000    0.000    0.000 
#
# Total GULP energy -1289338.128485 kJ/mol
# GULP energy per Si atom -12397.482005 kJ/mol
# Density = 1.943393 g / cm^3
# Si number density = 19.478267 Si / 1000 Ang^3
#
#
#
# Elastic Constant Matrix: (Units=GPa)
#
#
# Indices 1 2 3 4 5 6 
#
# 1 108.0140 51.5997 41.6382 0.0000 0.0000 0.0000
# 2 51.5997 108.0140 41.6382 0.0000 0.0000 0.0000
# 3 41.6382 41.6382 92.6670 0.0000 0.0000 0.0000
# 4 0.0000 0.0000 0.0000 39.1694 0.0000 0.0000
# 5 0.0000 0.0000 0.0000 0.0000 39.1694 0.0000
# 6 0.0000 0.0000 0.0000 0.0000 0.0000 28.7919
#
#
#
# Elastic Compliance Matrix: (Units=1/GPa)
#
#
# Indices 1 2 3 4 5 6 
#
# 1 0.012955 -0.004771 -0.003677 0.000000 0.000000 0.000000
# 2 -0.004771 0.012955 -0.003677 0.000000 0.000000 0.000000
# 3 -0.003677 -0.003677 0.014096 0.000000 0.000000 0.000000
# 4 0.000000 0.000000 0.000000 0.025530 0.000000 0.000000
# 5 0.000000 0.000000 0.000000 0.000000 0.025530 0.000000
# 6 0.000000 0.000000 0.000000 0.000000 0.000000 0.034732
#
#
# Mechanical properties :
#
#
# Convention : Reuss Voigt Hill
#
# Bulk Modulus (GPa) = 63.47404 64.27192 63.87298
# Shear Modulus (GPa) = 32.19570 33.01408 32.60489
#
# Velocity S-wave (km/s) = 4.07000 4.12141 4.09578
# Velocity P-wave (km/s) = 7.39895 7.46434 7.43171
#
# Compressibility (1/GPa) = 0.01575447
#
# Stress axis : x y z
#
# Youngs Moduli (GPa) = 77.19129 77.19129 70.94273
#
# Poissons Ratio (x) = 0.36829 0.26087
# Poissons Ratio (y) = 0.36829 0.26087
# Poissons Ratio (z) = 0.28385 0.28385
#
# Static dielectric constant tensor:
#      x y z
#    x 3.562120 0.000000 0.000000 
#    y 0.000000 3.562120 0.000000 
#    z 0.000000 0.000000 3.704040 
# 
# 
# High freq. dielectric constant tensor:
#      x y z
#    x 1.753780 0.000000 0.000000 
#    y 0.000000 1.753780 0.000000 
#    z 0.000000 0.000000 1.761150 
# 
# From -- ./inp_files/8074.got.cif
#   From: 2010.03.12/outbox.cif.g09.slc.cpg/sg131_5_cif.got.tgz:8074.got - 2010.04.06 17:36:35.
