data_PCOD8316252
_publ_section_title
;
Structure prediction by ZEFSAII (Michael W. Deem and Ramdas Pophale) SiO2 
 PCOD8316252
Probable space group: P 42/M M C
;
_chemical_formula_sum "Si O2"
_cell_formula_units_Z 96
_cell_length_a 23.857382
_cell_length_b 23.857382
_cell_length_c 8.981705
_cell_angle_alpha 90.000000
_cell_angle_beta 90.000000
_cell_angle_gamma 90.000000
_cell_volume 5112.159032
_symmetry_space_group_name_H-M "P 42/M M C"
_symmetry_group_IT_number 131
_symmetry_cell_setting 'tetragonal'
loop_
_space_group_symop_operation_xyz
x,y,z
-x,-y,z
-y,x,1/2+z
y,-x,1/2+z
-x,y,-z
x,-y,-z
y,x,1/2-z
-y,-x,1/2-z
-x,-y,-z
x,y,-z
y,-x,1/2-z
-y,x,1/2-z
x,-y,z
-x,y,z
-y,-x,1/2+z
y,x,1/2+z
loop_
_atom_site_type_symbol
_atom_site_label
_atom_site_fract_x
_atom_site_fract_y
_atom_site_fract_z
Si Si1 0.357695 0.866842 0.171554
Si Si2 0.065376 0.561224 0.162296
Si Si3 0.564994 0.648470 0.673178
Si Si4 0.235279 0.435780 0.675563
Si Si5 0.064598 0.853118 0.329724
Si Si6 0.064125 0.735816 0.175064
O O1 0.403067 0.915233 0.197347
O O2 0.388928 0.810117 0.226869
O O3 0.304167 0.885956 0.266830
O O4 0.340282 0.863204 0.000000
O O5 0.093239 0.500000 0.172998
O O6 0.000000 0.555239 0.173705
O O7 0.081423 0.588304 0.000000
O O8 0.599323 0.599323 0.750000
O O9 0.579780 0.650356 0.500000
O O10 0.500000 0.635397 0.701876
O O11 0.581794 0.707902 0.743081
O O12 0.244603 0.431900 0.500000
O O13 0.217750 0.500000 0.718930
O O14 0.098253 0.901748 0.250000
O O15 0.084051 0.847347 0.500000
O O16 0.076390 0.794892 0.249230
O O17 0.000000 0.870078 0.318051
O O18 0.000000 0.715201 0.214246
O O19 0.070607 0.742196 0.000000
#
# Coordination Sequence:
#
# PCOD8316252 Si02
#       6
#    16  16  16  16  16  16
#     4  11  21  32  50  76 104 138 183 229 274 326
#     4   9  18  31  45  64  94 132 174 223 278 330
#     4  10  21  37  59  86 113 142 175 212 259 315
#     4   9  19  36  55  76 107 145 182 224 273 321
#     4  10  21  38  61  88 117 147 179 218 266 321
#     4  10  21  37  56  78 108 147 188 230 277 326
#
# _framework density 18.778756999999999
#
# number of rings (size 3 to 8) (size 9 to 14) (size 15 to 20)
#    0.000    2.167    0.000    3.500    0.000    8.000 
#    0.000    5.000    0.000    4.000    0.000    0.000 
#    0.000    0.000    0.000    0.000    0.000    0.000 
#
# Total GULP energy -1189822.550163 kJ/mol
# GULP energy per Si atom -12393.984898 kJ/mol
# Density = 1.873602 g / cm^3
# Si number density = 18.778757 Si / 1000 Ang^3
#
#
#
# Elastic Constant Matrix: (Units=GPa)
#
#
# Indices 1 2 3 4 5 6 
#
# 1 96.9135 69.8045 56.7852 0.0000 0.0000 0.0000
# 2 69.8045 96.9010 56.7845 0.0000 0.0000 0.0000
# 3 56.7852 56.7845 90.0622 0.0000 0.0000 0.0000
# 4 0.0000 0.0000 0.0000 28.8629 0.0000 0.0000
# 5 0.0000 0.0000 0.0000 0.0000 28.8631 0.0000
# 6 0.0000 0.0000 0.0000 0.0000 0.0000 36.6148
#
#
#
# Elastic Compliance Matrix: (Units=1/GPa)
#
#
# Indices 1 2 3 4 5 6 
#
# 1 0.023703 -0.013191 -0.006628 0.000000 0.000000 0.000000
# 2 -0.013191 0.023708 -0.006631 0.000000 0.000000 0.000000
# 3 -0.006628 -0.006631 0.019463 0.000000 0.000000 0.000000
# 4 0.000000 0.000000 0.000000 0.034647 0.000000 0.000000
# 5 0.000000 0.000000 0.000000 0.000000 0.034646 0.000000
# 6 0.000000 0.000000 0.000000 0.000000 0.000000 0.027311
#
#
# Mechanical properties :
#
#
# Convention : Reuss Voigt Hill
#
# Bulk Modulus (GPa) = 71.55907 72.29168 71.92538
# Shear Modulus (GPa) = 22.62063 25.56834 24.09448
#
# Velocity S-wave (km/s) = 3.47448 3.69393 3.58588
# Velocity P-wave (km/s) = 7.36784 7.53482 7.45180
#
# Compressibility (1/GPa) = 0.01397447
#
# Stress axis : x y z
#
# Youngs Moduli (GPa) = 42.18808 42.18013 51.37835
#
# Poissons Ratio (x) = 0.55640 0.34055
# Poissons Ratio (y) = 0.55650 0.34068
# Poissons Ratio (z) = 0.27964 0.27969
#
# Static dielectric constant tensor:
#      x y z
#    x 3.203370 0.000000 0.000000 
#    y 0.000000 3.203180 0.000000 
#    z 0.000000 0.000000 3.594670 
# 
# 
# High freq. dielectric constant tensor:
#      x y z
#    x 1.722190 0.000000 0.000000 
#    y 0.000000 1.722190 0.000000 
#    z 0.000000 0.000000 1.737850 
# 
# From -- ./inp_files/2218.got.cif
#   From: 2010.03.12/outbox.cif.g09.slc.cpg/sg131_2_cif.got.tgz:2218.got - 2010.04.06 17:36:35.
