data_PCOD8316570
_publ_section_title
;
Structure prediction by ZEFSAII (Michael W. Deem and Ramdas Pophale) SiO2 
 PCOD8316570
Probable space group: P 42/M C M
;
_chemical_formula_sum "Si O2"
_cell_formula_units_Z 68
_cell_length_a 12.318364
_cell_length_b 12.318364
_cell_length_c 23.604074
_cell_angle_alpha 90.000000
_cell_angle_beta 90.000000
_cell_angle_gamma 90.000000
_cell_volume 3581.731560
_symmetry_space_group_name_H-M "P 42/M C M"
_symmetry_group_IT_number 132
_symmetry_cell_setting 'tetragonal'
loop_
_space_group_symop_operation_xyz
x,y,z
-y,x,1/2+z
-x,-y,z
y,-x,1/2+z
x,-y,1/2-z
-x,y,1/2-z
y,x,-z
-y,-x,-z
-x,-y,-z
y,-x,1/2-z
x,y,-z
-y,x,1/2-z
-x,y,1/2+z
x,-y,1/2+z
-y,-x,z
y,x,z
loop_
_atom_site_type_symbol
_atom_site_label
_atom_site_fract_x
_atom_site_fract_y
_atom_site_fract_z
Si Si1 0.797066 0.202935 0.500000
Si Si2 0.086225 0.086225 0.102304
Si Si3 0.194156 0.632960 0.807487
Si Si4 0.989335 0.693038 0.877511
Si Si5 0.033216 0.373311 0.000000
Si Si6 0.217069 0.608629 0.678588
O O1 0.851636 0.148365 0.553570
O O2 0.668525 0.163377 0.500000
O O3 0.024379 0.179277 0.138408
O O4 0.000000 0.000000 0.079009
O O5 0.274672 0.725329 0.830335
O O6 0.079497 0.641681 0.837827
O O7 0.174460 0.644046 0.740458
O O8 0.248701 0.517687 0.822363
O O9 0.877175 0.629872 0.866713
O O10 0.021567 0.677191 0.943626
O O11 0.000000 0.500000 0.000000
O O12 0.323739 0.676262 0.661304
#
# Coordination Sequence:
#
# PCOD8316570 Si02
#       6
#     4   8  16  16   8  16
#     4   8  19  32  48  74 104 140 179 220 271 328
#     4  10  19  32  52  74 107 141 172 218 269 323
#     4  10  21  35  56  80 108 144 181 226 277 328
#     4  11  20  36  54  80 111 142 184 227 274 330
#     4  10  20  33  53  80 109 144 186 231 277 329
#     4  10  20  36  56  80 108 142 183 227 275 328
#
# _framework density 18.985229
#
# number of rings (size 3 to 8) (size 9 to 14) (size 15 to 20)
#    0.000    1.882    1.176    3.706    0.000    2.353 
#    0.000    4.118    0.000    0.000    0.000    0.000 
#    0.000    5.647    0.000    0.000    0.000    0.000 
#
# Total GULP energy -842689.761907 kJ/mol
# GULP energy per Si atom -12392.496499 kJ/mol
# Density = 1.894202 g / cm^3
# Si number density = 18.985229 Si / 1000 Ang^3
#
#
#
# Elastic Constant Matrix: (Units=GPa)
#
#
# Indices 1 2 3 4 5 6 
#
# 1 95.1067 45.4488 15.4871 0.0000 0.0000 0.0000
# 2 45.4488 95.1067 15.4871 0.0000 0.0000 0.0000
# 3 15.4871 15.4871 54.3778 0.0000 0.0000 0.0000
# 4 0.0000 0.0000 0.0000 29.2997 0.0000 0.0000
# 5 0.0000 0.0000 0.0000 0.0000 29.3001 0.0000
# 6 0.0000 0.0000 0.0000 0.0000 0.0000 29.4780
#
#
#
# Elastic Compliance Matrix: (Units=1/GPa)
#
#
# Indices 1 2 3 4 5 6 
#
# 1 0.013864 -0.006273 -0.002162 0.000000 0.000000 0.000000
# 2 -0.006273 0.013864 -0.002162 0.000000 0.000000 0.000000
# 3 -0.002162 -0.002162 0.019621 0.000000 0.000000 0.000000
# 4 0.000000 0.000000 0.000000 0.034130 0.000000 0.000000
# 5 0.000000 0.000000 0.000000 0.000000 0.034130 0.000000
# 6 0.000000 0.000000 0.000000 0.000000 0.000000 0.033924
#
#
# Mechanical properties :
#
#
# Convention : Reuss Voigt Hill
#
# Bulk Modulus (GPa) = 38.23280 44.15969 41.19625
# Shear Modulus (GPa) = 27.86348 28.82680 28.34514
#
# Velocity S-wave (km/s) = 3.83513 3.90087 3.86814
# Velocity P-wave (km/s) = 6.30816 6.60300 6.45726
#
# Compressibility (1/GPa) = 0.02615555
#
# Stress axis : x y z
#
# Youngs Moduli (GPa) = 72.12714 72.12710 50.96494
#
# Poissons Ratio (x) = 0.45248 0.11018
# Poissons Ratio (y) = 0.45248 0.11019
# Poissons Ratio (z) = 0.15594 0.15594
#
# Static dielectric constant tensor:
#      x y z
#    x 3.613350 0.000000 0.000000 
#    y 0.000000 3.613340 0.000000 
#    z 0.000000 0.000000 3.493930 
# 
# 
# High freq. dielectric constant tensor:
#      x y z
#    x 1.731820 0.000000 0.000000 
#    y 0.000000 1.731820 0.000000 
#    z 0.000000 0.000000 1.732460 
# 
# From -- ./inp_files/9821.got.cif
#   From: 2010.03.12/outbox.cif.g09.slc.cpg/sg132_5_cif.got.tgz:9821.got - 2010.04.06 17:53:44.
