data_PCOD8316609
_publ_section_title
;
Structure prediction by ZEFSAII (Michael W. Deem and Ramdas Pophale) SiO2 
 PCOD8316609
Probable space group: P 42/M C M
;
_chemical_formula_sum "Si O2"
_cell_formula_units_Z 96
_cell_length_a 23.577421
_cell_length_b 23.577421
_cell_length_c 8.895204
_cell_angle_alpha 90.000000
_cell_angle_beta 90.000000
_cell_angle_gamma 90.000000
_cell_volume 4944.797480
_symmetry_space_group_name_H-M "P 42/M C M"
_symmetry_group_IT_number 132
_symmetry_cell_setting 'tetragonal'
loop_
_space_group_symop_operation_xyz
x,y,z
-y,x,1/2+z
-x,-y,z
y,-x,1/2+z
x,-y,1/2-z
-x,y,1/2-z
y,x,-z
-y,-x,-z
-x,-y,-z
y,-x,1/2-z
x,y,-z
-y,x,1/2-z
-x,y,1/2+z
x,-y,1/2+z
-y,-x,z
y,x,z
loop_
_atom_site_type_symbol
_atom_site_label
_atom_site_fract_x
_atom_site_fract_y
_atom_site_fract_z
Si Si1 0.393426 0.051993 0.835652
Si Si2 0.754099 0.382171 0.320757
Si Si3 0.443595 0.850363 0.177678
Si Si4 0.946626 0.736064 0.163304
Si Si5 0.820700 0.270631 0.676635
Si Si6 0.348842 0.561396 0.826687
O O1 0.394045 0.107383 0.729967
O O2 0.328661 0.035950 0.861692
O O3 0.424505 0.000000 0.750000
O O4 0.421963 0.062474 0.000000
O O5 0.750139 0.382494 0.500000
O O6 0.790160 0.434826 0.257820
O O7 0.784086 0.324131 0.260445
O O8 0.692106 0.392421 0.252855
O O9 0.500000 0.877376 0.250000
O O10 0.446372 0.843869 0.000000
O O11 0.884298 0.738114 0.245334
O O12 0.000000 0.765425 0.250000
O O13 0.942337 0.766298 0.000000
O O14 0.828322 0.281916 0.500000
O O15 0.786284 0.213717 0.712925
O O16 0.347560 0.500000 0.750000
O O17 0.412024 0.587977 0.814110
O O18 0.330568 0.554158 0.000000
#
# Coordination Sequence:
#
# PCOD8316609 Si02
#       6
#    16  16  16  16  16  16
#     4  10  19  34  52  74 101 135 179 227 276 327
#     4  11  21  38  60  84 113 145 182 223 273 333
#     4  12  24  37  53  74 102 140 183 231 279 326
#     4   9  17  31  51  76 107 143 183 222 267 322
#     4   9  17  31  54  83 112 144 183 225 266 318
#     4  11  25  44  65  90 117 144 179 223 275 338
#
# _framework density 19.414342999999999
#
# number of rings (size 3 to 8) (size 9 to 14) (size 15 to 20)
#    0.000    1.667    1.667    4.000    0.000    3.167 
#    0.000    2.500    0.000    2.500    0.000    0.000 
#    0.000    0.333    0.000    4.167    0.000    0.000 
#
# Total GULP energy -1189588.421037 kJ/mol
# GULP energy per Si atom -12391.546052 kJ/mol
# Density = 1.937016 g / cm^3
# Si number density = 19.414343 Si / 1000 Ang^3
#
#
#
# Elastic Constant Matrix: (Units=GPa)
#
#
# Indices 1 2 3 4 5 6 
#
# 1 93.3587 40.6479 38.2146 0.0000 0.0000 0.0000
# 2 40.6479 93.3587 38.2146 0.0000 0.0000 0.0000
# 3 38.2146 38.2146 107.6195 0.0000 0.0000 0.0000
# 4 0.0000 0.0000 0.0000 21.9800 0.0000 0.0000
# 5 0.0000 0.0000 0.0000 0.0000 21.9800 0.0000
# 6 0.0000 0.0000 0.0000 0.0000 0.0000 12.8530
#
#
#
# Elastic Compliance Matrix: (Units=1/GPa)
#
#
# Indices 1 2 3 4 5 6 
#
# 1 0.014164 -0.004807 -0.003323 0.000000 0.000000 0.000000
# 2 -0.004807 0.014164 -0.003323 0.000000 0.000000 0.000000
# 3 -0.003323 -0.003323 0.011652 0.000000 0.000000 0.000000
# 4 0.000000 0.000000 0.000000 0.045496 0.000000 0.000000
# 5 0.000000 0.000000 0.000000 0.000000 0.045496 0.000000
# 6 0.000000 0.000000 0.000000 0.000000 0.000000 0.077803
#
#
# Mechanical properties :
#
#
# Convention : Reuss Voigt Hill
#
# Bulk Modulus (GPa) = 58.56293 58.72123 58.64208
# Shear Modulus (GPa) = 21.06402 23.17994 22.12198
#
# Velocity S-wave (km/s) = 3.29746 3.45912 3.37926
# Velocity P-wave (km/s) = 6.68790 6.80191 6.74514
#
# Compressibility (1/GPa) = 0.01707565
#
# Stress axis : x y z
#
# Youngs Moduli (GPa) = 70.59942 70.59942 85.82420
#
# Poissons Ratio (x) = 0.33937 0.28517
# Poissons Ratio (y) = 0.33937 0.28517
# Poissons Ratio (z) = 0.23458 0.23458
#
# Static dielectric constant tensor:
#      x y z
#    x 3.427380 0.000000 0.000000 
#    y 0.000000 3.427380 0.000000 
#    z 0.000000 0.000000 3.672710 
# 
# 
# High freq. dielectric constant tensor:
#      x y z
#    x 1.737200 0.000000 0.000000 
#    y 0.000000 1.737200 0.000000 
#    z 0.000000 0.000000 1.747180 
# 
# From -- ./inp_files/1709.got.cif
#   From: 2010.03.12/outbox.cif.g09.slc.cpg/sg132_1_cif.got.tgz:1709.got - 2010.04.06 17:53:44.
