data_PCOD8316447
_publ_section_title
;
Structure prediction by ZEFSAII (Michael W. Deem and Ramdas Pophale) SiO2 
 PCOD8316447
Probable space group: P 42/M C M
;
_chemical_formula_sum "Si O2"
_cell_formula_units_Z 96
_cell_length_a 24.793008
_cell_length_b 24.793008
_cell_length_c 9.062452
_cell_angle_alpha 90.000000
_cell_angle_beta 90.000000
_cell_angle_gamma 90.000000
_cell_volume 5570.628034
_symmetry_space_group_name_H-M "P 42/M C M"
_symmetry_group_IT_number 132
_symmetry_cell_setting 'tetragonal'
loop_
_space_group_symop_operation_xyz
x,y,z
-y,x,1/2+z
-x,-y,z
y,-x,1/2+z
x,-y,1/2-z
-x,y,1/2-z
y,x,-z
-y,-x,-z
-x,-y,-z
y,-x,1/2-z
x,y,-z
-y,x,1/2-z
-x,y,1/2+z
x,-y,1/2+z
-y,-x,z
y,x,z
loop_
_atom_site_type_symbol
_atom_site_label
_atom_site_fract_x
_atom_site_fract_y
_atom_site_fract_z
Si Si1 0.337713 0.139963 0.169141
Si Si2 0.449508 0.262549 0.337059
Si Si3 0.349589 0.266248 0.163667
Si Si4 0.776470 0.863854 0.324889
Si Si5 0.554218 0.865995 0.668716
Si Si6 0.944051 0.143851 0.669621
O O1 0.343452 0.203263 0.172320
O O2 0.282916 0.128704 0.257282
O O3 0.390918 0.114138 0.247888
O O4 0.334167 0.118583 0.000000
O O5 0.500000 0.285715 0.250000
O O6 0.455466 0.284485 0.500000
O O7 0.395375 0.287829 0.271824
O O8 0.447518 0.198179 0.329548
O O9 0.293160 0.293160 0.210853
O O10 0.366801 0.283641 0.000000
O O11 0.772283 0.870513 0.500000
O O12 0.806755 0.806755 0.285928
O O13 0.810072 0.912563 0.257137
O O14 0.500000 0.888288 0.750000
O O15 0.555039 0.887487 0.500000
O O16 0.952444 0.162119 0.500000
O O17 0.912039 0.087961 0.676737
O O18 0.000000 0.133658 0.750000
#
# Coordination Sequence:
#
# PCOD8316447 Si02
#       6
#    16  16  16  16  16  16
#     4  10  18  28  43  63  89 123 160 195 234 281
#     4   9  16  25  37  51  69  96 130 168 210 257
#     4   9  17  27  38  54  78 107 138 173 212 256
#     4  10  20  33  49  70  98 131 166 204 245 291
#     4   9  16  26  39  57  82 114 153 195 237 279
#     4  10  21  37  57  80 106 136 169 206 248 293
#
# _framework density 17.233245
#
# number of rings (size 3 to 8) (size 9 to 14) (size 15 to 20)
#    0.000    2.500    0.000    3.000    0.000    7.833 
#    0.000    0.833    0.000    0.000    0.000    0.000 
#    0.000    1.000    0.000   10.167    0.000    6.167 
#
# Total GULP energy -1189744.255658 kJ/mol
# GULP energy per Si atom -12393.169330 kJ/mol
# Density = 1.719402 g / cm^3
# Si number density = 17.233245 Si / 1000 Ang^3
#
#
#
# Elastic Constant Matrix: (Units=GPa)
#
#
# Indices 1 2 3 4 5 6 
#
# 1 79.8317 18.4265 49.3678 0.0000 0.0000 0.0000
# 2 18.4265 79.8317 49.3678 0.0000 0.0000 0.0000
# 3 49.3678 49.3678 143.0700 0.0000 0.0000 0.0000
# 4 0.0000 0.0000 0.0000 35.3078 0.0000 0.0000
# 5 0.0000 0.0000 0.0000 0.0000 35.3078 0.0000
# 6 0.0000 0.0000 0.0000 0.0000 0.0000 9.6964
#
#
#
# Elastic Compliance Matrix: (Units=1/GPa)
#
#
# Indices 1 2 3 4 5 6 
#
# 1 0.015932 -0.000353 -0.005376 0.000000 0.000000 0.000000
# 2 -0.000353 0.015932 -0.005376 0.000000 0.000000 0.000000
# 3 -0.005376 -0.005376 0.010700 0.000000 0.000000 0.000000
# 4 0.000000 0.000000 0.000000 0.028322 0.000000 0.000000
# 5 0.000000 0.000000 0.000000 0.000000 0.028322 0.000000
# 6 0.000000 0.000000 0.000000 0.000000 0.000000 0.103131
#
#
# Mechanical properties :
#
#
# Convention : Reuss Voigt Hill
#
# Bulk Modulus (GPa) = 49.12850 59.67308 54.40079
# Shear Modulus (GPa) = 21.61377 28.43381 25.02379
#
# Velocity S-wave (km/s) = 3.54530 4.06635 3.81473
# Velocity P-wave (km/s) = 6.73266 7.53318 7.14414
#
# Compressibility (1/GPa) = 0.02035479
#
# Stress axis : x y z
#
# Youngs Moduli (GPa) = 62.76600 62.76600 93.46228
#
# Poissons Ratio (x) = 0.02216 0.50243
# Poissons Ratio (y) = 0.02216 0.50243
# Poissons Ratio (z) = 0.33741 0.33741
#
# Static dielectric constant tensor:
#      x y z
#    x 3.083960 0.000000 0.000000 
#    y 0.000000 3.083960 0.000000 
#    z 0.000000 0.000000 3.553630 
# 
# 
# High freq. dielectric constant tensor:
#      x y z
#    x 1.637160 0.000000 0.000000 
#    y 0.000000 1.637160 0.000000 
#    z 0.000000 0.000000 1.686590 
# 
# From -- ./inp_files/1697.got.cif
#   From: 2010.03.12/outbox.cif.g09.slc.cpg/sg132_1_cif.got.tgz:1697.got - 2010.04.06 17:53:44.
