data_PCOD8316396
_publ_section_title
;
Structure prediction by ZEFSAII (Michael W. Deem and Ramdas Pophale) SiO2 
 PCOD8316396
Probable space group: P 42/M M C
;
_chemical_formula_sum "Si O2"
_cell_formula_units_Z 48
_cell_length_a 7.710521
_cell_length_b 7.710521
_cell_length_c 38.461249
_cell_angle_alpha 90.000000
_cell_angle_beta 90.000000
_cell_angle_gamma 90.000000
_cell_volume 2286.603333
_symmetry_space_group_name_H-M "P 42/M M C"
_symmetry_group_IT_number 131
_symmetry_cell_setting 'tetragonal'
loop_
_space_group_symop_operation_xyz
x,y,z
-x,-y,z
-y,x,1/2+z
y,-x,1/2+z
-x,y,-z
x,-y,-z
y,x,1/2-z
-y,-x,1/2-z
-x,-y,-z
x,y,-z
y,-x,1/2-z
-y,x,1/2-z
x,-y,z
-x,y,z
-y,-x,1/2+z
y,x,1/2+z
loop_
_atom_site_type_symbol
_atom_site_label
_atom_site_fract_x
_atom_site_fract_y
_atom_site_fract_z
Si Si1 0.294775 0.193134 0.000000
Si Si2 0.691863 0.301097 0.925654
Si Si3 0.000000 0.708497 0.879342
Si Si4 0.000000 0.702888 0.198092
Si Si5 0.701204 0.701204 0.750000
O O1 0.230899 0.285809 0.964773
O O2 0.500000 0.197477 0.000000
O O3 0.219634 0.000000 0.000000
O O4 0.670601 0.500000 0.916107
O O5 0.500000 0.211688 0.922311
O O6 0.828590 0.217360 0.898724
O O7 0.000000 0.786032 0.840284
O O8 0.000000 0.500000 0.880557
O O9 0.824346 0.757797 0.218120
O O10 0.000000 0.500000 0.193153
O O11 0.732114 0.500000 0.739353
#
# Coordination Sequence:
#
# PCOD8316396 Si02
#       5
#     8  16   8   8   8
#     4   9  17  30  49  68  93 133 172 211 255 296
#     4   9  17  30  49  72  98 130 169 210 253 301
#     4   9  18  31  49  76 103 128 162 208 255 300
#     4   9  18  33  54  80 108 134 170 213 256 317
#     4   9  18  33  56  82 106 137 174 213 260 314
#
# _framework density 20.991835999999999
#
# number of rings (size 3 to 8) (size 9 to 14) (size 15 to 20)
#    0.000    3.000    0.000    0.500    0.000    4.333 
#    0.000   10.833    7.333    0.000    0.000    0.000 
#    0.000    0.000    0.000    0.000    0.000    0.000 
#
# Total GULP energy -594749.323764 kJ/mol
# GULP energy per Si atom -12390.610912 kJ/mol
# Density = 2.094406 g / cm^3
# Si number density = 20.991836 Si / 1000 Ang^3
#
#
#
# Elastic Constant Matrix: (Units=GPa)
#
#
# Indices 1 2 3 4 5 6 
#
# 1 79.3409 25.8203 60.3860 0.0000 0.0000 0.0000
# 2 25.8203 79.3409 60.3860 0.0000 0.0000 0.0000
# 3 60.3860 60.3860 207.4320 0.0000 0.0000 0.0000
# 4 0.0000 0.0000 0.0000 -6.3727 0.0000 0.0000
# 5 0.0000 0.0000 0.0000 0.0000 -6.3727 0.0000
# 6 0.0000 0.0000 0.0000 0.0000 0.0000 4.5691
#
#
#
# Elastic Compliance Matrix: (Units=1/GPa)
#
#
# Indices 1 2 3 4 5 6 
#
# 1 0.016485 -0.002200 -0.004159 0.000000 0.000000 0.000000
# 2 -0.002200 0.016485 -0.004159 0.000000 0.000000 0.000000
# 3 -0.004159 -0.004159 0.007242 0.000000 0.000000 0.000000
# 4 0.000000 0.000000 0.000000 -0.156920 0.000000 0.000000
# 5 0.000000 0.000000 0.000000 0.000000 -0.156920 0.000000
# 6 0.000000 0.000000 0.000000 0.000000 0.000000 0.218861
#
#
# Mechanical properties :
#
#
# Convention : Reuss Voigt Hill
#
# Bulk Modulus (GPa) = 52.14305 73.25537 62.69921
# Shear Modulus (GPa) = -182.86861 12.99952 -84.93455
#
# Velocity S-wave (km/s) = -9.34362 2.49120 -6.36778
# Velocity P-wave (km/s) = 9.56613 6.57629 4.91239
#
# Compressibility (1/GPa) = 0.01917801
#
# Stress axis : x y z
#
# Youngs Moduli (GPa) = 60.66210 60.66210 138.08186
#
# Poissons Ratio (x) = 0.13344 0.57422
# Poissons Ratio (y) = 0.13344 0.57422
# Poissons Ratio (z) = 0.25227 0.25227
#
# Static dielectric constant tensor:
#      x y z
#    x 3.723990 0.000000 0.000000 
#    y 0.000000 3.723990 0.000000 
#    z 0.000000 0.000000 4.070270 
# 
# 
# High freq. dielectric constant tensor:
#      x y z
#    x 1.805040 0.000000 0.000000 
#    y 0.000000 1.805040 0.000000 
#    z 0.000000 0.000000 1.813970 
# 
# From -- ./inp_files/13027.got.cif
#   From: 2010.03.12/outbox.cif.g09.slc.cpg/sg131_7_cif.got.tgz:13027.got - 2010.04.06 17:36:35.
