data_PCOD8316597
_publ_section_title
;
Structure prediction by ZEFSAII (Michael W. Deem and Ramdas Pophale) SiO2 
 PCOD8316597
Probable space group: P 42/M C M
;
_chemical_formula_sum "Si O2"
_cell_formula_units_Z 48
_cell_length_a 9.674606
_cell_length_b 9.674606
_cell_length_c 27.340767
_cell_angle_alpha 90.000000
_cell_angle_beta 90.000000
_cell_angle_gamma 90.000000
_cell_volume 2559.041144
_symmetry_space_group_name_H-M "P 42/M C M"
_symmetry_group_IT_number 132
_symmetry_cell_setting 'tetragonal'
loop_
_space_group_symop_operation_xyz
x,y,z
-y,x,1/2+z
-x,-y,z
y,-x,1/2+z
x,-y,1/2-z
-x,y,1/2-z
y,x,-z
-y,-x,-z
-x,-y,-z
y,-x,1/2-z
x,y,-z
-y,x,1/2-z
-x,y,1/2+z
x,-y,1/2+z
-y,-x,z
y,x,z
loop_
_atom_site_type_symbol
_atom_site_label
_atom_site_fract_x
_atom_site_fract_y
_atom_site_fract_z
Si Si1 0.322685 0.095910 0.098836
Si Si2 0.775831 0.007020 0.196993
Si Si3 0.819572 0.598040 0.556424
O O1 0.186312 0.186312 0.088938
O O2 0.329075 0.037365 0.154198
O O3 0.460075 0.186171 0.089443
O O4 0.321925 0.965323 0.062332
O O5 0.900772 0.900772 0.199687
O O6 0.699150 0.000000 0.250000
O O7 0.840514 0.159486 0.186150
O O8 0.801882 0.556615 0.500000
O O9 0.695540 0.695540 0.574123
#
# Coordination Sequence:
#
# PCOD8316597 Si02
#       3
#    16  16  16
#     4  10  19  33  55  78  99 130 174 214 248 299
#     4   8  14  26  47  77 108 132 159 203 257 306
#     4  10  22  37  50  71 106 140 170 211 261 306
#
# _framework density 18.757024999999999
#
# number of rings (size 3 to 8) (size 9 to 14) (size 15 to 20)
#    0.000    2.667    0.000    4.000    0.000    5.333 
#    0.000    6.667    0.000    0.000    0.000    0.000 
#    0.000   21.333    0.000    0.000    0.000    0.000 
#
# Total GULP energy -594917.714460 kJ/mol
# GULP energy per Si atom -12394.119051 kJ/mol
# Density = 1.871433 g / cm^3
# Si number density = 18.757025 Si / 1000 Ang^3
#
#
#
# Elastic Constant Matrix: (Units=GPa)
#
#
# Indices 1 2 3 4 5 6 
#
# 1 69.0806 33.4267 44.1692 0.0000 0.0000 0.0000
# 2 33.4267 69.0806 44.1692 0.0000 0.0000 0.0000
# 3 44.1692 44.1692 100.4710 0.0000 0.0000 0.0000
# 4 0.0000 0.0000 0.0000 29.5635 0.0000 0.0000
# 5 0.0000 0.0000 0.0000 0.0000 29.5635 0.0000
# 6 0.0000 0.0000 0.0000 0.0000 0.0000 35.3606
#
#
#
# Elastic Compliance Matrix: (Units=1/GPa)
#
#
# Indices 1 2 3 4 5 6 
#
# 1 0.021876 -0.006171 -0.006904 0.000000 0.000000 0.000000
# 2 -0.006171 0.021876 -0.006904 0.000000 0.000000 0.000000
# 3 -0.006904 -0.006904 0.016024 0.000000 0.000000 0.000000
# 4 0.000000 0.000000 0.000000 0.033825 0.000000 0.000000
# 5 0.000000 0.000000 0.000000 0.000000 0.033825 0.000000
# 6 0.000000 0.000000 0.000000 0.000000 0.000000 0.028280
#
#
# Mechanical properties :
#
#
# Convention : Reuss Voigt Hill
#
# Bulk Modulus (GPa) = 50.46182 53.57358 52.01770
# Shear Modulus (GPa) = 24.71903 26.68867 25.70385
#
# Velocity S-wave (km/s) = 3.63416 3.77618 3.70585
# Velocity P-wave (km/s) = 6.67614 6.90192 6.78997
#
# Compressibility (1/GPa) = 0.01981696
#
# Stress axis : x y z
#
# Youngs Moduli (GPa) = 45.71119 45.71119 62.40702
#
# Poissons Ratio (x) = 0.28208 0.43089
# Poissons Ratio (y) = 0.28208 0.43089
# Poissons Ratio (z) = 0.31561 0.31561
#
# Static dielectric constant tensor:
#      x y z
#    x 3.304300 0.000000 0.000000 
#    y 0.000000 3.304300 0.000000 
#    z 0.000000 0.000000 3.839120 
# 
# 
# High freq. dielectric constant tensor:
#      x y z
#    x 1.708740 0.000000 0.000000 
#    y 0.000000 1.708740 0.000000 
#    z 0.000000 0.000000 1.735700 
# 
# From -- ./inp_files/10220.got.cif
#   From: 2010.03.12/outbox.cif.g09.slc.cpg/sg132_6_cif.got.tgz:10220.got - 2010.04.06 17:53:44.
