data_PCOD8316207
_publ_section_title
;
Structure prediction by ZEFSAII (Michael W. Deem and Ramdas Pophale) SiO2 
 PCOD8316207
Probable space group: P 42/M M C
;
_chemical_formula_sum "Si O2"
_cell_formula_units_Z 64
_cell_length_a 14.254190
_cell_length_b 14.254190
_cell_length_c 14.822665
_cell_angle_alpha 90.000000
_cell_angle_beta 90.000000
_cell_angle_gamma 90.000000
_cell_volume 3011.697720
_symmetry_space_group_name_H-M "P 42/M M C"
_symmetry_group_IT_number 131
_symmetry_cell_setting 'tetragonal'
loop_
_space_group_symop_operation_xyz
x,y,z
-x,-y,z
-y,x,1/2+z
y,-x,1/2+z
-x,y,-z
x,-y,-z
y,x,1/2-z
-y,-x,1/2-z
-x,-y,-z
x,y,-z
y,-x,1/2-z
-y,x,1/2-z
x,-y,z
-x,y,z
-y,-x,1/2+z
y,x,1/2+z
loop_
_atom_site_type_symbol
_atom_site_label
_atom_site_fract_x
_atom_site_fract_y
_atom_site_fract_z
Si Si1 0.103300 0.303587 0.099760
Si Si2 0.605056 0.759303 0.742597
Si Si3 0.138719 0.898242 0.852336
Si Si4 0.894676 0.353682 0.604896
O O1 0.177978 0.341706 0.169499
O O2 0.097523 0.190143 0.094812
O O3 0.000000 0.341174 0.126871
O O4 0.130281 0.339695 0.000000
O O5 0.662798 0.662798 0.750000
O O6 0.500000 0.734284 0.709617
O O7 0.593004 0.816426 0.836402
O O8 0.106573 0.893428 0.750000
O O9 0.249756 0.893413 0.857239
O O10 0.105474 0.000000 0.892050
O O11 0.864939 0.358512 0.500000
O O12 0.000000 0.396155 0.616868
#
# Coordination Sequence:
#
# PCOD8316207 Si02
#       4
#    16  16  16  16
#     4  11  23  40  64  95 132 174 217 256 304 373
#     4  12  26  45  68  92 122 161 209 268 330 389
#     4  11  20  33  58  92 133 179 218 254 297 358
#     4  10  20  37  65  97 126 159 203 254 311 377
#
# _framework density 21.250473
#
# number of rings (size 3 to 8) (size 9 to 14) (size 15 to 20)
#    0.000    1.000    5.000    2.250    0.000    6.500 
#    0.000    3.750    0.000    0.000    0.000    3.500 
#    0.000    0.000    0.000    0.000    0.000    0.000 
#
# Total GULP energy -793143.427627 kJ/mol
# GULP energy per Si atom -12392.866057 kJ/mol
# Density = 2.120211 g / cm^3
# Si number density = 21.250473 Si / 1000 Ang^3
#
#
#
# Elastic Constant Matrix: (Units=GPa)
#
#
# Indices 1 2 3 4 5 6 
#
# 1 126.0405 38.5851 43.6429 0.0000 0.0000 0.0000
# 2 38.5851 126.0406 43.6419 0.0000 0.0000 0.0000
# 3 43.6429 43.6419 86.0788 0.0000 0.0000 0.0000
# 4 0.0000 0.0000 0.0000 7.7389 0.0000 0.0000
# 5 0.0000 0.0000 0.0000 0.0000 7.7389 0.0000
# 6 0.0000 0.0000 0.0000 0.0000 0.0000 -24.8838
#
#
#
# Elastic Compliance Matrix: (Units=1/GPa)
#
#
# Indices 1 2 3 4 5 6 
#
# 1 0.009871 -0.001563 -0.004212 0.000000 0.000000 0.000000
# 2 -0.001563 0.009871 -0.004212 0.000000 0.000000 0.000000
# 3 -0.004212 -0.004212 0.015888 0.000000 0.000000 0.000000
# 4 0.000000 0.000000 0.000000 0.129218 0.000000 0.000000
# 5 0.000000 0.000000 0.000000 0.000000 0.129217 0.000000
# 6 0.000000 0.000000 0.000000 0.000000 0.000000 -0.040187
#
#
# Mechanical properties :
#
#
# Convention : Reuss Voigt Hill
#
# Bulk Modulus (GPa) = 63.87538 65.54440 64.70989
# Shear Modulus (GPa) = 17.91654 12.27148 15.09401
#
# Velocity S-wave (km/s) = 2.90679 2.40566 2.66802
# Velocity P-wave (km/s) = 6.43347 6.21506 6.32521
#
# Compressibility (1/GPa) = 0.01565548
#
# Stress axis : x y z
#
# Youngs Moduli (GPa) = 101.30640 101.30751 62.93960
#
# Poissons Ratio (x) = 0.15838 0.26511
# Poissons Ratio (y) = 0.15838 0.26509
# Poissons Ratio (z) = 0.42671 0.42670
#
# Static dielectric constant tensor:
#      x y z
#    x 3.785080 0.000000 0.000000 
#    y 0.000000 3.785060 0.000000 
#    z 0.000000 0.000000 3.843310 
# 
# 
# High freq. dielectric constant tensor:
#      x y z
#    x 1.820120 0.000000 0.000000 
#    y 0.000000 1.820120 0.000000 
#    z 0.000000 0.000000 1.836130 
# 
# From -- ./inp_files/5426.got.cif
#   From: 2010.03.12/outbox.cif.g09.slc.cpg/sg131_3_cif.got.tgz:5426.got - 2010.04.06 17:36:35.
