data_PCOD8316142
_publ_section_title
;
Structure prediction by ZEFSAII (Michael W. Deem and Ramdas Pophale) SiO2 
 PCOD8316142
Probable space group: P 42/M M C
;
_chemical_formula_sum "Si O2"
_cell_formula_units_Z 88
_cell_length_a 14.483707
_cell_length_b 14.483707
_cell_length_c 22.505389
_cell_angle_alpha 90.000000
_cell_angle_beta 90.000000
_cell_angle_gamma 90.000000
_cell_volume 4721.130283
_symmetry_space_group_name_H-M "P 42/M M C"
_symmetry_group_IT_number 131
_symmetry_cell_setting 'tetragonal'
loop_
_space_group_symop_operation_xyz
x,y,z
-x,-y,z
-y,x,1/2+z
y,-x,1/2+z
-x,y,-z
x,-y,-z
y,x,1/2-z
-y,-x,1/2-z
-x,-y,-z
x,y,-z
y,-x,1/2-z
-y,x,1/2-z
x,-y,z
-x,y,z
-y,-x,1/2+z
y,x,1/2+z
loop_
_atom_site_type_symbol
_atom_site_label
_atom_site_fract_x
_atom_site_fract_y
_atom_site_fract_z
Si Si1 0.105359 0.744874 0.760836
Si Si2 0.109044 0.602390 0.664266
Si Si3 0.397651 0.604473 0.570465
Si Si4 0.401285 0.106926 0.500000
Si Si5 0.264717 0.895056 0.396839
Si Si6 0.784819 0.293559 0.430252
O O1 0.162135 0.837866 0.750000
O O2 0.145793 0.664979 0.718637
O O3 0.111264 0.707045 0.828145
O O4 0.000000 0.769382 0.744531
O O5 0.150298 0.500000 0.672583
O O6 0.139821 0.643044 0.601246
O O7 0.000000 0.598930 0.665058
O O8 0.399067 0.606723 0.500000
O O9 0.375031 0.500000 0.592081
O O10 0.500000 0.633865 0.594360
O O11 0.317331 0.674370 0.592528
O O12 0.500000 0.159598 0.500000
O O13 0.349051 0.133945 0.560252
O O14 0.419764 0.000000 0.500000
O O15 0.192288 0.813283 0.411536
O O16 0.228928 0.000000 0.411873
O O17 0.797032 0.307451 0.500000
#
# Coordination Sequence:
#
# PCOD8316142 Si02
#       6
#    16  16  16   8  16  16
#     4  10  20  37  61  84 111 144 185 233 284 338
#     4  10  22  39  58  82 112 145 186 236 283 328
#     4   8  15  28  45  69 102 137 176 222 267 316
#     4   9  18  32  50  78 116 151 184 224 276 341
#     4  10  20  34  53  80 114 149 182 228 283 338
#     4  11  20  32  55  81 109 149 188 228 280 337
#
# _framework density 18.639605
#
# number of rings (size 3 to 8) (size 9 to 14) (size 15 to 20)
#    0.000    2.273    2.727    1.091    0.000    3.091 
#    0.000    4.545    0.000    0.545    0.000    1.273 
#    0.000    0.000    0.000    0.000    0.000    0.000 
#
# Total GULP energy -1090430.597827 kJ/mol
# GULP energy per Si atom -12391.256793 kJ/mol
# Density = 1.859718 g / cm^3
# Si number density = 18.639605 Si / 1000 Ang^3
#
#
#
# Elastic Constant Matrix: (Units=GPa)
#
#
# Indices 1 2 3 4 5 6 
#
# 1 74.7058 32.3544 35.3351 0.0000 0.0000 0.0000
# 2 32.3544 74.7017 35.3344 0.0000 0.0000 0.0000
# 3 35.3351 35.3344 108.2519 0.0000 0.0000 0.0000
# 4 0.0000 0.0000 0.0000 21.7018 0.0000 0.0000
# 5 0.0000 0.0000 0.0000 0.0000 21.7021 0.0000
# 6 0.0000 0.0000 0.0000 0.0000 0.0000 22.0741
#
#
#
# Elastic Compliance Matrix: (Units=1/GPa)
#
#
# Indices 1 2 3 4 5 6 
#
# 1 0.017759 -0.005854 -0.003886 0.000000 0.000000 0.000000
# 2 -0.005854 0.017760 -0.003886 0.000000 0.000000 0.000000
# 3 -0.003886 -0.003886 0.011775 0.000000 0.000000 0.000000
# 4 0.000000 0.000000 0.000000 0.046079 0.000000 0.000000
# 5 0.000000 0.000000 0.000000 0.000000 0.046079 0.000000
# 6 0.000000 0.000000 0.000000 0.000000 0.000000 0.045302
#
#
# Mechanical properties :
#
#
# Convention : Reuss Voigt Hill
#
# Bulk Modulus (GPa) = 49.89580 51.52303 50.70941
# Shear Modulus (GPa) = 22.86380 23.40464 23.13422
#
# Velocity S-wave (km/s) = 3.50612 3.54735 3.52679
# Velocity P-wave (km/s) = 6.57399 6.66933 6.62183
#
# Compressibility (1/GPa) = 0.02004177
#
# Stress axis : x y z
#
# Youngs Moduli (GPa) = 56.30926 56.30590 84.92729
#
# Poissons Ratio (x) = 0.32959 0.33004
# Poissons Ratio (y) = 0.32961 0.33006
# Poissons Ratio (z) = 0.21883 0.21883
#
# Static dielectric constant tensor:
#      x y z
#    x 3.642940 0.000000 0.000000 
#    y 0.000000 3.642950 0.000000 
#    z 0.000000 0.000000 3.373320 
# 
# 
# High freq. dielectric constant tensor:
#      x y z
#    x 1.718000 0.000000 0.000000 
#    y 0.000000 1.718000 0.000000 
#    z 0.000000 0.000000 1.709000 
# 
# From -- ./inp_files/9615.got.cif
#   From: 2010.03.12/outbox.cif.g09.slc.cpg/sg131_5_cif.got.tgz:9615.got - 2010.04.06 17:36:35.
