data_PCOD8316233
_publ_section_title
;
Structure prediction by ZEFSAII (Michael W. Deem and Ramdas Pophale) SiO2 
 PCOD8316233
Probable space group: P 42/M M C
;
_chemical_formula_sum "Si O2"
_cell_formula_units_Z 96
_cell_length_a 24.199051
_cell_length_b 24.199051
_cell_length_c 9.264374
_cell_angle_alpha 90.000000
_cell_angle_beta 90.000000
_cell_angle_gamma 90.000000
_cell_volume 5425.162470
_symmetry_space_group_name_H-M "P 42/M M C"
_symmetry_group_IT_number 131
_symmetry_cell_setting 'tetragonal'
loop_
_space_group_symop_operation_xyz
x,y,z
-x,-y,z
-y,x,1/2+z
y,-x,1/2+z
-x,y,-z
x,-y,-z
y,x,1/2-z
-y,-x,1/2-z
-x,-y,-z
x,y,-z
y,-x,1/2-z
-y,x,1/2-z
x,-y,z
-x,y,z
-y,-x,1/2+z
y,x,1/2+z
loop_
_atom_site_type_symbol
_atom_site_label
_atom_site_fract_x
_atom_site_fract_y
_atom_site_fract_z
Si Si1 0.642320 0.151707 0.671048
Si Si2 0.063586 0.856892 0.168779
Si Si3 0.061406 0.438964 0.827996
Si Si4 0.359757 0.435475 0.662362
Si Si5 0.749731 0.563276 0.168056
Si Si6 0.232394 0.153016 0.330280
O O1 0.644079 0.147335 0.500000
O O2 0.608782 0.100013 0.737424
O O3 0.607755 0.205172 0.718667
O O4 0.704953 0.150221 0.730307
O O5 0.091604 0.908396 0.250000
O O6 0.095840 0.799818 0.204958
O O7 0.000000 0.850345 0.219379
O O8 0.066974 0.870071 0.000000
O O9 0.081389 0.500000 0.777668
O O10 0.000000 0.427471 0.770227
O O11 0.062804 0.437096 0.000000
O O12 0.409799 0.409799 0.750000
O O13 0.358010 0.411883 0.500000
O O14 0.370443 0.500000 0.662175
O O15 0.302968 0.420211 0.739557
O O16 0.769198 0.500000 0.199314
O O17 0.735436 0.569885 0.000000
O O18 0.203719 0.203719 0.250000
O O19 0.231442 0.165414 0.500000
#
# Coordination Sequence:
#
# PCOD8316233 Si02
#       6
#    16  16  16  16  16  16
#     4   9  16  26  43  66  90 122 162 195 228 275
#     4   9  18  32  49  69  93 121 152 187 229 275
#     4   8  13  21  35  60  95 127 151 182 227 274
#     4  10  21  36  53  73  97 124 155 192 235 285
#     4   9  17  30  48  69  95 126 159 197 238 277
#     4   9  18  32  47  64  90 121 152 188 228 269
#
# _framework density 17.695321
#
# number of rings (size 3 to 8) (size 9 to 14) (size 15 to 20)
#    0.000    3.000    0.000    1.500    0.000    5.000 
#    0.000    7.500    0.000    0.000    0.000    0.000 
#    0.000    2.000    0.000   11.833    0.000   11.000 
#
# Total GULP energy -1189975.084390 kJ/mol
# GULP energy per Si atom -12395.573796 kJ/mol
# Density = 1.765505 g / cm^3
# Si number density = 17.695321 Si / 1000 Ang^3
#
#
#
# Elastic Constant Matrix: (Units=GPa)
#
#
# Indices 1 2 3 4 5 6 
#
# 1 130.3919 78.6007 33.5210 0.0000 0.0000 0.0000
# 2 78.6007 130.3907 33.5210 0.0000 0.0000 0.0000
# 3 33.5210 33.5210 42.4871 0.0000 0.0000 0.0000
# 4 0.0000 0.0000 0.0000 16.8814 0.0000 0.0000
# 5 0.0000 0.0000 0.0000 0.0000 16.8815 0.0000
# 6 0.0000 0.0000 0.0000 0.0000 0.0000 16.5715
#
#
#
# Elastic Compliance Matrix: (Units=1/GPa)
#
#
# Indices 1 2 3 4 5 6 
#
# 1 0.012857 -0.006451 -0.005054 0.000000 0.000000 0.000000
# 2 -0.006451 0.012857 -0.005054 0.000000 0.000000 0.000000
# 3 -0.005054 -0.005054 0.031512 0.000000 0.000000 0.000000
# 4 0.000000 0.000000 0.000000 0.059237 0.000000 0.000000
# 5 0.000000 0.000000 0.000000 0.000000 0.059237 0.000000
# 6 0.000000 0.000000 0.000000 0.000000 0.000000 0.060344
#
#
# Mechanical properties :
#
#
# Convention : Reuss Voigt Hill
#
# Bulk Modulus (GPa) = 41.48151 66.06167 53.77159
# Shear Modulus (GPa) = 18.03755 20.57536 19.30646
#
# Velocity S-wave (km/s) = 3.19617 3.41362 3.30669
# Velocity P-wave (km/s) = 6.09210 7.27674 6.71061
#
# Compressibility (1/GPa) = 0.02410713
#
# Stress axis : x y z
#
# Youngs Moduli (GPa) = 77.77686 77.77597 31.73404
#
# Poissons Ratio (x) = 0.50174 0.16039
# Poissons Ratio (y) = 0.50175 0.16040
# Poissons Ratio (z) = 0.39310 0.39311
#
# Static dielectric constant tensor:
#      x y z
#    x 3.449330 0.000000 0.000000 
#    y 0.000000 3.449330 0.000000 
#    z 0.000000 0.000000 2.988020 
# 
# 
# High freq. dielectric constant tensor:
#      x y z
#    x 1.688970 0.000000 0.000000 
#    y 0.000000 1.688970 0.000000 
#    z 0.000000 0.000000 1.644440 
# 
# From -- ./inp_files/2298.got.cif
#   From: 2010.03.12/outbox.cif.g09.slc.cpg/sg131_2_cif.got.tgz:2298.got - 2010.04.06 17:36:35.
