data_PCOD8316755
_publ_section_title
;
Structure prediction by ZEFSAII (Michael W. Deem and Ramdas Pophale) SiO2 
 PCOD8316755
Probable space group: P 42/M C M
;
_chemical_formula_sum "Si O2"
_cell_formula_units_Z 64
_cell_length_a 12.739978
_cell_length_b 12.739978
_cell_length_c 19.587897
_cell_angle_alpha 90.000000
_cell_angle_beta 90.000000
_cell_angle_gamma 90.000000
_cell_volume 3179.253571
_symmetry_space_group_name_H-M "P 42/M C M"
_symmetry_group_IT_number 132
_symmetry_cell_setting 'tetragonal'
loop_
_space_group_symop_operation_xyz
x,y,z
-y,x,1/2+z
-x,-y,z
y,-x,1/2+z
x,-y,1/2-z
-x,y,1/2-z
y,x,-z
-y,-x,-z
-x,-y,-z
y,-x,1/2-z
x,y,-z
-y,x,1/2-z
-x,y,1/2+z
x,-y,1/2+z
-y,-x,z
y,x,z
loop_
_atom_site_type_symbol
_atom_site_label
_atom_site_fract_x
_atom_site_fract_y
_atom_site_fract_z
Si Si1 0.587910 0.249405 0.803056
Si Si2 0.074020 0.242099 0.314741
Si Si3 0.732196 0.563692 0.077384
Si Si4 0.034520 0.384446 0.922224
O O1 0.500000 0.219146 0.750000
O O2 0.639884 0.360117 0.783287
O O3 0.671780 0.158800 0.795274
O O4 0.542267 0.259954 0.879127
O O5 0.132994 0.132994 0.334239
O O6 0.000000 0.221454 0.250000
O O7 0.010504 0.287259 0.379199
O O8 0.639826 0.639826 0.104640
O O9 0.840496 0.627434 0.082006
O O10 0.709590 0.528419 0.000000
O O11 0.000000 0.500000 0.893852
O O12 0.993514 0.373362 0.000000
#
# Coordination Sequence:
#
# PCOD8316755 Si02
#       4
#    16  16  16  16
#     4  11  23  37  55  82 116 158 203 245 295 360
#     4  11  25  41  62  91 123 162 207 259 313 365
#     4  10  21  37  59  89 121 154 196 246 304 370
#     4  10  20  38  65  91 119 160 205 254 309 368
#
# _framework density 20.130512
#
# number of rings (size 3 to 8) (size 9 to 14) (size 15 to 20)
#    0.000    1.500    2.500    2.250    0.000    6.000 
#    0.000    3.750    0.000    0.000    0.000    5.250 
#    0.000    0.000    0.000    0.000    0.000    0.000 
#
# Total GULP energy -793614.974494 kJ/mol
# GULP energy per Si atom -12400.233976 kJ/mol
# Density = 2.008469 g / cm^3
# Si number density = 20.130512 Si / 1000 Ang^3
#
#
#
# Elastic Constant Matrix: (Units=GPa)
#
#
# Indices 1 2 3 4 5 6 
#
# 1 59.4004 39.7222 23.0974 0.0000 0.0000 0.0000
# 2 39.7222 59.4004 23.0974 0.0000 0.0000 0.0000
# 3 23.0974 23.0974 77.9338 0.0000 0.0000 0.0000
# 4 0.0000 0.0000 0.0000 22.6845 0.0000 0.0000
# 5 0.0000 0.0000 0.0000 0.0000 22.6845 0.0000
# 6 0.0000 0.0000 0.0000 0.0000 0.0000 26.7552
#
#
#
# Elastic Compliance Matrix: (Units=1/GPa)
#
#
# Indices 1 2 3 4 5 6 
#
# 1 0.031261 -0.019556 -0.003469 0.000000 0.000000 0.000000
# 2 -0.019556 0.031261 -0.003469 0.000000 0.000000 0.000000
# 3 -0.003469 -0.003469 0.014888 0.000000 0.000000 0.000000
# 4 0.000000 0.000000 0.000000 0.044083 0.000000 0.000000
# 5 0.000000 0.000000 0.000000 0.000000 0.044083 0.000000
# 6 0.000000 0.000000 0.000000 0.000000 0.000000 0.037376
#
#
# Mechanical properties :
#
#
# Convention : Reuss Voigt Hill
#
# Bulk Modulus (GPa) = 40.94710 40.95208 40.94959
# Shear Modulus (GPa) = 18.93351 21.81267 20.37309
#
# Velocity S-wave (km/s) = 3.07015 3.29532 3.18473
# Velocity P-wave (km/s) = 5.74044 5.90477 5.82319
#
# Compressibility (1/GPa) = 0.02442175
#
# Stress axis : x y z
#
# Youngs Moduli (GPa) = 31.98823 31.98823 67.16948
#
# Poissons Ratio (x) = 0.62557 0.23302
# Poissons Ratio (y) = 0.62557 0.23302
# Poissons Ratio (z) = 0.11097 0.11097
#
# Static dielectric constant tensor:
#      x y z
#    x 3.769840 0.000000 0.000000 
#    y 0.000000 3.769840 0.000000 
#    z 0.000000 0.000000 3.688710 
# 
# 
# High freq. dielectric constant tensor:
#      x y z
#    x 1.783570 0.000000 0.000000 
#    y 0.000000 1.783570 0.000000 
#    z 0.000000 0.000000 1.787780 
# 
# From -- ./inp_files/7432.got.cif
#   From: 2010.03.12/outbox.cif.g09.slc.cpg/sg132_4_cif.got.tgz:7432.got - 2010.04.06 17:53:44.
