data_PCOD8316523
_publ_section_title
;
Structure prediction by ZEFSAII (Michael W. Deem and Ramdas Pophale) SiO2 
 PCOD8316523
Probable space group: P 42/M C M
;
_chemical_formula_sum "Si O2"
_cell_formula_units_Z 64
_cell_length_a 24.107225
_cell_length_b 24.107225
_cell_length_c 7.669967
_cell_angle_alpha 90.000000
_cell_angle_beta 90.000000
_cell_angle_gamma 90.000000
_cell_volume 4457.464961
_symmetry_space_group_name_H-M "P 42/M C M"
_symmetry_group_IT_number 132
_symmetry_cell_setting 'tetragonal'
loop_
_space_group_symop_operation_xyz
x,y,z
-y,x,1/2+z
-x,-y,z
y,-x,1/2+z
x,-y,1/2-z
-x,y,1/2-z
y,x,-z
-y,-x,-z
-x,-y,-z
y,-x,1/2-z
x,y,-z
-y,x,1/2-z
-x,y,1/2+z
x,-y,1/2+z
-y,-x,z
y,x,z
loop_
_atom_site_type_symbol
_atom_site_label
_atom_site_fract_x
_atom_site_fract_y
_atom_site_fract_z
Si Si1 0.288676 0.618557 0.000000
Si Si2 0.146164 0.760558 0.305896
Si Si3 0.294257 0.799596 0.000000
Si Si4 0.653186 0.561865 0.199427
Si Si5 0.936221 0.850202 0.204059
O O1 0.297070 0.581934 0.174406
O O2 0.331686 0.668315 0.000000
O O3 0.227007 0.644326 0.000000
O O4 0.136992 0.735091 0.500000
O O5 0.194698 0.805303 0.314748
O O6 0.090956 0.791976 0.233438
O O7 0.162261 0.711648 0.172346
O O8 0.247285 0.752716 0.000000
O O9 0.635676 0.500000 0.250000
O O10 0.598738 0.598738 0.230182
O O11 0.674093 0.565956 0.000000
O O12 0.902719 0.902719 0.286720
O O13 0.000000 0.853974 0.250000
O O14 0.928053 0.852312 0.000000
#
# Coordination Sequence:
#
# PCOD8316523 Si02
#       5
#     8  16   8  16  16
#     4   9  18  30  41  62  85 101 139 179 207 251
#     4   8  15  27  40  56  76  97 128 168 206 248
#     4   9  16  26  44  61  75 101 130 166 211 249
#     4  10  19  30  44  60  83 115 147 182 213 237
#     4   9  18  29  39  54  76 103 138 178 212 247
#
# _framework density 14.357936
#
# number of rings (size 3 to 8) (size 9 to 14) (size 15 to 20)
#    0.000    3.000    1.250    1.500    1.750    2.000 
#    0.000    7.500    0.000    0.000    0.000    0.000 
#    0.000    0.000    0.000    0.000    0.000    3.750 
#
# Total GULP energy -793103.207111 kJ/mol
# GULP energy per Si atom -12392.237611 kJ/mol
# Density = 1.432526 g / cm^3
# Si number density = 14.357936 Si / 1000 Ang^3
#
#
#
# Elastic Constant Matrix: (Units=GPa)
#
#
# Indices 1 2 3 4 5 6 
#
# 1 57.6925 57.1761 42.3071 0.0000 0.0000 0.0000
# 2 57.1761 57.6923 42.3071 0.0000 0.0000 0.0000
# 3 42.3071 42.3071 100.0329 0.0000 0.0000 0.0000
# 4 0.0000 0.0000 0.0000 16.9889 0.0000 0.0000
# 5 0.0000 0.0000 0.0000 0.0000 16.9889 0.0000
# 6 0.0000 0.0000 0.0000 0.0000 0.0000 16.7276
#
#
#
# Elastic Compliance Matrix: (Units=1/GPa)
#
#
# Indices 1 2 3 4 5 6 
#
# 1 0.974832 -0.962190 -0.005347 0.000000 0.000000 0.000000
# 2 -0.962190 0.974837 -0.005349 0.000000 0.000000 0.000000
# 3 -0.005347 -0.005349 0.014520 0.000000 0.000000 0.000000
# 4 0.000000 0.000000 0.000000 0.058862 0.000000 0.000000
# 5 0.000000 0.000000 0.000000 0.000000 0.058862 0.000000
# 6 0.000000 0.000000 0.000000 0.000000 0.000000 0.059782
#
#
# Mechanical properties :
#
#
# Convention : Reuss Voigt Hill
#
# Bulk Modulus (GPa) = 54.29326 55.44425 54.86875
# Shear Modulus (GPa) = 1.22142 15.04956 8.13549
#
# Velocity S-wave (km/s) = 0.92333 3.24106 2.38296
# Velocity P-wave (km/s) = 6.24763 7.25986 6.77268
#
# Compressibility (1/GPa) = 0.01841849
#
# Stress axis : x y z
#
# Youngs Moduli (GPa) = 1.02582 1.02581 68.86873
#
# Poissons Ratio (x) = 0.98703 0.36826
# Poissons Ratio (y) = 0.98703 0.36835
# Poissons Ratio (z) = 0.00549 0.00549
#
# Static dielectric constant tensor:
#      x y z
#    x 2.519550 0.000000 0.000000 
#    y 0.000000 2.519560 0.000000 
#    z 0.000000 0.000000 3.109470 
# 
# 
# High freq. dielectric constant tensor:
#      x y z
#    x 1.510700 0.000000 0.000000 
#    y 0.000000 1.510700 0.000000 
#    z 0.000000 0.000000 1.566410 
# 
# From -- ./inp_files/1308.got.cif
#   From: 2010.03.12/outbox.cif.g09.slc.cpg/sg132_1_cif.got.tgz:1308.got - 2010.04.06 17:53:44.
