data_PCOD8316006
_publ_section_title
;
Structure prediction by ZEFSAII (Michael W. Deem and Ramdas Pophale) SiO2 
 PCOD8316006
Probable space group: P 42/M M C
;
_chemical_formula_sum "Si O2"
_cell_formula_units_Z 104
_cell_length_a 17.583922
_cell_length_b 17.583922
_cell_length_c 17.917909
_cell_angle_alpha 90.000000
_cell_angle_beta 90.000000
_cell_angle_gamma 90.000000
_cell_volume 5540.115562
_symmetry_space_group_name_H-M "P 42/M M C"
_symmetry_group_IT_number 131
_symmetry_cell_setting 'tetragonal'
loop_
_space_group_symop_operation_xyz
x,y,z
-x,-y,z
-y,x,1/2+z
y,-x,1/2+z
-x,y,-z
x,-y,-z
y,x,1/2-z
-y,-x,1/2-z
-x,-y,-z
x,y,-z
y,-x,1/2-z
-y,x,1/2-z
x,-y,z
-x,y,z
-y,-x,1/2+z
y,x,1/2+z
loop_
_atom_site_type_symbol
_atom_site_label
_atom_site_fract_x
_atom_site_fract_y
_atom_site_fract_z
Si Si1 0.169200 0.317350 0.703517
Si Si2 0.625236 0.199062 0.416101
Si Si3 0.083951 0.500000 0.911767
Si Si4 0.589270 0.293662 0.279863
Si Si5 0.834969 0.769442 0.153451
Si Si6 0.415143 0.910445 0.083139
Si Si7 0.089666 0.914393 0.085116
O O1 0.221284 0.386557 0.730761
O O2 0.128895 0.272131 0.773055
O O3 0.221484 0.255112 0.663955
O O4 0.111130 0.351809 0.643950
O O5 0.603678 0.222621 0.500000
O O6 0.572793 0.131086 0.384807
O O7 0.612795 0.273937 0.365355
O O8 0.710008 0.162351 0.414722
O O9 0.000000 0.500000 0.874163
O O10 0.074542 0.500000 0.000000
O O11 0.630946 0.369055 0.250000
O O12 0.500000 0.308294 0.272527
O O13 0.873812 0.850467 0.137802
O O14 0.500000 0.880134 0.104001
O O15 0.417039 0.000000 0.080694
O O16 0.392756 0.879809 0.000000
O O17 0.000000 0.905611 0.090997
O O18 0.113663 0.000000 0.111026
O O19 0.116488 0.901757 0.000000
#
# Coordination Sequence:
#
# PCOD8316006 Si02
#       7
#    16  16   8  16  16  16  16
#     4  10  20  37  54  80 114 148 186 233 291 348
#     4  10  19  34  58  87 119 158 191 234 292 344
#     4   9  18  32  52  84 121 153 190 229 277 349
#     4  11  21  39  61  83 115 150 190 234 282 352
#     4  10  20  35  56  81 113 150 194 243 288 352
#     4   9  19  36  57  82 113 150 193 240 291 349
#     4   9  19  36  56  80 113 153 198 248 301 351
#
# _framework density 18.772171
#
# number of rings (size 3 to 8) (size 9 to 14) (size 15 to 20)
#    0.000    2.231    3.846    1.846    0.000    3.231 
#    0.000    7.692    0.000    4.154    0.000    1.077 
#    0.000    0.000    0.000    0.000    0.000    0.000 
#
# Total GULP energy -1288563.318070 kJ/mol
# GULP energy per Si atom -12390.031905 kJ/mol
# Density = 1.872945 g / cm^3
# Si number density = 18.772171 Si / 1000 Ang^3
#
#
#
# Elastic Constant Matrix: (Units=GPa)
#
#
# Indices 1 2 3 4 5 6 
#
# 1 102.9252 46.1236 57.0252 0.0000 0.0000 0.0000
# 2 46.1236 102.9262 57.0244 0.0000 0.0000 0.0000
# 3 57.0252 57.0244 103.1982 0.0000 0.0000 0.0000
# 4 0.0000 0.0000 0.0000 28.1210 0.0000 0.0000
# 5 0.0000 0.0000 0.0000 0.0000 28.1211 0.0000
# 6 0.0000 0.0000 0.0000 0.0000 0.0000 32.0216
#
#
#
# Elastic Compliance Matrix: (Units=1/GPa)
#
#
# Indices 1 2 3 4 5 6 
#
# 1 0.014615 -0.002990 -0.006423 0.000000 0.000000 0.000000
# 2 -0.002990 0.014614 -0.006423 0.000000 0.000000 0.000000
# 3 -0.006423 -0.006423 0.016789 0.000000 0.000000 0.000000
# 4 0.000000 0.000000 0.000000 0.035561 0.000000 0.000000
# 5 0.000000 0.000000 0.000000 0.000000 0.035561 0.000000
# 6 0.000000 0.000000 0.000000 0.000000 0.000000 0.031229
#
#
# Mechanical properties :
#
#
# Convention : Reuss Voigt Hill
#
# Bulk Modulus (GPa) = 69.71502 69.93289 69.82395
# Shear Modulus (GPa) = 27.05295 27.57784 27.31540
#
# Velocity S-wave (km/s) = 3.80033 3.83702 3.81872
# Velocity P-wave (km/s) = 7.51496 7.54749 7.53125
#
# Compressibility (1/GPa) = 0.01434411
#
# Stress axis : x y z
#
# Youngs Moduli (GPa) = 68.42419 68.42589 59.56395
#
# Poissons Ratio (x) = 0.20462 0.38260
# Poissons Ratio (y) = 0.20462 0.38258
# Poissons Ratio (z) = 0.43951 0.43950
#
# Static dielectric constant tensor:
#      x y z
#    x 3.422150 0.000000 0.000000 
#    y 0.000000 3.422150 0.000000 
#    z 0.000000 0.000000 3.627900 
# 
# 
# High freq. dielectric constant tensor:
#      x y z
#    x 1.720330 0.000000 0.000000 
#    y 0.000000 1.720330 0.000000 
#    z 0.000000 0.000000 1.726100 
# 
# From -- ./inp_files/8066.got.cif
#   From: 2010.03.12/outbox.cif.g09.slc.cpg/sg131_5_cif.got.tgz:8066.got - 2010.04.06 17:36:35.
