data_PCOD8316603
_publ_section_title
;
Structure prediction by ZEFSAII (Michael W. Deem and Ramdas Pophale) SiO2 
 PCOD8316603
Probable space group: P 42/M C M
;
_chemical_formula_sum "Si O2"
_cell_formula_units_Z 96
_cell_length_a 24.245289
_cell_length_b 24.245289
_cell_length_c 8.728478
_cell_angle_alpha 90.000000
_cell_angle_beta 90.000000
_cell_angle_gamma 90.000000
_cell_volume 5130.896474
_symmetry_space_group_name_H-M "P 42/M C M"
_symmetry_group_IT_number 132
_symmetry_cell_setting 'tetragonal'
loop_
_space_group_symop_operation_xyz
x,y,z
-y,x,1/2+z
-x,-y,z
y,-x,1/2+z
x,-y,1/2-z
-x,y,1/2-z
y,x,-z
-y,-x,-z
-x,-y,-z
y,-x,1/2-z
x,y,-z
-y,x,1/2-z
-x,y,1/2+z
x,-y,1/2+z
-y,-x,z
y,x,z
loop_
_atom_site_type_symbol
_atom_site_label
_atom_site_fract_x
_atom_site_fract_y
_atom_site_fract_z
Si Si1 0.443106 0.352311 0.326241
Si Si2 0.147613 0.644132 0.317687
Si Si3 0.726821 0.639293 0.180889
Si Si4 0.059100 0.854508 0.320472
Si Si5 0.059268 0.559897 0.183203
Si Si6 0.146177 0.232071 0.817856
O O1 0.500000 0.368672 0.250000
O O2 0.452150 0.333574 0.500000
O O3 0.406095 0.406095 0.313673
O O4 0.416460 0.301478 0.236718
O O5 0.140433 0.636863 0.500000
O O6 0.210372 0.634856 0.262730
O O7 0.106385 0.602882 0.232141
O O8 0.135615 0.706188 0.259711
O O9 0.693253 0.693253 0.245214
O O10 0.725523 0.642284 0.000000
O O11 0.053867 0.848083 0.500000
O O12 0.087535 0.912466 0.276641
O O13 0.095857 0.804585 0.254631
O O14 0.000000 0.851627 0.250000
O O15 0.075023 0.500000 0.250000
O O16 0.000000 0.579082 0.250000
O O17 0.055646 0.556735 0.000000
O O18 0.204321 0.204321 0.761840
O O19 0.147383 0.232078 0.000000
#
# Coordination Sequence:
#
# PCOD8316603 Si02
#       6
#    16  16  16  16  16  16
#     4  10  21  36  54  76 104 139 177 220 268 314
#     4  10  19  33  57  86 110 137 175 213 254 310
#     4   9  18  33  54  80 110 143 178 217 259 305
#     4   9  18  32  49  70  98 133 172 214 258 302
#     4  11  23  41  61  80 106 138 173 215 264 313
#     4   8  15  30  52  77 106 139 174 213 256 304
#
# _framework density 18.710182
#
# number of rings (size 3 to 8) (size 9 to 14) (size 15 to 20)
#    0.000    2.500    0.000    4.000    0.000    5.667 
#    0.000    4.167    0.000    2.500    0.000    0.000 
#    0.000    0.000    0.000    0.000    0.000    0.000 
#
# Total GULP energy -1189919.695958 kJ/mol
# GULP energy per Si atom -12394.996833 kJ/mol
# Density = 1.866760 g / cm^3
# Si number density = 18.710182 Si / 1000 Ang^3
#
#
#
# Elastic Constant Matrix: (Units=GPa)
#
#
# Indices 1 2 3 4 5 6 
#
# 1 177.0868 32.4834 38.0448 0.0000 0.0000 0.0000
# 2 32.4834 177.0868 38.0448 0.0000 0.0000 0.0000
# 3 38.0448 38.0448 39.9064 0.0000 0.0000 0.0000
# 4 0.0000 0.0000 0.0000 22.6893 0.0000 0.0000
# 5 0.0000 0.0000 0.0000 0.0000 22.6893 0.0000
# 6 0.0000 0.0000 0.0000 0.0000 0.0000 28.7273
#
#
#
# Elastic Compliance Matrix: (Units=1/GPa)
#
#
# Indices 1 2 3 4 5 6 
#
# 1 0.007107 0.000191 -0.006957 0.000000 0.000000 0.000000
# 2 0.000191 0.007107 -0.006957 0.000000 0.000000 0.000000
# 3 -0.006957 -0.006957 0.038324 0.000000 0.000000 0.000000
# 4 0.000000 0.000000 0.000000 0.044074 0.000000 0.000000
# 5 0.000000 0.000000 0.000000 0.000000 0.044074 0.000000
# 6 0.000000 0.000000 0.000000 0.000000 0.000000 0.034810
#
#
# Mechanical properties :
#
#
# Convention : Reuss Voigt Hill
#
# Bulk Modulus (GPa) = 39.85588 67.91402 53.88495
# Shear Modulus (GPa) = 23.66249 33.85498 28.75873
#
# Velocity S-wave (km/s) = 3.56010 4.25837 3.92479
# Velocity P-wave (km/s) = 6.18442 7.78171 7.02858
#
# Compressibility (1/GPa) = 0.02509040
#
# Stress axis : x y z
#
# Youngs Moduli (GPa) = 140.71491 140.71491 26.09328
#
# Poissons Ratio (x) = -0.02689 0.18154
# Poissons Ratio (y) = -0.02689 0.18154
# Poissons Ratio (z) = 0.97899 0.97899
#
# Static dielectric constant tensor:
#      x y z
#    x 3.509000 0.000000 0.000000 
#    y 0.000000 3.509000 0.000000 
#    z 0.000000 0.000000 4.103640 
# 
# 
# High freq. dielectric constant tensor:
#      x y z
#    x 1.732850 0.000000 0.000000 
#    y 0.000000 1.732850 0.000000 
#    z 0.000000 0.000000 1.705160 
# 
# From -- ./inp_files/1775.got.cif
#   From: 2010.03.12/outbox.cif.g09.slc.cpg/sg132_1_cif.got.tgz:1775.got - 2010.04.06 17:53:44.
