data_PCOD8316442
_publ_section_title
;
Structure prediction by ZEFSAII (Michael W. Deem and Ramdas Pophale) SiO2 
 PCOD8316442
Probable space group: P 42/M C M
;
_chemical_formula_sum "Si O2"
_cell_formula_units_Z 64
_cell_length_a 21.453419
_cell_length_b 21.453419
_cell_length_c 9.096344
_cell_angle_alpha 90.000000
_cell_angle_beta 90.000000
_cell_angle_gamma 90.000000
_cell_volume 4186.584929
_symmetry_space_group_name_H-M "P 42/M C M"
_symmetry_group_IT_number 132
_symmetry_cell_setting 'tetragonal'
loop_
_space_group_symop_operation_xyz
x,y,z
-y,x,1/2+z
-x,-y,z
y,-x,1/2+z
x,-y,1/2-z
-x,y,1/2-z
y,x,-z
-y,-x,-z
-x,-y,-z
y,-x,1/2-z
x,y,-z
-y,x,1/2-z
-x,y,1/2+z
x,-y,1/2+z
-y,-x,z
y,x,z
loop_
_atom_site_type_symbol
_atom_site_label
_atom_site_fract_x
_atom_site_fract_y
_atom_site_fract_z
Si Si1 0.557765 0.274545 0.836766
Si Si2 0.641205 0.358796 0.334566
Si Si3 0.066218 0.564313 0.177701
Si Si4 0.830497 0.339486 0.162760
Si Si5 0.253500 0.253500 0.835576
O O1 0.500000 0.244266 0.750000
O O2 0.579847 0.335585 0.749232
O O3 0.612619 0.225659 0.845089
O O4 0.536658 0.293854 0.000000
O O5 0.623241 0.376760 0.500000
O O6 0.694002 0.305999 0.332710
O O7 0.091823 0.500000 0.250000
O O8 0.110001 0.622454 0.224283
O O9 0.000000 0.579588 0.250000
O O10 0.062658 0.556900 0.000000
O O11 0.809737 0.280040 0.259968
O O12 0.845325 0.313842 0.000000
O O13 0.234900 0.234900 0.000000
#
# Coordination Sequence:
#
# PCOD8316442 Si02
#       5
#    16   8  16  16   8
#     4  10  18  28  42  59  76  96 121 152 190 233
#     4   9  17  29  41  56  76  95 117 149 188 232
#     4  10  19  30  43  60  83 114 147 180 213 248
#     4   9  18  30  43  59  82 108 134 165 205 246
#     4   9  17  27  43  63  80 100 129 166 206 243
#
# _framework density 15.286922000000001
#
# number of rings (size 3 to 8) (size 9 to 14) (size 15 to 20)
#    0.000    2.500    0.000    3.750    0.000    6.000 
#    0.000    0.000    0.000    0.375    0.000    2.625 
#    0.000    0.000    0.000    0.000    0.000    0.625 
#
# Total GULP energy -793144.287358 kJ/mol
# GULP energy per Si atom -12392.879490 kJ/mol
# Density = 1.525213 g / cm^3
# Si number density = 15.286922 Si / 1000 Ang^3
#
#
#
# Elastic Constant Matrix: (Units=GPa)
#
#
# Indices 1 2 3 4 5 6 
#
# 1 55.3920 34.7592 36.9718 0.0000 0.0000 0.0000
# 2 34.7592 55.3920 36.9718 0.0000 0.0000 0.0000
# 3 36.9718 36.9718 117.5423 0.0000 0.0000 0.0000
# 4 0.0000 0.0000 0.0000 18.8724 0.0000 0.0000
# 5 0.0000 0.0000 0.0000 0.0000 18.8724 0.0000
# 6 0.0000 0.0000 0.0000 0.0000 0.0000 30.5482
#
#
#
# Elastic Compliance Matrix: (Units=1/GPa)
#
#
# Indices 1 2 3 4 5 6 
#
# 1 0.031708 -0.016759 -0.004702 0.000000 0.000000 0.000000
# 2 -0.016759 0.031708 -0.004702 0.000000 0.000000 0.000000
# 3 -0.004702 -0.004702 0.011466 0.000000 0.000000 0.000000
# 4 0.000000 0.000000 0.000000 0.052987 0.000000 0.000000
# 5 0.000000 0.000000 0.000000 0.000000 0.052987 0.000000
# 6 0.000000 0.000000 0.000000 0.000000 0.000000 0.032735
#
#
# Mechanical properties :
#
#
# Convention : Reuss Voigt Hill
#
# Bulk Modulus (GPa) = 44.33498 49.52575 46.93036
# Shear Modulus (GPa) = 18.28584 21.63351 19.95968
#
# Velocity S-wave (km/s) = 3.46233 3.76595 3.61733
# Velocity P-wave (km/s) = 6.71182 7.16782 6.94356
#
# Compressibility (1/GPa) = 0.02255555
#
# Stress axis : x y z
#
# Youngs Moduli (GPa) = 31.53795 31.53789 87.21745
#
# Poissons Ratio (x) = 0.52853 0.41011
# Poissons Ratio (y) = 0.52853 0.41011
# Poissons Ratio (z) = 0.14830 0.14830
#
# Static dielectric constant tensor:
#      x y z
#    x 2.769990 0.000000 0.000000 
#    y 0.000000 2.769990 0.000000 
#    z 0.000000 0.000000 3.295990 
# 
# 
# High freq. dielectric constant tensor:
#      x y z
#    x 1.550290 0.000000 0.000000 
#    y 0.000000 1.550290 0.000000 
#    z 0.000000 0.000000 1.606000 
# 
# From -- ./inp_files/1267.got.cif
#   From: 2010.03.12/outbox.cif.g09.slc.cpg/sg132_1_cif.got.tgz:1267.got - 2010.04.06 17:53:44.
