data_PCOD8316801
_publ_section_title
;
Structure prediction by ZEFSAII (Michael W. Deem and Ramdas Pophale) SiO2 
 PCOD8316801
Probable space group: P 42/M C M
;
_chemical_formula_sum "Si O2"
_cell_formula_units_Z 72
_cell_length_a 12.447466
_cell_length_b 12.447466
_cell_length_c 23.126155
_cell_angle_alpha 90.000000
_cell_angle_beta 90.000000
_cell_angle_gamma 90.000000
_cell_volume 3583.152807
_symmetry_space_group_name_H-M "P 42/M C M"
_symmetry_group_IT_number 132
_symmetry_cell_setting 'tetragonal'
loop_
_space_group_symop_operation_xyz
x,y,z
-y,x,1/2+z
-x,-y,z
y,-x,1/2+z
x,-y,1/2-z
-x,y,1/2-z
y,x,-z
-y,-x,-z
-x,-y,-z
y,-x,1/2-z
x,y,-z
-y,x,1/2-z
-x,y,1/2+z
x,-y,1/2+z
-y,-x,z
y,x,z
loop_
_atom_site_type_symbol
_atom_site_label
_atom_site_fract_x
_atom_site_fract_y
_atom_site_fract_z
Si Si1 0.108153 0.287209 0.372989
Si Si2 0.625554 0.204116 0.242599
Si Si3 0.815786 0.515836 0.567167
Si Si4 0.584618 0.584618 0.568840
Si Si5 0.696529 0.130605 0.635503
O O1 0.186134 0.186134 0.384840
O O2 0.133266 0.347373 0.313170
O O3 0.114449 0.376825 0.423543
O O4 0.985162 0.247394 0.373466
O O5 0.500000 0.220717 0.250000
O O6 0.678380 0.321621 0.236702
O O7 0.674359 0.141625 0.296816
O O8 0.811545 0.485692 0.500000
O O9 0.699156 0.547257 0.593299
O O10 0.862174 0.414449 0.600741
O O11 0.500000 0.500000 0.592489
O O12 0.589686 0.589686 0.500000
O O13 0.778126 0.221875 0.612773
#
# Coordination Sequence:
#
# PCOD8316801 Si02
#       5
#    16  16  16   8  16
#     4  11  23  40  63  89 119 158 203 249 298 354
#     4  10  21  38  60  90 123 157 196 239 296 359
#     4  11  22  38  60  89 120 155 202 249 298 357
#     4   9  18  34  56  82 117 153 185 235 297 355
#     4  11  24  40  61  89 121 159 201 248 299 354
#
# _framework density 20.094034000000001
#
# number of rings (size 3 to 8) (size 9 to 14) (size 15 to 20)
#    0.000    1.444    3.333    2.000    0.000    4.667 
#    0.000    0.000    0.000    4.000    0.000    3.111 
#    0.000    0.000    0.000    0.000    0.000    0.000 
#
# Total GULP energy -892919.264960 kJ/mol
# GULP energy per Si atom -12401.656458 kJ/mol
# Density = 2.004830 g / cm^3
# Si number density = 20.094034 Si / 1000 Ang^3
#
#
#
# Elastic Constant Matrix: (Units=GPa)
#
#
# Indices 1 2 3 4 5 6 
#
# 1 118.3786 51.2248 10.4782 0.0000 0.0000 0.0000
# 2 51.2248 118.3786 10.4782 0.0000 0.0000 0.0000
# 3 10.4782 10.4782 52.8446 0.0000 0.0000 0.0000
# 4 0.0000 0.0000 0.0000 17.3656 0.0000 0.0000
# 5 0.0000 0.0000 0.0000 0.0000 17.3656 0.0000
# 6 0.0000 0.0000 0.0000 0.0000 0.0000 19.4113
#
#
#
# Elastic Compliance Matrix: (Units=1/GPa)
#
#
# Indices 1 2 3 4 5 6 
#
# 1 0.010468 -0.004424 -0.001198 0.000000 0.000000 0.000000
# 2 -0.004424 0.010468 -0.001198 0.000000 0.000000 0.000000
# 3 -0.001198 -0.001198 0.019399 0.000000 0.000000 0.000000
# 4 0.000000 0.000000 0.000000 0.057585 0.000000 0.000000
# 5 0.000000 0.000000 0.000000 0.000000 0.057585 0.000000
# 6 0.000000 0.000000 0.000000 0.000000 0.000000 0.051516
#
#
# Mechanical properties :
#
#
# Convention : Reuss Voigt Hill
#
# Bulk Modulus (GPa) = 37.46270 48.21824 42.84047
# Shear Modulus (GPa) = 21.78083 25.32319 23.55201
#
# Velocity S-wave (km/s) = 3.29590 3.55383 3.42729
# Velocity P-wave (km/s) = 5.75918 6.39437 6.08507
#
# Compressibility (1/GPa) = 0.02669322
#
# Stress axis : x y z
#
# Youngs Moduli (GPa) = 95.53204 95.53204 51.54995
#
# Poissons Ratio (x) = 0.42259 0.06178
# Poissons Ratio (y) = 0.42259 0.06178
# Poissons Ratio (z) = 0.11449 0.11449
#
# Static dielectric constant tensor:
#      x y z
#    x 3.685820 0.000000 0.000000 
#    y 0.000000 3.685820 0.000000 
#    z 0.000000 0.000000 3.606270 
# 
# 
# High freq. dielectric constant tensor:
#      x y z
#    x 1.783640 0.000000 0.000000 
#    y 0.000000 1.783640 0.000000 
#    z 0.000000 0.000000 1.780950 
# 
# From -- ./inp_files/9763.got.cif
#   From: 2010.03.12/outbox.cif.g09.slc.cpg/sg132_5_cif.got.tgz:9763.got - 2010.04.06 17:53:44.
