data_PCOD8316087
_publ_section_title
;
Structure prediction by ZEFSAII (Michael W. Deem and Ramdas Pophale) SiO2 
 PCOD8316087
Probable space group: P 42/M M C
;
_chemical_formula_sum "Si O2"
_cell_formula_units_Z 56
_cell_length_a 19.340727
_cell_length_b 19.340727
_cell_length_c 8.954262
_cell_angle_alpha 90.000000
_cell_angle_beta 90.000000
_cell_angle_gamma 90.000000
_cell_volume 3349.464562
_symmetry_space_group_name_H-M "P 42/M M C"
_symmetry_group_IT_number 131
_symmetry_cell_setting 'tetragonal'
loop_
_space_group_symop_operation_xyz
x,y,z
-x,-y,z
-y,x,1/2+z
y,-x,1/2+z
-x,y,-z
x,-y,-z
y,x,1/2-z
-y,-x,1/2-z
-x,-y,-z
x,y,-z
y,-x,1/2-z
-y,x,1/2-z
x,-y,z
-x,y,z
-y,-x,1/2+z
y,x,1/2+z
loop_
_atom_site_type_symbol
_atom_site_label
_atom_site_fract_x
_atom_site_fract_y
_atom_site_fract_z
Si Si1 0.420738 0.139088 0.176136
Si Si2 0.581014 0.000000 0.334695
Si Si3 0.819204 0.920984 0.324709
Si Si4 0.707476 0.191135 0.675907
O O1 0.500000 0.156787 0.218836
O O2 0.369382 0.192812 0.254220
O O3 0.396298 0.065794 0.240617
O O4 0.410467 0.138761 0.000000
O O5 0.500000 0.000000 0.358065
O O6 0.616803 0.000000 0.500000
O O7 0.886173 0.886173 0.250000
O O8 0.832084 0.918629 0.500000
O O9 0.749653 0.878777 0.282462
O O10 0.810908 0.000000 0.267975
O O11 0.743860 0.256141 0.750000
O O12 0.702247 0.201702 0.500000
#
# Coordination Sequence:
#
# PCOD8316087 Si02
#       4
#    16   8  16  16
#     4  10  20  33  49  72 101 129 161 202 246 293
#     4   9  17  29  45  67  95 127 162 197 238 287
#     4   9  19  34  49  67  90 118 156 202 249 295
#     4  10  20  34  52  71  97 130 165 203 246 297
#
# _framework density 16.719090000000001
#
# number of rings (size 3 to 8) (size 9 to 14) (size 15 to 20)
#    0.000    2.429    0.000    2.143    2.000    5.429 
#    0.000    1.429    0.000    0.000    0.000    0.000 
#    0.000    0.571    0.000    6.000    0.000    2.571 
#
# Total GULP energy -694290.054885 kJ/mol
# GULP energy per Si atom -12398.036694 kJ/mol
# Density = 1.668104 g / cm^3
# Si number density = 16.719090 Si / 1000 Ang^3
#
#
#
# Elastic Constant Matrix: (Units=GPa)
#
#
# Indices 1 2 3 4 5 6 
#
# 1 85.6995 72.3871 50.9402 0.0000 0.0000 0.0000
# 2 72.3871 85.6806 50.9600 0.0000 0.0000 0.0000
# 3 50.9402 50.9600 87.3840 0.0000 0.0000 0.0000
# 4 0.0000 0.0000 0.0000 28.0006 0.0000 0.0000
# 5 0.0000 0.0000 0.0000 0.0000 28.0006 0.0000
# 6 0.0000 0.0000 0.0000 0.0000 0.0000 13.0075
#
#
#
# Elastic Compliance Matrix: (Units=1/GPa)
#
#
# Indices 1 2 3 4 5 6 
#
# 1 0.042638 -0.032518 -0.005892 0.000000 0.000000 0.000000
# 2 -0.032518 0.042670 -0.005927 0.000000 0.000000 0.000000
# 3 -0.005892 -0.005927 0.018335 0.000000 0.000000 0.000000
# 4 0.000000 0.000000 0.000000 0.035714 0.000000 0.000000
# 5 0.000000 0.000000 0.000000 0.000000 0.035714 0.000000
# 6 0.000000 0.000000 0.000000 0.000000 0.000000 0.076879
#
#
# Mechanical properties :
#
#
# Convention : Reuss Voigt Hill
#
# Bulk Modulus (GPa) = 66.81084 67.48207 67.14645
# Shear Modulus (GPa) = 14.46709 19.43350 16.95029
#
# Velocity S-wave (km/s) = 2.94480 3.41303 3.18752
# Velocity P-wave (km/s) = 7.18401 7.48209 7.33456
#
# Compressibility (1/GPa) = 0.01496763
#
# Stress axis : x y z
#
# Youngs Moduli (GPa) = 23.45346 23.43592 54.54035
#
# Poissons Ratio (x) = 0.76209 0.32134
# Poissons Ratio (y) = 0.76266 0.32328
# Poissons Ratio (z) = 0.13818 0.13891
#
# Static dielectric constant tensor:
#      x y z
#    x 3.040630 0.000000 0.000000 
#    y 0.000000 3.040620 0.000000 
#    z 0.000000 0.000000 3.201710 
# 
# 
# High freq. dielectric constant tensor:
#      x y z
#    x 1.625430 0.000000 0.000000 
#    y 0.000000 1.625430 0.000000 
#    z 0.000000 0.000000 1.657430 
# 
# From -- ./inp_files/1190.got.cif
#   From: 2010.03.12/outbox.cif.g09.slc.cpg/sg131_1_cif.got.tgz:1190.got - 2010.04.06 17:36:35.
