data_PCOD8316297
_publ_section_title
;
Structure prediction by ZEFSAII (Michael W. Deem and Ramdas Pophale) SiO2 
 PCOD8316297
Probable space group: P 42/M M C
;
_chemical_formula_sum "Si O2"
_cell_formula_units_Z 56
_cell_length_a 17.703584
_cell_length_b 17.703584
_cell_length_c 8.837352
_cell_angle_alpha 90.000000
_cell_angle_beta 90.000000
_cell_angle_gamma 90.000000
_cell_volume 2769.775348
_symmetry_space_group_name_H-M "P 42/M M C"
_symmetry_group_IT_number 131
_symmetry_cell_setting 'tetragonal'
loop_
_space_group_symop_operation_xyz
x,y,z
-x,-y,z
-y,x,1/2+z
y,-x,1/2+z
-x,y,-z
x,-y,-z
y,x,1/2-z
-y,-x,1/2-z
-x,-y,-z
x,y,-z
y,-x,1/2-z
-y,x,1/2-z
x,-y,z
-x,y,z
-y,-x,1/2+z
y,x,1/2+z
loop_
_atom_site_type_symbol
_atom_site_label
_atom_site_fract_x
_atom_site_fract_y
_atom_site_fract_z
Si Si1 0.500000 0.911767 0.168372
Si Si2 0.642530 0.839828 0.679481
Si Si3 0.307611 0.413151 0.677590
Si Si4 0.799490 0.086428 0.678852
O O1 0.425950 0.889369 0.259290
O O2 0.500000 0.000000 0.148574
O O3 0.500000 0.873371 0.000000
O O4 0.636787 0.834984 0.500000
O O5 0.638851 0.756766 0.749722
O O6 0.720547 0.877529 0.733461
O O7 0.387077 0.387077 0.750000
O O8 0.310403 0.400246 0.500000
O O9 0.292263 0.500000 0.719931
O O10 0.869468 0.130533 0.750000
O O11 0.806338 0.091371 0.500000
O O12 0.802594 0.000000 0.734997
#
# Coordination Sequence:
#
# PCOD8316297 Si02
#       4
#     8  16  16  16
#     4  11  23  37  57  89 128 165 202 249 305 369
#     4  11  22  39  64  91 123 163 207 255 311 374
#     4  11  24  41  62  89 124 162 206 258 309 365
#     4  10  23  42  63  91 125 162 208 259 311 370
#
# _framework density 20.218247000000002
#
# number of rings (size 3 to 8) (size 9 to 14) (size 15 to 20)
#    0.000    1.286    1.429    3.857    0.000    9.714 
#    0.000    2.857    0.000    0.000    0.000    0.000 
#    0.000    0.000    0.000    0.000    0.000    0.000 
#
# Total GULP energy -694685.967563 kJ/mol
# GULP energy per Si atom -12405.106564 kJ/mol
# Density = 2.017223 g / cm^3
# Si number density = 20.218247 Si / 1000 Ang^3
#
#
#
# Elastic Constant Matrix: (Units=GPa)
#
#
# Indices 1 2 3 4 5 6 
#
# 1 125.5665 94.0230 54.2148 0.0000 0.0000 0.0000
# 2 94.0230 125.5741 54.2166 0.0000 0.0000 0.0000
# 3 54.2148 54.2166 82.7319 0.0000 0.0000 0.0000
# 4 0.0000 0.0000 0.0000 27.9229 0.0000 0.0000
# 5 0.0000 0.0000 0.0000 0.0000 27.9180 0.0000
# 6 0.0000 0.0000 0.0000 0.0000 0.0000 30.2994
#
#
#
# Elastic Compliance Matrix: (Units=1/GPa)
#
#
# Indices 1 2 3 4 5 6 
#
# 1 0.019216 -0.012483 -0.004412 0.000000 0.000000 0.000000
# 2 -0.012483 0.019215 -0.004412 0.000000 0.000000 0.000000
# 3 -0.004412 -0.004412 0.017870 0.000000 0.000000 0.000000
# 4 0.000000 0.000000 0.000000 0.035813 0.000000 0.000000
# 5 0.000000 0.000000 0.000000 0.000000 0.035819 0.000000
# 6 0.000000 0.000000 0.000000 0.000000 0.000000 0.033004
#
#
# Mechanical properties :
#
#
# Convention : Reuss Voigt Hill
#
# Bulk Modulus (GPa) = 73.06246 82.08680 77.57463
# Shear Modulus (GPa) = 24.02550 25.98925 25.00738
#
# Velocity S-wave (km/s) = 3.45092 3.58919 3.52073
# Velocity P-wave (km/s) = 7.21761 7.60689 7.41481
#
# Compressibility (1/GPa) = 0.01368692
#
# Stress axis : x y z
#
# Youngs Moduli (GPa) = 52.04002 52.04308 55.96117
#
# Poissons Ratio (x) = 0.64966 0.24689
# Poissons Ratio (y) = 0.64962 0.24689
# Poissons Ratio (z) = 0.22959 0.22960
#
# Static dielectric constant tensor:
#      x y z
#    x 3.840340 0.000000 0.000000 
#    y 0.000000 3.840340 0.000000 
#    z 0.000000 0.000000 3.741880 
# 
# 
# High freq. dielectric constant tensor:
#      x y z
#    x 1.799920 0.000000 0.000000 
#    y 0.000000 1.799920 0.000000 
#    z 0.000000 0.000000 1.795580 
# 
# From -- ./inp_files/1193.got.cif
#   From: 2010.03.12/outbox.cif.g09.slc.cpg/sg131_1_cif.got.tgz:1193.got - 2010.04.06 17:36:35.
