data_PCOD8316977
_publ_section_title
;
Structure prediction by ZEFSAII (Michael W. Deem and Ramdas Pophale) SiO2 
 PCOD8316977
Probable space group: P 42/N B C
;
_chemical_formula_sum "Si O2"
_cell_formula_units_Z 96
_cell_length_a 14.202569
_cell_length_b 14.202569
_cell_length_c 22.924258
_cell_angle_alpha 90.000000
_cell_angle_beta 90.000000
_cell_angle_gamma 90.000000
_cell_volume 4624.120079
_symmetry_space_group_name_H-M "P 42/N B C"
_symmetry_group_IT_number 133
_space_group.IT_coordinate_system_code '2'
_symmetry_cell_setting 'tetragonal'
loop_
_space_group_symop_operation_xyz
x,y,z
1/2-y,x,1/2+z
1/2-x,1/2-y,z
y,1/2-x,1/2+z
x,1/2-y,-z
1/2-x,y,-z
y,x,1/2-z
1/2-y,1/2-x,1/2-z
-x,-y,-z
1/2+y,-x,1/2-z
1/2+x,1/2+y,-z
-y,1/2+x,1/2-z
-x,1/2+y,z
1/2+x,-y,z
-y,-x,1/2+z
1/2+y,1/2+x,1/2+z
loop_
_atom_site_type_symbol
_atom_site_label
_atom_site_fract_x
_atom_site_fract_y
_atom_site_fract_z
Si Si1 0.682342 0.519137 0.366904
Si Si2 0.870243 0.992458 0.151631
Si Si3 0.607579 0.967343 0.400301
Si Si4 0.286728 0.008593 0.942479
Si Si5 0.802811 0.395091 0.741865
Si Si6 0.854390 0.421142 0.515395
O O1 0.619339 0.607713 0.345823
O O2 0.789842 0.550224 0.373559
O O3 0.674764 0.431725 0.322683
O O4 0.640789 0.488117 0.428669
O O5 0.799126 0.018428 0.099670
O O6 0.823883 0.022191 0.212456
O O7 0.968982 0.047428 0.143860
O O8 0.564991 0.863514 0.405681
O O9 0.604459 0.017050 0.462959
O O10 0.328686 0.913717 0.970905
O O11 0.250000 0.066479 0.000000
O O12 0.868395 0.306374 0.754734
O O13 0.750000 0.386433 0.500000
#
# Coordination Sequence:
#
# PCOD8316977 Si02
#       6
#    16  16  16  16  16  16
#     4  11  23  44  67  94 133 177 223 269 337 409
#     4  12  24  43  68  95 134 180 220 272 345 399
#     4  11  23  44  65  96 137 174 220 280 332 407
#     4  12  23  39  67  99 134 175 221 273 335 410
#     4  11  24  43  69 101 130 170 228 288 339 395
#     4  10  21  39  65  97 130 176 214 272 340 395
#
# _framework density 20.760705999999999
#
# number of rings (size 3 to 8) (size 9 to 14) (size 15 to 20)
#    0.000    0.833    5.000    3.000    0.000    1.000 
#    0.000    1.667    0.000    2.000    0.000    0.000 
#    0.000    0.000    0.000    0.000    0.000    0.000 
#
# Total GULP energy -1190754.111208 kJ/mol
# GULP energy per Si atom -12403.688658 kJ/mol
# Density = 2.071345 g / cm^3
# Si number density = 20.760706 Si / 1000 Ang^3
#
#
#
# Elastic Constant Matrix: (Units=GPa)
#
#
# Indices 1 2 3 4 5 6 
#
# 1 99.7315 43.8136 22.9978 0.0000 0.0000 0.0000
# 2 43.8136 99.7315 22.9978 0.0000 0.0000 0.0000
# 3 22.9978 22.9978 79.1679 0.0000 0.0000 0.0000
# 4 0.0000 0.0000 0.0000 31.8312 0.0000 0.0000
# 5 0.0000 0.0000 0.0000 0.0000 31.8312 0.0000
# 6 0.0000 0.0000 0.0000 0.0000 0.0000 24.7752
#
#
#
# Elastic Compliance Matrix: (Units=1/GPa)
#
#
# Indices 1 2 3 4 5 6 
#
# 1 0.012782 -0.005101 -0.002231 0.000000 0.000000 0.000000
# 2 -0.005101 0.012782 -0.002231 0.000000 0.000000 0.000000
# 3 -0.002231 -0.002231 0.013928 0.000000 0.000000 0.000000
# 4 0.000000 0.000000 0.000000 0.031416 0.000000 0.000000
# 5 0.000000 0.000000 0.000000 0.000000 0.031416 0.000000
# 6 0.000000 0.000000 0.000000 0.000000 0.000000 0.040363
#
#
# Mechanical properties :
#
#
# Convention : Reuss Voigt Hill
#
# Bulk Modulus (GPa) = 49.10370 50.91656 50.01013
# Shear Modulus (GPa) = 29.65548 30.27564 29.96556
#
# Velocity S-wave (km/s) = 3.78357 3.82293 3.80330
# Velocity P-wave (km/s) = 6.54147 6.63815 6.58999
#
# Compressibility (1/GPa) = 0.02036506
#
# Stress axis : x y z
#
# Youngs Moduli (GPa) = 78.23251 78.23251 71.79883
#
# Poissons Ratio (x) = 0.39906 0.16021
# Poissons Ratio (y) = 0.39906 0.16021
# Poissons Ratio (z) = 0.17457 0.17457
#
# Static dielectric constant tensor:
#      x y z
#    x 3.754280 0.000000 0.000000 
#    y 0.000000 3.754280 0.000000 
#    z 0.000000 0.000000 3.801940 
# 
# 
# High freq. dielectric constant tensor:
#      x y z
#    x 1.810690 0.000000 0.000000 
#    y 0.000000 1.810690 0.000000 
#    z 0.000000 0.000000 1.820650 
# 
# From -- ./inp_files/6534.got.cif
#   From: 2010.03.12/outbox.cif.g09.slc.cpg/sg133_4_cif.got.tgz:6534.got - 2010.04.06 18:08:06.
