data_PCOD8316872
_publ_section_title
;
Structure prediction by ZEFSAII (Michael W. Deem and Ramdas Pophale) SiO2 
 PCOD8316872
Probable space group: P 42/M C M
;
_chemical_formula_sum "Si O2"
_cell_formula_units_Z 96
_cell_length_a 19.420932
_cell_length_b 19.420932
_cell_length_c 17.502765
_cell_angle_alpha 90.000000
_cell_angle_beta 90.000000
_cell_angle_gamma 90.000000
_cell_volume 6601.563378
_symmetry_space_group_name_H-M "P 42/M C M"
_symmetry_group_IT_number 132
_symmetry_cell_setting 'tetragonal'
loop_
_space_group_symop_operation_xyz
x,y,z
-y,x,1/2+z
-x,-y,z
y,-x,1/2+z
x,-y,1/2-z
-x,y,1/2-z
y,x,-z
-y,-x,-z
-x,-y,-z
y,-x,1/2-z
x,y,-z
-y,x,1/2-z
-x,y,1/2+z
x,-y,1/2+z
-y,-x,z
y,x,z
loop_
_atom_site_type_symbol
_atom_site_label
_atom_site_fract_x
_atom_site_fract_y
_atom_site_fract_z
Si Si1 0.753968 0.139033 0.727470
Si Si2 0.577345 0.809037 0.086349
Si Si3 0.746035 0.360965 0.272530
Si Si4 0.922655 0.309035 0.586349
Si Si5 0.660872 0.952285 0.319129
Si Si6 0.547716 0.160869 0.180871
O O1 0.831063 0.168938 0.741341
O O2 0.700905 0.200902 0.730657
O O3 0.750208 0.104704 0.643293
O O4 0.732533 0.083955 0.792328
O O5 0.604705 0.749795 0.143293
O O6 0.621350 0.878652 0.097190
O O7 0.497938 0.825785 0.105916
O O8 0.582240 0.781167 0.000000
O O9 0.668941 0.331060 0.258659
O O10 0.767470 0.416043 0.207673
O O11 0.917760 0.281164 0.500000
O O12 0.002063 0.325783 0.605916
O O13 0.603556 0.896445 0.340098
O O14 0.633503 0.000000 0.250000
O O15 0.500000 0.133501 0.250000
#
# Coordination Sequence:
#
# PCOD8316872 Si02
#       6
#    16  16  16  16  16  16
#     4   8  14  25  40  55  71  96 130 163 192 221
#     4   9  17  26  36  55  81 105 128 153 184 223
#     4   8  14  25  40  55  71  96 130 163 192 221
#     4   9  17  26  36  55  81 105 128 153 184 223
#     4   9  16  25  37  53  75 103 132 160 186 215
#     4   9  16  25  37  53  75 103 132 160 186 215
#
# _framework density 14.542009999999999
#
# number of rings (size 3 to 8) (size 9 to 14) (size 15 to 20)
#    0.000    3.333    0.000    3.000    0.000    3.667 
#    0.000    5.000    0.000    1.000    0.000    4.667 
#    0.000   54.000    0.000   27.000    0.000    3.000 
#
# Total GULP energy -1189647.135388 kJ/mol
# GULP energy per Si atom -12392.157660 kJ/mol
# Density = 1.450891 g / cm^3
# Si number density = 14.542010 Si / 1000 Ang^3
#
#
#
# Elastic Constant Matrix: (Units=GPa)
#
#
# Indices 1 2 3 4 5 6 
#
# 1 48.4376 41.5866 18.8242 0.0000 0.0000 0.0000
# 2 41.5866 48.4376 18.8242 0.0000 0.0000 0.0000
# 3 18.8242 18.8242 44.2654 0.0000 0.0000 0.0000
# 4 0.0000 0.0000 0.0000 14.3300 0.0000 0.0000
# 5 0.0000 0.0000 0.0000 0.0000 14.3300 0.0000
# 6 0.0000 0.0000 0.0000 0.0000 0.0000 23.2113
#
#
#
# Elastic Compliance Matrix: (Units=1/GPa)
#
#
# Indices 1 2 3 4 5 6 
#
# 1 0.079738 -0.066227 -0.005746 0.000000 0.000000 0.000000
# 2 -0.066227 0.079738 -0.005746 0.000000 0.000000 0.000000
# 3 -0.005746 -0.005746 0.027478 0.000000 0.000000 0.000000
# 4 0.000000 0.000000 0.000000 0.069784 0.000000 0.000000
# 5 0.000000 0.000000 0.000000 0.000000 0.069784 0.000000
# 6 0.000000 0.000000 0.000000 0.000000 0.000000 0.043083
#
#
# Mechanical properties :
#
#
# Convention : Reuss Voigt Hill
#
# Bulk Modulus (GPa) = 31.72877 33.29006 32.50942
# Shear Modulus (GPa) = 9.33627 14.50129 11.91878
#
# Velocity S-wave (km/s) = 2.53656 3.16127 2.86599
# Velocity P-wave (km/s) = 5.51769 6.02220 5.77546
#
# Compressibility (1/GPa) = 0.03151714
#
# Stress axis : x y z
#
# Youngs Moduli (GPa) = 12.54109 12.54109 36.39306
#
# Poissons Ratio (x) = 0.83056 0.20910
# Poissons Ratio (y) = 0.83056 0.20910
# Poissons Ratio (z) = 0.07206 0.07206
#
# Static dielectric constant tensor:
#      x y z
#    x 2.945110 0.000000 0.000000 
#    y 0.000000 2.945110 0.000000 
#    z 0.000000 0.000000 2.757880 
# 
# 
# High freq. dielectric constant tensor:
#      x y z
#    x 1.531690 0.000000 0.000000 
#    y 0.000000 1.531690 0.000000 
#    z 0.000000 0.000000 1.543700 
# 
# From -- ./inp_files/6689.got.cif
#   From: 2010.03.12/outbox.cif.g09.slc.cpg/sg132_4_cif.got.tgz:6689.got - 2010.04.06 17:53:44.
