data_PCOD8316481
_publ_section_title
;
Structure prediction by ZEFSAII (Michael W. Deem and Ramdas Pophale) SiO2 
 PCOD8316481
Probable space group: P 42/M C M
;
_chemical_formula_sum "Si O2"
_cell_formula_units_Z 104
_cell_length_a 19.465094
_cell_length_b 19.465094
_cell_length_c 15.706719
_cell_angle_alpha 90.000000
_cell_angle_beta 90.000000
_cell_angle_gamma 90.000000
_cell_volume 5951.116947
_symmetry_space_group_name_H-M "P 42/M C M"
_symmetry_group_IT_number 132
_symmetry_cell_setting 'tetragonal'
loop_
_space_group_symop_operation_xyz
x,y,z
-y,x,1/2+z
-x,-y,z
y,-x,1/2+z
x,-y,1/2-z
-x,y,1/2-z
y,x,-z
-y,-x,-z
-x,-y,-z
y,-x,1/2-z
x,y,-z
-y,x,1/2-z
-x,y,1/2+z
x,-y,1/2+z
-y,-x,z
y,x,z
loop_
_atom_site_type_symbol
_atom_site_label
_atom_site_fract_x
_atom_site_fract_y
_atom_site_fract_z
Si Si1 0.636808 0.751583 0.407005
Si Si2 0.307094 0.577382 0.254211
Si Si3 0.648237 0.763342 0.095559
Si Si4 0.200636 0.004822 0.403138
Si Si5 0.945168 0.945168 0.601294
Si Si6 0.862183 0.247441 0.663714
Si Si7 0.854307 0.744293 0.637089
O O1 0.600494 0.745691 0.500000
O O2 0.695591 0.695591 0.396354
O O3 0.584028 0.739589 0.330479
O O4 0.673213 0.825383 0.400112
O O5 0.335496 0.500000 0.250000
O O6 0.372513 0.627488 0.255150
O O7 0.258233 0.589787 0.336554
O O8 0.708257 0.708257 0.103487
O O9 0.683055 0.837244 0.115926
O O10 0.616719 0.764940 0.000000
O O11 0.190294 0.980396 0.500000
O O12 0.128505 0.030647 0.362177
O O13 0.252317 0.068542 0.397638
O O14 0.232573 0.942085 0.351172
O O15 0.940589 0.940589 0.500000
O O16 0.000000 0.000000 0.633539
O O17 0.818387 0.181614 0.631821
O O18 0.849990 0.260322 0.762134
O O19 0.810241 0.810241 0.604457
#
# Coordination Sequence:
#
# PCOD8316481 Si02
#       7
#    16  16  16  16   8  16  16
#     4   9  17  31  53  77 102 135 174 218 260 297
#     4  10  20  35  55  83 116 146 173 202 238 291
#     4   9  17  32  53  76 102 136 177 221 262 297
#     4  11  20  29  43  66  94 130 174 219 273 326
#     4   9  18  30  40  54  88 134 177 217 262 328
#     4  10  19  31  48  68  96 130 175 227 273 316
#     4  10  18  31  48  67  96 128 169 223 275 317
#
# _framework density 17.475711
#
# number of rings (size 3 to 8) (size 9 to 14) (size 15 to 20)
#    0.000    2.231    2.308    1.846    0.000    2.923 
#    0.000    0.000    0.000    0.000    0.000    6.462 
#    0.000    3.692    0.000    0.000    0.000    0.000 
#
# Total GULP energy -1289286.793586 kJ/mol
# GULP energy per Si atom -12396.988400 kJ/mol
# Density = 1.743594 g / cm^3
# Si number density = 17.475711 Si / 1000 Ang^3
#
#
#
# Elastic Constant Matrix: (Units=GPa)
#
#
# Indices 1 2 3 4 5 6 
#
# 1 70.0308 38.5124 28.9722 0.0000 0.0000 0.0000
# 2 38.5124 70.0308 28.9722 0.0000 0.0000 0.0000
# 3 28.9722 28.9722 103.0609 0.0000 0.0000 0.0000
# 4 0.0000 0.0000 0.0000 14.8969 0.0000 0.0000
# 5 0.0000 0.0000 0.0000 0.0000 14.8969 0.0000
# 6 0.0000 0.0000 0.0000 0.0000 0.0000 16.3353
#
#
#
# Elastic Compliance Matrix: (Units=1/GPa)
#
#
# Indices 1 2 3 4 5 6 
#
# 1 0.021284 -0.010444 -0.003047 0.000000 0.000000 0.000000
# 2 -0.010444 0.021284 -0.003047 0.000000 0.000000 0.000000
# 3 -0.003047 -0.003047 0.011416 0.000000 0.000000 0.000000
# 4 0.000000 0.000000 0.000000 0.067128 0.000000 0.000000
# 5 0.000000 0.000000 0.000000 0.000000 0.067128 0.000000
# 6 0.000000 0.000000 0.000000 0.000000 0.000000 0.061217
#
#
# Mechanical properties :
#
#
# Convention : Reuss Voigt Hill
#
# Bulk Modulus (GPa) = 47.83161 48.44846 48.14003
# Shear Modulus (GPa) = 17.27102 19.00353 18.13727
#
# Velocity S-wave (km/s) = 3.14711 3.30119 3.22507
# Velocity P-wave (km/s) = 6.37460 6.50492 6.44009
#
# Compressibility (1/GPa) = 0.02090668
#
# Stress axis : x y z
#
# Youngs Moduli (GPa) = 46.98458 46.98458 87.59445
#
# Poissons Ratio (x) = 0.49070 0.26692
# Poissons Ratio (y) = 0.49070 0.26692
# Poissons Ratio (z) = 0.14317 0.14317
#
# Static dielectric constant tensor:
#      x y z
#    x 2.984410 0.000000 0.000000 
#    y 0.000000 2.984410 0.000000 
#    z 0.000000 0.000000 3.392260 
# 
# 
# High freq. dielectric constant tensor:
#      x y z
#    x 1.643190 0.000000 0.000000 
#    y 0.000000 1.643190 0.000000 
#    z 0.000000 0.000000 1.690280 
# 
# From -- ./inp_files/6596.got.cif
#   From: 2010.03.12/outbox.cif.g09.slc.cpg/sg132_4_cif.got.tgz:6596.got - 2010.04.06 17:53:44.
