data_PCOD8316030
_publ_section_title
;
Structure prediction by ZEFSAII (Michael W. Deem and Ramdas Pophale) SiO2 
 PCOD8316030
Probable space group: P 42/M M C
;
_chemical_formula_sum "Si O2"
_cell_formula_units_Z 112
_cell_length_a 18.364475
_cell_length_b 18.364475
_cell_length_c 21.124226
_cell_angle_alpha 90.000000
_cell_angle_beta 90.000000
_cell_angle_gamma 90.000000
_cell_volume 7124.228491
_symmetry_space_group_name_H-M "P 42/M M C"
_symmetry_group_IT_number 131
_symmetry_cell_setting 'tetragonal'
loop_
_space_group_symop_operation_xyz
x,y,z
-x,-y,z
-y,x,1/2+z
y,-x,1/2+z
-x,y,-z
x,-y,-z
y,x,1/2-z
-y,-x,1/2-z
-x,-y,-z
x,y,-z
y,-x,1/2-z
-y,x,1/2-z
x,-y,z
-x,y,z
-y,-x,1/2+z
y,x,1/2+z
loop_
_atom_site_type_symbol
_atom_site_label
_atom_site_fract_x
_atom_site_fract_y
_atom_site_fract_z
Si Si1 0.419758 0.293687 0.377953
Si Si2 0.654386 0.585451 0.688323
Si Si3 0.333408 0.916793 0.688006
Si Si4 0.580008 0.797893 0.250080
Si Si5 0.086458 0.081942 0.930694
Si Si6 0.084959 0.836788 0.192436
Si Si7 0.852758 0.414601 0.070602
O O1 0.500000 0.321969 0.396162
O O2 0.369660 0.365516 0.371888
O O3 0.421364 0.249667 0.312928
O O4 0.392076 0.233300 0.428380
O O5 0.607281 0.607281 0.750000
O O6 0.641503 0.500000 0.674712
O O7 0.740576 0.603128 0.695805
O O8 0.365765 0.865896 0.743501
O O9 0.248342 0.901342 0.686750
O O10 0.367712 0.900003 0.619424
O O11 0.350521 0.000000 0.705546
O O12 0.500000 0.829973 0.236015
O O13 0.116291 0.130756 0.873332
O O14 0.000000 0.083456 0.929867
O O15 0.114893 0.000000 0.920114
O O16 0.113575 0.110455 0.000000
O O17 0.130275 0.869726 0.250000
O O18 0.000000 0.855866 0.202619
O O19 0.860049 0.500000 0.088984
O O20 0.882802 0.399839 0.000000
#
# Coordination Sequence:
#
# PCOD8316030 Si02
#       7
#    16  16  16  16  16  16  16
#     4   8  14  24  38  57  80 104 131 165 200 235
#     4   9  15  22  36  59  83 106 133 164 200 245
#     4  10  20  30  41  61  84 104 134 180 226 258
#     4   8  15  27  40  54  75 104 133 159 195 249
#     4   8  14  26  44  62  79 105 143 181 213 250
#     4  10  20  31  44  64  90 119 148 180 222 273
#     4   9  18  32  47  60  77 109 151 184 213 258
#
# _framework density 15.721000999999999
#
# number of rings (size 3 to 8) (size 9 to 14) (size 15 to 20)
#    0.000    3.143    0.000    3.429    0.000    6.571 
#    0.000    2.143    0.000    0.429    0.000    2.000 
#    0.000    0.000    0.000    0.000    0.000    2.286 
#
# Total GULP energy -1387657.460055 kJ/mol
# GULP energy per Si atom -12389.798750 kJ/mol
# Density = 1.568522 g / cm^3
# Si number density = 15.721001 Si / 1000 Ang^3
#
#
#
# Elastic Constant Matrix: (Units=GPa)
#
#
# Indices 1 2 3 4 5 6 
#
# 1 83.5119 53.7354 32.9432 0.0000 0.0000 0.0000
# 2 53.7354 83.5121 32.9437 0.0000 0.0000 0.0000
# 3 32.9432 32.9437 57.9312 0.0000 0.0000 0.0000
# 4 0.0000 0.0000 0.0000 15.2462 0.0000 0.0000
# 5 0.0000 0.0000 0.0000 0.0000 15.2461 0.0000
# 6 0.0000 0.0000 0.0000 0.0000 0.0000 17.0737
#
#
#
# Elastic Compliance Matrix: (Units=1/GPa)
#
#
# Indices 1 2 3 4 5 6 
#
# 1 0.021803 -0.011781 -0.005699 0.000000 0.000000 0.000000
# 2 -0.011781 0.021803 -0.005699 0.000000 0.000000 0.000000
# 3 -0.005699 -0.005699 0.023744 0.000000 0.000000 0.000000
# 4 0.000000 0.000000 0.000000 0.065590 0.000000 0.000000
# 5 0.000000 0.000000 0.000000 0.000000 0.065590 0.000000
# 6 0.000000 0.000000 0.000000 0.000000 0.000000 0.058569
#
#
# Mechanical properties :
#
#
# Convention : Reuss Voigt Hill
#
# Bulk Modulus (GPa) = 47.63932 51.57774 49.60853
# Shear Modulus (GPa) = 16.10543 16.53542 16.32042
#
# Velocity S-wave (km/s) = 3.20418 3.24667 3.22550
# Velocity P-wave (km/s) = 6.63760 6.85083 6.74506
#
# Compressibility (1/GPa) = 0.02099107
#
# Stress axis : x y z
#
# Youngs Moduli (GPa) = 45.86597 45.86573 42.11644
#
# Poissons Ratio (x) = 0.54033 0.24002
# Poissons Ratio (y) = 0.54033 0.24004
# Poissons Ratio (z) = 0.26139 0.26141
#
# Static dielectric constant tensor:
#      x y z
#    x 3.024680 0.000000 0.000000 
#    y 0.000000 3.024680 0.000000 
#    z 0.000000 0.000000 3.077850 
# 
# 
# High freq. dielectric constant tensor:
#      x y z
#    x 1.592740 0.000000 0.000000 
#    y 0.000000 1.592740 0.000000 
#    z 0.000000 0.000000 1.569830 
# 
# From -- ./inp_files/11441.got.cif
#   From: 2010.03.12/outbox.cif.g09.slc.cpg/sg131_6_cif.got.tgz:11441.got - 2010.04.06 17:36:35.
