data_PCOD8316836
_publ_section_title
;
Structure prediction by ZEFSAII (Michael W. Deem and Ramdas Pophale) SiO2 
 PCOD8316836
Probable space group: P 42/M C M
;
_chemical_formula_sum "Si O2"
_cell_formula_units_Z 56
_cell_length_a 12.272096
_cell_length_b 12.272096
_cell_length_c 18.940904
_cell_angle_alpha 90.000000
_cell_angle_beta 90.000000
_cell_angle_gamma 90.000000
_cell_volume 2852.582350
_symmetry_space_group_name_H-M "P 42/M C M"
_symmetry_group_IT_number 132
_symmetry_cell_setting 'tetragonal'
loop_
_space_group_symop_operation_xyz
x,y,z
-y,x,1/2+z
-x,-y,z
y,-x,1/2+z
x,-y,1/2-z
-x,y,1/2-z
y,x,-z
-y,-x,-z
-x,-y,-z
y,-x,1/2-z
x,y,-z
-y,x,1/2-z
-x,y,1/2+z
x,-y,1/2+z
-y,-x,z
y,x,z
loop_
_atom_site_type_symbol
_atom_site_label
_atom_site_fract_x
_atom_site_fract_y
_atom_site_fract_z
Si Si1 0.997992 0.176423 0.081295
Si Si2 0.591707 0.408294 0.420632
Si Si3 0.728443 0.550164 0.324070
Si Si4 0.961663 0.617549 0.330175
O O1 0.894057 0.105944 0.107780
O O2 0.014845 0.285908 0.125416
O O3 0.981383 0.207709 0.000000
O O4 0.107050 0.107050 0.091797
O O5 0.500000 0.500000 0.424421
O O6 0.626144 0.373857 0.500000
O O7 0.698299 0.455630 0.380454
O O8 0.763744 0.500000 0.250000
O O9 0.623292 0.623292 0.312543
O O10 0.831998 0.622487 0.345860
O O11 0.000000 0.500000 0.358325
O O12 0.000000 0.634739 0.250000
#
# Coordination Sequence:
#
# PCOD8316836 Si02
#       4
#    16   8  16  16
#     4   9  20  41  66  89 115 153 201 251 305 359
#     4   9  20  36  58  90 118 146 201 252 283 347
#     4  11  20  35  60  83 115 162 201 239 299 352
#     4  11  23  39  56  87 126 156 195 248 297 361
#
# _framework density 19.631335
#
# number of rings (size 3 to 8) (size 9 to 14) (size 15 to 20)
#    0.000    1.857    4.286    1.714    0.000    4.000 
#    2.571    4.286    0.000    0.000    0.000    0.000 
#    0.000    0.000    0.000    0.000    0.000    0.000 
#
# Total GULP energy -694317.024963 kJ/mol
# GULP energy per Si atom -12398.518303 kJ/mol
# Density = 1.958665 g / cm^3
# Si number density = 19.631335 Si / 1000 Ang^3
#
#
#
# Elastic Constant Matrix: (Units=GPa)
#
#
# Indices 1 2 3 4 5 6 
#
# 1 108.1861 20.1698 48.7421 0.0000 0.0000 0.0000
# 2 20.1698 108.1862 48.7421 0.0000 0.0000 0.0000
# 3 48.7421 48.7421 104.9554 0.0000 0.0000 0.0000
# 4 0.0000 0.0000 0.0000 27.0204 0.0000 0.0000
# 5 0.0000 0.0000 0.0000 0.0000 27.0204 0.0000
# 6 0.0000 0.0000 0.0000 0.0000 0.0000 22.4116
#
#
#
# Elastic Compliance Matrix: (Units=1/GPa)
#
#
# Indices 1 2 3 4 5 6 
#
# 1 0.011699 0.000337 -0.005590 0.000000 0.000000 0.000000
# 2 0.000337 0.011699 -0.005590 0.000000 0.000000 0.000000
# 3 -0.005590 -0.005590 0.014720 0.000000 0.000000 0.000000
# 4 0.000000 0.000000 0.000000 0.037009 0.000000 0.000000
# 5 0.000000 0.000000 0.000000 0.000000 0.037009 0.000000
# 6 0.000000 0.000000 0.000000 0.000000 0.000000 0.044620
#
#
# Mechanical properties :
#
#
# Convention : Reuss Voigt Hill
#
# Bulk Modulus (GPa) = 60.85252 61.84841 61.35046
# Shear Modulus (GPa) = 27.18620 28.86873 28.02746
#
# Velocity S-wave (km/s) = 3.72538 3.83893 3.78258
# Velocity P-wave (km/s) = 7.04056 7.15703 7.09904
#
# Compressibility (1/GPa) = 0.01643317
#
# Stress axis : x y z
#
# Youngs Moduli (GPa) = 85.47882 85.47885 67.93655
#
# Poissons Ratio (x) = -0.02883 0.37974
# Poissons Ratio (y) = -0.02883 0.37974
# Poissons Ratio (z) = 0.47780 0.47780
#
# Static dielectric constant tensor:
#      x y z
#    x 3.531520 0.000000 0.000000 
#    y 0.000000 3.531520 0.000000 
#    z 0.000000 0.000000 3.502820 
# 
# 
# High freq. dielectric constant tensor:
#      x y z
#    x 1.764990 0.000000 0.000000 
#    y 0.000000 1.764990 0.000000 
#    z 0.000000 0.000000 1.754460 
# 
# From -- ./inp_files/7288.got.cif
#   From: 2010.03.12/outbox.cif.g09.slc.cpg/sg132_4_cif.got.tgz:7288.got - 2010.04.06 17:53:44.
