data_PCOD8316141
_publ_section_title
;
Structure prediction by ZEFSAII (Michael W. Deem and Ramdas Pophale) SiO2 
 PCOD8316141
Probable space group: P 42/M M C
;
_chemical_formula_sum "Si O2"
_cell_formula_units_Z 88
_cell_length_a 13.419510
_cell_length_b 13.419510
_cell_length_c 28.551999
_cell_angle_alpha 90.000000
_cell_angle_beta 90.000000
_cell_angle_gamma 90.000000
_cell_volume 5141.736735
_symmetry_space_group_name_H-M "P 42/M M C"
_symmetry_group_IT_number 131
_symmetry_cell_setting 'tetragonal'
loop_
_space_group_symop_operation_xyz
x,y,z
-x,-y,z
-y,x,1/2+z
y,-x,1/2+z
-x,y,-z
x,-y,-z
y,x,1/2-z
-y,-x,1/2-z
-x,-y,-z
x,y,-z
y,-x,1/2-z
-y,x,1/2-z
x,-y,z
-x,y,z
-y,-x,1/2+z
y,x,1/2+z
loop_
_atom_site_type_symbol
_atom_site_label
_atom_site_fract_x
_atom_site_fract_y
_atom_site_fract_z
Si Si1 0.727743 0.887226 0.302490
Si Si2 0.885560 0.613464 0.106050
Si Si3 0.116116 0.387603 0.393612
Si Si4 0.785417 0.797210 0.555346
Si Si5 0.000000 0.112360 0.055622
Si Si6 0.277067 0.886604 0.802316
O O1 0.640013 0.868524 0.339464
O O2 0.820329 0.817826 0.315535
O O3 0.685023 0.864072 0.250472
O O4 0.767679 0.000000 0.305326
O O5 0.856375 0.500000 0.099212
O O6 0.809734 0.672123 0.072320
O O7 0.000000 0.634093 0.091071
O O8 0.155249 0.500000 0.404361
O O9 0.170689 0.305314 0.424909
O O10 0.135771 0.366185 0.338588
O O11 0.000000 0.380546 0.405818
O O12 0.792502 0.790371 0.500000
O O13 0.839484 0.897418 0.575115
O O14 0.000000 0.000000 0.073234
O O15 0.000000 0.121296 0.000000
O O16 0.240887 0.000000 0.807253
#
# Coordination Sequence:
#
# PCOD8316141 Si02
#       6
#    16  16  16  16   8  16
#     4   9  17  30  49  77 110 139 171 210 258 312
#     4  10  20  34  53  78 107 138 175 218 266 317
#     4  10  21  36  54  78 108 143 181 215 255 311
#     4  11  21  35  53  76 106 137 177 224 267 312
#     4   9  18  32  51  75 103 135 168 208 259 315
#     4   9  17  30  50  76 108 142 173 208 253 312
#
# _framework density 17.114840000000001
#
# number of rings (size 3 to 8) (size 9 to 14) (size 15 to 20)
#    0.000    2.273    2.727    0.545    0.000    2.909 
#    0.000    7.273    0.000    0.545    0.000    1.273 
#    0.000    2.909    0.000    0.000    0.000    0.000 
#
# Total GULP energy -1090883.543744 kJ/mol
# GULP energy per Si atom -12396.403906 kJ/mol
# Density = 1.707589 g / cm^3
# Si number density = 17.114840 Si / 1000 Ang^3
#
#
#
# Elastic Constant Matrix: (Units=GPa)
#
#
# Indices 1 2 3 4 5 6 
#
# 1 108.6749 62.0569 45.4211 0.0000 0.0000 0.0000
# 2 62.0569 108.6749 45.4211 0.0000 0.0000 0.0000
# 3 45.4211 45.4211 66.7423 0.0000 0.0000 0.0000
# 4 0.0000 0.0000 0.0000 22.1356 0.0000 0.0000
# 5 0.0000 0.0000 0.0000 0.0000 22.1356 0.0000
# 6 0.0000 0.0000 0.0000 0.0000 0.0000 19.6021
#
#
#
# Elastic Compliance Matrix: (Units=1/GPa)
#
#
# Indices 1 2 3 4 5 6 
#
# 1 0.015316 -0.006134 -0.006249 0.000000 0.000000 0.000000
# 2 -0.006134 0.015316 -0.006249 0.000000 0.000000 0.000000
# 3 -0.006249 -0.006249 0.023488 0.000000 0.000000 0.000000
# 4 0.000000 0.000000 0.000000 0.045176 0.000000 0.000000
# 5 0.000000 0.000000 0.000000 0.000000 0.045176 0.000000
# 6 0.000000 0.000000 0.000000 0.000000 0.000000 0.051015
#
#
# Mechanical properties :
#
#
# Convention : Reuss Voigt Hill
#
# Bulk Modulus (GPa) = 59.32231 65.54338 62.43285
# Shear Modulus (GPa) = 20.97571 21.52085 21.24828
#
# Velocity S-wave (km/s) = 3.50463 3.54988 3.52733
# Velocity P-wave (km/s) = 7.14935 7.42843 7.29023
#
# Compressibility (1/GPa) = 0.01685706
#
# Stress axis : x y z
#
# Youngs Moduli (GPa) = 65.28943 65.28943 42.57481
#
# Poissons Ratio (x) = 0.40052 0.26604
# Poissons Ratio (y) = 0.40052 0.26604
# Poissons Ratio (z) = 0.40798 0.40798
#
# Static dielectric constant tensor:
#      x y z
#    x 3.073970 0.000000 0.000000 
#    y 0.000000 3.073970 0.000000 
#    z 0.000000 0.000000 3.302230 
# 
# 
# High freq. dielectric constant tensor:
#      x y z
#    x 1.640480 0.000000 0.000000 
#    y 0.000000 1.640480 0.000000 
#    z 0.000000 0.000000 1.671130 
# 
# From -- ./inp_files/13562.got.cif
#   From: 2010.03.12/outbox.cif.g09.slc.cpg/sg131_7_cif.got.tgz:13562.got - 2010.04.06 17:36:35.
