data_PCOD8316411
_publ_section_title
;
Structure prediction by ZEFSAII (Michael W. Deem and Ramdas Pophale) SiO2 
 PCOD8316411
Probable space group: P 42/M C M
;
_chemical_formula_sum "Si O2"
_cell_formula_units_Z 96
_cell_length_a 19.689894
_cell_length_b 19.689894
_cell_length_c 17.059566
_cell_angle_alpha 90.000000
_cell_angle_beta 90.000000
_cell_angle_gamma 90.000000
_cell_volume 6613.855995
_symmetry_space_group_name_H-M "P 42/M C M"
_symmetry_group_IT_number 132
_symmetry_cell_setting 'tetragonal'
loop_
_space_group_symop_operation_xyz
x,y,z
-y,x,1/2+z
-x,-y,z
y,-x,1/2+z
x,-y,1/2-z
-x,y,1/2-z
y,x,-z
-y,-x,-z
-x,-y,-z
y,-x,1/2-z
x,y,-z
-y,x,1/2-z
-x,y,1/2+z
x,-y,1/2+z
-y,-x,z
y,x,z
loop_
_atom_site_type_symbol
_atom_site_label
_atom_site_fract_x
_atom_site_fract_y
_atom_site_fract_z
Si Si1 0.863274 0.239947 0.659934
Si Si2 0.353738 0.061463 0.411150
Si Si3 0.967418 0.857631 0.090262
Si Si4 0.098605 0.626979 0.587765
Si Si5 0.772337 0.941748 0.307580
Si Si6 0.919709 0.508643 0.662142
O O1 0.788093 0.211908 0.641102
O O2 0.916685 0.206044 0.599288
O O3 0.864400 0.320768 0.646992
O O4 0.879334 0.214820 0.748887
O O5 0.349845 0.086963 0.500000
O O6 0.283693 0.081727 0.369797
O O7 0.417020 0.099770 0.370189
O O8 0.362694 0.981353 0.405775
O O9 0.927979 0.927979 0.113456
O O10 0.031884 0.841346 0.147529
O O11 0.991962 0.861583 0.000000
O O12 0.124955 0.640130 0.500000
O O13 0.116734 0.549836 0.611142
O O14 0.742255 0.000000 0.250000
O O15 0.892885 0.500000 0.750000
O O16 0.000000 0.500000 0.657354
#
# Coordination Sequence:
#
# PCOD8316411 Si02
#       6
#    16  16  16  16  16  16
#     4  10  19  28  40  56  74  97 125 159 199 241
#     4  10  17  25  38  56  76 101 125 147 182 232
#     4   9  16  26  41  59  74  90 116 151 195 247
#     4  10  17  26  38  55  78 101 127 158 186 225
#     4  10  17  26  41  55  76  97 123 153 193 237
#     4   9  17  24  36  53  79 106 126 147 177 219
#
# _framework density 14.514981000000001
#
# number of rings (size 3 to 8) (size 9 to 14) (size 15 to 20)
#    0.000    2.333    3.333    2.500    2.333    3.000 
#    0.000    0.000    0.000    2.500    0.000    4.667 
#    0.000    0.667    0.000    1.833    0.000    0.000 
#
# Total GULP energy -1189623.796062 kJ/mol
# GULP energy per Si atom -12391.914542 kJ/mol
# Density = 1.448194 g / cm^3
# Si number density = 14.514981 Si / 1000 Ang^3
#
#
#
# Elastic Constant Matrix: (Units=GPa)
#
#
# Indices 1 2 3 4 5 6 
#
# 1 40.8691 28.0657 28.0027 0.0000 0.0000 0.0000
# 2 28.0657 40.8691 28.0027 0.0000 0.0000 0.0000
# 3 28.0027 28.0027 102.3557 0.0000 0.0000 0.0000
# 4 0.0000 0.0000 0.0000 11.8618 0.0000 0.0000
# 5 0.0000 0.0000 0.0000 0.0000 11.8618 0.0000
# 6 0.0000 0.0000 0.0000 0.0000 0.0000 8.1772
#
#
#
# Elastic Compliance Matrix: (Units=1/GPa)
#
#
# Indices 1 2 3 4 5 6 
#
# 1 0.048378 -0.029726 -0.005103 0.000000 0.000000 0.000000
# 2 -0.029726 0.048378 -0.005103 0.000000 0.000000 0.000000
# 3 -0.005103 -0.005103 0.012562 0.000000 0.000000 0.000000
# 4 0.000000 0.000000 0.000000 0.084304 0.000000 0.000000
# 5 0.000000 0.000000 0.000000 0.000000 0.084304 0.000000
# 6 0.000000 0.000000 0.000000 0.000000 0.000000 0.122292
#
#
# Mechanical properties :
#
#
# Convention : Reuss Voigt Hill
#
# Bulk Modulus (GPa) = 33.95028 39.13734 36.54381
# Shear Modulus (GPa) = 10.20613 13.04834 11.62723
#
# Velocity S-wave (km/s) = 2.65456 3.00151 2.83335
# Velocity P-wave (km/s) = 5.73029 6.24772 5.99459
#
# Compressibility (1/GPa) = 0.02945484
#
# Stress axis : x y z
#
# Youngs Moduli (GPa) = 20.67034 20.67034 79.60514
#
# Poissons Ratio (x) = 0.61445 0.40622
# Poissons Ratio (y) = 0.61445 0.40622
# Poissons Ratio (z) = 0.10548 0.10548
#
# Static dielectric constant tensor:
#      x y z
#    x 2.580840 0.000000 0.000000 
#    y 0.000000 2.580840 0.000000 
#    z 0.000000 0.000000 3.048580 
# 
# 
# High freq. dielectric constant tensor:
#      x y z
#    x 1.506770 0.000000 0.000000 
#    y 0.000000 1.506770 0.000000 
#    z 0.000000 0.000000 1.575310 
# 
# From -- ./inp_files/5018.got.cif
#   From: 2010.03.12/outbox.cif.g09.slc.cpg/sg132_3_cif.got.tgz:5018.got - 2010.04.06 17:53:44.
