data_PCOD8316498
_publ_section_title
;
Structure prediction by ZEFSAII (Michael W. Deem and Ramdas Pophale) SiO2 
 PCOD8316498
Probable space group: P 42/M C M
;
_chemical_formula_sum "Si O2"
_cell_formula_units_Z 96
_cell_length_a 24.641879
_cell_length_b 24.641879
_cell_length_c 8.873047
_cell_angle_alpha 90.000000
_cell_angle_beta 90.000000
_cell_angle_gamma 90.000000
_cell_volume 5387.911126
_symmetry_space_group_name_H-M "P 42/M C M"
_symmetry_group_IT_number 132
_symmetry_cell_setting 'tetragonal'
loop_
_space_group_symop_operation_xyz
x,y,z
-y,x,1/2+z
-x,-y,z
y,-x,1/2+z
x,-y,1/2-z
-x,y,1/2-z
y,x,-z
-y,-x,-z
-x,-y,-z
y,-x,1/2-z
x,y,-z
-y,x,1/2-z
-x,y,1/2+z
x,-y,1/2+z
-y,-x,z
y,x,z
loop_
_atom_site_type_symbol
_atom_site_label
_atom_site_fract_x
_atom_site_fract_y
_atom_site_fract_z
Si Si1 0.267691 0.867737 0.320580
Si Si2 0.447803 0.764317 0.665620
Si Si3 0.057734 0.942267 0.680999
Si Si4 0.447962 0.891734 0.332240
Si Si5 0.057395 0.349460 0.321935
Si Si6 0.145631 0.854370 0.321910
Si Si7 0.327774 0.241215 0.820421
O O1 0.272671 0.873030 0.500000
O O2 0.292891 0.920373 0.241753
O O3 0.205754 0.868323 0.264310
O O4 0.298096 0.813361 0.262623
O O5 0.500000 0.738498 0.750000
O O6 0.447496 0.737795 0.500000
O O7 0.456329 0.828118 0.652261
O O8 0.389192 0.752847 0.745043
O O9 0.053745 0.946256 0.500000
O O10 0.101882 0.898119 0.736233
O O11 0.000000 0.924473 0.750000
O O12 0.500000 0.918333 0.250000
O O13 0.441046 0.917153 0.500000
O O14 0.395919 0.901332 0.229416
O O15 0.052657 0.347110 0.500000
O O16 0.000000 0.363020 0.250000
O O17 0.145813 0.854188 0.500000
O O18 0.293043 0.293043 0.766371
O O19 0.330712 0.237666 0.000000
#
# Coordination Sequence:
#
# PCOD8316498 Si02
#       7
#    16  16   8  16  16   8  16
#     4  10  18  35  57  79 105 134 169 210 257 317
#     4   9  17  29  48  75 104 138 173 211 255 302
#     4  10  20  37  58  84 106 132 166 206 260 319
#     4  10  19  34  54  76 100 131 174 221 269 317
#     4  12  25  39  53  72 100 137 177 221 267 314
#     4   9  19  34  61  88 108 136 170 206 257 319
#     4   9  15  27  52  80 103 134 177 214 249 301
#
# _framework density 17.817665000000002
#
# number of rings (size 3 to 8) (size 9 to 14) (size 15 to 20)
#    0.000    2.083    2.500    2.500    0.000    1.667 
#    0.000    5.417    0.000    1.500    0.000    0.000 
#    0.000    0.333    0.000    4.167    0.000    0.000 
#
# Total GULP energy -1190060.662099 kJ/mol
# GULP energy per Si atom -12396.465230 kJ/mol
# Density = 1.777711 g / cm^3
# Si number density = 17.817665 Si / 1000 Ang^3
#
#
#
# Elastic Constant Matrix: (Units=GPa)
#
#
# Indices 1 2 3 4 5 6 
#
# 1 90.0233 38.1930 28.6178 0.0000 0.0000 0.0000
# 2 38.1930 90.0234 28.6179 0.0000 0.0000 0.0000
# 3 28.6178 28.6179 74.8526 0.0000 0.0000 0.0000
# 4 0.0000 0.0000 0.0000 19.8819 0.0000 0.0000
# 5 0.0000 0.0000 0.0000 0.0000 19.8819 0.0000
# 6 0.0000 0.0000 0.0000 0.0000 0.0000 16.4583
#
#
#
# Elastic Compliance Matrix: (Units=1/GPa)
#
#
# Indices 1 2 3 4 5 6 
#
# 1 0.014349 -0.004945 -0.003595 0.000000 0.000000 0.000000
# 2 -0.004945 0.014349 -0.003595 0.000000 0.000000 0.000000
# 3 -0.003595 -0.003595 0.016109 0.000000 0.000000 0.000000
# 4 0.000000 0.000000 0.000000 0.050297 0.000000 0.000000
# 5 0.000000 0.000000 0.000000 0.000000 0.050297 0.000000
# 6 0.000000 0.000000 0.000000 0.000000 0.000000 0.060760
#
#
# Mechanical properties :
#
#
# Convention : Reuss Voigt Hill
#
# Bulk Modulus (GPa) = 48.69597 49.52852 49.11225
# Shear Modulus (GPa) = 21.07240 21.87578 21.47409
#
# Velocity S-wave (km/s) = 3.44273 3.50774 3.47538
# Velocity P-wave (km/s) = 6.57211 6.65308 6.61272
#
# Compressibility (1/GPa) = 0.02053558
#
# Stress axis : x y z
#
# Youngs Moduli (GPa) = 69.69110 69.69112 62.07764
#
# Poissons Ratio (x) = 0.34460 0.22320
# Poissons Ratio (y) = 0.34460 0.22320
# Poissons Ratio (z) = 0.25057 0.25057
#
# Static dielectric constant tensor:
#      x y z
#    x 3.352480 0.000000 0.000000 
#    y 0.000000 3.352480 0.000000 
#    z 0.000000 0.000000 3.243840 
# 
# 
# High freq. dielectric constant tensor:
#      x y z
#    x 1.678350 0.000000 0.000000 
#    y 0.000000 1.678350 0.000000 
#    z 0.000000 0.000000 1.668090 
# 
# From -- ./inp_files/1855.got.cif
#   From: 2010.03.12/outbox.cif.g09.slc.cpg/sg132_1_cif.got.tgz:1855.got - 2010.04.06 17:53:44.
