data_PCOD8316768
_publ_section_title
;
Structure prediction by ZEFSAII (Michael W. Deem and Ramdas Pophale) SiO2 
 PCOD8316768
Probable space group: P 42/M C M
;
_chemical_formula_sum "Si O2"
_cell_formula_units_Z 80
_cell_length_a 17.045836
_cell_length_b 17.045836
_cell_length_c 14.666803
_cell_angle_alpha 90.000000
_cell_angle_beta 90.000000
_cell_angle_gamma 90.000000
_cell_volume 4261.593979
_symmetry_space_group_name_H-M "P 42/M C M"
_symmetry_group_IT_number 132
_symmetry_cell_setting 'tetragonal'
loop_
_space_group_symop_operation_xyz
x,y,z
-y,x,1/2+z
-x,-y,z
y,-x,1/2+z
x,-y,1/2-z
-x,y,1/2-z
y,x,-z
-y,-x,-z
-x,-y,-z
y,-x,1/2-z
x,y,-z
-y,x,1/2-z
-x,y,1/2+z
x,-y,1/2+z
-y,-x,z
y,x,z
loop_
_atom_site_type_symbol
_atom_site_label
_atom_site_fract_x
_atom_site_fract_y
_atom_site_fract_z
Si Si1 0.086972 0.790321 0.101465
Si Si2 0.500000 0.625917 0.750000
Si Si3 0.590666 0.719073 0.894471
Si Si4 0.586823 0.142155 0.265905
Si Si5 0.000000 0.704604 0.250000
Si Si6 0.341937 0.781893 0.900068
O O1 0.128439 0.871562 0.134539
O O2 0.151903 0.723609 0.100708
O O3 0.016290 0.763210 0.166167
O O4 0.052352 0.801830 0.000000
O O5 0.573103 0.573103 0.718926
O O6 0.521003 0.677745 0.838189
O O7 0.672703 0.672703 0.881700
O O8 0.599282 0.807810 0.857757
O O9 0.565893 0.721524 0.000000
O O10 0.500000 0.106428 0.250000
O O11 0.649793 0.073397 0.272603
O O12 0.596788 0.200716 0.179683
O O13 0.302313 0.697688 0.881232
O O14 0.383327 0.782131 0.000000
#
# Coordination Sequence:
#
# PCOD8316768 Si02
#       6
#    16   8  16  16   8  16
#     4   8  15  31  55  80 103 129 168 218 264 309
#     4   9  18  36  60  83 108 144 192 243 290 334
#     4  10  21  37  56  80 112 149 189 238 290 336
#     4  11  21  34  49  74 112 149 181 220 270 334
#     4  10  21  34  56  81 106 144 184 222 272 335
#     4   8  15  30  52  73  92 123 174 226 262 296
#
# _framework density 18.772317999999999
#
# number of rings (size 3 to 8) (size 9 to 14) (size 15 to 20)
#    0.000    2.700    1.000    2.100    0.000    2.800 
#    0.000    2.000    0.000    6.900    0.000    1.400 
#    0.000    0.000    0.000    0.000    0.000    0.000 
#
# Total GULP energy -991632.197829 kJ/mol
# GULP energy per Si atom -12395.402473 kJ/mol
# Density = 1.872959 g / cm^3
# Si number density = 18.772318 Si / 1000 Ang^3
#
#
#
# Elastic Constant Matrix: (Units=GPa)
#
#
# Indices 1 2 3 4 5 6 
#
# 1 86.0740 38.2673 57.2019 0.0000 0.0000 0.0000
# 2 38.2673 86.0740 57.2019 0.0000 0.0000 0.0000
# 3 57.2019 57.2019 146.5592 0.0000 0.0000 0.0000
# 4 0.0000 0.0000 0.0000 27.9584 0.0000 0.0000
# 5 0.0000 0.0000 0.0000 0.0000 27.9584 0.0000
# 6 0.0000 0.0000 0.0000 0.0000 0.0000 27.1212
#
#
#
# Elastic Compliance Matrix: (Units=1/GPa)
#
#
# Indices 1 2 3 4 5 6 
#
# 1 0.016733 -0.004184 -0.004898 0.000000 0.000000 0.000000
# 2 -0.004184 0.016733 -0.004898 0.000000 0.000000 0.000000
# 3 -0.004898 -0.004898 0.010646 0.000000 0.000000 0.000000
# 4 0.000000 0.000000 0.000000 0.035767 0.000000 0.000000
# 5 0.000000 0.000000 0.000000 0.000000 0.035767 0.000000
# 6 0.000000 0.000000 0.000000 0.000000 0.000000 0.036872
#
#
# Mechanical properties :
#
#
# Convention : Reuss Voigt Hill
#
# Bulk Modulus (GPa) = 61.90894 69.33884 65.62389
# Shear Modulus (GPa) = 26.90154 27.67669 27.28911
#
# Velocity S-wave (km/s) = 3.78966 3.84387 3.81686
# Velocity P-wave (km/s) = 7.22490 7.53110 7.37959
#
# Compressibility (1/GPa) = 0.01615276
#
# Stress axis : x y z
#
# Youngs Moduli (GPa) = 59.76172 59.76172 93.92893
#
# Poissons Ratio (x) = 0.25007 0.46004
# Poissons Ratio (y) = 0.25007 0.46004
# Poissons Ratio (z) = 0.29270 0.29270
#
# Static dielectric constant tensor:
#      x y z
#    x 3.344570 0.000000 0.000000 
#    y 0.000000 3.344570 0.000000 
#    z 0.000000 0.000000 3.731530 
# 
# 
# High freq. dielectric constant tensor:
#      x y z
#    x 1.715260 0.000000 0.000000 
#    y 0.000000 1.715260 0.000000 
#    z 0.000000 0.000000 1.731430 
# 
# From -- ./inp_files/4693.got.cif
#   From: 2010.03.12/outbox.cif.g09.slc.cpg/sg132_3_cif.got.tgz:4693.got - 2010.04.06 17:53:44.
