data_PCOD8316601
_publ_section_title
;
Structure prediction by ZEFSAII (Michael W. Deem and Ramdas Pophale) SiO2 
 PCOD8316601
Probable space group: P 42/M C M
;
_chemical_formula_sum "Si O2"
_cell_formula_units_Z 120
_cell_length_a 20.064074
_cell_length_b 20.064074
_cell_length_c 16.595354
_cell_angle_alpha 90.000000
_cell_angle_beta 90.000000
_cell_angle_gamma 90.000000
_cell_volume 6680.742960
_symmetry_space_group_name_H-M "P 42/M C M"
_symmetry_group_IT_number 132
_symmetry_cell_setting 'tetragonal'
loop_
_space_group_symop_operation_xyz
x,y,z
-y,x,1/2+z
-x,-y,z
y,-x,1/2+z
x,-y,1/2-z
-x,y,1/2-z
y,x,-z
-y,-x,-z
-x,-y,-z
y,-x,1/2-z
x,y,-z
-y,x,1/2-z
-x,y,1/2+z
x,-y,1/2+z
-y,-x,z
y,x,z
loop_
_atom_site_type_symbol
_atom_site_label
_atom_site_fract_x
_atom_site_fract_y
_atom_site_fract_z
Si Si1 0.055391 0.944610 0.589917
Si Si2 0.136009 0.242082 0.091500
Si Si3 0.163193 0.444682 0.186383
Si Si4 0.535113 0.069002 0.087011
Si Si5 0.008667 0.810383 0.342898
Si Si6 0.071932 0.350085 0.711665
Si Si7 0.236589 0.875231 0.093802
Si Si8 0.755818 0.651089 0.094699
O O1 0.077809 0.922192 0.500000
O O2 0.115612 0.969983 0.641949
O O3 0.000000 0.000000 0.583506
O O4 0.169582 0.169582 0.103177
O O5 0.065989 0.244226 0.137569
O O6 0.186019 0.298429 0.122133
O O7 0.118719 0.256162 0.000000
O O8 0.186684 0.500000 0.250000
O O9 0.121598 0.481356 0.118051
O O10 0.119487 0.384349 0.222652
O O11 0.230991 0.415481 0.146257
O O12 0.594895 0.054308 0.146429
O O13 0.500000 0.000000 0.074605
O O14 0.561556 0.094667 0.000000
O O15 0.000000 0.798420 0.250000
O O16 0.943824 0.803680 0.398988
O O17 0.115020 0.293662 0.663031
O O18 0.000000 0.326140 0.750000
O O19 0.188349 0.811652 0.114376
O O20 0.261953 0.868317 0.000000
O O21 0.684191 0.684191 0.115828
O O22 0.759420 0.635787 0.000000
#
# Coordination Sequence:
#
# PCOD8316601 Si02
#       8
#     8  16  16  16  16  16  16  16
#     4  11  24  40  56  68  90 122 154 208 292 366
#     4   9  18  34  54  75 100 132 173 220 276 340
#     4  10  21  34  55  84 121 148 181 231 276 325
#     4  10  19  33  56  82 114 148 177 215 277 346
#     4  12  25  36  55  76  94 120 166 230 290 341
#     4  11  22  38  55  80 106 138 180 234 285 342
#     4  11  26  44  56  70  98 137 186 231 279 346
#     4   9  19  35  56  83 116 152 190 226 270 331
#
# _framework density 17.962073
#
# number of rings (size 3 to 8) (size 9 to 14) (size 15 to 20)
#    0.000    1.667    2.000    3.600    5.600    1.600 
#    0.000    0.000    0.000    0.000    0.000    0.000 
#    0.000    0.267    0.000    1.467    0.000    1.467 
#
# Total GULP energy -1486719.236143 kJ/mol
# GULP energy per Si atom -12389.326968 kJ/mol
# Density = 1.792119 g / cm^3
# Si number density = 17.962073 Si / 1000 Ang^3
#
#
#
# Elastic Constant Matrix: (Units=GPa)
#
#
# Indices 1 2 3 4 5 6 
#
# 1 70.2580 28.3303 29.6735 0.0000 0.0000 0.0000
# 2 28.3303 70.2583 29.6736 0.0000 0.0000 0.0000
# 3 29.6735 29.6736 90.4727 0.0000 0.0000 0.0000
# 4 0.0000 0.0000 0.0000 -0.1920 0.0000 0.0000
# 5 0.0000 0.0000 0.0000 0.0000 -0.1915 0.0000
# 6 0.0000 0.0000 0.0000 0.0000 0.0000 23.4171
#
#
#
# Elastic Compliance Matrix: (Units=1/GPa)
#
#
# Indices 1 2 3 4 5 6 
#
# 1 0.018244 -0.005606 -0.004145 0.000000 0.000000 0.000000
# 2 -0.005606 0.018244 -0.004145 0.000000 0.000000 0.000000
# 3 -0.004145 -0.004145 0.013772 0.000000 0.000000 0.000000
# 4 0.000000 0.000000 0.000000 -5.209618 0.000000 0.000000
# 5 0.000000 0.000000 0.000000 0.000000 -5.221037 0.000000
# 6 0.000000 0.000000 0.000000 0.000000 0.000000 0.042704
#
#
# Mechanical properties :
#
#
# Convention : Reuss Voigt Hill
#
# Bulk Modulus (GPa) = 44.50722 45.14932 44.82827
# Shear Modulus (GPa) = -0.48532 14.16082 6.83775
#
# Velocity S-wave (km/s) = -0.52037 2.81085 1.95321
# Velocity P-wave (km/s) = 4.94684 5.97704 5.48617
#
# Compressibility (1/GPa) = 0.02246827
#
# Stress axis : x y z
#
# Youngs Moduli (GPa) = 54.81105 54.81126 72.61010
#
# Poissons Ratio (x) = 0.30727 0.30098
# Poissons Ratio (y) = 0.30727 0.30098
# Poissons Ratio (z) = 0.22720 0.22720
#
# Static dielectric constant tensor:
#      x y z
#    x 2.878250 0.000000 0.000000 
#    y 0.000000 2.878120 0.000000 
#    z 0.000000 0.000000 3.527330 
# 
# 
# High freq. dielectric constant tensor:
#      x y z
#    x 1.674610 0.000000 0.000000 
#    y 0.000000 1.674610 0.000000 
#    z 0.000000 0.000000 1.713180 
# 
# From -- ./inp_files/5127.got.cif
#   From: 2010.03.12/outbox.cif.g09.slc.cpg/sg132_3_cif.got.tgz:5127.got - 2010.04.06 17:53:44.
