data_PCOD8316361
_publ_section_title
;
Structure prediction by ZEFSAII (Michael W. Deem and Ramdas Pophale) SiO2 
 PCOD8316361
Probable space group: P 42/M M C
;
_chemical_formula_sum "Si O2"
_cell_formula_units_Z 34
_cell_length_a 7.249504
_cell_length_b 7.249504
_cell_length_c 32.096547
_cell_angle_alpha 90.000000
_cell_angle_beta 90.000000
_cell_angle_gamma 90.000000
_cell_volume 1686.843921
_symmetry_space_group_name_H-M "P 42/M M C"
_symmetry_group_IT_number 131
_symmetry_cell_setting 'tetragonal'
loop_
_space_group_symop_operation_xyz
x,y,z
-x,-y,z
-y,x,1/2+z
y,-x,1/2+z
-x,y,-z
x,-y,-z
y,x,1/2-z
-y,-x,1/2-z
-x,-y,-z
x,y,-z
y,-x,1/2-z
-y,x,1/2-z
x,-y,z
-x,y,z
-y,-x,1/2+z
y,x,1/2+z
loop_
_atom_site_type_symbol
_atom_site_label
_atom_site_fract_x
_atom_site_fract_y
_atom_site_fract_z
Si Si1 0.218274 0.205838 0.111375
Si Si2 0.216492 0.500000 0.821582
Si Si3 0.500000 0.500000 0.250000
Si Si4 0.219624 0.500000 0.046510
O O1 0.276779 0.317768 0.152687
O O2 0.289914 0.317185 0.070762
O O3 0.000000 0.193421 0.109488
O O4 0.305138 0.000000 0.112139
O O5 0.317004 0.500000 0.777656
O O6 0.000000 0.500000 0.812766
O O7 0.000000 0.500000 0.045439
O O8 0.302994 0.500000 0.000000
#
# Coordination Sequence:
#
# PCOD8316361 Si02
#       4
#    16   8   2   8
#     4   8  14  27  46  65  93 135 171 202 248 299
#     4   9  20  36  50  71 100 124 157 204 248 300
#     4  12  24  36  56  80  98 124 160 204 260 308
#     4   8  13  20  34  65 105 137 172 216 250 284
#
# _framework density 20.155987
#
# number of rings (size 3 to 8) (size 9 to 14) (size 15 to 20)
#    0.000    3.529    0.000    2.824    0.000    2.824 
#    0.000    4.706    0.000    0.000    0.000   13.176 
#    0.000   15.059    0.000    1.882    0.000    0.000 
#
# Total GULP energy -421323.694493 kJ/mol
# GULP energy per Si atom -12391.873367 kJ/mol
# Density = 2.011011 g / cm^3
# Si number density = 20.155987 Si / 1000 Ang^3
#
#
#
# Elastic Constant Matrix: (Units=GPa)
#
#
# Indices 1 2 3 4 5 6 
#
# 1 130.6078 21.4938 66.4578 0.0000 0.0000 0.0000
# 2 21.4938 130.6078 66.4578 0.0000 0.0000 0.0000
# 3 66.4578 66.4578 193.6226 0.0000 0.0000 0.0000
# 4 0.0000 0.0000 0.0000 52.1303 0.0000 0.0000
# 5 0.0000 0.0000 0.0000 0.0000 52.1303 0.0000
# 6 0.0000 0.0000 0.0000 0.0000 0.0000 -5.7504
#
#
#
# Elastic Compliance Matrix: (Units=1/GPa)
#
#
# Indices 1 2 3 4 5 6 
#
# 1 0.009278 0.000113 -0.003223 0.000000 0.000000 0.000000
# 2 0.000113 0.009278 -0.003223 0.000000 0.000000 0.000000
# 3 -0.003223 -0.003223 0.007377 0.000000 0.000000 0.000000
# 4 0.000000 0.000000 0.000000 0.019183 0.000000 0.000000
# 5 0.000000 0.000000 0.000000 0.000000 0.019183 0.000000
# 6 0.000000 0.000000 0.000000 0.000000 0.000000 -0.173899
#
#
# Mechanical properties :
#
#
# Convention : Reuss Voigt Hill
#
# Bulk Modulus (GPa) = 75.37787 84.85075 80.11431
# Shear Modulus (GPa) = -54.04753 39.73061 -7.15846
#
# Velocity S-wave (km/s) = -5.18390 4.44459 -1.88660
# Velocity P-wave (km/s) = 1.28374 8.27814 5.92349
#
# Compressibility (1/GPa) = 0.01326649
#
# Stress axis : x y z
#
# Youngs Moduli (GPa) = 107.78113 107.78113 135.54771
#
# Poissons Ratio (x) = -0.01222 0.43693
# Poissons Ratio (y) = -0.01222 0.43693
# Poissons Ratio (z) = 0.34743 0.34743
#
# Static dielectric constant tensor:
#      x y z
#    x 3.768800 0.000000 0.000000 
#    y 0.000000 3.768800 0.000000 
#    z 0.000000 0.000000 3.663450 
# 
# 
# High freq. dielectric constant tensor:
#      x y z
#    x 1.780530 0.000000 0.000000 
#    y 0.000000 1.780530 0.000000 
#    z 0.000000 0.000000 1.772770 
# 
# From -- ./inp_files/11634.got.cif
#   From: 2010.03.12/outbox.cif.g09.slc.cpg/sg131_6_cif.got.tgz:11634.got - 2010.04.06 17:36:35.
