data_PCOD8316224
_publ_section_title
;
Structure prediction by ZEFSAII (Michael W. Deem and Ramdas Pophale) SiO2 
 PCOD8316224
Probable space group: P 42/M M C
;
_chemical_formula_sum "Si O2"
_cell_formula_units_Z 72
_cell_length_a 21.214055
_cell_length_b 21.214055
_cell_length_c 8.912669
_cell_angle_alpha 90.000000
_cell_angle_beta 90.000000
_cell_angle_gamma 90.000000
_cell_volume 4011.023061
_symmetry_space_group_name_H-M "P 42/M M C"
_symmetry_group_IT_number 131
_symmetry_cell_setting 'tetragonal'
loop_
_space_group_symop_operation_xyz
x,y,z
-x,-y,z
-y,x,1/2+z
y,-x,1/2+z
-x,y,-z
x,-y,-z
y,x,1/2-z
-y,-x,1/2-z
-x,-y,-z
x,y,-z
y,-x,1/2-z
-y,x,1/2-z
x,-y,z
-x,y,z
-y,-x,1/2+z
y,x,1/2+z
loop_
_atom_site_type_symbol
_atom_site_label
_atom_site_fract_x
_atom_site_fract_y
_atom_site_fract_z
Si Si1 0.072030 0.500000 0.322921
Si Si2 0.500000 0.405637 0.820756
Si Si3 0.263310 0.172325 0.676647
Si Si4 0.071108 0.162544 0.823132
Si Si5 0.500000 0.271945 0.327028
Si Si6 0.405401 0.837016 0.324542
O O1 0.076942 0.500000 0.500000
O O2 0.105699 0.562202 0.261344
O O3 0.000000 0.500000 0.267781
O O4 0.437983 0.437983 0.750000
O O5 0.500000 0.332008 0.781005
O O6 0.500000 0.414304 0.000000
O O7 0.234690 0.234690 0.750000
O O8 0.261572 0.181594 0.500000
O O9 0.223903 0.110772 0.727087
O O10 0.334256 0.165519 0.735068
O O11 0.099852 0.099852 0.750000
O O12 0.000000 0.171737 0.764991
O O13 0.073323 0.153549 0.000000
O O14 0.500000 0.294302 0.500000
O O15 0.561461 0.229867 0.290780
O O16 0.409648 0.852486 0.500000
#
# Coordination Sequence:
#
# PCOD8316224 Si02
#       6
#     8   8  16  16   8  16
#     4  10  21  35  51  75 106 136 169 211 257 303
#     4  11  22  37  56  77 102 134 169 208 253 298
#     4   9  18  33  52  75 101 130 165 205 249 297
#     4   9  18  32  49  70  97 128 163 204 247 292
#     4   9  18  34  52  75 105 131 163 206 246 294
#     4   9  19  35  55  77 102 134 171 208 247 297
#
# _framework density 17.950533
#
# number of rings (size 3 to 8) (size 9 to 14) (size 15 to 20)
#    0.000    2.667    0.000    2.333    0.000    6.000 
#    0.000    5.556    0.000    0.000    0.000    0.000 
#    0.000    0.000    0.000    0.000    0.000    0.000 
#
# Total GULP energy -892893.382719 kJ/mol
# GULP energy per Si atom -12401.296982 kJ/mol
# Density = 1.790968 g / cm^3
# Si number density = 17.950533 Si / 1000 Ang^3
#
#
#
# Elastic Constant Matrix: (Units=GPa)
#
#
# Indices 1 2 3 4 5 6 
#
# 1 161.5340 76.9467 45.1933 0.0000 0.0000 0.0000
# 2 76.9467 161.5340 45.1933 0.0000 0.0000 0.0000
# 3 45.1933 45.1933 56.5919 0.0000 0.0000 0.0000
# 4 0.0000 0.0000 0.0000 27.1305 0.0000 0.0000
# 5 0.0000 0.0000 0.0000 0.0000 27.1305 0.0000
# 6 0.0000 0.0000 0.0000 0.0000 0.0000 13.2812
#
#
#
# Elastic Compliance Matrix: (Units=1/GPa)
#
#
# Indices 1 2 3 4 5 6 
#
# 1 0.008918 -0.002904 -0.004802 0.000000 0.000000 0.000000
# 2 -0.002904 0.008918 -0.004802 0.000000 0.000000 0.000000
# 3 -0.004802 -0.004802 0.025340 0.000000 0.000000 0.000000
# 4 0.000000 0.000000 0.000000 0.036859 0.000000 0.000000
# 5 0.000000 0.000000 0.000000 0.000000 0.036859 0.000000
# 6 0.000000 0.000000 0.000000 0.000000 0.000000 0.075294
#
#
# Mechanical properties :
#
#
# Convention : Reuss Voigt Hill
#
# Bulk Modulus (GPa) = 55.07134 79.36962 67.22048
# Shear Modulus (GPa) = 22.39571 27.66358 25.02964
#
# Velocity S-wave (km/s) = 3.53602 3.92994 3.73817
# Velocity P-wave (km/s) = 6.88603 8.05632 7.49405
#
# Compressibility (1/GPa) = 0.01815827
#
# Stress axis : x y z
#
# Youngs Moduli (GPa) = 112.13687 112.13687 39.46324
#
# Poissons Ratio (x) = 0.32569 0.18950
# Poissons Ratio (y) = 0.32569 0.18950
# Poissons Ratio (z) = 0.53849 0.53849
#
# Static dielectric constant tensor:
#      x y z
#    x 3.450900 0.000000 0.000000 
#    y 0.000000 3.450900 0.000000 
#    z 0.000000 0.000000 3.201370 
# 
# 
# High freq. dielectric constant tensor:
#      x y z
#    x 1.697600 0.000000 0.000000 
#    y 0.000000 1.697600 0.000000 
#    z 0.000000 0.000000 1.688420 
# 
# From -- ./inp_files/1903.got.cif
#   From: 2010.03.12/outbox.cif.g09.slc.cpg/sg131_1_cif.got.tgz:1903.got - 2010.04.06 17:36:35.
