data_PCOD8316052
_publ_section_title
;
Structure prediction by ZEFSAII (Michael W. Deem and Ramdas Pophale) SiO2 
 PCOD8316052
Probable space group: P 42/M M C
;
_chemical_formula_sum "Si O2"
_cell_formula_units_Z 80
_cell_length_a 13.767777
_cell_length_b 13.767777
_cell_length_c 21.810426
_cell_angle_alpha 90.000000
_cell_angle_beta 90.000000
_cell_angle_gamma 90.000000
_cell_volume 4134.202967
_symmetry_space_group_name_H-M "P 42/M M C"
_symmetry_group_IT_number 131
_symmetry_cell_setting 'tetragonal'
loop_
_space_group_symop_operation_xyz
x,y,z
-x,-y,z
-y,x,1/2+z
y,-x,1/2+z
-x,y,-z
x,-y,-z
y,x,1/2-z
-y,-x,1/2-z
-x,-y,-z
x,y,-z
y,-x,1/2-z
-y,x,1/2-z
x,-y,z
-x,y,z
-y,-x,1/2+z
y,x,1/2+z
loop_
_atom_site_type_symbol
_atom_site_label
_atom_site_fract_x
_atom_site_fract_y
_atom_site_fract_z
Si Si1 0.771231 0.113016 0.432867
Si Si2 0.107747 0.385634 0.248351
Si Si3 0.699720 0.386413 0.689936
Si Si4 0.115872 0.108505 0.182872
Si Si5 0.216524 0.386093 0.124917
O O1 0.819870 0.131439 0.500000
O O2 0.834561 0.155833 0.376574
O O3 0.667629 0.168287 0.432852
O O4 0.752395 0.000000 0.423044
O O5 0.097337 0.500000 0.249264
O O6 0.186818 0.354976 0.299827
O O7 0.149151 0.354723 0.182423
O O8 0.000000 0.338546 0.259206
O O9 0.635636 0.364365 0.750000
O O10 0.691861 0.500000 0.674384
O O11 0.654249 0.325718 0.634117
O O12 0.151464 0.151464 0.250000
O O13 0.000000 0.108063 0.183850
O O14 0.156033 0.000000 0.175359
O O15 0.219419 0.500000 0.112834
#
# Coordination Sequence:
#
# PCOD8316052 Si02
#       5
#    16  16  16  16  16
#     4  10  21  35  51  73 101 135 175 215 258 313
#     4   8  14  26  45  69  98 131 165 205 257 313
#     4   9  17  29  47  72 100 131 170 216 265 318
#     4   8  15  30  52  77 105 136 169 207 254 309
#     4  10  20  32  46  66  95 131 172 217 262 311
#
# _framework density 19.350767000000001
#
# number of rings (size 3 to 8) (size 9 to 14) (size 15 to 20)
#    0.000    3.000    0.000    3.000    0.000    5.800 
#    0.000    6.000    0.000    0.600    0.000    1.400 
#    0.000   19.600    0.000    6.800    0.000    0.200 
#
# Total GULP energy -991227.123535 kJ/mol
# GULP energy per Si atom -12390.339044 kJ/mol
# Density = 1.930672 g / cm^3
# Si number density = 19.350767 Si / 1000 Ang^3
#
#
#
# Elastic Constant Matrix: (Units=GPa)
#
#
# Indices 1 2 3 4 5 6 
#
# 1 85.3858 29.0184 45.1138 0.0000 0.0000 0.0000
# 2 29.0184 85.3848 45.1139 0.0000 0.0000 0.0000
# 3 45.1138 45.1139 113.6938 0.0000 0.0000 0.0000
# 4 0.0000 0.0000 0.0000 21.6304 0.0000 0.0000
# 5 0.0000 0.0000 0.0000 0.0000 21.6305 0.0000
# 6 0.0000 0.0000 0.0000 0.0000 0.0000 21.6341
#
#
#
# Elastic Compliance Matrix: (Units=1/GPa)
#
#
# Indices 1 2 3 4 5 6 
#
# 1 0.015232 -0.002509 -0.005048 0.000000 0.000000 0.000000
# 2 -0.002509 0.015232 -0.005048 0.000000 0.000000 0.000000
# 3 -0.005048 -0.005048 0.012802 0.000000 0.000000 0.000000
# 4 0.000000 0.000000 0.000000 0.046231 0.000000 0.000000
# 5 0.000000 0.000000 0.000000 0.000000 0.046231 0.000000
# 6 0.000000 0.000000 0.000000 0.000000 0.000000 0.046223
#
#
# Mechanical properties :
#
#
# Convention : Reuss Voigt Hill
#
# Bulk Modulus (GPa) = 55.39048 58.10629 56.74838
# Shear Modulus (GPa) = 23.45432 23.99355 23.72393
#
# Velocity S-wave (km/s) = 3.48524 3.52508 3.50522
# Velocity P-wave (km/s) = 6.69944 6.83091 6.76549
#
# Compressibility (1/GPa) = 0.01805364
#
# Stress axis : x y z
#
# Youngs Moduli (GPa) = 65.65318 65.65214 78.11355
#
# Poissons Ratio (x) = 0.16474 0.39433
# Poissons Ratio (y) = 0.16474 0.39434
# Poissons Ratio (z) = 0.33143 0.33143
#
# Static dielectric constant tensor:
#      x y z
#    x 3.669950 0.000000 0.000000 
#    y 0.000000 3.669940 0.000000 
#    z 0.000000 0.000000 3.374060 
# 
# 
# High freq. dielectric constant tensor:
#      x y z
#    x 1.753480 0.000000 0.000000 
#    y 0.000000 1.753480 0.000000 
#    z 0.000000 0.000000 1.706480 
# 
# From -- ./inp_files/9377.got.cif
#   From: 2010.03.12/outbox.cif.g09.slc.cpg/sg131_5_cif.got.tgz:9377.got - 2010.04.06 17:36:35.
