data_PCOD8316935
_publ_section_title
;
Structure prediction by ZEFSAII (Michael W. Deem and Ramdas Pophale) SiO2 
 PCOD8316935
Probable space group: P 42/N B C
;
_chemical_formula_sum "Si O2"
_cell_formula_units_Z 80
_cell_length_a 18.114607
_cell_length_b 18.114607
_cell_length_c 14.263342
_cell_angle_alpha 90.000000
_cell_angle_beta 90.000000
_cell_angle_gamma 90.000000
_cell_volume 4680.358592
_symmetry_space_group_name_H-M "P 42/N B C"
_symmetry_group_IT_number 133
_space_group.IT_coordinate_system_code '2'
_symmetry_cell_setting 'tetragonal'
loop_
_space_group_symop_operation_xyz
x,y,z
1/2-y,x,1/2+z
1/2-x,1/2-y,z
y,1/2-x,1/2+z
x,1/2-y,-z
1/2-x,y,-z
y,x,1/2-z
1/2-y,1/2-x,1/2-z
-x,-y,-z
1/2+y,-x,1/2-z
1/2+x,1/2+y,-z
-y,1/2+x,1/2-z
-x,1/2+y,z
1/2+x,-y,z
-y,-x,1/2+z
1/2+y,1/2+x,1/2+z
loop_
_atom_site_type_symbol
_atom_site_label
_atom_site_fract_x
_atom_site_fract_y
_atom_site_fract_z
Si Si1 0.000413 0.162940 0.000000
Si Si2 0.602675 0.412677 0.146761
Si Si3 0.335923 0.750000 0.389778
Si Si4 0.087323 0.897325 0.646761
Si Si5 0.583245 0.973361 1.000000
O O1 0.953469 0.140959 0.908436
O O2 0.078746 0.116482 1.000000
O O3 0.018218 0.250000 0.000000
O O4 0.953469 0.140959 0.091564
O O5 0.679441 0.371202 0.158830
O O6 0.570421 0.429579 0.250000
O O7 0.618654 0.490782 0.093591
O O8 0.250000 0.750000 0.368260
O O9 0.352800 0.750000 0.500000
O O10 0.371202 0.820559 0.341170
O O11 0.009218 0.881346 0.593591
O O12 0.500000 0.000000 0.000000
#
# Coordination Sequence:
#
# PCOD8316935 Si02
#       5
#    16  16  16  16  16
#     4  10  20  34  50  71  98 129 170 217 256 300
#     4  10  20  31  49  70 102 136 174 202 248 305
#     4  11  20  30  44  69 107 145 171 202 241 300
#     4  10  20  31  49  70 102 136 174 202 248 305
#     4   8  18  34  48  67  92 133 167 213 248 294
#
# _framework density 17.092707999999998
#
# number of rings (size 3 to 8) (size 9 to 14) (size 15 to 20)
#    0.000    2.600    4.000    1.200    5.600    7.200 
#    0.000    0.000    0.000    0.000    0.000    2.800 
#    0.000    0.000    0.000    0.000    0.000    0.000 
#
# Total GULP energy -991306.267491 kJ/mol
# GULP energy per Si atom -12391.328344 kJ/mol
# Density = 1.705380 g / cm^3
# Si number density = 17.092708 Si / 1000 Ang^3
#
#
#
# Elastic Constant Matrix: (Units=GPa)
#
#
# Indices 1 2 3 4 5 6 
#
# 1 94.0455 35.0627 34.8724 0.0000 0.0000 0.0000
# 2 35.0627 94.0455 34.8724 0.0000 0.0000 0.0000
# 3 34.8724 34.8724 137.8162 0.0000 0.0000 0.0000
# 4 0.0000 0.0000 0.0000 5.1937 0.0000 0.0000
# 5 0.0000 0.0000 0.0000 0.0000 5.1937 0.0000
# 6 0.0000 0.0000 0.0000 0.0000 0.0000 30.7492
#
#
#
# Elastic Compliance Matrix: (Units=1/GPa)
#
#
# Indices 1 2 3 4 5 6 
#
# 1 0.012963 -0.003991 -0.002270 0.000000 0.000000 0.000000
# 2 -0.003991 0.012963 -0.002270 0.000000 0.000000 0.000000
# 3 -0.002270 -0.002270 0.008405 0.000000 0.000000 0.000000
# 4 0.000000 0.000000 0.000000 0.192539 0.000000 0.000000
# 5 0.000000 0.000000 0.000000 0.000000 0.192539 0.000000
# 6 0.000000 0.000000 0.000000 0.000000 0.000000 0.032521
#
#
# Mechanical properties :
#
#
# Convention : Reuss Voigt Hill
#
# Bulk Modulus (GPa) = 57.91130 59.50246 58.70688
# Shear Modulus (GPa) = 10.53186 22.96731 16.74959
#
# Velocity S-wave (km/s) = 2.48495 3.66962 3.13377
# Velocity P-wave (km/s) = 6.49520 7.26925 6.89310
#
# Compressibility (1/GPa) = 0.01726779
#
# Stress axis : x y z
#
# Youngs Moduli (GPa) = 77.14297 77.14297 118.97798
#
# Poissons Ratio (x) = 0.30789 0.27010
# Poissons Ratio (y) = 0.30789 0.27010
# Poissons Ratio (z) = 0.17513 0.17513
#
# Static dielectric constant tensor:
#      x y z
#    x 3.515400 0.000000 0.000000 
#    y 0.000000 3.515400 0.000000 
#    z 0.000000 0.000000 3.664970 
# 
# 
# High freq. dielectric constant tensor:
#      x y z
#    x 1.633130 0.000000 0.000000 
#    y 0.000000 1.633130 0.000000 
#    z 0.000000 0.000000 1.669070 
# 
# From -- ./inp_files/4350.got.cif
#   From: 2010.03.12/outbox.cif.g09.slc.cpg/sg133_3_cif.got.tgz:4350.got - 2010.04.06 18:08:06.
