data_PCOD8316572
_publ_section_title
;
Structure prediction by ZEFSAII (Michael W. Deem and Ramdas Pophale) SiO2 
 PCOD8316572
Probable space group: P 42/M C M
;
_chemical_formula_sum "Si O2"
_cell_formula_units_Z 96
_cell_length_a 24.796843
_cell_length_b 24.796843
_cell_length_c 8.934029
_cell_angle_alpha 90.000000
_cell_angle_beta 90.000000
_cell_angle_gamma 90.000000
_cell_volume 5493.386331
_symmetry_space_group_name_H-M "P 42/M C M"
_symmetry_group_IT_number 132
_symmetry_cell_setting 'tetragonal'
loop_
_space_group_symop_operation_xyz
x,y,z
-y,x,1/2+z
-x,-y,z
y,-x,1/2+z
x,-y,1/2-z
-x,y,1/2-z
y,x,-z
-y,-x,-z
-x,-y,-z
y,-x,1/2-z
x,y,-z
-y,x,1/2-z
-x,y,1/2+z
x,-y,1/2+z
-y,-x,z
y,x,z
loop_
_atom_site_type_symbol
_atom_site_label
_atom_site_fract_x
_atom_site_fract_y
_atom_site_fract_z
Si Si1 0.266527 0.849865 0.323311
Si Si2 0.554293 0.784013 0.673071
Si Si3 0.057804 0.942197 0.681000
Si Si4 0.554334 0.910052 0.674876
Si Si5 0.052523 0.339927 0.176940
Si Si6 0.145550 0.854451 0.323356
Si Si7 0.329434 0.245021 0.672533
O O1 0.266565 0.841481 0.500000
O O2 0.305184 0.897156 0.269424
O O3 0.206575 0.866285 0.267996
O O4 0.288353 0.794867 0.254145
O O5 0.500000 0.761070 0.750000
O O6 0.546751 0.771385 0.500000
O O7 0.561452 0.846895 0.707157
O O8 0.609159 0.756008 0.736593
O O9 0.054106 0.945895 0.500000
O O10 0.102020 0.897981 0.737416
O O11 0.000000 0.924984 0.750000
O O12 0.500000 0.931436 0.750000
O O13 0.554440 0.923295 0.500000
O O14 0.600831 0.942506 0.756365
O O15 0.000000 0.312465 0.250000
O O16 0.047083 0.342176 0.000000
O O17 0.142197 0.857804 0.500000
O O18 0.331683 0.226753 0.500000
O O19 0.305428 0.305428 0.690489
#
# Coordination Sequence:
#
# PCOD8316572 Si02
#       7
#    16  16   8  16  16   8  16
#     4  10  20  35  54  75 101 133 170 206 250 306
#     4   9  18  31  49  74 104 138 172 210 254 299
#     4  10  20  37  60  82 106 130 162 206 256 313
#     4  10  19  33  52  72  96 127 169 217 261 306
#     4  11  23  36  51  71  96 131 170 212 259 307
#     4   9  19  36  57  80 106 134 162 202 251 303
#     4  10  19  32  52  79 108 137 170 210 257 303
#
# _framework density 17.475560000000002
#
# number of rings (size 3 to 8) (size 9 to 14) (size 15 to 20)
#    0.000    2.083    2.500    1.500    0.000    3.000 
#    0.000    3.333    0.000    0.000    0.000    0.000 
#    0.000    0.333    0.000    4.167    0.000    0.000 
#
# Total GULP energy -1190121.472663 kJ/mol
# GULP energy per Si atom -12397.098674 kJ/mol
# Density = 1.743578 g / cm^3
# Si number density = 17.475560 Si / 1000 Ang^3
#
#
#
# Elastic Constant Matrix: (Units=GPa)
#
#
# Indices 1 2 3 4 5 6 
#
# 1 106.9365 53.5541 26.5947 0.0000 0.0000 0.0000
# 2 53.5541 106.9365 26.5950 0.0000 0.0000 0.0000
# 3 26.5947 26.5950 45.7608 0.0000 0.0000 0.0000
# 4 0.0000 0.0000 0.0000 21.2967 0.0000 0.0000
# 5 0.0000 0.0000 0.0000 0.0000 21.2967 0.0000
# 6 0.0000 0.0000 0.0000 0.0000 0.0000 25.5629
#
#
#
# Elastic Compliance Matrix: (Units=1/GPa)
#
#
# Indices 1 2 3 4 5 6 
#
# 1 0.013225 -0.005508 -0.004485 0.000000 0.000000 0.000000
# 2 -0.005508 0.013225 -0.004485 0.000000 0.000000 0.000000
# 3 -0.004485 -0.004485 0.027066 0.000000 0.000000 0.000000
# 4 0.000000 0.000000 0.000000 0.046956 0.000000 0.000000
# 5 0.000000 0.000000 0.000000 0.000000 0.046956 0.000000
# 6 0.000000 0.000000 0.000000 0.000000 0.000000 0.039119
#
#
# Mechanical properties :
#
#
# Convention : Reuss Voigt Hill
#
# Bulk Modulus (GPa) = 40.71613 52.56905 46.64259
# Shear Modulus (GPa) = 22.35245 23.82392 23.08819
#
# Velocity S-wave (km/s) = 3.58029 3.69626 3.63873
# Velocity P-wave (km/s) = 6.35930 6.95436 6.66348
#
# Compressibility (1/GPa) = 0.02456029
#
# Stress axis : x y z
#
# Youngs Moduli (GPa) = 75.61423 75.61393 36.94673
#
# Poissons Ratio (x) = 0.41646 0.16571
# Poissons Ratio (y) = 0.41646 0.16571
# Poissons Ratio (z) = 0.33913 0.33914
#
# Static dielectric constant tensor:
#      x y z
#    x 3.400500 0.000000 0.000000 
#    y 0.000000 3.400490 0.000000 
#    z 0.000000 0.000000 3.188510 
# 
# 
# High freq. dielectric constant tensor:
#      x y z
#    x 1.668510 0.000000 0.000000 
#    y 0.000000 1.668510 0.000000 
#    z 0.000000 0.000000 1.669860 
# 
# From -- ./inp_files/1856.got.cif
#   From: 2010.03.12/outbox.cif.g09.slc.cpg/sg132_1_cif.got.tgz:1856.got - 2010.04.06 17:53:44.
