data_PCOD8316496
_publ_section_title
;
Structure prediction by ZEFSAII (Michael W. Deem and Ramdas Pophale) SiO2 
 PCOD8316496
Probable space group: P 42/M C M
;
_chemical_formula_sum "Si O2"
_cell_formula_units_Z 96
_cell_length_a 24.552416
_cell_length_b 24.552416
_cell_length_c 8.884302
_cell_angle_alpha 90.000000
_cell_angle_beta 90.000000
_cell_angle_gamma 90.000000
_cell_volume 5355.644984
_symmetry_space_group_name_H-M "P 42/M C M"
_symmetry_group_IT_number 132
_symmetry_cell_setting 'tetragonal'
loop_
_space_group_symop_operation_xyz
x,y,z
-y,x,1/2+z
-x,-y,z
y,-x,1/2+z
x,-y,1/2-z
-x,y,1/2-z
y,x,-z
-y,-x,-z
-x,-y,-z
y,-x,1/2-z
x,y,-z
-y,x,1/2-z
-x,y,1/2+z
x,-y,1/2+z
-y,-x,z
y,x,z
loop_
_atom_site_type_symbol
_atom_site_label
_atom_site_fract_x
_atom_site_fract_y
_atom_site_fract_z
Si Si1 0.268250 0.942351 0.678532
Si Si2 0.943347 0.856399 0.823882
Si Si3 0.841537 0.323232 0.819916
Si Si4 0.334469 0.334469 0.681323
Si Si5 0.746154 0.746154 0.177909
Si Si6 0.177311 0.553409 0.165817
Si Si7 0.694777 0.450206 0.163505
O O1 0.279268 0.942130 0.500000
O O2 0.205576 0.927518 0.715855
O O3 0.307763 0.901166 0.764126
O O4 0.283100 0.000000 0.750000
O O5 0.895148 0.895148 0.762377
O O6 0.000000 0.874127 0.750000
O O7 0.951088 0.863692 0.000000
O O8 0.801794 0.277355 0.749252
O O9 0.831712 0.385962 0.762244
O O10 0.835174 0.320884 0.000000
O O11 0.324885 0.324885 0.500000
O O12 0.298158 0.298158 0.786259
O O13 0.394067 0.320762 0.740562
O O14 0.755118 0.755118 0.000000
O O15 0.151683 0.500000 0.250000
O O16 0.240997 0.543165 0.154653
O O17 0.150754 0.553508 0.000000
O O18 0.667441 0.500000 0.250000
O O19 0.667997 0.450405 0.000000
#
# Coordination Sequence:
#
# PCOD8316496 Si02
#       7
#    16  16  16   8   8  16  16
#     4  10  21  38  59  82 109 145 186 227 271 322
#     4   9  19  35  53  75 106 139 176 224 268 313
#     4  11  22  38  57  81 113 148 181 222 274 326
#     4  10  18  34  52  69 103 142 173 215 271 324
#     4  12  24  34  50  82 115 145 179 221 269 324
#     4   9  18  32  52  76 107 141 174 214 262 320
#     4   9  17  30  48  69  97 134 174 215 262 318
#
# _framework density 17.925013
#
# number of rings (size 3 to 8) (size 9 to 14) (size 15 to 20)
#    0.000    2.167    1.667    1.750    1.167    3.167 
#    0.000    0.833    0.000    0.750    0.000    5.250 
#    0.000    0.000    0.000    0.000    0.000    0.000 
#
# Total GULP energy -1189517.051717 kJ/mol
# GULP energy per Si atom -12390.802622 kJ/mol
# Density = 1.788421 g / cm^3
# Si number density = 17.925013 Si / 1000 Ang^3
#
#
#
# Elastic Constant Matrix: (Units=GPa)
#
#
# Indices 1 2 3 4 5 6 
#
# 1 90.3406 37.8422 34.3780 0.0000 0.0000 0.0000
# 2 37.8422 90.3406 34.3780 0.0000 0.0000 0.0000
# 3 34.3780 34.3780 65.6203 0.0000 0.0000 0.0000
# 4 0.0000 0.0000 0.0000 28.9380 0.0000 0.0000
# 5 0.0000 0.0000 0.0000 0.0000 28.9380 0.0000
# 6 0.0000 0.0000 0.0000 0.0000 0.0000 21.9495
#
#
#
# Elastic Compliance Matrix: (Units=1/GPa)
#
#
# Indices 1 2 3 4 5 6 
#
# 1 0.014949 -0.004099 -0.005684 0.000000 0.000000 0.000000
# 2 -0.004099 0.014949 -0.005684 0.000000 0.000000 0.000000
# 3 -0.005684 -0.005684 0.021195 0.000000 0.000000 0.000000
# 4 0.000000 0.000000 0.000000 0.034557 0.000000 0.000000
# 5 0.000000 0.000000 0.000000 0.000000 0.034557 0.000000
# 6 0.000000 0.000000 0.000000 0.000000 0.000000 0.045559
#
#
# Mechanical properties :
#
#
# Convention : Reuss Voigt Hill
#
# Bulk Modulus (GPa) = 49.60731 51.05529 50.33130
# Shear Modulus (GPa) = 24.57955 25.27869 24.92912
#
# Velocity S-wave (km/s) = 3.70705 3.75940 3.73331
# Velocity P-wave (km/s) = 6.78660 6.88394 6.83544
#
# Compressibility (1/GPa) = 0.02015832
#
# Stress axis : x y z
#
# Youngs Moduli (GPa) = 66.89269 66.89269 47.18034
#
# Poissons Ratio (x) = 0.27418 0.26819
# Poissons Ratio (y) = 0.27418 0.26819
# Poissons Ratio (z) = 0.38025 0.38025
#
# Static dielectric constant tensor:
#      x y z
#    x 3.355540 0.000000 0.000000 
#    y 0.000000 3.355540 0.000000 
#    z 0.000000 0.000000 3.535150 
# 
# 
# High freq. dielectric constant tensor:
#      x y z
#    x 1.685510 0.000000 0.000000 
#    y 0.000000 1.685510 0.000000 
#    z 0.000000 0.000000 1.691200 
# 
# From -- ./inp_files/1860.got.cif
#   From: 2010.03.12/outbox.cif.g09.slc.cpg/sg132_1_cif.got.tgz:1860.got - 2010.04.06 17:53:44.
