data_PCOD8316081
_publ_section_title
;
Structure prediction by ZEFSAII (Michael W. Deem and Ramdas Pophale) SiO2 
 PCOD8316081
Probable space group: P 42/M M C
;
_chemical_formula_sum "Si O2"
_cell_formula_units_Z 56
_cell_length_a 19.456650
_cell_length_b 19.456650
_cell_length_c 9.010403
_cell_angle_alpha 90.000000
_cell_angle_beta 90.000000
_cell_angle_gamma 90.000000
_cell_volume 3410.989235
_symmetry_space_group_name_H-M "P 42/M M C"
_symmetry_group_IT_number 131
_symmetry_cell_setting 'tetragonal'
loop_
_space_group_symop_operation_xyz
x,y,z
-x,-y,z
-y,x,1/2+z
y,-x,1/2+z
-x,y,-z
x,-y,-z
y,x,1/2-z
-y,-x,1/2-z
-x,-y,-z
x,y,-z
y,-x,1/2-z
-y,x,1/2-z
x,-y,z
-x,y,z
-y,-x,1/2+z
y,x,1/2+z
loop_
_atom_site_type_symbol
_atom_site_label
_atom_site_fract_x
_atom_site_fract_y
_atom_site_fract_z
Si Si1 0.000000 0.580072 0.340921
Si Si2 0.709463 0.810125 0.325543
Si Si3 0.422198 0.147668 0.822475
Si Si4 0.180040 0.078697 0.325748
O O1 0.071237 0.596359 0.256944
O O2 0.000000 0.500000 0.375903
O O3 0.000000 0.618943 0.500000
O O4 0.747185 0.747185 0.250000
O O5 0.706145 0.798553 0.500000
O O6 0.632768 0.804942 0.258964
O O7 0.749648 0.880855 0.284886
O O8 0.500000 0.169596 0.779044
O O9 0.413605 0.149537 0.000000
O O10 0.114411 0.114411 0.250000
O O11 0.166603 0.081317 0.500000
O O12 0.187222 0.000000 0.269649
#
# Coordination Sequence:
#
# PCOD8316081 Si02
#       4
#     8  16  16  16
#     4   7  12  24  41  63  91 121 150 181 220 269
#     4  10  20  33  49  67  93 125 158 195 236 283
#     4   9  17  30  48  70  96 124 155 190 229 276
#     4   9  19  34  48  64  87 115 151 196 244 289
#
# _framework density 16.417524
#
# number of rings (size 3 to 8) (size 9 to 14) (size 15 to 20)
#    0.000    3.000    0.000    2.571    2.000    2.571 
#    0.000    1.429    0.000    2.571    0.000    0.000 
#    0.000    0.571    0.000    6.000    0.000    2.571 
#
# Total GULP energy -693751.801833 kJ/mol
# GULP energy per Si atom -12388.425033 kJ/mol
# Density = 1.638016 g / cm^3
# Si number density = 16.417524 Si / 1000 Ang^3
#
#
#
# Elastic Constant Matrix: (Units=GPa)
#
#
# Indices 1 2 3 4 5 6 
#
# 1 108.9825 60.8396 43.9241 0.0000 0.0000 0.0000
# 2 60.8396 108.9825 43.9241 0.0000 0.0000 0.0000
# 3 43.9241 43.9241 51.7008 0.0000 0.0000 0.0000
# 4 0.0000 0.0000 0.0000 26.0176 0.0000 0.0000
# 5 0.0000 0.0000 0.0000 0.0000 26.0176 0.0000
# 6 0.0000 0.0000 0.0000 0.0000 0.0000 15.6151
#
#
#
# Elastic Compliance Matrix: (Units=1/GPa)
#
#
# Indices 1 2 3 4 5 6 
#
# 1 0.015639 -0.005133 -0.008925 0.000000 0.000000 0.000000
# 2 -0.005133 0.015639 -0.008925 0.000000 0.000000 0.000000
# 3 -0.008925 -0.008925 0.034508 0.000000 0.000000 0.000000
# 4 0.000000 0.000000 0.000000 0.038435 0.000000 0.000000
# 5 0.000000 0.000000 0.000000 0.000000 0.038435 0.000000
# 6 0.000000 0.000000 0.000000 0.000000 0.000000 0.064040
#
#
# Mechanical properties :
#
#
# Convention : Reuss Voigt Hill
#
# Bulk Modulus (GPa) = 50.46063 63.00463 56.73263
# Shear Modulus (GPa) = 19.28497 21.59528 20.44012
#
# Velocity S-wave (km/s) = 3.43105 3.63075 3.53231
# Velocity P-wave (km/s) = 6.81899 7.48574 7.16013
#
# Compressibility (1/GPa) = 0.01981743
#
# Stress axis : x y z
#
# Youngs Moduli (GPa) = 63.94460 63.94460 28.97906
#
# Poissons Ratio (x) = 0.32823 0.25865
# Poissons Ratio (y) = 0.32823 0.25865
# Poissons Ratio (z) = 0.57073 0.57073
#
# Static dielectric constant tensor:
#      x y z
#    x 3.067740 0.000000 0.000000 
#    y 0.000000 3.067740 0.000000 
#    z 0.000000 0.000000 2.894220 
# 
# 
# High freq. dielectric constant tensor:
#      x y z
#    x 1.614680 0.000000 0.000000 
#    y 0.000000 1.614680 0.000000 
#    z 0.000000 0.000000 1.619660 
# 
# From -- ./inp_files/1192.got.cif
#   From: 2010.03.12/outbox.cif.g09.slc.cpg/sg131_1_cif.got.tgz:1192.got - 2010.04.06 17:36:35.
