data_PCOD8316833
_publ_section_title
;
Structure prediction by ZEFSAII (Michael W. Deem and Ramdas Pophale) SiO2 
 PCOD8316833
Probable space group: P 42/M C M
;
_chemical_formula_sum "Si O2"
_cell_formula_units_Z 84
_cell_length_a 14.026426
_cell_length_b 14.026426
_cell_length_c 23.355379
_cell_angle_alpha 90.000000
_cell_angle_beta 90.000000
_cell_angle_gamma 90.000000
_cell_volume 4594.951893
_symmetry_space_group_name_H-M "P 42/M C M"
_symmetry_group_IT_number 132
_symmetry_cell_setting 'tetragonal'
loop_
_space_group_symop_operation_xyz
x,y,z
-y,x,1/2+z
-x,-y,z
y,-x,1/2+z
x,-y,1/2-z
-x,y,1/2-z
y,x,-z
-y,-x,-z
-x,-y,-z
y,-x,1/2-z
x,y,-z
-y,x,1/2-z
-x,y,1/2+z
x,-y,1/2+z
-y,-x,z
y,x,z
loop_
_atom_site_type_symbol
_atom_site_label
_atom_site_fract_x
_atom_site_fract_y
_atom_site_fract_z
Si Si1 0.149399 0.850602 0.847781
Si Si2 0.123990 0.641783 0.145110
Si Si3 0.397015 0.244609 0.751701
Si Si4 0.145989 0.854012 0.712208
Si Si5 0.476955 0.890717 0.437241
Si Si6 0.000000 0.000000 0.174345
Si Si7 0.910249 0.348301 0.663874
O O1 0.248809 0.882151 0.876870
O O2 0.166707 0.833294 0.778907
O O3 0.069383 0.930618 0.862684
O O4 0.208913 0.635029 0.190068
O O5 0.153039 0.569294 0.094660
O O6 0.020089 0.619978 0.172830
O O7 0.500000 0.295996 0.750000
O O8 0.318489 0.318489 0.775710
O O9 0.409901 0.154599 0.793609
O O10 0.105960 0.762828 0.677966
O O11 0.065753 0.934248 0.714067
O O12 0.463110 0.842375 0.500000
O O13 0.379226 0.878242 0.400457
O O14 0.500000 0.000000 0.446346
#
# Coordination Sequence:
#
# PCOD8316833 Si02
#       7
#     8  16  16   8  16   4  16
#     4  12  21  32  49  83 124 165 188 217 265 338
#     4  11  20  32  56  82 112 148 185 228 282 332
#     4  12  23  36  55  81 115 145 182 226 278 346
#     4  12  21  32  49  83 124 165 188 217 265 338
#     4   9  20  37  55  79 105 135 184 246 299 329
#     4  12  25  32  48  80 137 174 189 212 260 333
#     4  11  20  32  56  82 112 148 185 228 282 332
#
# _framework density 18.280933000000001
#
# number of rings (size 3 to 8) (size 9 to 14) (size 15 to 20)
#    0.000    0.952    7.619    1.429    0.000    0.952 
#    0.000    0.952    0.000    0.000    0.000    2.667 
#    0.000    1.524    0.000    0.000    0.000    0.000 
#
# Total GULP energy -1041013.767711 kJ/mol
# GULP energy per Si atom -12393.021044 kJ/mol
# Density = 1.823932 g / cm^3
# Si number density = 18.280933 Si / 1000 Ang^3
#
#
#
# Elastic Constant Matrix: (Units=GPa)
#
#
# Indices 1 2 3 4 5 6 
#
# 1 96.9372 23.2619 27.1217 0.0000 0.0000 0.0000
# 2 23.2619 96.9372 27.1217 0.0000 0.0000 0.0000
# 3 27.1217 27.1217 84.7753 0.0000 0.0000 0.0000
# 4 0.0000 0.0000 0.0000 15.2518 0.0000 0.0000
# 5 0.0000 0.0000 0.0000 0.0000 15.2518 0.0000
# 6 0.0000 0.0000 0.0000 0.0000 0.0000 18.8789
#
#
#
# Elastic Compliance Matrix: (Units=1/GPa)
#
#
# Indices 1 2 3 4 5 6 
#
# 1 0.011648 -0.001925 -0.003111 0.000000 0.000000 0.000000
# 2 -0.001925 0.011648 -0.003111 0.000000 0.000000 0.000000
# 3 -0.003111 -0.003111 0.013786 0.000000 0.000000 0.000000
# 4 0.000000 0.000000 0.000000 0.065566 0.000000 0.000000
# 5 0.000000 0.000000 0.000000 0.000000 0.065566 0.000000
# 6 0.000000 0.000000 0.000000 0.000000 0.000000 0.052969
#
#
# Mechanical properties :
#
#
# Convention : Reuss Voigt Hill
#
# Bulk Modulus (GPa) = 48.09999 48.18449 48.14224
# Shear Modulus (GPa) = 20.45774 23.28614 21.87194
#
# Velocity S-wave (km/s) = 3.34889 3.57290 3.46270
# Velocity P-wave (km/s) = 6.42822 6.59058 6.50991
#
# Compressibility (1/GPa) = 0.02079002
#
# Stress axis : x y z
#
# Youngs Moduli (GPa) = 85.85008 85.85008 72.53584
#
# Poissons Ratio (x) = 0.16525 0.22564
# Poissons Ratio (y) = 0.16525 0.22564
# Poissons Ratio (z) = 0.26706 0.26706
#
# Static dielectric constant tensor:
#      x y z
#    x 3.445130 0.000000 0.000000 
#    y 0.000000 3.445130 0.000000 
#    z 0.000000 0.000000 3.354010 
# 
# 
# High freq. dielectric constant tensor:
#      x y z
#    x 1.707300 0.000000 0.000000 
#    y 0.000000 1.707300 0.000000 
#    z 0.000000 0.000000 1.665750 
# 
# From -- ./inp_files/7807.got.cif
#   From: 2010.03.12/outbox.cif.g09.slc.cpg/sg132_4_cif.got.tgz:7807.got - 2010.04.06 17:53:44.
