data_PCOD8316242
_publ_section_title
;
Structure prediction by ZEFSAII (Michael W. Deem and Ramdas Pophale) SiO2 
 PCOD8316242
Probable space group: P 42/M M C
;
_chemical_formula_sum "Si O2"
_cell_formula_units_Z 96
_cell_length_a 23.976843
_cell_length_b 23.976843
_cell_length_c 8.709598
_cell_angle_alpha 90.000000
_cell_angle_beta 90.000000
_cell_angle_gamma 90.000000
_cell_volume 5007.052087
_symmetry_space_group_name_H-M "P 42/M M C"
_symmetry_group_IT_number 131
_symmetry_cell_setting 'tetragonal'
loop_
_space_group_symop_operation_xyz
x,y,z
-x,-y,z
-y,x,1/2+z
y,-x,1/2+z
-x,y,-z
x,-y,-z
y,x,1/2-z
-y,-x,1/2-z
-x,-y,-z
x,y,-z
y,-x,1/2-z
-y,x,1/2-z
x,-y,z
-x,y,z
-y,-x,1/2+z
y,x,1/2+z
loop_
_atom_site_type_symbol
_atom_site_label
_atom_site_fract_x
_atom_site_fract_y
_atom_site_fract_z
Si Si1 0.437690 0.065705 0.325570
Si Si2 0.935272 0.148262 0.318251
Si Si3 0.766905 0.851230 0.682117
Si Si4 0.760005 0.562462 0.318616
Si Si5 0.565174 0.354104 0.674331
Si Si6 0.645212 0.855233 0.179883
O O1 0.426908 0.085588 0.500000
O O2 0.500000 0.084938 0.272968
O O3 0.389799 0.089101 0.214490
O O4 0.433505 0.000000 0.314522
O O5 0.907621 0.092380 0.250000
O O6 0.926627 0.148993 0.500000
O O7 0.906211 0.202833 0.247401
O O8 0.000000 0.148917 0.272185
O O9 0.795666 0.795666 0.750000
O O10 0.772904 0.850252 0.500000
O O11 0.702510 0.853441 0.727718
O O12 0.760285 0.560255 0.500000
O O13 0.771658 0.500000 0.252385
O O14 0.701001 0.585373 0.261626
O O15 0.805542 0.605955 0.258516
O O16 0.592366 0.407635 0.750000
O O17 0.584507 0.348524 0.500000
O O18 0.500000 0.363039 0.691437
O O19 0.658507 0.851231 0.000000
#
# Coordination Sequence:
#
# PCOD8316242 Si02
#       6
#    16  16  16  16  16  16
#     4   9  19  36  56  80 113 150 186 227 276 327
#     4  10  21  38  61  88 118 151 186 226 272 321
#     4  11  23  40  60  81 110 147 186 230 279 328
#     4   9  19  36  56  78 106 139 175 220 272 322
#     4  10  21  36  55  79 106 138 175 216 265 320
#     4  11  22  36  57  84 111 143 186 230 274 329
#
# _framework density 19.172958000000001
#
# number of rings (size 3 to 8) (size 9 to 14) (size 15 to 20)
#    0.000    2.000    0.000    5.000    0.000    6.667 
#    0.000    4.167    0.000    0.000    0.000    0.000 
#    0.000    0.000    0.000    0.000    0.000    0.000 
#
# Total GULP energy -1190539.501719 kJ/mol
# GULP energy per Si atom -12401.453143 kJ/mol
# Density = 1.912932 g / cm^3
# Si number density = 19.172958 Si / 1000 Ang^3
#
#
#
# Elastic Constant Matrix: (Units=GPa)
#
#
# Indices 1 2 3 4 5 6 
#
# 1 124.1312 58.5568 44.9537 0.0000 0.0000 0.0000
# 2 58.5568 124.1281 44.9491 0.0000 0.0000 0.0000
# 3 44.9537 44.9491 68.6766 0.0000 0.0000 0.0000
# 4 0.0000 0.0000 0.0000 28.9788 0.0000 0.0000
# 5 0.0000 0.0000 0.0000 0.0000 28.9787 0.0000
# 6 0.0000 0.0000 0.0000 0.0000 0.0000 12.7727
#
#
#
# Elastic Compliance Matrix: (Units=1/GPa)
#
#
# Indices 1 2 3 4 5 6 
#
# 1 0.011663 -0.003588 -0.005286 0.000000 0.000000 0.000000
# 2 -0.003588 0.011662 -0.005285 0.000000 0.000000 0.000000
# 3 -0.005286 -0.005285 0.021480 0.000000 0.000000 0.000000
# 4 0.000000 0.000000 0.000000 0.034508 0.000000 0.000000
# 5 0.000000 0.000000 0.000000 0.000000 0.034508 0.000000
# 6 0.000000 0.000000 0.000000 0.000000 0.000000 0.078292
#
#
# Mechanical properties :
#
#
# Convention : Reuss Voigt Hill
#
# Bulk Modulus (GPa) = 60.64881 68.20614 64.42748
# Shear Modulus (GPa) = 22.13117 25.37779 23.75448
#
# Velocity S-wave (km/s) = 3.40117 3.64211 3.52370
# Velocity P-wave (km/s) = 6.86477 7.30329 7.08742
#
# Compressibility (1/GPa) = 0.01648837
#
# Stress axis : x y z
#
# Youngs Moduli (GPa) = 85.74342 85.74610 46.55535
#
# Poissons Ratio (x) = 0.30763 0.24609
# Poissons Ratio (y) = 0.30762 0.24603
# Poissons Ratio (z) = 0.45323 0.45314
#
# Static dielectric constant tensor:
#      x y z
#    x 3.553320 0.000000 0.000000 
#    y 0.000000 3.553320 0.000000 
#    z 0.000000 0.000000 3.593210 
# 
# 
# High freq. dielectric constant tensor:
#      x y z
#    x 1.748160 0.000000 0.000000 
#    y 0.000000 1.748160 0.000000 
#    z 0.000000 0.000000 1.752190 
# 
# From -- ./inp_files/2223.got.cif
#   From: 2010.03.12/outbox.cif.g09.slc.cpg/sg131_2_cif.got.tgz:2223.got - 2010.04.06 17:36:35.
