data_PCOD8316616
_publ_section_title
;
Structure prediction by ZEFSAII (Michael W. Deem and Ramdas Pophale) SiO2 
 PCOD8316616
Probable space group: P 42/M C M
;
_chemical_formula_sum "Si O2"
_cell_formula_units_Z 96
_cell_length_a 16.933696
_cell_length_b 16.933696
_cell_length_c 18.216094
_cell_angle_alpha 90.000000
_cell_angle_beta 90.000000
_cell_angle_gamma 90.000000
_cell_volume 5223.466051
_symmetry_space_group_name_H-M "P 42/M C M"
_symmetry_group_IT_number 132
_symmetry_cell_setting 'tetragonal'
loop_
_space_group_symop_operation_xyz
x,y,z
-y,x,1/2+z
-x,-y,z
y,-x,1/2+z
x,-y,1/2-z
-x,y,1/2-z
y,x,-z
-y,-x,-z
-x,-y,-z
y,-x,1/2-z
x,y,-z
-y,x,1/2-z
-x,y,1/2+z
x,-y,1/2+z
-y,-x,z
y,x,z
loop_
_atom_site_type_symbol
_atom_site_label
_atom_site_fract_x
_atom_site_fract_y
_atom_site_fract_z
Si Si1 0.959010 0.425857 0.084106
Si Si2 0.654097 0.216594 0.644658
Si Si3 0.996652 0.128309 0.832697
Si Si4 0.414468 0.711220 0.219647
Si Si5 0.478823 0.783725 0.917569
Si Si6 0.720929 0.944636 0.912685
O O1 0.867011 0.436568 0.093137
O O2 0.000000 0.500000 0.125107
O O3 0.992046 0.343799 0.115969
O O4 0.986484 0.426295 0.000000
O O5 0.707288 0.292713 0.621823
O O6 0.631588 0.222400 0.731563
O O7 0.572244 0.215026 0.599472
O O8 0.704465 0.138118 0.628575
O O9 0.910152 0.089849 0.849264
O O10 0.000000 0.162877 0.750000
O O11 0.017474 0.195961 0.890596
O O12 0.060438 0.060438 0.841002
O O13 0.500000 0.696647 0.250000
O O14 0.371259 0.628742 0.225672
O O15 0.424136 0.731345 0.134416
O O16 0.469024 0.752349 0.000000
O O17 0.720509 0.929879 0.000000
#
# Coordination Sequence:
#
# PCOD8316616 Si02
#       6
#    16  16  16  16  16  16
#     4   9  17  32  51  74 108 144 170 205 264 327
#     4  10  20  34  53  79 112 143 173 220 280 335
#     4   9  20  39  57  73 103 149 191 227 275 330
#     4   9  20  37  55  77 108 144 181 220 268 328
#     4  10  19  34  56  79 107 142 181 224 271 321
#     4  11  21  33  56  87 111 138 182 229 275 326
#
# _framework density 18.378602000000001
#
# number of rings (size 3 to 8) (size 9 to 14) (size 15 to 20)
#    0.000    2.333    1.667    1.500    0.000    4.500 
#    0.000    3.333    0.000    3.000    0.000    4.667 
#    0.000    0.000    0.000    0.000    0.000    0.000 
#
# Total GULP energy -1189582.315463 kJ/mol
# GULP energy per Si atom -12391.482453 kJ/mol
# Density = 1.833677 g / cm^3
# Si number density = 18.378602 Si / 1000 Ang^3
#
#
#
# Elastic Constant Matrix: (Units=GPa)
#
#
# Indices 1 2 3 4 5 6 
#
# 1 94.4074 50.2244 49.4770 0.0000 0.0000 0.0000
# 2 50.2244 94.4074 49.4770 0.0000 0.0000 0.0000
# 3 49.4770 49.4770 100.2390 0.0000 0.0000 0.0000
# 4 0.0000 0.0000 0.0000 19.2124 0.0000 0.0000
# 5 0.0000 0.0000 0.0000 0.0000 19.2124 0.0000
# 6 0.0000 0.0000 0.0000 0.0000 0.0000 32.5252
#
#
#
# Elastic Compliance Matrix: (Units=1/GPa)
#
#
# Indices 1 2 3 4 5 6 
#
# 1 0.016536 -0.006097 -0.005153 0.000000 0.000000 0.000000
# 2 -0.006097 0.016536 -0.005153 0.000000 0.000000 0.000000
# 3 -0.005153 -0.005153 0.015063 0.000000 0.000000 0.000000
# 4 0.000000 0.000000 0.000000 0.052050 0.000000 0.000000
# 5 0.000000 0.000000 0.000000 0.000000 0.052050 0.000000
# 6 0.000000 0.000000 0.000000 0.000000 0.000000 0.030745
#
#
# Mechanical properties :
#
#
# Convention : Reuss Voigt Hill
#
# Bulk Modulus (GPa) = 65.22882 65.26785 65.24834
# Shear Modulus (GPa) = 22.63510 23.51502 23.07506
#
# Velocity S-wave (km/s) = 3.51322 3.58086 3.54720
# Velocity P-wave (km/s) = 7.21289 7.25857 7.23576
#
# Compressibility (1/GPa) = 0.01533065
#
# Stress axis : x y z
#
# Youngs Moduli (GPa) = 60.47272 60.47272 66.38792
#
# Poissons Ratio (x) = 0.36869 0.34209
# Poissons Ratio (y) = 0.36869 0.34209
# Poissons Ratio (z) = 0.31161 0.31161
#
# Static dielectric constant tensor:
#      x y z
#    x 3.478750 0.000000 0.000000 
#    y 0.000000 3.478750 0.000000 
#    z 0.000000 0.000000 3.503660 
# 
# 
# High freq. dielectric constant tensor:
#      x y z
#    x 1.712590 0.000000 0.000000 
#    y 0.000000 1.712590 0.000000 
#    z 0.000000 0.000000 1.702140 
# 
# From -- ./inp_files/7859.got.cif
#   From: 2010.03.12/outbox.cif.g09.slc.cpg/sg132_4_cif.got.tgz:7859.got - 2010.04.06 17:53:44.
