data_PCOD8316079
_publ_section_title
;
Structure prediction by ZEFSAII (Michael W. Deem and Ramdas Pophale) SiO2 
 PCOD8316079
Probable space group: P 42/M M C
;
_chemical_formula_sum "Si O2"
_cell_formula_units_Z 104
_cell_length_a 17.631776
_cell_length_b 17.631776
_cell_length_c 19.147343
_cell_angle_alpha 90.000000
_cell_angle_beta 90.000000
_cell_angle_gamma 90.000000
_cell_volume 5952.516895
_symmetry_space_group_name_H-M "P 42/M M C"
_symmetry_group_IT_number 131
_symmetry_cell_setting 'tetragonal'
loop_
_space_group_symop_operation_xyz
x,y,z
-x,-y,z
-y,x,1/2+z
y,-x,1/2+z
-x,y,-z
x,-y,-z
y,x,1/2-z
-y,-x,1/2-z
-x,-y,-z
x,y,-z
y,-x,1/2-z
-y,x,1/2-z
x,-y,z
-x,y,z
-y,-x,1/2+z
y,x,1/2+z
loop_
_atom_site_type_symbol
_atom_site_label
_atom_site_fract_x
_atom_site_fract_y
_atom_site_fract_z
Si Si1 0.082752 0.585735 0.753580
Si Si2 0.369825 0.084042 0.000000
Si Si3 0.719626 0.660967 0.646091
Si Si4 0.871246 0.915980 0.821625
Si Si5 0.586570 0.752975 0.289783
Si Si6 0.090338 0.000000 0.577965
Si Si7 0.416157 0.250544 0.000000
Si Si8 0.293005 0.116719 0.140028
O O1 0.089995 0.500000 0.723735
O O2 0.156401 0.600792 0.802331
O O3 0.083242 0.642523 0.689414
O O4 0.000000 0.595041 0.792210
O O5 0.313805 0.090404 0.063946
O O6 0.424006 0.158269 0.000000
O O7 0.410820 0.000000 0.000000
O O8 0.643044 0.708793 0.658429
O O9 0.730206 0.599954 0.708571
O O10 0.716773 0.623238 0.569711
O O11 0.792418 0.716139 0.648360
O O12 0.869134 0.869134 0.750000
O O13 0.925838 0.879476 0.880518
O O14 0.786490 0.921910 0.847552
O O15 0.901795 0.000000 0.804362
O O16 0.500000 0.731134 0.308794
O O17 0.125833 0.000000 0.500000
O O18 0.000000 0.000000 0.571782
O O19 0.500000 0.284342 0.000000
#
# Coordination Sequence:
#
# PCOD8316079 Si02
#       8
#    16   8  16  16  16   8   8  16
#     4   9  17  30  48  74 104 129 161 209 257 307
#     4  10  20  33  46  72 105 138 171 209 242 301
#     4   9  19  34  52  75 105 134 167 206 245 310
#     4  11  21  33  49  68  96 129 172 223 267 304
#     4   9  17  31  53  76 100 134 170 206 248 297
#     4   9  20  36  52  68  90 130 179 227 270 305
#     4  10  20  35  55  78 106 142 170 202 255 301
#     4  10  21  32  48  71 102 136 171 204 258 310
#
# _framework density 17.471601
#
# number of rings (size 3 to 8) (size 9 to 14) (size 15 to 20)
#    0.000    2.385    0.769    1.846    5.385    3.846 
#    0.000    0.385    0.000    8.308    0.000    0.538 
#    0.000    2.462    0.000    0.000    0.000    0.308 
#
# Total GULP energy -1288610.338425 kJ/mol
# GULP energy per Si atom -12390.484023 kJ/mol
# Density = 1.743183 g / cm^3
# Si number density = 17.471601 Si / 1000 Ang^3
#
#
#
# Elastic Constant Matrix: (Units=GPa)
#
#
# Indices 1 2 3 4 5 6 
#
# 1 110.5890 41.6402 35.1708 0.0000 0.0000 0.0000
# 2 41.6402 110.5890 35.1708 0.0000 0.0000 0.0000
# 3 35.1708 35.1708 89.0950 0.0000 0.0000 0.0000
# 4 0.0000 0.0000 0.0000 13.4726 0.0000 0.0000
# 5 0.0000 0.0000 0.0000 0.0000 13.4726 0.0000
# 6 0.0000 0.0000 0.0000 0.0000 0.0000 20.7620
#
#
#
# Elastic Compliance Matrix: (Units=1/GPa)
#
#
# Indices 1 2 3 4 5 6 
#
# 1 0.011269 -0.003234 -0.003172 0.000000 0.000000 0.000000
# 2 -0.003234 0.011269 -0.003172 0.000000 0.000000 0.000000
# 3 -0.003172 -0.003172 0.013728 0.000000 0.000000 0.000000
# 4 0.000000 0.000000 0.000000 0.074225 0.000000 0.000000
# 5 0.000000 0.000000 0.000000 0.000000 0.074225 0.000000
# 6 0.000000 0.000000 0.000000 0.000000 0.000000 0.048165
#
#
# Mechanical properties :
#
#
# Convention : Reuss Voigt Hill
#
# Bulk Modulus (GPa) = 58.44381 59.35964 58.90172
# Shear Modulus (GPa) = 19.39938 22.76084 21.08011
#
# Velocity S-wave (km/s) = 3.33579 3.61326 3.47729
# Velocity P-wave (km/s) = 6.95414 7.17330 7.06457
#
# Compressibility (1/GPa) = 0.01711045
#
# Stress axis : x y z
#
# Youngs Moduli (GPa) = 88.73850 88.73850 72.84340
#
# Poissons Ratio (x) = 0.28702 0.23104
# Poissons Ratio (y) = 0.28702 0.23104
# Poissons Ratio (z) = 0.28145 0.28145
#
# Static dielectric constant tensor:
#      x y z
#    x 3.229770 0.000000 0.000000 
#    y 0.000000 3.229770 0.000000 
#    z 0.000000 0.000000 3.046160 
# 
# 
# High freq. dielectric constant tensor:
#      x y z
#    x 1.670990 0.000000 0.000000 
#    y 0.000000 1.670990 0.000000 
#    z 0.000000 0.000000 1.650280 
# 
# From -- ./inp_files/8132.got.cif
#   From: 2010.03.12/outbox.cif.g09.slc.cpg/sg131_5_cif.got.tgz:8132.got - 2010.04.06 17:36:35.
