data_PCOD8316540
_publ_section_title
;
Structure prediction by ZEFSAII (Michael W. Deem and Ramdas Pophale) SiO2 
 PCOD8316540
Probable space group: P 42/M C M
;
_chemical_formula_sum "Si O2"
_cell_formula_units_Z 80
_cell_length_a 12.094611
_cell_length_b 12.094611
_cell_length_c 29.782056
_cell_angle_alpha 90.000000
_cell_angle_beta 90.000000
_cell_angle_gamma 90.000000
_cell_volume 4356.507693
_symmetry_space_group_name_H-M "P 42/M C M"
_symmetry_group_IT_number 132
_symmetry_cell_setting 'tetragonal'
loop_
_space_group_symop_operation_xyz
x,y,z
-y,x,1/2+z
-x,-y,z
y,-x,1/2+z
x,-y,1/2-z
-x,y,1/2-z
y,x,-z
-y,-x,-z
-x,-y,-z
y,-x,1/2-z
x,y,-z
-y,x,1/2-z
-x,y,1/2+z
x,-y,1/2+z
-y,-x,z
y,x,z
loop_
_atom_site_type_symbol
_atom_site_label
_atom_site_fract_x
_atom_site_fract_y
_atom_site_fract_z
Si Si1 0.073986 0.260571 0.449899
Si Si2 0.002161 0.631151 0.800350
Si Si3 0.631915 0.184709 0.869987
Si Si4 0.600474 0.778455 0.163857
Si Si5 0.914985 0.085016 0.446986
Si Si6 0.673514 0.500000 0.750000
O O1 0.067778 0.312896 0.500000
O O2 0.159254 0.159254 0.449765
O O3 0.112245 0.353132 0.414964
O O4 0.953145 0.210618 0.434650
O O5 0.112279 0.669209 0.826705
O O6 0.000000 0.500000 0.797890
O O7 0.000000 0.682784 0.750000
O O8 0.893380 0.666833 0.828925
O O9 0.703977 0.296024 0.870599
O O10 0.501710 0.213975 0.870654
O O11 0.684419 0.684419 0.146667
O O12 0.548175 0.751077 0.212044
O O13 0.927229 0.072772 0.500000
O O14 0.000000 0.000000 0.423101
O O15 0.596492 0.403509 0.770940
#
# Coordination Sequence:
#
# PCOD8316540 Si02
#       6
#    16  16  16  16   8   8
#     4   8  14  26  46  72  98 123 157 208 263 307
#     4   9  18  32  48  66  94 132 170 203 240 293
#     4  10  19  31  50  75 100 127 163 208 255 302
#     4  10  19  31  48  70  98 133 169 204 246 299
#     4   7  10  20  40  64  90 116 146 194 251 295
#     4   9  16  26  45  74  98 116 157 221 264 274
#
# _framework density 18.363330999999999
#
# number of rings (size 3 to 8) (size 9 to 14) (size 15 to 20)
#    0.000    3.000    0.000    4.200    0.000    3.600 
#    1.800    0.000    0.000    6.000    0.000    4.200 
#    0.000    0.000    0.000    0.000    0.000    0.000 
#
# Total GULP energy -991208.151891 kJ/mol
# GULP energy per Si atom -12390.101899 kJ/mol
# Density = 1.832154 g / cm^3
# Si number density = 18.363331 Si / 1000 Ang^3
#
#
#
# Elastic Constant Matrix: (Units=GPa)
#
#
# Indices 1 2 3 4 5 6 
#
# 1 83.0055 38.4779 31.3210 0.0000 0.0000 0.0000
# 2 38.4779 83.0056 31.3209 0.0000 0.0000 0.0000
# 3 31.3210 31.3209 81.6802 0.0000 0.0000 0.0000
# 4 0.0000 0.0000 0.0000 18.5001 0.0000 0.0000
# 5 0.0000 0.0000 0.0000 0.0000 18.5001 0.0000
# 6 0.0000 0.0000 0.0000 0.0000 0.0000 18.8020
#
#
#
# Elastic Compliance Matrix: (Units=1/GPa)
#
#
# Indices 1 2 3 4 5 6 
#
# 1 0.016359 -0.006099 -0.003934 0.000000 0.000000 0.000000
# 2 -0.006099 0.016359 -0.003934 0.000000 0.000000 0.000000
# 3 -0.003934 -0.003934 0.015260 0.000000 0.000000 0.000000
# 4 0.000000 0.000000 0.000000 0.054054 0.000000 0.000000
# 5 0.000000 0.000000 0.000000 0.000000 0.054054 0.000000
# 6 0.000000 0.000000 0.000000 0.000000 0.000000 0.053186
#
#
# Mechanical properties :
#
#
# Convention : Reuss Voigt Hill
#
# Bulk Modulus (GPa) = 49.89212 49.99233 49.94222
# Shear Modulus (GPa) = 20.50119 20.93186 20.71653
#
# Velocity S-wave (km/s) = 3.34491 3.37986 3.36243
# Velocity P-wave (km/s) = 6.49202 6.52031 6.50618
#
# Compressibility (1/GPa) = 0.02004324
#
# Stress axis : x y z
#
# Youngs Moduli (GPa) = 61.12781 61.12795 65.52981
#
# Poissons Ratio (x) = 0.37281 0.25782
# Poissons Ratio (y) = 0.37281 0.25782
# Poissons Ratio (z) = 0.24050 0.24050
#
# Static dielectric constant tensor:
#      x y z
#    x 3.445760 0.000000 0.000000 
#    y 0.000000 3.445760 0.000000 
#    z 0.000000 0.000000 3.313830 
# 
# 
# High freq. dielectric constant tensor:
#      x y z
#    x 1.695200 0.000000 0.000000 
#    y 0.000000 1.695200 0.000000 
#    z 0.000000 0.000000 1.687510 
# 
# From -- ./inp_files/10684.got.cif
#   From: 2010.03.12/outbox.cif.g09.slc.cpg/sg132_6_cif.got.tgz:10684.got - 2010.04.06 17:53:44.
