data_PCOD8316924
_publ_section_title
;
Structure prediction by ZEFSAII (Michael W. Deem and Ramdas Pophale) SiO2 
 PCOD8316924
Probable space group: P 42/N B C
;
_chemical_formula_sum "Si O2"
_cell_formula_units_Z 96
_cell_length_a 23.136367
_cell_length_b 23.136367
_cell_length_c 9.224709
_cell_angle_alpha 90.000000
_cell_angle_beta 90.000000
_cell_angle_gamma 90.000000
_cell_volume 4937.908114
_symmetry_space_group_name_H-M "P 42/N B C"
_symmetry_group_IT_number 133
_space_group.IT_coordinate_system_code '2'
_symmetry_cell_setting 'tetragonal'
loop_
_space_group_symop_operation_xyz
x,y,z
1/2-y,x,1/2+z
1/2-x,1/2-y,z
y,1/2-x,1/2+z
x,1/2-y,-z
1/2-x,y,-z
y,x,1/2-z
1/2-y,1/2-x,1/2-z
-x,-y,-z
1/2+y,-x,1/2-z
1/2+x,1/2+y,-z
-y,1/2+x,1/2-z
-x,1/2+y,z
1/2+x,-y,z
-y,-x,1/2+z
1/2+y,1/2+x,1/2+z
loop_
_atom_site_type_symbol
_atom_site_label
_atom_site_fract_x
_atom_site_fract_y
_atom_site_fract_z
Si Si1 0.596177 0.520401 0.336945
Si Si2 0.095988 0.024214 0.340106
Si Si3 0.312861 0.576782 0.031010
Si Si4 0.683196 0.900963 0.822085
Si Si5 0.189910 0.057393 0.127528
Si Si6 0.397839 0.603576 0.267568
O O1 0.538932 0.538932 0.250000
O O2 0.589951 0.546835 0.497104
O O3 0.652205 0.547066 0.261351
O O4 0.601092 0.451687 0.342175
O O5 0.037223 0.037223 0.250000
O O6 0.146147 0.060302 0.260165
O O7 0.109332 0.956846 0.349289
O O8 0.306774 0.508550 0.066935
O O9 0.341465 0.611817 0.165604
O O10 0.250000 0.602997 0.000000
O O11 0.347408 0.590793 0.884573
O O12 0.660027 0.839974 0.750000
O O13 0.751183 0.914988 0.808716
O O14 0.668024 0.902885 0.993723
#
# Coordination Sequence:
#
# PCOD8316924 Si02
#       6
#    16  16  16  16  16  16
#     4  11  21  33  54  85 126 161 201 249 319 387
#     4  11  23  34  53  89 126 164 203 258 326 395
#     4  11  21  41  63  89 128 164 207 258 319 385
#     4  10  19  35  62  89 120 170 217 263 323 378
#     4  10  20  38  58  87 129 168 209 267 326 378
#     4  11  22  36  60  89 117 164 207 254 313 394
#
# _framework density 19.441431000000001
#
# number of rings (size 3 to 8) (size 9 to 14) (size 15 to 20)
#    0.000    1.333    5.000    2.500    2.333    2.000 
#    0.000    0.833    0.000    2.000    0.000    9.333 
#    0.000    0.000    0.000    0.000    0.000    0.000 
#
# Total GULP energy -1189424.054561 kJ/mol
# GULP energy per Si atom -12389.833902 kJ/mol
# Density = 1.939718 g / cm^3
# Si number density = 19.441431 Si / 1000 Ang^3
#
#
#
# Elastic Constant Matrix: (Units=GPa)
#
#
# Indices 1 2 3 4 5 6 
#
# 1 105.1698 40.0996 57.5348 0.0000 0.0000 0.0000
# 2 40.0996 105.1710 57.5339 0.0000 0.0000 0.0000
# 3 57.5348 57.5339 129.4537 0.0000 0.0000 0.0000
# 4 0.0000 0.0000 0.0000 22.1925 0.0000 0.0000
# 5 0.0000 0.0000 0.0000 0.0000 22.1924 0.0000
# 6 0.0000 0.0000 0.0000 0.0000 0.0000 23.3350
#
#
#
# Elastic Compliance Matrix: (Units=1/GPa)
#
#
# Indices 1 2 3 4 5 6 
#
# 1 0.012996 -0.002372 -0.004722 0.000000 0.000000 0.000000
# 2 -0.002372 0.012996 -0.004721 0.000000 0.000000 0.000000
# 3 -0.004722 -0.004721 0.011922 0.000000 0.000000 0.000000
# 4 0.000000 0.000000 0.000000 0.045060 0.000000 0.000000
# 5 0.000000 0.000000 0.000000 0.000000 0.045060 0.000000
# 6 0.000000 0.000000 0.000000 0.000000 0.000000 0.042854
#
#
# Mechanical properties :
#
#
# Convention : Reuss Voigt Hill
#
# Bulk Modulus (GPa) = 70.01457 72.23679 71.12568
# Shear Modulus (GPa) = 25.09037 25.85239 25.47138
#
# Velocity S-wave (km/s) = 3.59634 3.65054 3.62354
# Velocity P-wave (km/s) = 7.30316 7.41656 7.36008
#
# Compressibility (1/GPa) = 0.01428274
#
# Stress axis : x y z
#
# Youngs Moduli (GPa) = 76.94690 76.94887 83.88056
#
# Poissons Ratio (x) = 0.18253 0.39606
# Poissons Ratio (y) = 0.18252 0.39604
# Poissons Ratio (z) = 0.36332 0.36331
#
# Static dielectric constant tensor:
#      x y z
#    x 3.488550 0.000000 0.000000 
#    y 0.000000 3.488550 0.000000 
#    z 0.000000 0.000000 3.679750 
# 
# 
# High freq. dielectric constant tensor:
#      x y z
#    x 1.739540 0.000000 0.000000 
#    y 0.000000 1.739540 0.000000 
#    z 0.000000 0.000000 1.771370 
# 
# From -- ./inp_files/1914.got.cif
#   From: 2010.03.12/outbox.cif.g09.slc.cpg/sg133_1_cif.got.tgz:1914.got - 2010.04.06 18:08:06.
