data_PCOD8316514
_publ_section_title
;
Structure prediction by ZEFSAII (Michael W. Deem and Ramdas Pophale) SiO2 
 PCOD8316514
Probable space group: P 42/M C M
;
_chemical_formula_sum "Si O2"
_cell_formula_units_Z 84
_cell_length_a 16.687420
_cell_length_b 16.687420
_cell_length_c 18.351059
_cell_angle_alpha 90.000000
_cell_angle_beta 90.000000
_cell_angle_gamma 90.000000
_cell_volume 5110.219148
_symmetry_space_group_name_H-M "P 42/M C M"
_symmetry_group_IT_number 132
_symmetry_cell_setting 'tetragonal'
loop_
_space_group_symop_operation_xyz
x,y,z
-y,x,1/2+z
-x,-y,z
y,-x,1/2+z
x,-y,1/2-z
-x,y,1/2-z
y,x,-z
-y,-x,-z
-x,-y,-z
y,-x,1/2-z
x,y,-z
-y,x,1/2-z
-x,y,1/2+z
x,-y,1/2+z
-y,-x,z
y,x,z
loop_
_atom_site_type_symbol
_atom_site_label
_atom_site_fract_x
_atom_site_fract_y
_atom_site_fract_z
Si Si1 0.299825 0.429949 0.804888
Si Si2 0.084958 0.374244 0.653631
Si Si3 0.500000 0.000000 0.250000
Si Si4 0.079937 0.648008 0.417102
Si Si5 0.502986 0.186399 0.081918
Si Si6 0.170902 0.700763 0.721420
O O1 0.324987 0.500000 0.750000
O O2 0.378197 0.378197 0.825535
O O3 0.264234 0.470509 0.876817
O O4 0.232210 0.373138 0.769728
O O5 0.058776 0.447491 0.703032
O O6 0.159606 0.408187 0.607204
O O7 0.110655 0.303698 0.709540
O O8 0.014513 0.345495 0.600062
O O9 0.094911 0.679823 0.500000
O O10 0.109873 0.556444 0.410361
O O11 0.126981 0.700222 0.357111
O O12 0.509484 0.216079 0.000000
O O13 0.214586 0.785415 0.726201
#
# Coordination Sequence:
#
# PCOD8316514 Si02
#       6
#    16  16   4  16  16  16
#     4  10  19  33  50  67  91 129 178 224 262 295
#     4  12  17  29  49  72 101 132 164 204 249 305
#     4  12  16  24  50  72  96 128 162 208 252 276
#     4  10  19  29  46  75 103 128 160 200 251 303
#     4  10  19  30  47  74 103 126 154 205 266 314
#     4  10  20  32  48  69 100 141 172 201 248 304
#
# _framework density 16.437650999999999
#
# number of rings (size 3 to 8) (size 9 to 14) (size 15 to 20)
#    0.000    1.524    5.714    1.714    0.000    2.476 
#    0.000    3.810    0.000    4.000    0.000    1.333 
#    0.000    6.095    0.000    6.857    0.000    0.381 
#
# Total GULP energy -1041373.953259 kJ/mol
# GULP energy per Si atom -12397.308967 kJ/mol
# Density = 1.640024 g / cm^3
# Si number density = 16.437651 Si / 1000 Ang^3
#
#
#
# Elastic Constant Matrix: (Units=GPa)
#
#
# Indices 1 2 3 4 5 6 
#
# 1 68.9016 40.6068 48.9160 0.0000 0.0000 0.0000
# 2 40.6068 68.9016 48.9160 0.0000 0.0000 0.0000
# 3 48.9160 48.9160 126.9310 0.0000 0.0000 0.0000
# 4 0.0000 0.0000 0.0000 13.7871 0.0000 0.0000
# 5 0.0000 0.0000 0.0000 0.0000 13.7871 0.0000
# 6 0.0000 0.0000 0.0000 0.0000 0.0000 8.8300
#
#
#
# Elastic Compliance Matrix: (Units=1/GPa)
#
#
# Indices 1 2 3 4 5 6 
#
# 1 0.024634 -0.010708 -0.005367 0.000000 0.000000 0.000000
# 2 -0.010708 0.024634 -0.005367 0.000000 0.000000 0.000000
# 3 -0.005367 -0.005367 0.012015 0.000000 0.000000 0.000000
# 4 0.000000 0.000000 0.000000 0.072531 0.000000 0.000000
# 5 0.000000 0.000000 0.000000 0.000000 0.072531 0.000000
# 6 0.000000 0.000000 0.000000 0.000000 0.000000 0.113250
#
#
# Mechanical properties :
#
#
# Convention : Reuss Voigt Hill
#
# Bulk Modulus (GPa) = 54.34775 60.17912 57.26343
# Shear Modulus (GPa) = 13.56438 15.70056 14.63247
#
# Velocity S-wave (km/s) = 2.87575 3.09392 2.98683
# Velocity P-wave (km/s) = 6.64540 7.03229 6.84158
#
# Compressibility (1/GPa) = 0.01840003
#
# Stress axis : x y z
#
# Youngs Moduli (GPa) = 40.59390 40.59390 83.23065
#
# Poissons Ratio (x) = 0.43468 0.44669
# Poissons Ratio (y) = 0.43468 0.44669
# Poissons Ratio (z) = 0.21786 0.21786
#
# Static dielectric constant tensor:
#      x y z
#    x 2.684590 0.000000 0.000000 
#    y 0.000000 2.684590 0.000000 
#    z 0.000000 0.000000 3.369460 
# 
# 
# High freq. dielectric constant tensor:
#      x y z
#    x 1.599080 0.000000 0.000000 
#    y 0.000000 1.599080 0.000000 
#    z 0.000000 0.000000 1.645460 
# 
# From -- ./inp_files/7782.got.cif
#   From: 2010.03.12/outbox.cif.g09.slc.cpg/sg132_4_cif.got.tgz:7782.got - 2010.04.06 17:53:44.
