data_PCOD8316863
_publ_section_title
;
Structure prediction by ZEFSAII (Michael W. Deem and Ramdas Pophale) SiO2 
 PCOD8316863
Probable space group: P 42/M C M
;
_chemical_formula_sum "Si O2"
_cell_formula_units_Z 48
_cell_length_a 12.394281
_cell_length_b 12.394281
_cell_length_c 14.830089
_cell_angle_alpha 90.000000
_cell_angle_beta 90.000000
_cell_angle_gamma 90.000000
_cell_volume 2278.171600
_symmetry_space_group_name_H-M "P 42/M C M"
_symmetry_group_IT_number 132
_symmetry_cell_setting 'tetragonal'
loop_
_space_group_symop_operation_xyz
x,y,z
-y,x,1/2+z
-x,-y,z
y,-x,1/2+z
x,-y,1/2-z
-x,y,1/2-z
y,x,-z
-y,-x,-z
-x,-y,-z
y,-x,1/2-z
x,y,-z
-y,x,1/2-z
-x,y,1/2+z
x,-y,1/2+z
-y,-x,z
y,x,z
loop_
_atom_site_type_symbol
_atom_site_label
_atom_site_fract_x
_atom_site_fract_y
_atom_site_fract_z
Si Si1 0.965978 0.674596 0.605502
Si Si2 0.912445 0.912445 0.391999
Si Si3 0.532273 0.164656 0.606080
Si Si4 0.500000 0.332381 0.750000
O O1 0.951314 0.683711 0.500000
O O2 0.943710 0.793448 0.646920
O O3 0.883217 0.582967 0.639356
O O4 0.085325 0.632045 0.628812
O O5 0.912336 0.912336 0.500000
O O6 0.000000 0.000000 0.356738
O O7 0.530882 0.192249 0.500000
O O8 0.550792 0.268592 0.666202
O O9 0.404855 0.404855 0.708670
#
# Coordination Sequence:
#
# PCOD8316863 Si02
#       4
#    16   8  16   8
#     4   8  16  31  55  88 115 147 199 235 278 355
#     4   9  16  26  46  84 127 151 176 235 297 353
#     4   9  19  38  62  84 111 154 200 243 290 349
#     4  11  26  41  54  84 116 147 202 257 304 350
#
# _framework density 21.069527999999998
#
# number of rings (size 3 to 8) (size 9 to 14) (size 15 to 20)
#    0.000    3.000    0.000    2.000    2.333    5.333 
#    0.000    5.000    0.000    0.000    0.000    0.000 
#    0.000    0.000    0.000    0.000    0.000    0.000 
#
# Total GULP energy -594827.635235 kJ/mol
# GULP energy per Si atom -12392.242401 kJ/mol
# Density = 2.102157 g / cm^3
# Si number density = 21.069528 Si / 1000 Ang^3
#
#
#
# Elastic Constant Matrix: (Units=GPa)
#
#
# Indices 1 2 3 4 5 6 
#
# 1 138.0251 64.5658 29.1329 0.0000 0.0000 0.0000
# 2 64.5658 138.0251 29.1329 0.0000 0.0000 0.0000
# 3 29.1329 29.1329 47.5034 0.0000 0.0000 0.0000
# 4 0.0000 0.0000 0.0000 22.5229 0.0000 0.0000
# 5 0.0000 0.0000 0.0000 0.0000 22.5229 0.0000
# 6 0.0000 0.0000 0.0000 0.0000 0.0000 23.9310
#
#
#
# Elastic Compliance Matrix: (Units=1/GPa)
#
#
# Indices 1 2 3 4 5 6 
#
# 1 0.009803 -0.003810 -0.003675 0.000000 0.000000 0.000000
# 2 -0.003810 0.009803 -0.003675 0.000000 0.000000 0.000000
# 3 -0.003675 -0.003675 0.025559 0.000000 0.000000 0.000000
# 4 0.000000 0.000000 0.000000 0.044399 0.000000 0.000000
# 5 0.000000 0.000000 0.000000 0.000000 0.044399 0.000000
# 6 0.000000 0.000000 0.000000 0.000000 0.000000 0.041787
#
#
# Mechanical properties :
#
#
# Convention : Reuss Voigt Hill
#
# Bulk Modulus (GPa) = 43.77572 63.24629 53.51101
# Shear Modulus (GPa) = 24.30877 27.17682 25.74280
#
# Velocity S-wave (km/s) = 3.40036 3.59536 3.49922
# Velocity P-wave (km/s) = 6.01984 6.87885 6.46363
#
# Compressibility (1/GPa) = 0.02284371
#
# Stress axis : x y z
#
# Youngs Moduli (GPa) = 102.00901 102.00901 39.12464
#
# Poissons Ratio (x) = 0.38865 0.14380
# Poissons Ratio (y) = 0.38865 0.14380
# Poissons Ratio (z) = 0.37493 0.37493
#
# Static dielectric constant tensor:
#      x y z
#    x 4.097120 0.000000 0.000000 
#    y 0.000000 4.097120 0.000000 
#    z 0.000000 0.000000 3.338690 
# 
# 
# High freq. dielectric constant tensor:
#      x y z
#    x 1.823700 0.000000 0.000000 
#    y 0.000000 1.823700 0.000000 
#    z 0.000000 0.000000 1.799090 
# 
# From -- ./inp_files/5747.got.cif
#   From: 2010.03.12/outbox.cif.g09.slc.cpg/sg132_3_cif.got.tgz:5747.got - 2010.04.06 17:53:44.
