data_PCOD8316988
_publ_section_title
;
Structure prediction by ZEFSAII (Michael W. Deem and Ramdas Pophale) SiO2 
 PCOD8316988
Probable space group: P 42/N B C
;
_chemical_formula_sum "Si O2"
_cell_formula_units_Z 112
_cell_length_a 13.854757
_cell_length_b 13.854757
_cell_length_c 25.720959
_cell_angle_alpha 90.000000
_cell_angle_beta 90.000000
_cell_angle_gamma 90.000000
_cell_volume 4937.248462
_symmetry_space_group_name_H-M "P 42/N B C"
_symmetry_group_IT_number 133
_space_group.IT_coordinate_system_code '2'
_symmetry_cell_setting 'tetragonal'
loop_
_space_group_symop_operation_xyz
x,y,z
1/2-y,x,1/2+z
1/2-x,1/2-y,z
y,1/2-x,1/2+z
x,1/2-y,-z
1/2-x,y,-z
y,x,1/2-z
1/2-y,1/2-x,1/2-z
-x,-y,-z
1/2+y,-x,1/2-z
1/2+x,1/2+y,-z
-y,1/2+x,1/2-z
-x,1/2+y,z
1/2+x,-y,z
-y,-x,1/2+z
1/2+y,1/2+x,1/2+z
loop_
_atom_site_type_symbol
_atom_site_label
_atom_site_fract_x
_atom_site_fract_y
_atom_site_fract_z
Si Si1 0.512452 0.924661 0.394360
Si Si2 0.206875 0.960811 0.621407
Si Si3 0.128875 0.610017 0.091201
Si Si4 0.593903 0.226782 0.239924
Si Si5 0.475180 0.388263 0.504872
Si Si6 0.162771 0.321715 0.089469
Si Si7 0.518569 0.758578 0.661944
O O1 0.539967 0.856711 0.444947
O O2 0.534968 0.856641 0.345143
O O3 0.400091 0.948902 0.399753
O O4 0.567400 0.025520 0.389401
O O5 0.240994 0.069217 0.605976
O O6 0.274533 0.882918 0.591543
O O7 0.213865 0.946136 0.682621
O O8 0.211706 0.580114 0.131802
O O9 0.157882 0.567862 0.034493
O O10 0.642339 0.331076 0.246810
O O11 0.500228 0.218897 0.277597
O O12 0.500000 0.500000 0.500000
O O13 0.379494 0.360916 0.536558
O O14 0.250000 0.250000 0.078379
O O15 0.182306 0.391826 0.138713
#
# Coordination Sequence:
#
# PCOD8316988 Si02
#       7
#    16  16  16  16  16  16  16
#     4  11  22  42  66  95 137 182 228 292 345 429
#     4  12  22  41  69  98 133 183 234 286 371 427
#     4  10  22  39  61  97 136 174 225 287 349 422
#     4  11  23  40  68 100 126 174 238 297 363 437
#     4   9  19  43  66  94 136 185 227 276 339 419
#     4  11  24  44  69 103 146 185 229 295 361 444
#     4  11  22  43  65  94 139 172 228 299 351 426
#
# _framework density 22.684699999999999
#
# number of rings (size 3 to 8) (size 9 to 14) (size 15 to 20)
#    0.000    1.286    7.143    0.857    0.000    4.000 
#    0.000   12.143    0.000    3.429    0.000    0.000 
#    0.000    0.000    0.000    0.000    0.000    0.000 
#
# Total GULP energy -1388407.976612 kJ/mol
# GULP energy per Si atom -12396.499791 kJ/mol
# Density = 2.263307 g / cm^3
# Si number density = 22.684700 Si / 1000 Ang^3
#
#
#
# Elastic Constant Matrix: (Units=GPa)
#
#
# Indices 1 2 3 4 5 6 
#
# 1 71.8359 1.6834 19.0454 0.0000 0.0000 0.0000
# 2 1.6834 71.8359 19.0454 0.0000 0.0000 0.0000
# 3 19.0454 19.0454 126.1300 0.0000 0.0000 0.0000
# 4 0.0000 0.0000 0.0000 26.5582 0.0000 0.0000
# 5 0.0000 0.0000 0.0000 0.0000 26.5582 0.0000
# 6 0.0000 0.0000 0.0000 0.0000 0.0000 33.7748
#
#
#
# Elastic Compliance Matrix: (Units=1/GPa)
#
#
# Indices 1 2 3 4 5 6 
#
# 1 0.014505 0.000251 -0.002228 0.000000 0.000000 0.000000
# 2 0.000251 0.014505 -0.002228 0.000000 0.000000 0.000000
# 3 -0.002228 -0.002228 0.008601 0.000000 0.000000 0.000000
# 4 0.000000 0.000000 0.000000 0.037653 0.000000 0.000000
# 5 0.000000 0.000000 0.000000 0.000000 0.037653 0.000000
# 6 0.000000 0.000000 0.000000 0.000000 0.000000 0.029608
#
#
# Mechanical properties :
#
#
# Convention : Reuss Voigt Hill
#
# Bulk Modulus (GPa) = 34.24527 38.81669 36.53098
# Shear Modulus (GPa) = 31.11949 32.71343 31.91646
#
# Velocity S-wave (km/s) = 3.70784 3.80161 3.75502
# Velocity P-wave (km/s) = 5.78444 6.03475 5.91092
#
# Compressibility (1/GPa) = 0.02920111
#
# Stress axis : x y z
#
# Youngs Moduli (GPa) = 68.93951 68.93951 116.26252
#
# Poissons Ratio (x) = -0.01729 0.25905
# Poissons Ratio (y) = -0.01729 0.25905
# Poissons Ratio (z) = 0.15361 0.15361
#
# Static dielectric constant tensor:
#      x y z
#    x 4.176250 0.000000 0.000000 
#    y 0.000000 4.176250 0.000000 
#    z 0.000000 0.000000 4.556140 
# 
# 
# High freq. dielectric constant tensor:
#      x y z
#    x 1.894780 0.000000 0.000000 
#    y 0.000000 1.894780 0.000000 
#    z 0.000000 0.000000 1.885570 
# 
# From -- ./inp_files/7674.got.cif
#   From: 2010.03.12/outbox.cif.g09.slc.cpg/sg133_4_cif.got.tgz:7674.got - 2010.04.06 18:08:06.
