data_PCOD8316521
_publ_section_title
;
Structure prediction by ZEFSAII (Michael W. Deem and Ramdas Pophale) SiO2 
 PCOD8316521
Probable space group: P 42/M C M
;
_chemical_formula_sum "Si O2"
_cell_formula_units_Z 112
_cell_length_a 15.033020
_cell_length_b 15.033020
_cell_length_c 29.640291
_cell_angle_alpha 90.000000
_cell_angle_beta 90.000000
_cell_angle_gamma 90.000000
_cell_volume 6698.459465
_symmetry_space_group_name_H-M "P 42/M C M"
_symmetry_group_IT_number 132
_symmetry_cell_setting 'tetragonal'
loop_
_space_group_symop_operation_xyz
x,y,z
-y,x,1/2+z
-x,-y,z
y,-x,1/2+z
x,-y,1/2-z
-x,y,1/2-z
y,x,-z
-y,-x,-z
-x,-y,-z
y,-x,1/2-z
x,y,-z
-y,x,1/2-z
-x,y,1/2+z
x,-y,1/2+z
-y,-x,z
y,x,z
loop_
_atom_site_type_symbol
_atom_site_label
_atom_site_fract_x
_atom_site_fract_y
_atom_site_fract_z
Si Si1 0.819606 0.678201 0.949790
Si Si2 0.888304 0.589979 0.866488
Si Si3 0.131692 0.273568 0.448610
Si Si4 0.095811 0.391930 0.370612
Si Si5 0.036280 0.828793 0.447653
Si Si6 0.095042 0.239237 0.696621
Si Si7 0.252628 0.108420 0.199398
O O1 0.722420 0.722420 0.946922
O O2 0.828979 0.604469 0.911246
O O3 0.893724 0.751248 0.939264
O O4 0.833562 0.637265 0.000000
O O5 0.868888 0.487553 0.853474
O O6 0.862599 0.656408 0.825744
O O7 0.990775 0.604760 0.877797
O O8 0.106108 0.299533 0.500000
O O9 0.227349 0.227349 0.446834
O O10 0.136100 0.363068 0.419033
O O11 0.058135 0.204105 0.427444
O O12 0.127900 0.320619 0.333887
O O13 0.020764 0.847228 0.500000
O O14 0.079429 0.920572 0.426773
O O15 0.150081 0.150081 0.685083
O O16 0.113665 0.270704 0.747490
O O17 0.991076 0.220182 0.687073
O O18 0.174802 0.174802 0.183759
#
# Coordination Sequence:
#
# PCOD8316521 Si02
#       7
#    16  16  16  16  16  16  16
#     4   9  16  27  44  64  89 119 149 190 239 276
#     4  10  19  30  46  66  89 122 160 199 234 269
#     4  10  19  30  43  60  88 124 162 202 234 270
#     4  10  20  31  44  63  90 125 163 196 230 273
#     4   8  14  25  40  58  82 115 155 195 232 266
#     4   9  18  33  50  69  97 128 155 187 227 272
#     4   9  18  32  51  73  95 121 155 194 231 270
#
# _framework density 16.720262999999999
#
# number of rings (size 3 to 8) (size 9 to 14) (size 15 to 20)
#    0.000    2.714    1.429    1.714    0.000    1.714 
#    0.000    7.143    0.000    1.714    0.000    0.000 
#    0.000    9.143    0.000   25.143    0.000    0.571 
#
# Total GULP energy -1387983.505177 kJ/mol
# GULP energy per Si atom -12392.709868 kJ/mol
# Density = 1.668221 g / cm^3
# Si number density = 16.720263 Si / 1000 Ang^3
#
#
#
# Elastic Constant Matrix: (Units=GPa)
#
#
# Indices 1 2 3 4 5 6 
#
# 1 80.4008 38.4541 43.1737 0.0000 0.0000 0.0000
# 2 38.4541 80.4008 43.1737 0.0000 0.0000 0.0000
# 3 43.1737 43.1737 75.7095 0.0000 0.0000 0.0000
# 4 0.0000 0.0000 0.0000 22.5619 0.0000 0.0000
# 5 0.0000 0.0000 0.0000 0.0000 22.5619 0.0000
# 6 0.0000 0.0000 0.0000 0.0000 0.0000 11.6353
#
#
#
# Elastic Compliance Matrix: (Units=1/GPa)
#
#
# Indices 1 2 3 4 5 6 
#
# 1 0.019102 -0.004738 -0.008192 0.000000 0.000000 0.000000
# 2 -0.004738 0.019102 -0.008192 0.000000 0.000000 0.000000
# 3 -0.008192 -0.008192 0.022551 0.000000 0.000000 0.000000
# 4 0.000000 0.000000 0.000000 0.044322 0.000000 0.000000
# 5 0.000000 0.000000 0.000000 0.000000 0.044322 0.000000
# 6 0.000000 0.000000 0.000000 0.000000 0.000000 0.085945
#
#
# Mechanical properties :
#
#
# Convention : Reuss Voigt Hill
#
# Bulk Modulus (GPa) = 54.01265 54.01265 54.01265
# Shear Modulus (GPa) = 17.62063 18.79913 18.20988
#
# Velocity S-wave (km/s) = 3.24983 3.35674 3.30372
# Velocity P-wave (km/s) = 6.81584 6.88458 6.85030
#
# Compressibility (1/GPa) = 0.01851418
#
# Stress axis : x y z
#
# Youngs Moduli (GPa) = 52.34979 52.34979 44.34406
#
# Poissons Ratio (x) = 0.24801 0.36325
# Poissons Ratio (y) = 0.24801 0.36325
# Poissons Ratio (z) = 0.42883 0.42883
#
# Static dielectric constant tensor:
#      x y z
#    x 3.013780 0.000000 0.000000 
#    y 0.000000 3.013780 0.000000 
#    z 0.000000 0.000000 3.168810 
# 
# 
# High freq. dielectric constant tensor:
#      x y z
#    x 1.613790 0.000000 0.000000 
#    y 0.000000 1.613790 0.000000 
#    z 0.000000 0.000000 1.647580 
# 
# From -- ./inp_files/11044.got.cif
#   From: 2010.03.12/outbox.cif.g09.slc.cpg/sg132_6_cif.got.tgz:11044.got - 2010.04.06 17:53:44.
