data_PCOD8316637
_publ_section_title
;
Structure prediction by ZEFSAII (Michael W. Deem and Ramdas Pophale) SiO2 
 PCOD8316637
Probable space group: P 42/M C M
;
_chemical_formula_sum "Si O2"
_cell_formula_units_Z 80
_cell_length_a 23.612942
_cell_length_b 23.612942
_cell_length_c 9.672703
_cell_angle_alpha 90.000000
_cell_angle_beta 90.000000
_cell_angle_gamma 90.000000
_cell_volume 5393.218974
_symmetry_space_group_name_H-M "P 42/M C M"
_symmetry_group_IT_number 132
_symmetry_cell_setting 'tetragonal'
loop_
_space_group_symop_operation_xyz
x,y,z
-y,x,1/2+z
-x,-y,z
y,-x,1/2+z
x,-y,1/2-z
-x,y,1/2-z
y,x,-z
-y,-x,-z
-x,-y,-z
y,-x,1/2-z
x,y,-z
-y,x,1/2-z
-x,y,1/2+z
x,-y,1/2+z
-y,-x,z
y,x,z
loop_
_atom_site_type_symbol
_atom_site_label
_atom_site_fract_x
_atom_site_fract_y
_atom_site_fract_z
Si Si1 0.089713 0.997916 0.000000
Si Si2 0.351509 0.553354 0.159415
Si Si3 0.168409 0.000000 0.750000
Si Si4 0.285461 0.190539 0.845924
Si Si5 0.279175 0.625695 0.344678
Si Si6 0.118557 0.211620 0.337600
O O1 0.127311 0.015115 0.127134
O O2 0.033728 0.033728 0.000000
O O3 0.068591 0.931410 0.000000
O O4 0.371567 0.500000 0.250000
O O5 0.401929 0.598072 0.165347
O O6 0.294509 0.578139 0.231184
O O7 0.338279 0.536858 0.000000
O O8 0.206159 0.945546 0.784713
O O9 0.239305 0.239305 0.844288
O O10 0.345931 0.218625 0.805556
O O11 0.267802 0.142774 0.736196
O O12 0.288850 0.163875 0.000000
O O13 0.276181 0.599490 0.500000
O O14 0.326792 0.673209 0.342228
O O15 0.118988 0.222794 0.500000
O O16 0.155831 0.155831 0.300574
#
# Coordination Sequence:
#
# PCOD8316637 Si02
#       6
#     8  16   8  16  16  16
#     4  11  22  34  46  56  70  98 138 180 217 254
#     4  10  20  31  44  63  88 122 161 196 228 256
#     4  12  22  33  44  58  78 102 135 176 222 262
#     4   8  15  27  45  65  81 101 130 165 210 263
#     4   8  14  27  45  64  85 108 138 177 218 260
#     4  10  20  32  43  58  79 102 131 170 216 263
#
# _framework density 14.833442
#
# number of rings (size 3 to 8) (size 9 to 14) (size 15 to 20)
#    0.000    2.500    1.000    3.600    1.400    3.000 
#    0.000    5.000    0.000    0.000    0.000    0.000 
#    0.000    0.000    0.000    0.900    0.000   13.600 
#
# Total GULP energy -991420.713078 kJ/mol
# GULP energy per Si atom -12392.758913 kJ/mol
# Density = 1.479968 g / cm^3
# Si number density = 14.833442 Si / 1000 Ang^3
#
#
#
# Elastic Constant Matrix: (Units=GPa)
#
#
# Indices 1 2 3 4 5 6 
#
# 1 45.8296 36.1227 42.2331 0.0000 0.0000 0.0000
# 2 36.1227 45.8294 42.2329 0.0000 0.0000 0.0000
# 3 42.2331 42.2329 121.8503 0.0000 0.0000 0.0000
# 4 0.0000 0.0000 0.0000 23.6250 0.0000 0.0000
# 5 0.0000 0.0000 0.0000 0.0000 23.6255 0.0000
# 6 0.0000 0.0000 0.0000 0.0000 0.0000 15.9159
#
#
#
# Elastic Compliance Matrix: (Units=1/GPa)
#
#
# Indices 1 2 3 4 5 6 
#
# 1 0.061002 -0.042018 -0.006580 0.000000 0.000000 0.000000
# 2 -0.042018 0.061002 -0.006580 0.000000 0.000000 0.000000
# 3 -0.006580 -0.006580 0.012768 0.000000 0.000000 0.000000
# 4 0.000000 0.000000 0.000000 0.042328 0.000000 0.000000
# 5 0.000000 0.000000 0.000000 0.000000 0.042327 0.000000
# 6 0.000000 0.000000 0.000000 0.000000 0.000000 0.062830
#
#
# Mechanical properties :
#
#
# Convention : Reuss Voigt Hill
#
# Bulk Modulus (GPa) = 40.95593 50.52072 45.73832
# Shear Modulus (GPa) = 12.47656 18.82799 15.65227
#
# Velocity S-wave (km/s) = 2.90334 3.56658 3.25191
# Velocity P-wave (km/s) = 6.23776 7.14795 6.70831
#
# Compressibility (1/GPa) = 0.02441649
#
# Stress axis : x y z
#
# Youngs Moduli (GPa) = 16.39291 16.39291 78.32191
#
# Poissons Ratio (x) = 0.68880 0.51534
# Poissons Ratio (y) = 0.68880 0.51533
# Poissons Ratio (z) = 0.10786 0.10786
#
# Static dielectric constant tensor:
#      x y z
#    x 2.785080 0.000000 0.000000 
#    y 0.000000 2.785080 0.000000 
#    z 0.000000 0.000000 3.175730 
# 
# 
# High freq. dielectric constant tensor:
#      x y z
#    x 1.535340 0.000000 0.000000 
#    y 0.000000 1.535340 0.000000 
#    z 0.000000 0.000000 1.584930 
# 
# From -- ./inp_files/1660.got.cif
#   From: 2010.03.12/outbox.cif.g09.slc.cpg/sg132_1_cif.got.tgz:1660.got - 2010.04.06 17:53:44.
