data_PCOD8316756
_publ_section_title
;
Structure prediction by ZEFSAII (Michael W. Deem and Ramdas Pophale) SiO2 
 PCOD8316756
Probable space group: P 42/M C M
;
_chemical_formula_sum "Si O2"
_cell_formula_units_Z 56
_cell_length_a 12.330761
_cell_length_b 12.330761
_cell_length_c 16.443597
_cell_angle_alpha 90.000000
_cell_angle_beta 90.000000
_cell_angle_gamma 90.000000
_cell_volume 2500.210558
_symmetry_space_group_name_H-M "P 42/M C M"
_symmetry_group_IT_number 132
_symmetry_cell_setting 'tetragonal'
loop_
_space_group_symop_operation_xyz
x,y,z
-y,x,1/2+z
-x,-y,z
y,-x,1/2+z
x,-y,1/2-z
-x,y,1/2-z
y,x,-z
-y,-x,-z
-x,-y,-z
y,-x,1/2-z
x,y,-z
-y,x,1/2-z
-x,y,1/2+z
x,-y,1/2+z
-y,-x,z
y,x,z
loop_
_atom_site_type_symbol
_atom_site_label
_atom_site_fract_x
_atom_site_fract_y
_atom_site_fract_z
Si Si1 0.352317 0.186360 0.407260
Si Si2 0.053373 0.327722 0.096613
Si Si3 0.259803 0.441441 0.836478
Si Si4 0.083200 0.083200 0.095383
O O1 0.319410 0.171472 0.500000
O O2 0.252064 0.252064 0.364385
O O3 0.460427 0.259633 0.400994
O O4 0.373198 0.064246 0.374009
O O5 0.147805 0.377904 0.151413
O O6 0.051369 0.203065 0.121356
O O7 0.075941 0.348451 0.000000
O O8 0.262895 0.500000 0.750000
O O9 0.363016 0.363016 0.849731
O O10 0.072734 0.072734 0.000000
O O11 0.000000 0.000000 0.138188
#
# Coordination Sequence:
#
# PCOD8316756 Si02
#       4
#    16  16  16   8
#     4  10  22  40  64  96 131 166 207 263 324 388
#     4  10  20  38  65  98 131 164 209 261 322 394
#     4  12  26  43  62  87 121 170 224 275 320 377
#     4   9  16  30  60 100 137 167 196 245 315 393
#
# _framework density 22.398112999999999
#
# number of rings (size 3 to 8) (size 9 to 14) (size 15 to 20)
#    0.000    1.571    1.429    3.429    0.000   11.714 
#    0.000    1.429    0.000    0.000    0.000    0.000 
#    0.000    0.000    0.000    0.000    0.000    0.000 
#
# Total GULP energy -693861.000684 kJ/mol
# GULP energy per Si atom -12390.375012 kJ/mol
# Density = 2.234713 g / cm^3
# Si number density = 22.398113 Si / 1000 Ang^3
#
#
#
# Elastic Constant Matrix: (Units=GPa)
#
#
# Indices 1 2 3 4 5 6 
#
# 1 154.1496 49.4372 17.2283 0.0000 0.0000 0.0000
# 2 49.4372 154.1496 17.2283 0.0000 0.0000 0.0000
# 3 17.2283 17.2283 19.1787 0.0000 0.0000 0.0000
# 4 0.0000 0.0000 0.0000 20.4430 0.0000 0.0000
# 5 0.0000 0.0000 0.0000 0.0000 20.4430 0.0000
# 6 0.0000 0.0000 0.0000 0.0000 0.0000 56.3259
#
#
#
# Elastic Compliance Matrix: (Units=1/GPa)
#
#
# Indices 1 2 3 4 5 6 
#
# 1 0.007671 -0.001879 -0.005204 0.000000 0.000000 0.000000
# 2 -0.001879 0.007671 -0.005204 0.000000 0.000000 0.000000
# 3 -0.005204 -0.005204 0.061490 0.000000 0.000000 0.000000
# 4 0.000000 0.000000 0.000000 0.048917 0.000000 0.000000
# 5 0.000000 0.000000 0.000000 0.000000 0.048917 0.000000
# 6 0.000000 0.000000 0.000000 0.000000 0.000000 0.017754
#
#
# Mechanical properties :
#
#
# Convention : Reuss Voigt Hill
#
# Bulk Modulus (GPa) = 19.13478 55.02951 37.08215
# Shear Modulus (GPa) = 21.33006 35.68130 28.50568
#
# Velocity S-wave (km/s) = 3.08931 3.99563 3.57134
# Velocity P-wave (km/s) = 4.61375 6.77561 5.79636
#
# Compressibility (1/GPa) = 0.05226086
#
# Stress axis : x y z
#
# Youngs Moduli (GPa) = 130.35630 130.35630 16.26288
#
# Poissons Ratio (x) = 0.24490 0.08462
# Poissons Ratio (y) = 0.24490 0.08462
# Poissons Ratio (z) = 0.67831 0.67831
#
# Static dielectric constant tensor:
#      x y z
#    x 4.380840 0.000000 0.000000 
#    y 0.000000 4.380840 0.000000 
#    z 0.000000 0.000000 3.646780 
# 
# 
# High freq. dielectric constant tensor:
#      x y z
#    x 1.899940 0.000000 0.000000 
#    y 0.000000 1.899940 0.000000 
#    z 0.000000 0.000000 1.837700 
# 
# From -- ./inp_files/7296.got.cif
#   From: 2010.03.12/outbox.cif.g09.slc.cpg/sg132_4_cif.got.tgz:7296.got - 2010.04.06 17:53:44.
