data_PCOD8316226
_publ_section_title
;
Structure prediction by ZEFSAII (Michael W. Deem and Ramdas Pophale) SiO2 
 PCOD8316226
Probable space group: P 42/M M C
;
_chemical_formula_sum "Si O2"
_cell_formula_units_Z 104
_cell_length_a 17.949086
_cell_length_b 17.949086
_cell_length_c 17.925020
_cell_angle_alpha 90.000000
_cell_angle_beta 90.000000
_cell_angle_gamma 90.000000
_cell_volume 5774.898105
_symmetry_space_group_name_H-M "P 42/M M C"
_symmetry_group_IT_number 131
_symmetry_cell_setting 'tetragonal'
loop_
_space_group_symop_operation_xyz
x,y,z
-x,-y,z
-y,x,1/2+z
y,-x,1/2+z
-x,y,-z
x,-y,-z
y,x,1/2-z
-y,-x,1/2-z
-x,-y,-z
x,y,-z
y,-x,1/2-z
-y,x,1/2-z
x,-y,z
-x,y,z
-y,-x,1/2+z
y,x,1/2+z
loop_
_atom_site_type_symbol
_atom_site_label
_atom_site_fract_x
_atom_site_fract_y
_atom_site_fract_z
Si Si1 0.767636 0.270144 0.585497
Si Si2 0.913542 0.588204 0.000000
Si Si3 0.312391 0.581783 0.587304
Si Si4 0.641262 0.179539 0.643212
Si Si5 0.416266 0.914688 0.228745
Si Si6 0.337977 0.415431 0.183350
Si Si7 0.917892 0.671461 0.416261
O O1 0.742795 0.259478 0.500000
O O2 0.746053 0.354147 0.612612
O O3 0.726778 0.206184 0.632594
O O4 0.856812 0.263367 0.596443
O O5 0.870301 0.615397 0.073594
O O6 0.913279 0.500000 0.000000
O O7 0.000000 0.616907 0.000000
O O8 0.317236 0.575661 0.500000
O O9 0.289611 0.500000 0.620196
O O10 0.393953 0.606423 0.616124
O O11 0.638977 0.131499 0.718553
O O12 0.591284 0.253188 0.654082
O O13 0.500000 0.884547 0.239124
O O14 0.395020 0.906144 0.142090
O O15 0.410998 0.000000 0.254218
O O16 0.357720 0.357720 0.250000
O O17 0.352890 0.500000 0.208624
O O18 0.907619 0.637875 0.500000
O O19 0.000000 0.707452 0.406897
#
# Coordination Sequence:
#
# PCOD8316226 Si02
#       7
#    16   8  16  16  16  16  16
#     4   9  18  34  54  77 103 135 178 222 268 323
#     4  11  22  38  62  86 112 146 180 221 282 346
#     4   9  19  34  51  71  94 127 175 232 287 327
#     4  11  22  37  55  80 108 142 182 226 275 330
#     4  10  21  35  52  78 111 143 178 222 268 320
#     4  11  24  37  51  71 100 141 189 237 281 326
#     4   9  19  35  55  78 106 139 177 222 271 327
#
# _framework density 18.008975
#
# number of rings (size 3 to 8) (size 9 to 14) (size 15 to 20)
#    0.000    2.077    0.769    2.308    5.385    3.538 
#    0.000    3.846    0.000    0.000    0.000    0.000 
#    0.000    3.077    0.000    6.769    0.000    0.000 
#
# Total GULP energy -1288850.578641 kJ/mol
# GULP energy per Si atom -12392.794025 kJ/mol
# Density = 1.796799 g / cm^3
# Si number density = 18.008975 Si / 1000 Ang^3
#
#
#
# Elastic Constant Matrix: (Units=GPa)
#
#
# Indices 1 2 3 4 5 6 
#
# 1 113.9341 49.0797 50.7699 0.0000 0.0000 0.0000
# 2 49.0797 113.9341 50.7699 0.0000 0.0000 0.0000
# 3 50.7699 50.7699 79.6704 0.0000 0.0000 0.0000
# 4 0.0000 0.0000 0.0000 27.5329 0.0000 0.0000
# 5 0.0000 0.0000 0.0000 0.0000 27.5329 0.0000
# 6 0.0000 0.0000 0.0000 0.0000 0.0000 17.4118
#
#
#
# Elastic Compliance Matrix: (Units=1/GPa)
#
#
# Indices 1 2 3 4 5 6 
#
# 1 0.012796 -0.002624 -0.006482 0.000000 0.000000 0.000000
# 2 -0.002624 0.012796 -0.006482 0.000000 0.000000 0.000000
# 3 -0.006482 -0.006482 0.020813 0.000000 0.000000 0.000000
# 4 0.000000 0.000000 0.000000 0.036320 0.000000 0.000000
# 5 0.000000 0.000000 0.000000 0.000000 0.036320 0.000000
# 6 0.000000 0.000000 0.000000 0.000000 0.000000 0.057432
#
#
# Mechanical properties :
#
#
# Convention : Reuss Voigt Hill
#
# Bulk Modulus (GPa) = 65.66512 67.64194 66.65353
# Shear Modulus (GPa) = 23.50406 24.95681 24.23044
#
# Velocity S-wave (km/s) = 3.61658 3.72667 3.67204
# Velocity P-wave (km/s) = 7.34718 7.49394 7.42092
#
# Compressibility (1/GPa) = 0.01522878
#
# Stress axis : x y z
#
# Youngs Moduli (GPa) = 78.15157 78.15157 48.04632
#
# Poissons Ratio (x) = 0.20503 0.31145
# Poissons Ratio (y) = 0.20503 0.31145
# Poissons Ratio (z) = 0.50659 0.50659
#
# Static dielectric constant tensor:
#      x y z
#    x 3.393560 0.000000 0.000000 
#    y 0.000000 3.393560 0.000000 
#    z 0.000000 0.000000 3.468880 
# 
# 
# High freq. dielectric constant tensor:
#      x y z
#    x 1.678210 0.000000 0.000000 
#    y 0.000000 1.678210 0.000000 
#    z 0.000000 0.000000 1.711840 
# 
# From -- ./inp_files/8096.got.cif
#   From: 2010.03.12/outbox.cif.g09.slc.cpg/sg131_5_cif.got.tgz:8096.got - 2010.04.06 17:36:35.
