data_PCOD8316187
_publ_section_title
;
Structure prediction by ZEFSAII (Michael W. Deem and Ramdas Pophale) SiO2 
 PCOD8316187
Probable space group: P 42/M M C
;
_chemical_formula_sum "Si O2"
_cell_formula_units_Z 88
_cell_length_a 15.687717
_cell_length_b 15.687717
_cell_length_c 19.053053
_cell_angle_alpha 90.000000
_cell_angle_beta 90.000000
_cell_angle_gamma 90.000000
_cell_volume 4689.041409
_symmetry_space_group_name_H-M "P 42/M M C"
_symmetry_group_IT_number 131
_symmetry_cell_setting 'tetragonal'
loop_
_space_group_symop_operation_xyz
x,y,z
-x,-y,z
-y,x,1/2+z
y,-x,1/2+z
-x,y,-z
x,-y,-z
y,x,1/2-z
-y,-x,1/2-z
-x,-y,-z
x,y,-z
y,-x,1/2-z
-y,x,1/2-z
x,-y,z
-x,y,z
-y,-x,1/2+z
y,x,1/2+z
loop_
_atom_site_type_symbol
_atom_site_label
_atom_site_fract_x
_atom_site_fract_y
_atom_site_fract_z
Si Si1 0.241726 0.100329 0.420554
Si Si2 0.601661 0.816483 0.922570
Si Si3 0.201154 0.675726 0.715584
Si Si4 0.000000 0.408838 0.418366
Si Si5 0.098304 0.595359 0.830035
Si Si6 0.835694 0.097262 0.182384
O O1 0.241512 0.135904 0.500000
O O2 0.331967 0.126618 0.385569
O O3 0.161323 0.139299 0.380027
O O4 0.230570 0.000000 0.420122
O O5 0.500000 0.816629 0.922502
O O6 0.640270 0.761848 0.859130
O O7 0.639221 0.911314 0.902337
O O8 0.634074 0.786979 0.000000
O O9 0.285009 0.714992 0.750000
O O10 0.160256 0.600915 0.762514
O O11 0.124934 0.743614 0.710275
O O12 0.000000 0.500000 0.377903
O O13 0.000000 0.429289 0.500000
O O14 0.109641 0.500000 0.862322
O O15 0.000000 0.609503 0.807534
O O16 0.898156 0.101845 0.250000
O O17 0.834934 0.000000 0.154145
#
# Coordination Sequence:
#
# PCOD8316187 Si02
#       6
#    16  16  16   8  16  16
#     4  10  21  38  56  76 104 138 189 250 295 339
#     4   9  18  32  50  74 103 137 176 216 271 341
#     4  11  21  34  50  77 112 147 185 230 275 330
#     4   7  12  24  42  68 100 128 162 210 255 312
#     4  10  20  36  58  81 106 143 190 235 288 349
#     4  11  22  36  54  75 108 152 197 239 286 337
#
# _framework density 18.767161999999999
#
# number of rings (size 3 to 8) (size 9 to 14) (size 15 to 20)
#    0.000    2.091    3.636    2.727    2.545    2.727 
#    0.000    2.727    0.000    0.000    0.000    0.000 
#    0.000    5.818    0.000    8.000    0.000    0.000 
#
# Total GULP energy -1090252.158724 kJ/mol
# GULP energy per Si atom -12389.229076 kJ/mol
# Density = 1.872445 g / cm^3
# Si number density = 18.767162 Si / 1000 Ang^3
#
#
#
# Elastic Constant Matrix: (Units=GPa)
#
#
# Indices 1 2 3 4 5 6 
#
# 1 75.2011 14.0094 40.3857 0.0000 0.0000 0.0000
# 2 14.0094 75.2028 40.3860 0.0000 0.0000 0.0000
# 3 40.3857 40.3860 138.2621 0.0000 0.0000 0.0000
# 4 0.0000 0.0000 0.0000 26.3940 0.0000 0.0000
# 5 0.0000 0.0000 0.0000 0.0000 26.3939 0.0000
# 6 0.0000 0.0000 0.0000 0.0000 0.0000 20.6247
#
#
#
# Elastic Compliance Matrix: (Units=1/GPa)
#
#
# Indices 1 2 3 4 5 6 
#
# 1 0.015791 -0.000551 -0.004451 0.000000 0.000000 0.000000
# 2 -0.000551 0.015791 -0.004451 0.000000 0.000000 0.000000
# 3 -0.004451 -0.004451 0.009833 0.000000 0.000000 0.000000
# 4 0.000000 0.000000 0.000000 0.037887 0.000000 0.000000
# 5 0.000000 0.000000 0.000000 0.000000 0.037888 0.000000
# 6 0.000000 0.000000 0.000000 0.000000 0.000000 0.048485
#
#
# Mechanical properties :
#
#
# Convention : Reuss Voigt Hill
#
# Bulk Modulus (GPa) = 44.43123 53.13646 48.78385
# Shear Modulus (GPa) = 26.03010 27.60819 26.81915
#
# Velocity S-wave (km/s) = 3.72829 3.83964 3.78437
# Velocity P-wave (km/s) = 6.50076 6.93052 6.71908
#
# Compressibility (1/GPa) = 0.02250669
#
# Stress axis : x y z
#
# Youngs Moduli (GPa) = 63.32737 63.32890 101.69683
#
# Poissons Ratio (x) = 0.03490 0.45270
# Poissons Ratio (y) = 0.03490 0.45269
# Poissons Ratio (z) = 0.28190 0.28190
#
# Static dielectric constant tensor:
#      x y z
#    x 3.394200 0.000000 0.000000 
#    y 0.000000 3.394200 0.000000 
#    z 0.000000 0.000000 3.694990 
# 
# 
# High freq. dielectric constant tensor:
#      x y z
#    x 1.701870 0.000000 0.000000 
#    y 0.000000 1.701870 0.000000 
#    z 0.000000 0.000000 1.735590 
# 
# From -- ./inp_files/9553.got.cif
#   From: 2010.03.12/outbox.cif.g09.slc.cpg/sg131_5_cif.got.tgz:9553.got - 2010.04.06 17:36:35.
