data_PCOD8316423
_publ_section_title
;
Structure prediction by ZEFSAII (Michael W. Deem and Ramdas Pophale) SiO2 
 PCOD8316423
Probable space group: P 42/M C M
;
_chemical_formula_sum "Si O2"
_cell_formula_units_Z 112
_cell_length_a 19.866659
_cell_length_b 19.866659
_cell_length_c 18.069227
_cell_angle_alpha 90.000000
_cell_angle_beta 90.000000
_cell_angle_gamma 90.000000
_cell_volume 7131.637316
_symmetry_space_group_name_H-M "P 42/M C M"
_symmetry_group_IT_number 132
_symmetry_cell_setting 'tetragonal'
loop_
_space_group_symop_operation_xyz
x,y,z
-y,x,1/2+z
-x,-y,z
y,-x,1/2+z
x,-y,1/2-z
-x,y,1/2-z
y,x,-z
-y,-x,-z
-x,-y,-z
y,-x,1/2-z
x,y,-z
-y,x,1/2-z
-x,y,1/2+z
x,-y,1/2+z
-y,-x,z
y,x,z
loop_
_atom_site_type_symbol
_atom_site_label
_atom_site_fract_x
_atom_site_fract_y
_atom_site_fract_z
Si Si1 0.431923 0.865403 0.343041
Si Si2 0.810016 0.705784 0.144106
Si Si3 0.193266 0.914180 0.584462
Si Si4 0.743408 0.021312 0.167213
Si Si5 0.609075 0.999819 0.913152
Si Si6 0.721203 0.827781 0.683556
Si Si7 0.577733 0.131306 0.172350
O O1 0.374978 0.811757 0.369616
O O2 0.430119 0.931511 0.393656
O O3 0.417317 0.887339 0.258781
O O4 0.506828 0.831538 0.347470
O O5 0.736221 0.736221 0.123444
O O6 0.867238 0.741017 0.095245
O O7 0.826018 0.722635 0.228637
O O8 0.190964 0.937897 0.500000
O O9 0.127159 0.872842 0.606792
O O10 0.192070 0.980005 0.637568
O O11 0.753993 0.101194 0.159091
O O12 0.724601 0.000000 0.250000
O O13 0.685665 0.994245 0.112806
O O14 0.574999 0.061991 0.871720
O O15 0.604816 0.012790 0.000000
O O16 0.766217 0.766217 0.650838
O O17 0.643965 0.823697 0.652385
#
# Coordination Sequence:
#
# PCOD8316423 Si02
#       7
#    16  16  16  16  16  16  16
#     4  10  17  29  44  61  88 118 145 179 222 267
#     4   9  16  27  44  65  88 116 146 177 219 270
#     4  10  19  30  45  68  96 120 144 181 229 278
#     4  11  18  29  47  67  89 116 153 189 226 268
#     4  11  20  28  40  62  89 118 149 181 216 263
#     4   9  17  30  47  65  84 110 151 195 226 260
#     4   9  19  30  43  61  85 116 149 184 223 265
#
# _framework density 15.704668
#
# number of rings (size 3 to 8) (size 9 to 14) (size 15 to 20)
#    0.000    2.143    2.857    3.000    0.000    2.286 
#    0.000    0.000    0.000   11.143    0.000    2.000 
#    0.000    0.571    0.000    8.000    0.000    0.000 
#
# Total GULP energy -1387825.804054 kJ/mol
# GULP energy per Si atom -12391.301822 kJ/mol
# Density = 1.566892 g / cm^3
# Si number density = 15.704668 Si / 1000 Ang^3
#
#
#
# Elastic Constant Matrix: (Units=GPa)
#
#
# Indices 1 2 3 4 5 6 
#
# 1 99.4350 60.9926 20.9961 0.0000 0.0000 0.0000
# 2 60.9926 99.4350 20.9961 0.0000 0.0000 0.0000
# 3 20.9961 20.9961 42.1967 0.0000 0.0000 0.0000
# 4 0.0000 0.0000 0.0000 10.2131 0.0000 0.0000
# 5 0.0000 0.0000 0.0000 0.0000 10.2131 0.0000
# 6 0.0000 0.0000 0.0000 0.0000 0.0000 17.0726
#
#
#
# Elastic Compliance Matrix: (Units=1/GPa)
#
#
# Indices 1 2 3 4 5 6 
#
# 1 0.016590 -0.009423 -0.003566 0.000000 0.000000 0.000000
# 2 -0.009423 0.016590 -0.003566 0.000000 0.000000 0.000000
# 3 -0.003566 -0.003566 0.027247 0.000000 0.000000 0.000000
# 4 0.000000 0.000000 0.000000 0.097914 0.000000 0.000000
# 5 0.000000 0.000000 0.000000 0.000000 0.097914 0.000000
# 6 0.000000 0.000000 0.000000 0.000000 0.000000 0.058573
#
#
# Mechanical properties :
#
#
# Convention : Reuss Voigt Hill
#
# Bulk Modulus (GPa) = 36.60758 49.67067 43.13912
# Shear Modulus (GPa) = 14.00389 16.70521 15.35455
#
# Velocity S-wave (km/s) = 2.98938 3.26499 3.13022
# Velocity P-wave (km/s) = 5.93934 6.77571 6.37126
#
# Compressibility (1/GPa) = 0.02731675
#
# Stress axis : x y z
#
# Youngs Moduli (GPa) = 60.27780 60.27780 36.70093
#
# Poissons Ratio (x) = 0.56800 0.13088
# Poissons Ratio (y) = 0.56800 0.13088
# Poissons Ratio (z) = 0.21495 0.21495
#
# Static dielectric constant tensor:
#      x y z
#    x 3.105130 0.000000 0.000000 
#    y 0.000000 3.105130 0.000000 
#    z 0.000000 0.000000 2.892660 
# 
# 
# High freq. dielectric constant tensor:
#      x y z
#    x 1.579360 0.000000 0.000000 
#    y 0.000000 1.579360 0.000000 
#    z 0.000000 0.000000 1.595130 
# 
# From -- ./inp_files/6779.got.cif
#   From: 2010.03.12/outbox.cif.g09.slc.cpg/sg132_4_cif.got.tgz:6779.got - 2010.04.06 17:53:44.
