data_PCOD8316722
_publ_section_title
;
Structure prediction by ZEFSAII (Michael W. Deem and Ramdas Pophale) SiO2 
 PCOD8316722
Probable space group: P 42/M C M
;
_chemical_formula_sum "Si O2"
_cell_formula_units_Z 88
_cell_length_a 13.658576
_cell_length_b 13.658576
_cell_length_c 26.132618
_cell_angle_alpha 90.000000
_cell_angle_beta 90.000000
_cell_angle_gamma 90.000000
_cell_volume 4875.214933
_symmetry_space_group_name_H-M "P 42/M C M"
_symmetry_group_IT_number 132
_symmetry_cell_setting 'tetragonal'
loop_
_space_group_symop_operation_xyz
x,y,z
-y,x,1/2+z
-x,-y,z
y,-x,1/2+z
x,-y,1/2-z
-x,y,1/2-z
y,x,-z
-y,-x,-z
-x,-y,-z
y,-x,1/2-z
x,y,-z
-y,x,1/2-z
-x,y,1/2+z
x,-y,1/2+z
-y,-x,z
y,x,z
loop_
_atom_site_type_symbol
_atom_site_label
_atom_site_fract_x
_atom_site_fract_y
_atom_site_fract_z
Si Si1 0.814307 0.967690 0.559266
Si Si2 0.994659 0.384836 0.809563
Si Si3 0.576268 0.576268 0.060547
Si Si4 0.792201 0.527740 0.939793
Si Si5 0.865993 0.711181 0.885665
Si Si6 0.831027 0.327407 0.115983
O O1 0.806513 0.994043 0.500000
O O2 0.921281 0.921281 0.571902
O O3 0.732413 0.888389 0.573030
O O4 0.796384 0.065741 0.591152
O O5 0.894605 0.338341 0.832177
O O6 0.000000 0.500000 0.821101
O O7 0.000000 0.361640 0.750000
O O8 0.088964 0.331835 0.833787
O O9 0.500000 0.500000 0.085267
O O10 0.549719 0.683433 0.079289
O O11 0.571264 0.571264 0.000000
O O12 0.858001 0.622032 0.926187
O O13 0.821477 0.434127 0.907592
O O14 0.800914 0.506457 0.000000
O O15 0.760861 0.760861 0.873994
O O16 0.727540 0.272461 0.128159
#
# Coordination Sequence:
#
# PCOD8316722 Si02
#       6
#    16  16   8  16  16  16
#     4   9  19  34  52  77 110 148 187 227 273 326
#     4  10  21  40  62  81 103 136 182 235 288 337
#     4   9  18  30  44  68 107 153 191 221 258 312
#     4  11  20  31  50  79 115 154 190 223 266 326
#     4  11  22  36  55  82 113 146 186 232 283 339
#     4  10  20  35  56  83 110 142 185 231 279 330
#
# _framework density 18.050484999999998
#
# number of rings (size 3 to 8) (size 9 to 14) (size 15 to 20)
#    0.000    1.909    2.727    1.636    0.000    4.000 
#    0.000    3.636    0.000    0.000    0.000    2.545 
#    0.000    2.909    0.000    0.000    0.000    0.000 
#
# Total GULP energy -1090948.413247 kJ/mol
# GULP energy per Si atom -12397.141060 kJ/mol
# Density = 1.800940 g / cm^3
# Si number density = 18.050485 Si / 1000 Ang^3
#
#
#
# Elastic Constant Matrix: (Units=GPa)
#
#
# Indices 1 2 3 4 5 6 
#
# 1 92.0271 43.8171 42.3377 0.0000 0.0000 0.0000
# 2 43.8171 92.0271 42.3377 0.0000 0.0000 0.0000
# 3 42.3377 42.3377 98.5604 0.0000 0.0000 0.0000
# 4 0.0000 0.0000 0.0000 18.2930 0.0000 0.0000
# 5 0.0000 0.0000 0.0000 0.0000 18.2930 0.0000
# 6 0.0000 0.0000 0.0000 0.0000 0.0000 34.5671
#
#
#
# Elastic Compliance Matrix: (Units=1/GPa)
#
#
# Indices 1 2 3 4 5 6 
#
# 1 0.015398 -0.005345 -0.004318 0.000000 0.000000 0.000000
# 2 -0.005345 0.015398 -0.004318 0.000000 0.000000 0.000000
# 3 -0.004318 -0.004318 0.013856 0.000000 0.000000 0.000000
# 4 0.000000 0.000000 0.000000 0.054666 0.000000 0.000000
# 5 0.000000 0.000000 0.000000 0.000000 0.054666 0.000000
# 6 0.000000 0.000000 0.000000 0.000000 0.000000 0.028929
#
#
# Mechanical properties :
#
#
# Convention : Reuss Voigt Hill
#
# Bulk Modulus (GPa) = 59.92083 59.95552 59.93817
# Shear Modulus (GPa) = 23.10124 24.50543 23.80333
#
# Velocity S-wave (km/s) = 3.58133 3.68857 3.63534
# Velocity P-wave (km/s) = 7.09715 7.17135 7.13435
#
# Compressibility (1/GPa) = 0.01668869
#
# Stress axis : x y z
#
# Youngs Moduli (GPa) = 64.94398 64.94398 72.17012
#
# Poissons Ratio (x) = 0.34711 0.31166
# Poissons Ratio (y) = 0.34711 0.31166
# Poissons Ratio (z) = 0.28046 0.28046
#
# Static dielectric constant tensor:
#      x y z
#    x 3.518500 0.000000 0.000000 
#    y 0.000000 3.518500 0.000000 
#    z 0.000000 0.000000 3.030360 
# 
# 
# High freq. dielectric constant tensor:
#      x y z
#    x 1.710870 0.000000 0.000000 
#    y 0.000000 1.710870 0.000000 
#    z 0.000000 0.000000 1.668490 
# 
# From -- ./inp_files/8964.got.cif
#   From: 2010.03.12/outbox.cif.g09.slc.cpg/sg132_5_cif.got.tgz:8964.got - 2010.04.06 17:53:44.
