data_PCOD8316350
_publ_section_title
;
Structure prediction by ZEFSAII (Michael W. Deem and Ramdas Pophale) SiO2 
 PCOD8316350
Probable space group: P 42/M M C
;
_chemical_formula_sum "Si O2"
_cell_formula_units_Z 48
_cell_length_a 7.929441
_cell_length_b 7.929441
_cell_length_c 37.404572
_cell_angle_alpha 90.000000
_cell_angle_beta 90.000000
_cell_angle_gamma 90.000000
_cell_volume 2351.851162
_symmetry_space_group_name_H-M "P 42/M M C"
_symmetry_group_IT_number 131
_symmetry_cell_setting 'tetragonal'
loop_
_space_group_symop_operation_xyz
x,y,z
-x,-y,z
-y,x,1/2+z
y,-x,1/2+z
-x,y,-z
x,-y,-z
y,x,1/2-z
-y,-x,1/2-z
-x,-y,-z
x,y,-z
y,-x,1/2-z
-y,x,1/2-z
x,-y,z
-x,y,z
-y,-x,1/2+z
y,x,1/2+z
loop_
_atom_site_type_symbol
_atom_site_label
_atom_site_fract_x
_atom_site_fract_y
_atom_site_fract_z
Si Si1 0.694444 0.000000 0.412725
Si Si2 0.193424 0.312370 0.286469
Si Si3 0.300792 0.000000 0.333510
Si Si4 0.687701 0.800895 0.039954
O O1 0.779099 0.000000 0.373477
O O2 0.738851 0.830284 0.433471
O O3 0.500000 0.000000 0.405564
O O4 0.298093 0.298093 0.250000
O O5 0.227026 0.500000 0.302676
O O6 0.239775 0.171094 0.315068
O O7 0.000000 0.289703 0.275457
O O8 0.500000 0.000000 0.333040
O O9 0.500000 0.740206 0.052238
O O10 0.692689 0.000000 0.039059
O O11 0.724893 0.731150 0.000000
#
# Coordination Sequence:
#
# PCOD8316350 Si02
#       4
#     8  16   8  16
#     4  11  24  38  55  84 124 160 196 248 303 359
#     4  11  23  40  64  91 118 150 194 249 303 360
#     4  11  25  42  58  85 122 162 204 243 298 370
#     4   9  19  37  61  87 115 153 203 253 301 361
#
# _framework density 20.409455000000001
#
# number of rings (size 3 to 8) (size 9 to 14) (size 15 to 20)
#    0.000    1.667    1.667    3.500    0.000    9.667 
#    0.000    8.333    0.000    0.000    0.000    0.000 
#    0.000    0.000    0.000    0.000    0.000    0.000 
#
# Total GULP energy -595007.439113 kJ/mol
# GULP energy per Si atom -12395.988315 kJ/mol
# Density = 2.036300 g / cm^3
# Si number density = 20.409455 Si / 1000 Ang^3
#
#
#
# Elastic Constant Matrix: (Units=GPa)
#
#
# Indices 1 2 3 4 5 6 
#
# 1 127.6037 49.7137 67.0607 0.0000 0.0000 0.0000
# 2 49.7137 127.6037 67.0607 0.0000 0.0000 0.0000
# 3 67.0607 67.0607 156.3253 0.0000 0.0000 0.0000
# 4 0.0000 0.0000 0.0000 29.4262 0.0000 0.0000
# 5 0.0000 0.0000 0.0000 0.0000 29.4262 0.0000
# 6 0.0000 0.0000 0.0000 0.0000 0.0000 244.8907
#
#
#
# Elastic Compliance Matrix: (Units=1/GPa)
#
#
# Indices 1 2 3 4 5 6 
#
# 1 0.010594 -0.002245 -0.003581 0.000000 0.000000 0.000000
# 2 -0.002245 0.010594 -0.003581 0.000000 0.000000 0.000000
# 3 -0.003581 -0.003581 0.009470 0.000000 0.000000 0.000000
# 4 0.000000 0.000000 0.000000 0.033983 0.000000 0.000000
# 5 0.000000 0.000000 0.000000 0.000000 0.033983 0.000000
# 6 0.000000 0.000000 0.000000 0.000000 0.000000 0.004083
#
#
# Mechanical properties :
#
#
# Convention : Reuss Voigt Hill
#
# Bulk Modulus (GPa) = 84.45106 86.57813 85.51459
# Shear Modulus (GPa) = 39.85035 75.92845 57.88940
#
# Velocity S-wave (km/s) = 4.42355 6.10601 5.33157
# Velocity P-wave (km/s) = 8.21941 9.60332 8.93819
#
# Compressibility (1/GPa) = 0.01184118
#
# Stress axis : x y z
#
# Youngs Moduli (GPa) = 94.39692 94.39692 105.60119
#
# Poissons Ratio (x) = 0.21193 0.37820
# Poissons Ratio (y) = 0.21193 0.37820
# Poissons Ratio (z) = 0.33807 0.33807
#
# Static dielectric constant tensor:
#      x y z
#    x 3.746980 0.000000 0.000000 
#    y 0.000000 3.746980 0.000000 
#    z 0.000000 0.000000 4.428000 
# 
# 
# High freq. dielectric constant tensor:
#      x y z
#    x 1.808020 0.000000 0.000000 
#    y 0.000000 1.808020 0.000000 
#    z 0.000000 0.000000 1.788350 
# 
# From -- ./inp_files/12945.got.cif
#   From: 2010.03.12/outbox.cif.g09.slc.cpg/sg131_7_cif.got.tgz:12945.got - 2010.04.06 17:36:35.
