data_PCOD8316386
_publ_section_title
;
Structure prediction by ZEFSAII (Michael W. Deem and Ramdas Pophale) SiO2 
 PCOD8316386
Probable space group: P 42/M M C
;
_chemical_formula_sum "Si O2"
_cell_formula_units_Z 72
_cell_length_a 18.017803
_cell_length_b 18.017803
_cell_length_c 15.000567
_cell_angle_alpha 90.000000
_cell_angle_beta 90.000000
_cell_angle_gamma 90.000000
_cell_volume 4869.802446
_symmetry_space_group_name_H-M "P 42/M M C"
_symmetry_group_IT_number 131
_symmetry_cell_setting 'tetragonal'
loop_
_space_group_symop_operation_xyz
x,y,z
-x,-y,z
-y,x,1/2+z
y,-x,1/2+z
-x,y,-z
x,-y,-z
y,x,1/2-z
-y,-x,1/2-z
-x,-y,-z
x,y,-z
y,-x,1/2-z
-y,x,1/2-z
x,-y,z
-x,y,z
-y,-x,1/2+z
y,x,1/2+z
loop_
_atom_site_type_symbol
_atom_site_label
_atom_site_fract_x
_atom_site_fract_y
_atom_site_fract_z
Si Si1 0.087065 0.708946 0.396523
Si Si2 0.164423 0.856135 0.604024
Si Si3 0.915831 0.000000 0.393486
Si Si4 0.581906 0.912412 0.765643
Si Si5 0.086117 0.677109 0.899326
O O1 0.104590 0.694444 0.500000
O O2 0.131936 0.779401 0.356512
O O3 0.115993 0.637034 0.342832
O O4 0.000000 0.723712 0.380656
O O5 0.146171 0.855267 0.500000
O O6 0.122916 0.926709 0.647075
O O7 0.251943 0.862832 0.622079
O O8 0.908203 0.000000 0.500000
O O9 0.000000 0.000000 0.361276
O O10 0.500000 0.876621 0.778146
O O11 0.612238 0.890164 0.668004
O O12 0.575217 0.000000 0.772913
O O13 0.000000 0.700372 0.886657
O O14 0.099738 0.648590 0.000000
#
# Coordination Sequence:
#
# PCOD8316386 Si02
#       5
#    16  16   8  16  16
#     4   9  17  28  41  58  80 106 136 171 205 240
#     4   9  15  24  38  58  81 107 139 167 201 244
#     4   9  14  20  34  56  81 109 140 173 201 235
#     4   9  18  30  42  57  73  95 132 175 218 255
#     4   9  16  27  42  59  79 103 130 165 206 245
#
# _framework density 14.784993999999999
#
# number of rings (size 3 to 8) (size 9 to 14) (size 15 to 20)
#    0.000    3.000    1.111    0.667    0.000    4.444 
#    0.000    4.444    0.000    0.000    0.000    0.000 
#    0.000    0.000    0.000    0.000    0.000    8.889 
#
# Total GULP energy -892502.232617 kJ/mol
# GULP energy per Si atom -12395.864342 kJ/mol
# Density = 1.475134 g / cm^3
# Si number density = 14.784994 Si / 1000 Ang^3
#
#
#
# Elastic Constant Matrix: (Units=GPa)
#
#
# Indices 1 2 3 4 5 6 
#
# 1 92.7148 40.5580 35.4344 0.0000 0.0000 0.0000
# 2 40.5580 92.7148 35.4344 0.0000 0.0000 0.0000
# 3 35.4344 35.4344 59.4506 0.0000 0.0000 0.0000
# 4 0.0000 0.0000 0.0000 11.8951 0.0000 0.0000
# 5 0.0000 0.0000 0.0000 0.0000 11.8951 0.0000
# 6 0.0000 0.0000 0.0000 0.0000 0.0000 6.8759
#
#
#
# Elastic Compliance Matrix: (Units=1/GPa)
#
#
# Indices 1 2 3 4 5 6 
#
# 1 0.015079 -0.004094 -0.006547 0.000000 0.000000 0.000000
# 2 -0.004094 0.015079 -0.006547 0.000000 0.000000 0.000000
# 3 -0.006547 -0.006547 0.024626 0.000000 0.000000 0.000000
# 4 0.000000 0.000000 0.000000 0.084068 0.000000 0.000000
# 5 0.000000 0.000000 0.000000 0.000000 0.084068 0.000000
# 6 0.000000 0.000000 0.000000 0.000000 0.000000 0.145436
#
#
# Mechanical properties :
#
#
# Convention : Reuss Voigt Hill
#
# Bulk Modulus (GPa) = 49.00518 51.97043 50.48781
# Shear Modulus (GPa) = 12.20894 15.03011 13.61953
#
# Velocity S-wave (km/s) = 2.87673 3.19184 3.03837
# Velocity P-wave (km/s) = 6.65216 6.98648 6.82137
#
# Compressibility (1/GPa) = 0.02040600
#
# Stress axis : x y z
#
# Youngs Moduli (GPa) = 66.31731 66.31731 40.60802
#
# Poissons Ratio (x) = 0.27150 0.26588
# Poissons Ratio (y) = 0.27150 0.26588
# Poissons Ratio (z) = 0.43421 0.43421
#
# Static dielectric constant tensor:
#      x y z
#    x 2.791730 0.000000 0.000000 
#    y 0.000000 2.791730 0.000000 
#    z 0.000000 0.000000 2.837050 
# 
# 
# High freq. dielectric constant tensor:
#      x y z
#    x 1.531230 0.000000 0.000000 
#    y 0.000000 1.531230 0.000000 
#    z 0.000000 0.000000 1.568150 
# 
# From -- ./inp_files/7718.got.cif
#   From: 2010.03.12/outbox.cif.g09.slc.cpg/sg131_4_cif.got.tgz:7718.got - 2010.04.06 17:36:35.
