data_PCOD8316113
_publ_section_title
;
Structure prediction by ZEFSAII (Michael W. Deem and Ramdas Pophale) SiO2 
 PCOD8316113
Probable space group: P 42/M M C
;
_chemical_formula_sum "Si O2"
_cell_formula_units_Z 80
_cell_length_a 14.520775
_cell_length_b 14.520775
_cell_length_c 19.772793
_cell_angle_alpha 90.000000
_cell_angle_beta 90.000000
_cell_angle_gamma 90.000000
_cell_volume 4169.150876
_symmetry_space_group_name_H-M "P 42/M M C"
_symmetry_group_IT_number 131
_symmetry_cell_setting 'tetragonal'
loop_
_space_group_symop_operation_xyz
x,y,z
-x,-y,z
-y,x,1/2+z
y,-x,1/2+z
-x,y,-z
x,-y,-z
y,x,1/2-z
-y,-x,1/2-z
-x,-y,-z
x,y,-z
y,-x,1/2-z
-y,x,1/2-z
x,-y,z
-x,y,z
-y,-x,1/2+z
y,x,1/2+z
loop_
_atom_site_type_symbol
_atom_site_label
_atom_site_fract_x
_atom_site_fract_y
_atom_site_fract_z
Si Si1 0.606116 0.894851 0.194270
Si Si2 0.255945 0.106158 0.922913
Si Si3 0.103851 0.250910 0.922012
Si Si4 0.390579 0.798810 0.668051
Si Si5 0.602579 0.402328 0.670147
O O1 0.500000 0.882964 0.175249
O O2 0.661369 0.867060 0.127053
O O3 0.634311 0.825866 0.254725
O O4 0.627314 0.000000 0.216639
O O5 0.166884 0.164682 0.901671
O O6 0.227649 0.000000 0.914931
O O7 0.287123 0.127504 0.000000
O O8 0.130129 0.342656 0.881728
O O9 0.000000 0.222581 0.903792
O O10 0.114784 0.276479 0.000000
O O11 0.500000 0.805315 0.657776
O O12 0.351878 0.695568 0.649441
O O13 0.596998 0.403003 0.750000
O O14 0.652499 0.500000 0.647196
O O15 0.500000 0.404096 0.639495
#
# Coordination Sequence:
#
# PCOD8316113 Si02
#       5
#    16  16  16  16  16
#     4   9  18  32  52  81 112 140 174 214 257 310
#     4   9  19  36  56  77 103 136 172 214 267 322
#     4  10  22  38  55  76 101 133 176 224 270 316
#     4  10  20  33  53  80 109 142 176 213 258 306
#     4   8  15  28  46  72 104 136 172 210 245 290
#
# _framework density 19.188561
#
# number of rings (size 3 to 8) (size 9 to 14) (size 15 to 20)
#    0.000    2.800    0.000    1.200    2.800    2.400 
#    0.000    5.000    0.000    1.800    0.000    5.600 
#    0.000    0.000    0.000    7.800    0.000    0.200 
#
# Total GULP energy -991224.102440 kJ/mol
# GULP energy per Si atom -12390.301281 kJ/mol
# Density = 1.914489 g / cm^3
# Si number density = 19.188561 Si / 1000 Ang^3
#
#
#
# Elastic Constant Matrix: (Units=GPa)
#
#
# Indices 1 2 3 4 5 6 
#
# 1 104.5221 57.5809 55.9623 0.0000 0.0000 0.0000
# 2 57.5809 104.5222 55.9623 0.0000 0.0000 0.0000
# 3 55.9623 55.9623 72.6758 0.0000 0.0000 0.0000
# 4 0.0000 0.0000 0.0000 26.2310 0.0000 0.0000
# 5 0.0000 0.0000 0.0000 0.0000 26.2311 0.0000
# 6 0.0000 0.0000 0.0000 0.0000 0.0000 25.9330
#
#
#
# Elastic Compliance Matrix: (Units=1/GPa)
#
#
# Indices 1 2 3 4 5 6 
#
# 1 0.017238 -0.004066 -0.010143 0.000000 0.000000 0.000000
# 2 -0.004066 0.017238 -0.010143 0.000000 0.000000 0.000000
# 3 -0.010143 -0.010143 0.029380 0.000000 0.000000 0.000000
# 4 0.000000 0.000000 0.000000 0.038123 0.000000 0.000000
# 5 0.000000 0.000000 0.000000 0.000000 0.038123 0.000000
# 6 0.000000 0.000000 0.000000 0.000000 0.000000 0.038561
#
#
# Mechanical properties :
#
#
# Convention : Reuss Voigt Hill
#
# Bulk Modulus (GPa) = 65.99343 68.97012 67.48178
# Shear Modulus (GPa) = 21.51317 23.15999 22.33658
#
# Velocity S-wave (km/s) = 3.35198 3.47791 3.41553
# Velocity P-wave (km/s) = 7.03191 7.22144 7.12731
#
# Compressibility (1/GPa) = 0.01515302
#
# Stress axis : x y z
#
# Youngs Moduli (GPa) = 58.01246 58.01256 34.03636
#
# Poissons Ratio (x) = 0.23585 0.34523
# Poissons Ratio (y) = 0.23585 0.34523
# Poissons Ratio (z) = 0.58841 0.58841
#
# Static dielectric constant tensor:
#      x y z
#    x 3.728880 0.000000 0.000000 
#    y 0.000000 3.728890 0.000000 
#    z 0.000000 0.000000 3.267800 
# 
# 
# High freq. dielectric constant tensor:
#      x y z
#    x 1.749820 0.000000 0.000000 
#    y 0.000000 1.749820 0.000000 
#    z 0.000000 0.000000 1.714290 
# 
# From -- ./inp_files/9394.got.cif
#   From: 2010.03.12/outbox.cif.g09.slc.cpg/sg131_5_cif.got.tgz:9394.got - 2010.04.06 17:36:35.
