data_PCOD8316356
_publ_section_title
;
Structure prediction by ZEFSAII (Michael W. Deem and Ramdas Pophale) SiO2 
 PCOD8316356
Probable space group: P 42/M M C
;
_chemical_formula_sum "Si O2"
_cell_formula_units_Z 42
_cell_length_a 11.497568
_cell_length_b 11.497568
_cell_length_c 15.360854
_cell_angle_alpha 90.000000
_cell_angle_beta 90.000000
_cell_angle_gamma 90.000000
_cell_volume 2030.613808
_symmetry_space_group_name_H-M "P 42/M M C"
_symmetry_group_IT_number 131
_symmetry_cell_setting 'tetragonal'
loop_
_space_group_symop_operation_xyz
x,y,z
-x,-y,z
-y,x,1/2+z
y,-x,1/2+z
-x,y,-z
x,-y,-z
y,x,1/2-z
-y,-x,1/2-z
-x,-y,-z
x,y,-z
y,-x,1/2-z
-y,x,1/2-z
x,-y,z
-x,y,z
-y,-x,1/2+z
y,x,1/2+z
loop_
_atom_site_type_symbol
_atom_site_label
_atom_site_fract_x
_atom_site_fract_y
_atom_site_fract_z
Si Si1 0.262254 0.500000 0.348358
Si Si2 0.500000 0.500000 0.750000
Si Si3 0.500000 0.861579 0.328933
Si Si4 0.264723 0.245670 0.402826
Si Si5 0.866822 0.133179 0.750000
O O1 0.388125 0.500000 0.308144
O O2 0.162700 0.500000 0.274108
O O3 0.254737 0.385134 0.406952
O O4 0.610762 0.800950 0.372260
O O5 0.500000 0.000000 0.345578
O O6 0.239397 0.198408 0.500000
O O7 0.167749 0.203051 0.335825
O O8 0.000000 0.159625 0.769988
#
# Coordination Sequence:
#
# PCOD8316356 Si02
#       5
#     8   2   8  16   8
#     4  12  21  41  66  99 130 173 218 271 337 403
#     4  12  16  36  70  84 124 182 216 264 330 392
#     4  12  23  40  67  95 133 181 226 275 331 393
#     4  12  25  42  68 100 134 172 221 278 337 400
#     4  11  25  46  69  93 130 180 228 275 327 392
#
# _framework density 20.683402999999998
#
# number of rings (size 3 to 8) (size 9 to 14) (size 15 to 20)
#    0.000    0.190    7.619    2.286    0.000    4.571 
#    0.000    4.762    0.000    3.429    0.000    0.000 
#    0.000    0.000    0.000    0.000    0.000    0.000 
#
# Total GULP energy -520846.794515 kJ/mol
# GULP energy per Si atom -12401.114155 kJ/mol
# Density = 2.063633 g / cm^3
# Si number density = 20.683403 Si / 1000 Ang^3
#
#
#
# Elastic Constant Matrix: (Units=GPa)
#
#
# Indices 1 2 3 4 5 6 
#
# 1 110.2559 43.3626 25.8429 0.0000 0.0000 0.0000
# 2 43.3626 110.2583 25.8452 0.0000 0.0000 0.0000
# 3 25.8429 25.8452 130.0692 0.0000 0.0000 0.0000
# 4 0.0000 0.0000 0.0000 -6.8788 0.0000 0.0000
# 5 0.0000 0.0000 0.0000 0.0000 -6.8821 0.0000
# 6 0.0000 0.0000 0.0000 0.0000 0.0000 28.6487
#
#
#
# Elastic Compliance Matrix: (Units=1/GPa)
#
#
# Indices 1 2 3 4 5 6 
#
# 1 0.010963 -0.003986 -0.001386 0.000000 0.000000 0.000000
# 2 -0.003986 0.010962 -0.001386 0.000000 0.000000 0.000000
# 3 -0.001386 -0.001386 0.008239 0.000000 0.000000 0.000000
# 4 0.000000 0.000000 0.000000 -0.145375 0.000000 0.000000
# 5 0.000000 0.000000 0.000000 0.000000 -0.145304 0.000000
# 6 0.000000 0.000000 0.000000 0.000000 0.000000 0.034906
#
#
# Mechanical properties :
#
#
# Convention : Reuss Voigt Hill
#
# Bulk Modulus (GPa) = 60.07230 60.07607 60.07418
# Shear Modulus (GPa) = -24.20795 20.01308 -2.09743
#
# Velocity S-wave (km/s) = -3.42483 3.11399 -1.00810
# Velocity P-wave (km/s) = 3.66981 6.48366 5.26808
#
# Compressibility (1/GPa) = 0.01664661
#
# Stress axis : x y z
#
# Youngs Moduli (GPa) = 91.21998 91.22128 121.37347
#
# Poissons Ratio (x) = 0.36365 0.16822
# Poissons Ratio (y) = 0.36365 0.16825
# Poissons Ratio (z) = 0.12643 0.12645
#
# Static dielectric constant tensor:
#      x y z
#    x 3.896070 0.000000 0.000000 
#    y 0.000000 3.896110 0.000000 
#    z 0.000000 0.000000 3.766500 
# 
# 
# High freq. dielectric constant tensor:
#      x y z
#    x 1.817800 0.000000 0.000000 
#    y 0.000000 1.817800 0.000000 
#    z 0.000000 0.000000 1.808280 
# 
# From -- ./inp_files/6951.got.cif
#   From: 2010.03.12/outbox.cif.g09.slc.cpg/sg131_4_cif.got.tgz:6951.got - 2010.04.06 17:36:35.
