data_PCOD8316747
_publ_section_title
;
Structure prediction by ZEFSAII (Michael W. Deem and Ramdas Pophale) SiO2 
 PCOD8316747
Probable space group: P 42/M C M
;
_chemical_formula_sum "Si O2"
_cell_formula_units_Z 72
_cell_length_a 14.015332
_cell_length_b 14.015332
_cell_length_c 18.698057
_cell_angle_alpha 90.000000
_cell_angle_beta 90.000000
_cell_angle_gamma 90.000000
_cell_volume 3672.850568
_symmetry_space_group_name_H-M "P 42/M C M"
_symmetry_group_IT_number 132
_symmetry_cell_setting 'tetragonal'
loop_
_space_group_symop_operation_xyz
x,y,z
-y,x,1/2+z
-x,-y,z
y,-x,1/2+z
x,-y,1/2-z
-x,y,1/2-z
y,x,-z
-y,-x,-z
-x,-y,-z
y,-x,1/2-z
x,y,-z
-y,x,1/2-z
-x,y,1/2+z
x,-y,1/2+z
-y,-x,z
y,x,z
loop_
_atom_site_type_symbol
_atom_site_label
_atom_site_fract_x
_atom_site_fract_y
_atom_site_fract_z
Si Si1 0.779136 0.071746 0.845804
Si Si2 0.579941 0.420060 0.584719
Si Si3 0.472564 0.231206 0.170124
Si Si4 0.798376 0.646530 0.580177
Si Si5 0.280674 0.870644 0.308477
O O1 0.889780 0.110221 0.843779
O O2 0.725301 0.118346 0.912840
O O3 0.724593 0.108712 0.775394
O O4 0.769057 0.957936 0.851519
O O5 0.500000 0.500000 0.598732
O O6 0.595533 0.404468 0.500000
O O7 0.678073 0.450825 0.621229
O O8 0.500000 0.264925 0.250000
O O9 0.562570 0.179123 0.135148
O O10 0.389416 0.151406 0.170050
O O11 0.798890 0.606116 0.500000
O O12 0.696192 0.696192 0.597064
O O13 0.223655 0.776346 0.329719
#
# Coordination Sequence:
#
# PCOD8316747 Si02
#       5
#    16   8  16  16  16
#     4   9  19  37  62  87 117 154 197 246 308 365
#     4  11  26  42  58  86 125 169 213 253 297 358
#     4  12  23  36  61  88 122 160 205 254 307 358
#     4  10  21  39  61  85 118 158 204 252 299 358
#     4  10  20  37  58  90 122 151 197 255 303 361
#
# _framework density 19.603301999999999
#
# number of rings (size 3 to 8) (size 9 to 14) (size 15 to 20)
#    0.000    1.667    3.333    1.333    3.111    3.111 
#    0.000    5.556    0.000    0.000    0.000    3.111 
#    0.000    0.000    0.000    0.000    0.000    0.000 
#
# Total GULP energy -892530.296427 kJ/mol
# GULP energy per Si atom -12396.254117 kJ/mol
# Density = 1.955868 g / cm^3
# Si number density = 19.603302 Si / 1000 Ang^3
#
#
#
# Elastic Constant Matrix: (Units=GPa)
#
#
# Indices 1 2 3 4 5 6 
#
# 1 96.8217 24.0305 31.7074 0.0000 0.0000 0.0000
# 2 24.0305 96.8216 31.7073 0.0000 0.0000 0.0000
# 3 31.7074 31.7073 87.9916 0.0000 0.0000 0.0000
# 4 0.0000 0.0000 0.0000 20.7097 0.0000 0.0000
# 5 0.0000 0.0000 0.0000 0.0000 20.7097 0.0000
# 6 0.0000 0.0000 0.0000 0.0000 0.0000 26.7892
#
#
#
# Elastic Compliance Matrix: (Units=1/GPa)
#
#
# Indices 1 2 3 4 5 6 
#
# 1 0.011971 -0.001767 -0.003677 0.000000 0.000000 0.000000
# 2 -0.001767 0.011971 -0.003677 0.000000 0.000000 0.000000
# 3 -0.003677 -0.003677 0.014015 0.000000 0.000000 0.000000
# 4 0.000000 0.000000 0.000000 0.048287 0.000000 0.000000
# 5 0.000000 0.000000 0.000000 0.000000 0.048287 0.000000
# 6 0.000000 0.000000 0.000000 0.000000 0.000000 0.037328
#
#
# Mechanical properties :
#
#
# Convention : Reuss Voigt Hill
#
# Bulk Modulus (GPa) = 50.72330 50.72504 50.72417
# Shear Modulus (GPa) = 25.42307 26.58768 26.00538
#
# Velocity S-wave (km/s) = 3.60512 3.68677 3.64618
# Velocity P-wave (km/s) = 6.57725 6.63739 6.60739
#
# Compressibility (1/GPa) = 0.01971481
#
# Stress axis : x y z
#
# Youngs Moduli (GPa) = 83.53548 83.53549 71.35379
#
# Poissons Ratio (x) = 0.14760 0.26237
# Poissons Ratio (y) = 0.14760 0.26236
# Poissons Ratio (z) = 0.30716 0.30716
#
# Static dielectric constant tensor:
#      x y z
#    x 3.600990 0.000000 0.000000 
#    y 0.000000 3.600990 0.000000 
#    z 0.000000 0.000000 3.506790 
# 
# 
# High freq. dielectric constant tensor:
#      x y z
#    x 1.760250 0.000000 0.000000 
#    y 0.000000 1.760250 0.000000 
#    z 0.000000 0.000000 1.751650 
# 
# From -- ./inp_files/6109.got.cif
#   From: 2010.03.12/outbox.cif.g09.slc.cpg/sg132_4_cif.got.tgz:6109.got - 2010.04.06 17:53:44.
