data_PCOD8316427
_publ_section_title
;
Structure prediction by ZEFSAII (Michael W. Deem and Ramdas Pophale) SiO2 
 PCOD8316427
Probable space group: P 42/M C M
;
_chemical_formula_sum "Si O2"
_cell_formula_units_Z 112
_cell_length_a 20.691369
_cell_length_b 20.691369
_cell_length_c 18.283867
_cell_angle_alpha 90.000000
_cell_angle_beta 90.000000
_cell_angle_gamma 90.000000
_cell_volume 7827.922279
_symmetry_space_group_name_H-M "P 42/M C M"
_symmetry_group_IT_number 132
_symmetry_cell_setting 'tetragonal'
loop_
_space_group_symop_operation_xyz
x,y,z
-y,x,1/2+z
-x,-y,z
y,-x,1/2+z
x,-y,1/2-z
-x,y,1/2-z
y,x,-z
-y,-x,-z
-x,-y,-z
y,-x,1/2-z
x,y,-z
-y,x,1/2-z
-x,y,1/2+z
x,-y,1/2+z
-y,-x,z
y,x,z
loop_
_atom_site_type_symbol
_atom_site_label
_atom_site_fract_x
_atom_site_fract_y
_atom_site_fract_z
Si Si1 0.814373 0.185628 0.580868
Si Si2 0.760354 0.866409 0.659816
Si Si3 0.087647 0.368108 0.417473
Si Si4 0.076855 0.923146 0.580500
Si Si5 0.065435 0.383125 0.082856
Si Si6 0.006282 0.166176 0.331773
Si Si7 0.730640 0.104060 0.324940
Si Si8 0.076294 0.507090 0.168469
O O1 0.793963 0.206038 0.500000
O O2 0.868798 0.131203 0.581128
O O3 0.838534 0.247686 0.622991
O O4 0.797083 0.797083 0.647212
O O5 0.698971 0.878042 0.607254
O O6 0.813717 0.921669 0.645811
O O7 0.734011 0.872669 0.741944
O O8 0.112144 0.381359 0.500000
O O9 0.106065 0.426270 0.362843
O O10 0.010377 0.367678 0.416944
O O11 0.056082 0.943919 0.500000
O O12 0.013453 0.894342 0.618512
O O13 0.092966 0.341665 0.149667
O O14 0.090926 0.453546 0.106420
O O15 0.091035 0.369000 0.000000
O O16 0.000000 0.139562 0.250000
O O17 0.960566 0.228492 0.339820
O O18 0.107261 0.500000 0.250000
O O19 0.000000 0.500000 0.177957
#
# Coordination Sequence:
#
# PCOD8316427 Si02
#       8
#     8  16  16   8  16  16  16  16
#     4   9  16  26  42  63  85 103 124 162 212 262
#     4  11  21  33  47  61  80 110 150 182 211 260
#     4  10  20  32  44  62  87 114 140 174 218 261
#     4   9  18  32  49  64  75  92 122 170 224 273
#     4  10  18  28  46  69  89 110 135 169 221 273
#     4   9  19  30  47  63  79 101 135 171 220 272
#     4  10  17  30  44  64  85 106 136 174 215 265
#     4   9  17  29  46  66  89 110 135 166 209 263
#
# _framework density 14.307755999999999
#
# number of rings (size 3 to 8) (size 9 to 14) (size 15 to 20)
#    0.000    2.286    2.143    1.714    3.000    4.286 
#    0.000    0.357    0.000    0.429    0.000    0.000 
#    0.000    0.000    0.000    0.000    0.000    0.000 
#
# Total GULP energy -1387480.685728 kJ/mol
# GULP energy per Si atom -12388.220408 kJ/mol
# Density = 1.427519 g / cm^3
# Si number density = 14.307756 Si / 1000 Ang^3
#
#
#
# Elastic Constant Matrix: (Units=GPa)
#
#
# Indices 1 2 3 4 5 6 
#
# 1 51.3743 28.2901 36.1665 0.0000 0.0000 0.0000
# 2 28.2901 51.3742 36.1666 0.0000 0.0000 0.0000
# 3 36.1665 36.1666 113.5602 0.0000 0.0000 0.0000
# 4 0.0000 0.0000 0.0000 12.6939 0.0000 0.0000
# 5 0.0000 0.0000 0.0000 0.0000 12.6938 0.0000
# 6 0.0000 0.0000 0.0000 0.0000 0.0000 9.7267
#
#
#
# Elastic Compliance Matrix: (Units=1/GPa)
#
#
# Indices 1 2 3 4 5 6 
#
# 1 0.030489 -0.012830 -0.005624 0.000000 0.000000 0.000000
# 2 -0.012830 0.030489 -0.005624 0.000000 0.000000 0.000000
# 3 -0.005624 -0.005624 0.012388 0.000000 0.000000 0.000000
# 4 0.000000 0.000000 0.000000 0.078778 0.000000 0.000000
# 5 0.000000 0.000000 0.000000 0.000000 0.078778 0.000000
# 6 0.000000 0.000000 0.000000 0.000000 0.000000 0.102810
#
#
# Mechanical properties :
#
#
# Convention : Reuss Voigt Hill
#
# Bulk Modulus (GPa) = 39.66643 46.39501 43.03072
# Shear Modulus (GPa) = 12.81087 14.73525 13.77306
#
# Velocity S-wave (km/s) = 2.99553 3.21265 3.10599
# Velocity P-wave (km/s) = 6.30462 6.80135 6.55769
#
# Compressibility (1/GPa) = 0.02521023
#
# Stress axis : x y z
#
# Youngs Moduli (GPa) = 32.79827 32.79818 80.72196
#
# Poissons Ratio (x) = 0.42081 0.45398
# Poissons Ratio (y) = 0.42081 0.45399
# Poissons Ratio (z) = 0.18446 0.18446
#
# Static dielectric constant tensor:
#      x y z
#    x 2.567260 0.000000 0.000000 
#    y 0.000000 2.567260 0.000000 
#    z 0.000000 0.000000 3.044410 
# 
# 
# High freq. dielectric constant tensor:
#      x y z
#    x 1.508350 0.000000 0.000000 
#    y 0.000000 1.508350 0.000000 
#    z 0.000000 0.000000 1.568860 
# 
# From -- ./inp_files/6822.got.cif
#   From: 2010.03.12/outbox.cif.g09.slc.cpg/sg132_4_cif.got.tgz:6822.got - 2010.04.06 17:53:44.
