data_PCOD8316264
_publ_section_title
;
Structure prediction by ZEFSAII (Michael W. Deem and Ramdas Pophale) SiO2 
 PCOD8316264
Probable space group: P 42/M M C
;
_chemical_formula_sum "Si O2"
_cell_formula_units_Z 96
_cell_length_a 24.110416
_cell_length_b 24.110416
_cell_length_c 8.972858
_cell_angle_alpha 90.000000
_cell_angle_beta 90.000000
_cell_angle_gamma 90.000000
_cell_volume 5216.031463
_symmetry_space_group_name_H-M "P 42/M M C"
_symmetry_group_IT_number 131
_symmetry_cell_setting 'tetragonal'
loop_
_space_group_symop_operation_xyz
x,y,z
-x,-y,z
-y,x,1/2+z
y,-x,1/2+z
-x,y,-z
x,-y,-z
y,x,1/2-z
-y,-x,1/2-z
-x,-y,-z
x,y,-z
y,-x,1/2-z
-y,x,1/2-z
x,-y,z
-x,y,z
-y,-x,1/2+z
y,x,1/2+z
loop_
_atom_site_type_symbol
_atom_site_label
_atom_site_fract_x
_atom_site_fract_y
_atom_site_fract_z
Si Si1 0.859833 0.060360 0.669451
Si Si2 0.062886 0.730291 0.169878
Si Si3 0.938954 0.438515 0.322987
Si Si4 0.145342 0.347594 0.676622
Si Si5 0.355009 0.436594 0.174941
Si Si6 0.652966 0.735131 0.676109
O O1 0.890889 0.109112 0.750000
O O2 0.879154 0.060565 0.500000
O O3 0.795245 0.071932 0.682447
O O4 0.874027 0.000000 0.739593
O O5 0.109388 0.705764 0.278993
O O6 0.000000 0.714356 0.220058
O O7 0.072668 0.710377 0.000000
O O8 0.938678 0.438135 0.500000
O O9 0.926748 0.500000 0.262020
O O10 0.890661 0.399263 0.262728
O O11 0.000000 0.418768 0.266989
O O12 0.155167 0.348015 0.500000
O O13 0.203687 0.351323 0.758575
O O14 0.408548 0.408548 0.250000
O O15 0.348579 0.500000 0.231707
O O16 0.299068 0.402903 0.216810
O O17 0.365444 0.434859 0.000000
O O18 0.705787 0.705787 0.750000
O O19 0.662400 0.738096 0.500000
#
# Coordination Sequence:
#
# PCOD8316264 Si02
#       6
#    16  16  16  16  16  16
#     4   9  19  35  53  74 100 130 164 202 247 300
#     4   9  19  36  54  72 100 137 174 216 265 310
#     4   8  15  29  48  72 105 140 171 208 252 296
#     4  11  21  32  52  81 106 133 174 218 261 314
#     4   9  19  36  57  81 109 141 176 215 259 306
#     4  10  21  38  56  74 102 139 176 215 259 307
#
# _framework density 18.404796999999999
#
# number of rings (size 3 to 8) (size 9 to 14) (size 15 to 20)
#    0.000    2.667    0.000    3.000    0.000    4.667 
#    0.000    5.000    0.000    1.500    0.000    5.833 
#    0.000    0.000    0.000    0.000    0.000    0.000 
#
# Total GULP energy -1190026.164469 kJ/mol
# GULP energy per Si atom -12396.105880 kJ/mol
# Density = 1.836291 g / cm^3
# Si number density = 18.404797 Si / 1000 Ang^3
#
#
#
# Elastic Constant Matrix: (Units=GPa)
#
#
# Indices 1 2 3 4 5 6 
#
# 1 130.4942 73.5993 46.8397 0.0000 0.0000 0.0000
# 2 73.5993 130.4842 46.8418 0.0000 0.0000 0.0000
# 3 46.8397 46.8418 60.6183 0.0000 0.0000 0.0000
# 4 0.0000 0.0000 0.0000 24.5529 0.0000 0.0000
# 5 0.0000 0.0000 0.0000 0.0000 24.5530 0.0000
# 6 0.0000 0.0000 0.0000 0.0000 0.0000 36.1361
#
#
#
# Elastic Compliance Matrix: (Units=1/GPa)
#
#
# Indices 1 2 3 4 5 6 
#
# 1 0.012585 -0.004992 -0.005866 0.000000 0.000000 0.000000
# 2 -0.004992 0.012586 -0.005868 0.000000 0.000000 0.000000
# 3 -0.005866 -0.005868 0.025564 0.000000 0.000000 0.000000
# 4 0.000000 0.000000 0.000000 0.040728 0.000000 0.000000
# 5 0.000000 0.000000 0.000000 0.000000 0.040728 0.000000
# 6 0.000000 0.000000 0.000000 0.000000 0.000000 0.027673
#
#
# Mechanical properties :
#
#
# Convention : Reuss Voigt Hill
#
# Bulk Modulus (GPa) = 57.86655 72.90649 65.38652
# Shear Modulus (GPa) = 25.11566 27.33613 26.22590
#
# Velocity S-wave (km/s) = 3.69809 3.85810 3.77894
# Velocity P-wave (km/s) = 7.05293 7.71657 7.39220
#
# Compressibility (1/GPa) = 0.01728114
#
# Stress axis : x y z
#
# Youngs Moduli (GPa) = 79.46250 79.45139 39.11727
#
# Poissons Ratio (x) = 0.39665 0.22947
# Poissons Ratio (y) = 0.39671 0.22955
# Poissons Ratio (z) = 0.46615 0.46624
#
# Static dielectric constant tensor:
#      x y z
#    x 3.503250 0.000000 0.000000 
#    y 0.000000 3.503260 0.000000 
#    z 0.000000 0.000000 3.253750 
# 
# 
# High freq. dielectric constant tensor:
#      x y z
#    x 1.718550 0.000000 0.000000 
#    y 0.000000 1.718550 0.000000 
#    z 0.000000 0.000000 1.698450 
# 
# From -- ./inp_files/2204.got.cif
#   From: 2010.03.12/outbox.cif.g09.slc.cpg/sg131_2_cif.got.tgz:2204.got - 2010.04.06 17:36:35.
