data_PCOD8316078
_publ_section_title
;
Structure prediction by ZEFSAII (Michael W. Deem and Ramdas Pophale) SiO2 
 PCOD8316078
Probable space group: P 42/M M C
;
_chemical_formula_sum "Si O2"
_cell_formula_units_Z 96
_cell_length_a 14.238368
_cell_length_b 14.238368
_cell_length_c 29.777653
_cell_angle_alpha 90.000000
_cell_angle_beta 90.000000
_cell_angle_gamma 90.000000
_cell_volume 6036.857042
_symmetry_space_group_name_H-M "P 42/M M C"
_symmetry_group_IT_number 131
_symmetry_cell_setting 'tetragonal'
loop_
_space_group_symop_operation_xyz
x,y,z
-x,-y,z
-y,x,1/2+z
y,-x,1/2+z
-x,y,-z
x,-y,-z
y,x,1/2-z
-y,-x,1/2-z
-x,-y,-z
x,y,-z
y,-x,1/2-z
-y,x,1/2-z
x,-y,z
-x,y,z
-y,-x,1/2+z
y,x,1/2+z
loop_
_atom_site_type_symbol
_atom_site_label
_atom_site_fract_x
_atom_site_fract_y
_atom_site_fract_z
Si Si1 0.609834 0.282066 0.710917
Si Si2 0.393620 0.391163 0.379332
Si Si3 0.751937 0.610192 0.549486
Si Si4 0.728076 0.894896 0.292336
Si Si5 0.773117 0.895436 0.188286
Si Si6 0.890831 0.605343 0.375591
O O1 0.673254 0.326747 0.750000
O O2 0.500000 0.287423 0.723749
O O3 0.632820 0.338812 0.666131
O O4 0.639302 0.174182 0.701569
O O5 0.370908 0.500000 0.370753
O O6 0.500000 0.373833 0.393241
O O7 0.334006 0.350102 0.420809
O O8 0.754317 0.658164 0.500000
O O9 0.739142 0.500000 0.542988
O O10 0.846526 0.633889 0.576624
O O11 0.749678 0.900286 0.240167
O O12 0.819286 0.855545 0.319427
O O13 0.704640 0.000000 0.310465
O O14 0.679151 0.861039 0.162644
O O15 0.804658 0.000000 0.171728
O O16 0.857490 0.500000 0.360891
O O17 0.000000 0.606982 0.384007
#
# Coordination Sequence:
#
# PCOD8316078 Si02
#       6
#    16  16  16  16  16  16
#     4  11  21  33  49  69  94 125 158 194 233 274
#     4   9  18  31  46  65  90 120 155 192 227 268
#     4   9  17  27  41  62  89 124 160 190 225 269
#     4  10  20  33  46  66  93 121 155 193 235 277
#     4   9  17  31  48  66  89 121 160 194 230 275
#     4   9  17  28  44  66  93 123 153 188 228 274
#
# _framework density 15.902315
#
# number of rings (size 3 to 8) (size 9 to 14) (size 15 to 20)
#    0.000    2.500    1.667    1.500    0.000    2.833 
#    0.000    6.667    0.000    0.000    0.000    0.000 
#    0.000   10.667    0.000   29.333    0.000    1.667 
#
# Total GULP energy -1189751.884270 kJ/mol
# GULP energy per Si atom -12393.248794 kJ/mol
# Density = 1.586612 g / cm^3
# Si number density = 15.902315 Si / 1000 Ang^3
#
#
#
# Elastic Constant Matrix: (Units=GPa)
#
#
# Indices 1 2 3 4 5 6 
#
# 1 82.9570 39.8631 41.7204 0.0000 0.0000 0.0000
# 2 39.8631 82.9573 41.7204 0.0000 0.0000 0.0000
# 3 41.7204 41.7204 77.2365 0.0000 0.0000 0.0000
# 4 0.0000 0.0000 0.0000 13.3508 0.0000 0.0000
# 5 0.0000 0.0000 0.0000 0.0000 13.3508 0.0000
# 6 0.0000 0.0000 0.0000 0.0000 0.0000 21.8822
#
#
#
# Elastic Compliance Matrix: (Units=1/GPa)
#
#
# Indices 1 2 3 4 5 6 
#
# 1 0.018034 -0.005172 -0.006948 0.000000 0.000000 0.000000
# 2 -0.005172 0.018033 -0.006948 0.000000 0.000000 0.000000
# 3 -0.006948 -0.006948 0.020453 0.000000 0.000000 0.000000
# 4 0.000000 0.000000 0.000000 0.074902 0.000000 0.000000
# 5 0.000000 0.000000 0.000000 0.000000 0.074902 0.000000
# 6 0.000000 0.000000 0.000000 0.000000 0.000000 0.045699
#
#
# Mechanical properties :
#
#
# Convention : Reuss Voigt Hill
#
# Bulk Modulus (GPa) = 54.38756 54.41760 54.40258
# Shear Modulus (GPa) = 16.87564 17.70656 17.29110
#
# Velocity S-wave (km/s) = 3.26115 3.34047 3.30105
# Velocity P-wave (km/s) = 6.96099 7.01231 6.98670
#
# Compressibility (1/GPa) = 0.01838656
#
# Stress axis : x y z
#
# Youngs Moduli (GPa) = 55.45209 55.45243 48.89275
#
# Poissons Ratio (x) = 0.28677 0.33969
# Poissons Ratio (y) = 0.28677 0.33968
# Poissons Ratio (z) = 0.38526 0.38526
#
# Static dielectric constant tensor:
#      x y z
#    x 3.186110 0.000000 0.000000 
#    y 0.000000 3.186110 0.000000 
#    z 0.000000 0.000000 3.078480 
# 
# 
# High freq. dielectric constant tensor:
#      x y z
#    x 1.603550 0.000000 0.000000 
#    y 0.000000 1.603550 0.000000 
#    z 0.000000 0.000000 1.587840 
# 
# From -- ./inp_files/13681.got.cif
#   From: 2010.03.12/outbox.cif.g09.slc.cpg/sg131_7_cif.got.tgz:13681.got - 2010.04.06 17:36:35.
