data_PCOD8316664
_publ_section_title
;
Structure prediction by ZEFSAII (Michael W. Deem and Ramdas Pophale) SiO2 
 PCOD8316664
Probable space group: P 42/M C M
;
_chemical_formula_sum "Si O2"
_cell_formula_units_Z 128
_cell_length_a 15.944301
_cell_length_b 15.944301
_cell_length_c 26.955876
_cell_angle_alpha 90.000000
_cell_angle_beta 90.000000
_cell_angle_gamma 90.000000
_cell_volume 6852.742593
_symmetry_space_group_name_H-M "P 42/M C M"
_symmetry_group_IT_number 132
_symmetry_cell_setting 'tetragonal'
loop_
_space_group_symop_operation_xyz
x,y,z
-y,x,1/2+z
-x,-y,z
y,-x,1/2+z
x,-y,1/2-z
-x,y,1/2-z
y,x,-z
-y,-x,-z
-x,-y,-z
y,-x,1/2-z
x,y,-z
-y,x,1/2-z
-x,y,1/2+z
x,-y,1/2+z
-y,-x,z
y,x,z
loop_
_atom_site_type_symbol
_atom_site_label
_atom_site_fract_x
_atom_site_fract_y
_atom_site_fract_z
Si Si1 0.578003 0.284995 0.351608
Si Si2 0.318061 0.183463 0.219461
Si Si3 0.053116 0.191257 0.203749
Si Si4 0.077508 0.444104 0.388161
Si Si5 0.689265 0.978338 0.056336
Si Si6 0.002579 0.861598 0.898050
Si Si7 0.421974 0.177302 0.942928
Si Si8 0.800785 0.554242 0.702468
O O1 0.627494 0.372507 0.341379
O O2 0.617574 0.203259 0.324894
O O3 0.580720 0.262665 0.409860
O O4 0.485267 0.283384 0.325033
O O5 0.236821 0.236821 0.209148
O O6 0.286378 0.087029 0.214463
O O7 0.354248 0.212070 0.273171
O O8 0.128757 0.128757 0.195180
O O9 0.995684 0.186477 0.154810
O O10 0.000000 0.159611 0.250000
O O11 0.047951 0.354828 0.409325
O O12 0.129851 0.491362 0.431068
O O13 0.129071 0.431841 0.338379
O O14 0.000000 0.500000 0.372094
O O15 0.789557 0.986184 0.061374
O O16 0.656936 0.883931 0.069157
O O17 0.663652 0.997742 0.000000
O O18 0.928502 0.928502 0.902321
O O19 0.091629 0.908372 0.906572
O O20 0.421344 0.206338 0.000000
O O21 0.832214 0.500000 0.750000
#
# Coordination Sequence:
#
# PCOD8316664 Si02
#       8
#    16  16  16  16  16  16  16  16
#     4   9  17  31  49  69 101 135 161 194 244 303
#     4   9  18  32  49  70  98 131 164 204 250 296
#     4  10  20  33  49  69  94 127 167 211 259 309
#     4   9  18  32  48  69 100 132 162 206 264 321
#     4  10  20  33  51  71  92 127 174 220 269 323
#     4  10  22  38  52  68  96 134 176 225 275 319
#     4   9  17  30  49  73 101 129 164 209 259 314
#     4   9  18  32  47  72 101 132 168 199 247 304
#
# _framework density 18.678654000000002
#
# number of rings (size 3 to 8) (size 9 to 14) (size 15 to 20)
#    0.000    2.625    0.000    1.500    1.750    5.625 
#    0.000    1.875    0.000    0.375    0.000    2.625 
#    0.000    4.500    0.000    4.500    0.000    3.500 
#
# Total GULP energy -1585821.076533 kJ/mol
# GULP energy per Si atom -12389.227160 kJ/mol
# Density = 1.863614 g / cm^3
# Si number density = 18.678654 Si / 1000 Ang^3
#
#
#
# Elastic Constant Matrix: (Units=GPa)
#
#
# Indices 1 2 3 4 5 6 
#
# 1 46.6463 1.0249 11.3723 0.0000 0.0000 0.0000
# 2 1.0249 46.6463 11.3723 0.0000 0.0000 0.0000
# 3 11.3723 11.3723 94.4750 0.0000 0.0000 0.0000
# 4 0.0000 0.0000 0.0000 23.1141 0.0000 0.0000
# 5 0.0000 0.0000 0.0000 0.0000 23.1141 0.0000
# 6 0.0000 0.0000 0.0000 0.0000 0.0000 14.8563
#
#
#
# Elastic Compliance Matrix: (Units=1/GPa)
#
#
# Indices 1 2 3 4 5 6 
#
# 1 0.022087 0.000168 -0.002679 0.000000 0.000000 0.000000
# 2 0.000168 0.022087 -0.002679 0.000000 0.000000 0.000000
# 3 -0.002679 -0.002679 0.011230 0.000000 0.000000 0.000000
# 4 0.000000 0.000000 0.000000 0.043264 0.000000 0.000000
# 5 0.000000 0.000000 0.000000 0.000000 0.043264 0.000000
# 6 0.000000 0.000000 0.000000 0.000000 0.000000 0.067311
#
#
# Mechanical properties :
#
#
# Convention : Reuss Voigt Hill
#
# Bulk Modulus (GPa) = 22.21018 26.14517 24.17767
# Shear Modulus (GPa) = 21.31002 23.15010 22.23006
#
# Velocity S-wave (km/s) = 3.38135 3.52431 3.45357
# Velocity P-wave (km/s) = 5.21164 5.53071 5.37355
#
# Compressibility (1/GPa) = 0.04502440
#
# Stress axis : x y z
#
# Youngs Moduli (GPa) = 45.27472 45.27472 89.04908
#
# Poissons Ratio (x) = -0.00760 0.23856
# Poissons Ratio (y) = -0.00760 0.23856
# Poissons Ratio (z) = 0.12129 0.12129
#
# Static dielectric constant tensor:
#      x y z
#    x 3.518400 0.000000 0.000000 
#    y 0.000000 3.518400 0.000000 
#    z 0.000000 0.000000 3.512360 
# 
# 
# High freq. dielectric constant tensor:
#      x y z
#    x 1.702390 0.000000 0.000000 
#    y 0.000000 1.702390 0.000000 
#    z 0.000000 0.000000 1.732580 
# 
# From -- ./inp_files/9338.got.cif
#   From: 2010.03.12/outbox.cif.g09.slc.cpg/sg132_5_cif.got.tgz:9338.got - 2010.04.06 17:53:44.
