data_PCOD8316011
_publ_section_title
;
Structure prediction by ZEFSAII (Michael W. Deem and Ramdas Pophale) SiO2 
 PCOD8316011
Probable space group: P 42/M M C
;
_chemical_formula_sum "Si O2"
_cell_formula_units_Z 72
_cell_length_a 14.260318
_cell_length_b 14.260318
_cell_length_c 18.447501
_cell_angle_alpha 90.000000
_cell_angle_beta 90.000000
_cell_angle_gamma 90.000000
_cell_volume 3751.422363
_symmetry_space_group_name_H-M "P 42/M M C"
_symmetry_group_IT_number 131
_symmetry_cell_setting 'tetragonal'
loop_
_space_group_symop_operation_xyz
x,y,z
-x,-y,z
-y,x,1/2+z
y,-x,1/2+z
-x,y,-z
x,-y,-z
y,x,1/2-z
-y,-x,1/2-z
-x,-y,-z
x,y,-z
y,-x,1/2-z
-y,x,1/2-z
x,-y,z
-x,y,z
-y,-x,1/2+z
y,x,1/2+z
loop_
_atom_site_type_symbol
_atom_site_label
_atom_site_fract_x
_atom_site_fract_y
_atom_site_fract_z
Si Si1 0.000000 0.395250 0.818457
Si Si2 0.311705 0.732353 0.869287
Si Si3 0.213948 0.000000 0.413559
Si Si4 0.817409 0.894876 0.915281
Si Si5 0.610948 0.608887 0.000000
Si Si6 0.801496 0.397281 0.229596
O O1 0.000000 0.319020 0.882353
O O2 0.912722 0.383899 0.764267
O O3 0.000000 0.500000 0.854428
O O4 0.273155 0.830547 0.900089
O O5 0.228722 0.678018 0.829559
O O6 0.389042 0.755489 0.808842
O O7 0.353300 0.664582 0.930058
O O8 0.156357 0.089967 0.384490
O O9 0.224861 0.000000 0.500000
O O10 0.806161 0.000000 0.881161
O O11 0.829931 0.906323 0.000000
O O12 0.500000 0.610508 0.000000
O O13 0.646348 0.500000 0.000000
O O14 0.773837 0.500000 0.200362
#
# Coordination Sequence:
#
# PCOD8316011 Si02
#       6
#     8  16   8  16   8  16
#     4  10  20  36  55  81 120 159 200 247 297 359
#     4  11  21  38  62  86 117 154 195 250 295 359
#     4  10  19  35  56  85 120 157 199 248 299 347
#     4  10  20  35  57  85 119 156 196 241 295 354
#     4  11  24  42  65  92 119 148 191 252 313 365
#     4  10  22  38  57  83 117 160 199 237 297 362
#
# _framework density 19.192720000000001
#
# number of rings (size 3 to 8) (size 9 to 14) (size 15 to 20)
#    0.000    1.667    3.333    1.667    1.556    1.556 
#    0.000    0.000    0.000    6.000    0.000    0.000 
#    0.000    0.000    0.000    0.000    0.000    0.000 
#
# Total GULP energy -892407.930984 kJ/mol
# GULP energy per Si atom -12394.554597 kJ/mol
# Density = 1.914904 g / cm^3
# Si number density = 19.192720 Si / 1000 Ang^3
#
#
#
# Elastic Constant Matrix: (Units=GPa)
#
#
# Indices 1 2 3 4 5 6 
#
# 1 130.8354 57.2159 40.6443 0.0000 0.0000 0.0000
# 2 57.2159 130.8354 40.6443 0.0000 0.0000 0.0000
# 3 40.6443 40.6443 81.8899 0.0000 0.0000 0.0000
# 4 0.0000 0.0000 0.0000 21.0116 0.0000 0.0000
# 5 0.0000 0.0000 0.0000 0.0000 21.0116 0.0000
# 6 0.0000 0.0000 0.0000 0.0000 0.0000 29.9500
#
#
#
# Elastic Compliance Matrix: (Units=1/GPa)
#
#
# Indices 1 2 3 4 5 6 
#
# 1 0.010177 -0.003407 -0.003360 0.000000 0.000000 0.000000
# 2 -0.003407 0.010177 -0.003360 0.000000 0.000000 0.000000
# 3 -0.003360 -0.003360 0.015547 0.000000 0.000000 0.000000
# 4 0.000000 0.000000 0.000000 0.047593 0.000000 0.000000
# 5 0.000000 0.000000 0.000000 0.000000 0.047593 0.000000
# 6 0.000000 0.000000 0.000000 0.000000 0.000000 0.033389
#
#
# Mechanical properties :
#
#
# Convention : Reuss Voigt Hill
#
# Bulk Modulus (GPa) = 63.91191 68.95217 66.43204
# Shear Modulus (GPa) = 26.32345 28.06507 27.19426
#
# Velocity S-wave (km/s) = 3.70744 3.82812 3.76826
# Velocity P-wave (km/s) = 7.19021 7.45275 7.32266
#
# Compressibility (1/GPa) = 0.01564654
#
# Stress axis : x y z
#
# Youngs Moduli (GPa) = 98.26283 98.26283 64.32065
#
# Poissons Ratio (x) = 0.33474 0.21613
# Poissons Ratio (y) = 0.33474 0.21613
# Poissons Ratio (z) = 0.33019 0.33019
#
# Static dielectric constant tensor:
#      x y z
#    x 3.708460 0.000000 0.000000 
#    y 0.000000 3.708460 0.000000 
#    z 0.000000 0.000000 3.283030 
# 
# 
# High freq. dielectric constant tensor:
#      x y z
#    x 1.757850 0.000000 0.000000 
#    y 0.000000 1.757850 0.000000 
#    z 0.000000 0.000000 1.725920 
# 
# From -- ./inp_files/7676.got.cif
#   From: 2010.03.12/outbox.cif.g09.slc.cpg/sg131_4_cif.got.tgz:7676.got - 2010.04.06 17:36:35.
