data_PCOD8316099
_publ_section_title
;
Structure prediction by ZEFSAII (Michael W. Deem and Ramdas Pophale) SiO2 
 PCOD8316099
Probable space group: P 42/M M C
;
_chemical_formula_sum "Si O2"
_cell_formula_units_Z 112
_cell_length_a 17.998446
_cell_length_b 17.998446
_cell_length_c 18.640654
_cell_angle_alpha 90.000000
_cell_angle_beta 90.000000
_cell_angle_gamma 90.000000
_cell_volume 6038.529108
_symmetry_space_group_name_H-M "P 42/M M C"
_symmetry_group_IT_number 131
_symmetry_cell_setting 'tetragonal'
loop_
_space_group_symop_operation_xyz
x,y,z
-x,-y,z
-y,x,1/2+z
y,-x,1/2+z
-x,y,-z
x,-y,-z
y,x,1/2-z
-y,-x,1/2-z
-x,-y,-z
x,y,-z
y,-x,1/2-z
-y,x,1/2-z
x,-y,z
-x,y,z
-y,-x,1/2+z
y,x,1/2+z
loop_
_atom_site_type_symbol
_atom_site_label
_atom_site_fract_x
_atom_site_fract_y
_atom_site_fract_z
Si Si1 0.917475 0.687671 0.686329
Si Si2 0.413327 0.415035 0.168879
Si Si3 0.787883 0.786209 0.833678
Si Si4 0.858470 0.418294 0.417132
Si Si5 0.086834 0.286384 0.916744
Si Si6 0.913199 0.584821 0.185326
Si Si7 0.291505 0.334805 0.583304
O O1 0.870363 0.758073 0.657127
O O2 0.920985 0.631176 0.620103
O O3 0.880847 0.640232 0.752547
O O4 0.000000 0.716012 0.705881
O O5 0.392103 0.392103 0.250000
O O6 0.391502 0.500000 0.155152
O O7 0.500000 0.402511 0.155542
O O8 0.367928 0.367578 0.112238
O O9 0.774949 0.774949 0.750000
O O10 0.870959 0.774464 0.865621
O O11 0.741978 0.724690 0.876954
O O12 0.876848 0.417364 0.500000
O O13 0.864512 0.500000 0.384233
O O14 0.775349 0.390973 0.400769
O O15 0.101979 0.371254 0.889351
O O16 0.000000 0.267113 0.908771
O O17 0.112041 0.280541 0.000000
O O18 0.878813 0.500000 0.184045
O O19 0.000000 0.576393 0.200384
O O20 0.301014 0.317765 0.500000
#
# Coordination Sequence:
#
# PCOD8316099 Si02
#       7
#    16  16  16  16  16  16  16
#     4  10  20  34  54  82 113 142 182 232 276 327
#     4   9  18  33  52  73  99 134 179 232 285 333
#     4  11  21  36  59  81 107 146 187 224 276 339
#     4   9  18  31  47  71 105 145 181 214 262 321
#     4  10  21  38  60  86 116 152 193 237 288 342
#     4   9  17  31  53  82 114 147 182 223 275 332
#     4  10  20  33  50  74 105 138 178 224 272 328
#
# _framework density 18.547563
#
# number of rings (size 3 to 8) (size 9 to 14) (size 15 to 20)
#    0.000    2.286    1.429    2.143    0.000    3.143 
#    0.000    3.571    0.000    2.143    0.000    2.000 
#    0.000    0.000    0.000    0.000    0.000    0.000 
#
# Total GULP energy -1387876.636507 kJ/mol
# GULP energy per Si atom -12391.755683 kJ/mol
# Density = 1.850535 g / cm^3
# Si number density = 18.547563 Si / 1000 Ang^3
#
#
#
# Elastic Constant Matrix: (Units=GPa)
#
#
# Indices 1 2 3 4 5 6 
#
# 1 73.1682 42.2266 47.5818 0.0000 0.0000 0.0000
# 2 42.2266 73.1682 47.5818 0.0000 0.0000 0.0000
# 3 47.5818 47.5818 103.5278 0.0000 0.0000 0.0000
# 4 0.0000 0.0000 0.0000 21.1675 0.0000 0.0000
# 5 0.0000 0.0000 0.0000 0.0000 21.1675 0.0000
# 6 0.0000 0.0000 0.0000 0.0000 0.0000 20.9443
#
#
#
# Elastic Compliance Matrix: (Units=1/GPa)
#
#
# Indices 1 2 3 4 5 6 
#
# 1 0.023137 -0.009182 -0.006414 0.000000 0.000000 0.000000
# 2 -0.009182 0.023137 -0.006414 0.000000 0.000000 0.000000
# 3 -0.006414 -0.006414 0.015555 0.000000 0.000000 0.000000
# 4 0.000000 0.000000 0.000000 0.047242 0.000000 0.000000
# 5 0.000000 0.000000 0.000000 0.000000 0.047242 0.000000
# 6 0.000000 0.000000 0.000000 0.000000 0.000000 0.047746
#
#
# Mechanical properties :
#
#
# Convention : Reuss Voigt Hill
#
# Bulk Modulus (GPa) = 56.14843 58.29382 57.22112
# Shear Modulus (GPa) = 19.68386 20.15414 19.91900
#
# Velocity S-wave (km/s) = 3.26124 3.29997 3.28066
# Velocity P-wave (km/s) = 6.67228 6.78361 6.72817
#
# Compressibility (1/GPa) = 0.01780994
#
# Stress axis : x y z
#
# Youngs Moduli (GPa) = 43.22057 43.22057 64.28807
#
# Poissons Ratio (x) = 0.39684 0.41234
# Poissons Ratio (y) = 0.39684 0.41234
# Poissons Ratio (z) = 0.27721 0.27721
#
# Static dielectric constant tensor:
#      x y z
#    x 3.495390 0.000000 0.000000 
#    y 0.000000 3.495390 0.000000 
#    z 0.000000 0.000000 3.519610 
# 
# 
# High freq. dielectric constant tensor:
#      x y z
#    x 1.703010 0.000000 0.000000 
#    y 0.000000 1.703010 0.000000 
#    z 0.000000 0.000000 1.729920 
# 
# From -- ./inp_files/10039.got.cif
#   From: 2010.03.12/outbox.cif.g09.slc.cpg/sg131_6_cif.got.tgz:10039.got - 2010.04.06 17:36:35.
