data_PCOD8316158
_publ_section_title
;
Structure prediction by ZEFSAII (Michael W. Deem and Ramdas Pophale) SiO2 
 PCOD8316158
Probable space group: P 42/M M C
;
_chemical_formula_sum "Si O2"
_cell_formula_units_Z 120
_cell_length_a 20.692020
_cell_length_b 20.692020
_cell_length_c 15.970374
_cell_angle_alpha 90.000000
_cell_angle_beta 90.000000
_cell_angle_gamma 90.000000
_cell_volume 6837.870408
_symmetry_space_group_name_H-M "P 42/M M C"
_symmetry_group_IT_number 131
_symmetry_cell_setting 'tetragonal'
loop_
_space_group_symop_operation_xyz
x,y,z
-x,-y,z
-y,x,1/2+z
y,-x,1/2+z
-x,y,-z
x,-y,-z
y,x,1/2-z
-y,-x,1/2-z
-x,-y,-z
x,y,-z
y,-x,1/2-z
-y,x,1/2-z
x,-y,z
-x,y,z
-y,-x,1/2+z
y,x,1/2+z
loop_
_atom_site_type_symbol
_atom_site_label
_atom_site_fract_x
_atom_site_fract_y
_atom_site_fract_z
Si Si1 0.659068 0.764396 0.739506
Si Si2 0.171855 0.927398 0.593324
Si Si3 0.851855 0.424138 0.662992
Si Si4 0.575347 0.929670 0.327433
Si Si5 0.925542 0.812398 0.593514
Si Si6 0.765893 0.870538 0.255400
Si Si7 0.575464 0.801003 0.406335
Si Si8 0.423123 0.926765 0.000000
O O1 0.697024 0.697024 0.750000
O O2 0.613555 0.783921 0.818998
O O3 0.706555 0.824139 0.726300
O O4 0.615406 0.755802 0.656682
O O5 0.201961 0.917148 0.500000
O O6 0.112247 0.879196 0.606392
O O7 0.227626 0.917071 0.663674
O O8 0.144928 0.000000 0.602971
O O9 0.835866 0.500000 0.658367
O O10 0.901917 0.406812 0.736506
O O11 0.886196 0.398562 0.579476
O O12 0.500000 0.941427 0.333220
O O13 0.596092 0.876460 0.396216
O O14 0.609549 0.000000 0.341210
O O15 0.911533 0.783419 0.500000
O O16 0.906691 0.759635 0.665245
O O17 0.000000 0.830151 0.603824
O O18 0.831393 0.831393 0.250000
O O19 0.591000 0.778266 0.500000
O O20 0.500000 0.793208 0.384156
O O21 0.500000 0.931918 0.000000
O O22 0.394434 0.000000 0.000000
#
# Coordination Sequence:
#
# PCOD8316158 Si02
#       8
#    16  16  16  16  16  16  16   8
#     4  10  20  35  51  71  95 131 174 204 236 286
#     4   9  17  29  46  66  86 111 146 194 255 313
#     4   9  17  31  50  72 100 131 163 203 252 297
#     4   8  13  23  42  66  93 127 162 195 238 292
#     4   9  17  30  47  64  84 113 150 197 253 306
#     4   9  18  32  46  60  85 120 156 192 232 283
#     4   9  18  33  53  77 105 133 162 203 254 296
#     4   9  16  28  48  72 100 134 167 201 252 313
#
# _framework density 17.549323000000001
#
# number of rings (size 3 to 8) (size 9 to 14) (size 15 to 20)
#    0.000    3.000    0.000    2.000    0.000    2.667 
#    2.400   10.667    0.000    2.400    0.000    0.000 
#    0.000    4.267    0.000    5.867    0.000    0.000 
#
# Total GULP energy -1486708.947914 kJ/mol
# GULP energy per Si atom -12389.241233 kJ/mol
# Density = 1.750938 g / cm^3
# Si number density = 17.549323 Si / 1000 Ang^3
#
#
#
# Elastic Constant Matrix: (Units=GPa)
#
#
# Indices 1 2 3 4 5 6 
#
# 1 60.8241 28.8571 43.5353 0.0000 0.0000 0.0000
# 2 28.8571 60.8241 43.5353 0.0000 0.0000 0.0000
# 3 43.5353 43.5353 134.0490 0.0000 0.0000 0.0000
# 4 0.0000 0.0000 0.0000 15.7264 0.0000 0.0000
# 5 0.0000 0.0000 0.0000 0.0000 15.7264 0.0000
# 6 0.0000 0.0000 0.0000 0.0000 0.0000 23.8621
#
#
#
# Elastic Compliance Matrix: (Units=1/GPa)
#
#
# Indices 1 2 3 4 5 6 
#
# 1 0.023784 -0.007498 -0.005289 0.000000 0.000000 0.000000
# 2 -0.007498 0.023784 -0.005289 0.000000 0.000000 0.000000
# 3 -0.005289 -0.005289 0.010896 0.000000 0.000000 0.000000
# 4 0.000000 0.000000 0.000000 0.063587 0.000000 0.000000
# 5 0.000000 0.000000 0.000000 0.000000 0.063587 0.000000
# 6 0.000000 0.000000 0.000000 0.000000 0.000000 0.041907
#
#
# Mechanical properties :
#
#
# Convention : Reuss Voigt Hill
#
# Bulk Modulus (GPa) = 44.82207 54.17254 49.49730
# Shear Modulus (GPa) = 18.44095 20.38094 19.41095
#
# Velocity S-wave (km/s) = 3.24513 3.41156 3.32939
# Velocity P-wave (km/s) = 6.29581 6.81572 6.56092
#
# Compressibility (1/GPa) = 0.02231044
#
# Stress axis : x y z
#
# Youngs Moduli (GPa) = 42.04502 42.04502 91.78095
#
# Poissons Ratio (x) = 0.31526 0.48545
# Poissons Ratio (y) = 0.31526 0.48545
# Poissons Ratio (z) = 0.22238 0.22238
#
# Static dielectric constant tensor:
#      x y z
#    x 3.096990 0.000000 0.000000 
#    y 0.000000 3.096990 0.000000 
#    z 0.000000 0.000000 3.640510 
# 
# 
# High freq. dielectric constant tensor:
#      x y z
#    x 1.650030 0.000000 0.000000 
#    y 0.000000 1.650030 0.000000 
#    z 0.000000 0.000000 1.689530 
# 
# From -- ./inp_files/6342.got.cif
#   From: 2010.03.12/outbox.cif.g09.slc.cpg/sg131_4_cif.got.tgz:6342.got - 2010.04.06 17:36:35.
