data_PCOD8316947
_publ_section_title
;
Structure prediction by ZEFSAII (Michael W. Deem and Ramdas Pophale) SiO2 
 PCOD8316947
Probable space group: P 42/N B C
;
_chemical_formula_sum "Si O2"
_cell_formula_units_Z 100
_cell_length_a 14.129540
_cell_length_b 14.129540
_cell_length_c 26.334074
_cell_angle_alpha 90.000000
_cell_angle_beta 90.000000
_cell_angle_gamma 90.000000
_cell_volume 5257.437252
_symmetry_space_group_name_H-M "P 42/N B C"
_symmetry_group_IT_number 133
_space_group.IT_coordinate_system_code '2'
_symmetry_cell_setting 'tetragonal'
loop_
_space_group_symop_operation_xyz
x,y,z
1/2-y,x,1/2+z
1/2-x,1/2-y,z
y,1/2-x,1/2+z
x,1/2-y,-z
1/2-x,y,-z
y,x,1/2-z
1/2-y,1/2-x,1/2-z
-x,-y,-z
1/2+y,-x,1/2-z
1/2+x,1/2+y,-z
-y,1/2+x,1/2-z
-x,1/2+y,z
1/2+x,-y,z
-y,-x,1/2+z
1/2+y,1/2+x,1/2+z
loop_
_atom_site_type_symbol
_atom_site_label
_atom_site_fract_x
_atom_site_fract_y
_atom_site_fract_z
Si Si1 0.501873 0.893976 0.395856
Si Si2 0.434216 0.665442 0.281930
Si Si3 0.642366 0.249351 0.440099
Si Si4 0.994429 0.635993 0.277261
Si Si5 0.859562 0.755017 0.559896
Si Si6 0.250000 0.750000 0.250000
Si Si7 0.887236 0.496066 0.892788
O O1 0.409606 0.840221 0.416480
O O2 0.513372 0.872889 0.336975
O O3 0.596645 0.855082 0.422705
O O4 0.490280 0.004083 0.407816
O O5 0.496646 0.753563 0.261761
O O6 0.429526 0.582443 0.240465
O O7 0.327504 0.706142 0.288690
O O8 0.478753 0.623294 0.332876
O O9 0.750000 0.250000 0.421759
O O10 0.632862 0.250000 0.500000
O O11 0.595957 0.152156 0.421179
O O12 0.899391 0.600610 0.250000
O O13 0.750000 0.750000 0.574740
O O14 0.875892 0.750000 0.500000
O O15 0.911408 0.669480 0.589099
#
# Coordination Sequence:
#
# PCOD8316947 Si02
#       7
#    16  16  16  16  16   4  16
#     4  11  22  40  64  90 126 163 203 263 309 367
#     4  10  20  36  59  85 121 157 200 247 300 364
#     4  10  23  40  62  93 125 156 203 262 316 371
#     4  11  21  39  59  89 122 159 207 252 302 361
#     4  10  23  44  65  88 124 168 212 256 314 380
#     4   8  20  32  56  88 110 160 196 240 296 352
#     4  11  21  37  63  90 123 161 204 251 314 364
#
# _framework density 19.020675000000001
#
# number of rings (size 3 to 8) (size 9 to 14) (size 15 to 20)
#    0.000    1.600    4.800    1.920    1.120    5.120 
#    2.880    3.200    0.000    0.000    0.000    0.000 
#    0.000    0.000    0.000    0.000    0.000    0.000 
#
# Total GULP energy -1239887.970150 kJ/mol
# GULP energy per Si atom -12398.879702 kJ/mol
# Density = 1.897738 g / cm^3
# Si number density = 19.020675 Si / 1000 Ang^3
#
#
#
# Elastic Constant Matrix: (Units=GPa)
#
#
# Indices 1 2 3 4 5 6 
#
# 1 139.5615 53.2543 45.5671 0.0000 0.0000 0.0000
# 2 53.2543 139.5603 45.5672 0.0000 0.0000 0.0000
# 3 45.5671 45.5672 107.9281 0.0000 0.0000 0.0000
# 4 0.0000 0.0000 0.0000 10.1103 0.0000 0.0000
# 5 0.0000 0.0000 0.0000 0.0000 10.1024 0.0000
# 6 0.0000 0.0000 0.0000 0.0000 0.0000 14.8950
#
#
#
# Elastic Compliance Matrix: (Units=1/GPa)
#
#
# Indices 1 2 3 4 5 6 
#
# 1 0.009033 -0.002554 -0.002736 0.000000 0.000000 0.000000
# 2 -0.002554 0.009033 -0.002736 0.000000 0.000000 0.000000
# 3 -0.002736 -0.002736 0.011575 0.000000 0.000000 0.000000
# 4 0.000000 0.000000 0.000000 0.098909 0.000000 0.000000
# 5 0.000000 0.000000 0.000000 0.000000 0.098987 0.000000
# 6 0.000000 0.000000 0.000000 0.000000 0.000000 0.067137
#
#
# Mechanical properties :
#
#
# Convention : Reuss Voigt Hill
#
# Bulk Modulus (GPa) = 73.57438 75.09189 74.33313
# Shear Modulus (GPa) = 15.86023 23.19894 19.52959
#
# Velocity S-wave (km/s) = 2.89076 3.49617 3.20778
# Velocity P-wave (km/s) = 7.06451 7.47411 7.27219
#
# Compressibility (1/GPa) = 0.01359169
#
# Stress axis : x y z
#
# Youngs Moduli (GPa) = 110.70655 110.70547 86.39073
#
# Poissons Ratio (x) = 0.28270 0.23632
# Poissons Ratio (y) = 0.28271 0.23633
# Poissons Ratio (z) = 0.30284 0.30284
#
# Static dielectric constant tensor:
#      x y z
#    x 3.573850 0.000000 0.000000 
#    y 0.000000 3.573850 0.000000 
#    z 0.000000 0.000000 3.493800 
# 
# 
# High freq. dielectric constant tensor:
#      x y z
#    x 1.740630 0.000000 0.000000 
#    y 0.000000 1.740630 0.000000 
#    z 0.000000 0.000000 1.745640 
# 
# From -- ./inp_files/7595.got.cif
#   From: 2010.03.12/outbox.cif.g09.slc.cpg/sg133_4_cif.got.tgz:7595.got - 2010.04.06 18:08:06.
