data_PCOD8316904
_publ_section_title
;
Structure prediction by ZEFSAII (Michael W. Deem and Ramdas Pophale) SiO2 
 PCOD8316904
Probable space group: P 42/N B C
;
_chemical_formula_sum "Si O2"
_cell_formula_units_Z 116
_cell_length_a 18.220857
_cell_length_b 18.220857
_cell_length_c 16.883025
_cell_angle_alpha 90.000000
_cell_angle_beta 90.000000
_cell_angle_gamma 90.000000
_cell_volume 5605.158050
_symmetry_space_group_name_H-M "P 42/N B C"
_symmetry_group_IT_number 133
_space_group.IT_coordinate_system_code '2'
_symmetry_cell_setting 'tetragonal'
loop_
_space_group_symop_operation_xyz
x,y,z
1/2-y,x,1/2+z
1/2-x,1/2-y,z
y,1/2-x,1/2+z
x,1/2-y,-z
1/2-x,y,-z
y,x,1/2-z
1/2-y,1/2-x,1/2-z
-x,-y,-z
1/2+y,-x,1/2-z
1/2+x,1/2+y,-z
-y,1/2+x,1/2-z
-x,1/2+y,z
1/2+x,-y,z
-y,-x,1/2+z
1/2+y,1/2+x,1/2+z
loop_
_atom_site_type_symbol
_atom_site_label
_atom_site_fract_x
_atom_site_fract_y
_atom_site_fract_z
Si Si1 0.393571 0.778104 0.670289
Si Si2 0.146554 0.042729 0.426504
Si Si3 0.527050 0.624400 0.098867
Si Si4 0.073133 0.866987 0.588999
Si Si5 0.638595 0.932507 0.182618
Si Si6 0.745609 0.981428 0.710239
Si Si7 0.250000 0.750000 0.250000
Si Si8 0.589062 0.035252 0.920346
O O1 0.389437 0.712550 0.604332
O O2 0.439948 0.758022 0.748125
O O3 0.310148 0.791844 0.696669
O O4 0.427185 0.854300 0.639359
O O5 0.167509 0.053694 0.518868
O O6 0.123268 0.122715 0.389966
O O7 0.208698 0.007718 0.371454
O O8 0.076789 0.988129 0.426557
O O9 0.437739 0.625410 0.096672
O O10 0.549862 0.668028 0.178662
O O11 0.567835 0.546716 0.105543
O O12 0.033522 0.868510 0.504030
O O13 0.015050 0.873767 0.658400
O O14 0.577616 0.922385 0.250000
O O15 0.718539 0.923925 0.225834
#
# Coordination Sequence:
#
# PCOD8316904 Si02
#       8
#    16  16  16  16  16  16   4  16
#     4  11  24  39  58  84 130 168 213 252 308 376
#     4  10  18  37  59  85 118 164 204 254 315 379
#     4  11  20  35  60  91 125 151 205 270 310 366
#     4  10  19  38  57  85 120 162 204 249 311 370
#     4   9  17  32  55  81 113 154 199 236 305 377
#     4  10  22  34  53  90 122 155 200 256 316 379
#     4  12  24  44  54  80 132 184 208 250 300 376
#     4  11  21  36  61  90 120 161 213 264 310 365
#
# _framework density 20.695224
#
# number of rings (size 3 to 8) (size 9 to 14) (size 15 to 20)
#    0.000    1.655    2.759    3.310    0.000    2.759 
#    0.000    2.759    0.000    0.000    0.000   47.310 
#    0.000    0.000    0.000    0.000    0.000    0.000 
#
# Total GULP energy -1437076.109196 kJ/mol
# GULP energy per Si atom -12388.587148 kJ/mol
# Density = 2.064812 g / cm^3
# Si number density = 20.695224 Si / 1000 Ang^3
#
#
#
# Elastic Constant Matrix: (Units=GPa)
#
#
# Indices 1 2 3 4 5 6 
#
# 1 81.7187 28.7273 45.2257 0.0000 0.0000 0.0000
# 2 28.7273 81.7184 45.2260 0.0000 0.0000 0.0000
# 3 45.2257 45.2260 107.6172 0.0000 0.0000 0.0000
# 4 0.0000 0.0000 0.0000 34.6136 0.0000 0.0000
# 5 0.0000 0.0000 0.0000 0.0000 34.6134 0.0000
# 6 0.0000 0.0000 0.0000 0.0000 0.0000 16.8420
#
#
#
# Elastic Compliance Matrix: (Units=1/GPa)
#
#
# Indices 1 2 3 4 5 6 
#
# 1 0.016338 -0.002533 -0.005802 0.000000 0.000000 0.000000
# 2 -0.002533 0.016338 -0.005802 0.000000 0.000000 0.000000
# 3 -0.005802 -0.005802 0.014169 0.000000 0.000000 0.000000
# 4 0.000000 0.000000 0.000000 0.028890 0.000000 0.000000
# 5 0.000000 0.000000 0.000000 0.000000 0.028891 0.000000
# 6 0.000000 0.000000 0.000000 0.000000 0.000000 0.059375
#
#
# Mechanical properties :
#
#
# Convention : Reuss Voigt Hill
#
# Bulk Modulus (GPa) = 53.84229 56.60137 55.22183
# Shear Modulus (GPa) = 25.19333 27.33883 26.26608
#
# Velocity S-wave (km/s) = 3.49284 3.63853 3.56643
# Velocity P-wave (km/s) = 6.50691 6.71276 6.61064
#
# Compressibility (1/GPa) = 0.01857276
#
# Stress axis : x y z
#
# Youngs Moduli (GPa) = 61.20588 61.20532 70.57862
#
# Poissons Ratio (x) = 0.15501 0.40948
# Poissons Ratio (y) = 0.15501 0.40949
# Poissons Ratio (z) = 0.35510 0.35511
#
# Static dielectric constant tensor:
#      x y z
#    x 3.652210 0.000000 0.000000 
#    y 0.000000 3.652210 0.000000 
#    z 0.000000 0.000000 4.146760 
# 
# 
# High freq. dielectric constant tensor:
#      x y z
#    x 1.787820 0.000000 0.000000 
#    y 0.000000 1.787820 0.000000 
#    z 0.000000 0.000000 1.826400 
# 
# From -- ./inp_files/5641.got.cif
#   From: 2010.03.12/outbox.cif.g09.slc.cpg/sg133_3_cif.got.tgz:5641.got - 2010.04.06 18:08:06.
