data_PCOD8316210
_publ_section_title
;
Structure prediction by ZEFSAII (Michael W. Deem and Ramdas Pophale) SiO2 
 PCOD8316210
Probable space group: P 42/M M C
;
_chemical_formula_sum "Si O2"
_cell_formula_units_Z 72
_cell_length_a 14.222766
_cell_length_b 14.222766
_cell_length_c 18.768470
_cell_angle_alpha 90.000000
_cell_angle_beta 90.000000
_cell_angle_gamma 90.000000
_cell_volume 3796.618855
_symmetry_space_group_name_H-M "P 42/M M C"
_symmetry_group_IT_number 131
_symmetry_cell_setting 'tetragonal'
loop_
_space_group_symop_operation_xyz
x,y,z
-x,-y,z
-y,x,1/2+z
y,-x,1/2+z
-x,y,-z
x,-y,-z
y,x,1/2-z
-y,-x,1/2-z
-x,-y,-z
x,y,-z
y,-x,1/2-z
-y,x,1/2-z
x,-y,z
-x,y,z
-y,-x,1/2+z
y,x,1/2+z
loop_
_atom_site_type_symbol
_atom_site_label
_atom_site_fract_x
_atom_site_fract_y
_atom_site_fract_z
Si Si1 0.837994 0.893540 0.823894
Si Si2 0.890162 0.500000 0.415667
Si Si3 0.604503 0.753579 0.664772
Si Si4 0.893123 0.273544 0.920285
Si Si5 0.788863 0.353750 0.679329
O O1 0.895469 0.895469 0.750000
O O2 0.886170 0.827888 0.882658
O O3 0.736668 0.851752 0.805780
O O4 0.831867 0.000000 0.853705
O O5 0.877462 0.500000 0.500000
O O6 0.838197 0.590417 0.384094
O O7 0.000000 0.500000 0.394277
O O8 0.500000 0.722620 0.637872
O O9 0.642029 0.840187 0.618833
O O10 0.591033 0.785940 0.746558
O O11 0.681143 0.670155 0.656855
O O12 0.000000 0.305926 0.921836
O O13 0.852329 0.262084 0.000000
#
# Coordination Sequence:
#
# PCOD8316210 Si02
#       5
#    16   8  16  16  16
#     4  11  21  35  57  85 117 157 205 252 305 371
#     4  11  24  40  63  95 128 164 204 251 311 377
#     4  10  20  38  63  86 113 154 199 243 304 362
#     4  10  22  38  54  80 118 155 197 251 303 359
#     4  10  20  39  60  88 122 152 196 251 305 363
#
# _framework density 18.964241999999999
#
# number of rings (size 3 to 8) (size 9 to 14) (size 15 to 20)
#    0.000    1.667    5.556    1.333    0.000    7.333 
#    0.000    2.778    0.000    0.667    0.000    0.000 
#    0.000    0.000    0.000    0.000    0.000    0.000 
#
# Total GULP energy -892571.055298 kJ/mol
# GULP energy per Si atom -12396.820212 kJ/mol
# Density = 1.892108 g / cm^3
# Si number density = 18.964242 Si / 1000 Ang^3
#
#
#
# Elastic Constant Matrix: (Units=GPa)
#
#
# Indices 1 2 3 4 5 6 
#
# 1 133.5133 39.7692 50.2055 0.0000 0.0000 0.0000
# 2 39.7692 133.5133 50.2055 0.0000 0.0000 0.0000
# 3 50.2055 50.2055 113.8543 0.0000 0.0000 0.0000
# 4 0.0000 0.0000 0.0000 19.7545 0.0000 0.0000
# 5 0.0000 0.0000 0.0000 0.0000 19.7545 0.0000
# 6 0.0000 0.0000 0.0000 0.0000 0.0000 16.3909
#
#
#
# Elastic Compliance Matrix: (Units=1/GPa)
#
#
# Indices 1 2 3 4 5 6 
#
# 1 0.009209 -0.001458 -0.003418 0.000000 0.000000 0.000000
# 2 -0.001458 0.009209 -0.003418 0.000000 0.000000 0.000000
# 3 -0.003418 -0.003418 0.011798 0.000000 0.000000 0.000000
# 4 0.000000 0.000000 0.000000 0.050621 0.000000 0.000000
# 5 0.000000 0.000000 0.000000 0.000000 0.050621 0.000000
# 6 0.000000 0.000000 0.000000 0.000000 0.000000 0.061010
#
#
# Mechanical properties :
#
#
# Convention : Reuss Voigt Hill
#
# Bulk Modulus (GPa) = 73.37683 73.47125 73.42404
# Shear Modulus (GPa) = 23.40823 27.22669 25.31746
#
# Velocity S-wave (km/s) = 3.51712 3.79316 3.65774
# Velocity P-wave (km/s) = 7.43436 7.61644 7.52595
#
# Compressibility (1/GPa) = 0.01362828
#
# Stress axis : x y z
#
# Youngs Moduli (GPa) = 108.58362 108.58362 84.76203
#
# Poissons Ratio (x) = 0.15830 0.28973
# Poissons Ratio (y) = 0.15830 0.28973
# Poissons Ratio (z) = 0.37116 0.37116
#
# Static dielectric constant tensor:
#      x y z
#    x 3.474680 0.000000 0.000000 
#    y 0.000000 3.474680 0.000000 
#    z 0.000000 0.000000 3.510590 
# 
# 
# High freq. dielectric constant tensor:
#      x y z
#    x 1.733820 0.000000 0.000000 
#    y 0.000000 1.733820 0.000000 
#    z 0.000000 0.000000 1.734970 
# 
# From -- ./inp_files/7508.got.cif
#   From: 2010.03.12/outbox.cif.g09.slc.cpg/sg131_4_cif.got.tgz:7508.got - 2010.04.06 17:36:35.
