data_PCOD8316177
_publ_section_title
;
Structure prediction by ZEFSAII (Michael W. Deem and Ramdas Pophale) SiO2 
 PCOD8316177
Probable space group: P 42/M M C
;
_chemical_formula_sum "Si O2"
_cell_formula_units_Z 68
_cell_length_a 11.651967
_cell_length_b 11.651967
_cell_length_c 27.109925
_cell_angle_alpha 90.000000
_cell_angle_beta 90.000000
_cell_angle_gamma 90.000000
_cell_volume 3680.669378
_symmetry_space_group_name_H-M "P 42/M M C"
_symmetry_group_IT_number 131
_symmetry_cell_setting 'tetragonal'
loop_
_space_group_symop_operation_xyz
x,y,z
-x,-y,z
-y,x,1/2+z
y,-x,1/2+z
-x,y,-z
x,-y,-z
y,x,1/2-z
-y,-x,1/2-z
-x,-y,-z
x,y,-z
y,-x,1/2-z
-y,x,1/2-z
x,-y,z
-x,y,z
-y,-x,1/2+z
y,x,1/2+z
loop_
_atom_site_type_symbol
_atom_site_label
_atom_site_fract_x
_atom_site_fract_y
_atom_site_fract_z
Si Si1 0.871520 0.135303 0.594516
Si Si2 0.500000 0.635342 0.608856
Si Si3 0.702004 0.243840 0.669026
Si Si4 0.500000 0.730235 0.500000
Si Si5 0.735850 0.136488 0.500000
Si Si6 0.875824 0.370842 0.737061
O O1 0.794788 0.169192 0.640420
O O2 0.807952 0.182568 0.546221
O O3 0.000000 0.188640 0.598203
O O4 0.881768 0.000000 0.591705
O O5 0.500000 0.500000 0.619943
O O6 0.386435 0.690871 0.633118
O O7 0.500000 0.653664 0.549716
O O8 0.774723 0.330303 0.701955
O O9 0.635139 0.159105 0.705477
O O10 0.390056 0.811238 0.500000
O O11 0.721412 0.000000 0.500000
O O12 0.895665 0.500000 0.722173
O O13 0.000000 0.306779 0.729756
#
# Coordination Sequence:
#
# PCOD8316177 Si02
#       6
#    16   8  16   4   8  16
#     4  10  20  35  57  86 118 152 190 236 296 367
#     4  12  25  41  61  86 117 161 210 260 309 355
#     4  11  21  38  58  85 115 157 197 246 297 360
#     4  12  22  42  60  88 118 158 202 260 304 364
#     4  10  20  35  58  88 119 150 190 239 302 368
#     4  10  21  37  57  84 116 152 194 243 295 352
#
# _framework density 18.474902
#
# number of rings (size 3 to 8) (size 9 to 14) (size 15 to 20)
#    0.000    1.412    3.529    2.824    0.000    1.412 
#    0.000    0.000    0.000    5.647    0.000    1.647 
#    0.000    0.000    0.000    0.000    0.000    0.000 
#
# Total GULP energy -842817.366678 kJ/mol
# GULP energy per Si atom -12394.373039 kJ/mol
# Density = 1.843285 g / cm^3
# Si number density = 18.474902 Si / 1000 Ang^3
#
#
#
# Elastic Constant Matrix: (Units=GPa)
#
#
# Indices 1 2 3 4 5 6 
#
# 1 90.0525 21.1415 27.9804 0.0000 0.0000 0.0000
# 2 21.1415 90.0525 27.9804 0.0000 0.0000 0.0000
# 3 27.9804 27.9804 110.8629 0.0000 0.0000 0.0000
# 4 0.0000 0.0000 0.0000 156.6494 0.0000 0.0000
# 5 0.0000 0.0000 0.0000 0.0000 156.6494 0.0000
# 6 0.0000 0.0000 0.0000 0.0000 0.0000 21.3212
#
#
#
# Elastic Compliance Matrix: (Units=1/GPa)
#
#
# Indices 1 2 3 4 5 6 
#
# 1 0.012407 -0.002105 -0.002600 0.000000 0.000000 0.000000
# 2 -0.002105 0.012407 -0.002600 0.000000 0.000000 0.000000
# 3 -0.002600 -0.002600 0.010333 0.000000 0.000000 0.000000
# 4 0.000000 0.000000 0.000000 0.006384 0.000000 0.000000
# 5 0.000000 0.000000 0.000000 0.000000 0.006384 0.000000
# 6 0.000000 0.000000 0.000000 0.000000 0.000000 0.046902
#
#
# Mechanical properties :
#
#
# Convention : Reuss Voigt Hill
#
# Bulk Modulus (GPa) = 48.69491 49.46363 49.07927
# Shear Modulus (GPa) = 43.00333 81.18172 62.09252
#
# Velocity S-wave (km/s) = 4.82982 6.63604 5.80363
# Velocity P-wave (km/s) = 7.58402 9.24919 8.45769
#
# Compressibility (1/GPa) = 0.02053603
#
# Stress axis : x y z
#
# Youngs Moduli (GPa) = 80.60201 80.60201 96.78117
#
# Poissons Ratio (x) = 0.16965 0.25164
# Poissons Ratio (y) = 0.16965 0.25164
# Poissons Ratio (z) = 0.20957 0.20957
#
# Static dielectric constant tensor:
#      x y z
#    x 3.621800 0.000000 0.000000 
#    y 0.000000 3.621800 0.000000 
#    z 0.000000 0.000000 3.646830 
# 
# 
# High freq. dielectric constant tensor:
#      x y z
#    x 1.717230 0.000000 0.000000 
#    y 0.000000 1.717230 0.000000 
#    z 0.000000 0.000000 1.728690 
# 
# From -- ./inp_files/12143.got.cif
#   From: 2010.03.12/outbox.cif.g09.slc.cpg/sg131_7_cif.got.tgz:12143.got - 2010.04.06 17:36:35.
