data_PCOD8316412
_publ_section_title
;
Structure prediction by ZEFSAII (Michael W. Deem and Ramdas Pophale) SiO2 
 PCOD8316412
Probable space group: P 42/M C M
;
_chemical_formula_sum "Si O2"
_cell_formula_units_Z 120
_cell_length_a 23.881067
_cell_length_b 23.881067
_cell_length_c 14.120030
_cell_angle_alpha 90.000000
_cell_angle_beta 90.000000
_cell_angle_gamma 90.000000
_cell_volume 8052.728807
_symmetry_space_group_name_H-M "P 42/M C M"
_symmetry_group_IT_number 132
_symmetry_cell_setting 'tetragonal'
loop_
_space_group_symop_operation_xyz
x,y,z
-y,x,1/2+z
-x,-y,z
y,-x,1/2+z
x,-y,1/2-z
-x,y,1/2-z
y,x,-z
-y,-x,-z
-x,-y,-z
y,-x,1/2-z
x,y,-z
-y,x,1/2-z
-x,y,1/2+z
x,-y,1/2+z
-y,-x,z
y,x,z
loop_
_atom_site_type_symbol
_atom_site_label
_atom_site_fract_x
_atom_site_fract_y
_atom_site_fract_z
Si Si1 0.575322 0.669102 0.893994
Si Si2 0.955687 0.044314 0.112874
Si Si3 0.897781 0.808514 0.895501
Si Si4 0.545016 0.367618 0.111727
Si Si5 0.130453 0.221600 0.698809
Si Si6 0.973797 0.831333 0.391077
Si Si7 0.790350 0.695788 0.607662
Si Si8 0.285965 0.378163 0.716911
O O1 0.622379 0.622379 0.894631
O O2 0.519333 0.638093 0.855282
O O3 0.592496 0.718878 0.821007
O O4 0.567136 0.694272 0.000000
O O5 0.970366 0.106098 0.150255
O O6 0.958298 0.041703 0.000000
O O7 0.000000 0.000000 0.155893
O O8 0.871137 0.871137 0.891305
O O9 0.869655 0.770792 0.813331
O O10 0.963444 0.810754 0.875989
O O11 0.885990 0.782282 0.000000
O O12 0.575970 0.424031 0.151918
O O13 0.578122 0.312762 0.144332
O O14 0.547281 0.369451 0.000000
O O15 0.169549 0.169549 0.667858
O O16 0.067579 0.209912 0.664583
O O17 0.153100 0.278481 0.651945
O O18 0.955442 0.830281 0.500000
O O19 0.801991 0.676106 0.500000
O O20 0.741485 0.741485 0.608688
O O21 0.773064 0.642282 0.672600
O O22 0.323989 0.323989 0.728834
#
# Coordination Sequence:
#
# PCOD8316412 Si02
#       8
#    16   8  16  16  16  16  16  16
#     4   9  17  27  38  55  81 112 145 177 206 236
#     4   9  16  24  36  54  75 101 131 161 196 238
#     4   9  18  30  41  52  72 102 131 156 186 231
#     4   9  16  25  39  58  80 109 144 179 211 243
#     4  10  18  28  41  56  75  93 123 165 210 245
#     4  10  17  26  40  56  76 100 126 160 201 241
#     4   9  17  28  43  60  74  89 116 162 215 258
#     4   9  16  27  40  54  74 100 131 169 213 250
#
# _framework density 14.901781
#
# number of rings (size 3 to 8) (size 9 to 14) (size 15 to 20)
#    0.000    2.733    0.667    2.000    0.000    4.000 
#    0.000    2.000    0.000    6.400    0.000    0.000 
#    0.000    0.000    0.000    0.000    0.000   10.667 
#
# Total GULP energy -1487043.690144 kJ/mol
# GULP energy per Si atom -12392.030751 kJ/mol
# Density = 1.486786 g / cm^3
# Si number density = 14.901781 Si / 1000 Ang^3
#
#
#
# Elastic Constant Matrix: (Units=GPa)
#
#
# Indices 1 2 3 4 5 6 
#
# 1 43.3706 34.4950 38.8077 0.0000 0.0000 0.0000
# 2 34.4950 43.3706 38.8077 0.0000 0.0000 0.0000
# 3 38.8077 38.8077 86.0074 0.0000 0.0000 0.0000
# 4 0.0000 0.0000 0.0000 19.4126 0.0000 0.0000
# 5 0.0000 0.0000 0.0000 0.0000 19.4126 0.0000
# 6 0.0000 0.0000 0.0000 0.0000 0.0000 21.9686
#
#
#
# Elastic Compliance Matrix: (Units=1/GPa)
#
#
# Indices 1 2 3 4 5 6 
#
# 1 0.068004 -0.044664 -0.010531 0.000000 0.000000 0.000000
# 2 -0.044664 0.068004 -0.010531 0.000000 0.000000 0.000000
# 3 -0.010531 -0.010531 0.021131 0.000000 0.000000 0.000000
# 4 0.000000 0.000000 0.000000 0.051513 0.000000 0.000000
# 5 0.000000 0.000000 0.000000 0.000000 0.051513 0.000000
# 6 0.000000 0.000000 0.000000 0.000000 0.000000 0.045519
#
#
# Mechanical properties :
#
#
# Convention : Reuss Voigt Hill
#
# Bulk Modulus (GPa) = 38.93249 44.10773 41.52011
# Shear Modulus (GPa) = 11.21830 16.20132 13.70981
#
# Velocity S-wave (km/s) = 2.74673 3.30086 3.03646
# Velocity P-wave (km/s) = 6.02014 6.64761 6.34164
#
# Compressibility (1/GPa) = 0.02568549
#
# Stress axis : x y z
#
# Youngs Moduli (GPa) = 14.70496 14.70495 47.32442
#
# Poissons Ratio (x) = 0.65678 0.49839
# Poissons Ratio (y) = 0.65678 0.49839
# Poissons Ratio (z) = 0.15486 0.15486
#
# Static dielectric constant tensor:
#      x y z
#    x 2.705690 0.000000 0.000000 
#    y 0.000000 2.705690 0.000000 
#    z 0.000000 0.000000 3.264820 
# 
# 
# High freq. dielectric constant tensor:
#      x y z
#    x 1.526380 0.000000 0.000000 
#    y 0.000000 1.526380 0.000000 
#    z 0.000000 0.000000 1.593540 
# 
# From -- ./inp_files/5151.got.cif
#   From: 2010.03.12/outbox.cif.g09.slc.cpg/sg132_3_cif.got.tgz:5151.got - 2010.04.06 17:53:44.
