data_PCOD8316879
_publ_section_title
;
Structure prediction by ZEFSAII (Michael W. Deem and Ramdas Pophale) SiO2 
 PCOD8316879
Probable space group: P 42/M C M
;
_chemical_formula_sum "Si O2"
_cell_formula_units_Z 96
_cell_length_a 25.092247
_cell_length_b 25.092247
_cell_length_c 9.269138
_cell_angle_alpha 90.000000
_cell_angle_beta 90.000000
_cell_angle_gamma 90.000000
_cell_volume 5836.042634
_symmetry_space_group_name_H-M "P 42/M C M"
_symmetry_group_IT_number 132
_symmetry_cell_setting 'tetragonal'
loop_
_space_group_symop_operation_xyz
x,y,z
-y,x,1/2+z
-x,-y,z
y,-x,1/2+z
x,-y,1/2-z
-x,y,1/2-z
y,x,-z
-y,-x,-z
-x,-y,-z
y,-x,1/2-z
x,y,-z
-y,x,1/2-z
-x,y,1/2+z
x,-y,1/2+z
-y,-x,z
y,x,z
loop_
_atom_site_type_symbol
_atom_site_label
_atom_site_fract_x
_atom_site_fract_y
_atom_site_fract_z
Si Si1 0.137563 0.654194 0.167881
Si Si2 0.737612 0.449435 0.337117
Si Si3 0.740738 0.052291 0.168074
Si Si4 0.052508 0.861940 0.831199
Si Si5 0.449493 0.135536 0.837042
Si Si6 0.740326 0.346023 0.833021
O O1 0.102826 0.705213 0.212422
O O2 0.116172 0.604118 0.258649
O O3 0.198690 0.667797 0.206091
O O4 0.131421 0.639772 0.000000
O O5 0.714363 0.500000 0.250000
O O6 0.715247 0.450651 0.500000
O O7 0.801032 0.451930 0.337088
O O8 0.718459 0.395403 0.259935
O O9 0.801270 0.066009 0.212778
O O10 0.719946 0.000000 0.250000
O O11 0.736114 0.039900 0.000000
O O12 0.102292 0.897709 0.782107
O O13 0.000000 0.882417 0.750000
O O14 0.041461 0.867261 0.000000
O O15 0.500000 0.112261 0.750000
O O16 0.450519 0.113202 0.000000
O O17 0.705885 0.294116 0.794978
O O18 0.735056 0.362202 0.000000
#
# Coordination Sequence:
#
# PCOD8316879 Si02
#       6
#    16  16  16  16  16  16
#     4   9  17  29  45  65  88 116 149 182 220 266
#     4   9  16  26  41  60  84 116 152 186 219 259
#     4   9  18  32  49  67  88 116 150 186 221 261
#     4   9  18  32  49  69  92 117 146 181 221 265
#     4   9  16  26  42  64  88 114 145 182 222 263
#     4   9  17  28  42  63  92 121 147 179 220 265
#
# _framework density 16.449503
#
# number of rings (size 3 to 8) (size 9 to 14) (size 15 to 20)
#    0.000    3.000    0.000    1.000    0.000    6.167 
#    0.000    4.167    0.000    0.500    0.000   12.833 
#    0.000    0.333    0.000    3.500    0.000    1.833 
#
# Total GULP energy -1190382.853122 kJ/mol
# GULP energy per Si atom -12399.821387 kJ/mol
# Density = 1.641206 g / cm^3
# Si number density = 16.449503 Si / 1000 Ang^3
#
#
#
# Elastic Constant Matrix: (Units=GPa)
#
#
# Indices 1 2 3 4 5 6 
#
# 1 95.0618 62.8460 50.6385 0.0000 0.0000 0.0000
# 2 62.8460 95.0618 50.6385 0.0000 0.0000 0.0000
# 3 50.6385 50.6385 81.5727 0.0000 0.0000 0.0000
# 4 0.0000 0.0000 0.0000 25.0195 0.0000 0.0000
# 5 0.0000 0.0000 0.0000 0.0000 25.0195 0.0000
# 6 0.0000 0.0000 0.0000 0.0000 0.0000 4.7589
#
#
#
# Elastic Compliance Matrix: (Units=1/GPa)
#
#
# Indices 1 2 3 4 5 6 
#
# 1 0.020781 -0.010259 -0.006532 0.000000 0.000000 0.000000
# 2 -0.010259 0.020781 -0.006532 0.000000 0.000000 0.000000
# 3 -0.006532 -0.006532 0.020369 0.000000 0.000000 0.000000
# 4 0.000000 0.000000 0.000000 0.039969 0.000000 0.000000
# 5 0.000000 0.000000 0.000000 0.000000 0.039969 0.000000
# 6 0.000000 0.000000 0.000000 0.000000 0.000000 0.210133
#
#
# Mechanical properties :
#
#
# Convention : Reuss Voigt Hill
#
# Bulk Modulus (GPa) = 65.42198 66.66026 66.04112
# Shear Modulus (GPa) = 12.38409 18.13113 15.25761
#
# Velocity S-wave (km/s) = 2.74680 3.32359 3.04886
# Velocity P-wave (km/s) = 7.06524 7.43912 7.25459
#
# Compressibility (1/GPa) = 0.01528538
#
# Stress axis : x y z
#
# Youngs Moduli (GPa) = 48.11992 48.11992 49.09476
#
# Poissons Ratio (x) = 0.49367 0.32068
# Poissons Ratio (y) = 0.49367 0.32068
# Poissons Ratio (z) = 0.31432 0.31432
#
# Static dielectric constant tensor:
#      x y z
#    x 3.008480 0.000000 0.000000 
#    y 0.000000 3.008480 0.000000 
#    z 0.000000 0.000000 3.199550 
# 
# 
# High freq. dielectric constant tensor:
#      x y z
#    x 1.613520 0.000000 0.000000 
#    y 0.000000 1.613520 0.000000 
#    z 0.000000 0.000000 1.638260 
# 
# From -- ./inp_files/1731.got.cif
#   From: 2010.03.12/outbox.cif.g09.slc.cpg/sg132_1_cif.got.tgz:1731.got - 2010.04.06 17:53:44.
