data_PCOD8316771
_publ_section_title
;
Structure prediction by ZEFSAII (Michael W. Deem and Ramdas Pophale) SiO2 
 PCOD8316771
Probable space group: P 42/M C M
;
_chemical_formula_sum "Si O2"
_cell_formula_units_Z 96
_cell_length_a 23.944907
_cell_length_b 23.944907
_cell_length_c 9.177679
_cell_angle_alpha 90.000000
_cell_angle_beta 90.000000
_cell_angle_gamma 90.000000
_cell_volume 5262.100919
_symmetry_space_group_name_H-M "P 42/M C M"
_symmetry_group_IT_number 132
_symmetry_cell_setting 'tetragonal'
loop_
_space_group_symop_operation_xyz
x,y,z
-y,x,1/2+z
-x,-y,z
y,-x,1/2+z
x,-y,1/2-z
-x,y,1/2-z
y,x,-z
-y,-x,-z
-x,-y,-z
y,-x,1/2-z
x,y,-z
-y,x,1/2-z
-x,y,1/2+z
x,-y,1/2+z
-y,-x,z
y,x,z
loop_
_atom_site_type_symbol
_atom_site_label
_atom_site_fract_x
_atom_site_fract_y
_atom_site_fract_z
Si Si1 0.444856 0.352356 0.165158
Si Si2 0.148233 0.652058 0.829572
Si Si3 0.634830 0.725290 0.330293
Si Si4 0.056040 0.857266 0.333648
Si Si5 0.057935 0.558411 0.175467
Si Si6 0.147397 0.235688 0.833271
O O1 0.500000 0.369282 0.250000
O O2 0.405595 0.405595 0.173315
O O3 0.416264 0.299441 0.240090
O O4 0.459323 0.336029 0.000000
O O5 0.210928 0.638256 0.778853
O O6 0.105708 0.603074 0.783838
O O7 0.131465 0.709886 0.756663
O O8 0.145877 0.662053 0.000000
O O9 0.620328 0.720147 0.500000
O O10 0.692621 0.692621 0.294547
O O11 0.040833 0.868343 0.500000
O O12 0.088787 0.911214 0.270521
O O13 0.094151 0.803335 0.317332
O O14 0.000000 0.845825 0.250000
O O15 0.075780 0.500000 0.250000
O O16 0.000000 0.578473 0.250000
O O17 0.050991 0.551749 0.000000
O O18 0.202732 0.202732 0.775252
O O19 0.157505 0.252713 0.000000
#
# Coordination Sequence:
#
# PCOD8316771 Si02
#       6
#    16  16  16  16  16  16
#     4  10  21  36  54  77 105 138 176 216 258 304
#     4  10  21  35  55  83 108 134 171 212 255 308
#     4   9  18  34  54  76 106 139 169 208 257 305
#     4   9  19  35  52  73 103 137 175 219 264 309
#     4  10  21  38  57  77 104 136 171 212 259 307
#     4   9  19  35  53  75 106 141 174 212 257 304
#
# _framework density 18.243665
#
# number of rings (size 3 to 8) (size 9 to 14) (size 15 to 20)
#    0.000    2.500    0.000    3.000    0.000    6.667 
#    0.000   10.000    0.000    0.000    0.000    0.000 
#    0.000    0.000    0.000    0.000    0.000    0.000 
#
# Total GULP energy -1190257.422006 kJ/mol
# GULP energy per Si atom -12398.514813 kJ/mol
# Density = 1.820214 g / cm^3
# Si number density = 18.243665 Si / 1000 Ang^3
#
#
#
# Elastic Constant Matrix: (Units=GPa)
#
#
# Indices 1 2 3 4 5 6 
#
# 1 102.3695 51.7724 44.9301 0.0000 0.0000 0.0000
# 2 51.7724 102.3695 44.9301 0.0000 0.0000 0.0000
# 3 44.9301 44.9301 68.7476 0.0000 0.0000 0.0000
# 4 0.0000 0.0000 0.0000 42.4324 0.0000 0.0000
# 5 0.0000 0.0000 0.0000 0.0000 42.4324 0.0000
# 6 0.0000 0.0000 0.0000 0.0000 0.0000 19.0066
#
#
#
# Elastic Compliance Matrix: (Units=1/GPa)
#
#
# Indices 1 2 3 4 5 6 
#
# 1 0.015122 -0.004642 -0.006850 0.000000 0.000000 0.000000
# 2 -0.004642 0.015122 -0.006850 0.000000 0.000000 0.000000
# 3 -0.006850 -0.006850 0.023499 0.000000 0.000000 0.000000
# 4 0.000000 0.000000 0.000000 0.023567 0.000000 0.000000
# 5 0.000000 0.000000 0.000000 0.000000 0.023567 0.000000
# 6 0.000000 0.000000 0.000000 0.000000 0.000000 0.052613
#
#
# Mechanical properties :
#
#
# Convention : Reuss Voigt Hill
#
# Bulk Modulus (GPa) = 58.61020 61.86132 60.23576
# Shear Modulus (GPa) = 25.52843 29.56456 27.54649
#
# Velocity S-wave (km/s) = 3.74478 4.02996 3.88999
# Velocity P-wave (km/s) = 7.13400 7.45896 7.29829
#
# Compressibility (1/GPa) = 0.01706188
#
# Stress axis : x y z
#
# Youngs Moduli (GPa) = 66.12738 66.12738 42.55465
#
# Poissons Ratio (x) = 0.30694 0.29149
# Poissons Ratio (y) = 0.30694 0.29149
# Poissons Ratio (z) = 0.45295 0.45295
#
# Static dielectric constant tensor:
#      x y z
#    x 3.368620 0.000000 0.000000 
#    y 0.000000 3.368620 0.000000 
#    z 0.000000 0.000000 3.415570 
# 
# 
# High freq. dielectric constant tensor:
#      x y z
#    x 1.709260 0.000000 0.000000 
#    y 0.000000 1.709260 0.000000 
#    z 0.000000 0.000000 1.708300 
# 
# From -- ./inp_files/1776.got.cif
#   From: 2010.03.12/outbox.cif.g09.slc.cpg/sg132_1_cif.got.tgz:1776.got - 2010.04.06 17:53:44.
