data_PCOD8316647
_publ_section_title
;
Structure prediction by ZEFSAII (Michael W. Deem and Ramdas Pophale) SiO2 
 PCOD8316647
Probable space group: P 42/M C M
;
_chemical_formula_sum "Si O2"
_cell_formula_units_Z 96
_cell_length_a 25.142371
_cell_length_b 25.142371
_cell_length_c 8.978378
_cell_angle_alpha 90.000000
_cell_angle_beta 90.000000
_cell_angle_gamma 90.000000
_cell_volume 5675.581270
_symmetry_space_group_name_H-M "P 42/M C M"
_symmetry_group_IT_number 132
_symmetry_cell_setting 'tetragonal'
loop_
_space_group_symop_operation_xyz
x,y,z
-y,x,1/2+z
-x,-y,z
y,-x,1/2+z
x,-y,1/2-z
-x,y,1/2-z
y,x,-z
-y,-x,-z
-x,-y,-z
y,-x,1/2-z
x,y,-z
-y,x,1/2-z
-x,y,1/2+z
x,-y,1/2+z
-y,-x,z
y,x,z
loop_
_atom_site_type_symbol
_atom_site_label
_atom_site_fract_x
_atom_site_fract_y
_atom_site_fract_z
Si Si1 0.142022 0.666512 0.321315
Si Si2 0.737517 0.448512 0.332988
Si Si3 0.739645 0.054835 0.176057
Si Si4 0.053585 0.861931 0.826023
Si Si5 0.450186 0.136318 0.836943
Si Si6 0.746952 0.341807 0.827641
O O1 0.143189 0.670726 0.500000
O O2 0.103159 0.708906 0.249867
O O3 0.122204 0.607695 0.268934
O O4 0.200898 0.677428 0.260176
O O5 0.712882 0.500000 0.250000
O O6 0.713755 0.444614 0.500000
O O7 0.800512 0.454970 0.342387
O O8 0.722700 0.395759 0.241091
O O9 0.801047 0.065133 0.216113
O O10 0.719948 0.000000 0.250000
O O11 0.729261 0.052677 0.000000
O O12 0.103019 0.896982 0.768157
O O13 0.000000 0.882859 0.750000
O O14 0.045282 0.868674 0.000000
O O15 0.500000 0.110962 0.750000
O O16 0.454134 0.111351 0.000000
O O17 0.703670 0.296331 0.808909
O O18 0.761487 0.351854 0.000000
#
# Coordination Sequence:
#
# PCOD8316647 Si02
#       6
#    16  16  16  16  16  16
#     4  10  20  33  49  71  97 126 161 199 242 291
#     4   9  16  27  44  65  91 125 164 203 243 289
#     4  10  20  35  54  73  95 126 162 199 237 280
#     4   9  19  35  53  74  99 124 152 188 229 275
#     4   8  15  26  42  65  91 118 150 190 233 278
#     4  10  20  32  46  68 100 134 166 202 245 292
#
# _framework density 16.914566000000001
#
# number of rings (size 3 to 8) (size 9 to 14) (size 15 to 20)
#    0.000    2.667    0.000    3.000    0.000    7.833 
#    0.000    2.500    0.000    0.500    0.000    3.500 
#    0.000    0.333    0.000    3.500    0.000    1.667 
#
# Total GULP energy -1190107.331047 kJ/mol
# GULP energy per Si atom -12396.951365 kJ/mol
# Density = 1.687607 g / cm^3
# Si number density = 16.914566 Si / 1000 Ang^3
#
#
#
# Elastic Constant Matrix: (Units=GPa)
#
#
# Indices 1 2 3 4 5 6 
#
# 1 88.1619 56.2055 49.2103 0.0000 0.0000 0.0000
# 2 56.2055 88.1619 49.2103 0.0000 0.0000 0.0000
# 3 49.2103 49.2103 99.3706 0.0000 0.0000 0.0000
# 4 0.0000 0.0000 0.0000 26.6450 0.0000 0.0000
# 5 0.0000 0.0000 0.0000 0.0000 26.6450 0.0000
# 6 0.0000 0.0000 0.0000 0.0000 0.0000 -1.8259
#
#
#
# Elastic Compliance Matrix: (Units=1/GPa)
#
#
# Indices 1 2 3 4 5 6 
#
# 1 0.020875 -0.010418 -0.005179 0.000000 0.000000 0.000000
# 2 -0.010418 0.020875 -0.005179 0.000000 0.000000 0.000000
# 3 -0.005179 -0.005179 0.015192 0.000000 0.000000 0.000000
# 4 0.000000 0.000000 0.000000 0.037531 0.000000 0.000000
# 5 0.000000 0.000000 0.000000 0.000000 0.037531 0.000000
# 6 0.000000 0.000000 0.000000 0.000000 0.000000 -0.547687
#
#
# Mechanical properties :
#
#
# Convention : Reuss Voigt Hill
#
# Bulk Modulus (GPa) = 64.96707 64.99405 64.98056
# Shear Modulus (GPa) = -13.55003 18.36404 2.40700
#
# Velocity S-wave (km/s) = -2.83342 3.29856 1.19420
# Velocity P-wave (km/s) = 5.27143 7.28118 6.35624
#
# Compressibility (1/GPa) = 0.01539241
#
# Stress axis : x y z
#
# Youngs Moduli (GPa) = 47.90439 47.90439 65.82211
#
# Poissons Ratio (x) = 0.49905 0.34087
# Poissons Ratio (y) = 0.49905 0.34087
# Poissons Ratio (z) = 0.24808 0.24808
#
# Static dielectric constant tensor:
#      x y z
#    x 3.126290 0.000000 0.000000 
#    y 0.000000 3.126290 0.000000 
#    z 0.000000 0.000000 3.399060 
# 
# 
# High freq. dielectric constant tensor:
#      x y z
#    x 1.633950 0.000000 0.000000 
#    y 0.000000 1.633950 0.000000 
#    z 0.000000 0.000000 1.666500 
# 
# From -- ./inp_files/1695.got.cif
#   From: 2010.03.12/outbox.cif.g09.slc.cpg/sg132_1_cif.got.tgz:1695.got - 2010.04.06 17:53:44.
