data_PCOD8316028
_publ_section_title
;
Structure prediction by ZEFSAII (Michael W. Deem and Ramdas Pophale) SiO2 
 PCOD8316028
Probable space group: P 42/M M C
;
_chemical_formula_sum "Si O2"
_cell_formula_units_Z 72
_cell_length_a 14.796208
_cell_length_b 14.796208
_cell_length_c 20.178060
_cell_angle_alpha 90.000000
_cell_angle_beta 90.000000
_cell_angle_gamma 90.000000
_cell_volume 4417.537703
_symmetry_space_group_name_H-M "P 42/M M C"
_symmetry_group_IT_number 131
_symmetry_cell_setting 'tetragonal'
loop_
_space_group_symop_operation_xyz
x,y,z
-x,-y,z
-y,x,1/2+z
y,-x,1/2+z
-x,y,-z
x,-y,-z
y,x,1/2-z
-y,-x,1/2-z
-x,-y,-z
x,y,-z
y,-x,1/2-z
-y,x,1/2-z
x,-y,z
-x,y,z
-y,-x,1/2+z
y,x,1/2+z
loop_
_atom_site_type_symbol
_atom_site_label
_atom_site_fract_x
_atom_site_fract_y
_atom_site_fract_z
Si Si1 0.105224 0.104346 0.075770
Si Si2 0.393110 0.000000 0.427505
Si Si3 0.599922 0.897874 0.189930
Si Si4 0.600940 0.838198 0.337611
Si Si5 0.213279 0.769740 0.674343
O O1 0.158754 0.168283 0.125616
O O2 0.000000 0.126787 0.084499
O O3 0.124413 0.000000 0.093813
O O4 0.135240 0.123313 0.000000
O O5 0.362620 0.090771 0.391277
O O6 0.500000 0.000000 0.431354
O O7 0.347918 0.000000 0.500000
O O8 0.500000 0.874598 0.161708
O O9 0.598084 0.891221 0.268876
O O10 0.671640 0.828608 0.158954
O O11 0.627184 0.000000 0.170463
O O12 0.500000 0.799093 0.353868
O O13 0.677894 0.760582 0.337034
O O14 0.196976 0.803025 0.750000
#
# Coordination Sequence:
#
# PCOD8316028 Si02
#       5
#    16   8  16  16  16
#     4   9  19  34  47  62  92 130 156 179 227 288
#     4   9  16  26  42  64  91 125 158 179 209 275
#     4   9  16  29  48  66  89 119 151 196 248 284
#     4   9  17  29  42  62  95 125 148 186 239 281
#     4  10  20  29  47  72  91 116 160 204 229 274
#
# _framework density 16.298673000000001
#
# number of rings (size 3 to 8) (size 9 to 14) (size 15 to 20)
#    0.000    2.778    1.111    1.333    1.556    2.667 
#    0.000    1.111    0.000    1.333    0.000    7.778 
#    0.000    0.000    0.000    7.556    0.000    8.222 
#
# Total GULP energy -892278.378641 kJ/mol
# GULP energy per Si atom -12392.755259 kJ/mol
# Density = 1.626158 g / cm^3
# Si number density = 16.298673 Si / 1000 Ang^3
#
#
#
# Elastic Constant Matrix: (Units=GPa)
#
#
# Indices 1 2 3 4 5 6 
#
# 1 105.8477 74.0282 32.1479 0.0000 0.0000 0.0000
# 2 74.0282 105.8474 32.1478 0.0000 0.0000 0.0000
# 3 32.1479 32.1478 61.7826 0.0000 0.0000 0.0000
# 4 0.0000 0.0000 0.0000 15.0300 0.0000 0.0000
# 5 0.0000 0.0000 0.0000 0.0000 15.0301 0.0000
# 6 0.0000 0.0000 0.0000 0.0000 0.0000 25.3979
#
#
#
# Elastic Compliance Matrix: (Units=1/GPa)
#
#
# Indices 1 2 3 4 5 6 
#
# 1 0.019129 -0.012299 -0.003554 0.000000 0.000000 0.000000
# 2 -0.012299 0.019129 -0.003554 0.000000 0.000000 0.000000
# 3 -0.003554 -0.003554 0.019884 0.000000 0.000000 0.000000
# 4 0.000000 0.000000 0.000000 0.066533 0.000000 0.000000
# 5 0.000000 0.000000 0.000000 0.000000 0.066533 0.000000
# 6 0.000000 0.000000 0.000000 0.000000 0.000000 0.039373
#
#
# Mechanical properties :
#
#
# Convention : Reuss Voigt Hill
#
# Bulk Modulus (GPa) = 51.73719 61.12507 56.43113
# Shear Modulus (GPa) = 18.12666 20.10186 19.11426
#
# Velocity S-wave (km/s) = 3.33852 3.51571 3.42826
# Velocity P-wave (km/s) = 6.83177 7.35288 7.09711
#
# Compressibility (1/GPa) = 0.01932845
#
# Stress axis : x y z
#
# Youngs Moduli (GPa) = 52.27795 52.27784 50.29152
#
# Poissons Ratio (x) = 0.64296 0.17872
# Poissons Ratio (y) = 0.64296 0.17872
# Poissons Ratio (z) = 0.18578 0.18578
#
# Static dielectric constant tensor:
#      x y z
#    x 3.095160 0.000000 0.000000 
#    y 0.000000 3.095160 0.000000 
#    z 0.000000 0.000000 3.079100 
# 
# 
# High freq. dielectric constant tensor:
#      x y z
#    x 1.615800 0.000000 0.000000 
#    y 0.000000 1.615800 0.000000 
#    z 0.000000 0.000000 1.610400 
# 
# From -- ./inp_files/7522.got.cif
#   From: 2010.03.12/outbox.cif.g09.slc.cpg/sg131_4_cif.got.tgz:7522.got - 2010.04.06 17:36:35.
