data_PCOD8316406
_publ_section_title
;
Structure prediction by ZEFSAII (Michael W. Deem and Ramdas Pophale) SiO2 
 PCOD8316406
Probable space group: P 42/M C M
;
_chemical_formula_sum "Si O2"
_cell_formula_units_Z 72
_cell_length_a 15.330145
_cell_length_b 15.330145
_cell_length_c 18.782019
_cell_angle_alpha 90.000000
_cell_angle_beta 90.000000
_cell_angle_gamma 90.000000
_cell_volume 4414.025125
_symmetry_space_group_name_H-M "P 42/M C M"
_symmetry_group_IT_number 132
_symmetry_cell_setting 'tetragonal'
loop_
_space_group_symop_operation_xyz
x,y,z
-y,x,1/2+z
-x,-y,z
y,-x,1/2+z
x,-y,1/2-z
-x,y,1/2-z
y,x,-z
-y,-x,-z
-x,-y,-z
y,-x,1/2-z
x,y,-z
-y,x,1/2-z
-x,y,1/2+z
x,-y,1/2+z
-y,-x,z
y,x,z
loop_
_atom_site_type_symbol
_atom_site_label
_atom_site_fract_x
_atom_site_fract_y
_atom_site_fract_z
Si Si1 0.339224 0.195547 0.420145
Si Si2 0.864743 0.275499 0.710324
Si Si3 0.252683 0.959950 0.855584
Si Si4 0.595258 0.738937 0.722122
Si Si5 0.927564 0.927564 0.421052
O O1 0.378106 0.208136 0.500000
O O2 0.249404 0.249404 0.410555
O O3 0.315788 0.093811 0.408602
O O4 0.407729 0.228323 0.360386
O O5 0.798016 0.201985 0.681738
O O6 0.907423 0.242601 0.782783
O O7 0.813390 0.365019 0.726430
O O8 0.942461 0.292377 0.653753
O O9 0.155705 0.969442 0.883969
O O10 0.500000 0.716485 0.750000
O O11 0.651177 0.651177 0.727460
O O12 0.899509 0.899509 0.500000
O O13 0.000000 0.000000 0.421028
#
# Coordination Sequence:
#
# PCOD8316406 Si02
#       5
#    16  16  16  16   8
#     4   9  16  29  50  72  97 129 165 205 242 282
#     4   9  17  29  43  63  94 127 162 200 242 291
#     4  10  16  27  42  63  89 127 169 203 242 272
#     4   9  18  33  54  78  99 122 153 197 252 310
#     4  11  20  26  36  60  94 128 167 213 247 272
#
# _framework density 16.311641999999999
#
# number of rings (size 3 to 8) (size 9 to 14) (size 15 to 20)
#    0.000    2.556    2.222    2.667    0.000    0.222 
#    0.000    8.889    0.000    4.667    0.000    9.333 
#    0.000    0.000    0.000    0.000    0.000    0.000 
#
# Total GULP energy -892485.219339 kJ/mol
# GULP energy per Si atom -12395.628046 kJ/mol
# Density = 1.627452 g / cm^3
# Si number density = 16.311642 Si / 1000 Ang^3
#
#
#
# Elastic Constant Matrix: (Units=GPa)
#
#
# Indices 1 2 3 4 5 6 
#
# 1 91.9391 33.5204 42.3564 0.0000 0.0000 0.0000
# 2 33.5204 91.9391 42.3564 0.0000 0.0000 0.0000
# 3 42.3564 42.3564 79.0760 0.0000 0.0000 0.0000
# 4 0.0000 0.0000 0.0000 16.3356 0.0000 0.0000
# 5 0.0000 0.0000 0.0000 0.0000 16.3356 0.0000
# 6 0.0000 0.0000 0.0000 0.0000 0.0000 11.4768
#
#
#
# Elastic Compliance Matrix: (Units=1/GPa)
#
#
# Indices 1 2 3 4 5 6 
#
# 1 0.014802 -0.002315 -0.006689 0.000000 0.000000 0.000000
# 2 -0.002315 0.014802 -0.006689 0.000000 0.000000 0.000000
# 3 -0.006689 -0.006689 0.019811 0.000000 0.000000 0.000000
# 4 0.000000 0.000000 0.000000 0.061216 0.000000 0.000000
# 5 0.000000 0.000000 0.000000 0.000000 0.061216 0.000000
# 6 0.000000 0.000000 0.000000 0.000000 0.000000 0.087132
#
#
# Mechanical properties :
#
#
# Convention : Reuss Voigt Hill
#
# Bulk Modulus (GPa) = 55.45960 55.49116 55.47538
# Shear Modulus (GPa) = 16.87048 18.47766 17.67407
#
# Velocity S-wave (km/s) = 3.21948 3.36935 3.29526
# Velocity P-wave (km/s) = 6.92054 7.01640 6.96864
#
# Compressibility (1/GPa) = 0.01803114
#
# Stress axis : x y z
#
# Youngs Moduli (GPa) = 67.55680 67.55680 50.47617
#
# Poissons Ratio (x) = 0.15642 0.33761
# Poissons Ratio (y) = 0.15642 0.33761
# Poissons Ratio (z) = 0.45185 0.45185
#
# Static dielectric constant tensor:
#      x y z
#    x 2.911810 0.000000 0.000000 
#    y 0.000000 2.911810 0.000000 
#    z 0.000000 0.000000 3.211180 
# 
# 
# High freq. dielectric constant tensor:
#      x y z
#    x 1.608210 0.000000 0.000000 
#    y 0.000000 1.608210 0.000000 
#    z 0.000000 0.000000 1.617340 
# 
# From -- ./inp_files/6129.got.cif
#   From: 2010.03.12/outbox.cif.g09.slc.cpg/sg132_4_cif.got.tgz:6129.got - 2010.04.06 17:53:44.
