data_PCOD8316535
_publ_section_title
;
Structure prediction by ZEFSAII (Michael W. Deem and Ramdas Pophale) SiO2 
 PCOD8316535
Probable space group: P 42/M C M
;
_chemical_formula_sum "Si O2"
_cell_formula_units_Z 96
_cell_length_a 25.228216
_cell_length_b 25.228216
_cell_length_c 8.763178
_cell_angle_alpha 90.000000
_cell_angle_beta 90.000000
_cell_angle_gamma 90.000000
_cell_volume 5577.437530
_symmetry_space_group_name_H-M "P 42/M C M"
_symmetry_group_IT_number 132
_symmetry_cell_setting 'tetragonal'
loop_
_space_group_symop_operation_xyz
x,y,z
-y,x,1/2+z
-x,-y,z
y,-x,1/2+z
x,-y,1/2-z
-x,y,1/2-z
y,x,-z
-y,-x,-z
-x,-y,-z
y,-x,1/2-z
x,y,-z
-y,x,1/2-z
-x,y,1/2+z
x,-y,1/2+z
-y,-x,z
y,x,z
loop_
_atom_site_type_symbol
_atom_site_label
_atom_site_fract_x
_atom_site_fract_y
_atom_site_fract_z
Si Si1 0.447894 0.121204 0.671150
Si Si2 0.665556 0.752573 0.178891
Si Si3 0.743609 0.052299 0.178077
Si Si4 0.255308 0.830045 0.180113
Si Si5 0.246396 0.446399 0.328987
Si Si6 0.949538 0.369898 0.320371
O O1 0.500000 0.097419 0.750000
O O2 0.441974 0.098156 0.500000
O O3 0.450369 0.183734 0.666572
O O4 0.399857 0.104462 0.780573
O O5 0.703733 0.703733 0.222466
O O6 0.690264 0.807107 0.247283
O O7 0.607472 0.737951 0.242043
O O8 0.660786 0.761007 0.000000
O O9 0.761269 0.110798 0.237617
O O10 0.682638 0.049899 0.220179
O O11 0.772947 0.000000 0.250000
O O12 0.753180 0.047825 0.000000
O O13 0.206673 0.793328 0.230396
O O14 0.264999 0.830461 0.000000
O O15 0.269420 0.500000 0.250000
O O16 0.269690 0.443763 0.500000
O O17 0.953616 0.358563 0.500000
O O18 0.000000 0.402491 0.250000
#
# Coordination Sequence:
#
# PCOD8316535 Si02
#       6
#    16  16  16  16  16  16
#     4  10  20  33  46  62  82 107 143 184 227 270
#     4  10  20  32  48  72 100 128 159 196 236 279
#     4  10  19  31  47  66  89 117 149 185 225 271
#     4   9  18  32  49  69  94 125 159 193 232 280
#     4  10  20  33  50  69  92 122 154 190 230 276
#     4  11  21  32  45  60  80 108 143 183 225 267
#
# _framework density 17.212205000000001
#
# number of rings (size 3 to 8) (size 9 to 14) (size 15 to 20)
#    0.000    2.000    0.000    5.500    0.000    8.667 
#    0.000    1.667    0.000    0.000    0.000    0.000 
#    0.000    0.667    0.000    7.667    0.000    1.500 
#
# Total GULP energy -1189592.254841 kJ/mol
# GULP energy per Si atom -12391.585988 kJ/mol
# Density = 1.717303 g / cm^3
# Si number density = 17.212205 Si / 1000 Ang^3
#
#
#
# Elastic Constant Matrix: (Units=GPa)
#
#
# Indices 1 2 3 4 5 6 
#
# 1 84.7941 21.9507 27.3572 0.0000 0.0000 0.0000
# 2 21.9507 84.7941 27.3572 0.0000 0.0000 0.0000
# 3 27.3572 27.3572 61.0175 0.0000 0.0000 0.0000
# 4 0.0000 0.0000 0.0000 23.0527 0.0000 0.0000
# 5 0.0000 0.0000 0.0000 0.0000 23.0527 0.0000
# 6 0.0000 0.0000 0.0000 0.0000 0.0000 16.4447
#
#
#
# Elastic Compliance Matrix: (Units=1/GPa)
#
#
# Indices 1 2 3 4 5 6 
#
# 1 0.014038 -0.001875 -0.005453 0.000000 0.000000 0.000000
# 2 -0.001875 0.014038 -0.005453 0.000000 0.000000 0.000000
# 3 -0.005453 -0.005453 0.021279 0.000000 0.000000 0.000000
# 4 0.000000 0.000000 0.000000 0.043379 0.000000 0.000000
# 5 0.000000 0.000000 0.000000 0.000000 0.043379 0.000000
# 6 0.000000 0.000000 0.000000 0.000000 0.000000 0.060810
#
#
# Mechanical properties :
#
#
# Convention : Reuss Voigt Hill
#
# Bulk Modulus (GPa) = 42.03123 42.65956 42.34540
# Shear Modulus (GPa) = 21.69986 22.77272 22.23629
#
# Velocity S-wave (km/s) = 3.55452 3.64133 3.59819
# Velocity P-wave (km/s) = 6.42796 6.52053 6.47441
#
# Compressibility (1/GPa) = 0.02379183
#
# Stress axis : x y z
#
# Youngs Moduli (GPa) = 71.23523 71.23523 46.99503
#
# Poissons Ratio (x) = 0.13354 0.25629
# Poissons Ratio (y) = 0.13354 0.25629
# Poissons Ratio (z) = 0.38848 0.38848
#
# Static dielectric constant tensor:
#      x y z
#    x 3.369560 0.000000 0.000000 
#    y 0.000000 3.369560 0.000000 
#    z 0.000000 0.000000 3.380330 
# 
# 
# High freq. dielectric constant tensor:
#      x y z
#    x 1.639980 0.000000 0.000000 
#    y 0.000000 1.639980 0.000000 
#    z 0.000000 0.000000 1.678700 
# 
# From -- ./inp_files/1801.got.cif
#   From: 2010.03.12/outbox.cif.g09.slc.cpg/sg132_1_cif.got.tgz:1801.got - 2010.04.06 17:53:44.
