data_PCOD8316685
_publ_section_title
;
Structure prediction by ZEFSAII (Michael W. Deem and Ramdas Pophale) SiO2 
 PCOD8316685
Probable space group: P 42/M C M
;
_chemical_formula_sum "Si O2"
_cell_formula_units_Z 104
_cell_length_a 18.463789
_cell_length_b 18.463789
_cell_length_c 17.676801
_cell_angle_alpha 90.000000
_cell_angle_beta 90.000000
_cell_angle_gamma 90.000000
_cell_volume 6026.224819
_symmetry_space_group_name_H-M "P 42/M C M"
_symmetry_group_IT_number 132
_symmetry_cell_setting 'tetragonal'
loop_
_space_group_symop_operation_xyz
x,y,z
-y,x,1/2+z
-x,-y,z
y,-x,1/2+z
x,-y,1/2-z
-x,y,1/2-z
y,x,-z
-y,-x,-z
-x,-y,-z
y,-x,1/2-z
x,y,-z
-y,x,1/2-z
-x,y,1/2+z
x,-y,1/2+z
-y,-x,z
y,x,z
loop_
_atom_site_type_symbol
_atom_site_label
_atom_site_fract_x
_atom_site_fract_y
_atom_site_fract_z
Si Si1 0.461172 0.338664 0.673132
Si Si2 0.803650 0.077940 0.281910
Si Si3 0.247669 0.134733 0.631650
Si Si4 0.717970 0.016663 0.415118
Si Si5 0.200679 0.604825 0.089101
Si Si6 0.560469 0.560469 0.917105
Si Si7 0.432125 0.958264 0.910142
O O1 0.500000 0.314609 0.750000
O O2 0.399024 0.399024 0.686865
O O3 0.427808 0.268240 0.633793
O O4 0.526856 0.369895 0.623505
O O5 0.875373 0.124628 0.297258
O O6 0.750214 0.115719 0.221273
O O7 0.828215 0.000000 0.250000
O O8 0.760197 0.071578 0.360697
O O9 0.172563 0.172563 0.611383
O O10 0.246221 0.062775 0.581069
O O11 0.311707 0.190071 0.611275
O O12 0.717061 0.049650 0.500000
O O13 0.638187 0.001389 0.380444
O O14 0.126144 0.564615 0.113517
O O15 0.216538 0.597385 0.000000
O O16 0.500000 0.500000 0.922539
O O17 0.585607 0.585607 0.000000
O O18 0.500000 0.000000 0.874482
O O19 0.430654 0.962724 0.000000
#
# Coordination Sequence:
#
# PCOD8316685 Si02
#       7
#    16  16  16  16  16   8  16
#     4  11  21  35  52  72 106 143 172 214 265 313
#     4   9  18  32  49  70 101 140 176 211 254 313
#     4   9  17  31  50  72 101 132 160 206 268 314
#     4   9  17  29  49  75 100 130 171 211 253 306
#     4  10  20  33  54  83 105 125 170 221 261 307
#     4   9  18  32  54  76  94 132 184 218 250 306
#     4   8  15  31  53  76 102 132 160 203 262 311
#
# _framework density 17.257902999999999
#
# number of rings (size 3 to 8) (size 9 to 14) (size 15 to 20)
#    0.000    2.692    0.769    2.308    0.000    3.231 
#    2.769    0.000    0.000    0.000    0.000    4.308 
#    0.000    0.000    0.000    0.000    0.000    0.000 
#
# Total GULP energy -1288980.507491 kJ/mol
# GULP energy per Si atom -12394.043341 kJ/mol
# Density = 1.721862 g / cm^3
# Si number density = 17.257903 Si / 1000 Ang^3
#
#
#
# Elastic Constant Matrix: (Units=GPa)
#
#
# Indices 1 2 3 4 5 6 
#
# 1 72.4415 42.8294 33.5259 0.0000 0.0000 0.0000
# 2 42.8294 72.4415 33.5259 0.0000 0.0000 0.0000
# 3 33.5259 33.5259 90.7069 0.0000 0.0000 0.0000
# 4 0.0000 0.0000 0.0000 22.7384 0.0000 0.0000
# 5 0.0000 0.0000 0.0000 0.0000 22.7384 0.0000
# 6 0.0000 0.0000 0.0000 0.0000 0.0000 37.1879
#
#
#
# Elastic Compliance Matrix: (Units=1/GPa)
#
#
# Indices 1 2 3 4 5 6 
#
# 1 0.022411 -0.011359 -0.004085 0.000000 0.000000 0.000000
# 2 -0.011359 0.022411 -0.004085 0.000000 0.000000 0.000000
# 3 -0.004085 -0.004085 0.014044 0.000000 0.000000 0.000000
# 4 0.000000 0.000000 0.000000 0.043979 0.000000 0.000000
# 5 0.000000 0.000000 0.000000 0.000000 0.043979 0.000000
# 6 0.000000 0.000000 0.000000 0.000000 0.000000 0.026890
#
#
# Mechanical properties :
#
#
# Convention : Reuss Voigt Hill
#
# Bulk Modulus (GPa) = 50.48490 50.59468 50.53979
# Shear Modulus (GPa) = 22.79231 24.91352 23.85291
#
# Velocity S-wave (km/s) = 3.63807 3.80360 3.72175
# Velocity P-wave (km/s) = 6.85304 6.97641 6.91500
#
# Compressibility (1/GPa) = 0.01980790
#
# Stress axis : x y z
#
# Youngs Moduli (GPa) = 44.62182 44.62182 71.20530
#
# Poissons Ratio (x) = 0.50688 0.29084
# Poissons Ratio (y) = 0.50688 0.29084
# Poissons Ratio (z) = 0.18226 0.18226
#
# Static dielectric constant tensor:
#      x y z
#    x 3.238350 0.000000 0.000000 
#    y 0.000000 3.238350 0.000000 
#    z 0.000000 0.000000 3.220110 
# 
# 
# High freq. dielectric constant tensor:
#      x y z
#    x 1.657760 0.000000 0.000000 
#    y 0.000000 1.657760 0.000000 
#    z 0.000000 0.000000 1.661440 
# 
# From -- ./inp_files/6547.got.cif
#   From: 2010.03.12/outbox.cif.g09.slc.cpg/sg132_4_cif.got.tgz:6547.got - 2010.04.06 17:53:44.
