data_PCOD8316245
_publ_section_title
;
Structure prediction by ZEFSAII (Michael W. Deem and Ramdas Pophale) SiO2 
 PCOD8316245
Probable space group: P 42/M M C
;
_chemical_formula_sum "Si O2"
_cell_formula_units_Z 112
_cell_length_a 14.138624
_cell_length_b 14.138624
_cell_length_c 26.809788
_cell_angle_alpha 90.000000
_cell_angle_beta 90.000000
_cell_angle_gamma 90.000000
_cell_volume 5359.295083
_symmetry_space_group_name_H-M "P 42/M M C"
_symmetry_group_IT_number 131
_symmetry_cell_setting 'tetragonal'
loop_
_space_group_symop_operation_xyz
x,y,z
-x,-y,z
-y,x,1/2+z
y,-x,1/2+z
-x,y,-z
x,-y,-z
y,x,1/2-z
-y,-x,1/2-z
-x,-y,-z
x,y,-z
y,-x,1/2-z
-y,x,1/2-z
x,-y,z
-x,y,z
-y,-x,1/2+z
y,x,1/2+z
loop_
_atom_site_type_symbol
_atom_site_label
_atom_site_fract_x
_atom_site_fract_y
_atom_site_fract_z
Si Si1 0.609230 0.109975 0.801677
Si Si2 0.390282 0.219278 0.902304
Si Si3 0.610106 0.105704 0.608712
Si Si4 0.283005 0.888867 0.293733
Si Si5 0.608526 0.293747 0.442595
Si Si6 0.108986 0.770863 0.445125
Si Si7 0.889242 0.105976 0.850824
O O1 0.500000 0.120357 0.785959
O O2 0.634431 0.175786 0.848408
O O3 0.674652 0.153007 0.757440
O O4 0.631988 0.000000 0.814567
O O5 0.500000 0.205798 0.915024
O O6 0.360943 0.329438 0.906446
O O7 0.328196 0.164015 0.942916
O O8 0.500000 0.099680 0.619805
O O9 0.657965 0.145775 0.658713
O O10 0.632386 0.182274 0.565590
O O11 0.647652 0.000000 0.593795
O O12 0.172975 0.860732 0.304156
O O13 0.296044 0.000000 0.289148
O O14 0.629875 0.317751 0.500000
O O15 0.500000 0.314902 0.428867
O O16 0.126913 0.815766 0.500000
O O17 0.143599 0.842434 0.402034
O O18 0.000000 0.747632 0.436935
O O19 0.000000 0.110063 0.861133
O O20 0.856116 0.000000 0.836420
#
# Coordination Sequence:
#
# PCOD8316245 Si02
#       7
#    16  16  16  16  16  16  16
#     4   9  18  34  58  87 114 140 178 232 292 347
#     4  11  23  39  59  81 107 141 183 233 287 341
#     4   9  17  31  55  87 118 146 182 230 279 327
#     4   9  16  29  53  83 114 148 183 223 273 326
#     4  10  22  39  58  83 116 152 189 228 273 331
#     4  10  21  36  55  81 113 149 190 236 283 330
#     4   9  18  33  54  83 119 157 196 232 267 319
#
# _framework density 20.89827
#
# number of rings (size 3 to 8) (size 9 to 14) (size 15 to 20)
#    0.000    2.429    0.000    2.143    0.000    4.571 
#    0.000    7.143    0.000    9.429    0.000    6.000 
#    0.000    9.143    0.000    0.000    0.000    0.000 
#
# Total GULP energy -1388375.643028 kJ/mol
# GULP energy per Si atom -12396.211098 kJ/mol
# Density = 2.085070 g / cm^3
# Si number density = 20.898270 Si / 1000 Ang^3
#
#
#
# Elastic Constant Matrix: (Units=GPa)
#
#
# Indices 1 2 3 4 5 6 
#
# 1 79.9685 33.4665 56.3537 0.0000 0.0000 0.0000
# 2 33.4665 79.9685 56.3537 0.0000 0.0000 0.0000
# 3 56.3537 56.3537 119.3624 0.0000 0.0000 0.0000
# 4 0.0000 0.0000 0.0000 32.3038 0.0000 0.0000
# 5 0.0000 0.0000 0.0000 0.0000 32.3038 0.0000
# 6 0.0000 0.0000 0.0000 0.0000 0.0000 28.3171
#
#
#
# Elastic Compliance Matrix: (Units=1/GPa)
#
#
# Indices 1 2 3 4 5 6 
#
# 1 0.019055 -0.002450 -0.007840 0.000000 0.000000 0.000000
# 2 -0.002450 0.019055 -0.007840 0.000000 0.000000 0.000000
# 3 -0.007840 -0.007840 0.015780 0.000000 0.000000 0.000000
# 4 0.000000 0.000000 0.000000 0.030956 0.000000 0.000000
# 5 0.000000 0.000000 0.000000 0.000000 0.030956 0.000000
# 6 0.000000 0.000000 0.000000 0.000000 0.000000 0.035314
#
#
# Mechanical properties :
#
#
# Convention : Reuss Voigt Hill
#
# Bulk Modulus (GPa) = 56.71540 63.51635 60.11588
# Shear Modulus (GPa) = 25.87303 27.45994 26.66649
#
# Velocity S-wave (km/s) = 3.52241 3.62882 3.57601
# Velocity P-wave (km/s) = 6.61369 6.92942 6.77339
#
# Compressibility (1/GPa) = 0.01763190
#
# Stress axis : x y z
#
# Youngs Moduli (GPa) = 52.48055 52.48055 63.37014
#
# Poissons Ratio (x) = 0.12857 0.49679
# Poissons Ratio (y) = 0.12857 0.49679
# Poissons Ratio (z) = 0.41142 0.41142
#
# Static dielectric constant tensor:
#      x y z
#    x 3.846570 0.000000 0.000000 
#    y 0.000000 3.846570 0.000000 
#    z 0.000000 0.000000 3.838650 
# 
# 
# High freq. dielectric constant tensor:
#      x y z
#    x 1.814400 0.000000 0.000000 
#    y 0.000000 1.814400 0.000000 
#    z 0.000000 0.000000 1.812190 
# 
# From -- ./inp_files/11280.got.cif
#   From: 2010.03.12/outbox.cif.g09.slc.cpg/sg131_6_cif.got.tgz:11280.got - 2010.04.06 17:36:35.
