data_PCOD8316866
_publ_section_title
;
Structure prediction by ZEFSAII (Michael W. Deem and Ramdas Pophale) SiO2 
 PCOD8316866
Probable space group: P 42/M C M
;
_chemical_formula_sum "Si O2"
_cell_formula_units_Z 42
_cell_length_a 13.969289
_cell_length_b 13.969289
_cell_length_c 10.215668
_cell_angle_alpha 90.000000
_cell_angle_beta 90.000000
_cell_angle_gamma 90.000000
_cell_volume 1993.496028
_symmetry_space_group_name_H-M "P 42/M C M"
_symmetry_group_IT_number 132
_symmetry_cell_setting 'tetragonal'
loop_
_space_group_symop_operation_xyz
x,y,z
-y,x,1/2+z
-x,-y,z
y,-x,1/2+z
x,-y,1/2-z
-x,y,1/2-z
y,x,-z
-y,-x,-z
-x,-y,-z
y,-x,1/2-z
x,y,-z
-y,x,1/2-z
-x,y,1/2+z
x,-y,1/2+z
-y,-x,z
y,x,z
loop_
_atom_site_type_symbol
_atom_site_label
_atom_site_fract_x
_atom_site_fract_y
_atom_site_fract_z
Si Si1 0.611215 0.228700 0.000000
Si Si2 0.000000 0.000000 0.750000
Si Si3 0.347241 0.891606 0.744580
Si Si4 0.856932 0.143069 0.650118
Si Si5 0.765220 0.601823 0.000000
O O1 0.625641 0.161381 0.876325
O O2 0.684906 0.315095 0.000000
O O3 0.505762 0.276749 0.000000
O O4 0.937455 0.062546 0.650809
O O5 0.233647 0.896838 0.727584
O O6 0.391106 0.832162 0.625986
O O7 0.387979 0.000000 0.750000
O O8 0.829823 0.170178 0.500000
O O9 0.678886 0.678886 0.000000
#
# Coordination Sequence:
#
# PCOD8316866 Si02
#       5
#     8   2  16   8   8
#     4  12  27  44  71 103 131 171 234 290 338 410
#     4  12  26  36  68 110 128 182 256 272 314 410
#     4  12  24  43  70  97 138 178 220 272 341 406
#     4  12  23  42  64  98 141 186 220 276 333 400
#     4  12  25  48  71  95 137 179 222 284 358 410
#
# _framework density 21.068515000000001
#
# number of rings (size 3 to 8) (size 9 to 14) (size 15 to 20)
#    0.000    0.000    7.619    2.571    0.000    4.952 
#    3.429    0.000    0.000    4.571    0.000    0.000 
#    0.000    0.000    0.000    0.000    0.000    0.000 
#
# Total GULP energy -520891.413077 kJ/mol
# GULP energy per Si atom -12402.176502 kJ/mol
# Density = 2.102056 g / cm^3
# Si number density = 21.068515 Si / 1000 Ang^3
#
#
#
# Elastic Constant Matrix: (Units=GPa)
#
#
# Indices 1 2 3 4 5 6 
#
# 1 186.1442 42.1229 62.4616 0.0000 0.0000 0.0000
# 2 42.1229 186.1554 62.4626 0.0000 0.0000 0.0000
# 3 62.4616 62.4626 177.2381 0.0000 0.0000 0.0000
# 4 0.0000 0.0000 0.0000 221.0007 0.0000 0.0000
# 5 0.0000 0.0000 0.0000 0.0000 220.7486 0.0000
# 6 0.0000 0.0000 0.0000 0.0000 0.0000 5.6738
#
#
#
# Elastic Compliance Matrix: (Units=1/GPa)
#
#
# Indices 1 2 3 4 5 6 
#
# 1 0.006186 -0.000758 -0.001913 0.000000 0.000000 0.000000
# 2 -0.000758 0.006185 -0.001913 0.000000 0.000000 0.000000
# 3 -0.001913 -0.001913 0.006990 0.000000 0.000000 0.000000
# 4 0.000000 0.000000 0.000000 0.004525 0.000000 0.000000
# 5 0.000000 0.000000 0.000000 0.000000 0.004530 0.000000
# 6 0.000000 0.000000 0.000000 0.000000 0.000000 0.176250
#
#
# Mechanical properties :
#
#
# Convention : Reuss Voigt Hill
#
# Bulk Modulus (GPa) = 98.09416 98.18133 98.13775
# Shear Modulus (GPa) = 23.01699 114.98398 69.00049
#
# Velocity S-wave (km/s) = 3.30886 7.39559 5.72902
# Velocity P-wave (km/s) = 7.82680 10.93748 9.51018
#
# Compressibility (1/GPa) = 0.01019429
#
# Stress axis : x y z
#
# Youngs Moduli (GPa) = 161.66792 161.67819 143.05514
#
# Poissons Ratio (x) = 0.12252 0.27364
# Poissons Ratio (y) = 0.12252 0.27362
# Poissons Ratio (z) = 0.30924 0.30924
#
# Static dielectric constant tensor:
#      x y z
#    x 3.973480 0.000000 0.000000 
#    y 0.000000 3.973490 0.000000 
#    z 0.000000 0.000000 3.683320 
# 
# 
# High freq. dielectric constant tensor:
#      x y z
#    x 1.834340 0.000000 0.000000 
#    y 0.000000 1.834340 0.000000 
#    z 0.000000 0.000000 1.838460 
# 
# From -- ./inp_files/611.got.cif
#   From: 2010.03.12/outbox.cif.g09.slc.cpg/sg132_1_cif.got.tgz:611.got - 2010.04.06 17:53:44.
