data_PCOD8316268
_publ_section_title
;
Structure prediction by ZEFSAII (Michael W. Deem and Ramdas Pophale) SiO2 
 PCOD8316268
Probable space group: P 42/M M C
;
_chemical_formula_sum "Si O2"
_cell_formula_units_Z 112
_cell_length_a 14.414367
_cell_length_b 14.414367
_cell_length_c 26.879282
_cell_angle_alpha 90.000000
_cell_angle_beta 90.000000
_cell_angle_gamma 90.000000
_cell_volume 5584.815293
_symmetry_space_group_name_H-M "P 42/M M C"
_symmetry_group_IT_number 131
_symmetry_cell_setting 'tetragonal'
loop_
_space_group_symop_operation_xyz
x,y,z
-x,-y,z
-y,x,1/2+z
y,-x,1/2+z
-x,y,-z
x,-y,-z
y,x,1/2-z
-y,-x,1/2-z
-x,-y,-z
x,y,-z
y,-x,1/2-z
-y,x,1/2-z
x,-y,z
-x,y,z
-y,-x,1/2+z
y,x,1/2+z
loop_
_atom_site_type_symbol
_atom_site_label
_atom_site_fract_x
_atom_site_fract_y
_atom_site_fract_z
Si Si1 0.610041 0.899644 0.444327
Si Si2 0.606078 0.279894 0.391989
Si Si3 0.256896 0.392220 0.223849
Si Si4 0.892055 0.271439 0.618539
Si Si5 0.255263 0.889871 0.234818
Si Si6 0.758431 0.609186 0.556623
Si Si7 0.898093 0.890189 0.944450
O O1 0.647336 0.883192 0.500000
O O2 0.500000 0.898531 0.443880
O O3 0.649012 0.818519 0.409624
O O4 0.645282 0.000000 0.424671
O O5 0.500000 0.291859 0.408690
O O6 0.617439 0.281762 0.333464
O O7 0.661390 0.361683 0.418646
O O8 0.344334 0.344334 0.250000
O O9 0.247615 0.500000 0.239868
O O10 0.160217 0.339816 0.236207
O O11 0.870679 0.272608 0.676797
O O12 0.842256 0.355435 0.590798
O O13 0.852435 0.175463 0.595533
O O14 0.000000 0.283079 0.607480
O O15 0.156934 0.843067 0.250000
O O16 0.252774 0.000000 0.246969
O O17 0.766231 0.646865 0.500000
O O18 0.763517 0.500000 0.556911
O O19 0.000000 0.849769 0.931191
O O20 0.902266 0.000000 0.941995
O O21 0.869052 0.858336 0.000000
#
# Coordination Sequence:
#
# PCOD8316268 Si02
#       7
#    16  16  16  16  16  16  16
#     4   8  14  27  50  80 112 143 173 206 249 313
#     4  10  21  38  60  83 111 149 185 225 286 351
#     4  10  22  40  61  85 113 146 191 250 306 356
#     4  10  21  38  59  81 111 154 196 234 283 339
#     4  10  22  39  59  85 118 157 199 245 296 349
#     4  11  24  39  57  84 116 150 191 239 285 333
#     4   8  14  27  50  79 108 138 175 221 271 324
#
# _framework density 20.054379999999998
#
# number of rings (size 3 to 8) (size 9 to 14) (size 15 to 20)
#    0.000    2.429    0.000    3.429    0.000    6.286 
#    0.000    7.857    0.000    2.571    0.000    0.000 
#    0.000    0.000    0.000    0.000    0.000    0.000 
#
# Total GULP energy -1388334.626272 kJ/mol
# GULP energy per Si atom -12395.844877 kJ/mol
# Density = 2.000874 g / cm^3
# Si number density = 20.054380 Si / 1000 Ang^3
#
#
#
# Elastic Constant Matrix: (Units=GPa)
#
#
# Indices 1 2 3 4 5 6 
#
# 1 112.7213 46.5676 42.4050 0.0000 0.0000 0.0000
# 2 46.5676 112.7206 42.4061 0.0000 0.0000 0.0000
# 3 42.4050 42.4061 96.5363 0.0000 0.0000 0.0000
# 4 0.0000 0.0000 0.0000 -31.6402 0.0000 0.0000
# 5 0.0000 0.0000 0.0000 0.0000 -31.6385 0.0000
# 6 0.0000 0.0000 0.0000 0.0000 0.0000 25.7974
#
#
#
# Elastic Compliance Matrix: (Units=1/GPa)
#
#
# Indices 1 2 3 4 5 6 
#
# 1 0.011655 -0.003461 -0.003599 0.000000 0.000000 0.000000
# 2 -0.003461 0.011656 -0.003600 0.000000 0.000000 0.000000
# 3 -0.003599 -0.003600 0.013521 0.000000 0.000000 0.000000
# 4 0.000000 0.000000 0.000000 -0.031605 0.000000 0.000000
# 5 0.000000 0.000000 0.000000 0.000000 -0.031607 0.000000
# 6 0.000000 0.000000 0.000000 0.000000 0.000000 0.038764
#
#
# Mechanical properties :
#
#
# Convention : Reuss Voigt Hill
#
# Bulk Modulus (GPa) = 64.46717 64.97061 64.71889
# Shear Modulus (GPa) = 128.62018 5.21036 66.91527
#
# Velocity S-wave (km/s) = 8.01717 1.61362 5.78268
# Velocity P-wave (km/s) = 10.85891 5.99493 8.77084
#
# Compressibility (1/GPa) = 0.01551177
#
# Stress axis : x y z
#
# Youngs Moduli (GPa) = 85.79766 85.79618 73.95802
#
# Poissons Ratio (x) = 0.29694 0.26621
# Poissons Ratio (y) = 0.29694 0.26623
# Poissons Ratio (z) = 0.30883 0.30884
#
# Static dielectric constant tensor:
#      x y z
#    x 3.734690 0.000000 0.000000 
#    y 0.000000 3.734700 0.000000 
#    z 0.000000 0.000000 3.737680 
# 
# 
# High freq. dielectric constant tensor:
#      x y z
#    x 1.783750 0.000000 0.000000 
#    y 0.000000 1.783750 0.000000 
#    z 0.000000 0.000000 1.785190 
# 
# From -- ./inp_files/11276.got.cif
#   From: 2010.03.12/outbox.cif.g09.slc.cpg/sg131_6_cif.got.tgz:11276.got - 2010.04.06 17:36:35.
