data_PCOD8316010
_publ_section_title
;
Structure prediction by ZEFSAII (Michael W. Deem and Ramdas Pophale) SiO2 
 PCOD8316010
Probable space group: P 42/M M C
;
_chemical_formula_sum "Si O2"
_cell_formula_units_Z 120
_cell_length_a 14.046791
_cell_length_b 14.046791
_cell_length_c 33.872263
_cell_angle_alpha 90.000000
_cell_angle_beta 90.000000
_cell_angle_gamma 90.000000
_cell_volume 6683.415385
_symmetry_space_group_name_H-M "P 42/M M C"
_symmetry_group_IT_number 131
_symmetry_cell_setting 'tetragonal'
loop_
_space_group_symop_operation_xyz
x,y,z
-x,-y,z
-y,x,1/2+z
y,-x,1/2+z
-x,y,-z
x,-y,-z
y,x,1/2-z
-y,-x,1/2-z
-x,-y,-z
x,y,-z
y,-x,1/2-z
-y,x,1/2-z
x,-y,z
-x,y,z
-y,-x,1/2+z
y,x,1/2+z
loop_
_atom_site_type_symbol
_atom_site_label
_atom_site_fract_x
_atom_site_fract_y
_atom_site_fract_z
Si Si1 0.887558 0.606609 0.243062
Si Si2 0.725017 0.886733 0.181229
Si Si3 0.606234 0.395838 0.953287
Si Si4 0.111192 0.394035 0.393404
Si Si5 0.887388 0.500000 0.044350
Si Si6 0.889929 0.742515 0.826774
Si Si7 0.109446 0.695440 0.083415
Si Si8 0.216472 0.722171 0.546568
O O1 0.842761 0.500000 0.243693
O O2 0.852009 0.667602 0.280351
O O3 0.856406 0.660259 0.203221
O O4 0.000000 0.597141 0.245215
O O5 0.663929 0.849364 0.144064
O O6 0.828078 0.837149 0.180083
O O7 0.742218 0.000000 0.180655
O O8 0.647025 0.500000 0.941072
O O9 0.500000 0.382904 0.935857
O O10 0.673893 0.313416 0.937111
O O11 0.601009 0.387387 0.000000
O O12 0.157123 0.500000 0.395119
O O13 0.130836 0.335500 0.433444
O O14 0.000000 0.405108 0.388496
O O15 0.853463 0.406265 0.067440
O O16 0.000000 0.500000 0.041427
O O17 0.842705 0.500000 0.000000
O O18 0.874763 0.698818 0.869950
O O19 0.000000 0.771321 0.819630
O O20 0.168894 0.778902 0.061566
O O21 0.000000 0.713287 0.072021
O O22 0.201478 0.717956 0.500000
#
# Coordination Sequence:
#
# PCOD8316010 Si02
#       8
#    16  16  16  16   8  16  16  16
#     4   9  18  32  54  82 111 142 173 208 254 311
#     4  10  19  35  56  80 110 144 181 216 261 323
#     4   8  15  28  45  67  95 124 157 203 262 325
#     4  10  21  37  56  77 103 136 178 232 286 330
#     4   9  18  32  50  72 101 145 193 229 270 322
#     4  10  20  34  53  81 114 144 178 221 267 315
#     4  10  21  35  51  75 110 146 181 226 273 321
#     4  11  21  33  52  75 101 135 179 229 278 331
#
# _framework density 17.954892999999998
#
# number of rings (size 3 to 8) (size 9 to 14) (size 15 to 20)
#    0.000    2.333    1.333    2.000    1.867    3.733 
#    0.000    0.667    0.000    2.800    0.000    0.933 
#    0.000    8.533    0.000    0.000    0.000    0.000 
#
# Total GULP energy -1487756.696311 kJ/mol
# GULP energy per Si atom -12397.972469 kJ/mol
# Density = 1.791403 g / cm^3
# Si number density = 17.954893 Si / 1000 Ang^3
#
#
#
# Elastic Constant Matrix: (Units=GPa)
#
#
# Indices 1 2 3 4 5 6 
#
# 1 71.5286 36.1704 40.3831 0.0000 0.0000 0.0000
# 2 36.1704 71.5286 40.3831 0.0000 0.0000 0.0000
# 3 40.3831 40.3831 125.3722 0.0000 0.0000 0.0000
# 4 0.0000 0.0000 0.0000 26.5015 0.0000 0.0000
# 5 0.0000 0.0000 0.0000 0.0000 26.5015 0.0000
# 6 0.0000 0.0000 0.0000 0.0000 0.0000 25.1700
#
#
#
# Elastic Compliance Matrix: (Units=1/GPa)
#
#
# Indices 1 2 3 4 5 6 
#
# 1 0.020262 -0.008020 -0.003943 0.000000 0.000000 0.000000
# 2 -0.008020 0.020262 -0.003943 0.000000 0.000000 0.000000
# 3 -0.003943 -0.003943 0.010517 0.000000 0.000000 0.000000
# 4 0.000000 0.000000 0.000000 0.037734 0.000000 0.000000
# 5 0.000000 0.000000 0.000000 0.000000 0.037734 0.000000
# 6 0.000000 0.000000 0.000000 0.000000 0.000000 0.039730
#
#
# Mechanical properties :
#
#
# Convention : Reuss Voigt Hill
#
# Bulk Modulus (GPa) = 52.00761 55.81140 53.90950
# Shear Modulus (GPa) = 24.45461 25.73412 25.09437
#
# Velocity S-wave (km/s) = 3.69454 3.78996 3.74255
# Velocity P-wave (km/s) = 6.87227 7.09249 6.98325
#
# Compressibility (1/GPa) = 0.01922795
#
# Stress axis : x y z
#
# Youngs Moduli (GPa) = 49.35312 49.35312 95.08798
#
# Poissons Ratio (x) = 0.39580 0.37496
# Poissons Ratio (y) = 0.39580 0.37496
# Poissons Ratio (z) = 0.19462 0.19462
#
# Static dielectric constant tensor:
#      x y z
#    x 3.352680 0.000000 0.000000 
#    y 0.000000 3.352680 0.000000 
#    z 0.000000 0.000000 3.305400 
# 
# 
# High freq. dielectric constant tensor:
#      x y z
#    x 1.685580 0.000000 0.000000 
#    y 0.000000 1.685580 0.000000 
#    z 0.000000 0.000000 1.691400 
# 
# From -- ./inp_files/13939.got.cif
#   From: 2010.03.12/outbox.cif.g09.slc.cpg/sg131_7_cif.got.tgz:13939.got - 2010.04.06 17:36:35.
