data_PCOD8316832
_publ_section_title
;
Structure prediction by ZEFSAII (Michael W. Deem and Ramdas Pophale) SiO2 
 PCOD8316832
Probable space group: P 42/M C M
;
_chemical_formula_sum "Si O2"
_cell_formula_units_Z 112
_cell_length_a 15.877914
_cell_length_b 15.877914
_cell_length_c 27.839655
_cell_angle_alpha 90.000000
_cell_angle_beta 90.000000
_cell_angle_gamma 90.000000
_cell_volume 7018.604002
_symmetry_space_group_name_H-M "P 42/M C M"
_symmetry_group_IT_number 132
_symmetry_cell_setting 'tetragonal'
loop_
_space_group_symop_operation_xyz
x,y,z
-y,x,1/2+z
-x,-y,z
y,-x,1/2+z
x,-y,1/2-z
-x,y,1/2-z
y,x,-z
-y,-x,-z
-x,-y,-z
y,-x,1/2-z
x,y,-z
-y,x,1/2-z
-x,y,1/2+z
x,-y,1/2+z
-y,-x,z
y,x,z
loop_
_atom_site_type_symbol
_atom_site_label
_atom_site_fract_x
_atom_site_fract_y
_atom_site_fract_z
Si Si1 0.369644 0.943771 0.055248
Si Si2 0.090313 0.768370 0.867048
Si Si3 0.728719 0.591232 0.768873
Si Si4 0.552052 0.121695 0.445057
Si Si5 0.146176 0.285583 0.734643
Si Si6 0.910368 0.226307 0.671148
Si Si7 0.354451 0.779138 0.370278
O O1 0.294070 0.907425 0.087607
O O2 0.452574 0.887947 0.063287
O O3 0.395157 0.038603 0.069326
O O4 0.339656 0.939097 0.000000
O O5 0.151738 0.848263 0.876309
O O6 0.116372 0.717021 0.819806
O O7 0.995561 0.798107 0.856783
O O8 0.705020 0.500000 0.750000
O O9 0.650651 0.650651 0.755397
O O10 0.814940 0.621958 0.743056
O O11 0.745518 0.590911 0.825764
O O12 0.570698 0.144153 0.500000
O O13 0.581508 0.198722 0.412544
O O14 0.220512 0.220512 0.746348
O O15 0.074315 0.261835 0.774294
O O16 0.860881 0.139120 0.672261
O O17 0.859929 0.298540 0.643201
O O18 0.294262 0.705739 0.389670
#
# Coordination Sequence:
#
# PCOD8316832 Si02
#       7
#    16  16  16  16  16  16  16
#     4   9  19  33  48  69  95 124 160 205 253 289
#     4  11  20  30  49  71  94 130 166 197 238 288
#     4   9  18  31  47  70 101 131 158 192 239 294
#     4   9  17  32  52  70  93 124 159 205 253 293
#     4   8  17  31  45  66  94 123 156 197 238 274
#     4   9  17  32  48  65  98 129 157 201 242 282
#     4   9  17  30  50  74  97 126 158 198 249 283
#
# _framework density 15.957589
#
# number of rings (size 3 to 8) (size 9 to 14) (size 15 to 20)
#    0.000    2.857    1.429    3.000    2.000    1.000 
#    0.000    0.000    0.000    3.857    0.000    1.000 
#    0.000    0.000    0.000    6.286    0.000    0.000 
#
# Total GULP energy -1388113.588266 kJ/mol
# GULP energy per Si atom -12393.871324 kJ/mol
# Density = 1.592127 g / cm^3
# Si number density = 15.957589 Si / 1000 Ang^3
#
#
#
# Elastic Constant Matrix: (Units=GPa)
#
#
# Indices 1 2 3 4 5 6 
#
# 1 84.5074 39.7961 49.3379 0.0000 0.0000 0.0000
# 2 39.7961 84.5074 49.3379 0.0000 0.0000 0.0000
# 3 49.3379 49.3379 90.0564 0.0000 0.0000 0.0000
# 4 0.0000 0.0000 0.0000 28.6105 0.0000 0.0000
# 5 0.0000 0.0000 0.0000 0.0000 28.6105 0.0000
# 6 0.0000 0.0000 0.0000 0.0000 0.0000 20.9037
#
#
#
# Elastic Compliance Matrix: (Units=1/GPa)
#
#
# Indices 1 2 3 4 5 6 
#
# 1 0.018301 -0.004065 -0.007799 0.000000 0.000000 0.000000
# 2 -0.004065 0.018301 -0.007799 0.000000 0.000000 0.000000
# 3 -0.007799 -0.007799 0.019650 0.000000 0.000000 0.000000
# 4 0.000000 0.000000 0.000000 0.034952 0.000000 0.000000
# 5 0.000000 0.000000 0.000000 0.000000 0.034952 0.000000
# 6 0.000000 0.000000 0.000000 0.000000 0.000000 0.047839
#
#
# Mechanical properties :
#
#
# Convention : Reuss Voigt Hill
#
# Bulk Modulus (GPa) = 59.08454 59.55722 59.32088
# Shear Modulus (GPa) = 22.83485 23.66489 23.24987
#
# Velocity S-wave (km/s) = 3.78692 3.85513 3.82118
# Velocity P-wave (km/s) = 7.49849 7.56434 7.53149
#
# Compressibility (1/GPa) = 0.01692490
#
# Stress axis : x y z
#
# Youngs Moduli (GPa) = 54.64187 54.64187 50.89050
#
# Poissons Ratio (x) = 0.22211 0.39691
# Poissons Ratio (y) = 0.22211 0.39691
# Poissons Ratio (z) = 0.42617 0.42617
#
# Static dielectric constant tensor:
#      x y z
#    x 2.864920 0.000000 0.000000 
#    y 0.000000 2.864920 0.000000 
#    z 0.000000 0.000000 2.978970 
# 
# 
# High freq. dielectric constant tensor:
#      x y z
#    x 1.598570 0.000000 0.000000 
#    y 0.000000 1.598570 0.000000 
#    z 0.000000 0.000000 1.614070 
# 
# From -- ./inp_files/10031.got.cif
#   From: 2010.03.12/outbox.cif.g09.slc.cpg/sg132_6_cif.got.tgz:10031.got - 2010.04.06 17:53:44.
