data_PCOD8316163
_publ_section_title
;
Structure prediction by ZEFSAII (Michael W. Deem and Ramdas Pophale) SiO2 
 PCOD8316163
Probable space group: P 42/M M C
;
_chemical_formula_sum "Si O2"
_cell_formula_units_Z 112
_cell_length_a 14.408682
_cell_length_b 14.408682
_cell_length_c 28.453036
_cell_angle_alpha 90.000000
_cell_angle_beta 90.000000
_cell_angle_gamma 90.000000
_cell_volume 5907.138132
_symmetry_space_group_name_H-M "P 42/M M C"
_symmetry_group_IT_number 131
_symmetry_cell_setting 'tetragonal'
loop_
_space_group_symop_operation_xyz
x,y,z
-x,-y,z
-y,x,1/2+z
y,-x,1/2+z
-x,y,-z
x,-y,-z
y,x,1/2-z
-y,-x,1/2-z
-x,-y,-z
x,y,-z
y,-x,1/2-z
-y,x,1/2-z
x,-y,z
-x,y,z
-y,-x,1/2+z
y,x,1/2+z
loop_
_atom_site_type_symbol
_atom_site_label
_atom_site_fract_x
_atom_site_fract_y
_atom_site_fract_z
Si Si1 0.250618 0.108928 0.551706
Si Si2 0.110038 0.602520 0.447003
Si Si3 0.895724 0.393340 0.128569
Si Si4 0.764920 0.397733 0.293553
Si Si5 0.601333 0.720370 0.312757
Si Si6 0.108205 0.770447 0.286371
Si Si7 0.892804 0.780684 0.606288
O O1 0.262664 0.153291 0.500000
O O2 0.338234 0.138967 0.582922
O O3 0.156109 0.142277 0.575248
O O4 0.243937 0.000000 0.547612
O O5 0.142580 0.629608 0.500000
O O6 0.149341 0.500000 0.433644
O O7 0.146051 0.678167 0.408726
O O8 0.000000 0.598433 0.445643
O O9 0.894857 0.500000 0.113895
O O10 0.824265 0.371821 0.170494
O O11 0.000000 0.363132 0.144586
O O12 0.790300 0.500000 0.313868
O O13 0.721128 0.409066 0.242662
O O14 0.685477 0.349307 0.326452
O O15 0.857372 0.335893 0.288098
O O16 0.500000 0.690123 0.334098
O O17 0.167895 0.832106 0.250000
O O18 0.123657 0.806863 0.339278
O O19 0.000000 0.773621 0.271808
O O20 0.000000 0.785501 0.593203
#
# Coordination Sequence:
#
# PCOD8316163 Si02
#       7
#    16  16  16  16  16  16  16
#     4  10  21  34  51  78 107 137 175 221 275 330
#     4   8  14  27  50  79 108 137 169 205 249 310
#     4   9  18  33  54  78 105 139 179 224 271 320
#     4  10  20  35  54  80 112 143 177 221 275 328
#     4   9  17  32  54  80 109 143 182 219 264 324
#     4  11  24  41  58  78 106 144 192 243 289 333
#     4  10  21  36  54  75 104 144 180 216 271 329
#
# _framework density 18.960113
#
# number of rings (size 3 to 8) (size 9 to 14) (size 15 to 20)
#    0.000    2.429    1.429    1.714    0.000    3.857 
#    0.000    7.857    0.000    0.000    0.000    0.000 
#    0.000    0.000    0.000   10.429    0.000    0.571 
#
# Total GULP energy -1387866.956958 kJ/mol
# GULP energy per Si atom -12391.669259 kJ/mol
# Density = 1.891696 g / cm^3
# Si number density = 18.960113 Si / 1000 Ang^3
#
#
#
# Elastic Constant Matrix: (Units=GPa)
#
#
# Indices 1 2 3 4 5 6 
#
# 1 79.5576 55.1823 35.3453 0.0000 0.0000 0.0000
# 2 55.1823 79.5586 35.3454 0.0000 0.0000 0.0000
# 3 35.3453 35.3454 75.9450 0.0000 0.0000 0.0000
# 4 0.0000 0.0000 0.0000 22.5977 0.0000 0.0000
# 5 0.0000 0.0000 0.0000 0.0000 22.5977 0.0000
# 6 0.0000 0.0000 0.0000 0.0000 0.0000 24.1576
#
#
#
# Elastic Compliance Matrix: (Units=1/GPa)
#
#
# Indices 1 2 3 4 5 6 
#
# 1 0.025422 -0.015603 -0.004570 0.000000 0.000000 0.000000
# 2 -0.015603 0.025422 -0.004570 0.000000 0.000000 0.000000
# 3 -0.004570 -0.004570 0.017421 0.000000 0.000000 0.000000
# 4 0.000000 0.000000 0.000000 0.044252 0.000000 0.000000
# 5 0.000000 0.000000 0.000000 0.000000 0.044252 0.000000
# 6 0.000000 0.000000 0.000000 0.000000 0.000000 0.041395
#
#
# Mechanical properties :
#
#
# Convention : Reuss Voigt Hill
#
# Bulk Modulus (GPa) = 53.24838 54.08970 53.66904
# Shear Modulus (GPa) = 19.69209 21.14982 20.42096
#
# Velocity S-wave (km/s) = 3.22624 3.34352 3.28540
# Velocity P-wave (km/s) = 6.48256 6.59512 6.53908
#
# Compressibility (1/GPa) = 0.01877991
#
# Stress axis : x y z
#
# Youngs Moduli (GPa) = 39.33601 39.33653 57.40132
#
# Poissons Ratio (x) = 0.61375 0.26232
# Poissons Ratio (y) = 0.61374 0.26232
# Poissons Ratio (z) = 0.17977 0.17977
#
# Static dielectric constant tensor:
#      x y z
#    x 3.636150 0.000000 0.000000 
#    y 0.000000 3.636150 0.000000 
#    z 0.000000 0.000000 3.583250 
# 
# 
# High freq. dielectric constant tensor:
#      x y z
#    x 1.729050 0.000000 0.000000 
#    y 0.000000 1.729050 0.000000 
#    z 0.000000 0.000000 1.724670 
# 
# From -- ./inp_files/13825.got.cif
#   From: 2010.03.12/outbox.cif.g09.slc.cpg/sg131_7_cif.got.tgz:13825.got - 2010.04.06 17:36:35.
