data_PCOD8316112
_publ_section_title
;
Structure prediction by ZEFSAII (Michael W. Deem and Ramdas Pophale) SiO2 
 PCOD8316112
Probable space group: P 42/M M C
;
_chemical_formula_sum "Si O2"
_cell_formula_units_Z 96
_cell_length_a 23.834918
_cell_length_b 23.834918
_cell_length_c 9.422675
_cell_angle_alpha 90.000000
_cell_angle_beta 90.000000
_cell_angle_gamma 90.000000
_cell_volume 5353.052914
_symmetry_space_group_name_H-M "P 42/M M C"
_symmetry_group_IT_number 131
_symmetry_cell_setting 'tetragonal'
loop_
_space_group_symop_operation_xyz
x,y,z
-x,-y,z
-y,x,1/2+z
y,-x,1/2+z
-x,y,-z
x,-y,-z
y,x,1/2-z
-y,-x,1/2-z
-x,-y,-z
x,y,-z
y,-x,1/2-z
-y,x,1/2-z
x,-y,z
-x,y,z
-y,-x,1/2+z
y,x,1/2+z
loop_
_atom_site_type_symbol
_atom_site_label
_atom_site_fract_x
_atom_site_fract_y
_atom_site_fract_z
Si Si1 0.266656 0.655090 0.834274
Si Si2 0.642345 0.435718 0.834925
Si Si3 0.433989 0.937476 0.160015
Si Si4 0.142433 0.934090 0.838366
Si Si5 0.935463 0.749162 0.836487
Si Si6 0.861024 0.356787 0.165848
O O1 0.292990 0.707011 0.750000
O O2 0.300551 0.597977 0.799999
O O3 0.202966 0.647915 0.781614
O O4 0.269057 0.669898 0.000000
O O5 0.590106 0.409895 0.750000
O O6 0.651501 0.500000 0.787884
O O7 0.627326 0.431284 0.000000
O O8 0.500000 0.930172 0.164900
O O9 0.409018 0.889726 0.258885
O O10 0.417213 0.000000 0.213686
O O11 0.411786 0.929234 0.000000
O O12 0.091748 0.908253 0.750000
O O13 0.200298 0.916724 0.764080
O O14 0.133438 0.000000 0.833725
O O15 0.142699 0.911801 0.000000
O O16 0.895219 0.698612 0.792927
O O17 0.000000 0.731644 0.808985
O O18 0.926747 0.766973 0.000000
O O19 0.863370 0.368886 0.000000
#
# Coordination Sequence:
#
# PCOD8316112 Si02
#       6
#    16  16  16  16  16  16
#     4   9  19  35  52  72 101 134 167 205 249 297
#     4   9  18  33  52  73  99 131 164 200 244 291
#     4   9  19  35  52  73 105 141 174 211 255 302
#     4  10  21  36  54  76 101 131 167 205 250 305
#     4   9  18  33  51  72 101 132 163 206 255 299
#     4  10  20  33  53  80 104 131 171 214 255 301
#
# _framework density 17.933693000000002
#
# number of rings (size 3 to 8) (size 9 to 14) (size 15 to 20)
#    0.000    2.667    0.000    1.500    0.000    5.667 
#    0.000    7.500    0.000    0.000    0.000    0.000 
#    0.000    0.000    0.000    0.000    0.000    0.000 
#
# Total GULP energy -1190540.972174 kJ/mol
# GULP energy per Si atom -12401.468460 kJ/mol
# Density = 1.789287 g / cm^3
# Si number density = 17.933693 Si / 1000 Ang^3
#
#
#
# Elastic Constant Matrix: (Units=GPa)
#
#
# Indices 1 2 3 4 5 6 
#
# 1 108.9678 58.3703 46.2789 0.0000 0.0000 0.0000
# 2 58.3703 108.9579 46.2770 0.0000 0.0000 0.0000
# 3 46.2789 46.2770 68.4204 0.0000 0.0000 0.0000
# 4 0.0000 0.0000 0.0000 30.6495 0.0000 0.0000
# 5 0.0000 0.0000 0.0000 0.0000 30.6500 0.0000
# 6 0.0000 0.0000 0.0000 0.0000 0.0000 13.1789
#
#
#
# Elastic Compliance Matrix: (Units=1/GPa)
#
#
# Indices 1 2 3 4 5 6 
#
# 1 0.014656 -0.005109 -0.006458 0.000000 0.000000 0.000000
# 2 -0.005109 0.014658 -0.006458 0.000000 0.000000 0.000000
# 3 -0.006458 -0.006458 0.023352 0.000000 0.000000 0.000000
# 4 0.000000 0.000000 0.000000 0.032627 0.000000 0.000000
# 5 0.000000 0.000000 0.000000 0.000000 0.032626 0.000000
# 6 0.000000 0.000000 0.000000 0.000000 0.000000 0.075879
#
#
# Mechanical properties :
#
#
# Convention : Reuss Voigt Hill
#
# Bulk Modulus (GPa) = 60.18453 65.35536 62.76995
# Shear Modulus (GPa) = 21.24158 23.92366 22.58262
#
# Velocity S-wave (km/s) = 3.44532 3.65637 3.55241
# Velocity P-wave (km/s) = 7.03273 7.37206 7.20439
#
# Compressibility (1/GPa) = 0.01661557
#
# Stress axis : x y z
#
# Youngs Moduli (GPa) = 68.22981 68.22337 42.82299
#
# Poissons Ratio (x) = 0.34853 0.27655
# Poissons Ratio (y) = 0.34857 0.27657
# Poissons Ratio (z) = 0.44063 0.44062
#
# Static dielectric constant tensor:
#      x y z
#    x 3.306810 0.000000 0.000000 
#    y 0.000000 3.306810 0.000000 
#    z 0.000000 0.000000 3.370950 
# 
# 
# High freq. dielectric constant tensor:
#      x y z
#    x 1.693580 0.000000 0.000000 
#    y 0.000000 1.693580 0.000000 
#    z 0.000000 0.000000 1.693720 
# 
# From -- ./inp_files/2213.got.cif
#   From: 2010.03.12/outbox.cif.g09.slc.cpg/sg131_2_cif.got.tgz:2213.got - 2010.04.06 17:36:35.
