data_PCOD8316648
_publ_section_title
;
Structure prediction by ZEFSAII (Michael W. Deem and Ramdas Pophale) SiO2 
 PCOD8316648
Probable space group: P 42/M C M
;
_chemical_formula_sum "Si O2"
_cell_formula_units_Z 80
_cell_length_a 16.667838
_cell_length_b 16.667838
_cell_length_c 17.661740
_cell_angle_alpha 90.000000
_cell_angle_beta 90.000000
_cell_angle_gamma 90.000000
_cell_volume 4906.728506
_symmetry_space_group_name_H-M "P 42/M C M"
_symmetry_group_IT_number 132
_symmetry_cell_setting 'tetragonal'
loop_
_space_group_symop_operation_xyz
x,y,z
-y,x,1/2+z
-x,-y,z
y,-x,1/2+z
x,-y,1/2-z
-x,y,1/2-z
y,x,-z
-y,-x,-z
-x,-y,-z
y,-x,1/2-z
x,y,-z
-y,x,1/2-z
-x,y,1/2+z
x,-y,1/2+z
-y,-x,z
y,x,z
loop_
_atom_site_type_symbol
_atom_site_label
_atom_site_fract_x
_atom_site_fract_y
_atom_site_fract_z
Si Si1 0.896915 0.579953 0.086602
Si Si2 0.389831 0.261642 0.172788
Si Si3 0.393604 0.926493 0.912895
Si Si4 0.533777 0.661933 0.413254
Si Si5 0.774684 0.351214 0.162122
O O1 0.823859 0.616473 0.132659
O O2 0.899531 0.485050 0.096986
O O3 0.981592 0.617682 0.114314
O O4 0.882733 0.602677 0.000000
O O5 0.305623 0.305623 0.158886
O O6 0.459452 0.320375 0.141958
O O7 0.401947 0.243030 0.261644
O O8 0.341765 0.868705 0.858192
O O9 0.366457 0.917959 0.000000
O O10 0.503398 0.661111 0.500000
O O11 0.576619 0.576619 0.392572
O O12 0.599212 0.732492 0.405312
O O13 0.737978 0.262023 0.168369
#
# Coordination Sequence:
#
# PCOD8316648 Si02
#       5
#    16  16  16  16  16
#     4   9  18  31  48  71  93 118 154 192 233 278
#     4  11  22  33  46  67  96 125 157 196 235 280
#     4   9  17  31  51  71  92 117 152 195 232 279
#     4  10  20  33  48  64  85 119 164 205 236 269
#     4  10  20  32  47  69  95 121 152 193 239 279
#
# _framework density 16.304141999999999
#
# number of rings (size 3 to 8) (size 9 to 14) (size 15 to 20)
#    0.000    2.200    2.000    3.000    0.000    4.000 
#    0.000    3.000    0.000    3.600    0.000    0.000 
#    0.000    0.800    0.000    8.800    0.000    6.400 
#
# Total GULP energy -991641.186627 kJ/mol
# GULP energy per Si atom -12395.514833 kJ/mol
# Density = 1.626703 g / cm^3
# Si number density = 16.304142 Si / 1000 Ang^3
#
#
#
# Elastic Constant Matrix: (Units=GPa)
#
#
# Indices 1 2 3 4 5 6 
#
# 1 90.1549 45.9110 47.6432 0.0000 0.0000 0.0000
# 2 45.9110 90.1549 47.6432 0.0000 0.0000 0.0000
# 3 47.6432 47.6432 79.6584 0.0000 0.0000 0.0000
# 4 0.0000 0.0000 0.0000 24.8466 0.0000 0.0000
# 5 0.0000 0.0000 0.0000 0.0000 24.8466 0.0000
# 6 0.0000 0.0000 0.0000 0.0000 0.0000 15.4612
#
#
#
# Elastic Compliance Matrix: (Units=1/GPa)
#
#
# Indices 1 2 3 4 5 6 
#
# 1 0.017624 -0.004978 -0.007564 0.000000 0.000000 0.000000
# 2 -0.004978 0.017624 -0.007564 0.000000 0.000000 0.000000
# 3 -0.007564 -0.007564 0.021601 0.000000 0.000000 0.000000
# 4 0.000000 0.000000 0.000000 0.040247 0.000000 0.000000
# 5 0.000000 0.000000 0.000000 0.000000 0.040247 0.000000
# 6 0.000000 0.000000 0.000000 0.000000 0.000000 0.064678
#
#
# Mechanical properties :
#
#
# Convention : Reuss Voigt Hill
#
# Bulk Modulus (GPa) = 60.09967 60.26253 60.18110
# Shear Modulus (GPa) = 20.17939 20.94893 20.56416
#
# Velocity S-wave (km/s) = 3.52189 3.58842 3.55531
# Velocity P-wave (km/s) = 7.31300 7.36279 7.33794
#
# Compressibility (1/GPa) = 0.01663903
#
# Stress axis : x y z
#
# Youngs Moduli (GPa) = 56.74065 56.74065 46.29413
#
# Poissons Ratio (x) = 0.28245 0.35015
# Poissons Ratio (y) = 0.28245 0.35015
# Poissons Ratio (z) = 0.42916 0.42916
#
# Static dielectric constant tensor:
#      x y z
#    x 3.020210 0.000000 0.000000 
#    y 0.000000 3.020210 0.000000 
#    z 0.000000 0.000000 3.108980 
# 
# 
# High freq. dielectric constant tensor:
#      x y z
#    x 1.601840 0.000000 0.000000 
#    y 0.000000 1.601840 0.000000 
#    z 0.000000 0.000000 1.634040 
# 
# From -- ./inp_files/4634.got.cif
#   From: 2010.03.12/outbox.cif.g09.slc.cpg/sg132_3_cif.got.tgz:4634.got - 2010.04.06 17:53:44.
