data_PCOD8316250
_publ_section_title
;
Structure prediction by ZEFSAII (Michael W. Deem and Ramdas Pophale) SiO2 
 PCOD8316250
Probable space group: P 42/M M C
;
_chemical_formula_sum "Si O2"
_cell_formula_units_Z 56
_cell_length_a 14.370843
_cell_length_b 14.370843
_cell_length_c 13.801246
_cell_angle_alpha 90.000000
_cell_angle_beta 90.000000
_cell_angle_gamma 90.000000
_cell_volume 2850.248899
_symmetry_space_group_name_H-M "P 42/M M C"
_symmetry_group_IT_number 131
_symmetry_cell_setting 'tetragonal'
loop_
_space_group_symop_operation_xyz
x,y,z
-x,-y,z
-y,x,1/2+z
y,-x,1/2+z
-x,y,-z
x,-y,-z
y,x,1/2-z
-y,-x,1/2-z
-x,-y,-z
x,y,-z
y,-x,1/2-z
-y,x,1/2-z
x,-y,z
-x,y,z
-y,-x,1/2+z
y,x,1/2+z
loop_
_atom_site_type_symbol
_atom_site_label
_atom_site_fract_x
_atom_site_fract_y
_atom_site_fract_z
Si Si1 0.391086 0.812895 0.288524
Si Si2 0.228443 0.724583 0.614101
Si Si3 0.000000 0.390842 0.892619
Si Si4 0.896890 0.103570 0.113564
O O1 0.500000 0.792203 0.298682
O O2 0.335751 0.736980 0.353060
O O3 0.362781 0.811373 0.174831
O O4 0.360052 0.911082 0.332344
O O5 0.219986 0.703585 0.500000
O O6 0.172902 0.816651 0.649649
O O7 0.000000 0.500000 0.907895
O O8 0.000000 0.342943 0.000000
O O9 0.000000 0.141508 0.142388
O O10 0.882227 0.000000 0.158717
O O11 0.888890 0.094559 0.000000
#
# Coordination Sequence:
#
# PCOD8316250 Si02
#       4
#    16  16   8  16
#     4  10  22  38  55  83 118 149 192 243 288 342
#     4  10  21  36  59  86 112 152 195 238 294 350
#     4   9  18  34  57  81 110 151 191 231 281 336
#     4   8  15  29  50  78 113 150 186 227 273 327
#
# _framework density 19.647406
#
# number of rings (size 3 to 8) (size 9 to 14) (size 15 to 20)
#    0.000    2.714    0.000    1.714    4.000    2.286 
#    0.000    0.000    0.000   16.286    0.000    8.000 
#    0.000    0.000    0.000    0.000    0.000    0.000 
#
# Total GULP energy -693968.484575 kJ/mol
# GULP energy per Si atom -12392.294367 kJ/mol
# Density = 1.960269 g / cm^3
# Si number density = 19.647406 Si / 1000 Ang^3
#
#
#
# Elastic Constant Matrix: (Units=GPa)
#
#
# Indices 1 2 3 4 5 6 
#
# 1 89.9163 37.7903 37.0728 0.0000 0.0000 0.0000
# 2 37.7903 89.9163 37.0728 0.0000 0.0000 0.0000
# 3 37.0728 37.0728 156.4059 0.0000 0.0000 0.0000
# 4 0.0000 0.0000 0.0000 17.9581 0.0000 0.0000
# 5 0.0000 0.0000 0.0000 0.0000 17.9581 0.0000
# 6 0.0000 0.0000 0.0000 0.0000 0.0000 22.3397
#
#
#
# Elastic Compliance Matrix: (Units=1/GPa)
#
#
# Indices 1 2 3 4 5 6 
#
# 1 0.014132 -0.005052 -0.002152 0.000000 0.000000 0.000000
# 2 -0.005052 0.014132 -0.002152 0.000000 0.000000 0.000000
# 3 -0.002152 -0.002152 0.007414 0.000000 0.000000 0.000000
# 4 0.000000 0.000000 0.000000 0.055685 0.000000 0.000000
# 5 0.000000 0.000000 0.000000 0.000000 0.055685 0.000000
# 6 0.000000 0.000000 0.000000 0.000000 0.000000 0.044763
#
#
# Mechanical properties :
#
#
# Convention : Reuss Voigt Hill
#
# Bulk Modulus (GPa) = 58.94484 62.23449 60.58966
# Shear Modulus (GPa) = 23.12883 26.60467 24.86675
#
# Velocity S-wave (km/s) = 3.43475 3.68381 3.56146
# Velocity P-wave (km/s) = 6.76731 7.05963 6.91501
#
# Compressibility (1/GPa) = 0.01696501
#
# Stress axis : x y z
#
# Youngs Moduli (GPa) = 70.76064 70.76064 134.88172
#
# Poissons Ratio (x) = 0.35749 0.29030
# Poissons Ratio (y) = 0.35749 0.29030
# Poissons Ratio (z) = 0.15229 0.15229
#
# Static dielectric constant tensor:
#      x y z
#    x 3.560640 0.000000 0.000000 
#    y 0.000000 3.560640 0.000000 
#    z 0.000000 0.000000 3.596580 
# 
# 
# High freq. dielectric constant tensor:
#      x y z
#    x 1.748110 0.000000 0.000000 
#    y 0.000000 1.748110 0.000000 
#    z 0.000000 0.000000 1.778310 
# 
# From -- ./inp_files/5251.got.cif
#   From: 2010.03.12/outbox.cif.g09.slc.cpg/sg131_3_cif.got.tgz:5251.got - 2010.04.06 17:36:35.
