data_PCOD8316734
_publ_section_title
;
Structure prediction by ZEFSAII (Michael W. Deem and Ramdas Pophale) SiO2 
 PCOD8316734
Probable space group: P 42/M C M
;
_chemical_formula_sum "Si O2"
_cell_formula_units_Z 72
_cell_length_a 15.821367
_cell_length_b 15.821367
_cell_length_c 15.108143
_cell_angle_alpha 90.000000
_cell_angle_beta 90.000000
_cell_angle_gamma 90.000000
_cell_volume 3781.804692
_symmetry_space_group_name_H-M "P 42/M C M"
_symmetry_group_IT_number 132
_symmetry_cell_setting 'tetragonal'
loop_
_space_group_symop_operation_xyz
x,y,z
-y,x,1/2+z
-x,-y,z
y,-x,1/2+z
x,-y,1/2-z
-x,y,1/2-z
y,x,-z
-y,-x,-z
-x,-y,-z
y,-x,1/2-z
x,y,-z
-y,x,1/2-z
-x,y,1/2+z
x,-y,1/2+z
-y,-x,z
y,x,z
loop_
_atom_site_type_symbol
_atom_site_label
_atom_site_fract_x
_atom_site_fract_y
_atom_site_fract_z
Si Si1 0.180850 0.316479 0.642418
Si Si2 0.805270 0.332016 0.657957
Si Si3 0.432491 0.567510 0.894617
Si Si4 0.109356 0.250066 0.000000
Si Si5 0.509815 0.748512 0.398267
Si Si6 0.917210 0.219692 0.000000
O O1 0.270139 0.270139 0.621623
O O2 0.157772 0.309637 0.745803
O O3 0.186284 0.413056 0.610750
O O4 0.107255 0.271347 0.587867
O O5 0.719819 0.280182 0.637181
O O6 0.876620 0.308570 0.586278
O O7 0.783079 0.430950 0.657087
O O8 0.500000 0.500000 0.859940
O O9 0.341150 0.539721 0.857737
O O10 0.428553 0.571448 0.000000
O O11 0.017213 0.208813 0.000000
O O12 0.171825 0.171825 0.000000
O O13 0.481214 0.739508 0.500000
O O14 0.872086 0.127915 0.000000
#
# Coordination Sequence:
#
# PCOD8316734 Si02
#       6
#    16  16   8   8  16   8
#     4  10  20  36  57  83 114 156 199 236 279 329
#     4  10  21  36  57  81 117 161 196 234 280 337
#     4   9  18  26  44  78 112 151 199 253 288 318
#     4  10  22  42  63  90 117 141 176 228 290 358
#     4  11  18  31  54  78 114 157 204 243 281 320
#     4  10  22  40  67  91 112 140 179 229 291 358
#
# _framework density 19.038530000000002
#
# number of rings (size 3 to 8) (size 9 to 14) (size 15 to 20)
#    0.000    1.889    3.333    1.333    0.000    2.000 
#    0.000    2.222    0.000    2.667    0.000    6.222 
#    0.000    0.000    0.000    0.000    0.000    0.000 
#
# Total GULP energy -893070.326283 kJ/mol
# GULP energy per Si atom -12403.754532 kJ/mol
# Density = 1.899520 g / cm^3
# Si number density = 19.038530 Si / 1000 Ang^3
#
#
#
# Elastic Constant Matrix: (Units=GPa)
#
#
# Indices 1 2 3 4 5 6 
#
# 1 103.9200 32.1351 29.5385 0.0000 0.0000 0.0000
# 2 32.1351 103.9202 29.5385 0.0000 0.0000 0.0000
# 3 29.5385 29.5385 104.6608 0.0000 0.0000 0.0000
# 4 0.0000 0.0000 0.0000 17.3447 0.0000 0.0000
# 5 0.0000 0.0000 0.0000 0.0000 17.3446 0.0000
# 6 0.0000 0.0000 0.0000 0.0000 0.0000 17.2758
#
#
#
# Elastic Compliance Matrix: (Units=1/GPa)
#
#
# Indices 1 2 3 4 5 6 
#
# 1 0.011154 -0.002777 -0.002364 0.000000 0.000000 0.000000
# 2 -0.002777 0.011153 -0.002364 0.000000 0.000000 0.000000
# 3 -0.002364 -0.002364 0.010889 0.000000 0.000000 0.000000
# 4 0.000000 0.000000 0.000000 0.057655 0.000000 0.000000
# 5 0.000000 0.000000 0.000000 0.000000 0.057655 0.000000
# 6 0.000000 0.000000 0.000000 0.000000 0.000000 0.057885
#
#
# Mechanical properties :
#
#
# Convention : Reuss Voigt Hill
#
# Bulk Modulus (GPa) = 54.98834 54.99171 54.99002
# Shear Modulus (GPa) = 21.98164 25.14559 23.56362
#
# Velocity S-wave (km/s) = 3.40161 3.63819 3.52188
# Velocity P-wave (km/s) = 6.66133 6.82610 6.74422
#
# Compressibility (1/GPa) = 0.01818567
#
# Stress axis : x y z
#
# Youngs Moduli (GPa) = 89.65795 89.65815 91.83479
#
# Poissons Ratio (x) = 0.24898 0.21711
# Poissons Ratio (y) = 0.24898 0.21711
# Poissons Ratio (z) = 0.21196 0.21196
#
# Static dielectric constant tensor:
#      x y z
#    x 3.210660 0.000000 0.000000 
#    y 0.000000 3.210660 0.000000 
#    z 0.000000 0.000000 3.539310 
# 
# 
# High freq. dielectric constant tensor:
#      x y z
#    x 1.717700 0.000000 0.000000 
#    y 0.000000 1.717700 0.000000 
#    z 0.000000 0.000000 1.749320 
# 
# From -- ./inp_files/6181.got.cif
#   From: 2010.03.12/outbox.cif.g09.slc.cpg/sg132_4_cif.got.tgz:6181.got - 2010.04.06 17:53:44.
