data_PCOD8316462
_publ_section_title
;
Structure prediction by ZEFSAII (Michael W. Deem and Ramdas Pophale) SiO2 
 PCOD8316462
Probable space group: P 42/M C M
;
_chemical_formula_sum "Si O2"
_cell_formula_units_Z 96
_cell_length_a 19.163168
_cell_length_b 19.163168
_cell_length_c 17.530819
_cell_angle_alpha 90.000000
_cell_angle_beta 90.000000
_cell_angle_gamma 90.000000
_cell_volume 6437.790206
_symmetry_space_group_name_H-M "P 42/M C M"
_symmetry_group_IT_number 132
_symmetry_cell_setting 'tetragonal'
loop_
_space_group_symop_operation_xyz
x,y,z
-y,x,1/2+z
-x,-y,z
y,-x,1/2+z
x,-y,1/2-z
-x,y,1/2-z
y,x,-z
-y,-x,-z
-x,-y,-z
y,-x,1/2-z
x,y,-z
-y,x,1/2-z
-x,y,1/2+z
x,-y,1/2+z
-y,-x,z
y,x,z
loop_
_atom_site_type_symbol
_atom_site_label
_atom_site_fract_x
_atom_site_fract_y
_atom_site_fract_z
Si Si1 0.097147 0.628662 0.912853
Si Si2 0.509517 0.082464 0.334809
Si Si3 0.208890 0.902680 0.335787
Si Si4 0.129541 0.760159 0.168230
Si Si5 0.066119 0.351749 0.087359
Si Si6 0.970533 0.140728 0.911769
O O1 0.115264 0.549513 0.889404
O O2 0.139842 0.680170 0.857023
O O3 0.016362 0.646765 0.899654
O O4 0.119925 0.639439 0.000000
O O5 0.500000 0.112701 0.250000
O O6 0.586304 0.102745 0.364832
O O7 0.500000 0.000000 0.335677
O O8 0.171709 0.828292 0.347952
O O9 0.231974 0.912228 0.247876
O O10 0.277250 0.904246 0.387857
O O11 0.153105 0.962370 0.358717
O O12 0.205939 0.794062 0.175283
O O13 0.084923 0.797878 0.102431
O O14 0.085358 0.364613 0.000000
O O15 0.933886 0.066115 0.892317
O O16 0.993548 0.143322 0.000000
#
# Coordination Sequence:
#
# PCOD8316462 Si02
#       6
#    16  16  16  16  16  16
#     4  10  18  29  47  66  84 108 137 172 211 256
#     4   9  17  28  44  65  86 109 133 164 205 251
#     4  11  22  33  46  62  81 110 144 178 219 264
#     4  10  20  32  46  63  83 108 138 175 218 263
#     4  10  19  30  44  63  86 108 134 173 210 252
#     4  10  20  33  47  61  77 101 136 180 226 265
#
# _framework density 14.911949999999999
#
# number of rings (size 3 to 8) (size 9 to 14) (size 15 to 20)
#    0.000    2.000    1.667    3.000    0.000    6.000 
#    0.000    0.833    0.000    3.000    0.000    0.000 
#    0.000    0.000    0.000    0.000    0.000    0.833 
#
# Total GULP energy -1190352.116762 kJ/mol
# GULP energy per Si atom -12399.501216 kJ/mol
# Density = 1.487801 g / cm^3
# Si number density = 14.911950 Si / 1000 Ang^3
#
#
#
# Elastic Constant Matrix: (Units=GPa)
#
#
# Indices 1 2 3 4 5 6 
#
# 1 67.3703 28.8088 35.9369 0.0000 0.0000 0.0000
# 2 28.8088 67.3703 35.9369 0.0000 0.0000 0.0000
# 3 35.9369 35.9369 97.5322 0.0000 0.0000 0.0000
# 4 0.0000 0.0000 0.0000 21.0092 0.0000 0.0000
# 5 0.0000 0.0000 0.0000 0.0000 21.0092 0.0000
# 6 0.0000 0.0000 0.0000 0.0000 0.0000 8.2769
#
#
#
# Elastic Compliance Matrix: (Units=1/GPa)
#
#
# Indices 1 2 3 4 5 6 
#
# 1 0.020140 -0.005792 -0.005287 0.000000 0.000000 0.000000
# 2 -0.005792 0.020140 -0.005287 0.000000 0.000000 0.000000
# 3 -0.005287 -0.005287 0.014149 0.000000 0.000000 0.000000
# 4 0.000000 0.000000 0.000000 0.047598 0.000000 0.000000
# 5 0.000000 0.000000 0.000000 0.000000 0.047598 0.000000
# 6 0.000000 0.000000 0.000000 0.000000 0.000000 0.120819
#
#
# Mechanical properties :
#
#
# Convention : Reuss Voigt Hill
#
# Bulk Modulus (GPa) = 46.08695 48.18198 47.13446
# Shear Modulus (GPa) = 16.10780 18.83171 17.46975
#
# Velocity S-wave (km/s) = 3.29020 3.55753 3.42647
# Velocity P-wave (km/s) = 6.73847 7.01825 6.87978
#
# Compressibility (1/GPa) = 0.02169812
#
# Stress axis : x y z
#
# Youngs Moduli (GPa) = 49.65170 49.65170 70.67684
#
# Poissons Ratio (x) = 0.28760 0.37365
# Poissons Ratio (y) = 0.28760 0.37365
# Poissons Ratio (z) = 0.26249 0.26249
#
# Static dielectric constant tensor:
#      x y z
#    x 2.729730 0.000000 0.000000 
#    y 0.000000 2.729730 0.000000 
#    z 0.000000 0.000000 3.027510 
# 
# 
# High freq. dielectric constant tensor:
#      x y z
#    x 1.535560 0.000000 0.000000 
#    y 0.000000 1.535560 0.000000 
#    z 0.000000 0.000000 1.591500 
# 
# From -- ./inp_files/4973.got.cif
#   From: 2010.03.12/outbox.cif.g09.slc.cpg/sg132_3_cif.got.tgz:4973.got - 2010.04.06 17:53:44.
