data_PCOD8316058
_publ_section_title
;
Structure prediction by ZEFSAII (Michael W. Deem and Ramdas Pophale) SiO2 
 PCOD8316058
Probable space group: P 42/M M C
;
_chemical_formula_sum "Si O2"
_cell_formula_units_Z 88
_cell_length_a 18.776757
_cell_length_b 18.776757
_cell_length_c 13.275844
_cell_angle_alpha 90.000000
_cell_angle_beta 90.000000
_cell_angle_gamma 90.000000
_cell_volume 4680.619227
_symmetry_space_group_name_H-M "P 42/M M C"
_symmetry_group_IT_number 131
_symmetry_cell_setting 'tetragonal'
loop_
_space_group_symop_operation_xyz
x,y,z
-x,-y,z
-y,x,1/2+z
y,-x,1/2+z
-x,y,-z
x,-y,-z
y,x,1/2-z
-y,-x,1/2-z
-x,-y,-z
x,y,-z
y,-x,1/2-z
-y,x,1/2-z
x,-y,z
-x,y,z
-y,-x,1/2+z
y,x,1/2+z
loop_
_atom_site_type_symbol
_atom_site_label
_atom_site_fract_x
_atom_site_fract_y
_atom_site_fract_z
Si Si1 0.721107 0.577730 0.881544
Si Si2 0.580047 0.198332 0.117205
Si Si3 0.809544 0.691356 0.774565
Si Si4 0.919341 0.080660 0.750000
Si Si5 0.423036 0.360580 0.120167
Si Si6 0.917213 0.211386 0.885920
O O1 0.745662 0.500000 0.842284
O O2 0.779285 0.636394 0.855976
O O3 0.642619 0.594320 0.833646
O O4 0.711788 0.577090 0.000000
O O5 0.500000 0.166948 0.136381
O O6 0.644579 0.161652 0.179100
O O7 0.582368 0.279252 0.158872
O O8 0.599012 0.192252 0.000000
O O9 0.749848 0.749848 0.750000
O O10 0.877995 0.729308 0.820394
O O11 0.902101 0.132669 0.842731
O O12 0.000000 0.092019 0.710685
O O13 0.500000 0.393363 0.151321
O O14 0.417848 0.357322 0.000000
O O15 0.000000 0.230498 0.881760
O O16 0.888345 0.212085 0.000000
#
# Coordination Sequence:
#
# PCOD8316058 Si02
#       6
#    16  16  16   8  16  16
#     4  10  20  32  47  71 104 141 185 234 281 331
#     4   9  18  33  53  76 105 142 184 235 294 349
#     4  12  21  33  55  83 107 144 185 235 280 330
#     4   9  18  36  62  94 128 158 188 213 246 314
#     4   8  14  26  43  64  95 135 175 215 269 335
#     4  10  22  40  60  86 121 156 186 219 268 326
#
# _framework density 18.800930000000001
#
# number of rings (size 3 to 8) (size 9 to 14) (size 15 to 20)
#    0.000    2.273    2.727    2.182    0.000    1.455 
#    0.000    3.636    0.000    2.727    0.000    7.636 
#    0.000    0.000    0.000    0.000    0.000    0.000 
#
# Total GULP energy -1090829.281065 kJ/mol
# GULP energy per Si atom -12395.787285 kJ/mol
# Density = 1.875814 g / cm^3
# Si number density = 18.800930 Si / 1000 Ang^3
#
#
#
# Elastic Constant Matrix: (Units=GPa)
#
#
# Indices 1 2 3 4 5 6 
#
# 1 86.3961 58.9722 47.5304 0.0000 0.0000 0.0000
# 2 58.9722 86.3949 47.5306 0.0000 0.0000 0.0000
# 3 47.5304 47.5306 80.6148 0.0000 0.0000 0.0000
# 4 0.0000 0.0000 0.0000 28.0523 0.0000 0.0000
# 5 0.0000 0.0000 0.0000 0.0000 28.0518 0.0000
# 6 0.0000 0.0000 0.0000 0.0000 0.0000 29.5261
#
#
#
# Elastic Compliance Matrix: (Units=1/GPa)
#
#
# Indices 1 2 3 4 5 6 
#
# 1 0.023830 -0.012635 -0.006601 0.000000 0.000000 0.000000
# 2 -0.012635 0.023831 -0.006601 0.000000 0.000000 0.000000
# 3 -0.006601 -0.006601 0.020189 0.000000 0.000000 0.000000
# 4 0.000000 0.000000 0.000000 0.035648 0.000000 0.000000
# 5 0.000000 0.000000 0.000000 0.000000 0.035648 0.000000
# 6 0.000000 0.000000 0.000000 0.000000 0.000000 0.033868
#
#
# Mechanical properties :
#
#
# Convention : Reuss Voigt Hill
#
# Bulk Modulus (GPa) = 61.81989 62.38579 62.10284
# Shear Modulus (GPa) = 21.73160 23.75088 22.74124
#
# Velocity S-wave (km/s) = 3.40351 3.55812 3.48168
# Velocity P-wave (km/s) = 6.95686 7.08058 7.01899
#
# Compressibility (1/GPa) = 0.01617602
#
# Stress axis : x y z
#
# Youngs Moduli (GPa) = 41.96346 41.96241 49.53301
#
# Poissons Ratio (x) = 0.53019 0.32696
# Poissons Ratio (y) = 0.53020 0.32698
# Poissons Ratio (z) = 0.27699 0.27700
#
# Static dielectric constant tensor:
#      x y z
#    x 3.358740 0.000000 0.000000 
#    y 0.000000 3.358760 0.000000 
#    z 0.000000 0.000000 3.543790 
# 
# 
# High freq. dielectric constant tensor:
#      x y z
#    x 1.707890 0.000000 0.000000 
#    y 0.000000 1.707890 0.000000 
#    z 0.000000 0.000000 1.749200 
# 
# From -- ./inp_files/5922.got.cif
#   From: 2010.03.12/outbox.cif.g09.slc.cpg/sg131_3_cif.got.tgz:5922.got - 2010.04.06 17:36:35.
