data_PCOD8316991
_publ_section_title
;
Structure prediction by ZEFSAII (Michael W. Deem and Ramdas Pophale) SiO2 
 PCOD8316991
Probable space group: P 42/N B C
;
_chemical_formula_sum "Si O2"
_cell_formula_units_Z 60
_cell_length_a 10.043913
_cell_length_b 10.043913
_cell_length_c 26.521841
_cell_angle_alpha 90.000000
_cell_angle_beta 90.000000
_cell_angle_gamma 90.000000
_cell_volume 2675.528316
_symmetry_space_group_name_H-M "P 42/N B C"
_symmetry_group_IT_number 133
_space_group.IT_coordinate_system_code '2'
_symmetry_cell_setting 'tetragonal'
loop_
_space_group_symop_operation_xyz
x,y,z
1/2-y,x,1/2+z
1/2-x,1/2-y,z
y,1/2-x,1/2+z
x,1/2-y,-z
1/2-x,y,-z
y,x,1/2-z
1/2-y,1/2-x,1/2-z
-x,-y,-z
1/2+y,-x,1/2-z
1/2+x,1/2+y,-z
-y,1/2+x,1/2-z
-x,1/2+y,z
1/2+x,-y,z
-y,-x,1/2+z
1/2+y,1/2+x,1/2+z
loop_
_atom_site_type_symbol
_atom_site_label
_atom_site_fract_x
_atom_site_fract_y
_atom_site_fract_z
Si Si1 0.734058 0.009837 0.182234
Si Si2 0.750000 0.750000 0.750000
Si Si3 0.806064 0.499147 0.550843
Si Si4 0.250000 0.750000 0.000000
Si Si5 0.750000 0.250000 0.250000
Si Si6 0.951906 0.485323 0.384121
O O1 0.749436 0.877173 0.214337
O O2 0.626486 0.994634 0.138340
O O3 0.687238 0.131089 0.217264
O O4 0.875983 0.049966 0.159272
O O5 0.750000 0.573911 0.500000
O O6 0.839861 0.345444 0.535504
O O7 0.694725 0.501951 0.593815
O O8 0.942622 0.560328 0.572423
#
# Coordination Sequence:
#
# PCOD8316991 Si02
#       6
#    16   4  16   4   4  16
#     4  12  25  41  69  91 133 163 217 265 322 386
#     4  12  24  44  60 100 126 164 204 280 336 368
#     4  10  22  40  64  92 131 169 211 259 313 376
#     4   8  20  38  64  84 124 174 204 248 302 388
#     4  12  24  46  64  96 122 184 208 252 330 404
#     4  12  23  43  64 100 124 172 214 269 311 380
#
# _framework density 22.425477000000001
#
# number of rings (size 3 to 8) (size 9 to 14) (size 15 to 20)
#    0.800    0.000    0.000    8.800    0.000    0.000 
#    0.000    1.333    0.000    0.000    0.000    0.000 
#    0.000    0.000    0.000    0.000    0.000    0.000 
#
# Total GULP energy -743922.350923 kJ/mol
# GULP energy per Si atom -12398.705849 kJ/mol
# Density = 2.237444 g / cm^3
# Si number density = 22.425477 Si / 1000 Ang^3
#
#
#
# Elastic Constant Matrix: (Units=GPa)
#
#
# Indices 1 2 3 4 5 6 
#
# 1 82.3321 8.1993 24.3515 0.0000 0.0000 0.0000
# 2 8.1993 82.3321 24.3515 0.0000 0.0000 0.0000
# 3 24.3515 24.3515 95.7726 0.0000 0.0000 0.0000
# 4 0.0000 0.0000 0.0000 33.6216 0.0000 0.0000
# 5 0.0000 0.0000 0.0000 0.0000 33.6216 0.0000
# 6 0.0000 0.0000 0.0000 0.0000 0.0000 15.6620
#
#
#
# Elastic Compliance Matrix: (Units=1/GPa)
#
#
# Indices 1 2 3 4 5 6 
#
# 1 0.013143 -0.000347 -0.003254 0.000000 0.000000 0.000000
# 2 -0.000347 0.013143 -0.003254 0.000000 0.000000 0.000000
# 3 -0.003254 -0.003254 0.012096 0.000000 0.000000 0.000000
# 4 0.000000 0.000000 0.000000 0.029743 0.000000 0.000000
# 5 0.000000 0.000000 0.000000 0.000000 0.029743 0.000000
# 6 0.000000 0.000000 0.000000 0.000000 0.000000 0.063849
#
#
# Mechanical properties :
#
#
# Convention : Reuss Voigt Hill
#
# Bulk Modulus (GPa) = 40.52857 41.58238 41.05547
# Shear Modulus (GPa) = 27.22598 30.14999 28.68798
#
# Velocity S-wave (km/s) = 3.48812 3.67066 3.58055
# Velocity P-wave (km/s) = 5.85956 6.04547 5.95324
#
# Compressibility (1/GPa) = 0.02467395
#
# Stress axis : x y z
#
# Youngs Moduli (GPa) = 76.08741 76.08741 82.67227
#
# Poissons Ratio (x) = 0.02637 0.26898
# Poissons Ratio (y) = 0.02637 0.26898
# Poissons Ratio (z) = 0.24756 0.24756
#
# Static dielectric constant tensor:
#      x y z
#    x 3.914960 0.000000 0.000000 
#    y 0.000000 3.914960 0.000000 
#    z 0.000000 0.000000 4.225970 
# 
# 
# High freq. dielectric constant tensor:
#      x y z
#    x 1.878590 0.000000 0.000000 
#    y 0.000000 1.878590 0.000000 
#    z 0.000000 0.000000 1.904140 
# 
# From -- ./inp_files/6220.got.cif
#   From: 2010.03.12/outbox.cif.g09.slc.cpg/sg133_4_cif.got.tgz:6220.got - 2010.04.06 18:08:06.
