data_PCOD8316109
_publ_section_title
;
Structure prediction by ZEFSAII (Michael W. Deem and Ramdas Pophale) SiO2 
 PCOD8316109
Probable space group: P 42/M M C
;
_chemical_formula_sum "Si O2"
_cell_formula_units_Z 72
_cell_length_a 11.953389
_cell_length_b 11.953389
_cell_length_c 27.047220
_cell_angle_alpha 90.000000
_cell_angle_beta 90.000000
_cell_angle_gamma 90.000000
_cell_volume 3864.601691
_symmetry_space_group_name_H-M "P 42/M M C"
_symmetry_group_IT_number 131
_symmetry_cell_setting 'tetragonal'
loop_
_space_group_symop_operation_xyz
x,y,z
-x,-y,z
-y,x,1/2+z
y,-x,1/2+z
-x,y,-z
x,-y,-z
y,x,1/2-z
-y,-x,1/2-z
-x,-y,-z
x,y,-z
y,-x,1/2-z
-y,x,1/2-z
x,-y,z
-x,y,z
-y,-x,1/2+z
y,x,1/2+z
loop_
_atom_site_type_symbol
_atom_site_label
_atom_site_fract_x
_atom_site_fract_y
_atom_site_fract_z
Si Si1 0.791799 0.243406 0.056117
Si Si2 0.232914 0.371136 0.711678
Si Si3 0.373987 0.000000 0.440850
Si Si4 0.623943 0.374679 0.616725
Si Si5 0.268022 0.000000 0.056034
Si Si6 0.000000 0.629836 0.337613
O O1 0.680122 0.283576 0.082064
O O2 0.809129 0.109968 0.060706
O O3 0.894644 0.307922 0.081410
O O4 0.782343 0.281986 0.000000
O O5 0.277916 0.277916 0.750000
O O6 0.220215 0.500000 0.732212
O O7 0.331251 0.371952 0.671926
O O8 0.114032 0.325873 0.689051
O O9 0.500000 0.000000 0.420632
O O10 0.370183 0.000000 0.500000
O O11 0.614014 0.500000 0.597162
O O12 0.500000 0.318114 0.614162
O O13 0.350824 0.000000 0.102958
O O14 0.324996 0.000000 0.000000
O O15 0.000000 0.500000 0.330211
#
# Coordination Sequence:
#
# PCOD8316109 Si02
#       6
#    16  16   8  16   8   8
#     4  10  20  34  53  78 111 151 194 236 282 336
#     4  10  20  36  59  83 110 143 184 235 291 350
#     4   9  18  33  52  73 103 147 192 234 277 321
#     4  10  20  33  52  80 112 145 183 230 285 346
#     4  10  20  34  56  85 117 156 196 236 280 336
#     4  10  20  37  60  86 116 154 193 236 287 340
#
# _framework density 18.63064
#
# number of rings (size 3 to 8) (size 9 to 14) (size 15 to 20)
#    0.000    2.111    2.222    1.333    0.000    3.556 
#    0.000    6.667    0.000    1.667    0.000    0.000 
#    0.000    0.000    0.000    0.000    0.000    0.000 
#
# Total GULP energy -891966.269173 kJ/mol
# GULP energy per Si atom -12388.420405 kJ/mol
# Density = 1.858824 g / cm^3
# Si number density = 18.630640 Si / 1000 Ang^3
#
#
#
# Elastic Constant Matrix: (Units=GPa)
#
#
# Indices 1 2 3 4 5 6 
#
# 1 118.0373 48.2859 42.3171 0.0000 0.0000 0.0000
# 2 48.2859 118.0373 42.3171 0.0000 0.0000 0.0000
# 3 42.3171 42.3171 71.4970 0.0000 0.0000 0.0000
# 4 0.0000 0.0000 0.0000 23.5000 0.0000 0.0000
# 5 0.0000 0.0000 0.0000 0.0000 23.5000 0.0000
# 6 0.0000 0.0000 0.0000 0.0000 0.0000 26.3569
#
#
#
# Elastic Compliance Matrix: (Units=1/GPa)
#
#
# Indices 1 2 3 4 5 6 
#
# 1 0.011470 -0.002867 -0.005092 0.000000 0.000000 0.000000
# 2 -0.002867 0.011470 -0.005092 0.000000 0.000000 0.000000
# 3 -0.005092 -0.005092 0.020015 0.000000 0.000000 0.000000
# 4 0.000000 0.000000 0.000000 0.042553 0.000000 0.000000
# 5 0.000000 0.000000 0.000000 0.000000 0.042553 0.000000
# 6 0.000000 0.000000 0.000000 0.000000 0.000000 0.037941
#
#
# Mechanical properties :
#
#
# Convention : Reuss Voigt Hill
#
# Bulk Modulus (GPa) = 59.33744 63.71242 61.52493
# Shear Modulus (GPa) = 25.28809 26.31480 25.80144
#
# Velocity S-wave (km/s) = 3.68820 3.76233 3.72545
# Velocity P-wave (km/s) = 7.07500 7.29009 7.18335
#
# Compressibility (1/GPa) = 0.01685277
#
# Stress axis : x y z
#
# Youngs Moduli (GPa) = 87.18308 87.18308 49.96376
#
# Poissons Ratio (x) = 0.24991 0.25443
# Poissons Ratio (y) = 0.24991 0.25443
# Poissons Ratio (z) = 0.44396 0.44396
#
# Static dielectric constant tensor:
#      x y z
#    x 3.659860 0.000000 0.000000 
#    y 0.000000 3.659860 0.000000 
#    z 0.000000 0.000000 3.223210 
# 
# 
# High freq. dielectric constant tensor:
#      x y z
#    x 1.722170 0.000000 0.000000 
#    y 0.000000 1.722170 0.000000 
#    z 0.000000 0.000000 1.699590 
# 
# From -- ./inp_files/12187.got.cif
#   From: 2010.03.12/outbox.cif.g09.slc.cpg/sg131_7_cif.got.tgz:12187.got - 2010.04.06 17:36:35.
