data_PCOD8316045
_publ_section_title
;
Structure prediction by ZEFSAII (Michael W. Deem and Ramdas Pophale) SiO2 
 PCOD8316045
Probable space group: P 42/M M C
;
_chemical_formula_sum "Si O2"
_cell_formula_units_Z 112
_cell_length_a 14.254420
_cell_length_b 14.254420
_cell_length_c 31.473384
_cell_angle_alpha 90.000000
_cell_angle_beta 90.000000
_cell_angle_gamma 90.000000
_cell_volume 6395.029356
_symmetry_space_group_name_H-M "P 42/M M C"
_symmetry_group_IT_number 131
_symmetry_cell_setting 'tetragonal'
loop_
_space_group_symop_operation_xyz
x,y,z
-x,-y,z
-y,x,1/2+z
y,-x,1/2+z
-x,y,-z
x,-y,-z
y,x,1/2-z
-y,-x,1/2-z
-x,-y,-z
x,y,-z
y,-x,1/2-z
-y,x,1/2-z
x,-y,z
-x,y,z
-y,-x,1/2+z
y,x,1/2+z
loop_
_atom_site_type_symbol
_atom_site_label
_atom_site_fract_x
_atom_site_fract_y
_atom_site_fract_z
Si Si1 0.763665 0.389652 0.751037
Si Si2 0.895099 0.111914 0.296004
Si Si3 0.891531 0.213324 0.122674
Si Si4 0.889794 0.398563 0.583969
Si Si5 0.605389 0.107068 0.331510
Si Si6 0.108805 0.792671 0.452086
Si Si7 0.103876 0.389643 0.677259
O O1 0.665407 0.334594 0.750000
O O2 0.741038 0.500000 0.745610
O O3 0.821501 0.371243 0.793930
O O4 0.826385 0.348402 0.712520
O O5 0.854237 0.145763 0.250000
O O6 0.835289 0.152702 0.335261
O O7 0.000000 0.149145 0.303031
O O8 0.893028 0.000000 0.295262
O O9 0.875439 0.324827 0.128673
O O10 0.845852 0.177772 0.079402
O O11 0.000000 0.186565 0.119109
O O12 0.847077 0.500000 0.569627
O O13 0.866334 0.318186 0.549945
O O14 0.852413 0.368085 0.630607
O O15 0.000000 0.411505 0.589252
O O16 0.500000 0.122324 0.348607
O O17 0.618800 0.000000 0.314472
O O18 0.127605 0.827390 0.500000
O O19 0.000000 0.810336 0.439367
O O20 0.095400 0.500000 0.684158
O O21 0.000000 0.344480 0.682759
#
# Coordination Sequence:
#
# PCOD8316045 Si02
#       7
#    16  16  16  16  16  16  16
#     4  10  20  31  47  72 102 137 171 203 243 295
#     4   8  14  26  43  64  94 129 161 193 230 275
#     4  10  20  33  50  71  96 129 168 207 246 292
#     4   8  15  29  48  70  97 129 163 201 244 285
#     4   9  19  36  54  71  94 127 170 218 260 294
#     4  10  21  34  49  74 105 136 167 197 240 303
#     4   8  14  27  47  69  94 126 165 206 244 283
#
# _framework density 17.513601000000001
#
# number of rings (size 3 to 8) (size 9 to 14) (size 15 to 20)
#    0.000    3.000    0.000    2.143    2.000    3.857 
#    0.000    2.143    0.000    0.429    0.000    2.000 
#    0.000    2.571    0.000    1.286    0.000    0.143 
#
# Total GULP energy -1387989.692340 kJ/mol
# GULP energy per Si atom -12392.765110 kJ/mol
# Density = 1.747374 g / cm^3
# Si number density = 17.513601 Si / 1000 Ang^3
#
#
#
# Elastic Constant Matrix: (Units=GPa)
#
#
# Indices 1 2 3 4 5 6 
#
# 1 67.5957 34.5469 43.9357 0.0000 0.0000 0.0000
# 2 34.5469 67.5939 43.9355 0.0000 0.0000 0.0000
# 3 43.9357 43.9355 103.0615 0.0000 0.0000 0.0000
# 4 0.0000 0.0000 0.0000 21.5382 0.0000 0.0000
# 5 0.0000 0.0000 0.0000 0.0000 21.5379 0.0000
# 6 0.0000 0.0000 0.0000 0.0000 0.0000 16.6304
#
#
#
# Elastic Compliance Matrix: (Units=1/GPa)
#
#
# Indices 1 2 3 4 5 6 
#
# 1 0.022859 -0.007399 -0.006591 0.000000 0.000000 0.000000
# 2 -0.007399 0.022860 -0.006591 0.000000 0.000000 0.000000
# 3 -0.006591 -0.006591 0.015322 0.000000 0.000000 0.000000
# 4 0.000000 0.000000 0.000000 0.046429 0.000000 0.000000
# 5 0.000000 0.000000 0.000000 0.000000 0.046430 0.000000
# 6 0.000000 0.000000 0.000000 0.000000 0.000000 0.060131
#
#
# Mechanical properties :
#
#
# Convention : Reuss Voigt Hill
#
# Bulk Modulus (GPa) = 50.30249 53.67635 51.98942
# Shear Modulus (GPa) = 19.09708 19.66350 19.38029
#
# Velocity S-wave (km/s) = 3.30572 3.35439 3.33015
# Velocity P-wave (km/s) = 6.58443 6.76147 6.67354
#
# Compressibility (1/GPa) = 0.01987973
#
# Stress axis : x y z
#
# Youngs Moduli (GPa) = 43.74580 43.74441 65.26430
#
# Poissons Ratio (x) = 0.32368 0.43014
# Poissons Ratio (y) = 0.32369 0.43015
# Poissons Ratio (z) = 0.28831 0.28832
#
# Static dielectric constant tensor:
#      x y z
#    x 3.178960 0.000000 0.000000 
#    y 0.000000 3.178960 0.000000 
#    z 0.000000 0.000000 3.155030 
# 
# 
# High freq. dielectric constant tensor:
#      x y z
#    x 1.658620 0.000000 0.000000 
#    y 0.000000 1.658620 0.000000 
#    z 0.000000 0.000000 1.659270 
# 
# From -- ./inp_files/13851.got.cif
#   From: 2010.03.12/outbox.cif.g09.slc.cpg/sg131_7_cif.got.tgz:13851.got - 2010.04.06 17:36:35.
