data_PCOD8316286
_publ_section_title
;
Structure prediction by ZEFSAII (Michael W. Deem and Ramdas Pophale) SiO2 
 PCOD8316286
Probable space group: P 42/M M C
;
_chemical_formula_sum "Si O2"
_cell_formula_units_Z 56
_cell_length_a 14.091063
_cell_length_b 14.091063
_cell_length_c 14.094840
_cell_angle_alpha 90.000000
_cell_angle_beta 90.000000
_cell_angle_gamma 90.000000
_cell_volume 2798.644037
_symmetry_space_group_name_H-M "P 42/M M C"
_symmetry_group_IT_number 131
_symmetry_cell_setting 'tetragonal'
loop_
_space_group_symop_operation_xyz
x,y,z
-x,-y,z
-y,x,1/2+z
y,-x,1/2+z
-x,y,-z
x,-y,-z
y,x,1/2-z
-y,-x,1/2-z
-x,-y,-z
x,y,-z
y,-x,1/2-z
-y,x,1/2-z
x,-y,z
-x,y,z
-y,-x,1/2+z
y,x,1/2+z
loop_
_atom_site_type_symbol
_atom_site_label
_atom_site_fract_x
_atom_site_fract_y
_atom_site_fract_z
Si Si1 0.388448 0.813977 0.284917
Si Si2 0.233164 0.717271 0.605576
Si Si3 0.000000 0.387718 0.893698
Si Si4 0.893675 0.108206 0.138475
O O1 0.500000 0.795852 0.291628
O O2 0.335591 0.732354 0.344946
O O3 0.356896 0.820640 0.174559
O O4 0.353197 0.909933 0.334667
O O5 0.246459 0.673587 0.500000
O O6 0.175197 0.814904 0.592516
O O7 0.000000 0.500000 0.900837
O O8 0.000000 0.344430 0.000000
O O9 0.883189 0.116812 0.250000
O O10 0.000000 0.141028 0.107470
O O11 0.877251 0.000000 0.105042
#
# Coordination Sequence:
#
# PCOD8316286 Si02
#       4
#    16  16   8  16
#     4  10  22  40  58  82 119 153 192 246 294 341
#     4  11  23  36  59  89 114 152 197 239 295 358
#     4   9  18  34  59  85 110 149 195 237 283 336
#     4   9  18  34  55  80 116 158 196 236 279 331
#
# _framework density 20.009689000000002
#
# number of rings (size 3 to 8) (size 9 to 14) (size 15 to 20)
#    0.000    2.143    2.857    1.714    4.000    3.429 
#    0.000    1.429    0.000    9.429    0.000    8.000 
#    0.000    0.000    0.000    0.000    0.000    0.000 
#
# Total GULP energy -694137.542576 kJ/mol
# GULP energy per Si atom -12395.313260 kJ/mol
# Density = 1.996415 g / cm^3
# Si number density = 20.009689 Si / 1000 Ang^3
#
#
#
# Elastic Constant Matrix: (Units=GPa)
#
#
# Indices 1 2 3 4 5 6 
#
# 1 73.7529 24.9240 39.1134 0.0000 0.0000 0.0000
# 2 24.9240 73.7532 39.1133 0.0000 0.0000 0.0000
# 3 39.1134 39.1133 194.1660 0.0000 0.0000 0.0000
# 4 0.0000 0.0000 0.0000 13.2850 0.0000 0.0000
# 5 0.0000 0.0000 0.0000 0.0000 13.2850 0.0000
# 6 0.0000 0.0000 0.0000 0.0000 0.0000 20.0785
#
#
#
# Elastic Compliance Matrix: (Units=1/GPa)
#
#
# Indices 1 2 3 4 5 6 
#
# 1 0.016270 -0.004210 -0.002429 0.000000 0.000000 0.000000
# 2 -0.004210 0.016270 -0.002429 0.000000 0.000000 0.000000
# 3 -0.002429 -0.002429 0.006129 0.000000 0.000000 0.000000
# 4 0.000000 0.000000 0.000000 0.075273 0.000000 0.000000
# 5 0.000000 0.000000 0.000000 0.000000 0.075273 0.000000
# 6 0.000000 0.000000 0.000000 0.000000 0.000000 0.049804
#
#
# Mechanical properties :
#
#
# Convention : Reuss Voigt Hill
#
# Bulk Modulus (GPa) = 48.70592 60.88594 54.79593
# Shear Modulus (GPa) = 18.93941 25.23114 22.08527
#
# Velocity S-wave (km/s) = 3.07988 3.55483 3.32585
# Velocity P-wave (km/s) = 6.08618 6.88065 6.49557
#
# Compressibility (1/GPa) = 0.02053139
#
# Stress axis : x y z
#
# Youngs Moduli (GPa) = 61.46345 61.46374 163.15872
#
# Poissons Ratio (x) = 0.25875 0.39638
# Poissons Ratio (y) = 0.25875 0.39638
# Poissons Ratio (z) = 0.14932 0.14932
#
# Static dielectric constant tensor:
#      x y z
#    x 3.534510 0.000000 0.000000 
#    y 0.000000 3.534500 0.000000 
#    z 0.000000 0.000000 3.742410 
# 
# 
# High freq. dielectric constant tensor:
#      x y z
#    x 1.760730 0.000000 0.000000 
#    y 0.000000 1.760730 0.000000 
#    z 0.000000 0.000000 1.795120 
# 
# From -- ./inp_files/5250.got.cif
#   From: 2010.03.12/outbox.cif.g09.slc.cpg/sg131_3_cif.got.tgz:5250.got - 2010.04.06 17:36:35.
