data_PCOD8316016
_publ_section_title
;
Structure prediction by ZEFSAII (Michael W. Deem and Ramdas Pophale) SiO2 
 PCOD8316016
Probable space group: P 42/M M C
;
_chemical_formula_sum "Si O2"
_cell_formula_units_Z 56
_cell_length_a 17.733234
_cell_length_b 17.733234
_cell_length_c 8.967502
_cell_angle_alpha 90.000000
_cell_angle_beta 90.000000
_cell_angle_gamma 90.000000
_cell_volume 2819.988725
_symmetry_space_group_name_H-M "P 42/M M C"
_symmetry_group_IT_number 131
_symmetry_cell_setting 'tetragonal'
loop_
_space_group_symop_operation_xyz
x,y,z
-x,-y,z
-y,x,1/2+z
y,-x,1/2+z
-x,y,-z
x,-y,-z
y,x,1/2-z
-y,-x,1/2-z
-x,-y,-z
x,y,-z
y,-x,1/2-z
-y,x,1/2-z
x,-y,z
-x,y,z
-y,-x,1/2+z
y,x,1/2+z
loop_
_atom_site_type_symbol
_atom_site_label
_atom_site_fract_x
_atom_site_fract_y
_atom_site_fract_z
Si Si1 0.199110 0.086836 0.676193
Si Si2 0.083087 0.500000 0.177044
Si Si3 0.169094 0.647741 0.823221
Si Si4 0.413997 0.689371 0.824450
O O1 0.128258 0.128258 0.750000
O O2 0.190305 0.092227 0.500000
O O3 0.276941 0.125843 0.728053
O O4 0.199996 0.000000 0.729108
O O5 0.122972 0.424565 0.234627
O O6 0.000000 0.500000 0.246130
O O7 0.080056 0.500000 0.000000
O O8 0.248822 0.643300 0.741323
O O9 0.181402 0.646069 0.000000
O O10 0.390057 0.609944 0.750000
O O11 0.500000 0.707548 0.779141
O O12 0.403938 0.684137 0.000000
#
# Coordination Sequence:
#
# PCOD8316016 Si02
#       4
#    16   8  16  16
#     4  10  22  39  59  86 118 153 197 246 294 347
#     4   9  16  28  53  87 118 151 190 229 273 334
#     4  10  19  35  60  88 118 152 191 237 288 345
#     4  11  24  40  59  84 116 152 192 239 288 342
#
# _framework density 19.858235000000001
#
# number of rings (size 3 to 8) (size 9 to 14) (size 15 to 20)
#    0.000    1.857    1.429    2.571    0.000    9.714 
#    0.000    2.857    0.000    3.429    0.000    0.000 
#    0.000    0.000    0.000    0.000    0.000    0.000 
#
# Total GULP energy -694504.527845 kJ/mol
# GULP energy per Si atom -12401.866569 kJ/mol
# Density = 1.981304 g / cm^3
# Si number density = 19.858235 Si / 1000 Ang^3
#
#
#
# Elastic Constant Matrix: (Units=GPa)
#
#
# Indices 1 2 3 4 5 6 
#
# 1 128.4406 84.5890 43.5707 0.0000 0.0000 0.0000
# 2 84.5890 128.4496 43.5686 0.0000 0.0000 0.0000
# 3 43.5707 43.5686 44.9131 0.0000 0.0000 0.0000
# 4 0.0000 0.0000 0.0000 27.6849 0.0000 0.0000
# 5 0.0000 0.0000 0.0000 0.0000 27.6847 0.0000
# 6 0.0000 0.0000 0.0000 0.0000 0.0000 38.4530
#
#
#
# Elastic Compliance Matrix: (Units=1/GPa)
#
#
# Indices 1 2 3 4 5 6 
#
# 1 0.015293 -0.007510 -0.007551 0.000000 0.000000 0.000000
# 2 -0.007510 0.015291 -0.007548 0.000000 0.000000 0.000000
# 3 -0.007551 -0.007548 0.036912 0.000000 0.000000 0.000000
# 4 0.000000 0.000000 0.000000 0.036121 0.000000 0.000000
# 5 0.000000 0.000000 0.000000 0.000000 0.036121 0.000000
# 6 0.000000 0.000000 0.000000 0.000000 0.000000 0.026006
#
#
# Mechanical properties :
#
#
# Convention : Reuss Voigt Hill
#
# Bulk Modulus (GPa) = 44.88498 71.69553 58.29026
# Shear Modulus (GPa) = 22.89515 27.43617 25.16566
#
# Velocity S-wave (km/s) = 3.39917 3.72102 3.56373
# Velocity P-wave (km/s) = 6.16908 7.39212 6.80812
#
# Compressibility (1/GPa) = 0.02227917
#
# Stress axis : x y z
#
# Youngs Moduli (GPa) = 65.38895 65.39903 27.09135
#
# Poissons Ratio (x) = 0.49114 0.20457
# Poissons Ratio (y) = 0.49106 0.20447
# Poissons Ratio (z) = 0.49375 0.49360
#
# Static dielectric constant tensor:
#      x y z
#    x 3.801180 0.000000 0.000000 
#    y 0.000000 3.801170 0.000000 
#    z 0.000000 0.000000 3.264450 
# 
# 
# High freq. dielectric constant tensor:
#      x y z
#    x 1.785780 0.000000 0.000000 
#    y 0.000000 1.785780 0.000000 
#    z 0.000000 0.000000 1.748110 
# 
# From -- ./inp_files/1196.got.cif
#   From: 2010.03.12/outbox.cif.g09.slc.cpg/sg131_1_cif.got.tgz:1196.got - 2010.04.06 17:36:35.
