data_PCOD8316950
_publ_section_title
;
Structure prediction by ZEFSAII (Michael W. Deem and Ramdas Pophale) SiO2 
 PCOD8316950
Probable space group: P 42/N B C
;
_chemical_formula_sum "Si O2"
_cell_formula_units_Z 116
_cell_length_a 17.848124
_cell_length_b 17.848124
_cell_length_c 18.905405
_cell_angle_alpha 90.000000
_cell_angle_beta 90.000000
_cell_angle_gamma 90.000000
_cell_volume 6022.421316
_symmetry_space_group_name_H-M "P 42/N B C"
_symmetry_group_IT_number 133
_space_group.IT_coordinate_system_code '2'
_symmetry_cell_setting 'tetragonal'
loop_
_space_group_symop_operation_xyz
x,y,z
1/2-y,x,1/2+z
1/2-x,1/2-y,z
y,1/2-x,1/2+z
x,1/2-y,-z
1/2-x,y,-z
y,x,1/2-z
1/2-y,1/2-x,1/2-z
-x,-y,-z
1/2+y,-x,1/2-z
1/2+x,1/2+y,-z
-y,1/2+x,1/2-z
-x,1/2+y,z
1/2+x,-y,z
-y,-x,1/2+z
1/2+y,1/2+x,1/2+z
loop_
_atom_site_type_symbol
_atom_site_label
_atom_site_fract_x
_atom_site_fract_y
_atom_site_fract_z
Si Si1 0.005792 0.123961 0.723513
Si Si2 0.750000 0.250000 0.250000
Si Si3 0.169343 0.336689 0.502536
Si Si4 0.967283 0.711740 0.250241
Si Si5 0.619322 0.349959 0.303233
Si Si6 0.405130 0.037892 0.066646
Si Si7 0.894838 0.608426 0.146087
Si Si8 0.960522 0.425879 0.576368
O O1 0.052990 0.052990 0.750000
O O2 0.047459 0.199224 0.751155
O O3 0.997672 0.121108 0.638405
O O4 0.922814 0.121911 0.754296
O O5 0.696386 0.302055 0.299254
O O6 0.182943 0.250000 0.500000
O O7 0.250000 0.377720 0.500000
O O8 0.114753 0.358630 0.438492
O O9 0.131864 0.358246 0.574544
O O10 0.952928 0.671319 0.174495
O O11 0.906989 0.673720 0.301457
O O12 0.052530 0.702120 0.275269
O O13 0.602743 0.374895 0.384880
O O14 0.490243 0.068100 0.064352
O O15 0.389564 0.982463 0.999687
O O16 0.937360 0.530422 0.130564
#
# Coordination Sequence:
#
# PCOD8316950 Si02
#       8
#    16   4  16  16  16  16  16  16
#     4  12  23  35  61  97 123 156 210 268 312 381
#     4  12  24  44  68  94 132 172 212 266 336 388
#     4  10  21  35  52  75 118 163 199 237 302 380
#     4  10  21  36  58  85 120 152 200 253 312 367
#     4  11  22  41  63  91 123 164 209 260 321 390
#     4  10  20  36  61  88 119 157 204 261 316 365
#     4   9  19  36  56  82 113 162 198 245 306 372
#     4   9  19  38  63  88 116 156 211 259 307 378
#
# _framework density 19.261357
#
# number of rings (size 3 to 8) (size 9 to 14) (size 15 to 20)
#    0.000    1.793    2.759    1.655    3.862    0.000 
#    0.000    0.690    0.000    0.828    0.000    0.000 
#    0.000    0.000    0.000    0.000    0.000    0.000 
#
# Total GULP energy -1437831.018473 kJ/mol
# GULP energy per Si atom -12395.094987 kJ/mol
# Density = 1.921752 g / cm^3
# Si number density = 19.261357 Si / 1000 Ang^3
#
#
#
# Elastic Constant Matrix: (Units=GPa)
#
#
# Indices 1 2 3 4 5 6 
#
# 1 91.2261 39.8993 31.3677 0.0000 0.0000 0.0000
# 2 39.8993 91.2261 31.3677 0.0000 0.0000 0.0000
# 3 31.3677 31.3677 105.7097 0.0000 0.0000 0.0000
# 4 0.0000 0.0000 0.0000 15.6555 0.0000 0.0000
# 5 0.0000 0.0000 0.0000 0.0000 15.6555 0.0000
# 6 0.0000 0.0000 0.0000 0.0000 0.0000 35.6615
#
#
#
# Elastic Compliance Matrix: (Units=1/GPa)
#
#
# Indices 1 2 3 4 5 6 
#
# 1 0.014186 -0.005297 -0.002637 0.000000 0.000000 0.000000
# 2 -0.005297 0.014186 -0.002637 0.000000 0.000000 0.000000
# 3 -0.002637 -0.002637 0.011025 0.000000 0.000000 0.000000
# 4 0.000000 0.000000 0.000000 0.063875 0.000000 0.000000
# 5 0.000000 0.000000 0.000000 0.000000 0.063875 0.000000
# 6 0.000000 0.000000 0.000000 0.000000 0.000000 0.028041
#
#
# Mechanical properties :
#
#
# Convention : Reuss Voigt Hill
#
# Bulk Modulus (GPa) = 54.78944 54.82570 54.80757
# Shear Modulus (GPa) = 22.48036 25.76301 24.12169
#
# Velocity S-wave (km/s) = 3.42002 3.66122 3.54267
# Velocity P-wave (km/s) = 6.64097 6.81165 6.72685
#
# Compressibility (1/GPa) = 0.01825169
#
# Stress axis : x y z
#
# Youngs Moduli (GPa) = 70.49428 70.49428 90.70217
#
# Poissons Ratio (x) = 0.37344 0.23922
# Poissons Ratio (y) = 0.37344 0.23922
# Poissons Ratio (z) = 0.18592 0.18592
#
# Static dielectric constant tensor:
#      x y z
#    x 3.730450 0.000000 0.000000 
#    y 0.000000 3.730450 0.000000 
#    z 0.000000 0.000000 3.634020 
# 
# 
# High freq. dielectric constant tensor:
#      x y z
#    x 1.744520 0.000000 0.000000 
#    y 0.000000 1.744520 0.000000 
#    z 0.000000 0.000000 1.748140 
# 
# From -- ./inp_files/5636.got.cif
#   From: 2010.03.12/outbox.cif.g09.slc.cpg/sg133_3_cif.got.tgz:5636.got - 2010.04.06 18:08:06.
