data_PCOD8316119
_publ_section_title
;
Structure prediction by ZEFSAII (Michael W. Deem and Ramdas Pophale) SiO2 
 PCOD8316119
Probable space group: P 42/M M C
;
_chemical_formula_sum "Si O2"
_cell_formula_units_Z 96
_cell_length_a 18.623049
_cell_length_b 18.623049
_cell_length_c 15.742828
_cell_angle_alpha 90.000000
_cell_angle_beta 90.000000
_cell_angle_gamma 90.000000
_cell_volume 5459.895398
_symmetry_space_group_name_H-M "P 42/M M C"
_symmetry_group_IT_number 131
_symmetry_cell_setting 'tetragonal'
loop_
_space_group_symop_operation_xyz
x,y,z
-x,-y,z
-y,x,1/2+z
y,-x,1/2+z
-x,y,-z
x,-y,-z
y,x,1/2-z
-y,-x,1/2-z
-x,-y,-z
x,y,-z
y,-x,1/2-z
-y,x,1/2-z
x,-y,z
-x,y,z
-y,-x,1/2+z
y,x,1/2+z
loop_
_atom_site_type_symbol
_atom_site_label
_atom_site_fract_x
_atom_site_fract_y
_atom_site_fract_z
Si Si1 0.792185 0.081620 0.093496
Si Si2 0.581499 0.308704 0.596020
Si Si3 0.300376 0.081917 0.752919
Si Si4 0.583344 0.198476 0.255623
Si Si5 0.293245 0.417114 0.595915
Si Si6 0.847657 0.918117 0.331134
O O1 0.731978 0.110530 0.157805
O O2 0.864704 0.129250 0.093569
O O3 0.812366 0.000000 0.120237
O O4 0.758545 0.085099 0.000000
O O5 0.591637 0.278207 0.500000
O O6 0.500000 0.335439 0.609914
O O7 0.601032 0.248145 0.664031
O O8 0.632831 0.375860 0.612252
O O9 0.369782 0.127744 0.729566
O O10 0.237730 0.090035 0.682993
O O11 0.326405 0.000000 0.760189
O O12 0.500000 0.176171 0.253652
O O13 0.606284 0.235234 0.166520
O O14 0.263575 0.402257 0.500000
O O15 0.312500 0.500000 0.608439
O O16 0.893578 0.893578 0.250000
O O17 0.867004 0.000000 0.354673
#
# Coordination Sequence:
#
# PCOD8316119 Si02
#       6
#    16  16  16  16  16  16
#     4   9  18  31  47  70  99 128 156 188 228 275
#     4   9  18  32  50  73 100 130 163 196 232 279
#     4   9  19  35  51  67  90 121 158 199 242 289
#     4  10  20  34  52  72  95 123 159 206 251 288
#     4   9  18  31  47  72 105 135 162 193 231 278
#     4   9  17  29  45  66  93 124 157 191 227 273
#
# _framework density 17.582754999999999
#
# number of rings (size 3 to 8) (size 9 to 14) (size 15 to 20)
#    0.000    2.833    0.000    2.000    0.000    6.833 
#    0.000    5.000    0.000    4.500    0.000    7.000 
#    0.000    0.000    0.000    0.000    0.000    0.000 
#
# Total GULP energy -1190031.064649 kJ/mol
# GULP energy per Si atom -12396.156923 kJ/mol
# Density = 1.754274 g / cm^3
# Si number density = 17.582755 Si / 1000 Ang^3
#
#
#
# Elastic Constant Matrix: (Units=GPa)
#
#
# Indices 1 2 3 4 5 6 
#
# 1 77.4992 54.1579 26.5317 0.0000 0.0000 0.0000
# 2 54.1579 77.4992 26.5317 0.0000 0.0000 0.0000
# 3 26.5317 26.5317 71.9465 0.0000 0.0000 0.0000
# 4 0.0000 0.0000 0.0000 17.7649 0.0000 0.0000
# 5 0.0000 0.0000 0.0000 0.0000 17.7649 0.0000
# 6 0.0000 0.0000 0.0000 0.0000 0.0000 35.8608
#
#
#
# Elastic Compliance Matrix: (Units=1/GPa)
#
#
# Indices 1 2 3 4 5 6 
#
# 1 0.025882 -0.016961 -0.003290 0.000000 0.000000 0.000000
# 2 -0.016961 0.025882 -0.003290 0.000000 0.000000 0.000000
# 3 -0.003290 -0.003290 0.016326 0.000000 0.000000 0.000000
# 4 0.000000 0.000000 0.000000 0.056291 0.000000 0.000000
# 5 0.000000 0.000000 0.000000 0.000000 0.056291 0.000000
# 6 0.000000 0.000000 0.000000 0.000000 0.000000 0.027886
#
#
# Mechanical properties :
#
#
# Convention : Reuss Voigt Hill
#
# Bulk Modulus (GPa) = 47.59913 49.04304 48.32109
# Shear Modulus (GPa) = 19.03739 22.25968 20.64854
#
# Velocity S-wave (km/s) = 3.29406 3.56194 3.43062
# Velocity P-wave (km/s) = 6.44965 6.69849 6.57525
#
# Compressibility (1/GPa) = 0.02100879
#
# Stress axis : x y z
#
# Youngs Moduli (GPa) = 38.63685 38.63685 61.25313
#
# Poissons Ratio (x) = 0.65530 0.20152
# Poissons Ratio (y) = 0.65530 0.20152
# Poissons Ratio (z) = 0.12711 0.12711
#
# Static dielectric constant tensor:
#      x y z
#    x 3.115230 0.000000 0.000000 
#    y 0.000000 3.115230 0.000000 
#    z 0.000000 0.000000 3.408660 
# 
# 
# High freq. dielectric constant tensor:
#      x y z
#    x 1.666870 0.000000 0.000000 
#    y 0.000000 1.666870 0.000000 
#    z 0.000000 0.000000 1.680860 
# 
# From -- ./inp_files/7968.got.cif
#   From: 2010.03.12/outbox.cif.g09.slc.cpg/sg131_4_cif.got.tgz:7968.got - 2010.04.06 17:36:35.
