data_PCOD8316791
_publ_section_title
;
Structure prediction by ZEFSAII (Michael W. Deem and Ramdas Pophale) SiO2 
 PCOD8316791
Probable space group: P 42/M C M
;
_chemical_formula_sum "Si O2"
_cell_formula_units_Z 80
_cell_length_a 12.258779
_cell_length_b 12.258779
_cell_length_c 28.327079
_cell_angle_alpha 90.000000
_cell_angle_beta 90.000000
_cell_angle_gamma 90.000000
_cell_volume 4256.927220
_symmetry_space_group_name_H-M "P 42/M C M"
_symmetry_group_IT_number 132
_symmetry_cell_setting 'tetragonal'
loop_
_space_group_symop_operation_xyz
x,y,z
-y,x,1/2+z
-x,-y,z
y,-x,1/2+z
x,-y,1/2-z
-x,y,1/2-z
y,x,-z
-y,-x,-z
-x,-y,-z
y,-x,1/2-z
x,y,-z
-y,x,1/2-z
-x,y,1/2+z
x,-y,1/2+z
-y,-x,z
y,x,z
loop_
_atom_site_type_symbol
_atom_site_label
_atom_site_fract_x
_atom_site_fract_y
_atom_site_fract_z
Si Si1 0.826806 0.003519 0.889711
Si Si2 0.205735 0.386881 0.853489
Si Si3 0.240780 0.424084 0.294591
Si Si4 0.987395 0.313235 0.197467
Si Si5 0.684194 0.865762 0.948488
O O1 0.902937 0.097064 0.911256
O O2 0.779928 0.043965 0.839794
O O3 0.734262 0.979230 0.928634
O O4 0.892909 0.892909 0.879083
O O5 0.282302 0.282302 0.845179
O O6 0.266761 0.498620 0.839608
O O7 0.175864 0.400709 0.908957
O O8 0.098483 0.371611 0.820547
O O9 0.265481 0.500000 0.250000
O O10 0.317692 0.317692 0.294443
O O11 0.113357 0.395971 0.298432
O O12 0.000000 0.262616 0.250000
O O13 0.779854 0.779854 0.955380
O O14 0.628392 0.885691 0.000000
#
# Coordination Sequence:
#
# PCOD8316791 Si02
#       5
#    16  16  16  16  16
#     4   9  18  30  47  77 112 145 183 227 274 322
#     4  10  21  37  58  84 112 143 183 230 274 320
#     4  12  25  38  55  80 109 146 186 226 274 327
#     4  11  21  35  55  75 107 146 186 220 266 329
#     4   8  15  30  53  79 106 139 181 228 276 325
#
# _framework density 18.792898999999998
#
# number of rings (size 3 to 8) (size 9 to 14) (size 15 to 20)
#    0.000    2.000    2.000    3.600    0.000    4.200 
#    0.000    3.000    0.000   10.200    0.000    2.800 
#    0.000    0.000    0.000    0.000    0.000    0.000 
#
# Total GULP energy -991167.062355 kJ/mol
# GULP energy per Si atom -12389.588279 kJ/mol
# Density = 1.875013 g / cm^3
# Si number density = 18.792899 Si / 1000 Ang^3
#
#
#
# Elastic Constant Matrix: (Units=GPa)
#
#
# Indices 1 2 3 4 5 6 
#
# 1 74.1008 25.7326 35.0714 0.0000 0.0000 0.0000
# 2 25.7326 74.1008 35.0714 0.0000 0.0000 0.0000
# 3 35.0714 35.0714 169.9587 0.0000 0.0000 0.0000
# 4 0.0000 0.0000 0.0000 18.9278 0.0000 0.0000
# 5 0.0000 0.0000 0.0000 0.0000 18.9278 0.0000
# 6 0.0000 0.0000 0.0000 0.0000 0.0000 19.9268
#
#
#
# Elastic Compliance Matrix: (Units=1/GPa)
#
#
# Indices 1 2 3 4 5 6 
#
# 1 0.016195 -0.004480 -0.002417 0.000000 0.000000 0.000000
# 2 -0.004480 0.016195 -0.002417 0.000000 0.000000 0.000000
# 3 -0.002417 -0.002417 0.006881 0.000000 0.000000 0.000000
# 4 0.000000 0.000000 0.000000 0.052832 0.000000 0.000000
# 5 0.000000 0.000000 0.000000 0.000000 0.052832 0.000000
# 6 0.000000 0.000000 0.000000 0.000000 0.000000 0.050184
#
#
# Mechanical properties :
#
#
# Convention : Reuss Voigt Hill
#
# Bulk Modulus (GPa) = 48.44487 56.65680 52.55083
# Shear Modulus (GPa) = 22.66237 26.37545 24.51891
#
# Velocity S-wave (km/s) = 3.47638 3.75037 3.61597
# Velocity P-wave (km/s) = 6.47671 6.99765 6.74222
#
# Compressibility (1/GPa) = 0.02064202
#
# Stress axis : x y z
#
# Youngs Moduli (GPa) = 61.74753 61.74753 145.31753
#
# Poissons Ratio (x) = 0.27662 0.35130
# Poissons Ratio (y) = 0.27662 0.35130
# Poissons Ratio (z) = 0.14927 0.14927
#
# Static dielectric constant tensor:
#      x y z
#    x 3.338040 0.000000 0.000000 
#    y 0.000000 3.338040 0.000000 
#    z 0.000000 0.000000 3.809220 
# 
# 
# High freq. dielectric constant tensor:
#      x y z
#    x 1.712160 0.000000 0.000000 
#    y 0.000000 1.712160 0.000000 
#    z 0.000000 0.000000 1.730630 
# 
# From -- ./inp_files/10650.got.cif
#   From: 2010.03.12/outbox.cif.g09.slc.cpg/sg132_6_cif.got.tgz:10650.got - 2010.04.06 17:53:44.
