data_PCOD8316038
_publ_section_title
;
Structure prediction by ZEFSAII (Michael W. Deem and Ramdas Pophale) SiO2 
 PCOD8316038
Probable space group: P 42/M M C
;
_chemical_formula_sum "Si O2"
_cell_formula_units_Z 80
_cell_length_a 18.657006
_cell_length_b 18.657006
_cell_length_c 14.324077
_cell_angle_alpha 90.000000
_cell_angle_beta 90.000000
_cell_angle_gamma 90.000000
_cell_volume 4985.980198
_symmetry_space_group_name_H-M "P 42/M M C"
_symmetry_group_IT_number 131
_symmetry_cell_setting 'tetragonal'
loop_
_space_group_symop_operation_xyz
x,y,z
-x,-y,z
-y,x,1/2+z
y,-x,1/2+z
-x,y,-z
x,-y,-z
y,x,1/2-z
-y,-x,1/2-z
-x,-y,-z
x,y,-z
y,-x,1/2-z
-y,x,1/2-z
x,-y,z
-x,y,z
-y,-x,1/2+z
y,x,1/2+z
loop_
_atom_site_type_symbol
_atom_site_label
_atom_site_fract_x
_atom_site_fract_y
_atom_site_fract_z
Si Si1 0.358549 0.209434 0.608810
Si Si2 0.580723 0.919297 0.290542
Si Si3 0.692010 0.231872 0.106021
Si Si4 0.303768 0.417938 0.742180
Si Si5 0.657384 0.921777 0.104620
O O1 0.376611 0.207363 0.500000
O O2 0.364747 0.130135 0.651642
O O3 0.277733 0.237176 0.631248
O O4 0.414208 0.263900 0.657803
O O5 0.500000 0.892620 0.308777
O O6 0.593774 0.915483 0.179447
O O7 0.591686 0.000000 0.327394
O O8 0.624459 0.254185 0.168807
O O9 0.709896 0.146905 0.119623
O O10 0.669535 0.248905 0.000000
O O11 0.382262 0.382262 0.750000
O O12 0.312994 0.500000 0.710734
O O13 0.696663 0.000000 0.117453
O O14 0.624385 0.917552 0.000000
#
# Coordination Sequence:
#
# PCOD8316038 Si02
#       5
#    16  16  16  16  16
#     4  10  20  33  48  65  88 121 158 192 225 266
#     4  10  20  31  44  66  94 123 156 190 225 270
#     4   9  18  32  50  70  90 115 149 190 233 276
#     4  10  20  33  48  66  87 113 149 192 236 279
#     4   9  17  29  46  69  96 121 145 181 231 281
#
# _framework density 16.044989000000001
#
# number of rings (size 3 to 8) (size 9 to 14) (size 15 to 20)
#    0.000    2.400    2.000    0.600    0.000    3.000 
#    0.000    5.000    0.000    0.000    0.000    5.600 
#    0.000    0.800    0.000   12.200    0.000   20.200 
#
# Total GULP energy -991236.356051 kJ/mol
# GULP energy per Si atom -12390.454451 kJ/mol
# Density = 1.600847 g / cm^3
# Si number density = 16.044989 Si / 1000 Ang^3
#
#
#
# Elastic Constant Matrix: (Units=GPa)
#
#
# Indices 1 2 3 4 5 6 
#
# 1 115.1920 61.2043 41.2930 0.0000 0.0000 0.0000
# 2 61.2043 115.1920 41.2930 0.0000 0.0000 0.0000
# 3 41.2930 41.2930 88.4306 0.0000 0.0000 0.0000
# 4 0.0000 0.0000 0.0000 18.2264 0.0000 0.0000
# 5 0.0000 0.0000 0.0000 0.0000 18.2264 0.0000
# 6 0.0000 0.0000 0.0000 0.0000 0.0000 15.4161
#
#
#
# Elastic Compliance Matrix: (Units=1/GPa)
#
#
# Indices 1 2 3 4 5 6 
#
# 1 0.012889 -0.005634 -0.003388 0.000000 0.000000 0.000000
# 2 -0.005634 0.012889 -0.003388 0.000000 0.000000 0.000000
# 3 -0.003388 -0.003388 0.014472 0.000000 0.000000 0.000000
# 4 0.000000 0.000000 0.000000 0.054866 0.000000 0.000000
# 5 0.000000 0.000000 0.000000 0.000000 0.054866 0.000000
# 6 0.000000 0.000000 0.000000 0.000000 0.000000 0.064867
#
#
# Mechanical properties :
#
#
# Convention : Reuss Voigt Hill
#
# Bulk Modulus (GPa) = 64.80353 67.37724 66.09039
# Shear Modulus (GPa) = 20.42391 22.04206 21.23298
#
# Velocity S-wave (km/s) = 3.57166 3.71046 3.64172
# Velocity P-wave (km/s) = 7.58191 7.77435 7.67873
#
# Compressibility (1/GPa) = 0.01543126
#
# Stress axis : x y z
#
# Youngs Moduli (GPa) = 77.58581 77.58581 69.09790
#
# Poissons Ratio (x) = 0.43710 0.23409
# Poissons Ratio (y) = 0.43710 0.23409
# Poissons Ratio (z) = 0.26285 0.26285
#
# Static dielectric constant tensor:
#      x y z
#    x 3.066130 0.000000 0.000000 
#    y 0.000000 3.066130 0.000000 
#    z 0.000000 0.000000 3.202050 
# 
# 
# High freq. dielectric constant tensor:
#      x y z
#    x 1.597140 0.000000 0.000000 
#    y 0.000000 1.597140 0.000000 
#    z 0.000000 0.000000 1.631140 
# 
# From -- ./inp_files/5677.got.cif
#   From: 2010.03.12/outbox.cif.g09.slc.cpg/sg131_3_cif.got.tgz:5677.got - 2010.04.06 17:36:35.
