data_PCOD8316145
_publ_section_title
;
Structure prediction by ZEFSAII (Michael W. Deem and Ramdas Pophale) SiO2 
 PCOD8316145
Probable space group: P 42/M M C
;
_chemical_formula_sum "Si O2"
_cell_formula_units_Z 64
_cell_length_a 12.735298
_cell_length_b 12.735298
_cell_length_c 22.232991
_cell_angle_alpha 90.000000
_cell_angle_beta 90.000000
_cell_angle_gamma 90.000000
_cell_volume 3605.920235
_symmetry_space_group_name_H-M "P 42/M M C"
_symmetry_group_IT_number 131
_symmetry_cell_setting 'tetragonal'
loop_
_space_group_symop_operation_xyz
x,y,z
-x,-y,z
-y,x,1/2+z
y,-x,1/2+z
-x,y,-z
x,-y,-z
y,x,1/2-z
-y,-x,1/2-z
-x,-y,-z
x,y,-z
y,-x,1/2-z
-y,x,1/2-z
x,-y,z
-x,y,z
-y,-x,1/2+z
y,x,1/2+z
loop_
_atom_site_type_symbol
_atom_site_label
_atom_site_fract_x
_atom_site_fract_y
_atom_site_fract_z
Si Si1 0.221560 0.623942 0.123460
Si Si2 0.291856 0.121558 0.739959
Si Si3 0.380927 0.802428 0.858500
Si Si4 0.374726 0.000000 0.068352
Si Si5 0.115625 0.376096 0.000000
O O1 0.247138 0.500000 0.125703
O O2 0.139258 0.655387 0.175117
O O3 0.327081 0.690015 0.132432
O O4 0.175793 0.660172 0.059565
O O5 0.182983 0.182983 0.750000
O O6 0.374770 0.161281 0.789399
O O7 0.266167 0.000000 0.747931
O O8 0.500000 0.783794 0.877299
O O9 0.330283 0.894879 0.899601
O O10 0.500000 0.000000 0.073731
O O11 0.335268 0.000000 0.000000
O O12 0.104510 0.500000 0.000000
O O13 0.000000 0.324545 0.000000
#
# Coordination Sequence:
#
# PCOD8316145 Si02
#       5
#    16  16  16   8   8
#     4  10  21  34  52  79 108 140 177 215 262 317
#     4  10  20  35  55  79 104 135 175 221 269 316
#     4  10  20  34  54  79 107 139 176 217 262 314
#     4   9  18  32  52  76 100 135 177 215 256 302
#     4   9  18  34  53  74 101 136 177 218 257 304
#
# _framework density 17.748588999999999
#
# number of rings (size 3 to 8) (size 9 to 14) (size 15 to 20)
#    0.000    2.250    1.250    1.500    1.750    3.250 
#    0.000    0.000    0.000    6.750    0.000    0.875 
#    0.000    0.000    0.000    0.000    0.000    0.000 
#
# Total GULP energy -793571.765635 kJ/mol
# GULP energy per Si atom -12399.558838 kJ/mol
# Density = 1.770819 g / cm^3
# Si number density = 17.748589 Si / 1000 Ang^3
#
#
#
# Elastic Constant Matrix: (Units=GPa)
#
#
# Indices 1 2 3 4 5 6 
#
# 1 97.5799 48.8673 38.5353 0.0000 0.0000 0.0000
# 2 48.8673 97.5799 38.5353 0.0000 0.0000 0.0000
# 3 38.5353 38.5353 149.2433 0.0000 0.0000 0.0000
# 4 0.0000 0.0000 0.0000 20.6246 0.0000 0.0000
# 5 0.0000 0.0000 0.0000 0.0000 20.6246 0.0000
# 6 0.0000 0.0000 0.0000 0.0000 0.0000 7.9254
#
#
#
# Elastic Compliance Matrix: (Units=1/GPa)
#
#
# Indices 1 2 3 4 5 6 
#
# 1 0.014215 -0.006313 -0.002040 0.000000 0.000000 0.000000
# 2 -0.006313 0.014215 -0.002040 0.000000 0.000000 0.000000
# 3 -0.002040 -0.002040 0.007754 0.000000 0.000000 0.000000
# 4 0.000000 0.000000 0.000000 0.048486 0.000000 0.000000
# 5 0.000000 0.000000 0.000000 0.000000 0.048486 0.000000
# 6 0.000000 0.000000 0.000000 0.000000 0.000000 0.126177
#
#
# Mechanical properties :
#
#
# Convention : Reuss Voigt Hill
#
# Bulk Modulus (GPa) = 64.94773 66.25320 65.60047
# Shear Modulus (GPa) = 17.52829 24.39928 20.96379
#
# Velocity S-wave (km/s) = 3.14600 3.71174 3.44052
# Velocity P-wave (km/s) = 7.06180 7.46854 7.26802
#
# Compressibility (1/GPa) = 0.01539700
#
# Stress axis : x y z
#
# Youngs Moduli (GPa) = 70.34637 70.34637 128.96335
#
# Poissons Ratio (x) = 0.44411 0.26313
# Poissons Ratio (y) = 0.44411 0.26313
# Poissons Ratio (z) = 0.14353 0.14353
#
# Static dielectric constant tensor:
#      x y z
#    x 3.122720 0.000000 0.000000 
#    y 0.000000 3.122720 0.000000 
#    z 0.000000 0.000000 3.570300 
# 
# 
# High freq. dielectric constant tensor:
#      x y z
#    x 1.673450 0.000000 0.000000 
#    y 0.000000 1.673450 0.000000 
#    z 0.000000 0.000000 1.704990 
# 
# From -- ./inp_files/10834.got.cif
#   From: 2010.03.12/outbox.cif.g09.slc.cpg/sg131_6_cif.got.tgz:10834.got - 2010.04.06 17:36:35.
