data_PCOD8316888
_publ_section_title
;
Structure prediction by ZEFSAII (Michael W. Deem and Ramdas Pophale) SiO2 
 PCOD8316888
Probable space group: P 42/N B C
;
_chemical_formula_sum "Si O2"
_cell_formula_units_Z 96
_cell_length_a 14.297525
_cell_length_b 14.297525
_cell_length_c 25.893491
_cell_angle_alpha 90.000000
_cell_angle_beta 90.000000
_cell_angle_gamma 90.000000
_cell_volume 5293.127262
_symmetry_space_group_name_H-M "P 42/N B C"
_symmetry_group_IT_number 133
_space_group.IT_coordinate_system_code '2'
_symmetry_cell_setting 'tetragonal'
loop_
_space_group_symop_operation_xyz
x,y,z
1/2-y,x,1/2+z
1/2-x,1/2-y,z
y,1/2-x,1/2+z
x,1/2-y,-z
1/2-x,y,-z
y,x,1/2-z
1/2-y,1/2-x,1/2-z
-x,-y,-z
1/2+y,-x,1/2-z
1/2+x,1/2+y,-z
-y,1/2+x,1/2-z
-x,1/2+y,z
1/2+x,-y,z
-y,-x,1/2+z
1/2+y,1/2+x,1/2+z
loop_
_atom_site_type_symbol
_atom_site_label
_atom_site_fract_x
_atom_site_fract_y
_atom_site_fract_z
Si Si1 0.647532 0.447844 0.559509
Si Si2 0.321056 0.945413 0.800727
Si Si3 0.015489 0.485478 0.635064
Si Si4 0.479843 0.878634 0.726081
Si Si5 0.866196 0.058883 0.442527
Si Si6 0.641588 0.250246 0.598532
O O1 0.601910 0.526670 0.595811
O O2 0.616103 0.471761 0.501264
O O3 0.757156 0.451706 0.569567
O O4 0.602390 0.348480 0.577361
O O5 0.383715 0.891704 0.758470
O O6 0.233277 0.000576 0.775148
O O7 0.270928 0.875096 0.840886
O O8 0.391670 0.015085 0.830344
O O9 0.033173 0.577626 0.669442
O O10 0.921861 0.501526 0.600325
O O11 0.570112 0.929889 0.750000
O O12 0.901001 0.166084 0.435785
O O13 0.750000 0.250000 0.587422
#
# Coordination Sequence:
#
# PCOD8316888 Si02
#       6
#    16  16  16  16  16  16
#     4  10  17  32  54  77 114 141 173 226 270 329
#     4  10  21  34  53  79 106 139 183 221 281 325
#     4  10  20  35  53  79 109 144 178 223 271 327
#     4  10  22  36  54  78 108 138 182 234 271 328
#     4   9  19  30  51  83 108 144 180 213 274 332
#     4   9  17  29  49  80 110 135 170 220 279 324
#
# _framework density 18.136725999999999
#
# number of rings (size 3 to 8) (size 9 to 14) (size 15 to 20)
#    0.000    2.333    1.667    1.000    2.333    4.667 
#    0.000    0.000    0.000   11.500    0.000    2.333 
#    0.000    0.000    0.000    0.000    0.000    0.000 
#
# Total GULP energy -1189533.431141 kJ/mol
# GULP energy per Si atom -12390.973241 kJ/mol
# Density = 1.809545 g / cm^3
# Si number density = 18.136726 Si / 1000 Ang^3
#
#
#
# Elastic Constant Matrix: (Units=GPa)
#
#
# Indices 1 2 3 4 5 6 
#
# 1 75.0364 40.0426 45.8848 0.0000 0.0000 0.0000
# 2 40.0426 75.0361 45.8844 0.0000 0.0000 0.0000
# 3 45.8848 45.8844 120.9647 0.0000 0.0000 0.0000
# 4 0.0000 0.0000 0.0000 28.3000 0.0000 0.0000
# 5 0.0000 0.0000 0.0000 0.0000 28.2999 0.0000
# 6 0.0000 0.0000 0.0000 0.0000 0.0000 17.2364
#
#
#
# Elastic Compliance Matrix: (Units=1/GPa)
#
#
# Indices 1 2 3 4 5 6 
#
# 1 0.020517 -0.008059 -0.004726 0.000000 0.000000 0.000000
# 2 -0.008059 0.020517 -0.004726 0.000000 0.000000 0.000000
# 3 -0.004726 -0.004726 0.011852 0.000000 0.000000 0.000000
# 4 0.000000 0.000000 0.000000 0.035336 0.000000 0.000000
# 5 0.000000 0.000000 0.000000 0.000000 0.035336 0.000000
# 6 0.000000 0.000000 0.000000 0.000000 0.000000 0.058017
#
#
# Mechanical properties :
#
#
# Convention : Reuss Voigt Hill
#
# Bulk Modulus (GPa) = 55.97331 59.40674 57.69003
# Shear Modulus (GPa) = 22.46674 24.04896 23.25785
#
# Velocity S-wave (km/s) = 3.52340 3.64535 3.58489
# Velocity P-wave (km/s) = 6.89067 7.10944 7.00091
#
# Compressibility (1/GPa) = 0.01786566
#
# Stress axis : x y z
#
# Youngs Moduli (GPa) = 48.73914 48.73912 84.37426
#
# Poissons Ratio (x) = 0.39280 0.39873
# Poissons Ratio (y) = 0.39280 0.39872
# Poissons Ratio (z) = 0.23033 0.23032
#
# Static dielectric constant tensor:
#      x y z
#    x 3.273650 0.000000 0.000000 
#    y 0.000000 3.273650 0.000000 
#    z 0.000000 0.000000 3.587000 
# 
# 
# High freq. dielectric constant tensor:
#      x y z
#    x 1.679620 0.000000 0.000000 
#    y 0.000000 1.679620 0.000000 
#    z 0.000000 0.000000 1.724900 
# 
# From -- ./inp_files/8043.got.cif
#   From: 2010.03.12/outbox.cif.g09.slc.cpg/sg133_5_cif.got.tgz:8043.got - 2010.04.06 18:08:06.
