data_PCOD8316111
_publ_section_title
;
Structure prediction by ZEFSAII (Michael W. Deem and Ramdas Pophale) SiO2 
 PCOD8316111
Probable space group: P 42/M M C
;
_chemical_formula_sum "Si O2"
_cell_formula_units_Z 42
_cell_length_a 14.615279
_cell_length_b 14.615279
_cell_length_c 8.894129
_cell_angle_alpha 90.000000
_cell_angle_beta 90.000000
_cell_angle_gamma 90.000000
_cell_volume 1899.842701
_symmetry_space_group_name_H-M "P 42/M M C"
_symmetry_group_IT_number 131
_symmetry_cell_setting 'tetragonal'
loop_
_space_group_symop_operation_xyz
x,y,z
-x,-y,z
-y,x,1/2+z
y,-x,1/2+z
-x,y,-z
x,-y,-z
y,x,1/2-z
-y,-x,1/2-z
-x,-y,-z
x,y,-z
y,-x,1/2-z
-y,x,1/2-z
x,-y,z
-x,y,z
-y,-x,1/2+z
y,x,1/2+z
loop_
_atom_site_type_symbol
_atom_site_label
_atom_site_fract_x
_atom_site_fract_y
_atom_site_fract_z
Si Si1 0.192013 0.673217 0.679790
Si Si2 0.000000 0.334085 0.831671
Si Si3 0.000000 0.122493 0.162841
Si Si4 0.500000 0.500000 0.750000
Si Si5 0.500000 0.701993 0.165855
O O1 0.232100 0.767901 0.750000
O O2 0.188961 0.684945 0.500000
O O3 0.259253 0.592535 0.740901
O O4 0.091738 0.642715 0.738890
O O5 0.000000 0.228022 0.854643
O O6 0.000000 0.379913 0.000000
O O7 0.909487 0.090514 0.250000
O O8 0.000000 0.075819 0.000000
O O9 0.407881 0.500000 0.652511
O O10 0.500000 0.743921 0.000000
#
# Coordination Sequence:
#
# PCOD8316111 Si02
#       5
#    16   8   8   2   8
#     4  11  23  42  65  95 131 172 218 271 327 391
#     4  11  24  41  60  88 124 171 220 268 322 385
#     4  10  20  33  53  79 111 147 200 258 313 369
#     4  12  18  44  72 102 136 168 210 264 330 396
#     4  10  23  40  66 100 133 169 212 263 331 396
#
# _framework density 22.107092999999999
#
# number of rings (size 3 to 8) (size 9 to 14) (size 15 to 20)
#    0.000    1.333    1.905    4.286    0.000    6.857 
#    0.000    7.619    0.000    0.000    0.000    0.000 
#    0.000    0.000    0.000    0.000    0.000    0.000 
#
# Total GULP energy -520342.158052 kJ/mol
# GULP energy per Si atom -12389.099001 kJ/mol
# Density = 2.205678 g / cm^3
# Si number density = 22.107093 Si / 1000 Ang^3
#
#
#
# Elastic Constant Matrix: (Units=GPa)
#
#
# Indices 1 2 3 4 5 6 
#
# 1 130.5006 41.6503 37.2233 0.0000 0.0000 0.0000
# 2 41.6503 130.4969 37.2228 0.0000 0.0000 0.0000
# 3 37.2233 37.2228 142.1876 0.0000 0.0000 0.0000
# 4 0.0000 0.0000 0.0000 23.3384 0.0000 0.0000
# 5 0.0000 0.0000 0.0000 0.0000 23.3386 0.0000
# 6 0.0000 0.0000 0.0000 0.0000 0.0000 55.0717
#
#
#
# Elastic Compliance Matrix: (Units=1/GPa)
#
#
# Indices 1 2 3 4 5 6 
#
# 1 0.008903 -0.002352 -0.001715 0.000000 0.000000 0.000000
# 2 -0.002352 0.008903 -0.001715 0.000000 0.000000 0.000000
# 3 -0.001715 -0.001715 0.007931 0.000000 0.000000 0.000000
# 4 0.000000 0.000000 0.000000 0.042848 0.000000 0.000000
# 5 0.000000 0.000000 0.000000 0.000000 0.042847 0.000000
# 6 0.000000 0.000000 0.000000 0.000000 0.000000 0.018158
#
#
# Mechanical properties :
#
#
# Convention : Reuss Voigt Hill
#
# Bulk Modulus (GPa) = 70.55945 70.59754 70.57849
# Shear Modulus (GPa) = 34.27519 39.48898 36.88208
#
# Velocity S-wave (km/s) = 3.94180 4.23100 4.08896
# Velocity P-wave (km/s) = 7.25972 7.47477 7.36803
#
# Compressibility (1/GPa) = 0.01417245
#
# Stress axis : x y z
#
# Youngs Moduli (GPa) = 112.32559 112.32247 126.09047
#
# Poissons Ratio (x) = 0.26422 0.21622
# Poissons Ratio (y) = 0.26422 0.21623
# Poissons Ratio (z) = 0.19262 0.19262
#
# Static dielectric constant tensor:
#      x y z
#    x 4.082650 0.000000 0.000000 
#    y 0.000000 4.082650 0.000000 
#    z 0.000000 0.000000 4.305500 
# 
# 
# High freq. dielectric constant tensor:
#      x y z
#    x 1.875410 0.000000 0.000000 
#    y 0.000000 1.875410 0.000000 
#    z 0.000000 0.000000 1.863400 
# 
# From -- ./inp_files/813.got.cif
#   From: 2010.03.12/outbox.cif.g09.slc.cpg/sg131_1_cif.got.tgz:813.got - 2010.04.06 17:36:35.
