data_PCOD8316033
_publ_section_title
;
Structure prediction by ZEFSAII (Michael W. Deem and Ramdas Pophale) SiO2 
 PCOD8316033
Probable space group: P 42/M M C
;
_chemical_formula_sum "Si O2"
_cell_formula_units_Z 56
_cell_length_a 24.673736
_cell_length_b 24.673736
_cell_length_c 8.073713
_cell_angle_alpha 90.000000
_cell_angle_beta 90.000000
_cell_angle_gamma 90.000000
_cell_volume 4915.221962
_symmetry_space_group_name_H-M "P 42/M M C"
_symmetry_group_IT_number 131
_symmetry_cell_setting 'tetragonal'
loop_
_space_group_symop_operation_xyz
x,y,z
-x,-y,z
-y,x,1/2+z
y,-x,1/2+z
-x,y,-z
x,-y,-z
y,x,1/2-z
-y,-x,1/2-z
-x,-y,-z
x,y,-z
y,-x,1/2-z
-y,x,1/2-z
x,-y,z
-x,y,z
-y,-x,1/2+z
y,x,1/2+z
loop_
_atom_site_type_symbol
_atom_site_label
_atom_site_fract_x
_atom_site_fract_y
_atom_site_fract_z
Si Si1 0.064625 0.561413 0.500000
Si Si2 0.853468 0.939088 0.305520
Si Si3 0.260085 0.936691 0.810705
Si Si4 0.064546 0.372329 0.816341
O O1 0.085949 0.500000 0.500000
O O2 0.087314 0.589797 0.331950
O O3 0.000000 0.563683 0.500000
O O4 0.904504 0.904504 0.250000
O O5 0.850099 0.941009 0.500000
O O6 0.797822 0.911161 0.239702
O O7 0.860960 0.000000 0.233261
O O8 0.310832 0.913281 0.706631
O O9 0.254814 0.000000 0.773839
O O10 0.273375 0.924145 0.000000
O O11 0.000000 0.371953 0.803393
O O12 0.082701 0.393058 0.000000
#
# Coordination Sequence:
#
# PCOD8316033 Si02
#       4
#     8  16  16  16
#     4   9  16  24  32  46  68  88 105 125 147 169
#     4  10  20  31  41  53  66  80  99 123 156 197
#     4   9  15  25  40  53  64  78  98 124 150 176
#     4   9  15  23  35  49  64  83 106 127 146 169
#
# _framework density 11.393179
#
# number of rings (size 3 to 8) (size 9 to 14) (size 15 to 20)
#    0.000    2.714    1.429    1.714    0.000    6.000 
#    0.000    4.286    0.000    0.000    0.000    0.000 
#    0.000    0.000    0.000    0.000    0.000    0.000 
#
# Total GULP energy -693907.152945 kJ/mol
# GULP energy per Si atom -12391.199160 kJ/mol
# Density = 1.136725 g / cm^3
# Si number density = 11.393179 Si / 1000 Ang^3
#
#
#
# Elastic Constant Matrix: (Units=GPa)
#
#
# Indices 1 2 3 4 5 6 
#
# 1 48.1272 16.7576 23.8135 0.0000 0.0000 0.0000
# 2 16.7576 48.1272 23.8135 0.0000 0.0000 0.0000
# 3 23.8135 23.8135 44.3802 0.0000 0.0000 0.0000
# 4 0.0000 0.0000 0.0000 11.7069 0.0000 0.0000
# 5 0.0000 0.0000 0.0000 0.0000 11.7069 0.0000
# 6 0.0000 0.0000 0.0000 0.0000 0.0000 0.1101
#
#
#
# Elastic Compliance Matrix: (Units=1/GPa)
#
#
# Indices 1 2 3 4 5 6 
#
# 1 0.028652 -0.003226 -0.013643 0.000000 0.000000 0.000000
# 2 -0.003226 0.028652 -0.013643 0.000000 0.000000 0.000000
# 3 -0.013643 -0.013643 0.037174 0.000000 0.000000 0.000000
# 4 0.000000 0.000000 0.000000 0.085420 0.000000 0.000000
# 5 0.000000 0.000000 0.000000 0.000000 0.085420 0.000000
# 6 0.000000 0.000000 0.000000 0.000000 0.000000 9.086130
#
#
# Mechanical properties :
#
#
# Convention : Reuss Voigt Hill
#
# Bulk Modulus (GPa) = 29.89211 29.93378 29.91295
# Shear Modulus (GPa) = 0.53058 9.78810 5.15934
#
# Velocity S-wave (km/s) = 0.68316 2.93425 2.13032
# Velocity P-wave (km/s) = 5.18807 6.14900 5.68886
#
# Compressibility (1/GPa) = 0.03345364
#
# Stress axis : x y z
#
# Youngs Moduli (GPa) = 34.90131 34.90131 26.90047
#
# Poissons Ratio (x) = 0.11258 0.36701
# Poissons Ratio (y) = 0.11258 0.36701
# Poissons Ratio (z) = 0.47617 0.47617
#
# Static dielectric constant tensor:
#      x y z
#    x 2.180960 0.000000 0.000000 
#    y 0.000000 2.180960 0.000000 
#    z 0.000000 0.000000 2.611210 
# 
# 
# High freq. dielectric constant tensor:
#      x y z
#    x 1.385220 0.000000 0.000000 
#    y 0.000000 1.385220 0.000000 
#    z 0.000000 0.000000 1.454000 
# 
# From -- ./inp_files/1495.got.cif
#   From: 2010.03.12/outbox.cif.g09.slc.cpg/sg131_1_cif.got.tgz:1495.got - 2010.04.06 17:36:35.
