data_PCOD8316999
_publ_section_title
;
Structure prediction by ZEFSAII (Michael W. Deem and Ramdas Pophale) SiO2 
 PCOD8316999
Probable space group: P 42/N B C
;
_chemical_formula_sum "Si O2"
_cell_formula_units_Z 52
_cell_length_a 16.645941
_cell_length_b 16.645941
_cell_length_c 8.615134
_cell_angle_alpha 90.000000
_cell_angle_beta 90.000000
_cell_angle_gamma 90.000000
_cell_volume 2387.144665
_symmetry_space_group_name_H-M "P 42/N B C"
_symmetry_group_IT_number 133
_space_group.IT_coordinate_system_code '2'
_symmetry_cell_setting 'tetragonal'
loop_
_space_group_symop_operation_xyz
x,y,z
1/2-y,x,1/2+z
1/2-x,1/2-y,z
y,1/2-x,1/2+z
x,1/2-y,-z
1/2-x,y,-z
y,x,1/2-z
1/2-y,1/2-x,1/2-z
-x,-y,-z
1/2+y,-x,1/2-z
1/2+x,1/2+y,-z
-y,1/2+x,1/2-z
-x,1/2+y,z
1/2+x,-y,z
-y,-x,1/2+z
1/2+y,1/2+x,1/2+z
loop_
_atom_site_type_symbol
_atom_site_label
_atom_site_fract_x
_atom_site_fract_y
_atom_site_fract_z
Si Si1 0.987395 0.098456 0.353124
Si Si2 0.250000 0.250000 0.500000
Si Si3 0.871169 0.878520 0.421346
Si Si4 0.957343 0.333287 0.955562
O O1 0.951461 0.161885 0.231050
O O2 0.914218 0.072131 0.461705
O O3 0.053569 0.140124 0.464080
O O4 0.025627 0.025627 0.250000
O O5 0.189713 0.195698 0.600947
O O6 0.902494 0.902494 0.250000
O O7 0.821383 0.950771 0.495342
O O8 0.911214 0.250000 0.000000
#
# Coordination Sequence:
#
# PCOD8316999 Si02
#       4
#    16   4  16  16
#     4  10  22  42  64  93 128 177 222 265 330 399
#     4  12  26  36  60 106 152 168 200 256 334 400
#     4  11  23  39  62  94 140 179 210 257 326 406
#     4  11  22  41  67  94 123 167 232 273 324 388
#
# _framework density 21.783346999999999
#
# number of rings (size 3 to 8) (size 9 to 14) (size 15 to 20)
#    0.000    1.231    1.538    6.923    4.308    2.462 
#    0.000    0.000    0.000    2.769    0.000    0.000 
#    0.000    0.000    0.000    0.000    0.000    0.000 
#
# Total GULP energy -644202.033059 kJ/mol
# GULP energy per Si atom -12388.500636 kJ/mol
# Density = 2.173377 g / cm^3
# Si number density = 21.783347 Si / 1000 Ang^3
#
#
#
# Elastic Constant Matrix: (Units=GPa)
#
#
# Indices 1 2 3 4 5 6 
#
# 1 101.3999 49.4899 48.9415 0.0000 0.0000 0.0000
# 2 49.4899 101.3999 48.9415 0.0000 0.0000 0.0000
# 3 48.9415 48.9415 186.1630 0.0000 0.0000 0.0000
# 4 0.0000 0.0000 0.0000 11.6002 0.0000 0.0000
# 5 0.0000 0.0000 0.0000 0.0000 11.6002 0.0000
# 6 0.0000 0.0000 0.0000 0.0000 0.0000 33.1480
#
#
#
# Elastic Compliance Matrix: (Units=1/GPa)
#
#
# Indices 1 2 3 4 5 6 
#
# 1 0.013627 -0.005637 -0.002101 0.000000 0.000000 0.000000
# 2 -0.005637 0.013627 -0.002101 0.000000 0.000000 0.000000
# 3 -0.002101 -0.002101 0.006476 0.000000 0.000000 0.000000
# 4 0.000000 0.000000 0.000000 0.086205 0.000000 0.000000
# 5 0.000000 0.000000 0.000000 0.000000 0.086205 0.000000
# 6 0.000000 0.000000 0.000000 0.000000 0.000000 0.030168
#
#
# Mechanical properties :
#
#
# Convention : Reuss Voigt Hill
#
# Bulk Modulus (GPa) = 71.15460 75.96762 73.56111
# Shear Modulus (GPa) = 19.18138 27.37569 23.27853
#
# Velocity S-wave (km/s) = 2.97063 3.54888 3.27255
# Velocity P-wave (km/s) = 6.67097 7.19323 6.93702
#
# Compressibility (1/GPa) = 0.01405390
#
# Stress axis : x y z
#
# Youngs Moduli (GPa) = 73.38352 73.38352 154.41448
#
# Poissons Ratio (x) = 0.41367 0.32435
# Poissons Ratio (y) = 0.41367 0.32435
# Poissons Ratio (z) = 0.15414 0.15414
#
# Static dielectric constant tensor:
#      x y z
#    x 3.836160 0.000000 0.000000 
#    y 0.000000 3.836160 0.000000 
#    z 0.000000 0.000000 4.230690 
# 
# 
# High freq. dielectric constant tensor:
#      x y z
#    x 1.834720 0.000000 0.000000 
#    y 0.000000 1.834720 0.000000 
#    z 0.000000 0.000000 1.874690 
# 
# From -- ./inp_files/1182.got.cif
#   From: 2010.03.12/outbox.cif.g09.slc.cpg/sg133_1_cif.got.tgz:1182.got - 2010.04.06 18:08:06.
