data_PCOD8316392
_publ_section_title
;
Structure prediction by ZEFSAII (Michael W. Deem and Ramdas Pophale) SiO2 
 PCOD8316392
Probable space group: P 42/M M C
;
_chemical_formula_sum "Si O2"
_cell_formula_units_Z 88
_cell_length_a 26.546345
_cell_length_b 26.546345
_cell_length_c 9.362787
_cell_angle_alpha 90.000000
_cell_angle_beta 90.000000
_cell_angle_gamma 90.000000
_cell_volume 6598.034954
_symmetry_space_group_name_H-M "P 42/M M C"
_symmetry_group_IT_number 131
_symmetry_cell_setting 'tetragonal'
loop_
_space_group_symop_operation_xyz
x,y,z
-x,-y,z
-y,x,1/2+z
y,-x,1/2+z
-x,y,-z
x,-y,-z
y,x,1/2-z
-y,-x,1/2-z
-x,-y,-z
x,y,-z
y,-x,1/2-z
-y,x,1/2-z
x,-y,z
-x,y,z
-y,-x,1/2+z
y,x,1/2+z
loop_
_atom_site_type_symbol
_atom_site_label
_atom_site_fract_x
_atom_site_fract_y
_atom_site_fract_z
Si Si1 0.764549 0.442077 0.665446
Si Si2 0.059618 0.500000 0.157694
Si Si3 0.306893 0.625438 0.837675
Si Si4 0.223096 0.711102 0.839770
Si Si5 0.056529 0.594195 0.662610
Si Si6 0.842779 0.643410 0.338032
O O1 0.749009 0.436895 0.500000
O O2 0.776404 0.500000 0.705790
O O3 0.717500 0.422793 0.759622
O O4 0.814442 0.409151 0.698502
O O5 0.077320 0.450680 0.240329
O O6 0.000000 0.500000 0.149596
O O7 0.083827 0.500000 0.000000
O O8 0.356170 0.643831 0.750000
O O9 0.266927 0.670200 0.839712
O O10 0.322270 0.611047 0.000000
O O11 0.240247 0.759754 0.750000
O O12 0.173694 0.687865 0.766721
O O13 0.209491 0.727999 0.000000
O O14 0.056413 0.574647 0.500000
O O15 0.096930 0.638691 0.682030
O O16 0.000000 0.612356 0.706158
O O17 0.829281 0.659055 0.500000
#
# Coordination Sequence:
#
# PCOD8316392 Si02
#       6
#    16   8  16  16  16  16
#     4   9  17  27  38  53  74  97 118 142 173 208
#     4   9  17  27  37  49  65  87 117 155 195 227
#     4   9  16  26  40  55  71  91 114 138 166 204
#     4   9  16  26  40  56  74  92 115 143 178 219
#     4   9  17  28  41  54  69  93 126 160 190 223
#     4   9  17  27  40  55  73  96 124 152 184 220
#
# _framework density 13.337305000000001
#
# number of rings (size 3 to 8) (size 9 to 14) (size 15 to 20)
#    0.000    3.000    0.000    1.364    1.273    6.545 
#    0.000    0.000    0.000    0.000    0.000    0.000 
#    0.000    0.364    0.000    3.818    0.000    2.000 
#
# Total GULP energy -1090802.981666 kJ/mol
# GULP energy per Si atom -12395.488428 kJ/mol
# Density = 1.330695 g / cm^3
# Si number density = 13.337305 Si / 1000 Ang^3
#
#
#
# Elastic Constant Matrix: (Units=GPa)
#
#
# Indices 1 2 3 4 5 6 
#
# 1 50.0891 33.6955 36.3632 0.0000 0.0000 0.0000
# 2 33.6955 50.0890 36.3632 0.0000 0.0000 0.0000
# 3 36.3632 36.3632 91.1152 0.0000 0.0000 0.0000
# 4 0.0000 0.0000 0.0000 15.8482 0.0000 0.0000
# 5 0.0000 0.0000 0.0000 0.0000 15.8481 0.0000
# 6 0.0000 0.0000 0.0000 0.0000 0.0000 12.0308
#
#
#
# Elastic Compliance Matrix: (Units=1/GPa)
#
#
# Indices 1 2 3 4 5 6 
#
# 1 0.039630 -0.021369 -0.007288 0.000000 0.000000 0.000000
# 2 -0.021369 0.039631 -0.007288 0.000000 0.000000 0.000000
# 3 -0.007288 -0.007288 0.016792 0.000000 0.000000 0.000000
# 4 0.000000 0.000000 0.000000 0.063099 0.000000 0.000000
# 5 0.000000 0.000000 0.000000 0.000000 0.063099 0.000000
# 6 0.000000 0.000000 0.000000 0.000000 0.000000 0.083120
#
#
# Mechanical properties :
#
#
# Convention : Reuss Voigt Hill
#
# Bulk Modulus (GPa) = 41.38514 44.90412 43.14463
# Shear Modulus (GPa) = 12.97640 14.40353 13.68997
#
# Velocity S-wave (km/s) = 3.12258 3.28981 3.20729
# Velocity P-wave (km/s) = 6.64061 6.94058 6.79225
#
# Compressibility (1/GPa) = 0.02416327
#
# Stress axis : x y z
#
# Youngs Moduli (GPa) = 25.23312 25.23305 59.55135
#
# Poissons Ratio (x) = 0.53921 0.43401
# Poissons Ratio (y) = 0.53921 0.43401
# Poissons Ratio (z) = 0.18390 0.18390
#
# Static dielectric constant tensor:
#      x y z
#    x 2.447800 0.000000 0.000000 
#    y 0.000000 2.447800 0.000000 
#    z 0.000000 0.000000 2.914300 
# 
# 
# High freq. dielectric constant tensor:
#      x y z
#    x 1.470280 0.000000 0.000000 
#    y 0.000000 1.470280 0.000000 
#    z 0.000000 0.000000 1.522510 
# 
# From -- ./inp_files/2452.got.cif
#   From: 2010.03.12/outbox.cif.g09.slc.cpg/sg131_2_cif.got.tgz:2452.got - 2010.04.06 17:36:35.
