data_PCOD8316543
_publ_section_title
;
Structure prediction by ZEFSAII (Michael W. Deem and Ramdas Pophale) SiO2 
 PCOD8316543
Probable space group: P 42/M C M
;
_chemical_formula_sum "Si O2"
_cell_formula_units_Z 96
_cell_length_a 18.052990
_cell_length_b 18.052990
_cell_length_c 17.478814
_cell_angle_alpha 90.000000
_cell_angle_beta 90.000000
_cell_angle_gamma 90.000000
_cell_volume 5696.528100
_symmetry_space_group_name_H-M "P 42/M C M"
_symmetry_group_IT_number 132
_symmetry_cell_setting 'tetragonal'
loop_
_space_group_symop_operation_xyz
x,y,z
-y,x,1/2+z
-x,-y,z
y,-x,1/2+z
x,-y,1/2-z
-x,y,1/2-z
y,x,-z
-y,-x,-z
-x,-y,-z
y,-x,1/2-z
x,y,-z
-y,x,1/2-z
-x,y,1/2+z
x,-y,1/2+z
-y,-x,z
y,x,z
loop_
_atom_site_type_symbol
_atom_site_label
_atom_site_fract_x
_atom_site_fract_y
_atom_site_fract_z
Si Si1 0.318460 0.197400 0.707327
Si Si2 0.998623 0.388710 0.913933
Si Si3 0.996139 0.119184 0.415722
Si Si4 0.440356 0.865936 0.685713
Si Si5 0.254017 0.044897 0.676100
Si Si6 0.437146 0.834130 0.086752
O O1 0.273965 0.273965 0.720785
O O2 0.370720 0.179317 0.780153
O O3 0.258825 0.132063 0.694815
O O4 0.369624 0.204251 0.631868
O O5 0.058904 0.412976 0.852832
O O6 0.974776 0.305148 0.895964
O O7 0.923997 0.437284 0.907136
O O8 0.030883 0.393656 0.000000
O O9 0.993720 0.157749 0.500000
O O10 0.053895 0.053895 0.419021
O O11 0.020416 0.172441 0.347494
O O12 0.915137 0.084864 0.396582
O O13 0.500000 0.888387 0.750000
O O14 0.483335 0.813074 0.624446
O O15 0.280766 0.000000 0.750000
O O16 0.432520 0.805874 0.000000
#
# Coordination Sequence:
#
# PCOD8316543 Si02
#       6
#    16  16  16  16  16  16
#     4  10  21  34  49  73 105 138 168 205 256 307
#     4  10  19  31  48  74 101 128 165 206 249 301
#     4   9  19  35  50  62  80 114 167 228 279 313
#     4  10  19  32  51  72 101 133 166 205 245 299
#     4  11  20  32  48  69  96 130 169 216 258 303
#     4   9  19  32  52  77  99 130 168 208 253 300
#
# _framework density 16.852370000000001
#
# number of rings (size 3 to 8) (size 9 to 14) (size 15 to 20)
#    0.000    2.167    1.667    2.500    0.000    7.000 
#    0.000    0.833    0.000    2.000    0.000    0.000 
#    0.000   27.000    0.000   13.500    0.000    0.000 
#
# Total GULP energy -1189843.418102 kJ/mol
# GULP energy per Si atom -12394.202272 kJ/mol
# Density = 1.681401 g / cm^3
# Si number density = 16.852370 Si / 1000 Ang^3
#
#
#
# Elastic Constant Matrix: (Units=GPa)
#
#
# Indices 1 2 3 4 5 6 
#
# 1 78.4684 42.2531 43.4158 0.0000 0.0000 0.0000
# 2 42.2531 78.4684 43.4158 0.0000 0.0000 0.0000
# 3 43.4158 43.4158 105.1972 0.0000 0.0000 0.0000
# 4 0.0000 0.0000 0.0000 18.3837 0.0000 0.0000
# 5 0.0000 0.0000 0.0000 0.0000 18.3837 0.0000
# 6 0.0000 0.0000 0.0000 0.0000 0.0000 11.5018
#
#
#
# Elastic Compliance Matrix: (Units=1/GPa)
#
#
# Indices 1 2 3 4 5 6 
#
# 1 0.019697 -0.007916 -0.004862 0.000000 0.000000 0.000000
# 2 -0.007916 0.019697 -0.004862 0.000000 0.000000 0.000000
# 3 -0.004862 -0.004862 0.013519 0.000000 0.000000 0.000000
# 4 0.000000 0.000000 0.000000 0.054396 0.000000 0.000000
# 5 0.000000 0.000000 0.000000 0.000000 0.054396 0.000000
# 6 0.000000 0.000000 0.000000 0.000000 0.000000 0.086943
#
#
# Mechanical properties :
#
#
# Convention : Reuss Voigt Hill
#
# Bulk Modulus (GPa) = 56.71356 57.81150 57.26253
# Shear Modulus (GPa) = 17.25302 18.52379 17.88840
#
# Velocity S-wave (km/s) = 3.20312 3.31899 3.26157
# Velocity P-wave (km/s) = 6.88521 7.00476 6.94525
#
# Compressibility (1/GPa) = 0.01763247
#
# Stress axis : x y z
#
# Youngs Moduli (GPa) = 50.77010 50.77010 73.96939
#
# Poissons Ratio (x) = 0.40190 0.35964
# Poissons Ratio (y) = 0.40190 0.35964
# Poissons Ratio (z) = 0.24684 0.24684
#
# Static dielectric constant tensor:
#      x y z
#    x 2.988620 0.000000 0.000000 
#    y 0.000000 2.988620 0.000000 
#    z 0.000000 0.000000 3.379420 
# 
# 
# High freq. dielectric constant tensor:
#      x y z
#    x 1.622760 0.000000 0.000000 
#    y 0.000000 1.622760 0.000000 
#    z 0.000000 0.000000 1.664640 
# 
# From -- ./inp_files/6438.got.cif
#   From: 2010.03.12/outbox.cif.g09.slc.cpg/sg132_4_cif.got.tgz:6438.got - 2010.04.06 17:53:44.
