data_PCOD8316529
_publ_section_title
;
Structure prediction by ZEFSAII (Michael W. Deem and Ramdas Pophale) SiO2 
 PCOD8316529
Probable space group: P 42/M C M
;
_chemical_formula_sum "Si O2"
_cell_formula_units_Z 96
_cell_length_a 25.199686
_cell_length_b 25.199686
_cell_length_c 9.202416
_cell_angle_alpha 90.000000
_cell_angle_beta 90.000000
_cell_angle_gamma 90.000000
_cell_volume 5843.756624
_symmetry_space_group_name_H-M "P 42/M C M"
_symmetry_group_IT_number 132
_symmetry_cell_setting 'tetragonal'
loop_
_space_group_symop_operation_xyz
x,y,z
-y,x,1/2+z
-x,-y,z
y,-x,1/2+z
x,-y,1/2-z
-x,y,1/2-z
y,x,-z
-y,-x,-z
-x,-y,-z
y,-x,1/2-z
x,y,-z
-y,x,1/2-z
-x,y,1/2+z
x,-y,1/2+z
-y,-x,z
y,x,z
loop_
_atom_site_type_symbol
_atom_site_label
_atom_site_fract_x
_atom_site_fract_y
_atom_site_fract_z
Si Si1 0.859011 0.343325 0.328064
Si Si2 0.866022 0.449614 0.163979
Si Si3 0.947755 0.258924 0.331364
Si Si4 0.336382 0.249438 0.671500
Si Si5 0.740057 0.451779 0.159046
Si Si6 0.053067 0.861623 0.329503
O O1 0.853480 0.353343 0.500000
O O2 0.880774 0.396548 0.252081
O O3 0.898964 0.296190 0.289437
O O4 0.803021 0.324639 0.263131
O O5 0.890553 0.500000 0.250000
O O6 0.803220 0.456076 0.155439
O O7 0.889542 0.447060 0.000000
O O8 0.960844 0.262208 0.500000
O O9 0.933149 0.198826 0.284916
O O10 0.000000 0.279326 0.250000
O O11 0.338407 0.235179 0.500000
O O12 0.291279 0.291279 0.709708
O O13 0.393260 0.274324 0.720227
O O14 0.714889 0.500000 0.250000
O O15 0.715511 0.458547 0.000000
O O16 0.043128 0.866892 0.500000
O O17 0.101995 0.898006 0.278193
O O18 0.000000 0.881318 0.250000
#
# Coordination Sequence:
#
# PCOD8316529 Si02
#       6
#    16  16  16  16  16  16
#     4  10  19  30  46  69  93 119 152 188 231 279
#     4   9  16  27  44  66  91 119 151 188 228 270
#     4   9  19  34  51  69  90 119 154 189 223 265
#     4   9  18  31  44  62  92 126 156 187 227 275
#     4   8  14  24  39  58  81 112 148 183 218 260
#     4   9  18  33  51  70  93 119 147 182 224 269
#
# _framework density 16.427788
#
# number of rings (size 3 to 8) (size 9 to 14) (size 15 to 20)
#    0.000    3.000    0.000    2.000    0.000    6.833 
#    0.000    2.500    0.000    0.500    0.000    3.500 
#    0.000    0.333    0.000    4.167    0.000    0.167 
#
# Total GULP energy -1190045.394239 kJ/mol
# GULP energy per Si atom -12396.306190 kJ/mol
# Density = 1.639040 g / cm^3
# Si number density = 16.427788 Si / 1000 Ang^3
#
#
#
# Elastic Constant Matrix: (Units=GPa)
#
#
# Indices 1 2 3 4 5 6 
#
# 1 100.7369 71.1807 54.5533 0.0000 0.0000 0.0000
# 2 71.1807 100.7369 54.5533 0.0000 0.0000 0.0000
# 3 54.5533 54.5533 78.8444 0.0000 0.0000 0.0000
# 4 0.0000 0.0000 0.0000 23.5993 0.0000 0.0000
# 5 0.0000 0.0000 0.0000 0.0000 23.5993 0.0000
# 6 0.0000 0.0000 0.0000 0.0000 0.0000 1.1786
#
#
#
# Elastic Compliance Matrix: (Units=1/GPa)
#
#
# Indices 1 2 3 4 5 6 
#
# 1 0.022102 -0.011732 -0.007176 0.000000 0.000000 0.000000
# 2 -0.011732 0.022102 -0.007176 0.000000 0.000000 0.000000
# 3 -0.007176 -0.007176 0.022613 0.000000 0.000000 0.000000
# 4 0.000000 0.000000 0.000000 0.042374 0.000000 0.000000
# 5 0.000000 0.000000 0.000000 0.000000 0.042374 0.000000
# 6 0.000000 0.000000 0.000000 0.000000 0.000000 0.848493
#
#
# Mechanical properties :
#
#
# Convention : Reuss Voigt Hill
#
# Bulk Modulus (GPa) = 68.25024 71.21030 69.73027
# Shear Modulus (GPa) = 4.72989 16.34416 10.53702
#
# Velocity S-wave (km/s) = 1.69866 3.15764 2.53536
# Velocity P-wave (km/s) = 6.74411 7.53232 7.14909
#
# Compressibility (1/GPa) = 0.01465196
#
# Stress axis : x y z
#
# Youngs Moduli (GPa) = 45.24427 45.24427 44.22238
#
# Poissons Ratio (x) = 0.53079 0.31732
# Poissons Ratio (y) = 0.53079 0.31732
# Poissons Ratio (z) = 0.32466 0.32466
#
# Static dielectric constant tensor:
#      x y z
#    x 3.057010 0.000000 0.000000 
#    y 0.000000 3.057010 0.000000 
#    z 0.000000 0.000000 3.231740 
# 
# 
# High freq. dielectric constant tensor:
#      x y z
#    x 1.614100 0.000000 0.000000 
#    y 0.000000 1.614100 0.000000 
#    z 0.000000 0.000000 1.638330 
# 
# From -- ./inp_files/1747.got.cif
#   From: 2010.03.12/outbox.cif.g09.slc.cpg/sg132_1_cif.got.tgz:1747.got - 2010.04.06 17:53:44.
