data_PCOD8316802
_publ_section_title
;
Structure prediction by ZEFSAII (Michael W. Deem and Ramdas Pophale) SiO2 
 PCOD8316802
Probable space group: P 42/M C M
;
_chemical_formula_sum "Si O2"
_cell_formula_units_Z 96
_cell_length_a 24.051524
_cell_length_b 24.051524
_cell_length_c 8.703156
_cell_angle_alpha 90.000000
_cell_angle_beta 90.000000
_cell_angle_gamma 90.000000
_cell_volume 5034.565188
_symmetry_space_group_name_H-M "P 42/M C M"
_symmetry_group_IT_number 132
_symmetry_cell_setting 'tetragonal'
loop_
_space_group_symop_operation_xyz
x,y,z
-y,x,1/2+z
-x,-y,z
y,-x,1/2+z
x,-y,1/2-z
-x,y,1/2-z
y,x,-z
-y,-x,-z
-x,-y,-z
y,-x,1/2-z
x,y,-z
-y,x,1/2-z
-x,y,1/2+z
x,-y,1/2+z
-y,-x,z
y,x,z
loop_
_atom_site_type_symbol
_atom_site_label
_atom_site_fract_x
_atom_site_fract_y
_atom_site_fract_z
Si Si1 0.234643 0.143725 0.319229
Si Si2 0.556577 0.356145 0.681998
Si Si3 0.858334 0.643753 0.818905
Si Si4 0.443744 0.768167 0.320243
Si Si5 0.151286 0.060212 0.820305
Si Si6 0.556745 0.939107 0.682326
O O1 0.243490 0.138479 0.500000
O O2 0.197688 0.197688 0.276311
O O3 0.293654 0.149171 0.237459
O O4 0.204484 0.088203 0.259782
O O5 0.500000 0.381330 0.750000
O O6 0.553450 0.357699 0.500000
O O7 0.607423 0.392578 0.744630
O O8 0.565810 0.293794 0.744550
O O9 0.802753 0.610459 0.773618
O O10 0.908217 0.612676 0.733488
O O11 0.869792 0.643364 0.000000
O O12 0.500000 0.794373 0.250000
O O13 0.452648 0.767824 0.500000
O O14 0.096351 0.096351 0.787206
O O15 0.140653 0.000000 0.750000
O O16 0.163812 0.055349 0.000000
O O17 0.500000 0.911187 0.750000
O O18 0.552541 0.940531 0.500000
O O19 0.562009 0.000000 0.750000
#
# Coordination Sequence:
#
# PCOD8316802 Si02
#       6
#    16  16  16  16  16  16
#     4  10  22  40  59  81 112 148 186 230 279 328
#     4   9  18  33  51  72 100 133 170 212 260 314
#     4  11  22  36  57  84 110 142 185 227 273 331
#     4   9  19  34  53  76 103 136 174 219 269 321
#     4  10  21  38  61  88 118 152 188 227 272 321
#     4  11  22  38  58  82 114 148 184 227 276 327
#
# _framework density 19.068180000000002
#
# number of rings (size 3 to 8) (size 9 to 14) (size 15 to 20)
#    0.000    2.000    0.000    4.000    0.000    6.667 
#    0.000    6.667    0.000    0.000    0.000    0.000 
#    0.000    0.000    0.000    0.000    0.000    0.000 
#
# Total GULP energy -1190518.434022 kJ/mol
# GULP energy per Si atom -12401.233688 kJ/mol
# Density = 1.902478 g / cm^3
# Si number density = 19.068180 Si / 1000 Ang^3
#
#
#
# Elastic Constant Matrix: (Units=GPa)
#
#
# Indices 1 2 3 4 5 6 
#
# 1 130.0322 60.7934 49.4989 0.0000 0.0000 0.0000
# 2 60.7934 130.0322 49.4989 0.0000 0.0000 0.0000
# 3 49.4989 49.4989 93.9065 0.0000 0.0000 0.0000
# 4 0.0000 0.0000 0.0000 33.4822 0.0000 0.0000
# 5 0.0000 0.0000 0.0000 0.0000 33.4822 0.0000
# 6 0.0000 0.0000 0.0000 0.0000 0.0000 23.9810
#
#
#
# Elastic Compliance Matrix: (Units=1/GPa)
#
#
# Indices 1 2 3 4 5 6 
#
# 1 0.010828 -0.003615 -0.003802 0.000000 0.000000 0.000000
# 2 -0.003615 0.010828 -0.003802 0.000000 0.000000 0.000000
# 3 -0.003802 -0.003802 0.014657 0.000000 0.000000 0.000000
# 4 0.000000 0.000000 0.000000 0.029867 0.000000 0.000000
# 5 0.000000 0.000000 0.000000 0.000000 0.029867 0.000000
# 6 0.000000 0.000000 0.000000 0.000000 0.000000 0.041700
#
#
# Mechanical properties :
#
#
# Convention : Reuss Voigt Hill
#
# Bulk Modulus (GPa) = 72.07301 74.83927 73.45614
# Shear Modulus (GPa) = 30.33834 31.13439 30.73636
#
# Velocity S-wave (km/s) = 3.99312 4.04517 4.01923
# Velocity P-wave (km/s) = 7.69023 7.81993 7.75535
#
# Compressibility (1/GPa) = 0.01387482
#
# Stress axis : x y z
#
# Youngs Moduli (GPa) = 92.35510 92.35510 68.22716
#
# Poissons Ratio (x) = 0.33386 0.25939
# Poissons Ratio (y) = 0.33386 0.25939
# Poissons Ratio (z) = 0.35113 0.35113
#
# Static dielectric constant tensor:
#      x y z
#    x 3.697850 0.000000 0.000000 
#    y 0.000000 3.697850 0.000000 
#    z 0.000000 0.000000 3.459580 
# 
# 
# High freq. dielectric constant tensor:
#      x y z
#    x 1.745180 0.000000 0.000000 
#    y 0.000000 1.745180 0.000000 
#    z 0.000000 0.000000 1.748760 
# 
# From -- ./inp_files/1718.got.cif
#   From: 2010.03.12/outbox.cif.g09.slc.cpg/sg132_1_cif.got.tgz:1718.got - 2010.04.06 17:53:44.
