data_PCOD8316818
_publ_section_title
;
Structure prediction by ZEFSAII (Michael W. Deem and Ramdas Pophale) SiO2 
 PCOD8316818
Probable space group: P 42/M C M
;
_chemical_formula_sum "Si O2"
_cell_formula_units_Z 56
_cell_length_a 11.717622
_cell_length_b 11.717622
_cell_length_c 21.897528
_cell_angle_alpha 90.000000
_cell_angle_beta 90.000000
_cell_angle_gamma 90.000000
_cell_volume 3006.588959
_symmetry_space_group_name_H-M "P 42/M C M"
_symmetry_group_IT_number 132
_symmetry_cell_setting 'tetragonal'
loop_
_space_group_symop_operation_xyz
x,y,z
-y,x,1/2+z
-x,-y,z
y,-x,1/2+z
x,-y,1/2-z
-x,y,1/2-z
y,x,-z
-y,-x,-z
-x,-y,-z
y,-x,1/2-z
x,y,-z
-y,x,1/2-z
-x,y,1/2+z
x,-y,1/2+z
-y,-x,z
y,x,z
loop_
_atom_site_type_symbol
_atom_site_label
_atom_site_fract_x
_atom_site_fract_y
_atom_site_fract_z
Si Si1 0.000000 0.194935 0.250000
Si Si2 0.588862 0.411139 0.572282
Si Si3 0.162462 0.484109 0.926812
Si Si4 0.023038 0.320272 0.625961
Si Si5 0.905729 0.094272 0.065014
O O1 0.004177 0.289296 0.303583
O O2 0.886947 0.113054 0.251983
O O3 0.500000 0.500000 0.600861
O O4 0.585778 0.414223 0.500000
O O5 0.712900 0.447647 0.594865
O O6 0.131602 0.598450 0.888597
O O7 0.083846 0.379850 0.906154
O O8 0.151390 0.504856 0.000000
O O9 0.037736 0.197278 0.598743
O O10 0.861607 0.138394 0.000000
O O11 0.000000 0.000000 0.058104
#
# Coordination Sequence:
#
# PCOD8316818 Si02
#       5
#     8   8  16  16   8
#     4  11  24  41  60  88 126 165 215 256 302 374
#     4   9  20  36  57  85 121 159 192 239 299 364
#     4  10  22  39  62  93 125 156 205 259 311 373
#     4  11  22  39  61  86 121 164 201 255 314 365
#     4  11  22  34  57  91 123 157 204 257 320 377
#
# _framework density 18.625758000000001
#
# number of rings (size 3 to 8) (size 9 to 14) (size 15 to 20)
#    0.000    1.571    1.429    4.286    6.000    2.286 
#    0.000    0.000    0.000    0.000    0.000    0.000 
#    0.000    0.000    0.000    0.000    0.000    0.000 
#
# Total GULP energy -693853.376550 kJ/mol
# GULP energy per Si atom -12390.238867 kJ/mol
# Density = 1.858336 g / cm^3
# Si number density = 18.625758 Si / 1000 Ang^3
#
#
#
# Elastic Constant Matrix: (Units=GPa)
#
#
# Indices 1 2 3 4 5 6 
#
# 1 152.4724 9.1698 36.0348 0.0000 0.0000 0.0000
# 2 9.1698 152.4654 36.0338 0.0000 0.0000 0.0000
# 3 36.0348 36.0338 114.6585 0.0000 0.0000 0.0000
# 4 0.0000 0.0000 0.0000 52.0627 0.0000 0.0000
# 5 0.0000 0.0000 0.0000 0.0000 52.0623 0.0000
# 6 0.0000 0.0000 0.0000 0.0000 0.0000 26.1028
#
#
#
# Elastic Compliance Matrix: (Units=1/GPa)
#
#
# Indices 1 2 3 4 5 6 
#
# 1 0.007086 0.000108 -0.002261 0.000000 0.000000 0.000000
# 2 0.000108 0.007087 -0.002261 0.000000 0.000000 0.000000
# 3 -0.002261 -0.002261 0.010143 0.000000 0.000000 0.000000
# 4 0.000000 0.000000 0.000000 0.019208 0.000000 0.000000
# 5 0.000000 0.000000 0.000000 0.000000 0.019208 0.000000
# 6 0.000000 0.000000 0.000000 0.000000 0.000000 0.038310
#
#
# Mechanical properties :
#
#
# Convention : Reuss Voigt Hill
#
# Bulk Modulus (GPa) = 64.56691 64.67478 64.62084
# Shear Modulus (GPa) = 43.46608 48.60274 46.03441
#
# Velocity S-wave (km/s) = 4.83603 5.11381 4.97686
# Velocity P-wave (km/s) = 8.11933 8.34666 8.23378
#
# Compressibility (1/GPa) = 0.01548781
#
# Stress axis : x y z
#
# Youngs Moduli (GPa) = 141.11452 141.10813 98.59217
#
# Poissons Ratio (x) = -0.01527 0.22293
# Poissons Ratio (y) = -0.01527 0.22293
# Poissons Ratio (z) = 0.31908 0.31907
#
# Static dielectric constant tensor:
#      x y z
#    x 3.575080 0.000000 0.000000 
#    y 0.000000 3.575070 0.000000 
#    z 0.000000 0.000000 3.791230 
# 
# 
# High freq. dielectric constant tensor:
#      x y z
#    x 1.732910 0.000000 0.000000 
#    y 0.000000 1.732910 0.000000 
#    z 0.000000 0.000000 1.712450 
# 
# From -- ./inp_files/7357.got.cif
#   From: 2010.03.12/outbox.cif.g09.slc.cpg/sg132_4_cif.got.tgz:7357.got - 2010.04.06 17:53:44.
