data_PCOD8316589
_publ_section_title
;
Structure prediction by ZEFSAII (Michael W. Deem and Ramdas Pophale) SiO2 
 PCOD8316589
Probable space group: P 42/M C M
;
_chemical_formula_sum "Si O2"
_cell_formula_units_Z 96
_cell_length_a 25.552219
_cell_length_b 25.552219
_cell_length_c 8.832872
_cell_angle_alpha 90.000000
_cell_angle_beta 90.000000
_cell_angle_gamma 90.000000
_cell_volume 5767.122535
_symmetry_space_group_name_H-M "P 42/M C M"
_symmetry_group_IT_number 132
_symmetry_cell_setting 'tetragonal'
loop_
_space_group_symop_operation_xyz
x,y,z
-y,x,1/2+z
-x,-y,z
y,-x,1/2+z
x,-y,1/2-z
-x,y,1/2-z
y,x,-z
-y,-x,-z
-x,-y,-z
y,-x,1/2-z
x,y,-z
-y,x,1/2-z
-x,y,1/2+z
x,-y,1/2+z
-y,-x,z
y,x,z
loop_
_atom_site_type_symbol
_atom_site_label
_atom_site_fract_x
_atom_site_fract_y
_atom_site_fract_z
Si Si1 0.841400 0.306016 0.825432
Si Si2 0.182813 0.575112 0.829319
Si Si3 0.550700 0.081023 0.675039
Si Si4 0.744681 0.255320 0.679508
Si Si5 0.946639 0.334564 0.680365
Si Si6 0.553297 0.698525 0.322840
Si Si7 0.659437 0.340564 0.679898
O O1 0.816230 0.362856 0.806645
O O2 0.802278 0.267175 0.741334
O O3 0.898065 0.302021 0.746122
O O4 0.847475 0.289796 0.000000
O O5 0.142907 0.549066 0.711617
O O6 0.239673 0.553440 0.792474
O O7 0.164734 0.561146 0.000000
O O8 0.500000 0.053387 0.750000
O O9 0.546338 0.071212 0.500000
O O10 0.605053 0.057491 0.737624
O O11 0.745565 0.254436 0.500000
O O12 0.702042 0.297959 0.737971
O O13 0.946638 0.330406 0.500000
O O14 0.000000 0.311138 0.750000
O O15 0.500000 0.675644 0.250000
O O16 0.555521 0.685114 0.500000
O O17 0.602396 0.672930 0.241058
O O18 0.658293 0.341708 0.500000
#
# Coordination Sequence:
#
# PCOD8316589 Si02
#       7
#    16  16  16   8  16  16   8
#     4  10  19  33  53  76 102 133 167 205 252 302
#     4   9  18  31  48  70  96 126 158 195 242 294
#     4  10  20  31  45  64  89 120 160 207 252 295
#     4  11  21  33  53  81 110 136 165 206 254 307
#     4  10  21  36  51  69  93 127 169 213 255 300
#     4  11  22  36  53  75 101 129 160 195 238 296
#     4  11  23  37  55  78 104 133 161 197 244 296
#
# _framework density 16.646083000000001
#
# number of rings (size 3 to 8) (size 9 to 14) (size 15 to 20)
#    0.000    1.833    1.667    3.000    0.000    6.333 
#    0.000    1.667    0.000    0.250    0.000    1.750 
#    0.000    0.000    0.000    0.000    0.000    0.417 
#
# Total GULP energy -1190527.059725 kJ/mol
# GULP energy per Si atom -12401.323539 kJ/mol
# Density = 1.660820 g / cm^3
# Si number density = 16.646083 Si / 1000 Ang^3
#
#
#
# Elastic Constant Matrix: (Units=GPa)
#
#
# Indices 1 2 3 4 5 6 
#
# 1 84.1990 44.8043 39.0534 0.0000 0.0000 0.0000
# 2 44.8043 84.1982 39.0528 0.0000 0.0000 0.0000
# 3 39.0534 39.0528 81.1116 0.0000 0.0000 0.0000
# 4 0.0000 0.0000 0.0000 26.0694 0.0000 0.0000
# 5 0.0000 0.0000 0.0000 0.0000 26.0694 0.0000
# 6 0.0000 0.0000 0.0000 0.0000 0.0000 7.6918
#
#
#
# Elastic Compliance Matrix: (Units=1/GPa)
#
#
# Indices 1 2 3 4 5 6 
#
# 1 0.018163 -0.007222 -0.005268 0.000000 0.000000 0.000000
# 2 -0.007222 0.018163 -0.005268 0.000000 0.000000 0.000000
# 3 -0.005268 -0.005268 0.017401 0.000000 0.000000 0.000000
# 4 0.000000 0.000000 0.000000 0.038359 0.000000 0.000000
# 5 0.000000 0.000000 0.000000 0.000000 0.038359 0.000000
# 6 0.000000 0.000000 0.000000 0.000000 0.000000 0.130009
#
#
# Mechanical properties :
#
#
# Convention : Reuss Voigt Hill
#
# Bulk Modulus (GPa) = 54.90808 55.03665 54.97236
# Shear Modulus (GPa) = 16.55410 20.40599 18.48004
#
# Velocity S-wave (km/s) = 3.15695 3.50505 3.33554
# Velocity P-wave (km/s) = 6.80776 7.03669 6.92317
#
# Compressibility (1/GPa) = 0.01821226
#
# Stress axis : x y z
#
# Youngs Moduli (GPa) = 55.05758 55.05739 57.46645
#
# Poissons Ratio (x) = 0.39760 0.30273
# Poissons Ratio (y) = 0.39760 0.30273
# Poissons Ratio (z) = 0.29004 0.29004
#
# Static dielectric constant tensor:
#      x y z
#    x 3.087100 0.000000 0.000000 
#    y 0.000000 3.087090 0.000000 
#    z 0.000000 0.000000 3.176280 
# 
# 
# High freq. dielectric constant tensor:
#      x y z
#    x 1.616270 0.000000 0.000000 
#    y 0.000000 1.616270 0.000000 
#    z 0.000000 0.000000 1.656050 
# 
# From -- ./inp_files/1842.got.cif
#   From: 2010.03.12/outbox.cif.g09.slc.cpg/sg132_1_cif.got.tgz:1842.got - 2010.04.06 17:53:44.
