data_PCOD8316420
_publ_section_title
;
Structure prediction by ZEFSAII (Michael W. Deem and Ramdas Pophale) SiO2 
 PCOD8316420
Probable space group: P 42/M C M
;
_chemical_formula_sum "Si O2"
_cell_formula_units_Z 72
_cell_length_a 15.415938
_cell_length_b 15.415938
_cell_length_c 18.315019
_cell_angle_alpha 90.000000
_cell_angle_beta 90.000000
_cell_angle_gamma 90.000000
_cell_volume 4352.585225
_symmetry_space_group_name_H-M "P 42/M C M"
_symmetry_group_IT_number 132
_symmetry_cell_setting 'tetragonal'
loop_
_space_group_symop_operation_xyz
x,y,z
-y,x,1/2+z
-x,-y,z
y,-x,1/2+z
x,-y,1/2-z
-x,y,1/2-z
y,x,-z
-y,-x,-z
-x,-y,-z
y,-x,1/2-z
x,y,-z
-y,x,1/2-z
-x,y,1/2+z
x,-y,1/2+z
-y,-x,z
y,x,z
loop_
_atom_site_type_symbol
_atom_site_label
_atom_site_fract_x
_atom_site_fract_y
_atom_site_fract_z
Si Si1 0.003916 0.137755 0.000000
Si Si2 0.403111 0.736505 0.223735
Si Si3 0.268147 0.869908 0.279609
Si Si4 0.739701 0.035132 0.133898
Si Si5 0.660067 0.199349 0.919102
O O1 0.983481 0.187631 0.925574
O O2 0.944490 0.055511 0.000000
O O3 0.103877 0.103877 0.000000
O O4 0.500000 0.725622 0.250000
O O5 0.352312 0.647689 0.240703
O O6 0.355559 0.816901 0.262743
O O7 0.405762 0.755298 0.136919
O O8 0.193771 0.806230 0.310964
O O9 0.228475 0.913355 0.206104
O O10 0.295974 0.941557 0.339543
O O11 0.667300 0.096061 0.095858
O O12 0.755624 0.244377 0.910466
O O13 0.622552 0.214149 0.000000
#
# Coordination Sequence:
#
# PCOD8316420 Si02
#       5
#     8  16  16  16  16
#     4  11  20  26  38  64  95 126 166 218 255 274
#     4   9  18  33  55  79  99 121 154 197 246 301
#     4   9  18  31  46  65  93 133 168 198 241 295
#     4  10  17  28  45  65  91 127 170 206 240 278
#     4   9  16  29  51  74  97 128 166 206 241 281
#
# _framework density 16.541892000000001
#
# number of rings (size 3 to 8) (size 9 to 14) (size 15 to 20)
#    0.000    2.556    1.111    4.000    0.000    0.222 
#    0.000    8.889    2.444   10.000    0.000    3.111 
#    0.000    0.000    0.000    0.000    0.000    0.000 
#
# Total GULP energy -892054.042197 kJ/mol
# GULP energy per Si atom -12389.639475 kJ/mol
# Density = 1.650424 g / cm^3
# Si number density = 16.541892 Si / 1000 Ang^3
#
#
#
# Elastic Constant Matrix: (Units=GPa)
#
#
# Indices 1 2 3 4 5 6 
#
# 1 105.5461 44.2312 52.7397 0.0000 0.0000 0.0000
# 2 44.2312 105.5468 52.7403 0.0000 0.0000 0.0000
# 3 52.7397 52.7403 102.8912 0.0000 0.0000 0.0000
# 4 0.0000 0.0000 0.0000 23.7328 0.0000 0.0000
# 5 0.0000 0.0000 0.0000 0.0000 23.7326 0.0000
# 6 0.0000 0.0000 0.0000 0.0000 0.0000 12.1802
#
#
#
# Elastic Compliance Matrix: (Units=1/GPa)
#
#
# Indices 1 2 3 4 5 6 
#
# 1 0.013379 -0.002931 -0.005355 0.000000 0.000000 0.000000
# 2 -0.002931 0.013379 -0.005356 0.000000 0.000000 0.000000
# 3 -0.005355 -0.005356 0.015209 0.000000 0.000000 0.000000
# 4 0.000000 0.000000 0.000000 0.042136 0.000000 0.000000
# 5 0.000000 0.000000 0.000000 0.000000 0.042136 0.000000
# 6 0.000000 0.000000 0.000000 0.000000 0.000000 0.082100
#
#
# Mechanical properties :
#
#
# Convention : Reuss Voigt Hill
#
# Bulk Modulus (GPa) = 68.10361 68.15626 68.12994
# Shear Modulus (GPa) = 20.78861 22.88065 21.83463
#
# Velocity S-wave (km/s) = 3.54888 3.72317 3.63707
# Velocity P-wave (km/s) = 7.61922 7.73138 7.67551
#
# Compressibility (1/GPa) = 0.01468351
#
# Stress axis : x y z
#
# Youngs Moduli (GPa) = 74.74591 74.74599 65.74938
#
# Poissons Ratio (x) = 0.21904 0.35212
# Poissons Ratio (y) = 0.21904 0.35212
# Poissons Ratio (z) = 0.40030 0.40031
#
# Static dielectric constant tensor:
#      x y z
#    x 2.887840 0.000000 0.000000 
#    y 0.000000 2.887840 0.000000 
#    z 0.000000 0.000000 4.280370 
# 
# 
# High freq. dielectric constant tensor:
#      x y z
#    x 1.611850 0.000000 0.000000 
#    y 0.000000 1.611850 0.000000 
#    z 0.000000 0.000000 1.642960 
# 
# From -- ./inp_files/6132.got.cif
#   From: 2010.03.12/outbox.cif.g09.slc.cpg/sg132_4_cif.got.tgz:6132.got - 2010.04.06 17:53:44.
