data_PCOD8316632
_publ_section_title
;
Structure prediction by ZEFSAII (Michael W. Deem and Ramdas Pophale) SiO2 
 PCOD8316632
Probable space group: P 42/M C M
;
_chemical_formula_sum "Si O2"
_cell_formula_units_Z 48
_cell_length_a 11.569253
_cell_length_b 11.569253
_cell_length_c 16.869960
_cell_angle_alpha 90.000000
_cell_angle_beta 90.000000
_cell_angle_gamma 90.000000
_cell_volume 2258.003911
_symmetry_space_group_name_H-M "P 42/M C M"
_symmetry_group_IT_number 132
_symmetry_cell_setting 'tetragonal'
loop_
_space_group_symop_operation_xyz
x,y,z
-y,x,1/2+z
-x,-y,z
y,-x,1/2+z
x,-y,1/2-z
-x,y,1/2-z
y,x,-z
-y,-x,-z
-x,-y,-z
y,-x,1/2-z
x,y,-z
-y,x,1/2-z
-x,y,1/2+z
x,-y,1/2+z
-y,-x,z
y,x,z
loop_
_atom_site_type_symbol
_atom_site_label
_atom_site_fract_x
_atom_site_fract_y
_atom_site_fract_z
Si Si1 0.672612 0.003745 0.343108
Si Si2 0.404543 0.595458 0.911153
Si Si3 0.172878 0.509739 0.407349
Si Si4 0.095056 0.904945 0.912176
O O1 0.633846 0.133605 0.369954
O O2 0.653605 0.000000 0.250000
O O3 0.587529 0.921044 0.390677
O O4 0.801860 0.965146 0.363785
O O5 0.500000 0.500000 0.912815
O O6 0.459809 0.708286 0.868613
O O7 0.367359 0.632642 0.000000
O O8 0.190155 0.531608 0.500000
O O9 0.136737 0.863264 0.000000
O O10 0.000000 0.000000 0.924093
#
# Coordination Sequence:
#
# PCOD8316632 Si02
#       4
#    16   8  16   8
#     4  11  23  38  63  87 127 158 209 261 321 371
#     4   9  19  35  59  91 123 157 204 257 305 358
#     4  10  19  37  64  91 121 164 215 259 306 376
#     4  11  25  43  63  89 121 165 212 255 313 386
#
# _framework density 21.257712999999999
#
# number of rings (size 3 to 8) (size 9 to 14) (size 15 to 20)
#    0.000    1.667    0.000    7.000    2.333    2.667 
#    0.000    3.333    3.667    0.000    0.000    0.000 
#    0.000    0.000    0.000    0.000    0.000    0.000 
#
# Total GULP energy -594764.000239 kJ/mol
# GULP energy per Si atom -12390.916672 kJ/mol
# Density = 2.120933 g / cm^3
# Si number density = 21.257713 Si / 1000 Ang^3
#
#
#
# Elastic Constant Matrix: (Units=GPa)
#
#
# Indices 1 2 3 4 5 6 
#
# 1 109.0059 86.3689 28.8078 0.0000 0.0000 0.0000
# 2 86.3689 109.0059 28.8076 0.0000 0.0000 0.0000
# 3 28.8078 28.8076 89.5994 0.0000 0.0000 0.0000
# 4 0.0000 0.0000 0.0000 -53.6165 0.0000 0.0000
# 5 0.0000 0.0000 0.0000 0.0000 -53.6116 0.0000
# 6 0.0000 0.0000 0.0000 0.0000 0.0000 51.3526
#
#
#
# Elastic Compliance Matrix: (Units=1/GPa)
#
#
# Indices 1 2 3 4 5 6 
#
# 1 0.024915 -0.019261 -0.001818 0.000000 0.000000 0.000000
# 2 -0.019261 0.024915 -0.001818 0.000000 0.000000 0.000000
# 3 -0.001818 -0.001818 0.012330 0.000000 0.000000 0.000000
# 4 0.000000 0.000000 0.000000 -0.018651 0.000000 0.000000
# 5 0.000000 0.000000 0.000000 0.000000 -0.018653 0.000000
# 6 0.000000 0.000000 0.000000 0.000000 0.000000 0.019473
#
#
# Mechanical properties :
#
#
# Convention : Reuss Voigt Hill
#
# Bulk Modulus (GPa) = 61.09943 66.17553 63.63748
# Shear Modulus (GPa) = 52.31325 -0.26665 26.02330
#
# Velocity S-wave (km/s) = 4.96613 -0.35455 3.50263
# Velocity P-wave (km/s) = 7.85417 5.57047 6.80875
#
# Compressibility (1/GPa) = 0.01636677
#
# Stress axis : x y z
#
# Youngs Moduli (GPa) = 40.13643 40.13647 81.10408
#
# Poissons Ratio (x) = 0.77305 0.14745
# Poissons Ratio (y) = 0.77305 0.14744
# Poissons Ratio (z) = 0.07297 0.07297
#
# Static dielectric constant tensor:
#      x y z
#    x 4.543020 0.000000 0.000000 
#    y 0.000000 4.543010 0.000000 
#    z 0.000000 0.000000 3.764400 
# 
# 
# High freq. dielectric constant tensor:
#      x y z
#    x 1.839120 0.000000 0.000000 
#    y 0.000000 1.839120 0.000000 
#    z 0.000000 0.000000 1.817390 
# 
# From -- ./inp_files/5716.got.cif
#   From: 2010.03.12/outbox.cif.g09.slc.cpg/sg132_3_cif.got.tgz:5716.got - 2010.04.06 17:53:44.
