data_PCOD8316426
_publ_section_title
;
Structure prediction by ZEFSAII (Michael W. Deem and Ramdas Pophale) SiO2 
 PCOD8316426
Probable space group: P 42/M C M
;
_chemical_formula_sum "Si O2"
_cell_formula_units_Z 72
_cell_length_a 16.657009
_cell_length_b 16.657009
_cell_length_c 15.006490
_cell_angle_alpha 90.000000
_cell_angle_beta 90.000000
_cell_angle_gamma 90.000000
_cell_volume 4163.639921
_symmetry_space_group_name_H-M "P 42/M C M"
_symmetry_group_IT_number 132
_symmetry_cell_setting 'tetragonal'
loop_
_space_group_symop_operation_xyz
x,y,z
-y,x,1/2+z
-x,-y,z
y,-x,1/2+z
x,-y,1/2-z
-x,y,1/2-z
y,x,-z
-y,-x,-z
-x,-y,-z
y,-x,1/2-z
x,y,-z
-y,x,1/2-z
-x,y,1/2+z
x,-y,1/2+z
-y,-x,z
y,x,z
loop_
_atom_site_type_symbol
_atom_site_label
_atom_site_fract_x
_atom_site_fract_y
_atom_site_fract_z
Si Si1 0.503573 0.631189 0.500000
Si Si2 0.696926 0.561914 0.827526
Si Si3 0.116905 0.753439 0.500000
Si Si4 0.310330 0.823795 0.327146
Si Si5 0.179463 0.050738 0.500000
Si Si6 0.082702 0.213416 0.302206
O O1 0.593124 0.593124 0.500000
O O2 0.440054 0.559947 0.500000
O O3 0.490400 0.688809 0.416365
O O4 0.683701 0.500000 0.750000
O O5 0.629293 0.629293 0.820856
O O6 0.785709 0.600985 0.823362
O O7 0.199504 0.800497 0.500000
O O8 0.115734 0.697555 0.588231
O O9 0.045592 0.819394 0.500000
O O10 0.247591 0.752410 0.338019
O O11 0.292842 0.873972 0.237016
O O12 0.089212 0.089212 0.500000
O O13 0.225375 0.077091 0.590659
O O14 0.134969 0.134969 0.279169
O O15 0.000000 0.199274 0.250000
#
# Coordination Sequence:
#
# PCOD8316426 Si02
#       6
#     8  16   8  16   8  16
#     4   9  17  29  47  75 109 136 158 195 252 312
#     4  10  19  32  51  76 104 135 169 206 250 306
#     4  10  17  29  49  73  99 131 168 208 256 311
#     4   9  18  31  48  70  98 133 173 209 248 303
#     4  10  20  30  46  74 101 129 169 216 266 308
#     4  10  19  32  48  70  99 132 171 215 263 310
#
# _framework density 17.292560999999999
#
# number of rings (size 3 to 8) (size 9 to 14) (size 15 to 20)
#    0.000    2.333    2.222    1.333    0.000    4.222 
#    0.000    3.333    0.000    4.667    0.000    1.556 
#    0.000    0.000    0.000    0.000    0.000    0.000 
#
# Total GULP energy -892236.702926 kJ/mol
# GULP energy per Si atom -12392.176430 kJ/mol
# Density = 1.725320 g / cm^3
# Si number density = 17.292561 Si / 1000 Ang^3
#
#
#
# Elastic Constant Matrix: (Units=GPa)
#
#
# Indices 1 2 3 4 5 6 
#
# 1 57.8249 42.1529 45.6214 0.0000 0.0000 0.0000
# 2 42.1529 57.8245 45.6211 0.0000 0.0000 0.0000
# 3 45.6214 45.6211 161.0778 0.0000 0.0000 0.0000
# 4 0.0000 0.0000 0.0000 18.3665 0.0000 0.0000
# 5 0.0000 0.0000 0.0000 0.0000 18.3663 0.0000
# 6 0.0000 0.0000 0.0000 0.0000 0.0000 12.4319
#
#
#
# Elastic Compliance Matrix: (Units=1/GPa)
#
#
# Indices 1 2 3 4 5 6 
#
# 1 0.038649 -0.025160 -0.003820 0.000000 0.000000 0.000000
# 2 -0.025160 0.038649 -0.003820 0.000000 0.000000 0.000000
# 3 -0.003820 -0.003820 0.008372 0.000000 0.000000 0.000000
# 4 0.000000 0.000000 0.000000 0.054447 0.000000 0.000000
# 5 0.000000 0.000000 0.000000 0.000000 0.054448 0.000000
# 6 0.000000 0.000000 0.000000 0.000000 0.000000 0.080438
#
#
# Mechanical properties :
#
#
# Convention : Reuss Voigt Hill
#
# Bulk Modulus (GPa) = 49.82963 60.39091 55.11027
# Shear Modulus (GPa) = 14.39701 19.38837 16.89269
#
# Velocity S-wave (km/s) = 2.88853 3.35206 3.12889
# Velocity P-wave (km/s) = 6.32479 7.06970 6.70759
#
# Compressibility (1/GPa) = 0.02006838
#
# Stress axis : x y z
#
# Youngs Moduli (GPa) = 25.87402 25.87386 119.44243
#
# Poissons Ratio (x) = 0.65099 0.45632
# Poissons Ratio (y) = 0.65099 0.45631
# Poissons Ratio (z) = 0.09885 0.09885
#
# Static dielectric constant tensor:
#      x y z
#    x 3.091380 0.000000 0.000000 
#    y 0.000000 3.091380 0.000000 
#    z 0.000000 0.000000 3.483410 
# 
# 
# High freq. dielectric constant tensor:
#      x y z
#    x 1.636850 0.000000 0.000000 
#    y 0.000000 1.636850 0.000000 
#    z 0.000000 0.000000 1.688580 
# 
# From -- ./inp_files/6222.got.cif
#   From: 2010.03.12/outbox.cif.g09.slc.cpg/sg132_4_cif.got.tgz:6222.got - 2010.04.06 17:53:44.
