data_PCOD8316897
_publ_section_title
;
Structure prediction by ZEFSAII (Michael W. Deem and Ramdas Pophale) SiO2 
 PCOD8316897
Probable space group: P 42/N B C
;
_chemical_formula_sum "Si O2"
_cell_formula_units_Z 104
_cell_length_a 19.854020
_cell_length_b 19.854020
_cell_length_c 14.082848
_cell_angle_alpha 90.000000
_cell_angle_beta 90.000000
_cell_angle_gamma 90.000000
_cell_volume 5551.206742
_symmetry_space_group_name_H-M "P 42/N B C"
_symmetry_group_IT_number 133
_space_group.IT_coordinate_system_code '2'
_symmetry_cell_setting 'tetragonal'
loop_
_space_group_symop_operation_xyz
x,y,z
1/2-y,x,1/2+z
1/2-x,1/2-y,z
y,1/2-x,1/2+z
x,1/2-y,-z
1/2-x,y,-z
y,x,1/2-z
1/2-y,1/2-x,1/2-z
-x,-y,-z
1/2+y,-x,1/2-z
1/2+x,1/2+y,-z
-y,1/2+x,1/2-z
-x,1/2+y,z
1/2+x,-y,z
-y,-x,1/2+z
1/2+y,1/2+x,1/2+z
loop_
_atom_site_type_symbol
_atom_site_label
_atom_site_fract_x
_atom_site_fract_y
_atom_site_fract_z
Si Si1 0.425370 0.074631 0.750000
Si Si2 0.670671 0.006151 0.925280
Si Si3 0.803821 0.349280 0.873281
Si Si4 0.840353 0.362159 0.170290
Si Si5 0.026646 0.955478 0.914884
Si Si6 0.309373 0.015166 0.859924
Si Si7 0.321204 0.580894 0.495151
O O1 0.472715 0.048926 0.833404
O O2 0.433995 0.151368 0.711563
O O3 0.696612 0.082790 0.936878
O O4 0.596224 0.008758 0.878560
O O5 0.728138 0.968943 0.860781
O O6 0.665206 0.975757 0.031484
O O7 0.727519 0.322286 0.863077
O O8 0.833818 0.365340 0.769990
O O9 0.853368 0.299973 0.931012
O O10 0.824344 0.441043 0.180681
O O11 0.900821 0.349531 0.098295
O O12 0.037247 0.878225 0.945395
O O13 0.000000 0.000000 0.000000
O O14 0.250000 0.540259 0.500000
#
# Coordination Sequence:
#
# PCOD8316897 Si02
#       7
#     8  16  16  16  16  16  16
#     4  12  22  34  58  86 114 152 196 250 292 348
#     4   9  18  34  53  75 107 147 185 235 284 343
#     4  10  20  30  47  69 102 143 199 228 268 321
#     4  11  19  32  46  68 101 151 193 233 268 326
#     4  11  21  38  57  82 112 151 196 239 287 351
#     4  10  18  33  54  76 107 146 193 232 287 342
#     4  11  22  34  49  72 106 143 181 236 286 326
#
# _framework density 18.734666000000001
#
# number of rings (size 3 to 8) (size 9 to 14) (size 15 to 20)
#    0.000    1.538    4.615    3.231    0.000    4.000 
#    0.000    0.000    0.000    0.000    0.000    0.000 
#    0.000    6.769    0.000    0.000    0.000    0.000 
#
# Total GULP energy -1288639.151203 kJ/mol
# GULP energy per Si atom -12390.761069 kJ/mol
# Density = 1.869202 g / cm^3
# Si number density = 18.734666 Si / 1000 Ang^3
#
#
#
# Elastic Constant Matrix: (Units=GPa)
#
#
# Indices 1 2 3 4 5 6 
#
# 1 77.2561 29.5813 20.1971 0.0000 0.0000 0.0000
# 2 29.5813 77.2563 20.1965 0.0000 0.0000 0.0000
# 3 20.1971 20.1965 81.8155 0.0000 0.0000 0.0000
# 4 0.0000 0.0000 0.0000 27.0400 0.0000 0.0000
# 5 0.0000 0.0000 0.0000 0.0000 27.0398 0.0000
# 6 0.0000 0.0000 0.0000 0.0000 0.0000 18.0149
#
#
#
# Elastic Compliance Matrix: (Units=1/GPa)
#
#
# Indices 1 2 3 4 5 6 
#
# 1 0.015650 -0.005326 -0.002549 0.000000 0.000000 0.000000
# 2 -0.005326 0.015649 -0.002548 0.000000 0.000000 0.000000
# 3 -0.002549 -0.002548 0.013481 0.000000 0.000000 0.000000
# 4 0.000000 0.000000 0.000000 0.036982 0.000000 0.000000
# 5 0.000000 0.000000 0.000000 0.000000 0.036983 0.000000
# 6 0.000000 0.000000 0.000000 0.000000 0.000000 0.055510
#
#
# Mechanical properties :
#
#
# Convention : Reuss Voigt Hill
#
# Bulk Modulus (GPa) = 41.78137 41.80864 41.79500
# Shear Modulus (GPa) = 24.62108 25.50912 25.06510
#
# Velocity S-wave (km/s) = 3.62912 3.69399 3.66170
# Velocity P-wave (km/s) = 6.31750 6.36857 6.34309
#
# Compressibility (1/GPa) = 0.02393411
#
# Stress axis : x y z
#
# Youngs Moduli (GPa) = 63.89975 63.90015 74.17934
#
# Poissons Ratio (x) = 0.34033 0.18905
# Poissons Ratio (y) = 0.34033 0.18904
# Poissons Ratio (z) = 0.16285 0.16284
#
# Static dielectric constant tensor:
#      x y z
#    x 3.400410 0.000000 0.000000 
#    y 0.000000 3.400400 0.000000 
#    z 0.000000 0.000000 3.008990 
# 
# 
# High freq. dielectric constant tensor:
#      x y z
#    x 1.696240 0.000000 0.000000 
#    y 0.000000 1.696240 0.000000 
#    z 0.000000 0.000000 1.736800 
# 
# From -- ./inp_files/4650.got.cif
#   From: 2010.03.12/outbox.cif.g09.slc.cpg/sg133_3_cif.got.tgz:4650.got - 2010.04.06 18:08:06.
