data_PCOD8316626
_publ_section_title
;
Structure prediction by ZEFSAII (Michael W. Deem and Ramdas Pophale) SiO2 
 PCOD8316626
Probable space group: P 42/M C M
;
_chemical_formula_sum "Si O2"
_cell_formula_units_Z 120
_cell_length_a 18.398174
_cell_length_b 18.398174
_cell_length_c 18.503125
_cell_angle_alpha 90.000000
_cell_angle_beta 90.000000
_cell_angle_gamma 90.000000
_cell_volume 6263.174711
_symmetry_space_group_name_H-M "P 42/M C M"
_symmetry_group_IT_number 132
_symmetry_cell_setting 'tetragonal'
loop_
_space_group_symop_operation_xyz
x,y,z
-y,x,1/2+z
-x,-y,z
y,-x,1/2+z
x,-y,1/2-z
-x,y,1/2-z
y,x,-z
-y,-x,-z
-x,-y,-z
y,-x,1/2-z
x,y,-z
-y,x,1/2-z
-x,y,1/2+z
x,-y,1/2+z
-y,-x,z
y,x,z
loop_
_atom_site_type_symbol
_atom_site_label
_atom_site_fract_x
_atom_site_fract_y
_atom_site_fract_z
Si Si1 0.720359 0.608528 0.233852
Si Si2 0.486884 0.284525 0.632074
Si Si3 0.830048 0.283160 0.318198
Si Si4 0.313881 0.937790 0.085060
Si Si5 0.864094 0.455470 0.079977
Si Si6 0.609093 0.909985 0.916663
Si Si7 0.443310 0.556691 0.084139
Si Si8 0.925386 0.197997 0.211956
O O1 0.640968 0.640968 0.250824
O O2 0.715531 0.571509 0.154314
O O3 0.741244 0.553592 0.296037
O O4 0.779487 0.671553 0.235501
O O5 0.469346 0.222446 0.573954
O O6 0.461916 0.361911 0.604893
O O7 0.785048 0.214953 0.350954
O O8 0.854111 0.334371 0.382807
O O9 0.896310 0.255073 0.270225
O O10 0.374956 0.879648 0.113196
O O11 0.241180 0.935577 0.135244
O O12 0.358256 0.011465 0.096530
O O13 0.290507 0.927367 0.000000
O O14 0.901696 0.526972 0.117702
O O15 0.897766 0.450139 0.000000
O O16 0.603151 0.888569 0.000000
O O17 0.500000 0.500000 0.121460
O O18 0.451546 0.548455 0.000000
O O19 0.870135 0.129866 0.199557
O O20 0.000000 0.169381 0.250000
#
# Coordination Sequence:
#
# PCOD8316626 Si02
#       8
#    16  16  16  16  16  16   8  16
#     4  10  20  34  52  77 104 136 186 245 291 347
#     4  11  20  35  55  73 103 144 189 241 304 348
#     4  10  20  36  58  84 116 152 194 241 295 354
#     4  10  21  39  63  91 125 162 197 238 293 362
#     4  10  20  35  57  87 119 153 196 241 296 358
#     4  10  19  35  59  87 122 160 194 238 291 354
#     4  11  24  40  54  72 102 144 198 250 297 355
#     4  11  23  41  66  92 123 160 200 248 298 360
#
# _framework density 19.159613
#
# number of rings (size 3 to 8) (size 9 to 14) (size 15 to 20)
#    0.000    1.667    3.333    2.000    0.000    2.267 
#    1.200    0.000    0.000    0.400    0.000    0.933 
#    0.000    0.000    0.000    0.000    0.000    0.000 
#
# Total GULP energy -1486633.286610 kJ/mol
# GULP energy per Si atom -12388.610722 kJ/mol
# Density = 1.911600 g / cm^3
# Si number density = 19.159613 Si / 1000 Ang^3
#
#
#
# Elastic Constant Matrix: (Units=GPa)
#
#
# Indices 1 2 3 4 5 6 
#
# 1 104.5291 42.8118 32.9825 0.0000 0.0000 0.0000
# 2 42.8118 104.5291 32.9825 0.0000 0.0000 0.0000
# 3 32.9825 32.9825 59.8202 0.0000 0.0000 0.0000
# 4 0.0000 0.0000 0.0000 24.2368 0.0000 0.0000
# 5 0.0000 0.0000 0.0000 0.0000 24.2369 0.0000
# 6 0.0000 0.0000 0.0000 0.0000 0.0000 34.5166
#
#
#
# Elastic Compliance Matrix: (Units=1/GPa)
#
#
# Indices 1 2 3 4 5 6 
#
# 1 0.012607 -0.003596 -0.004969 0.000000 0.000000 0.000000
# 2 -0.003596 0.012607 -0.004969 0.000000 0.000000 0.000000
# 3 -0.004969 -0.004969 0.022196 0.000000 0.000000 0.000000
# 4 0.000000 0.000000 0.000000 0.041260 0.000000 0.000000
# 5 0.000000 0.000000 0.000000 0.000000 0.041259 0.000000
# 6 0.000000 0.000000 0.000000 0.000000 0.000000 0.028972
#
#
# Mechanical properties :
#
#
# Convention : Reuss Voigt Hill
#
# Bulk Modulus (GPa) = 49.15371 54.04800 51.60085
# Shear Modulus (GPa) = 25.94067 27.27152 26.60609
#
# Velocity S-wave (km/s) = 3.68356 3.77687 3.73051
# Velocity P-wave (km/s) = 6.61831 6.87679 6.74879
#
# Compressibility (1/GPa) = 0.02034435
#
# Stress axis : x y z
#
# Youngs Moduli (GPa) = 79.32000 79.31999 45.05380
#
# Poissons Ratio (x) = 0.28521 0.22385
# Poissons Ratio (y) = 0.28521 0.22385
# Poissons Ratio (z) = 0.39411 0.39410
#
# Static dielectric constant tensor:
#      x y z
#    x 3.647900 0.000000 0.000000 
#    y 0.000000 3.647900 0.000000 
#    z 0.000000 0.000000 3.369490 
# 
# 
# High freq. dielectric constant tensor:
#      x y z
#    x 1.750390 0.000000 0.000000 
#    y 0.000000 1.750390 0.000000 
#    z 0.000000 0.000000 1.724620 
# 
# From -- ./inp_files/8221.got.cif
#   From: 2010.03.12/outbox.cif.g09.slc.cpg/sg132_5_cif.got.tgz:8221.got - 2010.04.06 17:53:44.
