data_PCOD8316368
_publ_section_title
;
Structure prediction by ZEFSAII (Michael W. Deem and Ramdas Pophale) SiO2 
 PCOD8316368
Probable space group: P 42/M M C
;
_chemical_formula_sum "Si O2"
_cell_formula_units_Z 64
_cell_length_a 10.066055
_cell_length_b 10.066055
_cell_length_c 41.132530
_cell_angle_alpha 90.000000
_cell_angle_beta 90.000000
_cell_angle_gamma 90.000000
_cell_volume 4167.772657
_symmetry_space_group_name_H-M "P 42/M M C"
_symmetry_group_IT_number 131
_symmetry_cell_setting 'tetragonal'
loop_
_space_group_symop_operation_xyz
x,y,z
-x,-y,z
-y,x,1/2+z
y,-x,1/2+z
-x,y,-z
x,-y,-z
y,x,1/2-z
-y,-x,1/2-z
-x,-y,-z
x,y,-z
y,-x,1/2-z
-y,x,1/2-z
x,-y,z
-x,y,z
-y,-x,1/2+z
y,x,1/2+z
loop_
_atom_site_type_symbol
_atom_site_label
_atom_site_fract_x
_atom_site_fract_y
_atom_site_fract_z
Si Si1 0.341933 0.147885 0.411053
Si Si2 0.658046 0.351476 0.536303
Si Si3 0.351983 0.841921 0.661131
Si Si4 0.158006 0.147966 0.213873
O O1 0.500000 0.142985 0.413432
O O2 0.280650 0.248339 0.437704
O O3 0.302198 0.198284 0.374975
O O4 0.284676 0.000000 0.417686
O O5 0.704446 0.310459 0.500000
O O6 0.708959 0.500000 0.544526
O O7 0.500000 0.348692 0.538120
O O8 0.500000 0.784900 0.667908
O O9 0.250052 0.781408 0.687525
O O10 0.356772 0.000000 0.663484
O O11 0.197710 0.197710 0.250000
O O12 0.000000 0.142966 0.211370
O O13 0.215280 0.000000 0.207141
#
# Coordination Sequence:
#
# PCOD8316368 Si02
#       4
#    16  16  16  16
#     4   8  13  20  30  45  64  86 112 139 167 203
#     4   8  13  20  29  42  62  88 115 141 170 205
#     4   8  13  21  33  49  69  92 116 141 171 209
#     4   8  13  21  34  52  71  90 115 147 178 207
#
# _framework density 15.355923000000001
#
# number of rings (size 3 to 8) (size 9 to 14) (size 15 to 20)
#    0.000    4.000    0.000    3.000    0.000    0.500 
#    0.000    2.500    0.000    1.500    0.000    0.000 
#    0.000    1.000    0.000   12.500    0.000   14.500 
#
# Total GULP energy -792884.369423 kJ/mol
# GULP energy per Si atom -12388.818272 kJ/mol
# Density = 1.532097 g / cm^3
# Si number density = 15.355923 Si / 1000 Ang^3
#
#
#
# Elastic Constant Matrix: (Units=GPa)
#
#
# Indices 1 2 3 4 5 6 
#
# 1 43.7094 19.4375 54.6413 0.0000 0.0000 0.0000
# 2 19.4375 43.7094 54.6413 0.0000 0.0000 0.0000
# 3 54.6413 54.6413 159.8186 0.0000 0.0000 0.0000
# 4 0.0000 0.0000 0.0000 18.3811 0.0000 0.0000
# 5 0.0000 0.0000 0.0000 0.0000 18.3811 0.0000
# 6 0.0000 0.0000 0.0000 0.0000 0.0000 4.0028
#
#
#
# Elastic Compliance Matrix: (Units=1/GPa)
#
#
# Indices 1 2 3 4 5 6 
#
# 1 0.039992 -0.001208 -0.013260 0.000000 0.000000 0.000000
# 2 -0.001208 0.039992 -0.013260 0.000000 0.000000 0.000000
# 3 -0.013260 -0.013260 0.015324 0.000000 0.000000 0.000000
# 4 0.000000 0.000000 0.000000 0.054404 0.000000 0.000000
# 5 0.000000 0.000000 0.000000 0.000000 0.054404 0.000000
# 6 0.000000 0.000000 0.000000 0.000000 0.000000 0.249826
#
#
# Mechanical properties :
#
#
# Convention : Reuss Voigt Hill
#
# Bulk Modulus (GPa) = 25.09278 56.07529 40.58403
# Shear Modulus (GPa) = 9.56604 16.05416 12.81010
#
# Velocity S-wave (km/s) = 2.49861 3.23688 2.89141
# Velocity P-wave (km/s) = 4.96994 7.11099 6.13460
#
# Compressibility (1/GPa) = 0.03985211
#
# Stress axis : x y z
#
# Youngs Moduli (GPa) = 25.00498 25.00498 65.25597
#
# Poissons Ratio (x) = 0.03020 0.86530
# Poissons Ratio (y) = 0.03020 0.86530
# Poissons Ratio (z) = 0.33157 0.33157
#
# Static dielectric constant tensor:
#      x y z
#    x 2.743500 0.000000 0.000000 
#    y 0.000000 2.743500 0.000000 
#    z 0.000000 0.000000 3.351620 
# 
# 
# High freq. dielectric constant tensor:
#      x y z
#    x 1.536260 0.000000 0.000000 
#    y 0.000000 1.536260 0.000000 
#    z 0.000000 0.000000 1.603310 
# 
# From -- ./inp_files/11920.got.cif
#   From: 2010.03.12/outbox.cif.g09.slc.cpg/sg131_6_cif.got.tgz:11920.got - 2010.04.06 17:36:35.
