data_PCOD8316623
_publ_section_title
;
Structure prediction by ZEFSAII (Michael W. Deem and Ramdas Pophale) SiO2 
 PCOD8316623
Probable space group: P 42/M C M
;
_chemical_formula_sum "Si O2"
_cell_formula_units_Z 112
_cell_length_a 13.869728
_cell_length_b 13.869728
_cell_length_c 29.173023
_cell_angle_alpha 90.000000
_cell_angle_beta 90.000000
_cell_angle_gamma 90.000000
_cell_volume 5611.995612
_symmetry_space_group_name_H-M "P 42/M C M"
_symmetry_group_IT_number 132
_symmetry_cell_setting 'tetragonal'
loop_
_space_group_symop_operation_xyz
x,y,z
-y,x,1/2+z
-x,-y,z
y,-x,1/2+z
x,-y,1/2-z
-x,y,1/2-z
y,x,-z
-y,-x,-z
-x,-y,-z
y,-x,1/2-z
x,y,-z
-y,x,1/2-z
-x,y,1/2+z
x,-y,1/2+z
-y,-x,z
y,x,z
loop_
_atom_site_type_symbol
_atom_site_label
_atom_site_fract_x
_atom_site_fract_y
_atom_site_fract_z
Si Si1 0.629939 0.222373 0.275142
Si Si2 0.150492 0.514848 0.000000
Si Si3 0.389454 0.766083 0.086474
Si Si4 0.104488 0.255182 0.360765
Si Si5 0.708593 0.551991 0.313874
Si Si6 0.331908 0.979884 0.500000
Si Si7 0.396606 0.017145 0.197090
Si Si8 0.997713 0.844016 0.434119
O O1 0.737645 0.262356 0.276874
O O2 0.598137 0.210175 0.221198
O O3 0.558724 0.301087 0.298866
O O4 0.630764 0.128787 0.307246
O O5 0.212615 0.533404 0.953735
O O6 0.113775 0.403405 0.000000
O O7 0.068505 0.595413 0.000000
O O8 0.324674 0.675327 0.070650
O O9 0.321573 0.858231 0.096977
O O10 0.443641 0.743935 0.134014
O O11 0.196939 0.196939 0.339790
O O12 0.052248 0.314674 0.321713
O O13 0.027766 0.179730 0.381508
O O14 0.607533 0.607533 0.307237
O O15 0.259247 0.983338 0.542709
O O16 0.500000 0.000000 0.172050
O O17 0.408243 0.000000 0.250000
O O18 0.095576 0.904425 0.437171
O O19 0.908342 0.908342 0.454885
#
# Coordination Sequence:
#
# PCOD8316623 Si02
#       8
#    16   8  16  16  16   8  16  16
#     4  10  20  35  56  86 119 149 190 242 292 349
#     4  11  23  35  53  87 120 145 186 240 299 347
#     4  10  19  35  58  81 110 149 190 235 286 346
#     4  10  21  36  56  80 108 144 190 242 289 338
#     4   9  18  34  57  86 118 152 190 233 291 353
#     4  11  22  36  53  81 117 143 178 233 299 346
#     4  11  22  36  55  80 113 153 195 235 285 349
#     4  10  21  38  60  83 109 147 193 236 283 346
#
# _framework density 19.957250999999999
#
# number of rings (size 3 to 8) (size 9 to 14) (size 15 to 20)
#    0.000    1.857    1.429    4.071    0.000    6.000 
#    0.000    1.429    0.000    0.857    0.000    1.000 
#    0.000    4.571    0.000    0.000    0.000    0.000 
#
# Total GULP energy -1387505.543119 kJ/mol
# GULP energy per Si atom -12388.442349 kJ/mol
# Density = 1.991183 g / cm^3
# Si number density = 19.957251 Si / 1000 Ang^3
#
#
#
# Elastic Constant Matrix: (Units=GPa)
#
#
# Indices 1 2 3 4 5 6 
#
# 1 105.1361 51.2726 45.0666 0.0000 0.0000 0.0000
# 2 51.2726 105.1361 45.0666 0.0000 0.0000 0.0000
# 3 45.0666 45.0666 96.7387 0.0000 0.0000 0.0000
# 4 0.0000 0.0000 0.0000 19.3335 0.0000 0.0000
# 5 0.0000 0.0000 0.0000 0.0000 19.3335 0.0000
# 6 0.0000 0.0000 0.0000 0.0000 0.0000 27.8171
#
#
#
# Elastic Compliance Matrix: (Units=1/GPa)
#
#
# Indices 1 2 3 4 5 6 
#
# 1 0.013653 -0.004913 -0.004071 0.000000 0.000000 0.000000
# 2 -0.004913 0.013653 -0.004071 0.000000 0.000000 0.000000
# 3 -0.004071 -0.004071 0.014131 0.000000 0.000000 0.000000
# 4 0.000000 0.000000 0.000000 0.051724 0.000000 0.000000
# 5 0.000000 0.000000 0.000000 0.000000 0.051724 0.000000
# 6 0.000000 0.000000 0.000000 0.000000 0.000000 0.035949
#
#
# Mechanical properties :
#
#
# Convention : Reuss Voigt Hill
#
# Bulk Modulus (GPa) = 65.25643 65.53583 65.39613
# Shear Modulus (GPa) = 23.57911 24.33716 23.95814
#
# Velocity S-wave (km/s) = 3.44100 3.49587 3.46854
# Velocity P-wave (km/s) = 6.96824 7.01457 6.99144
#
# Compressibility (1/GPa) = 0.01532416
#
# Stress axis : x y z
#
# Youngs Moduli (GPa) = 73.24600 73.24600 70.76837
#
# Poissons Ratio (x) = 0.35985 0.28813
# Poissons Ratio (y) = 0.35985 0.28813
# Poissons Ratio (z) = 0.29822 0.29822
#
# Static dielectric constant tensor:
#      x y z
#    x 3.723780 0.000000 0.000000 
#    y 0.000000 3.723780 0.000000 
#    z 0.000000 0.000000 3.025440 
# 
# 
# High freq. dielectric constant tensor:
#      x y z
#    x 1.770910 0.000000 0.000000 
#    y 0.000000 1.770910 0.000000 
#    z 0.000000 0.000000 1.762760 
# 
# From -- ./inp_files/10118.got.cif
#   From: 2010.03.12/outbox.cif.g09.slc.cpg/sg132_6_cif.got.tgz:10118.got - 2010.04.06 17:53:44.
