data_PCOD8316479
_publ_section_title
;
Structure prediction by ZEFSAII (Michael W. Deem and Ramdas Pophale) SiO2 
 PCOD8316479
Probable space group: P 42/M C M
;
_chemical_formula_sum "Si O2"
_cell_formula_units_Z 80
_cell_length_a 23.576916
_cell_length_b 23.576916
_cell_length_c 9.626469
_cell_angle_alpha 90.000000
_cell_angle_beta 90.000000
_cell_angle_gamma 90.000000
_cell_volume 5351.074642
_symmetry_space_group_name_H-M "P 42/M C M"
_symmetry_group_IT_number 132
_symmetry_cell_setting 'tetragonal'
loop_
_space_group_symop_operation_xyz
x,y,z
-y,x,1/2+z
-x,-y,z
y,-x,1/2+z
x,-y,1/2-z
-x,y,1/2-z
y,x,-z
-y,-x,-z
-x,-y,-z
y,-x,1/2-z
x,y,-z
-y,x,1/2-z
-x,y,1/2+z
x,-y,1/2+z
-y,-x,z
y,x,z
loop_
_atom_site_type_symbol
_atom_site_label
_atom_site_fract_x
_atom_site_fract_y
_atom_site_fract_z
Si Si1 0.702637 0.201723 0.344591
Si Si2 0.444927 0.352310 0.000000
Si Si3 0.775223 0.870608 0.341528
Si Si4 0.053897 0.850975 0.661364
Si Si5 0.668287 0.572887 0.500000
Si Si6 0.383132 0.710928 0.733310
O O1 0.700528 0.175351 0.500000
O O2 0.749319 0.250682 0.341605
O O3 0.718454 0.153989 0.231026
O O4 0.640485 0.227049 0.307704
O O5 0.428280 0.314088 0.871421
O O6 0.413325 0.413325 0.000000
O O7 0.511985 0.362297 0.000000
O O8 0.761757 0.890834 0.500000
O O9 0.822844 0.822844 0.346775
O O10 0.796327 0.921856 0.243503
O O11 0.039059 0.835651 0.500000
O O12 0.098355 0.901646 0.663087
O O13 0.000000 0.871899 0.750000
O O14 0.616735 0.616735 0.500000
O O15 0.711923 0.582206 0.375112
O O16 0.328900 0.671101 0.744425
#
# Coordination Sequence:
#
# PCOD8316479 Si02
#       6
#    16   8  16  16   8  16
#     4   9  15  25  41  59  79 102 129 164 211 266
#     4  10  18  31  44  54  74 106 143 179 220 262
#     4   9  17  27  42  64  86 107 135 175 219 263
#     4  10  20  33  47  63  87 120 158 196 228 256
#     4  10  20  29  40  58  78 102 139 185 222 256
#     4   9  17  28  41  57  76 100 132 173 217 264
#
# _framework density 14.950267999999999
#
# number of rings (size 3 to 8) (size 9 to 14) (size 15 to 20)
#    0.000    2.600    1.000    1.800    1.400    4.000 
#    0.000    1.000    0.000    3.600    0.000    0.000 
#    0.000    0.000    0.000    0.000    0.000    6.000 
#
# Total GULP energy -991291.231082 kJ/mol
# GULP energy per Si atom -12391.140389 kJ/mol
# Density = 1.491624 g / cm^3
# Si number density = 14.950268 Si / 1000 Ang^3
#
#
#
# Elastic Constant Matrix: (Units=GPa)
#
#
# Indices 1 2 3 4 5 6 
#
# 1 32.0550 28.8449 33.8038 0.0000 0.0000 0.0000
# 2 28.8449 32.0550 33.8038 0.0000 0.0000 0.0000
# 3 33.8038 33.8038 151.8371 0.0000 0.0000 0.0000
# 4 0.0000 0.0000 0.0000 25.5782 0.0000 0.0000
# 5 0.0000 0.0000 0.0000 0.0000 25.5782 0.0000
# 6 0.0000 0.0000 0.0000 0.0000 0.0000 11.1696
#
#
#
# Elastic Compliance Matrix: (Units=1/GPa)
#
#
# Indices 1 2 3 4 5 6 
#
# 1 0.166663 -0.144852 -0.004856 0.000000 0.000000 0.000000
# 2 -0.144852 0.166663 -0.004856 0.000000 0.000000 0.000000
# 3 -0.004856 -0.004856 0.008748 0.000000 0.000000 0.000000
# 4 0.000000 0.000000 0.000000 0.039096 0.000000 0.000000
# 5 0.000000 0.000000 0.000000 0.000000 0.039096 0.000000
# 6 0.000000 0.000000 0.000000 0.000000 0.000000 0.089529
#
#
# Mechanical properties :
#
#
# Convention : Reuss Voigt Hill
#
# Bulk Modulus (GPa) = 30.35190 45.42804 37.88997
# Shear Modulus (GPa) = 6.02480 20.43150 13.22815
#
# Velocity S-wave (km/s) = 2.00964 3.70081 2.97780
# Velocity P-wave (km/s) = 5.07256 6.97950 6.10099
#
# Compressibility (1/GPa) = 0.03294687
#
# Stress axis : x y z
#
# Youngs Moduli (GPa) = 6.00015 6.00015 114.31004
#
# Poissons Ratio (x) = 0.86913 0.55507
# Poissons Ratio (y) = 0.86913 0.55507
# Poissons Ratio (z) = 0.02914 0.02914
#
# Static dielectric constant tensor:
#      x y z
#    x 2.670190 0.000000 0.000000 
#    y 0.000000 2.670190 0.000000 
#    z 0.000000 0.000000 3.243030 
# 
# 
# High freq. dielectric constant tensor:
#      x y z
#    x 1.531890 0.000000 0.000000 
#    y 0.000000 1.531890 0.000000 
#    z 0.000000 0.000000 1.600420 
# 
# From -- ./inp_files/1617.got.cif
#   From: 2010.03.12/outbox.cif.g09.slc.cpg/sg132_1_cif.got.tgz:1617.got - 2010.04.06 17:53:44.
