data_PCOD8316859
_publ_section_title
;
Structure prediction by ZEFSAII (Michael W. Deem and Ramdas Pophale) SiO2 
 PCOD8316859
Probable space group: P 42/M C M
;
_chemical_formula_sum "Si O2"
_cell_formula_units_Z 64
_cell_length_a 11.395178
_cell_length_b 11.395178
_cell_length_c 23.889738
_cell_angle_alpha 90.000000
_cell_angle_beta 90.000000
_cell_angle_gamma 90.000000
_cell_volume 3102.084430
_symmetry_space_group_name_H-M "P 42/M C M"
_symmetry_group_IT_number 132
_symmetry_cell_setting 'tetragonal'
loop_
_space_group_symop_operation_xyz
x,y,z
-y,x,1/2+z
-x,-y,z
y,-x,1/2+z
x,-y,1/2-z
-x,y,1/2-z
y,x,-z
-y,-x,-z
-x,-y,-z
y,-x,1/2-z
x,y,-z
-y,x,1/2-z
-x,y,1/2+z
x,-y,1/2+z
-y,-x,z
y,x,z
loop_
_atom_site_type_symbol
_atom_site_label
_atom_site_fract_x
_atom_site_fract_y
_atom_site_fract_z
Si Si1 0.555510 0.871375 0.091517
Si Si2 0.823850 0.176151 0.437572
Si Si3 0.214620 0.595599 0.712872
Si Si4 0.092128 0.092128 0.172616
Si Si5 0.498372 0.694760 0.500000
Si Si6 0.711454 0.000000 0.750000
O O1 0.689305 0.859383 0.071798
O O2 0.542509 0.840765 0.156746
O O3 0.485598 0.775290 0.055000
O O4 0.500000 0.000000 0.080377
O O5 0.860489 0.139512 0.500000
O O6 0.899658 0.100343 0.393962
O O7 0.286227 0.500000 0.750000
O O8 0.296401 0.703600 0.695134
O O9 0.114626 0.631704 0.758899
O O10 0.042333 0.214602 0.196169
O O11 0.000000 0.000000 0.193591
O O12 0.601217 0.601217 0.500000
O O13 0.371475 0.628526 0.500000
#
# Coordination Sequence:
#
# PCOD8316859 Si02
#       6
#    16   8  16   8   8   8
#     4  12  22  43  70  96 129 184 231 281 349 426
#     4  12  24  43  68  98 138 176 234 290 347 419
#     4  12  25  41  65  98 137 173 224 281 343 415
#     4  12  22  37  66  96 134 180 220 278 341 406
#     4  11  23  42  70  99 132 176 236 296 347 419
#     4  12  18  40  64  96 126 175 231 270 322 422
#
# _framework density 20.631287
#
# number of rings (size 3 to 8) (size 9 to 14) (size 15 to 20)
#    0.000    0.125    8.750    2.250    0.000    1.500 
#    0.000    1.250    0.000    0.000    0.000    0.000 
#    0.000    0.000    0.000    0.000    0.000    0.000 
#
# Total GULP energy -793065.580018 kJ/mol
# GULP energy per Si atom -12391.649688 kJ/mol
# Density = 2.058433 g / cm^3
# Si number density = 20.631287 Si / 1000 Ang^3
#
#
#
# Elastic Constant Matrix: (Units=GPa)
#
#
# Indices 1 2 3 4 5 6 
#
# 1 102.8871 45.0997 46.0815 0.0000 0.0000 0.0000
# 2 45.0997 102.8867 46.0815 0.0000 0.0000 0.0000
# 3 46.0815 46.0815 155.1340 0.0000 0.0000 0.0000
# 4 0.0000 0.0000 0.0000 31.5123 0.0000 0.0000
# 5 0.0000 0.0000 0.0000 0.0000 31.5123 0.0000
# 6 0.0000 0.0000 0.0000 0.0000 0.0000 24.2572
#
#
#
# Elastic Compliance Matrix: (Units=1/GPa)
#
#
# Indices 1 2 3 4 5 6 
#
# 1 0.012798 -0.004507 -0.002463 0.000000 0.000000 0.000000
# 2 -0.004507 0.012798 -0.002463 0.000000 0.000000 0.000000
# 3 -0.002463 -0.002463 0.007909 0.000000 0.000000 0.000000
# 4 0.000000 0.000000 0.000000 0.031734 0.000000 0.000000
# 5 0.000000 0.000000 0.000000 0.000000 0.031734 0.000000
# 6 0.000000 0.000000 0.000000 0.000000 0.000000 0.041225
#
#
# Mechanical properties :
#
#
# Convention : Reuss Voigt Hill
#
# Bulk Modulus (GPa) = 68.30517 70.60368 69.45443
# Shear Modulus (GPa) = 30.87518 32.36605 31.62061
#
# Velocity S-wave (km/s) = 3.87269 3.96509 3.91916
# Velocity P-wave (km/s) = 7.29221 7.43361 7.36325
#
# Compressibility (1/GPa) = 0.01464018
#
# Stress axis : x y z
#
# Youngs Moduli (GPa) = 78.13723 78.13687 126.43542
#
# Poissons Ratio (x) = 0.35215 0.31139
# Poissons Ratio (y) = 0.35215 0.31139
# Poissons Ratio (z) = 0.19244 0.19244
#
# Static dielectric constant tensor:
#      x y z
#    x 3.852290 0.000000 0.000000 
#    y 0.000000 3.852290 0.000000 
#    z 0.000000 0.000000 3.970930 
# 
# 
# High freq. dielectric constant tensor:
#      x y z
#    x 1.806790 0.000000 0.000000 
#    y 0.000000 1.806790 0.000000 
#    z 0.000000 0.000000 1.813500 
# 
# From -- ./inp_files/8791.got.cif
#   From: 2010.03.12/outbox.cif.g09.slc.cpg/sg132_5_cif.got.tgz:8791.got - 2010.04.06 17:53:44.
