data_PCOD8316369
_publ_section_title
;
Structure prediction by ZEFSAII (Michael W. Deem and Ramdas Pophale) SiO2 
 PCOD8316369
Probable space group: P 42/M M C
;
_chemical_formula_sum "Si O2"
_cell_formula_units_Z 64
_cell_length_a 19.548488
_cell_length_b 19.548488
_cell_length_c 13.179533
_cell_angle_alpha 90.000000
_cell_angle_beta 90.000000
_cell_angle_gamma 90.000000
_cell_volume 5036.471328
_symmetry_space_group_name_H-M "P 42/M M C"
_symmetry_group_IT_number 131
_symmetry_cell_setting 'tetragonal'
loop_
_space_group_symop_operation_xyz
x,y,z
-x,-y,z
-y,x,1/2+z
y,-x,1/2+z
-x,y,-z
x,-y,-z
y,x,1/2-z
-y,-x,1/2-z
-x,-y,-z
x,y,-z
y,-x,1/2-z
-y,x,1/2-z
x,-y,z
-x,y,z
-y,-x,1/2+z
y,x,1/2+z
loop_
_atom_site_type_symbol
_atom_site_label
_atom_site_fract_x
_atom_site_fract_y
_atom_site_fract_z
Si Si1 0.918641 0.577248 0.387537
Si Si2 0.918565 0.423020 0.000000
Si Si3 0.080556 0.201120 0.888195
Si Si4 0.078275 0.921726 0.250000
Si Si5 0.918529 0.341534 0.195895
O O1 0.893444 0.600533 0.500000
O O2 0.893420 0.500000 0.365040
O O3 0.888367 0.627709 0.301053
O O4 0.000000 0.578816 0.384479
O O5 0.891023 0.385134 0.100451
O O6 0.889900 0.500000 0.000000
O O7 0.000000 0.422633 0.000000
O O8 0.098642 0.127126 0.842774
O O9 0.107613 0.263260 0.817507
O O10 0.000000 0.209736 0.898812
O O11 0.114043 0.205549 0.000000
O O12 0.000000 0.909993 0.285458
O O13 0.000000 0.345057 0.199340
#
# Coordination Sequence:
#
# PCOD8316369 Si02
#       5
#    16   8  16   8  16
#     4   8  13  20  29  42  63  90 112 125 137 159
#     4   9  14  18  28  48  69  87 105 121 136 168
#     4   9  16  27  40  51  64  79  95 125 174 220
#     4   9  18  30  42  54  62  74 102 138 180 236
#     4   9  14  21  32  47  65  84 103 122 148 186
#
# _framework density 12.707309
#
# number of rings (size 3 to 8) (size 9 to 14) (size 15 to 20)
#    0.000    3.250    1.250    1.500    0.000    3.500 
#    0.000    3.750    0.000    4.500    0.000    0.000 
#    0.000    0.000    0.000    0.000    0.000    0.000 
#
# Total GULP energy -792964.112918 kJ/mol
# GULP energy per Si atom -12390.064264 kJ/mol
# Density = 1.267839 g / cm^3
# Si number density = 12.707309 Si / 1000 Ang^3
#
#
#
# Elastic Constant Matrix: (Units=GPa)
#
#
# Indices 1 2 3 4 5 6 
#
# 1 48.4927 15.3981 37.5268 0.0000 0.0000 0.0000
# 2 15.3981 48.4951 37.5263 0.0000 0.0000 0.0000
# 3 37.5268 37.5263 124.8673 0.0000 0.0000 0.0000
# 4 0.0000 0.0000 0.0000 12.5520 0.0000 0.0000
# 5 0.0000 0.0000 0.0000 0.0000 12.5520 0.0000
# 6 0.0000 0.0000 0.0000 0.0000 0.0000 1.3327
#
#
#
# Elastic Compliance Matrix: (Units=1/GPa)
#
#
# Indices 1 2 3 4 5 6 
#
# 1 0.027205 -0.003012 -0.007271 0.000000 0.000000 0.000000
# 2 -0.003012 0.027203 -0.007270 0.000000 0.000000 0.000000
# 3 -0.007271 -0.007270 0.012378 0.000000 0.000000 0.000000
# 4 0.000000 0.000000 0.000000 0.079668 0.000000 0.000000
# 5 0.000000 0.000000 0.000000 0.000000 0.079668 0.000000
# 6 0.000000 0.000000 0.000000 0.000000 0.000000 0.750370
#
#
# Mechanical properties :
#
#
# Convention : Reuss Voigt Hill
#
# Bulk Modulus (GPa) = 31.56511 44.75083 38.15797
# Shear Modulus (GPa) = 4.89161 14.04761 9.46961
#
# Velocity S-wave (km/s) = 1.96413 3.32848 2.73281
# Velocity P-wave (km/s) = 5.48067 7.07564 6.32861
#
# Compressibility (1/GPa) = 0.03168055
#
# Stress axis : x y z
#
# Youngs Moduli (GPa) = 36.75854 36.76113 80.78547
#
# Poissons Ratio (x) = 0.11072 0.58737
# Poissons Ratio (y) = 0.11071 0.58732
# Poissons Ratio (z) = 0.26726 0.26726
#
# Static dielectric constant tensor:
#      x y z
#    x 2.324320 0.000000 0.000000 
#    y 0.000000 2.324310 0.000000 
#    z 0.000000 0.000000 2.894640 
# 
# 
# High freq. dielectric constant tensor:
#      x y z
#    x 1.433160 0.000000 0.000000 
#    y 0.000000 1.433160 0.000000 
#    z 0.000000 0.000000 1.498680 
# 
# From -- ./inp_files/4030.got.cif
#   From: 2010.03.12/outbox.cif.g09.slc.cpg/sg131_3_cif.got.tgz:4030.got - 2010.04.06 17:36:35.
