data_PCOD8316425
_publ_section_title
;
Structure prediction by ZEFSAII (Michael W. Deem and Ramdas Pophale) SiO2 
 PCOD8316425
Probable space group: P 42/M C M
;
_chemical_formula_sum "Si O2"
_cell_formula_units_Z 128
_cell_length_a 18.539693
_cell_length_b 18.539693
_cell_length_c 24.196312
_cell_angle_alpha 90.000000
_cell_angle_beta 90.000000
_cell_angle_gamma 90.000000
_cell_volume 8316.761600
_symmetry_space_group_name_H-M "P 42/M C M"
_symmetry_group_IT_number 132
_symmetry_cell_setting 'tetragonal'
loop_
_space_group_symop_operation_xyz
x,y,z
-y,x,1/2+z
-x,-y,z
y,-x,1/2+z
x,-y,1/2-z
-x,y,1/2-z
y,x,-z
-y,-x,-z
-x,-y,-z
y,-x,1/2-z
x,y,-z
-y,x,1/2-z
-x,y,1/2+z
x,-y,1/2+z
-y,-x,z
y,x,z
loop_
_atom_site_type_symbol
_atom_site_label
_atom_site_fract_x
_atom_site_fract_y
_atom_site_fract_z
Si Si1 0.113230 0.225713 0.850611
Si Si2 0.616572 0.504461 0.561987
Si Si3 0.955646 0.572357 0.141683
Si Si4 0.428799 0.820686 0.281333
Si Si5 0.598055 0.718436 0.882747
Si Si6 0.652333 0.855426 0.936287
Si Si7 0.718179 0.168029 0.765862
Si Si8 0.710501 0.977631 0.312452
O O1 0.144393 0.144393 0.857879
O O2 0.135290 0.272762 0.903395
O O3 0.148070 0.262397 0.797022
O O4 0.026582 0.226490 0.841036
O O5 0.645022 0.519483 0.500000
O O6 0.559358 0.440643 0.559745
O O7 0.577225 0.577225 0.585200
O O8 0.683264 0.478846 0.599881
O O9 0.900359 0.563781 0.192615
O O10 0.910847 0.592177 0.086653
O O11 0.000000 0.500000 0.131080
O O12 0.012230 0.636237 0.154154
O O13 0.500000 0.797946 0.250000
O O14 0.412178 0.760437 0.326229
O O15 0.367080 0.818560 0.234430
O O16 0.658048 0.658048 0.873310
O O17 0.624181 0.773613 0.930169
O O18 0.667129 0.872601 0.000000
O O19 0.761701 0.238300 0.785472
O O20 0.736245 0.105392 0.810752
O O21 0.695095 0.000000 0.250000
#
# Coordination Sequence:
#
# PCOD8316425 Si02
#       8
#    16  16  16  16  16  16  16  16
#     4   9  16  27  43  65  93 120 148 182 221 268
#     4   8  14  25  42  61  76  96 132 175 216 257
#     4  10  19  29  45  63  88 118 151 192 222 263
#     4  11  20  29  43  64  87 115 150 186 225 266
#     4  10  18  30  44  61  84 111 144 184 227 272
#     4  10  19  29  42  66  94 121 152 181 225 284
#     4  10  17  29  46  64  90 119 150 189 229 268
#     4   9  15  27  42  66  87 114 154 183 220 269
#
# _framework density 15.390605000000001
#
# number of rings (size 3 to 8) (size 9 to 14) (size 15 to 20)
#    0.000    2.375    5.000    2.250    0.000    1.750 
#    0.000    1.250    0.000    0.375    0.000    2.625 
#    0.000    8.000    0.000    6.750    0.000    3.500 
#
# Total GULP energy -1586415.061570 kJ/mol
# GULP energy per Si atom -12393.867669 kJ/mol
# Density = 1.535558 g / cm^3
# Si number density = 15.390605 Si / 1000 Ang^3
#
#
#
# Elastic Constant Matrix: (Units=GPa)
#
#
# Indices 1 2 3 4 5 6 
#
# 1 93.5657 52.0371 34.1215 0.0000 0.0000 0.0000
# 2 52.0371 93.5657 34.1215 0.0000 0.0000 0.0000
# 3 34.1215 34.1215 52.5916 0.0000 0.0000 0.0000
# 4 0.0000 0.0000 0.0000 13.1878 0.0000 0.0000
# 5 0.0000 0.0000 0.0000 0.0000 13.1878 0.0000
# 6 0.0000 0.0000 0.0000 0.0000 0.0000 30.6020
#
#
#
# Elastic Compliance Matrix: (Units=1/GPa)
#
#
# Indices 1 2 3 4 5 6 
#
# 1 0.016974 -0.007105 -0.006403 0.000000 0.000000 0.000000
# 2 -0.007105 0.016974 -0.006403 0.000000 0.000000 0.000000
# 3 -0.006403 -0.006403 0.027323 0.000000 0.000000 0.000000
# 4 0.000000 0.000000 0.000000 0.075828 0.000000 0.000000
# 5 0.000000 0.000000 0.000000 0.000000 0.075828 0.000000
# 6 0.000000 0.000000 0.000000 0.000000 0.000000 0.032678
#
#
# Mechanical properties :
#
#
# Convention : Reuss Voigt Hill
#
# Bulk Modulus (GPa) = 46.62232 53.36481 49.99356
# Shear Modulus (GPa) = 17.08945 19.35834 18.22390
#
# Velocity S-wave (km/s) = 3.33585 3.55040 3.44480
# Velocity P-wave (km/s) = 6.72278 7.18025 6.95528
#
# Compressibility (1/GPa) = 0.02144896
#
# Stress axis : x y z
#
# Youngs Moduli (GPa) = 58.91202 58.91202 36.59903
#
# Poissons Ratio (x) = 0.41859 0.23435
# Poissons Ratio (y) = 0.41859 0.23435
# Poissons Ratio (z) = 0.37722 0.37722
#
# Static dielectric constant tensor:
#      x y z
#    x 3.085930 0.000000 0.000000 
#    y 0.000000 3.085930 0.000000 
#    z 0.000000 0.000000 2.716760 
# 
# 
# High freq. dielectric constant tensor:
#      x y z
#    x 1.580160 0.000000 0.000000 
#    y 0.000000 1.580160 0.000000 
#    z 0.000000 0.000000 1.560860 
# 
# From -- ./inp_files/9373.got.cif
#   From: 2010.03.12/outbox.cif.g09.slc.cpg/sg132_5_cif.got.tgz:9373.got - 2010.04.06 17:53:44.
