data_PCOD8316381
_publ_section_title
;
Structure prediction by ZEFSAII (Michael W. Deem and Ramdas Pophale) SiO2 
 PCOD8316381
Probable space group: P 42/M M C
;
_chemical_formula_sum "Si O2"
_cell_formula_units_Z 40
_cell_length_a 11.820195
_cell_length_b 11.820195
_cell_length_c 20.621120
_cell_angle_alpha 90.000000
_cell_angle_beta 90.000000
_cell_angle_gamma 90.000000
_cell_volume 2881.121226
_symmetry_space_group_name_H-M "P 42/M M C"
_symmetry_group_IT_number 131
_symmetry_cell_setting 'tetragonal'
loop_
_space_group_symop_operation_xyz
x,y,z
-x,-y,z
-y,x,1/2+z
y,-x,1/2+z
-x,y,-z
x,-y,-z
y,x,1/2-z
-y,-x,1/2-z
-x,-y,-z
x,y,-z
y,-x,1/2-z
-y,x,1/2-z
x,-y,z
-x,y,z
-y,-x,1/2+z
y,x,1/2+z
loop_
_atom_site_type_symbol
_atom_site_label
_atom_site_fract_x
_atom_site_fract_y
_atom_site_fract_z
Si Si1 0.632219 0.367782 0.250000
Si Si2 0.761692 0.365681 0.122759
Si Si3 0.000000 0.634646 0.073969
Si Si4 0.635101 0.373561 0.500000
O O1 0.500000 0.347095 0.234529
O O2 0.707063 0.323774 0.189855
O O3 0.757579 0.500000 0.120925
O O4 0.890231 0.321886 0.113518
O O5 0.688426 0.316817 0.063471
O O6 0.000000 0.500000 0.070395
O O7 0.000000 0.681583 0.000000
O O8 0.500000 0.372281 0.500000
O O9 0.682891 0.500000 0.500000
#
# Coordination Sequence:
#
# PCOD8316381 Si02
#       4
#     8  16   8   8
#     4   9  16  24  32  46  72 103 128 150 182 225
#     4   9  15  22  32  46  67  95 126 157 185 217
#     4   9  14  22  34  48  66  92 127 160 188 216
#     4   9  14  19  29  45  65  93 126 153 178 213
#
# _framework density 13.883483
#
# number of rings (size 3 to 8) (size 9 to 14) (size 15 to 20)
#    0.000    3.000    2.000    1.200    0.000    4.800 
#    0.000    0.000    0.000    0.000    0.000    0.000 
#    0.000    2.400    0.000   16.800    0.000    5.000 
#
# Total GULP energy -495742.086465 kJ/mol
# GULP energy per Si atom -12393.552162 kJ/mol
# Density = 1.385188 g / cm^3
# Si number density = 13.883483 Si / 1000 Ang^3
#
#
#
# Elastic Constant Matrix: (Units=GPa)
#
#
# Indices 1 2 3 4 5 6 
#
# 1 66.9067 16.8147 49.7015 0.0000 0.0000 0.0000
# 2 16.8147 66.9079 49.7015 0.0000 0.0000 0.0000
# 3 49.7015 49.7015 146.4818 0.0000 0.0000 0.0000
# 4 0.0000 0.0000 0.0000 5.4763 0.0000 0.0000
# 5 0.0000 0.0000 0.0000 0.0000 5.4764 0.0000
# 6 0.0000 0.0000 0.0000 0.0000 0.0000 3.1258
#
#
#
# Elastic Compliance Matrix: (Units=1/GPa)
#
#
# Indices 1 2 3 4 5 6 
#
# 1 0.019983 0.000020 -0.006787 0.000000 0.000000 0.000000
# 2 0.000020 0.019982 -0.006787 0.000000 0.000000 0.000000
# 3 -0.006787 -0.006787 0.011432 0.000000 0.000000 0.000000
# 4 0.000000 0.000000 0.000000 0.182607 0.000000 0.000000
# 5 0.000000 0.000000 0.000000 0.000000 0.182603 0.000000
# 6 0.000000 0.000000 0.000000 0.000000 0.000000 0.319914
#
#
# Mechanical properties :
#
#
# Convention : Reuss Voigt Hill
#
# Bulk Modulus (GPa) = 41.16986 56.97021 49.07003
# Shear Modulus (GPa) = 6.47899 13.75427 10.11663
#
# Velocity S-wave (km/s) = 2.16259 3.15094 2.70234
# Velocity P-wave (km/s) = 5.99616 7.37303 6.71995
#
# Compressibility (1/GPa) = 0.02428962
#
# Stress axis : x y z
#
# Youngs Moduli (GPa) = 50.04287 50.04409 87.47130
#
# Poissons Ratio (x) = -0.00098 0.59366
# Poissons Ratio (y) = -0.00098 0.59364
# Poissons Ratio (z) = 0.33963 0.33963
#
# Static dielectric constant tensor:
#      x y z
#    x 2.495460 0.000000 0.000000 
#    y 0.000000 2.495450 0.000000 
#    z 0.000000 0.000000 2.926890 
# 
# 
# High freq. dielectric constant tensor:
#      x y z
#    x 1.483090 0.000000 0.000000 
#    y 0.000000 1.483090 0.000000 
#    z 0.000000 0.000000 1.542280 
# 
# From -- ./inp_files/6875.got.cif
#   From: 2010.03.12/outbox.cif.g09.slc.cpg/sg131_4_cif.got.tgz:6875.got - 2010.04.06 17:36:35.
