data_PCOD8316611
_publ_section_title
;
Structure prediction by ZEFSAII (Michael W. Deem and Ramdas Pophale) SiO2 
 PCOD8316611
Probable space group: P 42/M C M
;
_chemical_formula_sum "Si O2"
_cell_formula_units_Z 72
_cell_length_a 12.394132
_cell_length_b 12.394132
_cell_length_c 25.891776
_cell_angle_alpha 90.000000
_cell_angle_beta 90.000000
_cell_angle_gamma 90.000000
_cell_volume 3977.352432
_symmetry_space_group_name_H-M "P 42/M C M"
_symmetry_group_IT_number 132
_symmetry_cell_setting 'tetragonal'
loop_
_space_group_symop_operation_xyz
x,y,z
-y,x,1/2+z
-x,-y,z
y,-x,1/2+z
x,-y,1/2-z
-x,y,1/2-z
y,x,-z
-y,-x,-z
-x,-y,-z
y,-x,1/2-z
x,y,-z
-y,x,1/2-z
-x,y,1/2+z
x,-y,1/2+z
-y,-x,z
y,x,z
loop_
_atom_site_type_symbol
_atom_site_label
_atom_site_fract_x
_atom_site_fract_y
_atom_site_fract_z
Si Si1 0.744563 0.925574 0.942180
Si Si2 0.281849 0.112077 0.765213
Si Si3 0.916192 0.083809 0.938585
Si Si4 0.427071 0.743938 0.200233
Si Si5 0.568347 0.103875 0.359692
O O1 0.842180 0.842180 0.942639
O O2 0.651007 0.877608 0.906287
O O3 0.794786 0.042595 0.922661
O O4 0.696952 0.938345 0.000000
O O5 0.192336 0.192336 0.788695
O O6 0.340170 0.165209 0.715994
O O7 0.370198 0.080331 0.806986
O O8 0.224238 0.000000 0.750000
O O9 0.923178 0.076823 0.000000
O O10 0.000000 0.000000 0.913179
O O11 0.500000 0.715475 0.250000
O O12 0.365025 0.634976 0.182768
O O13 0.495420 0.789268 0.151290
O O14 0.500000 0.000000 0.375050
#
# Coordination Sequence:
#
# PCOD8316611 Si02
#       5
#    16  16   8  16  16
#     4   9  18  34  55  79 106 136 171 213 261 312
#     4  10  19  34  53  75 104 139 173 205 255 314
#     4   7  12  28  52  74 102 134 163 203 251 303
#     4   9  19  34  54  75 103 142 183 223 260 303
#     4  11  20  33  54  76 105 140 175 214 260 316
#
# _framework density 18.102495000000001
#
# number of rings (size 3 to 8) (size 9 to 14) (size 15 to 20)
#    0.000    2.556    2.222    2.000    0.000    1.778 
#    4.000    0.000    0.000    0.667    0.000    1.556 
#    0.000    0.000    0.000    0.000    0.000    0.000 
#
# Total GULP energy -891998.668500 kJ/mol
# GULP energy per Si atom -12388.870396 kJ/mol
# Density = 1.806129 g / cm^3
# Si number density = 18.102495 Si / 1000 Ang^3
#
#
#
# Elastic Constant Matrix: (Units=GPa)
#
#
# Indices 1 2 3 4 5 6 
#
# 1 88.5964 44.3480 31.0091 0.0000 0.0000 0.0000
# 2 44.3480 88.5964 31.0090 0.0000 0.0000 0.0000
# 3 31.0091 31.0090 64.7790 0.0000 0.0000 0.0000
# 4 0.0000 0.0000 0.0000 20.7417 0.0000 0.0000
# 5 0.0000 0.0000 0.0000 0.0000 20.7416 0.0000
# 6 0.0000 0.0000 0.0000 0.0000 0.0000 27.6091
#
#
#
# Elastic Compliance Matrix: (Units=1/GPa)
#
#
# Indices 1 2 3 4 5 6 
#
# 1 0.016142 -0.006458 -0.004636 0.000000 0.000000 0.000000
# 2 -0.006458 0.016142 -0.004636 0.000000 0.000000 0.000000
# 3 -0.004636 -0.004636 0.019875 0.000000 0.000000 0.000000
# 4 0.000000 0.000000 0.000000 0.048212 0.000000 0.000000
# 5 0.000000 0.000000 0.000000 0.000000 0.048212 0.000000
# 6 0.000000 0.000000 0.000000 0.000000 0.000000 0.036220
#
#
# Mechanical properties :
#
#
# Convention : Reuss Voigt Hill
#
# Bulk Modulus (GPa) = 48.30700 50.52268 49.41484
# Shear Modulus (GPa) = 22.40514 22.85885 22.63200
#
# Velocity S-wave (km/s) = 3.52189 3.55737 3.53967
# Velocity P-wave (km/s) = 6.57886 6.69649 6.63794
#
# Compressibility (1/GPa) = 0.02070094
#
# Stress axis : x y z
#
# Youngs Moduli (GPa) = 61.94963 61.94969 50.31340
#
# Poissons Ratio (x) = 0.40004 0.23325
# Poissons Ratio (y) = 0.40004 0.23325
# Poissons Ratio (z) = 0.28719 0.28719
#
# Static dielectric constant tensor:
#      x y z
#    x 3.426780 0.000000 0.000000 
#    y 0.000000 3.426780 0.000000 
#    z 0.000000 0.000000 3.005150 
# 
# 
# High freq. dielectric constant tensor:
#      x y z
#    x 1.694180 0.000000 0.000000 
#    y 0.000000 1.694180 0.000000 
#    z 0.000000 0.000000 1.663810 
# 
# From -- ./inp_files/9734.got.cif
#   From: 2010.03.12/outbox.cif.g09.slc.cpg/sg132_5_cif.got.tgz:9734.got - 2010.04.06 17:53:44.
