data_PCOD8316864
_publ_section_title
;
Structure prediction by ZEFSAII (Michael W. Deem and Ramdas Pophale) SiO2 
 PCOD8316864
Probable space group: P 42/M C M
;
_chemical_formula_sum "Si O2"
_cell_formula_units_Z 42
_cell_length_a 14.327767
_cell_length_b 14.327767
_cell_length_c 9.327802
_cell_angle_alpha 90.000000
_cell_angle_beta 90.000000
_cell_angle_gamma 90.000000
_cell_volume 1914.856968
_symmetry_space_group_name_H-M "P 42/M C M"
_symmetry_group_IT_number 132
_symmetry_cell_setting 'tetragonal'
loop_
_space_group_symop_operation_xyz
x,y,z
-y,x,1/2+z
-x,-y,z
y,-x,1/2+z
x,-y,1/2-z
-x,y,1/2-z
y,x,-z
-y,-x,-z
-x,-y,-z
y,-x,1/2-z
x,y,-z
-y,x,1/2-z
-x,y,1/2+z
x,-y,1/2+z
-y,-x,z
y,x,z
loop_
_atom_site_type_symbol
_atom_site_label
_atom_site_fract_x
_atom_site_fract_y
_atom_site_fract_z
Si Si1 0.853426 0.002316 0.000000
Si Si2 0.723273 0.000000 0.250000
Si Si3 0.500000 0.500000 0.250000
Si Si4 0.589888 0.166288 0.830297
Si Si5 0.647480 0.352521 0.334988
O O1 0.791673 0.966028 0.871140
O O2 0.887080 0.112921 0.000000
O O3 0.948826 0.948826 0.000000
O O4 0.667172 0.087889 0.189676
O O5 0.567583 0.432418 0.342127
O O6 0.500000 0.124535 0.750000
O O7 0.613145 0.262413 0.750966
O O8 0.572930 0.184605 0.000000
O O9 0.672624 0.327377 0.500000
#
# Coordination Sequence:
#
# PCOD8316864 Si02
#       5
#     8   8   2  16   8
#     4  11  26  48  73 108 144 190 243 304 368 439
#     4  12  27  45  78 104 150 190 246 303 371 442
#     4  12  26  52  80 114 150 192 258 312 366 428
#     4  12  28  47  72 109 151 197 247 309 373 447
#     4  12  28  47  80 111 150 197 252 311 379 444
#
# _framework density 21.933754
#
# number of rings (size 3 to 8) (size 9 to 14) (size 15 to 20)
#    0.000    0.190    3.810    3.714   10.667    4.571 
#    0.000    0.000    0.000    0.000    0.000    0.000 
#    0.000    0.000    0.000    0.000    0.000    0.000 
#
# Total GULP energy -520479.407513 kJ/mol
# GULP energy per Si atom -12392.366846 kJ/mol
# Density = 2.188383 g / cm^3
# Si number density = 21.933754 Si / 1000 Ang^3
#
#
#
# Elastic Constant Matrix: (Units=GPa)
#
#
# Indices 1 2 3 4 5 6 
#
# 1 106.7502 40.1277 50.9767 0.0000 0.0000 0.0000
# 2 40.1277 106.7497 50.9766 0.0000 0.0000 0.0000
# 3 50.9767 50.9766 218.3843 0.0000 0.0000 0.0000
# 4 0.0000 0.0000 0.0000 79.6404 0.0000 0.0000
# 5 0.0000 0.0000 0.0000 0.0000 79.6393 0.0000
# 6 0.0000 0.0000 0.0000 0.0000 0.0000 25.6067
#
#
#
# Elastic Compliance Matrix: (Units=1/GPa)
#
#
# Indices 1 2 3 4 5 6 
#
# 1 0.011567 -0.003443 -0.001897 0.000000 0.000000 0.000000
# 2 -0.003443 0.011567 -0.001897 0.000000 0.000000 0.000000
# 3 -0.001897 -0.001897 0.005464 0.000000 0.000000 0.000000
# 4 0.000000 0.000000 0.000000 0.012556 0.000000 0.000000
# 5 0.000000 0.000000 0.000000 0.000000 0.012557 0.000000
# 6 0.000000 0.000000 0.000000 0.000000 0.000000 0.039052
#
#
# Mechanical properties :
#
#
# Convention : Reuss Voigt Hill
#
# Bulk Modulus (GPa) = 70.78146 79.56067 75.17106
# Shear Modulus (GPa) = 44.66461 56.29749 50.48105
#
# Velocity S-wave (km/s) = 4.51748 5.07176 4.80262
# Velocity P-wave (km/s) = 7.71692 8.40529 8.06845
#
# Compressibility (1/GPa) = 0.01412799
#
# Stress axis : x y z
#
# Youngs Moduli (GPa) = 86.44983 86.44938 182.99945
#
# Poissons Ratio (x) = 0.29761 0.34707
# Poissons Ratio (y) = 0.29761 0.34707
# Poissons Ratio (z) = 0.16396 0.16396
#
# Static dielectric constant tensor:
#      x y z
#    x 4.104150 0.000000 0.000000 
#    y 0.000000 4.104150 0.000000 
#    z 0.000000 0.000000 4.090960 
# 
# 
# High freq. dielectric constant tensor:
#      x y z
#    x 1.875970 0.000000 0.000000 
#    y 0.000000 1.875970 0.000000 
#    z 0.000000 0.000000 1.879430 
# 
# From -- ./inp_files/596.got.cif
#   From: 2010.03.12/outbox.cif.g09.slc.cpg/sg132_1_cif.got.tgz:596.got - 2010.04.06 17:53:44.
