data_PCOD8316576
_publ_section_title
;
Structure prediction by ZEFSAII (Michael W. Deem and Ramdas Pophale) SiO2 
 PCOD8316576
Probable space group: P 42/M C M
;
_chemical_formula_sum "Si O2"
_cell_formula_units_Z 96
_cell_length_a 24.285539
_cell_length_b 24.285539
_cell_length_c 9.216654
_cell_angle_alpha 90.000000
_cell_angle_beta 90.000000
_cell_angle_gamma 90.000000
_cell_volume 5435.866441
_symmetry_space_group_name_H-M "P 42/M C M"
_symmetry_group_IT_number 132
_symmetry_cell_setting 'tetragonal'
loop_
_space_group_symop_operation_xyz
x,y,z
-y,x,1/2+z
-x,-y,z
y,-x,1/2+z
x,-y,1/2-z
-x,y,1/2-z
y,x,-z
-y,-x,-z
-x,-y,-z
y,-x,1/2-z
x,y,-z
-y,x,1/2-z
-x,y,1/2+z
x,-y,1/2+z
-y,-x,z
y,x,z
loop_
_atom_site_type_symbol
_atom_site_label
_atom_site_fract_x
_atom_site_fract_y
_atom_site_fract_z
Si Si1 0.271951 0.855320 0.331575
Si Si2 0.444816 0.783822 0.828029
Si Si3 0.942194 0.057807 0.323543
Si Si4 0.449629 0.909036 0.162897
Si Si5 0.052034 0.331243 0.334984
Si Si6 0.148156 0.851844 0.328806
Si Si7 0.339552 0.252005 0.834966
O O1 0.277194 0.871792 0.500000
O O2 0.310707 0.892469 0.235079
O O3 0.209719 0.865518 0.274416
O O4 0.292354 0.793433 0.304226
O O5 0.500000 0.761082 0.750000
O O6 0.435872 0.847428 0.781912
O O7 0.391496 0.751192 0.771583
O O8 0.449817 0.775285 0.000000
O O9 0.947581 0.052420 0.500000
O O10 0.896750 0.103251 0.276599
O O11 0.000000 0.075924 0.250000
O O12 0.500000 0.935875 0.250000
O O13 0.397174 0.948248 0.177469
O O14 0.470681 0.904887 0.000000
O O15 0.048565 0.311151 0.500000
O O16 0.000000 0.306731 0.250000
O O17 0.149434 0.850567 0.500000
O O18 0.311180 0.311180 0.809974
O O19 0.360776 0.245713 0.000000
#
# Coordination Sequence:
#
# PCOD8316576 Si02
#       7
#    16  16   8  16  16   8  16
#     4  10  19  35  56  78 104 137 173 211 258 317
#     4  10  19  33  52  77 108 143 182 226 273 318
#     4  10  20  37  60  82 106 130 162 208 260 321
#     4   9  19  33  50  70  95 127 171 221 267 314
#     4  11  23  38  51  71 100 134 174 220 269 318
#     4   9  19  36  59  84 108 136 168 206 255 313
#     4  10  19  32  54  82 110 143 182 219 262 320
#
# _framework density 17.660477
#
# number of rings (size 3 to 8) (size 9 to 14) (size 15 to 20)
#    0.000    2.083    2.500    1.500    0.000    3.333 
#    0.000    5.417    0.000    0.000    0.000    0.000 
#    0.000    0.333    0.000    3.500    0.000    1.500 
#
# Total GULP energy -1190231.251323 kJ/mol
# GULP energy per Si atom -12398.242201 kJ/mol
# Density = 1.762028 g / cm^3
# Si number density = 17.660477 Si / 1000 Ang^3
#
#
#
# Elastic Constant Matrix: (Units=GPa)
#
#
# Indices 1 2 3 4 5 6 
#
# 1 76.7454 22.4489 40.4641 0.0000 0.0000 0.0000
# 2 22.4489 76.7457 40.4642 0.0000 0.0000 0.0000
# 3 40.4641 40.4642 92.0084 0.0000 0.0000 0.0000
# 4 0.0000 0.0000 0.0000 16.6828 0.0000 0.0000
# 5 0.0000 0.0000 0.0000 0.0000 16.6828 0.0000
# 6 0.0000 0.0000 0.0000 0.0000 0.0000 17.7865
#
#
#
# Elastic Compliance Matrix: (Units=1/GPa)
#
#
# Indices 1 2 3 4 5 6 
#
# 1 0.017070 -0.001347 -0.006915 0.000000 0.000000 0.000000
# 2 -0.001347 0.017070 -0.006915 0.000000 0.000000 0.000000
# 3 -0.006915 -0.006915 0.016950 0.000000 0.000000 0.000000
# 4 0.000000 0.000000 0.000000 0.059942 0.000000 0.000000
# 5 0.000000 0.000000 0.000000 0.000000 0.059942 0.000000
# 6 0.000000 0.000000 0.000000 0.000000 0.000000 0.056222
#
#
# Mechanical properties :
#
#
# Convention : Reuss Voigt Hill
#
# Bulk Modulus (GPa) = 48.22253 50.25043 49.23648
# Shear Modulus (GPa) = 18.90629 19.70523 19.30576
#
# Velocity S-wave (km/s) = 3.27546 3.34396 3.30989
# Velocity P-wave (km/s) = 6.45519 6.58975 6.52282
#
# Compressibility (1/GPa) = 0.02073720
#
# Stress axis : x y z
#
# Youngs Moduli (GPa) = 58.58254 58.58272 58.99554
#
# Poissons Ratio (x) = 0.07894 0.40793
# Poissons Ratio (y) = 0.07894 0.40793
# Poissons Ratio (z) = 0.40507 0.40507
#
# Static dielectric constant tensor:
#      x y z
#    x 3.187950 0.000000 0.000000 
#    y 0.000000 3.187940 0.000000 
#    z 0.000000 0.000000 3.227260 
# 
# 
# High freq. dielectric constant tensor:
#      x y z
#    x 1.669490 0.000000 0.000000 
#    y 0.000000 1.669490 0.000000 
#    z 0.000000 0.000000 1.681880 
# 
# From -- ./inp_files/1852.got.cif
#   From: 2010.03.12/outbox.cif.g09.slc.cpg/sg132_1_cif.got.tgz:1852.got - 2010.04.06 17:53:44.
