data_PCOD8316641
_publ_section_title
;
Structure prediction by ZEFSAII (Michael W. Deem and Ramdas Pophale) SiO2 
 PCOD8316641
Probable space group: P 42/M C M
;
_chemical_formula_sum "Si O2"
_cell_formula_units_Z 64
_cell_length_a 19.832613
_cell_length_b 19.832613
_cell_length_c 8.827931
_cell_angle_alpha 90.000000
_cell_angle_beta 90.000000
_cell_angle_gamma 90.000000
_cell_volume 3472.312509
_symmetry_space_group_name_H-M "P 42/M C M"
_symmetry_group_IT_number 132
_symmetry_cell_setting 'tetragonal'
loop_
_space_group_symop_operation_xyz
x,y,z
-y,x,1/2+z
-x,-y,z
y,-x,1/2+z
x,-y,1/2-z
-x,y,1/2-z
y,x,-z
-y,-x,-z
-x,-y,-z
y,-x,1/2-z
x,y,-z
-y,x,1/2-z
-x,y,1/2+z
x,-y,1/2+z
-y,-x,z
y,x,z
loop_
_atom_site_type_symbol
_atom_site_label
_atom_site_fract_x
_atom_site_fract_y
_atom_site_fract_z
Si Si1 0.288948 0.180419 0.821882
Si Si2 0.560545 0.330653 0.329128
Si Si3 0.568782 0.809878 0.322189
Si Si4 0.822076 0.072387 0.322349
O O1 0.249621 0.249621 0.769938
O O2 0.360147 0.163633 0.742623
O O3 0.242765 0.116846 0.779824
O O4 0.302537 0.186161 0.000000
O O5 0.500000 0.373604 0.250000
O O6 0.542445 0.307276 0.500000
O O7 0.628755 0.371246 0.332181
O O8 0.569477 0.268643 0.216706
O O9 0.500000 0.842835 0.250000
O O10 0.566941 0.823474 0.500000
O O11 0.826718 0.063128 0.500000
O O12 0.889241 0.110760 0.263209
O O13 0.815435 0.000000 0.250000
#
# Coordination Sequence:
#
# PCOD8316641 Si02
#       4
#    16  16  16  16
#     4   9  18  34  54  75 103 138 174 214 262 312
#     4  10  20  32  45  61  84 116 153 196 248 304
#     4  11  21  32  49  72  97 126 163 209 260 310
#     4   9  19  35  55  81 113 148 181 213 252 298
#
# _framework density 18.431521
#
# number of rings (size 3 to 8) (size 9 to 14) (size 15 to 20)
#    0.000    2.250    0.000    6.750    0.000    7.500 
#    0.000    5.000    0.000    0.750    0.000    5.250 
#    0.000    0.000    0.000    0.000    0.000    0.000 
#
# Total GULP energy -792849.314537 kJ/mol
# GULP energy per Si atom -12388.270540 kJ/mol
# Density = 1.838957 g / cm^3
# Si number density = 18.431521 Si / 1000 Ang^3
#
#
#
# Elastic Constant Matrix: (Units=GPa)
#
#
# Indices 1 2 3 4 5 6 
#
# 1 121.1470 46.0984 49.9160 0.0000 0.0000 0.0000
# 2 46.0984 121.1470 49.9160 0.0000 0.0000 0.0000
# 3 49.9160 49.9160 88.1260 0.0000 0.0000 0.0000
# 4 0.0000 0.0000 0.0000 31.0983 0.0000 0.0000
# 5 0.0000 0.0000 0.0000 0.0000 31.0983 0.0000
# 6 0.0000 0.0000 0.0000 0.0000 0.0000 28.1165
#
#
#
# Elastic Compliance Matrix: (Units=1/GPa)
#
#
# Indices 1 2 3 4 5 6 
#
# 1 0.011179 -0.002146 -0.005117 0.000000 0.000000 0.000000
# 2 -0.002146 0.011179 -0.005117 0.000000 0.000000 0.000000
# 3 -0.005117 -0.005117 0.017144 0.000000 0.000000 0.000000
# 4 0.000000 0.000000 0.000000 0.032156 0.000000 0.000000
# 5 0.000000 0.000000 0.000000 0.000000 0.032156 0.000000
# 6 0.000000 0.000000 0.000000 0.000000 0.000000 0.035566
#
#
# Mechanical properties :
#
#
# Convention : Reuss Voigt Hill
#
# Bulk Modulus (GPa) = 67.82471 69.14234 68.48352
# Shear Modulus (GPa) = 29.57648 30.36192 29.96920
#
# Velocity S-wave (km/s) = 4.01018 4.06308 4.03671
# Velocity P-wave (km/s) = 7.63676 7.72049 7.67874
#
# Compressibility (1/GPa) = 0.01474389
#
# Stress axis : x y z
#
# Youngs Moduli (GPa) = 89.45258 89.45258 58.33018
#
# Poissons Ratio (x) = 0.19193 0.29846
# Poissons Ratio (y) = 0.19193 0.29846
# Poissons Ratio (z) = 0.45770 0.45770
#
# Static dielectric constant tensor:
#      x y z
#    x 3.490900 0.000000 0.000000 
#    y 0.000000 3.490900 0.000000 
#    z 0.000000 0.000000 3.604900 
# 
# 
# High freq. dielectric constant tensor:
#      x y z
#    x 1.703570 0.000000 0.000000 
#    y 0.000000 1.703570 0.000000 
#    z 0.000000 0.000000 1.716450 
# 
# From -- ./inp_files/1263.got.cif
#   From: 2010.03.12/outbox.cif.g09.slc.cpg/sg132_1_cif.got.tgz:1263.got - 2010.04.06 17:53:44.
