data_PCOD8316707
_publ_section_title
;
Structure prediction by ZEFSAII (Michael W. Deem and Ramdas Pophale) SiO2 
 PCOD8316707
Probable space group: P 42/M C M
;
_chemical_formula_sum "Si O2"
_cell_formula_units_Z 64
_cell_length_a 19.336184
_cell_length_b 19.336184
_cell_length_c 8.972714
_cell_angle_alpha 90.000000
_cell_angle_beta 90.000000
_cell_angle_gamma 90.000000
_cell_volume 3354.790197
_symmetry_space_group_name_H-M "P 42/M C M"
_symmetry_group_IT_number 132
_symmetry_cell_setting 'tetragonal'
loop_
_space_group_symop_operation_xyz
x,y,z
-y,x,1/2+z
-x,-y,z
y,-x,1/2+z
x,-y,1/2-z
-x,y,1/2-z
y,x,-z
-y,-x,-z
-x,-y,-z
y,-x,1/2-z
x,y,-z
-y,x,1/2-z
-x,y,1/2+z
x,-y,1/2+z
-y,-x,z
y,x,z
loop_
_atom_site_type_symbol
_atom_site_label
_atom_site_fract_x
_atom_site_fract_y
_atom_site_fract_z
Si Si1 0.425439 0.314687 0.173927
Si Si2 0.073678 0.926323 0.179298
Si Si3 0.670228 0.190301 0.331690
Si Si4 0.187742 0.187742 0.675579
Si Si5 0.068959 0.433902 0.167662
O O1 0.500000 0.313302 0.250000
O O2 0.388367 0.388367 0.204832
O O3 0.374816 0.253965 0.235147
O O4 0.438148 0.302048 0.000000
O O5 0.130894 0.869107 0.226695
O O6 0.000000 0.903741 0.250000
O O7 0.067148 0.932853 0.000000
O O8 0.692684 0.209682 0.500000
O O9 0.736392 0.170447 0.235210
O O10 0.627811 0.121167 0.327127
O O11 0.189855 0.189855 0.500000
O O12 0.102052 0.500000 0.250000
O O13 0.000000 0.409518 0.250000
O O14 0.050853 0.455261 0.000000
#
# Coordination Sequence:
#
# PCOD8316707 Si02
#       5
#    16   8  16   8  16
#     4  10  21  38  59  82 111 146 190 238 288 351
#     4  10  22  41  64  92 122 157 199 241 288 339
#     4  10  21  39  59  80 113 155 192 233 288 346
#     4  11  24  38  59  90 119 147 190 241 282 334
#     4  10  20  34  55  81 112 150 189 234 282 337
#
# _framework density 19.077199
#
# number of rings (size 3 to 8) (size 9 to 14) (size 15 to 20)
#    0.000    1.875    1.250    3.375    0.000    6.750 
#    0.000    6.250    0.000    0.000    0.000    0.000 
#    0.000    0.000    0.000    0.000    0.000    0.000 
#
# Total GULP energy -793331.259486 kJ/mol
# GULP energy per Si atom -12395.800929 kJ/mol
# Density = 1.903378 g / cm^3
# Si number density = 19.077199 Si / 1000 Ang^3
#
#
#
# Elastic Constant Matrix: (Units=GPa)
#
#
# Indices 1 2 3 4 5 6 
#
# 1 113.9615 91.4343 58.0529 0.0000 0.0000 0.0000
# 2 91.4343 113.9615 58.0529 0.0000 0.0000 0.0000
# 3 58.0529 58.0529 100.8239 0.0000 0.0000 0.0000
# 4 0.0000 0.0000 0.0000 38.6816 0.0000 0.0000
# 5 0.0000 0.0000 0.0000 0.0000 38.6816 0.0000
# 6 0.0000 0.0000 0.0000 0.0000 0.0000 41.3815
#
#
#
# Elastic Compliance Matrix: (Units=1/GPa)
#
#
# Indices 1 2 3 4 5 6 
#
# 1 0.025804 -0.018586 -0.004156 0.000000 0.000000 0.000000
# 2 -0.018586 0.025804 -0.004156 0.000000 0.000000 0.000000
# 3 -0.004156 -0.004156 0.014704 0.000000 0.000000 0.000000
# 4 0.000000 0.000000 0.000000 0.025852 0.000000 0.000000
# 5 0.000000 0.000000 0.000000 0.000000 0.025852 0.000000
# 6 0.000000 0.000000 0.000000 0.000000 0.000000 0.024165
#
#
# Mechanical properties :
#
#
# Convention : Reuss Voigt Hill
#
# Bulk Modulus (GPa) = 79.89686 82.64745 81.27215
# Shear Modulus (GPa) = 24.98113 31.82939 28.40526
#
# Velocity S-wave (km/s) = 3.62259 4.08910 3.86290
# Velocity P-wave (km/s) = 7.71163 8.10623 7.91139
#
# Compressibility (1/GPa) = 0.01251614
#
# Stress axis : x y z
#
# Youngs Moduli (GPa) = 38.75322 38.75321 68.00784
#
# Poissons Ratio (x) = 0.72028 0.28264
# Poissons Ratio (y) = 0.72028 0.28264
# Poissons Ratio (z) = 0.16106 0.16106
#
# Static dielectric constant tensor:
#      x y z
#    x 3.532090 0.000000 0.000000 
#    y 0.000000 3.532090 0.000000 
#    z 0.000000 0.000000 3.628530 
# 
# 
# High freq. dielectric constant tensor:
#      x y z
#    x 1.750120 0.000000 0.000000 
#    y 0.000000 1.750120 0.000000 
#    z 0.000000 0.000000 1.741050 
# 
# From -- ./inp_files/1285.got.cif
#   From: 2010.03.12/outbox.cif.g09.slc.cpg/sg132_1_cif.got.tgz:1285.got - 2010.04.06 17:53:44.
