data_PCOD8316819
_publ_section_title
;
Structure prediction by ZEFSAII (Michael W. Deem and Ramdas Pophale) SiO2 
 PCOD8316819
Probable space group: P 42/M C M
;
_chemical_formula_sum "Si O2"
_cell_formula_units_Z 56
_cell_length_a 11.824057
_cell_length_b 11.824057
_cell_length_c 19.961361
_cell_angle_alpha 90.000000
_cell_angle_beta 90.000000
_cell_angle_gamma 90.000000
_cell_volume 2790.764425
_symmetry_space_group_name_H-M "P 42/M C M"
_symmetry_group_IT_number 132
_symmetry_cell_setting 'tetragonal'
loop_
_space_group_symop_operation_xyz
x,y,z
-y,x,1/2+z
-x,-y,z
y,-x,1/2+z
x,-y,1/2-z
-x,y,1/2-z
y,x,-z
-y,-x,-z
-x,-y,-z
y,-x,1/2-z
x,y,-z
-y,x,1/2-z
-x,y,1/2+z
x,-y,1/2+z
-y,-x,z
y,x,z
loop_
_atom_site_type_symbol
_atom_site_label
_atom_site_fract_x
_atom_site_fract_y
_atom_site_fract_z
Si Si1 0.981525 0.365561 0.421843
Si Si2 0.412224 0.587777 0.357906
Si Si3 0.104422 0.289035 0.296796
Si Si4 0.745445 0.745445 0.075334
Si Si5 0.500000 0.755190 0.750000
O O1 0.002036 0.335989 0.500000
O O2 0.861681 0.310461 0.395408
O O3 0.000000 0.500000 0.410923
O O4 0.074610 0.308703 0.374709
O O5 0.500000 0.500000 0.390285
O O6 0.350125 0.649876 0.418640
O O7 0.322292 0.520222 0.313984
O O8 0.180265 0.180265 0.294310
O O9 0.166681 0.394444 0.264213
O O10 0.000000 0.261513 0.250000
O O11 0.773112 0.773112 0.000000
#
# Coordination Sequence:
#
# PCOD8316819 Si02
#       5
#    16   8  16   8   8
#     4  10  22  42  66  93 124 168 219 266 323 393
#     4  12  20  35  60  91 131 162 202 261 318 387
#     4  12  25  40  63  92 127 168 214 268 320 378
#     4  10  22  39  63  88 122 169 214 265 324 388
#     4  12  22  40  60  92 126 167 207 256 326 384
#
# _framework density 20.066185999999998
#
# number of rings (size 3 to 8) (size 9 to 14) (size 15 to 20)
#    0.000    0.857    2.857    5.571    2.000    1.143 
#    0.000    0.000    0.000   11.143    0.000    0.000 
#    0.000    0.000    0.000    0.000    0.000    0.000 
#
# Total GULP energy -693973.303758 kJ/mol
# GULP energy per Si atom -12392.380424 kJ/mol
# Density = 2.002051 g / cm^3
# Si number density = 20.066186 Si / 1000 Ang^3
#
#
#
# Elastic Constant Matrix: (Units=GPa)
#
#
# Indices 1 2 3 4 5 6 
#
# 1 126.3798 70.3203 29.2507 0.0000 0.0000 0.0000
# 2 70.3203 126.3798 29.2507 0.0000 0.0000 0.0000
# 3 29.2507 29.2507 61.5756 0.0000 0.0000 0.0000
# 4 0.0000 0.0000 0.0000 33.5261 0.0000 0.0000
# 5 0.0000 0.0000 0.0000 0.0000 33.5261 0.0000
# 6 0.0000 0.0000 0.0000 0.0000 0.0000 61.5442
#
#
#
# Elastic Compliance Matrix: (Units=1/GPa)
#
#
# Indices 1 2 3 4 5 6 
#
# 1 0.011879 -0.005959 -0.002812 0.000000 0.000000 0.000000
# 2 -0.005959 0.011879 -0.002812 0.000000 0.000000 0.000000
# 3 -0.002812 -0.002812 0.018912 0.000000 0.000000 0.000000
# 4 0.000000 0.000000 0.000000 0.029828 0.000000 0.000000
# 5 0.000000 0.000000 0.000000 0.000000 0.029828 0.000000
# 6 0.000000 0.000000 0.000000 0.000000 0.000000 0.016248
#
#
# Mechanical properties :
#
#
# Convention : Reuss Voigt Hill
#
# Bulk Modulus (GPa) = 51.27335 63.55319 57.41327
# Shear Modulus (GPa) = 33.72849 38.08684 35.90767
#
# Velocity S-wave (km/s) = 4.10428 4.36140 4.23479
# Velocity P-wave (km/s) = 6.93309 7.55665 7.25158
#
# Compressibility (1/GPa) = 0.01950331
#
# Stress axis : x y z
#
# Youngs Moduli (GPa) = 84.18038 84.18038 52.87607
#
# Poissons Ratio (x) = 0.50163 0.14871
# Poissons Ratio (y) = 0.50163 0.14871
# Poissons Ratio (z) = 0.23675 0.23675
#
# Static dielectric constant tensor:
#      x y z
#    x 3.941960 0.000000 0.000000 
#    y 0.000000 3.941960 0.000000 
#    z 0.000000 0.000000 3.631280 
# 
# 
# High freq. dielectric constant tensor:
#      x y z
#    x 1.790140 0.000000 0.000000 
#    y 0.000000 1.790140 0.000000 
#    z 0.000000 0.000000 1.785040 
# 
# From -- ./inp_files/7390.got.cif
#   From: 2010.03.12/outbox.cif.g09.slc.cpg/sg132_4_cif.got.tgz:7390.got - 2010.04.06 17:53:44.
