data_PCOD8316892
_publ_section_title
;
Structure prediction by ZEFSAII (Michael W. Deem and Ramdas Pophale) SiO2 
 PCOD8316892
Probable space group: P 42/N B C
;
_chemical_formula_sum "Si O2"
_cell_formula_units_Z 96
_cell_length_a 24.796428
_cell_length_b 24.796428
_cell_length_c 9.740537
_cell_angle_alpha 90.000000
_cell_angle_beta 90.000000
_cell_angle_gamma 90.000000
_cell_volume 5989.094258
_symmetry_space_group_name_H-M "P 42/N B C"
_symmetry_group_IT_number 133
_space_group.IT_coordinate_system_code '2'
_symmetry_cell_setting 'tetragonal'
loop_
_space_group_symop_operation_xyz
x,y,z
1/2-y,x,1/2+z
1/2-x,1/2-y,z
y,1/2-x,1/2+z
x,1/2-y,-z
1/2-x,y,-z
y,x,1/2-z
1/2-y,1/2-x,1/2-z
-x,-y,-z
1/2+y,-x,1/2-z
1/2+x,1/2+y,-z
-y,1/2+x,1/2-z
-x,1/2+y,z
1/2+x,-y,z
-y,-x,1/2+z
1/2+y,1/2+x,1/2+z
loop_
_atom_site_type_symbol
_atom_site_label
_atom_site_fract_x
_atom_site_fract_y
_atom_site_fract_z
Si Si1 0.190490 0.033326 0.015543
Si Si2 0.580892 0.493690 0.091079
Si Si3 0.033506 0.307623 0.037718
Si Si4 0.992163 0.080219 0.908811
Si Si5 0.887719 0.799921 0.283306
Si Si6 0.815278 0.598146 0.272431
O O1 0.180734 0.045114 0.176183
O O2 0.250000 0.005662 0.000000
O O3 0.190147 0.091174 0.937175
O O4 0.142973 0.996148 0.956726
O O5 0.550496 0.551228 0.071238
O O6 0.578155 0.475313 0.249297
O O7 0.552998 0.448936 0.997757
O O8 0.993276 0.358425 0.034634
O O9 0.059854 0.308504 0.188003
O O10 0.004460 0.250000 0.000000
O O11 0.081589 0.314855 0.930216
O O12 0.839317 0.839317 0.250000
O O13 0.867612 0.738551 0.263773
O O14 0.867607 0.632394 0.250000
#
# Coordination Sequence:
#
# PCOD8316892 Si02
#       6
#    16  16  16  16  16  16
#     4  10  20  33  49  67  91 127 164 198 241 294
#     4  10  20  33  50  72  98 127 159 201 250 295
#     4  10  20  33  49  67  91 127 164 198 241 294
#     4  10  20  33  50  72  98 127 159 201 250 295
#     4  10  18  31  47  61  85 125 164 200 248 286
#     4  10  20  29  43  67  89 117 162 208 242 280
#
# _framework density 16.029136000000001
#
# number of rings (size 3 to 8) (size 9 to 14) (size 15 to 20)
#    0.000    2.000    1.667    3.000    2.333    0.333 
#    0.000    0.000    0.000    6.000    0.000    0.000 
#    0.000    0.667    0.000    3.000    0.000    0.333 
#
# Total GULP energy -1190042.643288 kJ/mol
# GULP energy per Si atom -12396.277534 kJ/mol
# Density = 1.599265 g / cm^3
# Si number density = 16.029136 Si / 1000 Ang^3
#
#
#
# Elastic Constant Matrix: (Units=GPa)
#
#
# Indices 1 2 3 4 5 6 
#
# 1 87.8087 43.7449 29.2309 0.0000 0.0000 0.0000
# 2 43.7449 87.8108 29.2313 0.0000 0.0000 0.0000
# 3 29.2309 29.2313 61.5075 0.0000 0.0000 0.0000
# 4 0.0000 0.0000 0.0000 20.1830 0.0000 0.0000
# 5 0.0000 0.0000 0.0000 0.0000 20.1817 0.0000
# 6 0.0000 0.0000 0.0000 0.0000 0.0000 24.9308
#
#
#
# Elastic Compliance Matrix: (Units=1/GPa)
#
#
# Indices 1 2 3 4 5 6 
#
# 1 0.016165 -0.006529 -0.004580 0.000000 0.000000 0.000000
# 2 -0.006529 0.016165 -0.004580 0.000000 0.000000 0.000000
# 3 -0.004580 -0.004580 0.020611 0.000000 0.000000 0.000000
# 4 0.000000 0.000000 0.000000 0.049547 0.000000 0.000000
# 5 0.000000 0.000000 0.000000 0.000000 0.049550 0.000000
# 6 0.000000 0.000000 0.000000 0.000000 0.000000 0.040111
#
#
# Mechanical properties :
#
#
# Convention : Reuss Voigt Hill
#
# Bulk Modulus (GPa) = 46.37054 49.06013 47.71534
# Shear Modulus (GPa) = 21.67185 22.05374 21.86279
#
# Velocity S-wave (km/s) = 3.68098 3.71327 3.69716
# Velocity P-wave (km/s) = 6.85988 7.00413 6.93238
#
# Compressibility (1/GPa) = 0.02156542
#
# Stress axis : x y z
#
# Youngs Moduli (GPa) = 61.86042 61.86188 48.51735
#
# Poissons Ratio (x) = 0.40387 0.22220
# Poissons Ratio (y) = 0.40386 0.22220
# Poissons Ratio (z) = 0.28331 0.28331
#
# Static dielectric constant tensor:
#      x y z
#    x 2.870370 0.000000 0.000000 
#    y 0.000000 2.870370 0.000000 
#    z 0.000000 0.000000 3.313590 
# 
# 
# High freq. dielectric constant tensor:
#      x y z
#    x 1.583770 0.000000 0.000000 
#    y 0.000000 1.583770 0.000000 
#    z 0.000000 0.000000 1.644430 
# 
# From -- ./inp_files/2024.got.cif
#   From: 2010.03.12/outbox.cif.g09.slc.cpg/sg133_2_cif.got.tgz:2024.got - 2010.04.06 18:08:06.
