data_PCOD8316482
_publ_section_title
;
Structure prediction by ZEFSAII (Michael W. Deem and Ramdas Pophale) SiO2 
 PCOD8316482
Probable space group: P 42/M C M
;
_chemical_formula_sum "Si O2"
_cell_formula_units_Z 112
_cell_length_a 27.521787
_cell_length_b 27.521787
_cell_length_c 9.722685
_cell_angle_alpha 90.000000
_cell_angle_beta 90.000000
_cell_angle_gamma 90.000000
_cell_volume 7364.435694
_symmetry_space_group_name_H-M "P 42/M C M"
_symmetry_group_IT_number 132
_symmetry_cell_setting 'tetragonal'
loop_
_space_group_symop_operation_xyz
x,y,z
-y,x,1/2+z
-x,-y,z
y,-x,1/2+z
x,-y,1/2-z
-x,y,1/2-z
y,x,-z
-y,-x,-z
-x,-y,-z
y,-x,1/2-z
x,y,-z
-y,x,1/2-z
-x,y,1/2+z
x,-y,1/2+z
-y,-x,z
y,x,z
loop_
_atom_site_type_symbol
_atom_site_label
_atom_site_fract_x
_atom_site_fract_y
_atom_site_fract_z
Si Si1 0.456841 0.704510 0.154732
Si Si2 0.374622 0.701519 0.349479
Si Si3 0.060353 0.858371 0.000000
Si Si4 0.820191 0.454019 0.840876
Si Si5 0.900339 0.819272 0.763267
Si Si6 0.130665 0.049568 0.000000
Si Si7 0.635885 0.184532 0.656503
Si Si8 0.824103 0.745889 0.163161
O O1 0.500000 0.685170 0.250000
O O2 0.408639 0.683349 0.226009
O O3 0.456188 0.762466 0.151842
O O4 0.461362 0.683887 0.000000
O O5 0.395802 0.686286 0.500000
O O6 0.321691 0.678310 0.326866
O O7 0.370093 0.758478 0.347256
O O8 0.070071 0.821590 0.876601
O O9 0.096005 0.903996 0.000000
O O10 0.007188 0.882505 0.000000
O O11 0.839263 0.500000 0.750000
O O12 0.837470 0.404651 0.761205
O O13 0.840269 0.455200 0.000000
O O14 0.856547 0.856547 0.770777
O O15 0.876065 0.766817 0.786546
O O16 0.939990 0.834347 0.873644
O O17 0.080640 0.080640 0.000000
O O18 0.628998 0.163775 0.500000
O O19 0.690192 0.175444 0.715155
O O20 0.778083 0.778083 0.220035
O O21 0.821728 0.747287 0.000000
#
# Coordination Sequence:
#
# PCOD8316482 Si02
#       8
#    16  16   8  16  16   8  16  16
#     4   9  16  25  37  50  66  91 122 154 187 229
#     4   9  16  25  36  52  74  96 119 153 196 233
#     4  10  20  31  44  66  92 114 143 187 235 275
#     4   9  16  26  38  53  75 103 135 169 205 245
#     4   9  17  30  45  62  84 113 147 182 221 268
#     4  10  18  31  50  66  84 114 151 187 225 273
#     4   9  16  25  39  58  77 102 139 176 207 240
#     4   9  15  26  44  61  79 109 150 186 214 253
#
# _framework density 15.208225000000001
#
# number of rings (size 3 to 8) (size 9 to 14) (size 15 to 20)
#    0.000    2.857    0.714    1.714    0.000    5.571 
#    1.286    0.000    0.000    3.429    0.000    0.000 
#    0.000    0.286    0.000    3.000    0.000    5.857 
#
# Total GULP energy -1387490.564050 kJ/mol
# GULP energy per Si atom -12388.308608 kJ/mol
# Density = 1.517361 g / cm^3
# Si number density = 15.208225 Si / 1000 Ang^3
#
#
#
# Elastic Constant Matrix: (Units=GPa)
#
#
# Indices 1 2 3 4 5 6 
#
# 1 48.7019 33.2573 27.7060 0.0000 0.0000 0.0000
# 2 33.2573 48.6981 27.7045 0.0000 0.0000 0.0000
# 3 27.7060 27.7045 100.7989 0.0000 0.0000 0.0000
# 4 0.0000 0.0000 0.0000 19.9087 0.0000 0.0000
# 5 0.0000 0.0000 0.0000 0.0000 19.9093 0.0000
# 6 0.0000 0.0000 0.0000 0.0000 0.0000 10.2408
#
#
#
# Elastic Compliance Matrix: (Units=1/GPa)
#
#
# Indices 1 2 3 4 5 6 
#
# 1 0.039870 -0.024885 -0.004119 0.000000 0.000000 0.000000
# 2 -0.024885 0.039872 -0.004119 0.000000 0.000000 0.000000
# 3 -0.004119 -0.004119 0.012185 0.000000 0.000000 0.000000
# 4 0.000000 0.000000 0.000000 0.050229 0.000000 0.000000
# 5 0.000000 0.000000 0.000000 0.000000 0.050228 0.000000
# 6 0.000000 0.000000 0.000000 0.000000 0.000000 0.097649
#
#
# Mechanical properties :
#
#
# Convention : Reuss Voigt Hill
#
# Bulk Modulus (GPa) = 38.93872 41.72606 40.33239
# Shear Modulus (GPa) = 13.70467 17.31384 15.50926
#
# Velocity S-wave (km/s) = 3.00515 3.37776 3.19689
# Velocity P-wave (km/s) = 6.14008 6.53517 6.34070
#
# Compressibility (1/GPa) = 0.02568138
#
# Stress axis : x y z
#
# Youngs Moduli (GPa) = 25.08179 25.07996 82.06772
#
# Poissons Ratio (x) = 0.62411 0.33805
# Poissons Ratio (y) = 0.62415 0.33804
# Poissons Ratio (z) = 0.10332 0.10331
#
# Static dielectric constant tensor:
#      x y z
#    x 2.787050 0.000000 0.000000 
#    y 0.000000 2.787050 0.000000 
#    z 0.000000 0.000000 0.055960 
# 
# 
# High freq. dielectric constant tensor:
#      x y z
#    x 1.547520 0.000000 0.000000 
#    y 0.000000 1.547520 0.000000 
#    z 0.000000 0.000000 1.592510 
# 
# From -- ./inp_files/2192.got.cif
#   From: 2010.03.12/outbox.cif.g09.slc.cpg/sg132_2_cif.got.tgz:2192.got - 2010.04.06 17:53:44.
