data_PCOD8316478
_publ_section_title
;
Structure prediction by ZEFSAII (Michael W. Deem and Ramdas Pophale) SiO2 
 PCOD8316478
Probable space group: P 42/M C M
;
_chemical_formula_sum "Si O2"
_cell_formula_units_Z 80
_cell_length_a 23.598229
_cell_length_b 23.598229
_cell_length_c 10.138079
_cell_angle_alpha 90.000000
_cell_angle_beta 90.000000
_cell_angle_gamma 90.000000
_cell_volume 5645.657057
_symmetry_space_group_name_H-M "P 42/M C M"
_symmetry_group_IT_number 132
_symmetry_cell_setting 'tetragonal'
loop_
_space_group_symop_operation_xyz
x,y,z
-y,x,1/2+z
-x,-y,z
y,-x,1/2+z
x,-y,1/2-z
-x,y,1/2-z
y,x,-z
-y,-x,-z
-x,-y,-z
y,-x,1/2-z
x,y,-z
-y,x,1/2-z
-x,y,1/2+z
x,-y,1/2+z
-y,-x,z
y,x,z
loop_
_atom_site_type_symbol
_atom_site_label
_atom_site_fract_x
_atom_site_fract_y
_atom_site_fract_z
Si Si1 0.551637 0.354512 0.348661
Si Si2 0.148859 0.944499 0.000000
Si Si3 0.801909 0.706160 0.351097
Si Si4 0.792665 0.113019 0.236412
Si Si5 0.832694 0.072100 0.500000
Si Si6 0.358544 0.736671 0.646362
O O1 0.500000 0.361086 0.250000
O O2 0.530230 0.356024 0.500000
O O3 0.593876 0.406125 0.321584
O O4 0.582804 0.294878 0.319479
O O5 0.186407 0.930211 0.126330
O O6 0.089241 0.910760 0.000000
O O7 0.136681 0.011191 0.000000
O O8 0.809083 0.682984 0.500000
O O9 0.754647 0.754647 0.348556
O O10 0.861903 0.731063 0.300110
O O11 0.784620 0.654150 0.255636
O O12 0.834735 0.165266 0.246796
O O13 0.791529 0.079840 0.374644
O O14 0.883499 0.116502 0.500000
O O15 0.361979 0.764400 0.500000
O O16 0.308897 0.691104 0.646253
#
# Coordination Sequence:
#
# PCOD8316478 Si02
#       6
#    16   8  16  16   8  16
#     4   9  18  31  43  58  82 112 148 185 216 241
#     4  10  18  31  44  52  74 104 131 173 214 236
#     4   9  15  24  39  58  77  96 121 156 202 252
#     4   9  17  28  40  56  75  96 126 165 205 247
#     4  10  20  29  40  58  74  98 139 173 202 244
#     4   8  15  26  40  58  79 101 127 165 207 245
#
# _framework density 14.170184000000001
#
# number of rings (size 3 to 8) (size 9 to 14) (size 15 to 20)
#    0.000    3.000    1.000    1.800    1.400    1.600 
#    0.000    3.000    0.000    3.600    0.000    0.000 
#    0.000    0.000    0.000    0.000    0.000    6.000 
#
# Total GULP energy -991568.844014 kJ/mol
# GULP energy per Si atom -12394.610550 kJ/mol
# Density = 1.413793 g / cm^3
# Si number density = 14.170184 Si / 1000 Ang^3
#
#
#
# Elastic Constant Matrix: (Units=GPa)
#
#
# Indices 1 2 3 4 5 6 
#
# 1 42.3062 40.3704 48.3008 0.0000 0.0000 0.0000
# 2 40.3704 42.3070 48.3011 0.0000 0.0000 0.0000
# 3 48.3008 48.3011 138.8246 0.0000 0.0000 0.0000
# 4 0.0000 0.0000 0.0000 6.0413 0.0000 0.0000
# 5 0.0000 0.0000 0.0000 0.0000 6.0374 0.0000
# 6 0.0000 0.0000 0.0000 0.0000 0.0000 13.0839
#
#
#
# Elastic Compliance Matrix: (Units=1/GPa)
#
#
# Indices 1 2 3 4 5 6 
#
# 1 0.268432 -0.248049 -0.007091 0.000000 0.000000 0.000000
# 2 -0.248049 0.268426 -0.007091 0.000000 0.000000 0.000000
# 3 -0.007091 -0.007091 0.012138 0.000000 0.000000 0.000000
# 4 0.000000 0.000000 0.000000 0.165527 0.000000 0.000000
# 5 0.000000 0.000000 0.000000 0.000000 0.165633 0.000000
# 6 0.000000 0.000000 0.000000 0.000000 0.000000 0.076430
#
#
# Mechanical properties :
#
#
# Convention : Reuss Voigt Hill
#
# Bulk Modulus (GPa) = 40.75838 55.26471 48.01154
# Shear Modulus (GPa) = 3.35745 10.79689 7.07717
#
# Velocity S-wave (km/s) = 1.54095 2.76333 2.23724
# Velocity P-wave (km/s) = 5.65614 7.01902 6.37411
#
# Compressibility (1/GPa) = 0.02453483
#
# Stress axis : x y z
#
# Youngs Moduli (GPa) = 3.72534 3.72541 82.38852
#
# Poissons Ratio (x) = 0.92408 0.58424
# Poissons Ratio (y) = 0.92407 0.58418
# Poissons Ratio (z) = 0.02642 0.02642
#
# Static dielectric constant tensor:
#      x y z
#    x 2.558650 0.000000 0.000000 
#    y 0.000000 2.558650 0.000000 
#    z 0.000000 0.000000 3.325950 
# 
# 
# High freq. dielectric constant tensor:
#      x y z
#    x 1.502920 0.000000 0.000000 
#    y 0.000000 1.502920 0.000000 
#    z 0.000000 0.000000 1.562660 
# 
# From -- ./inp_files/1620.got.cif
#   From: 2010.03.12/outbox.cif.g09.slc.cpg/sg132_1_cif.got.tgz:1620.got - 2010.04.06 17:53:44.
