data_PCOD8316436
_publ_section_title
;
Structure prediction by ZEFSAII (Michael W. Deem and Ramdas Pophale) SiO2 
 PCOD8316436
Probable space group: P 42/M C M
;
_chemical_formula_sum "Si O2"
_cell_formula_units_Z 80
_cell_length_a 22.627509
_cell_length_b 22.627509
_cell_length_c 9.520461
_cell_angle_alpha 90.000000
_cell_angle_beta 90.000000
_cell_angle_gamma 90.000000
_cell_volume 4874.515671
_symmetry_space_group_name_H-M "P 42/M C M"
_symmetry_group_IT_number 132
_symmetry_cell_setting 'tetragonal'
loop_
_space_group_symop_operation_xyz
x,y,z
-y,x,1/2+z
-x,-y,z
y,-x,1/2+z
x,-y,1/2-z
-x,y,1/2-z
y,x,-z
-y,-x,-z
-x,-y,-z
y,-x,1/2-z
x,y,-z
-y,x,1/2-z
-x,y,1/2+z
x,-y,1/2+z
-y,-x,z
y,x,z
loop_
_atom_site_type_symbol
_atom_site_label
_atom_site_fract_x
_atom_site_fract_y
_atom_site_fract_z
Si Si1 0.678251 0.833208 0.661437
Si Si2 0.239990 0.057640 0.658732
Si Si3 0.844586 0.844586 0.340154
Si Si4 0.554247 0.788353 0.659381
Si Si5 0.557427 0.346606 0.836107
Si Si6 0.237512 0.762489 0.667700
O O1 0.693922 0.816650 0.500000
O O2 0.708653 0.895691 0.700498
O O3 0.607870 0.834425 0.682638
O O4 0.700146 0.781955 0.766673
O O5 0.248630 0.036832 0.500000
O O6 0.174068 0.086766 0.679245
O O7 0.246435 0.000000 0.750000
O O8 0.825414 0.825414 0.500000
O O9 0.809956 0.809956 0.220552
O O10 0.500000 0.812098 0.750000
O O11 0.532586 0.789159 0.500000
O O12 0.573042 0.721482 0.701236
O O13 0.500000 0.367535 0.750000
O O14 0.613240 0.386761 0.791481
O O15 0.543143 0.354299 0.000000
O O16 0.240383 0.759618 0.500000
#
# Coordination Sequence:
#
# PCOD8316436 Si02
#       6
#    16  16   8  16  16   8
#     4   9  18  32  49  67  93 130 160 185 234 299
#     4   9  17  30  49  73  98 126 160 195 231 274
#     4   8  16  32  48  65  97 136 163 183 223 284
#     4   9  18  32  50  67  88 119 155 196 238 288
#     4   9  18  31  46  65  86 113 151 190 231 279
#     4  10  18  26  42  72  99 117 149 199 239 270
#
# _framework density 16.411885999999999
#
# number of rings (size 3 to 8) (size 9 to 14) (size 15 to 20)
#    0.000    3.000    0.000    2.100    1.400    4.600 
#    0.000    1.000    0.000    0.900    0.000    6.300 
#    0.000    0.000    0.000    0.000    0.000    0.000 
#
# Total GULP energy -991251.156628 kJ/mol
# GULP energy per Si atom -12390.639458 kJ/mol
# Density = 1.637453 g / cm^3
# Si number density = 16.411886 Si / 1000 Ang^3
#
#
#
# Elastic Constant Matrix: (Units=GPa)
#
#
# Indices 1 2 3 4 5 6 
#
# 1 95.4610 52.8880 47.5961 0.0000 0.0000 0.0000
# 2 52.8880 95.4608 47.5960 0.0000 0.0000 0.0000
# 3 47.5961 47.5960 78.6800 0.0000 0.0000 0.0000
# 4 0.0000 0.0000 0.0000 26.6636 0.0000 0.0000
# 5 0.0000 0.0000 0.0000 0.0000 26.6636 0.0000
# 6 0.0000 0.0000 0.0000 0.0000 0.0000 18.9502
#
#
#
# Elastic Compliance Matrix: (Units=1/GPa)
#
#
# Indices 1 2 3 4 5 6 
#
# 1 0.017253 -0.006236 -0.006665 0.000000 0.000000 0.000000
# 2 -0.006236 0.017253 -0.006665 0.000000 0.000000 0.000000
# 3 -0.006665 -0.006665 0.020773 0.000000 0.000000 0.000000
# 4 0.000000 0.000000 0.000000 0.037504 0.000000 0.000000
# 5 0.000000 0.000000 0.000000 0.000000 0.037504 0.000000
# 6 0.000000 0.000000 0.000000 0.000000 0.000000 0.052770
#
#
# Mechanical properties :
#
#
# Convention : Reuss Voigt Hill
#
# Bulk Modulus (GPa) = 61.92362 62.86244 62.39303
# Shear Modulus (GPa) = 21.97101 22.55692 22.26397
#
# Velocity S-wave (km/s) = 3.66283 3.71135 3.68717
# Velocity P-wave (km/s) = 7.46333 7.53337 7.49843
#
# Compressibility (1/GPa) = 0.01614893
#
# Stress axis : x y z
#
# Youngs Moduli (GPa) = 57.95990 57.95974 48.13869
#
# Poissons Ratio (x) = 0.36142 0.32084
# Poissons Ratio (y) = 0.36142 0.32084
# Poissons Ratio (z) = 0.38629 0.38630
#
# Static dielectric constant tensor:
#      x y z
#    x 2.992790 0.000000 0.000000 
#    y 0.000000 2.992790 0.000000 
#    z 0.000000 0.000000 3.052140 
# 
# 
# High freq. dielectric constant tensor:
#      x y z
#    x 1.612340 0.000000 0.000000 
#    y 0.000000 1.612340 0.000000 
#    z 0.000000 0.000000 1.630660 
# 
# From -- ./inp_files/1606.got.cif
#   From: 2010.03.12/outbox.cif.g09.slc.cpg/sg132_1_cif.got.tgz:1606.got - 2010.04.06 17:53:44.
