data_PCOD8316043
_publ_section_title
;
Structure prediction by ZEFSAII (Michael W. Deem and Ramdas Pophale) SiO2 
 PCOD8316043
Probable space group: P 42/M M C
;
_chemical_formula_sum "Si O2"
_cell_formula_units_Z 112
_cell_length_a 22.185437
_cell_length_b 22.185437
_cell_length_c 19.521269
_cell_angle_alpha 90.000000
_cell_angle_beta 90.000000
_cell_angle_gamma 90.000000
_cell_volume 9608.243956
_symmetry_space_group_name_H-M "P 42/M M C"
_symmetry_group_IT_number 131
_symmetry_cell_setting 'tetragonal'
loop_
_space_group_symop_operation_xyz
x,y,z
-x,-y,z
-y,x,1/2+z
y,-x,1/2+z
-x,y,-z
x,-y,-z
y,x,1/2-z
-y,-x,1/2-z
-x,-y,-z
x,y,-z
y,-x,1/2-z
-y,x,1/2-z
x,-y,z
-x,y,z
-y,-x,1/2+z
y,x,1/2+z
loop_
_atom_site_type_symbol
_atom_site_label
_atom_site_fract_x
_atom_site_fract_y
_atom_site_fract_z
Si Si1 0.888991 0.428159 0.832879
Si Si2 0.428379 0.500000 0.919263
Si Si3 0.569213 0.757167 0.309639
Si Si4 0.428148 0.000000 0.422923
Si Si5 0.571902 0.067219 0.812165
Si Si6 0.568793 0.269313 0.844734
Si Si7 0.844491 0.571616 0.425000
Si Si8 0.374496 0.392984 0.828763
O O1 0.889538 0.500000 0.832068
O O2 0.819292 0.406956 0.845760
O O3 0.909387 0.402410 0.759751
O O4 0.938049 0.403999 0.887848
O O5 0.500000 0.500000 0.915000
O O6 0.403913 0.441811 0.878956
O O7 0.408104 0.500000 0.000000
O O8 0.500000 0.746268 0.329433
O O9 0.576722 0.764100 0.228010
O O10 0.604536 0.697984 0.334098
O O11 0.500000 0.000000 0.419714
O O12 0.403680 0.000000 0.500000
O O13 0.500000 0.070592 0.811047
O O14 0.599650 0.106972 0.873202
O O15 0.594967 0.000000 0.824730
O O16 0.500000 0.290389 0.853739
O O17 0.589398 0.222679 0.902566
O O18 0.609880 0.327188 0.855794
O O19 0.856757 0.598659 0.500000
O O20 0.850811 0.500000 0.425009
O O21 0.399286 0.399286 0.750000
#
# Coordination Sequence:
#
# PCOD8316043 Si02
#       8
#    16   8  16   8  16  16  16  16
#     4   9  14  22  38  51  69  90 106 129 157 192
#     4  11  24  36  44  58  76  87 101 141 194 238
#     4   9  15  26  41  56  67  84 112 140 169 205
#     4   9  16  24  34  54  73  85 107 129 150 192
#     4   9  14  21  34  51  68  92 112 126 152 183
#     4   9  16  26  39  55  69  84 113 146 173 209
#     4   9  16  24  34  50  71  92 111 133 160 194
#     4  10  20  31  47  61  69  87 117 146 176 222
#
# _framework density 11.656656999999999
#
# number of rings (size 3 to 8) (size 9 to 14) (size 15 to 20)
#    0.000    2.714    2.857    0.429    2.000    0.857 
#    0.000    3.571    0.000    0.000    0.000    0.000 
#    0.000    0.000    0.000    0.000    0.000    0.000 
#
# Total GULP energy -1387819.296749 kJ/mol
# GULP energy per Si atom -12391.243721 kJ/mol
# Density = 1.163013 g / cm^3
# Si number density = 11.656657 Si / 1000 Ang^3
#
#
#
# Elastic Constant Matrix: (Units=GPa)
#
#
# Indices 1 2 3 4 5 6 
#
# 1 62.7846 26.9981 35.3064 0.0000 0.0000 0.0000
# 2 26.9981 62.7846 35.3064 0.0000 0.0000 0.0000
# 3 35.3064 35.3064 83.5761 0.0000 0.0000 0.0000
# 4 0.0000 0.0000 0.0000 11.9614 0.0000 0.0000
# 5 0.0000 0.0000 0.0000 0.0000 11.9614 0.0000
# 6 0.0000 0.0000 0.0000 0.0000 0.0000 2.4788
#
#
#
# Elastic Compliance Matrix: (Units=1/GPa)
#
#
# Indices 1 2 3 4 5 6 
#
# 1 0.022312 -0.005632 -0.007046 0.000000 0.000000 0.000000
# 2 -0.005632 0.022312 -0.007046 0.000000 0.000000 0.000000
# 3 -0.007046 -0.007046 0.017919 0.000000 0.000000 0.000000
# 4 0.000000 0.000000 0.000000 0.083602 0.000000 0.000000
# 5 0.000000 0.000000 0.000000 0.000000 0.083602 0.000000
# 6 0.000000 0.000000 0.000000 0.000000 0.000000 0.403428
#
#
# Mechanical properties :
#
#
# Convention : Reuss Voigt Hill
#
# Bulk Modulus (GPa) = 43.30335 44.92966 44.11651
# Shear Modulus (GPa) = 7.34947 12.71595 10.03271
#
# Velocity S-wave (km/s) = 2.51369 3.30642 2.93693
# Velocity P-wave (km/s) = 6.75681 7.29414 7.03061
#
# Compressibility (1/GPa) = 0.02309290
#
# Stress axis : x y z
#
# Youngs Moduli (GPa) = 44.81957 44.81957 55.80817
#
# Poissons Ratio (x) = 0.25242 0.39324
# Poissons Ratio (y) = 0.25242 0.39324
# Poissons Ratio (z) = 0.31581 0.31581
#
# Static dielectric constant tensor:
#      x y z
#    x 2.292860 0.000000 0.000000 
#    y 0.000000 2.292860 0.000000 
#    z 0.000000 0.000000 2.581230 
# 
# 
# High freq. dielectric constant tensor:
#      x y z
#    x 1.408030 0.000000 0.000000 
#    y 0.000000 1.408030 0.000000 
#    z 0.000000 0.000000 1.444290 
# 
# From -- ./inp_files/10219.got.cif
#   From: 2010.03.12/outbox.cif.g09.slc.cpg/sg131_6_cif.got.tgz:10219.got - 2010.04.06 17:36:35.
