data_PCOD8316573
_publ_section_title
;
Structure prediction by ZEFSAII (Michael W. Deem and Ramdas Pophale) SiO2 
 PCOD8316573
Probable space group: P 42/M C M
;
_chemical_formula_sum "Si O2"
_cell_formula_units_Z 56
_cell_length_a 12.767604
_cell_length_b 12.767604
_cell_length_c 18.100139
_cell_angle_alpha 90.000000
_cell_angle_beta 90.000000
_cell_angle_gamma 90.000000
_cell_volume 2950.534644
_symmetry_space_group_name_H-M "P 42/M C M"
_symmetry_group_IT_number 132
_symmetry_cell_setting 'tetragonal'
loop_
_space_group_symop_operation_xyz
x,y,z
-y,x,1/2+z
-x,-y,z
y,-x,1/2+z
x,-y,1/2-z
-x,y,1/2-z
y,x,-z
-y,-x,-z
-x,-y,-z
y,-x,1/2-z
x,y,-z
-y,x,1/2-z
-x,y,1/2+z
x,-y,1/2+z
-y,-x,z
y,x,z
loop_
_atom_site_type_symbol
_atom_site_label
_atom_site_fract_x
_atom_site_fract_y
_atom_site_fract_z
Si Si1 0.714762 0.006326 0.837341
Si Si2 0.084805 0.915196 0.080404
Si Si3 0.379581 0.785735 0.660829
Si Si4 0.219237 0.387087 0.336505
O O1 0.660731 0.899488 0.865854
O O2 0.731708 0.000000 0.750000
O O3 0.826029 0.026756 0.873487
O O4 0.642002 0.102652 0.862114
O O5 0.126226 0.873775 0.000000
O O6 0.000000 0.000000 0.062889
O O7 0.301565 0.698436 0.627858
O O8 0.382352 0.778621 0.748640
O O9 0.496531 0.760174 0.631863
O O10 0.306092 0.306092 0.368604
#
# Coordination Sequence:
#
# PCOD8316573 Si02
#       4
#    16   8  16  16
#     4  10  19  32  53  75 101 137 178 215 254 315
#     4  11  24  36  50  78 111 139 169 215 264 307
#     4   9  17  27  44  73 106 135 173 219 266 307
#     4   9  16  28  45  72 103 138 175 217 264 307
#
# _framework density 18.979611999999999
#
# number of rings (size 3 to 8) (size 9 to 14) (size 15 to 20)
#    0.000    2.429    1.429    1.714    4.000    4.000 
#    0.000    2.857    0.000    3.429    0.000    0.000 
#    0.000    1.143    0.000    0.000    0.000    0.000 
#
# Total GULP energy -694046.047910 kJ/mol
# GULP energy per Si atom -12393.679427 kJ/mol
# Density = 1.893641 g / cm^3
# Si number density = 18.979612 Si / 1000 Ang^3
#
#
#
# Elastic Constant Matrix: (Units=GPa)
#
#
# Indices 1 2 3 4 5 6 
#
# 1 176.4708 102.3625 18.3926 0.0000 0.0000 0.0000
# 2 102.3625 176.4708 18.3926 0.0000 0.0000 0.0000
# 3 18.3926 18.3926 18.9190 0.0000 0.0000 0.0000
# 4 0.0000 0.0000 0.0000 7.1993 0.0000 0.0000
# 5 0.0000 0.0000 0.0000 0.0000 7.1994 0.0000
# 6 0.0000 0.0000 0.0000 0.0000 0.0000 28.9148
#
#
#
# Elastic Compliance Matrix: (Units=1/GPa)
#
#
# Indices 1 2 3 4 5 6 
#
# 1 0.008804 -0.004690 -0.004000 0.000000 0.000000 0.000000
# 2 -0.004690 0.008804 -0.004000 0.000000 0.000000 0.000000
# 3 -0.004000 -0.004000 0.060634 0.000000 0.000000 0.000000
# 4 0.000000 0.000000 0.000000 0.138902 0.000000 0.000000
# 5 0.000000 0.000000 0.000000 0.000000 0.138901 0.000000
# 6 0.000000 0.000000 0.000000 0.000000 0.000000 0.034584
#
#
# Mechanical properties :
#
#
# Convention : Reuss Voigt Hill
#
# Bulk Modulus (GPa) = 18.91668 72.23955 45.57811
# Shear Modulus (GPa) = 11.53061 24.17687 17.85374
#
# Velocity S-wave (km/s) = 2.46748 3.57295 3.07038
# Velocity P-wave (km/s) = 4.25516 7.42736 6.05277
#
# Compressibility (1/GPa) = 0.05286341
#
# Stress axis : x y z
#
# Youngs Moduli (GPa) = 113.58616 113.58617 16.49250
#
# Poissons Ratio (x) = 0.53270 0.06596
# Poissons Ratio (y) = 0.53270 0.06596
# Poissons Ratio (z) = 0.45430 0.45430
#
# Static dielectric constant tensor:
#      x y z
#    x 3.757990 0.000000 0.000000 
#    y 0.000000 3.757990 0.000000 
#    z 0.000000 0.000000 2.894280 
# 
# 
# High freq. dielectric constant tensor:
#      x y z
#    x 1.750650 0.000000 0.000000 
#    y 0.000000 1.750650 0.000000 
#    z 0.000000 0.000000 1.665370 
# 
# From -- ./inp_files/7317.got.cif
#   From: 2010.03.12/outbox.cif.g09.slc.cpg/sg132_4_cif.got.tgz:7317.got - 2010.04.06 17:53:44.
