data_PCOD8316121
_publ_section_title
;
Structure prediction by ZEFSAII (Michael W. Deem and Ramdas Pophale) SiO2 
 PCOD8316121
Probable space group: P 42/M M C
;
_chemical_formula_sum "Si O2"
_cell_formula_units_Z 112
_cell_length_a 14.225731
_cell_length_b 14.225731
_cell_length_c 30.542902
_cell_angle_alpha 90.000000
_cell_angle_beta 90.000000
_cell_angle_gamma 90.000000
_cell_volume 6181.010525
_symmetry_space_group_name_H-M "P 42/M M C"
_symmetry_group_IT_number 131
_symmetry_cell_setting 'tetragonal'
loop_
_space_group_symop_operation_xyz
x,y,z
-x,-y,z
-y,x,1/2+z
y,-x,1/2+z
-x,y,-z
x,-y,-z
y,x,1/2-z
-y,-x,1/2-z
-x,-y,-z
x,y,-z
y,-x,1/2-z
-y,x,1/2-z
x,-y,z
-x,y,z
-y,-x,1/2+z
y,x,1/2+z
loop_
_atom_site_type_symbol
_atom_site_label
_atom_site_fract_x
_atom_site_fract_y
_atom_site_fract_z
Si Si1 0.606335 0.605067 0.665249
Si Si2 0.732039 0.107250 0.949419
Si Si3 0.107102 0.245999 0.950381
Si Si4 0.209205 0.609004 0.208567
Si Si5 0.207271 0.391780 0.380317
Si Si6 0.607097 0.889662 0.378047
Si Si7 0.106901 0.612051 0.706689
O O1 0.621761 0.500000 0.684879
O O2 0.500000 0.617217 0.646644
O O3 0.624951 0.678209 0.704810
O O4 0.680079 0.622043 0.625763
O O5 0.835087 0.150698 0.942166
O O6 0.658958 0.171457 0.923469
O O7 0.732192 0.000000 0.932216
O O8 0.701916 0.110929 0.000000
O O9 0.141791 0.330188 0.919244
O O10 0.000000 0.218932 0.940318
O O11 0.120155 0.282385 0.000000
O O12 0.182632 0.500000 0.210230
O O13 0.160884 0.650211 0.164774
O O14 0.166274 0.655327 0.252493
O O15 0.180806 0.500000 0.386357
O O16 0.154561 0.349845 0.337608
O O17 0.500000 0.857295 0.387415
O O18 0.611945 0.000000 0.369679
O O19 0.111277 0.500000 0.707015
O O20 0.000000 0.648358 0.709678
#
# Coordination Sequence:
#
# PCOD8316121 Si02
#       7
#    16  16  16  16  16  16  16
#     4   9  18  32  49  70  99 134 169 202 237 285
#     4  10  21  36  54  75  96 119 153 200 251 302
#     4   9  18  32  49  70  97 128 161 197 239 290
#     4   9  16  27  44  66  94 129 166 201 237 276
#     4  10  20  34  52  73  98 128 160 198 247 298
#     4   9  16  26  44  71 101 132 164 199 239 283
#     4   9  17  29  45  66  93 125 161 200 242 286
#
# _framework density 18.120014000000001
#
# number of rings (size 3 to 8) (size 9 to 14) (size 15 to 20)
#    0.000    2.714    0.000    1.714    0.000    4.000 
#    0.000    5.714    0.000    7.286    0.000    2.000 
#    0.000    0.000    0.000    4.714    0.000    0.286 
#
# Total GULP energy -1388412.094662 kJ/mol
# GULP energy per Si atom -12396.536559 kJ/mol
# Density = 1.807877 g / cm^3
# Si number density = 18.120014 Si / 1000 Ang^3
#
#
#
# Elastic Constant Matrix: (Units=GPa)
#
#
# Indices 1 2 3 4 5 6 
#
# 1 88.5637 36.5292 46.3574 0.0000 0.0000 0.0000
# 2 36.5292 88.5637 46.3574 0.0000 0.0000 0.0000
# 3 46.3574 46.3574 97.6682 0.0000 0.0000 0.0000
# 4 0.0000 0.0000 0.0000 21.5984 0.0000 0.0000
# 5 0.0000 0.0000 0.0000 0.0000 21.5984 0.0000
# 6 0.0000 0.0000 0.0000 0.0000 0.0000 20.2344
#
#
#
# Elastic Compliance Matrix: (Units=1/GPa)
#
#
# Indices 1 2 3 4 5 6 
#
# 1 0.015775 -0.003443 -0.005854 0.000000 0.000000 0.000000
# 2 -0.003443 0.015775 -0.005854 0.000000 0.000000 0.000000
# 3 -0.005854 -0.005854 0.015795 0.000000 0.000000 0.000000
# 4 0.000000 0.000000 0.000000 0.046300 0.000000 0.000000
# 5 0.000000 0.000000 0.000000 0.000000 0.046300 0.000000
# 6 0.000000 0.000000 0.000000 0.000000 0.000000 0.049421
#
#
# Mechanical properties :
#
#
# Convention : Reuss Voigt Hill
#
# Bulk Modulus (GPa) = 58.66367 59.25371 58.95869
# Shear Modulus (GPa) = 22.18793 22.38969 22.28881
#
# Velocity S-wave (km/s) = 3.50308 3.51897 3.51103
# Velocity P-wave (km/s) = 6.98623 7.02015 7.00321
#
# Compressibility (1/GPa) = 0.01704633
#
# Stress axis : x y z
#
# Youngs Moduli (GPa) = 63.39044 63.39044 63.30969
#
# Poissons Ratio (x) = 0.21824 0.37058
# Poissons Ratio (y) = 0.21824 0.37058
# Poissons Ratio (z) = 0.37106 0.37106
#
# Static dielectric constant tensor:
#      x y z
#    x 3.338140 0.000000 0.000000 
#    y 0.000000 3.338140 0.000000 
#    z 0.000000 0.000000 3.357570 
# 
# 
# High freq. dielectric constant tensor:
#      x y z
#    x 1.691440 0.000000 0.000000 
#    y 0.000000 1.691440 0.000000 
#    z 0.000000 0.000000 1.692580 
# 
# From -- ./inp_files/12427.got.cif
#   From: 2010.03.12/outbox.cif.g09.slc.cpg/sg131_7_cif.got.tgz:12427.got - 2010.04.06 17:36:35.
