data_PCOD8316469
_publ_section_title
;
Structure prediction by ZEFSAII (Michael W. Deem and Ramdas Pophale) SiO2 
 PCOD8316469
Probable space group: P 42/M C M
;
_chemical_formula_sum "Si O2"
_cell_formula_units_Z 80
_cell_length_a 16.953988
_cell_length_b 16.953988
_cell_length_c 16.004394
_cell_angle_alpha 90.000000
_cell_angle_beta 90.000000
_cell_angle_gamma 90.000000
_cell_volume 4600.266347
_symmetry_space_group_name_H-M "P 42/M C M"
_symmetry_group_IT_number 132
_symmetry_cell_setting 'tetragonal'
loop_
_space_group_symop_operation_xyz
x,y,z
-y,x,1/2+z
-x,-y,z
y,-x,1/2+z
x,-y,1/2-z
-x,y,1/2-z
y,x,-z
-y,-x,-z
-x,-y,-z
y,-x,1/2-z
x,y,-z
-y,x,1/2-z
-x,y,1/2+z
x,-y,1/2+z
-y,-x,z
y,x,z
loop_
_atom_site_type_symbol
_atom_site_label
_atom_site_fract_x
_atom_site_fract_y
_atom_site_fract_z
Si Si1 0.814661 0.689071 0.401607
Si Si2 0.105818 0.455605 0.662544
Si Si3 0.395396 0.947655 0.594332
Si Si4 0.060615 0.181565 0.599265
Si Si5 0.892668 0.770227 0.900753
O O1 0.818856 0.673206 0.500000
O O2 0.731897 0.731897 0.378414
O O3 0.822377 0.605183 0.353638
O O4 0.887269 0.743783 0.372004
O O5 0.114658 0.500000 0.750000
O O6 0.106469 0.526259 0.594316
O O7 0.023051 0.408209 0.654365
O O8 0.378041 0.977621 0.500000
O O9 0.321404 0.895422 0.627307
O O10 0.059694 0.180677 0.500000
O O11 0.100995 0.100995 0.632751
O O12 0.972033 0.188110 0.634326
O O13 0.816373 0.816373 0.863066
O O14 0.889779 0.776121 0.000000
#
# Coordination Sequence:
#
# PCOD8316469 Si02
#       5
#    16  16  16  16  16
#     4   9  16  29  50  73  98 130 167 201 239 293
#     4  11  20  30  46  71  97 122 157 206 254 304
#     4  10  18  30  47  65  93 132 169 203 246 296
#     4   8  13  22  38  61  90 124 163 204 237 268
#     4   9  16  25  39  62  92 125 164 206 242 277
#
# _framework density 17.390298999999999
#
# number of rings (size 3 to 8) (size 9 to 14) (size 15 to 20)
#    0.000    2.600    2.000    4.800    0.000    0.400 
#    0.000    3.000    0.000    0.000    0.000    0.000 
#    0.000    2.800    0.000   14.200    0.000    0.000 
#
# Total GULP energy -991045.204573 kJ/mol
# GULP energy per Si atom -12388.065057 kJ/mol
# Density = 1.735072 g / cm^3
# Si number density = 17.390299 Si / 1000 Ang^3
#
#
#
# Elastic Constant Matrix: (Units=GPa)
#
#
# Indices 1 2 3 4 5 6 
#
# 1 128.0788 75.1846 20.8587 0.0000 0.0000 0.0000
# 2 75.1846 128.0788 20.8587 0.0000 0.0000 0.0000
# 3 20.8587 20.8587 39.0542 0.0000 0.0000 0.0000
# 4 0.0000 0.0000 0.0000 13.0357 0.0000 0.0000
# 5 0.0000 0.0000 0.0000 0.0000 13.0357 0.0000
# 6 0.0000 0.0000 0.0000 0.0000 0.0000 26.8097
#
#
#
# Elastic Compliance Matrix: (Units=1/GPa)
#
#
# Indices 1 2 3 4 5 6 
#
# 1 0.012216 -0.006690 -0.002951 0.000000 0.000000 0.000000
# 2 -0.006690 0.012216 -0.002951 0.000000 0.000000 0.000000
# 3 -0.002951 -0.002951 0.028758 0.000000 0.000000 0.000000
# 4 0.000000 0.000000 0.000000 0.076712 0.000000 0.000000
# 5 0.000000 0.000000 0.000000 0.000000 0.076712 0.000000
# 6 0.000000 0.000000 0.000000 0.000000 0.000000 0.037300
#
#
# Mechanical properties :
#
#
# Convention : Reuss Voigt Hill
#
# Bulk Modulus (GPa) = 35.70894 58.77954 47.24424
# Shear Modulus (GPa) = 17.95764 22.46355 20.21059
#
# Velocity S-wave (km/s) = 3.21693 3.59796 3.41277
# Velocity P-wave (km/s) = 5.86316 7.15080 6.53875
#
# Compressibility (1/GPa) = 0.02800419
#
# Stress axis : x y z
#
# Youngs Moduli (GPa) = 81.86307 81.86307 34.77320
#
# Poissons Ratio (x) = 0.54767 0.10262
# Poissons Ratio (y) = 0.54767 0.10262
# Poissons Ratio (z) = 0.24159 0.24159
#
# Static dielectric constant tensor:
#      x y z
#    x 3.464790 0.000000 0.000000 
#    y 0.000000 3.464790 0.000000 
#    z 0.000000 0.000000 2.935580 
# 
# 
# High freq. dielectric constant tensor:
#      x y z
#    x 1.651290 0.000000 0.000000 
#    y 0.000000 1.651290 0.000000 
#    z 0.000000 0.000000 1.643390 
# 
# From -- ./inp_files/4632.got.cif
#   From: 2010.03.12/outbox.cif.g09.slc.cpg/sg132_3_cif.got.tgz:4632.got - 2010.04.06 17:53:44.
