data_PCOD8316549
_publ_section_title
;
Structure prediction by ZEFSAII (Michael W. Deem and Ramdas Pophale) SiO2 
 PCOD8316549
Probable space group: P 42/M C M
;
_chemical_formula_sum "Si O2"
_cell_formula_units_Z 64
_cell_length_a 10.294046
_cell_length_b 10.294046
_cell_length_c 31.251846
_cell_angle_alpha 90.000000
_cell_angle_beta 90.000000
_cell_angle_gamma 90.000000
_cell_volume 3311.676336
_symmetry_space_group_name_H-M "P 42/M C M"
_symmetry_group_IT_number 132
_symmetry_cell_setting 'tetragonal'
loop_
_space_group_symop_operation_xyz
x,y,z
-y,x,1/2+z
-x,-y,z
y,-x,1/2+z
x,-y,1/2-z
-x,y,1/2-z
y,x,-z
-y,-x,-z
-x,-y,-z
y,-x,1/2-z
x,y,-z
-y,x,1/2-z
-x,y,1/2+z
x,-y,1/2+z
-y,-x,z
y,x,z
loop_
_atom_site_type_symbol
_atom_site_label
_atom_site_fract_x
_atom_site_fract_y
_atom_site_fract_z
Si Si1 0.203208 0.999026 0.588482
Si Si2 0.506849 0.287929 0.296611
Si Si3 0.602766 0.813558 0.378373
Si Si4 0.394042 0.814679 0.548052
O O1 0.111332 0.111332 0.567689
O O2 0.296771 0.065706 0.623833
O O3 0.291128 0.932678 0.552117
O O4 0.111437 0.888564 0.610503
O O5 0.500000 0.217915 0.250000
O O6 0.647918 0.352083 0.304991
O O7 0.399600 0.399600 0.296206
O O8 0.479167 0.184950 0.334384
O O9 0.677202 0.677202 0.383824
O O10 0.510348 0.832070 0.418949
O O11 0.450636 0.818833 0.500000
O O12 0.322173 0.677828 0.556773
#
# Coordination Sequence:
#
# PCOD8316549 Si02
#       4
#    16  16  16  16
#     4   9  19  35  52  70  95 130 173 217 253 286
#     4   8  14  26  46  74 106 134 160 195 242 298
#     4  10  19  31  51  78 106 135 165 201 250 305
#     4  10  21  35  51  73 101 133 168 207 253 304
#
# _framework density 19.325561
#
# number of rings (size 3 to 8) (size 9 to 14) (size 15 to 20)
#    0.000    2.750    0.000    2.250    0.000    4.500 
#    0.000    6.250    0.000    3.000    0.000    5.250 
#    0.000   14.000    0.000    0.000    0.000    0.000 
#
# Total GULP energy -793018.423185 kJ/mol
# GULP energy per Si atom -12390.912862 kJ/mol
# Density = 1.928158 g / cm^3
# Si number density = 19.325561 Si / 1000 Ang^3
#
#
#
# Elastic Constant Matrix: (Units=GPa)
#
#
# Indices 1 2 3 4 5 6 
#
# 1 86.7574 42.6634 59.5094 0.0000 0.0000 0.0000
# 2 42.6634 86.7574 59.5094 0.0000 0.0000 0.0000
# 3 59.5094 59.5094 150.1378 0.0000 0.0000 0.0000
# 4 0.0000 0.0000 0.0000 13.9692 0.0000 0.0000
# 5 0.0000 0.0000 0.0000 0.0000 13.9692 0.0000
# 6 0.0000 0.0000 0.0000 0.0000 0.0000 29.1186
#
#
#
# Elastic Compliance Matrix: (Units=1/GPa)
#
#
# Indices 1 2 3 4 5 6 
#
# 1 0.017419 -0.005260 -0.004819 0.000000 0.000000 0.000000
# 2 -0.005260 0.017419 -0.004819 0.000000 0.000000 0.000000
# 3 -0.004819 -0.004819 0.010481 0.000000 0.000000 0.000000
# 4 0.000000 0.000000 0.000000 0.071586 0.000000 0.000000
# 5 0.000000 0.000000 0.000000 0.000000 0.071586 0.000000
# 6 0.000000 0.000000 0.000000 0.000000 0.000000 0.034342
#
#
# Mechanical properties :
#
#
# Convention : Reuss Voigt Hill
#
# Bulk Modulus (GPa) = 64.42811 71.89077 68.15944
# Shear Modulus (GPa) = 19.39461 22.20944 20.80203
#
# Velocity S-wave (km/s) = 3.17136 3.39370 3.28441
# Velocity P-wave (km/s) = 6.84256 7.25513 7.05186
#
# Compressibility (1/GPa) = 0.01552118
#
# Stress axis : x y z
#
# Youngs Moduli (GPa) = 57.40944 57.40944 95.41138
#
# Poissons Ratio (x) = 0.30198 0.45981
# Poissons Ratio (y) = 0.30198 0.45981
# Poissons Ratio (z) = 0.27667 0.27667
#
# Static dielectric constant tensor:
#      x y z
#    x 3.645380 0.000000 0.000000 
#    y 0.000000 3.645380 0.000000 
#    z 0.000000 0.000000 3.481650 
# 
# 
# High freq. dielectric constant tensor:
#      x y z
#    x 1.748490 0.000000 0.000000 
#    y 0.000000 1.748490 0.000000 
#    z 0.000000 0.000000 1.722510 
# 
# From -- ./inp_files/8716.got.cif
#   From: 2010.03.12/outbox.cif.g09.slc.cpg/sg132_5_cif.got.tgz:8716.got - 2010.04.06 17:53:44.
