data_PCOD8316452
_publ_section_title
;
Structure prediction by ZEFSAII (Michael W. Deem and Ramdas Pophale) SiO2 
 PCOD8316452
Probable space group: P 42/M C M
;
_chemical_formula_sum "Si O2"
_cell_formula_units_Z 96
_cell_length_a 17.323676
_cell_length_b 17.323676
_cell_length_c 18.789367
_cell_angle_alpha 90.000000
_cell_angle_beta 90.000000
_cell_angle_gamma 90.000000
_cell_volume 5638.872236
_symmetry_space_group_name_H-M "P 42/M C M"
_symmetry_group_IT_number 132
_symmetry_cell_setting 'tetragonal'
loop_
_space_group_symop_operation_xyz
x,y,z
-y,x,1/2+z
-x,-y,z
y,-x,1/2+z
x,-y,1/2-z
-x,y,1/2-z
y,x,-z
-y,-x,-z
-x,-y,-z
y,-x,1/2-z
x,y,-z
-y,x,1/2-z
-x,y,1/2+z
x,-y,1/2+z
-y,-x,z
y,x,z
loop_
_atom_site_type_symbol
_atom_site_label
_atom_site_fract_x
_atom_site_fract_y
_atom_site_fract_z
Si Si1 0.999890 0.878983 0.915335
Si Si2 0.775660 0.486354 0.915773
Si Si3 0.935188 0.441468 0.584681
Si Si4 0.497771 0.375113 0.331908
Si Si5 0.290469 0.018558 0.415085
Si Si6 0.313550 0.809285 0.084416
O O1 0.927944 0.927944 0.885370
O O2 0.992031 0.792588 0.885059
O O3 0.997486 0.877231 0.000000
O O4 0.080251 0.919750 0.891381
O O5 0.850336 0.534170 0.887541
O O6 0.698575 0.517950 0.879769
O O7 0.781474 0.397630 0.892004
O O8 0.767970 0.495197 0.000000
O O9 0.935066 0.445501 0.500000
O O10 0.000000 0.500000 0.614306
O O11 0.958654 0.355829 0.611992
O O12 0.500000 0.349513 0.250000
O O13 0.563675 0.436326 0.348546
O O14 0.414866 0.414866 0.350147
O O15 0.292057 0.020752 0.500000
O O16 0.303734 0.104554 0.385024
O O17 0.248489 0.751512 0.116158
O O18 0.306421 0.810806 0.000000
#
# Coordination Sequence:
#
# PCOD8316452 Si02
#       6
#    16  16  16  16  16  16
#     4   8  13  20  29  42  63  95 136 179 217 250
#     4  10  18  28  45  70  96 119 149 190 232 268
#     4   9  15  25  38  56  85 123 153 174 214 271
#     4   9  19  36  54  69  89 121 156 187 228 285
#     4   9  14  21  33  49  73 109 147 176 211 262
#     4   9  15  21  33  57  85 109 140 185 228 263
#
# _framework density 17.024681000000001
#
# number of rings (size 3 to 8) (size 9 to 14) (size 15 to 20)
#    0.000    3.000    1.667    2.000    0.000    3.333 
#    0.000    1.667    0.000    3.500    0.000    0.000 
#    0.000    0.000    0.000    0.000    0.000    0.167 
#
# Total GULP energy -1189682.977834 kJ/mol
# GULP energy per Si atom -12392.531019 kJ/mol
# Density = 1.698593 g / cm^3
# Si number density = 17.024681 Si / 1000 Ang^3
#
#
#
# Elastic Constant Matrix: (Units=GPa)
#
#
# Indices 1 2 3 4 5 6 
#
# 1 136.1544 68.5439 21.8026 0.0000 0.0000 0.0000
# 2 68.5439 136.1544 21.8026 0.0000 0.0000 0.0000
# 3 21.8026 21.8026 13.5278 0.0000 0.0000 0.0000
# 4 0.0000 0.0000 0.0000 7.5694 0.0000 0.0000
# 5 0.0000 0.0000 0.0000 0.0000 7.5694 0.0000
# 6 0.0000 0.0000 0.0000 0.0000 0.0000 30.2065
#
#
#
# Elastic Compliance Matrix: (Units=1/GPa)
#
#
# Indices 1 2 3 4 5 6 
#
# 1 0.011115 -0.003676 -0.011990 0.000000 0.000000 0.000000
# 2 -0.003676 0.011115 -0.011990 0.000000 0.000000 0.000000
# 3 -0.011990 -0.011990 0.112570 0.000000 0.000000 0.000000
# 4 0.000000 0.000000 0.000000 0.132111 0.000000 0.000000
# 5 0.000000 0.000000 0.000000 0.000000 0.132111 0.000000
# 6 0.000000 0.000000 0.000000 0.000000 0.000000 0.033105
#
#
# Mechanical properties :
#
#
# Convention : Reuss Voigt Hill
#
# Bulk Modulus (GPa) = 12.58041 56.68165 34.63103
# Shear Modulus (GPa) = 9.72889 20.64822 15.18855
#
# Velocity S-wave (km/s) = 2.39311 3.48636 2.99013
# Velocity P-wave (km/s) = 3.87834 7.04077 5.68392
#
# Compressibility (1/GPa) = 0.07948864
#
# Stress axis : x y z
#
# Youngs Moduli (GPa) = 89.96865 89.96865 8.88340
#
# Poissons Ratio (x) = 0.33069 0.10651
# Poissons Ratio (y) = 0.33069 0.10651
# Poissons Ratio (z) = 1.07871 1.07871
#
# Static dielectric constant tensor:
#      x y z
#    x 3.405050 0.000000 0.000000 
#    y 0.000000 3.405050 0.000000 
#    z 0.000000 0.000000 2.423360 
# 
# 
# High freq. dielectric constant tensor:
#      x y z
#    x 1.665720 0.000000 0.000000 
#    y 0.000000 1.665720 0.000000 
#    z 0.000000 0.000000 1.570850 
# 
# From -- ./inp_files/6483.got.cif
#   From: 2010.03.12/outbox.cif.g09.slc.cpg/sg132_4_cif.got.tgz:6483.got - 2010.04.06 17:53:44.
