data_PCOD8316157
_publ_section_title
;
Structure prediction by ZEFSAII (Michael W. Deem and Ramdas Pophale) SiO2 
 PCOD8316157
Probable space group: P 42/M M C
;
_chemical_formula_sum "Si O2"
_cell_formula_units_Z 72
_cell_length_a 20.518116
_cell_length_b 20.518116
_cell_length_c 8.898989
_cell_angle_alpha 90.000000
_cell_angle_beta 90.000000
_cell_angle_gamma 90.000000
_cell_volume 3746.412825
_symmetry_space_group_name_H-M "P 42/M M C"
_symmetry_group_IT_number 131
_symmetry_cell_setting 'tetragonal'
loop_
_space_group_symop_operation_xyz
x,y,z
-x,-y,z
-y,x,1/2+z
y,-x,1/2+z
-x,y,-z
x,-y,-z
y,x,1/2-z
-y,-x,1/2-z
-x,-y,-z
x,y,-z
y,-x,1/2-z
-y,x,1/2-z
x,-y,z
-x,y,z
-y,-x,1/2+z
y,x,1/2+z
loop_
_atom_site_type_symbol
_atom_site_label
_atom_site_fract_x
_atom_site_fract_y
_atom_site_fract_z
Si Si1 0.500000 0.923614 0.321831
Si Si2 0.834228 0.072796 0.322743
Si Si3 0.426038 0.675119 0.823938
Si Si4 0.742342 0.170494 0.830827
Si Si5 0.177145 0.408321 0.669174
O O1 0.500000 0.924591 0.500000
O O2 0.438428 0.881779 0.265123
O O3 0.500000 0.000000 0.264131
O O4 0.900258 0.099743 0.250000
O O5 0.839131 0.077966 0.500000
O O6 0.772329 0.112156 0.264243
O O7 0.824567 0.000000 0.266357
O O8 0.373967 0.626034 0.750000
O O9 0.500000 0.650597 0.790966
O O10 0.420317 0.749993 0.763445
O O11 0.410308 0.675210 0.000000
O O12 0.761551 0.238450 0.750000
O O13 0.666599 0.161240 0.831077
O O14 0.770612 0.170031 0.000000
O O15 0.175028 0.436982 0.500000
#
# Coordination Sequence:
#
# PCOD8316157 Si02
#       5
#     8  16  16  16  16
#     4  11  25  41  59  87 118 149 190 241 291 342
#     4  10  21  36  54  77 108 145 183 230 285 340
#     4  10  21  38  60  86 120 158 199 247 295 349
#     4  10  20  34  57  85 112 145 185 232 282 335
#     4  10  21  40  62  84 115 154 195 238 287 347
#
# _framework density 19.218384
#
# number of rings (size 3 to 8) (size 9 to 14) (size 15 to 20)
#    0.000    1.889    1.111    3.667    0.000    7.111 
#    0.000    6.667    0.000    0.000    0.000    0.000 
#    0.000    0.000    0.000    0.000    0.000    0.000 
#
# Total GULP energy -892346.532182 kJ/mol
# GULP energy per Si atom -12393.701836 kJ/mol
# Density = 1.917464 g / cm^3
# Si number density = 19.218384 Si / 1000 Ang^3
#
#
#
# Elastic Constant Matrix: (Units=GPa)
#
#
# Indices 1 2 3 4 5 6 
#
# 1 132.5307 47.2766 43.4072 0.0000 0.0000 0.0000
# 2 47.2766 132.5279 43.4065 0.0000 0.0000 0.0000
# 3 43.4072 43.4065 76.8482 0.0000 0.0000 0.0000
# 4 0.0000 0.0000 0.0000 54.1174 0.0000 0.0000
# 5 0.0000 0.0000 0.0000 0.0000 54.1215 0.0000
# 6 0.0000 0.0000 0.0000 0.0000 0.0000 7.0667
#
#
#
# Elastic Compliance Matrix: (Units=1/GPa)
#
#
# Indices 1 2 3 4 5 6 
#
# 1 0.009688 -0.002041 -0.004319 0.000000 0.000000 0.000000
# 2 -0.002041 0.009689 -0.004319 0.000000 0.000000 0.000000
# 3 -0.004319 -0.004319 0.017892 0.000000 0.000000 0.000000
# 4 0.000000 0.000000 0.000000 0.018478 0.000000 0.000000
# 5 0.000000 0.000000 0.000000 0.000000 0.018477 0.000000
# 6 0.000000 0.000000 0.000000 0.000000 0.000000 0.141508
#
#
# Mechanical properties :
#
#
# Convention : Reuss Voigt Hill
#
# Bulk Modulus (GPa) = 62.85819 67.78747 65.32283
# Shear Modulus (GPa) = 20.62743 36.91557 28.77150
#
# Velocity S-wave (km/s) = 3.27971 4.38750 3.87341
# Velocity P-wave (km/s) = 6.86442 7.81125 7.35309
#
# Compressibility (1/GPa) = 0.01590883
#
# Stress axis : x y z
#
# Youngs Moduli (GPa) = 103.21706 103.21512 55.89058
#
# Poissons Ratio (x) = 0.21070 0.24141
# Poissons Ratio (y) = 0.21071 0.24141
# Poissons Ratio (z) = 0.44583 0.44582
#
# Static dielectric constant tensor:
#      x y z
#    x 3.568940 0.000000 0.000000 
#    y 0.000000 3.568960 0.000000 
#    z 0.000000 0.000000 3.646660 
# 
# 
# High freq. dielectric constant tensor:
#      x y z
#    x 1.755070 0.000000 0.000000 
#    y 0.000000 1.755070 0.000000 
#    z 0.000000 0.000000 1.746950 
# 
# From -- ./inp_files/1794.got.cif
#   From: 2010.03.12/outbox.cif.g09.slc.cpg/sg131_1_cif.got.tgz:1794.got - 2010.04.06 17:36:35.
