data_PCOD8316763
_publ_section_title
;
Structure prediction by ZEFSAII (Michael W. Deem and Ramdas Pophale) SiO2 
 PCOD8316763
Probable space group: P 42/M C M
;
_chemical_formula_sum "Si O2"
_cell_formula_units_Z 120
_cell_length_a 21.656923
_cell_length_b 21.656923
_cell_length_c 14.917331
_cell_angle_alpha 90.000000
_cell_angle_beta 90.000000
_cell_angle_gamma 90.000000
_cell_volume 6996.561102
_symmetry_space_group_name_H-M "P 42/M C M"
_symmetry_group_IT_number 132
_symmetry_cell_setting 'tetragonal'
loop_
_space_group_symop_operation_xyz
x,y,z
-y,x,1/2+z
-x,-y,z
y,-x,1/2+z
x,-y,1/2-z
-x,y,1/2-z
y,x,-z
-y,-x,-z
-x,-y,-z
y,-x,1/2-z
x,y,-z
-y,x,1/2-z
-x,y,1/2+z
x,-y,1/2+z
-y,-x,z
y,x,z
loop_
_atom_site_type_symbol
_atom_site_label
_atom_site_fract_x
_atom_site_fract_y
_atom_site_fract_z
Si Si1 0.904252 0.437982 0.897541
Si Si2 0.483983 0.316515 0.893462
Si Si3 0.575288 0.906632 0.099013
Si Si4 0.619830 0.226507 0.399828
Si Si5 0.933940 0.337925 0.758586
Si Si6 0.548694 0.451307 0.606985
Si Si7 0.403863 0.765898 0.104207
Si Si8 0.200909 0.701946 0.764063
O O1 0.927580 0.506550 0.871842
O O2 0.939582 0.388256 0.837434
O O3 0.831230 0.436644 0.880552
O O4 0.919957 0.422152 0.000000
O O5 0.423614 0.280019 0.860100
O O6 0.474465 0.385390 0.855949
O O7 0.548669 0.286724 0.859385
O O8 0.485917 0.313408 0.000000
O O9 0.575845 0.832731 0.096955
O O10 0.627084 0.929944 0.165070
O O11 0.590116 0.933118 0.000000
O O12 0.644843 0.242056 0.500000
O O13 0.677926 0.217184 0.334999
O O14 0.874040 0.294436 0.775512
O O15 0.000000 0.301348 0.750000
O O16 0.500000 0.500000 0.643676
O O17 0.551229 0.448772 0.500000
O O18 0.341420 0.766282 0.162248
O O19 0.386384 0.754874 0.000000
O O20 0.229350 0.770651 0.774911
#
# Coordination Sequence:
#
# PCOD8316763 Si02
#       8
#    16  16  16  16  16   8  16  16
#     4   9  16  28  46  69  96 123 155 192 225 262
#     4   9  16  28  47  65  83 115 153 190 240 296
#     4   9  16  28  46  68  95 123 155 192 222 260
#     4   9  17  30  49  71  92 117 152 192 237 276
#     4  10  21  34  47  66  96 128 154 183 226 276
#     4   9  18  28  38  60  86 106 141 195 245 293
#     4   9  17  31  50  70  92 119 153 194 240 280
#     4  10  22  35  50  74  95 117 153 194 230 274
#
# _framework density 17.151284
#
# number of rings (size 3 to 8) (size 9 to 14) (size 15 to 20)
#    0.000    2.733    1.333    0.400    0.933    3.200 
#    0.000    2.667    0.000    0.000    0.000    0.000 
#    0.000    0.267    0.000    0.000    0.000    0.000 
#
# Total GULP energy -1487081.650234 kJ/mol
# GULP energy per Si atom -12392.347085 kJ/mol
# Density = 1.711225 g / cm^3
# Si number density = 17.151284 Si / 1000 Ang^3
#
#
#
# Elastic Constant Matrix: (Units=GPa)
#
#
# Indices 1 2 3 4 5 6 
#
# 1 91.1688 40.7320 9.2166 0.0000 0.0000 0.0000
# 2 40.7320 91.1688 9.2166 0.0000 0.0000 0.0000
# 3 9.2166 9.2166 51.2752 0.0000 0.0000 0.0000
# 4 0.0000 0.0000 0.0000 8.4817 0.0000 0.0000
# 5 0.0000 0.0000 0.0000 0.0000 8.4817 0.0000
# 6 0.0000 0.0000 0.0000 0.0000 0.0000 8.7010
#
#
#
# Elastic Compliance Matrix: (Units=1/GPa)
#
#
# Indices 1 2 3 4 5 6 
#
# 1 0.013802 -0.006025 -0.001398 0.000000 0.000000 0.000000
# 2 -0.006025 0.013802 -0.001398 0.000000 0.000000 0.000000
# 3 -0.001398 -0.001398 0.020005 0.000000 0.000000 0.000000
# 4 0.000000 0.000000 0.000000 0.117901 0.000000 0.000000
# 5 0.000000 0.000000 0.000000 0.000000 0.117901 0.000000
# 6 0.000000 0.000000 0.000000 0.000000 0.000000 0.114930
#
#
# Mechanical properties :
#
#
# Convention : Reuss Voigt Hill
#
# Bulk Modulus (GPa) = 33.36970 39.10479 36.23725
# Shear Modulus (GPa) = 11.73787 16.76270 14.25029
#
# Velocity S-wave (km/s) = 2.61889 3.12964 2.88559
# Velocity P-wave (km/s) = 5.35193 5.99241 5.68120
#
# Compressibility (1/GPa) = 0.02996730
#
# Stress axis : x y z
#
# Youngs Moduli (GPa) = 72.45426 72.45429 49.98719
#
# Poissons Ratio (x) = 0.43654 0.06987
# Poissons Ratio (y) = 0.43654 0.06987
# Poissons Ratio (z) = 0.10128 0.10128
#
# Static dielectric constant tensor:
#      x y z
#    x 3.061190 0.000000 0.000000 
#    y 0.000000 3.061190 0.000000 
#    z 0.000000 0.000000 3.294980 
# 
# 
# High freq. dielectric constant tensor:
#      x y z
#    x 1.628640 0.000000 0.000000 
#    y 0.000000 1.628640 0.000000 
#    z 0.000000 0.000000 1.669230 
# 
# From -- ./inp_files/5149.got.cif
#   From: 2010.03.12/outbox.cif.g09.slc.cpg/sg132_3_cif.got.tgz:5149.got - 2010.04.06 17:53:44.
