data_PCOD8316020
_publ_section_title
;
Structure prediction by ZEFSAII (Michael W. Deem and Ramdas Pophale) SiO2 
 PCOD8316020
Probable space group: P 42/M M C
;
_chemical_formula_sum "Si O2"
_cell_formula_units_Z 72
_cell_length_a 20.536234
_cell_length_b 20.536234
_cell_length_c 8.960545
_cell_angle_alpha 90.000000
_cell_angle_beta 90.000000
_cell_angle_gamma 90.000000
_cell_volume 3778.992532
_symmetry_space_group_name_H-M "P 42/M M C"
_symmetry_group_IT_number 131
_symmetry_cell_setting 'tetragonal'
loop_
_space_group_symop_operation_xyz
x,y,z
-x,-y,z
-y,x,1/2+z
y,-x,1/2+z
-x,y,-z
x,-y,-z
y,x,1/2-z
-y,-x,1/2-z
-x,-y,-z
x,y,-z
y,-x,1/2-z
-y,x,1/2-z
x,-y,z
-x,y,z
-y,-x,1/2+z
y,x,1/2+z
loop_
_atom_site_type_symbol
_atom_site_label
_atom_site_fract_x
_atom_site_fract_y
_atom_site_fract_z
Si Si1 0.893948 0.679862 0.825651
Si Si2 0.574318 0.000000 0.674822
Si Si3 0.669131 0.575620 0.829613
Si Si4 0.072574 0.828177 0.173877
Si Si5 0.760876 0.663303 0.324623
O O1 0.938931 0.618910 0.778726
O O2 0.923775 0.750941 0.791371
O O3 0.835041 0.671989 0.714192
O O4 0.874465 0.675129 0.000000
O O5 0.500000 0.000000 0.746043
O O6 0.564709 0.000000 0.500000
O O7 0.607615 0.607615 0.750000
O O8 0.659006 0.500000 0.818705
O O9 0.735115 0.595477 0.744052
O O10 0.673386 0.599822 0.000000
O O11 0.129193 0.870808 0.250000
O O12 0.000000 0.851033 0.225117
O O13 0.081782 0.840225 0.000000
O O14 0.721894 0.721894 0.250000
O O15 0.750368 0.664476 0.500000
#
# Coordination Sequence:
#
# PCOD8316020 Si02
#       5
#    16   8  16  16  16
#     4  10  19  36  59  83 115 150 189 238 287 343
#     4   9  18  34  59  87 112 147 192 234 279 337
#     4  10  21  37  57  81 110 146 188 233 283 342
#     4  10  21  37  57  82 113 151 192 239 293 344
#     4  11  22  36  56  83 113 147 187 235 286 336
#
# _framework density 19.052696999999998
#
# number of rings (size 3 to 8) (size 9 to 14) (size 15 to 20)
#    0.000    1.889    1.111    4.667    0.000    6.222 
#    0.000    5.000    0.000    0.667    0.000    0.000 
#    0.000    0.000    0.000    0.000    0.000    0.000 
#
# Total GULP energy -892328.603306 kJ/mol
# GULP energy per Si atom -12393.452824 kJ/mol
# Density = 1.900933 g / cm^3
# Si number density = 19.052697 Si / 1000 Ang^3
#
#
#
# Elastic Constant Matrix: (Units=GPa)
#
#
# Indices 1 2 3 4 5 6 
#
# 1 117.2247 37.5670 54.2895 0.0000 0.0000 0.0000
# 2 37.5670 117.2279 54.2912 0.0000 0.0000 0.0000
# 3 54.2895 54.2912 118.9029 0.0000 0.0000 0.0000
# 4 0.0000 0.0000 0.0000 27.5520 0.0000 0.0000
# 5 0.0000 0.0000 0.0000 0.0000 27.5518 0.0000
# 6 0.0000 0.0000 0.0000 0.0000 0.0000 1.3215
#
#
#
# Elastic Compliance Matrix: (Units=1/GPa)
#
#
# Indices 1 2 3 4 5 6 
#
# 1 0.011029 -0.001525 -0.004340 0.000000 0.000000 0.000000
# 2 -0.001525 0.011029 -0.004340 0.000000 0.000000 0.000000
# 3 -0.004340 -0.004340 0.012373 0.000000 0.000000 0.000000
# 4 0.000000 0.000000 0.000000 0.036295 0.000000 0.000000
# 5 0.000000 0.000000 0.000000 0.000000 0.036295 0.000000
# 6 0.000000 0.000000 0.000000 0.000000 0.000000 0.756718
#
#
# Mechanical properties :
#
#
# Convention : Reuss Voigt Hill
#
# Bulk Modulus (GPa) = 71.31015 71.73899 71.52457
# Shear Modulus (GPa) = 5.62543 25.09892 15.36217
#
# Velocity S-wave (km/s) = 1.72017 3.63346 2.84262
# Velocity P-wave (km/s) = 6.43851 7.43891 6.95671
#
# Compressibility (1/GPa) = 0.01402325
#
# Stress axis : x y z
#
# Youngs Moduli (GPa) = 90.67041 90.67204 80.82064
#
# Poissons Ratio (x) = 0.13824 0.35072
# Poissons Ratio (y) = 0.13824 0.35073
# Poissons Ratio (z) = 0.39347 0.39348
#
# Static dielectric constant tensor:
#      x y z
#    x 3.655800 0.000000 0.000000 
#    y 0.000000 3.655800 0.000000 
#    z 0.000000 0.000000 3.456300 
# 
# 
# High freq. dielectric constant tensor:
#      x y z
#    x 1.746790 0.000000 0.000000 
#    y 0.000000 1.746790 0.000000 
#    z 0.000000 0.000000 1.730790 
# 
# From -- ./inp_files/1759.got.cif
#   From: 2010.03.12/outbox.cif.g09.slc.cpg/sg131_1_cif.got.tgz:1759.got - 2010.04.06 17:36:35.
