data_PCOD8316782
_publ_section_title
;
Structure prediction by ZEFSAII (Michael W. Deem and Ramdas Pophale) SiO2 
 PCOD8316782
Probable space group: P 42/M C M
;
_chemical_formula_sum "Si O2"
_cell_formula_units_Z 128
_cell_length_a 16.872340
_cell_length_b 16.872340
_cell_length_c 24.603747
_cell_angle_alpha 90.000000
_cell_angle_beta 90.000000
_cell_angle_gamma 90.000000
_cell_volume 7004.092764
_symmetry_space_group_name_H-M "P 42/M C M"
_symmetry_group_IT_number 132
_symmetry_cell_setting 'tetragonal'
loop_
_space_group_symop_operation_xyz
x,y,z
-y,x,1/2+z
-x,-y,z
y,-x,1/2+z
x,-y,1/2-z
-x,y,1/2-z
y,x,-z
-y,-x,-z
-x,-y,-z
y,-x,1/2-z
x,y,-z
-y,x,1/2-z
-x,y,1/2+z
x,-y,1/2+z
-y,-x,z
y,x,z
loop_
_atom_site_type_symbol
_atom_site_label
_atom_site_fract_x
_atom_site_fract_y
_atom_site_fract_z
Si Si1 0.176106 0.303919 0.216516
Si Si2 0.056290 0.634298 0.205770
Si Si3 0.289385 0.580359 0.773801
Si Si4 0.553913 0.076815 0.562456
Si Si5 0.448122 0.830821 0.136150
Si Si6 0.943875 0.289108 0.622012
Si Si7 0.168270 0.958959 0.061791
Si Si8 0.700845 0.175069 0.060926
O O1 0.227756 0.227756 0.227400
O O2 0.110636 0.301582 0.263326
O O3 0.228167 0.383771 0.228419
O O4 0.138602 0.295410 0.156004
O O5 0.101225 0.558710 0.181591
O O6 0.000000 0.593915 0.250000
O O7 0.014570 0.687159 0.161055
O O8 0.326083 0.500000 0.750000
O O9 0.359018 0.640983 0.786790
O O10 0.252014 0.555227 0.832139
O O11 0.543638 0.101490 0.500000
O O12 0.526317 0.151180 0.600375
O O13 0.646423 0.060181 0.573455
O O14 0.500000 0.000000 0.576115
O O15 0.372221 0.841012 0.098714
O O16 0.965461 0.200467 0.597853
O O17 0.087253 0.912747 0.082640
O O18 0.240270 0.898294 0.062747
O O19 0.152480 0.988006 0.000000
O O20 0.745987 0.254014 0.080640
O O21 0.668711 0.186592 0.000000
#
# Coordination Sequence:
#
# PCOD8316782 Si02
#       8
#    16  16  16  16  16  16  16  16
#     4   9  20  35  52  74 102 131 169 217 264 313
#     4   9  18  29  44  66  93 127 168 204 241 292
#     4  10  21  37  55  77 102 133 174 224 274 320
#     4  11  21  30  45  74 111 145 173 206 247 308
#     4  11  18  31  47  69 102 141 171 203 249 315
#     4  11  18  32  49  71  99 137 173 206 257 312
#     4   9  17  28  45  70  97 128 172 220 256 295
#     4   9  16  26  42  67  99 133 170 209 246 296
#
# _framework density 18.275030000000001
#
# number of rings (size 3 to 8) (size 9 to 14) (size 15 to 20)
#    0.000    2.125    2.500    2.625    0.000    3.125 
#    0.000    1.875    0.000    1.875    0.000    0.875 
#    0.000    1.500    0.000   10.125    0.000    0.000 
#
# Total GULP energy -1585707.397245 kJ/mol
# GULP energy per Si atom -12388.339041 kJ/mol
# Density = 1.823344 g / cm^3
# Si number density = 18.275030 Si / 1000 Ang^3
#
#
#
# Elastic Constant Matrix: (Units=GPa)
#
#
# Indices 1 2 3 4 5 6 
#
# 1 68.2444 33.8150 36.6154 0.0000 0.0000 0.0000
# 2 33.8150 68.2444 36.6154 0.0000 0.0000 0.0000
# 3 36.6154 36.6154 89.1478 0.0000 0.0000 0.0000
# 4 0.0000 0.0000 0.0000 15.5221 0.0000 0.0000
# 5 0.0000 0.0000 0.0000 0.0000 15.5221 0.0000
# 6 0.0000 0.0000 0.0000 0.0000 0.0000 15.6972
#
#
#
# Elastic Compliance Matrix: (Units=1/GPa)
#
#
# Indices 1 2 3 4 5 6 
#
# 1 0.021469 -0.007576 -0.005706 0.000000 0.000000 0.000000
# 2 -0.007576 0.021469 -0.005706 0.000000 0.000000 0.000000
# 3 -0.005706 -0.005706 0.015905 0.000000 0.000000 0.000000
# 4 0.000000 0.000000 0.000000 0.064424 0.000000 0.000000
# 5 0.000000 0.000000 0.000000 0.000000 0.064424 0.000000
# 6 0.000000 0.000000 0.000000 0.000000 0.000000 0.063706
#
#
# Mechanical properties :
#
#
# Convention : Reuss Voigt Hill
#
# Bulk Modulus (GPa) = 47.92614 48.85867 48.39241
# Shear Modulus (GPa) = 16.87319 17.25432 17.06376
#
# Velocity S-wave (km/s) = 3.04187 3.07603 3.05900
# Velocity P-wave (km/s) = 6.21443 6.27768 6.24613
#
# Compressibility (1/GPa) = 0.02086544
#
# Stress axis : x y z
#
# Youngs Moduli (GPa) = 46.57938 46.57938 62.87513
#
# Poissons Ratio (x) = 0.35290 0.35877
# Poissons Ratio (y) = 0.35290 0.35877
# Poissons Ratio (z) = 0.26578 0.26578
#
# Static dielectric constant tensor:
#      x y z
#    x 3.264450 0.000000 0.000000 
#    y 0.000000 3.264450 0.000000 
#    z 0.000000 0.000000 3.674920 
# 
# 
# High freq. dielectric constant tensor:
#      x y z
#    x 1.684410 0.000000 0.000000 
#    y 0.000000 1.684410 0.000000 
#    z 0.000000 0.000000 1.714670 
# 
# From -- ./inp_files/9333.got.cif
#   From: 2010.03.12/outbox.cif.g09.slc.cpg/sg132_5_cif.got.tgz:9333.got - 2010.04.06 17:53:44.
