data_PCOD8316777
_publ_section_title
;
Structure prediction by ZEFSAII (Michael W. Deem and Ramdas Pophale) SiO2 
 PCOD8316777
Probable space group: P 42/M C M
;
_chemical_formula_sum "Si O2"
_cell_formula_units_Z 96
_cell_length_a 23.881604
_cell_length_b 23.881604
_cell_length_c 9.050391
_cell_angle_alpha 90.000000
_cell_angle_beta 90.000000
_cell_angle_gamma 90.000000
_cell_volume 5161.718636
_symmetry_space_group_name_H-M "P 42/M C M"
_symmetry_group_IT_number 132
_symmetry_cell_setting 'tetragonal'
loop_
_space_group_symop_operation_xyz
x,y,z
-y,x,1/2+z
-x,-y,z
y,-x,1/2+z
x,-y,1/2-z
-x,y,1/2-z
y,x,-z
-y,-x,-z
-x,-y,-z
y,-x,1/2-z
x,y,-z
-y,x,1/2-z
-x,y,1/2+z
x,-y,1/2+z
-y,-x,z
y,x,z
loop_
_atom_site_type_symbol
_atom_site_label
_atom_site_fract_x
_atom_site_fract_y
_atom_site_fract_z
Si Si1 0.272140 0.362276 0.673970
Si Si2 0.444056 0.351704 0.167037
Si Si3 0.941524 0.441323 0.323809
Si Si4 0.148289 0.055537 0.666690
Si Si5 0.155770 0.353211 0.170801
Si Si6 0.864387 0.774804 0.829940
O O1 0.274211 0.370754 0.500000
O O2 0.304803 0.304803 0.719375
O O3 0.300531 0.415245 0.749638
O O4 0.208687 0.363645 0.726579
O O5 0.500000 0.368547 0.250000
O O6 0.406202 0.406202 0.170830
O O7 0.456783 0.332749 0.000000
O O8 0.922772 0.500000 0.250000
O O9 0.949367 0.448663 0.500000
O O10 0.894355 0.395268 0.287098
O O11 0.000000 0.421609 0.250000
O O12 0.163529 0.040479 0.500000
O O13 0.095809 0.095809 0.679719
O O14 0.202735 0.083765 0.736745
O O15 0.130879 0.000000 0.750000
O O16 0.137367 0.290370 0.205293
O O17 0.173227 0.360335 0.000000
O O18 0.806233 0.806233 0.784852
O O19 0.877523 0.786465 0.000000
#
# Coordination Sequence:
#
# PCOD8316777 Si02
#       6
#    16  16  16  16  16  16
#     4  10  21  36  55  81 113 147 183 225 270 317
#     4  10  21  37  57  80 109 146 185 228 277 326
#     4  10  21  38  58  79 106 139 175 217 266 316
#     4  10  21  36  54  77 106 140 178 221 267 315
#     4  10  21  36  57  84 110 141 180 219 265 323
#     4   9  18  34  55  78 107 141 175 215 264 317
#
# _framework density 18.598458000000001
#
# number of rings (size 3 to 8) (size 9 to 14) (size 15 to 20)
#    0.000    2.167    0.000    3.000    0.000    7.333 
#    0.000    6.667    0.000    0.000    0.000    0.000 
#    0.000    0.000    0.000    0.000    0.000    0.000 
#
# Total GULP energy -1190506.958652 kJ/mol
# GULP energy per Si atom -12401.114153 kJ/mol
# Density = 1.855613 g / cm^3
# Si number density = 18.598458 Si / 1000 Ang^3
#
#
#
# Elastic Constant Matrix: (Units=GPa)
#
#
# Indices 1 2 3 4 5 6 
#
# 1 140.6221 12.8282 59.1173 0.0000 0.0000 0.0000
# 2 12.8282 140.6221 59.1173 0.0000 0.0000 0.0000
# 3 59.1173 59.1173 112.5433 0.0000 0.0000 0.0000
# 4 0.0000 0.0000 0.0000 33.8424 0.0000 0.0000
# 5 0.0000 0.0000 0.0000 0.0000 33.8424 0.0000
# 6 0.0000 0.0000 0.0000 0.0000 0.0000 18.4073
#
#
#
# Elastic Compliance Matrix: (Units=1/GPa)
#
#
# Indices 1 2 3 4 5 6 
#
# 1 0.009386 0.001561 -0.005751 0.000000 0.000000 0.000000
# 2 0.001561 0.009386 -0.005751 0.000000 0.000000 0.000000
# 3 -0.005751 -0.005751 0.014927 0.000000 0.000000 0.000000
# 4 0.000000 0.000000 0.000000 0.029549 0.000000 0.000000
# 5 0.000000 0.000000 0.000000 0.000000 0.029549 0.000000
# 6 0.000000 0.000000 0.000000 0.000000 0.000000 0.054326
#
#
# Mechanical properties :
#
#
# Convention : Reuss Voigt Hill
#
# Bulk Modulus (GPa) = 72.36052 72.87924 72.61988
# Shear Modulus (GPa) = 29.13582 34.73341 31.93462
#
# Velocity S-wave (km/s) = 3.96229 4.32620 4.14823
# Velocity P-wave (km/s) = 7.74107 8.01407 7.87875
#
# Compressibility (1/GPa) = 0.01381969
#
# Stress axis : x y z
#
# Youngs Moduli (GPa) = 106.53719 106.53719 66.99301
#
# Poissons Ratio (x) = -0.16634 0.38525
# Poissons Ratio (y) = -0.16634 0.38525
# Poissons Ratio (z) = 0.61266 0.61266
#
# Static dielectric constant tensor:
#      x y z
#    x 3.620770 0.000000 0.000000 
#    y 0.000000 3.620770 0.000000 
#    z 0.000000 0.000000 3.571490 
# 
# 
# High freq. dielectric constant tensor:
#      x y z
#    x 1.722290 0.000000 0.000000 
#    y 0.000000 1.722290 0.000000 
#    z 0.000000 0.000000 1.733870 
# 
# From -- ./inp_files/1760.got.cif
#   From: 2010.03.12/outbox.cif.g09.slc.cpg/sg132_1_cif.got.tgz:1760.got - 2010.04.06 17:53:44.
