data_PCOD8316417
_publ_section_title
;
Structure prediction by ZEFSAII (Michael W. Deem and Ramdas Pophale) SiO2 
 PCOD8316417
Probable space group: P 42/M C M
;
_chemical_formula_sum "Si O2"
_cell_formula_units_Z 96
_cell_length_a 19.022332
_cell_length_b 19.022332
_cell_length_c 19.027321
_cell_angle_alpha 90.000000
_cell_angle_beta 90.000000
_cell_angle_gamma 90.000000
_cell_volume 6885.019259
_symmetry_space_group_name_H-M "P 42/M C M"
_symmetry_group_IT_number 132
_symmetry_cell_setting 'tetragonal'
loop_
_space_group_symop_operation_xyz
x,y,z
-y,x,1/2+z
-x,-y,z
y,-x,1/2+z
x,-y,1/2-z
-x,y,1/2-z
y,x,-z
-y,-x,-z
-x,-y,-z
y,-x,1/2-z
x,y,-z
-y,x,1/2-z
-x,y,1/2+z
x,-y,1/2+z
-y,-x,z
y,x,z
loop_
_atom_site_type_symbol
_atom_site_label
_atom_site_fract_x
_atom_site_fract_y
_atom_site_fract_z
Si Si1 0.271531 0.981066 0.078678
Si Si2 0.575486 0.885001 0.754672
Si Si3 0.927026 0.811676 0.710082
Si Si4 0.818926 0.289562 0.720217
Si Si5 0.422311 0.999040 0.635314
Si Si6 0.251388 0.859538 0.576716
O O1 0.231128 0.934580 0.136630
O O2 0.356902 0.983364 0.085090
O O3 0.240743 0.058323 0.088875
O O4 0.255337 0.952166 0.000000
O O5 0.500000 0.846543 0.750000
O O6 0.635054 0.826074 0.742396
O O7 0.589991 0.922645 0.829536
O O8 0.576630 0.943208 0.695402
O O9 0.884317 0.884317 0.696329
O O10 0.883822 0.760860 0.761056
O O11 0.000000 0.828623 0.750000
O O12 0.745281 0.254720 0.744254
O O13 0.822426 0.299486 0.635824
O O14 0.500000 0.000000 0.597538
O O15 0.286266 0.845324 0.500000
O O16 0.173341 0.826660 0.580649
#
# Coordination Sequence:
#
# PCOD8316417 Si02
#       6
#    16  16  16  16  16  16
#     4  11  20  30  45  61  84 108 134 174 214 260
#     4   9  15  25  42  61  84 110 134 169 208 239
#     4  11  21  33  47  60  79 105 141 185 218 253
#     4  10  17  27  46  64  79 105 140 174 203 244
#     4   9  16  26  41  60  84 111 139 167 200 250
#     4   9  17  27  40  59  80 101 126 164 215 254
#
# _framework density 13.943315999999999
#
# number of rings (size 3 to 8) (size 9 to 14) (size 15 to 20)
#    0.000    2.167    5.000    1.000    0.000    0.833 
#    0.000    0.000    0.000    0.000    0.000    3.500 
#    0.000    0.333    0.000    0.000    0.000    0.000 
#
# Total GULP energy -1189287.595731 kJ/mol
# GULP energy per Si atom -12388.412456 kJ/mol
# Density = 1.391158 g / cm^3
# Si number density = 13.943316 Si / 1000 Ang^3
#
#
#
# Elastic Constant Matrix: (Units=GPa)
#
#
# Indices 1 2 3 4 5 6 
#
# 1 81.9170 44.2800 19.8508 0.0000 0.0000 0.0000
# 2 44.2800 81.9170 19.8508 0.0000 0.0000 0.0000
# 3 19.8508 19.8508 57.9623 0.0000 0.0000 0.0000
# 4 0.0000 0.0000 0.0000 12.9499 0.0000 0.0000
# 5 0.0000 0.0000 0.0000 0.0000 12.9499 0.0000
# 6 0.0000 0.0000 0.0000 0.0000 0.0000 13.2110
#
#
#
# Elastic Compliance Matrix: (Units=1/GPa)
#
#
# Indices 1 2 3 4 5 6 
#
# 1 0.017725 -0.008844 -0.003042 0.000000 0.000000 0.000000
# 2 -0.008844 0.017725 -0.003042 0.000000 0.000000 0.000000
# 3 -0.003042 -0.003042 0.019336 0.000000 0.000000 0.000000
# 4 0.000000 0.000000 0.000000 0.077220 0.000000 0.000000
# 5 0.000000 0.000000 0.000000 0.000000 0.077220 0.000000
# 6 0.000000 0.000000 0.000000 0.000000 0.000000 0.075694
#
#
# Mechanical properties :
#
#
# Convention : Reuss Voigt Hill
#
# Bulk Modulus (GPa) = 40.10955 43.30663 41.70809
# Shear Modulus (GPa) = 15.47570 17.00982 16.24276
#
# Velocity S-wave (km/s) = 3.33513 3.49653 3.41679
# Velocity P-wave (km/s) = 6.60753 6.88676 6.74859
#
# Compressibility (1/GPa) = 0.02493172
#
# Stress axis : x y z
#
# Youngs Moduli (GPa) = 56.41660 56.41660 51.71718
#
# Poissons Ratio (x) = 0.49896 0.15730
# Poissons Ratio (y) = 0.49896 0.15730
# Poissons Ratio (z) = 0.17159 0.17159
#
# Static dielectric constant tensor:
#      x y z
#    x 2.771880 0.000000 0.000000 
#    y 0.000000 2.771880 0.000000 
#    z 0.000000 0.000000 2.844920 
# 
# 
# High freq. dielectric constant tensor:
#      x y z
#    x 1.507330 0.000000 0.000000 
#    y 0.000000 1.507330 0.000000 
#    z 0.000000 0.000000 1.531540 
# 
# From -- ./inp_files/6713.got.cif
#   From: 2010.03.12/outbox.cif.g09.slc.cpg/sg132_4_cif.got.tgz:6713.got - 2010.04.06 17:53:44.
