data_PCOD8316807
_publ_section_title
;
Structure prediction by ZEFSAII (Michael W. Deem and Ramdas Pophale) SiO2 
 PCOD8316807
Probable space group: P 42/M C M
;
_chemical_formula_sum "Si O2"
_cell_formula_units_Z 96
_cell_length_a 22.749134
_cell_length_b 22.749134
_cell_length_c 9.288702
_cell_angle_alpha 90.000000
_cell_angle_beta 90.000000
_cell_angle_gamma 90.000000
_cell_volume 4807.117833
_symmetry_space_group_name_H-M "P 42/M C M"
_symmetry_group_IT_number 132
_symmetry_cell_setting 'tetragonal'
loop_
_space_group_symop_operation_xyz
x,y,z
-y,x,1/2+z
-x,-y,z
y,-x,1/2+z
x,-y,1/2-z
-x,y,1/2-z
y,x,-z
-y,-x,-z
-x,-y,-z
y,-x,1/2-z
x,y,-z
-y,x,1/2-z
-x,y,1/2+z
x,-y,1/2+z
-y,-x,z
y,x,z
loop_
_atom_site_type_symbol
_atom_site_label
_atom_site_fract_x
_atom_site_fract_y
_atom_site_fract_z
Si Si1 0.058307 0.642129 0.166203
Si Si2 0.780662 0.940958 0.667645
Si Si3 0.442170 0.862460 0.336196
Si Si4 0.555344 0.645840 0.000000
Si Si5 0.262827 0.400867 0.220121
Si Si6 0.267744 0.267744 0.830729
Si Si7 0.827881 0.827881 0.826523
Si Si8 0.424355 0.675320 0.000000
O O1 0.067763 0.711244 0.176007
O O2 0.112732 0.613267 0.249008
O O3 0.000000 0.621903 0.250000
O O4 0.054961 0.621363 0.000000
O O5 0.801207 0.942393 0.500000
O O6 0.810768 0.889393 0.756696
O O7 0.799863 0.000000 0.750000
O O8 0.500000 0.881978 0.250000
O O9 0.444714 0.886757 0.500000
O O10 0.435756 0.792312 0.343558
O O11 0.582527 0.678693 0.864346
O O12 0.579134 0.579134 0.000000
O O13 0.485211 0.639787 0.000000
O O14 0.249352 0.331585 0.225634
O O15 0.276752 0.423216 0.376663
O O16 0.220271 0.220271 0.778191
O O17 0.270202 0.270202 0.000000
O O18 0.832733 0.832733 0.000000
O O19 0.370198 0.629803 0.000000
#
# Coordination Sequence:
#
# PCOD8316807 Si02
#       8
#    16  16  16   8  16   8   8   8
#     4  10  22  41  64  91 125 167 211 257 312 369
#     4  10  21  40  64  94 133 175 217 263 316 372
#     4  12  25  40  61  88 118 155 204 256 313 382
#     4  12  22  43  68  82 117 159 203 249 315 391
#     4  12  23  41  61  88 118 159 199 255 321 388
#     4  11  20  40  64  90 124 162 205 255 321 383
#     4  11  23  37  63 100 132 172 222 270 320 376
#     4  12  26  41  60  92 119 153 201 259 319 379
#
# _framework density 19.970386999999999
#
# number of rings (size 3 to 8) (size 9 to 14) (size 15 to 20)
#    0.000    0.833    3.333    4.250    2.333    3.833 
#    3.000    1.667    0.000    2.250    0.000    1.750 
#    0.000    0.000    0.000    0.000    0.000    0.000 
#
# Total GULP energy -1190501.692722 kJ/mol
# GULP energy per Si atom -12401.059299 kJ/mol
# Density = 1.992493 g / cm^3
# Si number density = 19.970387 Si / 1000 Ang^3
#
#
#
# Elastic Constant Matrix: (Units=GPa)
#
#
# Indices 1 2 3 4 5 6 
#
# 1 87.1932 37.7302 45.6510 0.0000 0.0000 0.0000
# 2 37.7302 87.1919 45.6506 0.0000 0.0000 0.0000
# 3 45.6510 45.6506 167.6970 0.0000 0.0000 0.0000
# 4 0.0000 0.0000 0.0000 29.0664 0.0000 0.0000
# 5 0.0000 0.0000 0.0000 0.0000 29.0665 0.0000
# 6 0.0000 0.0000 0.0000 0.0000 0.0000 26.3790
#
#
#
# Elastic Compliance Matrix: (Units=1/GPa)
#
#
# Indices 1 2 3 4 5 6 
#
# 1 0.015105 -0.005112 -0.002720 0.000000 0.000000 0.000000
# 2 -0.005112 0.015105 -0.002720 0.000000 0.000000 0.000000
# 3 -0.002720 -0.002720 0.007444 0.000000 0.000000 0.000000
# 4 0.000000 0.000000 0.000000 0.034404 0.000000 0.000000
# 5 0.000000 0.000000 0.000000 0.000000 0.034404 0.000000
# 6 0.000000 0.000000 0.000000 0.000000 0.000000 0.037909
#
#
# Mechanical properties :
#
#
# Convention : Reuss Voigt Hill
#
# Bulk Modulus (GPa) = 60.42622 66.68286 63.55454
# Shear Modulus (GPa) = 29.24088 31.10575 30.17331
#
# Velocity S-wave (km/s) = 3.83065 3.95092 3.89125
# Velocity P-wave (km/s) = 7.06320 7.36725 7.21683
#
# Compressibility (1/GPa) = 0.01654911
#
# Stress axis : x y z
#
# Youngs Moduli (GPa) = 66.20258 66.20159 134.33242
#
# Poissons Ratio (x) = 0.33843 0.36543
# Poissons Ratio (y) = 0.33843 0.36543
# Poissons Ratio (z) = 0.18009 0.18009
#
# Static dielectric constant tensor:
#      x y z
#    x 3.605340 0.000000 0.000000 
#    y 0.000000 3.605340 0.000000 
#    z 0.000000 0.000000 3.814540 
# 
# 
# High freq. dielectric constant tensor:
#      x y z
#    x 1.773480 0.000000 0.000000 
#    y 0.000000 1.773480 0.000000 
#    z 0.000000 0.000000 1.798660 
# 
# From -- ./inp_files/1864.got.cif
#   From: 2010.03.12/outbox.cif.g09.slc.cpg/sg132_1_cif.got.tgz:1864.got - 2010.04.06 17:53:44.
