data_PCOD8316997
_publ_section_title
;
Structure prediction by ZEFSAII (Michael W. Deem and Ramdas Pophale) SiO2 
 PCOD8316997
Probable space group: P 42/N B C
;
_chemical_formula_sum "Si O2"
_cell_formula_units_Z 112
_cell_length_a 14.302072
_cell_length_b 14.302072
_cell_length_c 26.360967
_cell_angle_alpha 90.000000
_cell_angle_beta 90.000000
_cell_angle_gamma 90.000000
_cell_volume 5392.116385
_symmetry_space_group_name_H-M "P 42/N B C"
_symmetry_group_IT_number 133
_space_group.IT_coordinate_system_code '2'
_symmetry_cell_setting 'tetragonal'
loop_
_space_group_symop_operation_xyz
x,y,z
1/2-y,x,1/2+z
1/2-x,1/2-y,z
y,1/2-x,1/2+z
x,1/2-y,-z
1/2-x,y,-z
y,x,1/2-z
1/2-y,1/2-x,1/2-z
-x,-y,-z
1/2+y,-x,1/2-z
1/2+x,1/2+y,-z
-y,1/2+x,1/2-z
-x,1/2+y,z
1/2+x,-y,z
-y,-x,1/2+z
1/2+y,1/2+x,1/2+z
loop_
_atom_site_type_symbol
_atom_site_label
_atom_site_fract_x
_atom_site_fract_y
_atom_site_fract_z
Si Si1 0.941340 0.067010 0.933623
Si Si2 0.314996 0.327725 0.377417
Si Si3 0.732268 0.020301 0.126044
Si Si4 0.900234 0.244263 0.734738
Si Si5 0.391215 0.566089 0.951945
Si Si6 0.733614 0.508703 0.556534
Si Si7 0.752281 0.890937 0.727852
O O1 0.870840 0.053425 0.887731
O O2 0.987939 0.166021 0.920325
O O3 0.885324 0.056188 0.986982
O O4 0.023786 0.993260 0.929973
O O5 0.250000 0.250000 0.403828
O O6 0.410983 0.277747 0.360162
O O7 0.328743 0.411081 0.417127
O O8 0.255761 0.370755 0.331495
O O9 0.766946 0.079068 0.174634
O O10 0.797991 0.035728 0.077107
O O11 0.839934 0.155460 0.753248
O O12 0.998298 0.246307 0.764104
O O13 0.412471 0.674904 0.941019
O O14 0.750000 0.544988 0.500000
O O15 0.848627 0.848627 0.750000
O O16 0.660944 0.839057 0.750000
#
# Coordination Sequence:
#
# PCOD8316997 Si02
#       7
#    16  16  16  16  16  16  16
#     4  10  22  41  65  99 134 176 218 274 327 394
#     4  12  23  41  68  98 128 167 225 269 330 398
#     4  12  24  42  68  97 129 185 218 270 341 394
#     4  11  28  46  64  99 135 171 226 283 340 401
#     4  10  22  42  64  95 141 169 223 272 322 401
#     4  10  23  41  63  95 132 174 215 269 327 389
#     4  11  22  46  69  95 130 168 217 282 332 399
#
# _framework density 20.771063999999999
#
# number of rings (size 3 to 8) (size 9 to 14) (size 15 to 20)
#    0.000    1.143    4.286    1.286    4.000    2.571 
#    2.571    2.143    0.000    0.000    0.000    0.000 
#    0.000    0.000    0.000    0.000    0.000    0.000 
#
# Total GULP energy -1388552.800857 kJ/mol
# GULP energy per Si atom -12397.792865 kJ/mol
# Density = 2.072379 g / cm^3
# Si number density = 20.771064 Si / 1000 Ang^3
#
#
#
# Elastic Constant Matrix: (Units=GPa)
#
#
# Indices 1 2 3 4 5 6 
#
# 1 114.4853 43.7806 26.4871 0.0000 0.0000 0.0000
# 2 43.7806 114.4850 26.4869 0.0000 0.0000 0.0000
# 3 26.4871 26.4869 47.0609 0.0000 0.0000 0.0000
# 4 0.0000 0.0000 0.0000 31.8797 0.0000 0.0000
# 5 0.0000 0.0000 0.0000 0.0000 31.8800 0.0000
# 6 0.0000 0.0000 0.0000 0.0000 0.0000 -652.6700
#
#
#
# Elastic Compliance Matrix: (Units=1/GPa)
#
#
# Indices 1 2 3 4 5 6 
#
# 1 0.010964 -0.003179 -0.004382 0.000000 0.000000 0.000000
# 2 -0.003179 0.010964 -0.004382 0.000000 0.000000 0.000000
# 3 -0.004382 -0.004382 0.026181 0.000000 0.000000 0.000000
# 4 0.000000 0.000000 0.000000 0.031368 0.000000 0.000000
# 5 0.000000 0.000000 0.000000 0.000000 0.031368 0.000000
# 6 0.000000 0.000000 0.000000 0.000000 0.000000 -0.001532
#
#
# Mechanical properties :
#
#
# Convention : Reuss Voigt Hill
#
# Bulk Modulus (GPa) = 41.27986 52.17116 46.72551
# Shear Modulus (GPa) = 35.39249 -105.83028 -35.21890
#
# Velocity S-wave (km/s) = 4.13235 -7.14573 -4.12220
# Velocity P-wave (km/s) = 6.53340 6.55058 0.33530
#
# Compressibility (1/GPa) = 0.02422489
#
# Stress axis : x y z
#
# Youngs Moduli (GPa) = 91.20566 91.20568 38.19524
#
# Poissons Ratio (x) = 0.28996 0.16736
# Poissons Ratio (y) = 0.28996 0.16736
# Poissons Ratio (z) = 0.39963 0.39963
#
# Static dielectric constant tensor:
#      x y z
#    x 3.980570 0.000000 0.000000 
#    y 0.000000 3.980570 0.000000 
#    z 0.000000 0.000000 3.808380 
# 
# 
# High freq. dielectric constant tensor:
#      x y z
#    x 1.817300 0.000000 0.000000 
#    y 0.000000 1.817300 0.000000 
#    z 0.000000 0.000000 1.810860 
# 
# From -- ./inp_files/7247.got.cif
#   From: 2010.03.12/outbox.cif.g09.slc.cpg/sg133_4_cif.got.tgz:7247.got - 2010.04.06 18:08:06.
