data_PCOD8316069
_publ_section_title
;
Structure prediction by ZEFSAII (Michael W. Deem and Ramdas Pophale) SiO2 
 PCOD8316069
Probable space group: P 42/M M C
;
_chemical_formula_sum "Si O2"
_cell_formula_units_Z 80
_cell_length_a 17.471234
_cell_length_b 17.471234
_cell_length_c 15.875069
_cell_angle_alpha 90.000000
_cell_angle_beta 90.000000
_cell_angle_gamma 90.000000
_cell_volume 4845.769839
_symmetry_space_group_name_H-M "P 42/M M C"
_symmetry_group_IT_number 131
_symmetry_cell_setting 'tetragonal'
loop_
_space_group_symop_operation_xyz
x,y,z
-x,-y,z
-y,x,1/2+z
y,-x,1/2+z
-x,y,-z
x,-y,-z
y,x,1/2-z
-y,-x,1/2-z
-x,-y,-z
x,y,-z
y,-x,1/2-z
-y,x,1/2-z
x,-y,z
-x,y,z
-y,-x,1/2+z
y,x,1/2+z
loop_
_atom_site_type_symbol
_atom_site_label
_atom_site_fract_x
_atom_site_fract_y
_atom_site_fract_z
Si Si1 0.847640 0.671040 0.661311
Si Si2 0.795167 0.088282 0.722964
Si Si3 0.211126 0.267769 0.902259
Si Si4 0.159779 0.411641 0.828142
Si Si5 0.089875 0.585752 0.500000
Si Si6 0.410463 0.000000 0.593364
O O1 0.904152 0.734947 0.700112
O O2 0.768654 0.711846 0.635268
O O3 0.828785 0.605318 0.729450
O O4 0.885662 0.631795 0.581890
O O5 0.877457 0.122544 0.750000
O O6 0.764821 0.135662 0.643033
O O7 0.805633 0.000000 0.697797
O O8 0.216418 0.359080 0.884192
O O9 0.204350 0.249158 0.000000
O O10 0.177347 0.500000 0.847818
O O11 0.073756 0.386300 0.853280
O O12 0.125802 0.500000 0.500000
O O13 0.000000 0.578625 0.500000
O O14 0.500000 0.000000 0.579974
O O15 0.371696 0.000000 0.500000
#
# Coordination Sequence:
#
# PCOD8316069 Si02
#       6
#    16  16  16  16   8   8
#     4  10  20  36  49  71 104 139 172 208 255 307
#     4   9  19  33  51  71  94 130 176 221 268 308
#     4  10  20  34  52  73 102 140 171 209 256 314
#     4  10  20  32  50  74 103 134 169 209 253 308
#     4  11  22  32  52  78 102 134 173 212 252 302
#     4   9  18  30  44  71 107 135 157 199 258 298
#
# _framework density 16.509245
#
# number of rings (size 3 to 8) (size 9 to 14) (size 15 to 20)
#    0.000    2.200    1.000    3.600    7.000    1.800 
#    0.000    0.000    0.000    0.000    0.000    2.800 
#    0.000   14.400    0.000    0.000    0.000    0.000 
#
# Total GULP energy -991785.725405 kJ/mol
# GULP energy per Si atom -12397.321568 kJ/mol
# Density = 1.647167 g / cm^3
# Si number density = 16.509245 Si / 1000 Ang^3
#
#
#
# Elastic Constant Matrix: (Units=GPa)
#
#
# Indices 1 2 3 4 5 6 
#
# 1 91.8516 42.1669 38.5129 0.0000 0.0000 0.0000
# 2 42.1669 91.8527 38.5131 0.0000 0.0000 0.0000
# 3 38.5129 38.5131 125.8405 0.0000 0.0000 0.0000
# 4 0.0000 0.0000 0.0000 22.5082 0.0000 0.0000
# 5 0.0000 0.0000 0.0000 0.0000 22.5079 0.0000
# 6 0.0000 0.0000 0.0000 0.0000 0.0000 22.8836
#
#
#
# Elastic Compliance Matrix: (Units=1/GPa)
#
#
# Indices 1 2 3 4 5 6 
#
# 1 0.014591 -0.005536 -0.002771 0.000000 0.000000 0.000000
# 2 -0.005536 0.014590 -0.002771 0.000000 0.000000 0.000000
# 3 -0.002771 -0.002771 0.009643 0.000000 0.000000 0.000000
# 4 0.000000 0.000000 0.000000 0.044428 0.000000 0.000000
# 5 0.000000 0.000000 0.000000 0.000000 0.044429 0.000000
# 6 0.000000 0.000000 0.000000 0.000000 0.000000 0.043699
#
#
# Mechanical properties :
#
#
# Convention : Reuss Voigt Hill
#
# Bulk Modulus (GPa) = 59.99846 60.88119 60.43982
# Shear Modulus (GPa) = 25.11397 26.27006 25.69202
#
# Velocity S-wave (km/s) = 3.90450 3.99335 3.94917
# Velocity P-wave (km/s) = 7.53313 7.63018 7.58181
#
# Compressibility (1/GPa) = 0.01666710
#
# Stress axis : x y z
#
# Youngs Moduli (GPa) = 68.53743 68.53832 103.70553
#
# Poissons Ratio (x) = 0.37944 0.28737
# Poissons Ratio (y) = 0.37944 0.28737
# Poissons Ratio (z) = 0.18992 0.18992
#
# Static dielectric constant tensor:
#      x y z
#    x 3.136630 0.000000 0.000000 
#    y 0.000000 3.136630 0.000000 
#    z 0.000000 0.000000 5.099950 
# 
# 
# High freq. dielectric constant tensor:
#      x y z
#    x 1.621090 0.000000 0.000000 
#    y 0.000000 1.621090 0.000000 
#    z 0.000000 0.000000 1.649080 
# 
# From -- ./inp_files/5773.got.cif
#   From: 2010.03.12/outbox.cif.g09.slc.cpg/sg131_3_cif.got.tgz:5773.got - 2010.04.06 17:36:35.
