data_PCOD8316169
_publ_section_title
;
Structure prediction by ZEFSAII (Michael W. Deem and Ramdas Pophale) SiO2 
 PCOD8316169
Probable space group: P 42/M M C
;
_chemical_formula_sum "Si O2"
_cell_formula_units_Z 112
_cell_length_a 14.736137
_cell_length_b 14.736137
_cell_length_c 25.815002
_cell_angle_alpha 90.000000
_cell_angle_beta 90.000000
_cell_angle_gamma 90.000000
_cell_volume 5605.824069
_symmetry_space_group_name_H-M "P 42/M M C"
_symmetry_group_IT_number 131
_symmetry_cell_setting 'tetragonal'
loop_
_space_group_symop_operation_xyz
x,y,z
-x,-y,z
-y,x,1/2+z
y,-x,1/2+z
-x,y,-z
x,-y,-z
y,x,1/2-z
-y,-x,1/2-z
-x,-y,-z
x,y,-z
y,-x,1/2-z
-y,x,1/2-z
x,-y,z
-x,y,z
-y,-x,1/2+z
y,x,1/2+z
loop_
_atom_site_type_symbol
_atom_site_label
_atom_site_fract_x
_atom_site_fract_y
_atom_site_fract_z
Si Si1 0.895794 0.603357 0.700130
Si Si2 0.703607 0.399297 0.939113
Si Si3 0.760968 0.103267 0.275088
Si Si4 0.097511 0.364308 0.940690
Si Si5 0.228338 0.393659 0.601547
Si Si6 0.900618 0.257088 0.557199
Si Si7 0.184696 0.900261 0.611607
O O1 0.885044 0.500000 0.718139
O O2 0.871705 0.663978 0.750067
O O3 0.821020 0.626117 0.656291
O O4 0.000000 0.620957 0.680529
O O5 0.661635 0.500000 0.932275
O O6 0.808379 0.404549 0.918506
O O7 0.646207 0.330543 0.902767
O O8 0.699674 0.369806 0.000000
O O9 0.840446 0.159555 0.250000
O O10 0.758530 0.122144 0.336373
O O11 0.785431 0.000000 0.262917
O O12 0.102304 0.255890 0.935265
O O13 0.000000 0.397975 0.915114
O O14 0.093146 0.392028 0.000000
O O15 0.229953 0.500000 0.588527
O O16 0.169722 0.339802 0.559462
O O17 0.893245 0.213723 0.500000
O O18 0.887494 0.178256 0.600143
O O19 0.000000 0.298275 0.567097
O O20 0.137700 0.000000 0.615424
#
# Coordination Sequence:
#
# PCOD8316169 Si02
#       7
#    16  16  16  16  16  16  16
#     4   9  19  38  63  87 111 143 185 236 293 346
#     4  10  21  36  55  82 116 153 192 232 280 341
#     4  10  21  35  55  82 112 147 186 229 278 333
#     4   9  17  32  56  82 110 146 184 224 274 330
#     4  11  22  37  59  83 111 150 192 237 289 341
#     4  11  23  37  56  84 118 156 195 235 282 336
#     4  10  20  35  56  82 113 150 190 230 277 334
#
# _framework density 19.979220999999999
#
# number of rings (size 3 to 8) (size 9 to 14) (size 15 to 20)
#    0.000    2.000    1.429    2.143    0.000    5.571 
#    0.000    5.714    0.000    2.571    0.000    0.000 
#    0.000    0.000    0.000    0.000    0.000    0.000 
#
# Total GULP energy -1387625.261186 kJ/mol
# GULP energy per Si atom -12389.511261 kJ/mol
# Density = 1.993375 g / cm^3
# Si number density = 19.979221 Si / 1000 Ang^3
#
#
#
# Elastic Constant Matrix: (Units=GPa)
#
#
# Indices 1 2 3 4 5 6 
#
# 1 124.1193 59.8358 45.9679 0.0000 0.0000 0.0000
# 2 59.8358 124.1225 45.9671 0.0000 0.0000 0.0000
# 3 45.9679 45.9671 73.8077 0.0000 0.0000 0.0000
# 4 0.0000 0.0000 0.0000 26.6953 0.0000 0.0000
# 5 0.0000 0.0000 0.0000 0.0000 26.6950 0.0000
# 6 0.0000 0.0000 0.0000 0.0000 0.0000 10.0400
#
#
#
# Elastic Compliance Matrix: (Units=1/GPa)
#
#
# Indices 1 2 3 4 5 6 
#
# 1 0.011724 -0.003832 -0.004916 0.000000 0.000000 0.000000
# 2 -0.003832 0.011724 -0.004915 0.000000 0.000000 0.000000
# 3 -0.004916 -0.004915 0.019672 0.000000 0.000000 0.000000
# 4 0.000000 0.000000 0.000000 0.037460 0.000000 0.000000
# 5 0.000000 0.000000 0.000000 0.000000 0.037460 0.000000
# 6 0.000000 0.000000 0.000000 0.000000 0.000000 0.099602
#
#
# Mechanical properties :
#
#
# Convention : Reuss Voigt Hill
#
# Bulk Modulus (GPa) = 63.31258 69.51013 66.41135
# Shear Modulus (GPa) = 19.98147 24.03799 22.00973
#
# Velocity S-wave (km/s) = 3.16589 3.47241 3.32268
# Velocity P-wave (km/s) = 6.71728 7.13748 6.93056
#
# Compressibility (1/GPa) = 0.01579465
#
# Stress axis : x y z
#
# Youngs Moduli (GPa) = 85.29181 85.29560 50.83482
#
# Poissons Ratio (x) = 0.32681 0.24990
# Poissons Ratio (y) = 0.32680 0.24987
# Poissons Ratio (z) = 0.41928 0.41925
#
# Static dielectric constant tensor:
#      x y z
#    x 3.696250 0.000000 0.000000 
#    y 0.000000 3.696250 0.000000 
#    z 0.000000 0.000000 3.489910 
# 
# 
# High freq. dielectric constant tensor:
#      x y z
#    x 1.778150 0.000000 0.000000 
#    y 0.000000 1.778150 0.000000 
#    z 0.000000 0.000000 1.754620 
# 
# From -- ./inp_files/12475.got.cif
#   From: 2010.03.12/outbox.cif.g09.slc.cpg/sg131_7_cif.got.tgz:12475.got - 2010.04.06 17:36:35.
