data_PCOD8316032
_publ_section_title
;
Structure prediction by ZEFSAII (Michael W. Deem and Ramdas Pophale) SiO2 
 PCOD8316032
Probable space group: P 42/M M C
;
_chemical_formula_sum "Si O2"
_cell_formula_units_Z 88
_cell_length_a 26.733220
_cell_length_b 26.733220
_cell_length_c 9.419323
_cell_angle_alpha 90.000000
_cell_angle_beta 90.000000
_cell_angle_gamma 90.000000
_cell_volume 6731.660958
_symmetry_space_group_name_H-M "P 42/M M C"
_symmetry_group_IT_number 131
_symmetry_cell_setting 'tetragonal'
loop_
_space_group_symop_operation_xyz
x,y,z
-x,-y,z
-y,x,1/2+z
y,-x,1/2+z
-x,y,-z
x,-y,-z
y,x,1/2-z
-y,-x,1/2-z
-x,-y,-z
x,y,-z
y,-x,1/2-z
-y,x,1/2-z
x,-y,z
-x,y,z
-y,-x,1/2+z
y,x,1/2+z
loop_
_atom_site_type_symbol
_atom_site_label
_atom_site_fract_x
_atom_site_fract_y
_atom_site_fract_z
Si Si1 0.777448 0.284761 0.155553
Si Si2 0.941943 0.402873 0.333442
Si Si3 0.224212 0.556468 0.168935
Si Si4 0.305713 0.369627 0.842408
Si Si5 0.856728 0.636705 0.831870
Si Si6 0.500000 0.058589 0.341202
O O1 0.763072 0.236929 0.250000
O O2 0.732537 0.323925 0.150049
O O3 0.826987 0.312992 0.210509
O O4 0.787793 0.263092 0.000000
O O5 0.930711 0.409406 0.500000
O O6 0.907491 0.360450 0.261423
O O7 0.925113 0.452402 0.249480
O O8 0.000000 0.389569 0.308526
O O9 0.220283 0.500000 0.229726
O O10 0.275639 0.582837 0.223988
O O11 0.175773 0.588263 0.216069
O O12 0.226670 0.556814 0.000000
O O13 0.354159 0.354159 0.750000
O O14 0.325403 0.382359 0.000000
O O15 0.868605 0.634954 0.000000
O O16 0.500000 0.083828 0.500000
O O17 0.500000 0.000000 0.362630
#
# Coordination Sequence:
#
# PCOD8316032 Si02
#       6
#    16  16  16  16  16   8
#     4   8  14  24  37  54  73  90 112 141 171 209
#     4  10  20  31  40  52  72  94 118 152 189 221
#     4   8  14  24  37  53  71  89 111 138 165 197
#     4   8  13  22  36  51  67  87 108 129 156 194
#     4   9  17  27  40  57  72  91 122 151 175 211
#     4   9  17  29  43  53  61  83 119 153 185 219
#
# _framework density 13.072554
#
# number of rings (size 3 to 8) (size 9 to 14) (size 15 to 20)
#    0.000    3.364    0.000    3.000    1.273    2.909 
#    0.000    2.727    0.000    1.636    0.000    0.000 
#    0.000    0.364    0.000    4.545    0.000    0.364 
#
# Total GULP energy -1090298.320393 kJ/mol
# GULP energy per Si atom -12389.753641 kJ/mol
# Density = 1.304280 g / cm^3
# Si number density = 13.072554 Si / 1000 Ang^3
#
#
#
# Elastic Constant Matrix: (Units=GPa)
#
#
# Indices 1 2 3 4 5 6 
#
# 1 57.1524 39.2648 37.4030 0.0000 0.0000 0.0000
# 2 39.2648 57.1531 37.4035 0.0000 0.0000 0.0000
# 3 37.4030 37.4035 68.0073 0.0000 0.0000 0.0000
# 4 0.0000 0.0000 0.0000 18.0258 0.0000 0.0000
# 5 0.0000 0.0000 0.0000 0.0000 18.0257 0.0000
# 6 0.0000 0.0000 0.0000 0.0000 0.0000 16.3115
#
#
#
# Elastic Compliance Matrix: (Units=1/GPa)
#
#
# Indices 1 2 3 4 5 6 
#
# 1 0.036998 -0.018906 -0.009950 0.000000 0.000000 0.000000
# 2 -0.018906 0.036997 -0.009950 0.000000 0.000000 0.000000
# 3 -0.009950 -0.009950 0.025649 0.000000 0.000000 0.000000
# 4 0.000000 0.000000 0.000000 0.055476 0.000000 0.000000
# 5 0.000000 0.000000 0.000000 0.000000 0.055476 0.000000
# 6 0.000000 0.000000 0.000000 0.000000 0.000000 0.061306
#
#
# Mechanical properties :
#
#
# Convention : Reuss Voigt Hill
#
# Bulk Modulus (GPa) = 45.38917 45.60617 45.49767
# Shear Modulus (GPa) = 14.01109 15.02201 14.51655
#
# Velocity S-wave (km/s) = 3.27738 3.39355 3.33597
# Velocity P-wave (km/s) = 7.00842 7.09349 7.05108
#
# Compressibility (1/GPa) = 0.02203169
#
# Stress axis : x y z
#
# Youngs Moduli (GPa) = 27.02869 27.02886 38.98757
#
# Poissons Ratio (x) = 0.51101 0.38793
# Poissons Ratio (y) = 0.51101 0.38794
# Poissons Ratio (z) = 0.26893 0.26894
#
# Static dielectric constant tensor:
#      x y z
#    x 2.536630 0.000000 0.000000 
#    y 0.000000 2.536630 0.000000 
#    z 0.000000 0.000000 2.697980 
# 
# 
# High freq. dielectric constant tensor:
#      x y z
#    x 1.465930 0.000000 0.000000 
#    y 0.000000 1.465930 0.000000 
#    z 0.000000 0.000000 1.491480 
# 
# From -- ./inp_files/2409.got.cif
#   From: 2010.03.12/outbox.cif.g09.slc.cpg/sg131_2_cif.got.tgz:2409.got - 2010.04.06 17:36:35.
