data_PCOD8316125
_publ_section_title
;
Structure prediction by ZEFSAII (Michael W. Deem and Ramdas Pophale) SiO2 
 PCOD8316125
Probable space group: P 42/M M C
;
_chemical_formula_sum "Si O2"
_cell_formula_units_Z 104
_cell_length_a 18.530724
_cell_length_b 18.530724
_cell_length_c 17.241467
_cell_angle_alpha 90.000000
_cell_angle_beta 90.000000
_cell_angle_gamma 90.000000
_cell_volume 5920.508249
_symmetry_space_group_name_H-M "P 42/M M C"
_symmetry_group_IT_number 131
_symmetry_cell_setting 'tetragonal'
loop_
_space_group_symop_operation_xyz
x,y,z
-x,-y,z
-y,x,1/2+z
y,-x,1/2+z
-x,y,-z
x,-y,-z
y,x,1/2-z
-y,-x,1/2-z
-x,-y,-z
x,y,-z
y,-x,1/2-z
-y,x,1/2-z
x,-y,z
-x,y,z
-y,-x,1/2+z
y,x,1/2+z
loop_
_atom_site_type_symbol
_atom_site_label
_atom_site_fract_x
_atom_site_fract_y
_atom_site_fract_z
Si Si1 0.581915 0.081717 0.812058
Si Si2 0.081849 0.781212 0.909109
Si Si3 0.160733 0.582035 0.154135
Si Si4 0.921563 0.840560 0.590488
Si Si5 0.725194 0.221778 0.667920
Si Si6 0.301145 0.841917 0.909826
Si Si7 0.920464 0.584827 0.000000
O O1 0.500000 0.088285 0.841618
O O2 0.586586 0.102021 0.722010
O O3 0.627762 0.136962 0.863243
O O4 0.610164 0.000000 0.822650
O O5 0.093797 0.866863 0.893641
O O6 0.138117 0.739052 0.855032
O O7 0.000000 0.762146 0.885182
O O8 0.096320 0.762791 0.000000
O O9 0.190856 0.500000 0.146070
O O10 0.227373 0.637463 0.170436
O O11 0.122144 0.609581 0.075957
O O12 0.931184 0.828914 0.500000
O O13 0.889714 0.765249 0.622913
O O14 0.000000 0.856657 0.628702
O O15 0.760896 0.239105 0.750000
O O16 0.758516 0.278219 0.605941
O O17 0.316974 0.852900 0.000000
O O18 0.930251 0.500000 0.000000
O O19 0.000000 0.621601 0.000000
#
# Coordination Sequence:
#
# PCOD8316125 Si02
#       7
#    16  16  16  16  16  16   8
#     4  10  20  34  52  77 110 145 181 220 263 316
#     4   9  19  33  49  72  99 130 173 223 271 316
#     4  10  21  36  54  78 108 139 176 221 269 323
#     4   8  14  26  45  66  89 121 166 215 259 301
#     4  11  21  37  53  75 102 139 177 216 269 322
#     4  10  20  34  52  74 103 136 175 218 263 316
#     4   9  18  32  52  80 110 140 174 215 266 322
#
# _framework density 17.56606
#
# number of rings (size 3 to 8) (size 9 to 14) (size 15 to 20)
#    0.000    2.385    1.538    2.308    2.154    4.615 
#    0.000    3.077    0.000    0.000    0.000    0.000 
#    0.000    2.154    0.000    1.385    0.000    0.000 
#
# Total GULP energy -1289040.931469 kJ/mol
# GULP energy per Si atom -12394.624341 kJ/mol
# Density = 1.752608 g / cm^3
# Si number density = 17.566060 Si / 1000 Ang^3
#
#
#
# Elastic Constant Matrix: (Units=GPa)
#
#
# Indices 1 2 3 4 5 6 
#
# 1 92.1916 39.2844 33.7064 0.0000 0.0000 0.0000
# 2 39.2844 92.1920 33.7064 0.0000 0.0000 0.0000
# 3 33.7064 33.7064 83.3855 0.0000 0.0000 0.0000
# 4 0.0000 0.0000 0.0000 22.6669 0.0000 0.0000
# 5 0.0000 0.0000 0.0000 0.0000 22.6668 0.0000
# 6 0.0000 0.0000 0.0000 0.0000 0.0000 17.1599
#
#
#
# Elastic Compliance Matrix: (Units=1/GPa)
#
#
# Indices 1 2 3 4 5 6 
#
# 1 0.014248 -0.004653 -0.003878 0.000000 0.000000 0.000000
# 2 -0.004653 0.014248 -0.003878 0.000000 0.000000 0.000000
# 3 -0.003878 -0.003878 0.015128 0.000000 0.000000 0.000000
# 4 0.000000 0.000000 0.000000 0.044117 0.000000 0.000000
# 5 0.000000 0.000000 0.000000 0.000000 0.044117 0.000000
# 6 0.000000 0.000000 0.000000 0.000000 0.000000 0.058275
#
#
# Mechanical properties :
#
#
# Convention : Reuss Voigt Hill
#
# Bulk Modulus (GPa) = 53.18126 53.46261 53.32194
# Shear Modulus (GPa) = 22.60184 23.23685 22.91934
#
# Velocity S-wave (km/s) = 3.59092 3.64101 3.61605
# Velocity P-wave (km/s) = 6.89447 6.94098 6.91776
#
# Compressibility (1/GPa) = 0.01880362
#
# Stress axis : x y z
#
# Youngs Moduli (GPa) = 70.18644 70.18683 66.10296
#
# Poissons Ratio (x) = 0.32659 0.25637
# Poissons Ratio (y) = 0.32659 0.25637
# Poissons Ratio (z) = 0.27221 0.27221
#
# Static dielectric constant tensor:
#      x y z
#    x 3.315610 0.000000 0.000000 
#    y 0.000000 3.315610 0.000000 
#    z 0.000000 0.000000 3.169770 
# 
# 
# High freq. dielectric constant tensor:
#      x y z
#    x 1.662380 0.000000 0.000000 
#    y 0.000000 1.662380 0.000000 
#    z 0.000000 0.000000 1.674860 
# 
# From -- ./inp_files/8078.got.cif
#   From: 2010.03.12/outbox.cif.g09.slc.cpg/sg131_5_cif.got.tgz:8078.got - 2010.04.06 17:36:35.
