data_PCOD8316161
_publ_section_title
;
Structure prediction by ZEFSAII (Michael W. Deem and Ramdas Pophale) SiO2 
 PCOD8316161
Probable space group: P 42/M M C
;
_chemical_formula_sum "Si O2"
_cell_formula_units_Z 96
_cell_length_a 23.944794
_cell_length_b 23.944794
_cell_length_c 9.089668
_cell_angle_alpha 90.000000
_cell_angle_beta 90.000000
_cell_angle_gamma 90.000000
_cell_volume 5211.589868
_symmetry_space_group_name_H-M "P 42/M M C"
_symmetry_group_IT_number 131
_symmetry_cell_setting 'tetragonal'
loop_
_space_group_symop_operation_xyz
x,y,z
-x,-y,z
-y,x,1/2+z
y,-x,1/2+z
-x,y,-z
x,-y,-z
y,x,1/2-z
-y,-x,1/2-z
-x,-y,-z
x,y,-z
y,-x,1/2-z
-y,x,1/2-z
x,-y,z
-x,y,z
-y,-x,1/2+z
y,x,1/2+z
loop_
_atom_site_type_symbol
_atom_site_label
_atom_site_fract_x
_atom_site_fract_y
_atom_site_fract_z
Si Si1 0.643548 0.152535 0.673159
Si Si2 0.062601 0.859666 0.172966
Si Si3 0.064533 0.435377 0.670879
Si Si4 0.360526 0.437718 0.670873
Si Si5 0.732015 0.651676 0.326548
Si Si6 0.151905 0.229226 0.170520
O O1 0.633239 0.160996 0.500000
O O2 0.603454 0.103704 0.730317
O O3 0.631881 0.209741 0.758304
O O4 0.707377 0.136229 0.708202
O O5 0.084129 0.915872 0.250000
O O6 0.099492 0.807191 0.225526
O O7 0.000000 0.847570 0.225496
O O8 0.066193 0.868722 0.000000
O O9 0.076320 0.422952 0.500000
O O10 0.077870 0.500000 0.706412
O O11 0.000000 0.422258 0.709064
O O12 0.416038 0.416038 0.750000
O O13 0.373447 0.435998 0.500000
O O14 0.346872 0.500000 0.725585
O O15 0.308019 0.399688 0.711569
O O16 0.707869 0.707869 0.250000
O O17 0.737991 0.662948 0.500000
O O18 0.208587 0.208587 0.250000
O O19 0.163526 0.220855 0.000000
#
# Coordination Sequence:
#
# PCOD8316161 Si02
#       6
#    16  16  16  16  16  16
#     4  11  22  34  54  84 110 136 173 214 261 319
#     4   9  18  33  51  70  96 131 168 206 249 296
#     4   9  20  40  61  79 104 139 176 215 262 315
#     4   9  19  35  53  74 101 135 174 214 258 306
#     4  10  20  35  54  76 107 144 180 221 266 313
#     4   9  19  34  51  73 103 137 171 209 255 304
#
# _framework density 18.420483999999998
#
# number of rings (size 3 to 8) (size 9 to 14) (size 15 to 20)
#    0.000    2.500    0.000    2.000    0.000    6.333 
#    0.000    5.833    0.000    0.000    0.000    0.000 
#    0.000    0.000    0.000    0.000    0.000    0.000 
#
# Total GULP energy -1190444.579261 kJ/mol
# GULP energy per Si atom -12400.464367 kJ/mol
# Density = 1.837856 g / cm^3
# Si number density = 18.420484 Si / 1000 Ang^3
#
#
#
# Elastic Constant Matrix: (Units=GPa)
#
#
# Indices 1 2 3 4 5 6 
#
# 1 122.4399 62.4363 54.5641 0.0000 0.0000 0.0000
# 2 62.4363 122.4392 54.5650 0.0000 0.0000 0.0000
# 3 54.5641 54.5650 69.8406 0.0000 0.0000 0.0000
# 4 0.0000 0.0000 0.0000 32.9166 0.0000 0.0000
# 5 0.0000 0.0000 0.0000 0.0000 32.9168 0.0000
# 6 0.0000 0.0000 0.0000 0.0000 0.0000 28.8355
#
#
#
# Elastic Compliance Matrix: (Units=1/GPa)
#
#
# Indices 1 2 3 4 5 6 
#
# 1 0.013352 -0.003314 -0.007843 0.000000 0.000000 0.000000
# 2 -0.003314 0.013352 -0.007843 0.000000 0.000000 0.000000
# 3 -0.007843 -0.007843 0.026573 0.000000 0.000000 0.000000
# 4 0.000000 0.000000 0.000000 0.030380 0.000000 0.000000
# 5 0.000000 0.000000 0.000000 0.000000 0.030380 0.000000
# 6 0.000000 0.000000 0.000000 0.000000 0.000000 0.034679
#
#
# Mechanical properties :
#
#
# Convention : Reuss Voigt Hill
#
# Bulk Modulus (GPa) = 65.45002 73.09450 69.27226
# Shear Modulus (GPa) = 26.06778 28.47741 27.27260
#
# Velocity S-wave (km/s) = 3.76593 3.93614 3.85198
# Velocity P-wave (km/s) = 7.38362 7.77334 7.58099
#
# Compressibility (1/GPa) = 0.01527883
#
# Stress axis : x y z
#
# Youngs Moduli (GPa) = 74.89542 74.89339 37.63211
#
# Poissons Ratio (x) = 0.24817 0.29513
# Poissons Ratio (y) = 0.24817 0.29515
# Poissons Ratio (z) = 0.58737 0.58739
#
# Static dielectric constant tensor:
#      x y z
#    x 3.547050 0.000000 0.000000 
#    y 0.000000 3.547050 0.000000 
#    z 0.000000 0.000000 3.355280 
# 
# 
# High freq. dielectric constant tensor:
#      x y z
#    x 1.716830 0.000000 0.000000 
#    y 0.000000 1.716830 0.000000 
#    z 0.000000 0.000000 1.713760 
# 
# From -- ./inp_files/2192.got.cif
#   From: 2010.03.12/outbox.cif.g09.slc.cpg/sg131_2_cif.got.tgz:2192.got - 2010.04.06 17:36:35.
