data_PCOD8316759
_publ_section_title
;
Structure prediction by ZEFSAII (Michael W. Deem and Ramdas Pophale) SiO2 
 PCOD8316759
Probable space group: P 42/M C M
;
_chemical_formula_sum "Si O2"
_cell_formula_units_Z 58
_cell_length_a 18.989840
_cell_length_b 18.989840
_cell_length_c 9.209091
_cell_angle_alpha 90.000000
_cell_angle_beta 90.000000
_cell_angle_gamma 90.000000
_cell_volume 3320.927356
_symmetry_space_group_name_H-M "P 42/M C M"
_symmetry_group_IT_number 132
_symmetry_cell_setting 'tetragonal'
loop_
_space_group_symop_operation_xyz
x,y,z
-y,x,1/2+z
-x,-y,z
y,-x,1/2+z
x,-y,1/2-z
-x,y,1/2-z
y,x,-z
-y,-x,-z
-x,-y,-z
y,-x,1/2-z
x,y,-z
-y,x,1/2-z
-x,y,1/2+z
x,-y,1/2+z
-y,-x,z
y,x,z
loop_
_atom_site_type_symbol
_atom_site_label
_atom_site_fract_x
_atom_site_fract_y
_atom_site_fract_z
Si Si1 0.814144 0.926712 0.330336
Si Si2 0.815370 0.301072 0.166284
Si Si3 0.569923 0.761966 0.172888
Si Si4 0.500000 0.500000 0.750000
Si Si5 0.389888 0.389888 0.161994
O O1 0.821636 0.940680 0.500000
O O2 0.879561 0.879561 0.275272
O O3 0.741374 0.886364 0.296842
O O4 0.814601 0.000000 0.250000
O O5 0.748354 0.251647 0.192276
O O6 0.811573 0.366290 0.276366
O O7 0.816479 0.327760 0.000000
O O8 0.500000 0.790845 0.250000
O O9 0.582782 0.682314 0.234734
O O10 0.561138 0.765442 0.000000
O O11 0.550142 0.449859 0.655508
O O12 0.368910 0.368910 0.000000
#
# Coordination Sequence:
#
# PCOD8316759 Si02
#       5
#    16  16  16   2   8
#     4   9  19  35  55  82 115 146 178 210 250 306
#     4   9  18  34  54  75 101 137 176 218 264 311
#     4  11  21  34  49  72  99 130 175 223 268 316
#     4  12  18  36  44  58 100 140 170 208 266 320
#     4  10  21  31  43  64  93 129 169 211 258 313
#
# _framework density 17.465001000000001
#
# number of rings (size 3 to 8) (size 9 to 14) (size 15 to 20)
#    0.000    2.207    2.759    2.690    0.000    1.931 
#    0.000    4.138    0.000    0.828    0.000    5.793 
#    0.000    0.000    0.000    0.000    0.000    0.000 
#
# Total GULP energy -719092.187358 kJ/mol
# GULP energy per Si atom -12398.141161 kJ/mol
# Density = 1.742525 g / cm^3
# Si number density = 17.465001 Si / 1000 Ang^3
#
#
#
# Elastic Constant Matrix: (Units=GPa)
#
#
# Indices 1 2 3 4 5 6 
#
# 1 108.6310 56.5331 51.2590 0.0000 0.0000 0.0000
# 2 56.5331 108.6310 51.2590 0.0000 0.0000 0.0000
# 3 51.2590 51.2590 79.2305 0.0000 0.0000 0.0000
# 4 0.0000 0.0000 0.0000 30.9041 0.0000 0.0000
# 5 0.0000 0.0000 0.0000 0.0000 30.9041 0.0000
# 6 0.0000 0.0000 0.0000 0.0000 0.0000 19.6202
#
#
#
# Elastic Compliance Matrix: (Units=1/GPa)
#
#
# Indices 1 2 3 4 5 6 
#
# 1 0.014656 -0.004539 -0.006546 0.000000 0.000000 0.000000
# 2 -0.004539 0.014656 -0.006546 0.000000 0.000000 0.000000
# 3 -0.006546 -0.006546 0.021091 0.000000 0.000000 0.000000
# 4 0.000000 0.000000 0.000000 0.032358 0.000000 0.000000
# 5 0.000000 0.000000 0.000000 0.000000 0.032358 0.000000
# 6 0.000000 0.000000 0.000000 0.000000 0.000000 0.050968
#
#
# Mechanical properties :
#
#
# Convention : Reuss Voigt Hill
#
# Bulk Modulus (GPa) = 66.03528 68.28830 67.16179
# Shear Modulus (GPa) = 24.22545 25.44844 24.83694
#
# Velocity S-wave (km/s) = 3.72840 3.82135 3.77516
# Velocity P-wave (km/s) = 7.51177 7.65867 7.58558
#
# Compressibility (1/GPa) = 0.01514342
#
# Stress axis : x y z
#
# Youngs Moduli (GPa) = 68.23127 68.23127 47.41388
#
# Poissons Ratio (x) = 0.30967 0.31035
# Poissons Ratio (y) = 0.30967 0.31035
# Poissons Ratio (z) = 0.44661 0.44661
#
# Static dielectric constant tensor:
#      x y z
#    x 3.179200 0.000000 0.000000 
#    y 0.000000 3.179200 0.000000 
#    z 0.000000 0.000000 3.043430 
# 
# 
# High freq. dielectric constant tensor:
#      x y z
#    x 1.663840 0.000000 0.000000 
#    y 0.000000 1.663840 0.000000 
#    z 0.000000 0.000000 1.666830 
# 
# From -- ./inp_files/1032.got.cif
#   From: 2010.03.12/outbox.cif.g09.slc.cpg/sg132_1_cif.got.tgz:1032.got - 2010.04.06 17:53:44.
