data_PCOD8316170
_publ_section_title
;
Structure prediction by ZEFSAII (Michael W. Deem and Ramdas Pophale) SiO2 
 PCOD8316170
Probable space group: P 42/M M C
;
_chemical_formula_sum "Si O2"
_cell_formula_units_Z 120
_cell_length_a 26.699982
_cell_length_b 26.699982
_cell_length_c 8.897169
_cell_angle_alpha 90.000000
_cell_angle_beta 90.000000
_cell_angle_gamma 90.000000
_cell_volume 6342.694256
_symmetry_space_group_name_H-M "P 42/M M C"
_symmetry_group_IT_number 131
_symmetry_cell_setting 'tetragonal'
loop_
_space_group_symop_operation_xyz
x,y,z
-x,-y,z
-y,x,1/2+z
y,-x,1/2+z
-x,y,-z
x,-y,-z
y,x,1/2-z
-y,-x,1/2-z
-x,-y,-z
x,y,-z
y,-x,1/2-z
-y,x,1/2-z
x,-y,z
-x,y,z
-y,-x,1/2+z
y,x,1/2+z
loop_
_atom_site_type_symbol
_atom_site_label
_atom_site_fract_x
_atom_site_fract_y
_atom_site_fract_z
Si Si1 0.941994 0.727640 0.678035
Si Si2 0.624087 0.089347 0.322243
Si Si3 0.776586 0.147602 0.677976
Si Si4 0.000000 0.444947 0.177920
Si Si5 0.367102 0.442425 0.822898
Si Si6 0.698559 0.770334 0.326480
Si Si7 0.165705 0.444724 0.327108
Si Si8 0.587506 0.742950 0.324083
O O1 0.936196 0.729338 0.500000
O O2 0.921265 0.675338 0.738277
O O3 0.908019 0.771546 0.751446
O O4 0.000000 0.735360 0.726114
O O5 0.634755 0.089380 0.500000
O O6 0.598370 0.141045 0.275334
O O7 0.584787 0.048129 0.266753
O O8 0.824242 0.175759 0.750000
O O9 0.784719 0.143494 0.500000
O O10 0.725158 0.177360 0.720278
O O11 0.000000 0.500000 0.251871
O O12 0.000000 0.449190 0.000000
O O13 0.412832 0.412832 0.750000
O O14 0.368895 0.500000 0.768853
O O15 0.314516 0.417631 0.771574
O O16 0.373216 0.438743 0.000000
O O17 0.723500 0.723500 0.250000
O O18 0.706962 0.762033 0.500000
O O19 0.640927 0.767304 0.282619
O O20 0.162782 0.428153 0.500000
O O21 0.141090 0.500000 0.305072
O O22 0.223147 0.450332 0.272111
O O23 0.574639 0.747119 0.500000
#
# Coordination Sequence:
#
# PCOD8316170 Si02
#       8
#    16  16  16   8  16  16  16  16
#     4  11  23  38  57  83 117 152 191 240 293 343
#     4  11  21  36  57  79 106 144 193 243 292 344
#     4  10  20  35  56  83 117 155 197 238 282 337
#     4   9  18  32  51  75 101 135 189 251 300 345
#     4  10  22  39  59  83 108 135 170 212 262 325
#     4   9  18  31  50  78 107 138 174 213 259 314
#     4  11  24  38  52  75 106 139 178 225 280 337
#     4  10  20  36  57  80 106 137 174 215 262 322
#
# _framework density 18.919405000000001
#
# number of rings (size 3 to 8) (size 9 to 14) (size 15 to 20)
#    0.000    1.800    0.667    3.600    0.000    6.000 
#    0.000    0.667    0.000    1.600    0.000    0.000 
#    0.000    0.267    0.000    2.800    0.000    1.200 
#
# Total GULP energy -1487782.365344 kJ/mol
# GULP energy per Si atom -12398.186378 kJ/mol
# Density = 1.887634 g / cm^3
# Si number density = 18.919405 Si / 1000 Ang^3
#
#
#
# Elastic Constant Matrix: (Units=GPa)
#
#
# Indices 1 2 3 4 5 6 
#
# 1 110.0674 53.3688 40.9081 0.0000 0.0000 0.0000
# 2 53.3688 110.0697 40.9078 0.0000 0.0000 0.0000
# 3 40.9081 40.9078 54.4601 0.0000 0.0000 0.0000
# 4 0.0000 0.0000 0.0000 27.9616 0.0000 0.0000
# 5 0.0000 0.0000 0.0000 0.0000 27.9616 0.0000
# 6 0.0000 0.0000 0.0000 0.0000 0.0000 35.9436
#
#
#
# Elastic Compliance Matrix: (Units=1/GPa)
#
#
# Indices 1 2 3 4 5 6 
#
# 1 0.013722 -0.003916 -0.007366 0.000000 0.000000 0.000000
# 2 -0.003916 0.013721 -0.007365 0.000000 0.000000 0.000000
# 3 -0.007366 -0.007365 0.029428 0.000000 0.000000 0.000000
# 4 0.000000 0.000000 0.000000 0.035763 0.000000 0.000000
# 5 0.000000 0.000000 0.000000 0.000000 0.035763 0.000000
# 6 0.000000 0.000000 0.000000 0.000000 0.000000 0.027821
#
#
# Mechanical properties :
#
#
# Convention : Reuss Voigt Hill
#
# Bulk Modulus (GPa) = 51.08170 60.55185 55.81678
# Shear Modulus (GPa) = 24.99538 27.66755 26.33146
#
# Velocity S-wave (km/s) = 3.63871 3.82827 3.73469
# Velocity P-wave (km/s) = 6.68669 7.18439 6.94000
#
# Compressibility (1/GPa) = 0.01957648
#
# Stress axis : x y z
#
# Youngs Moduli (GPa) = 72.87832 72.88091 33.98180
#
# Poissons Ratio (x) = 0.28537 0.25031
# Poissons Ratio (y) = 0.28536 0.25029
# Poissons Ratio (z) = 0.53681 0.53680
#
# Static dielectric constant tensor:
#      x y z
#    x 3.539010 0.000000 0.000000 
#    y 0.000000 3.539020 0.000000 
#    z 0.000000 0.000000 3.361840 
# 
# 
# High freq. dielectric constant tensor:
#      x y z
#    x 1.729140 0.000000 0.000000 
#    y 0.000000 1.729140 0.000000 
#    z 0.000000 0.000000 1.731090 
# 
# From -- ./inp_files/2627.got.cif
#   From: 2010.03.12/outbox.cif.g09.slc.cpg/sg131_2_cif.got.tgz:2627.got - 2010.04.06 17:36:35.
