data_PCOD8316503
_publ_section_title
;
Structure prediction by ZEFSAII (Michael W. Deem and Ramdas Pophale) SiO2 
 PCOD8316503
Probable space group: P 42/M C M
;
_chemical_formula_sum "Si O2"
_cell_formula_units_Z 80
_cell_length_a 16.349113
_cell_length_b 16.349113
_cell_length_c 18.386551
_cell_angle_alpha 90.000000
_cell_angle_beta 90.000000
_cell_angle_gamma 90.000000
_cell_volume 4914.605494
_symmetry_space_group_name_H-M "P 42/M C M"
_symmetry_group_IT_number 132
_symmetry_cell_setting 'tetragonal'
loop_
_space_group_symop_operation_xyz
x,y,z
-y,x,1/2+z
-x,-y,z
y,-x,1/2+z
x,-y,1/2-z
-x,y,1/2-z
y,x,-z
-y,-x,-z
-x,-y,-z
y,-x,1/2-z
x,y,-z
-y,x,1/2-z
-x,y,1/2+z
x,-y,1/2+z
-y,-x,z
y,x,z
loop_
_atom_site_type_symbol
_atom_site_label
_atom_site_fract_x
_atom_site_fract_y
_atom_site_fract_z
Si Si1 0.656780 0.791768 0.213479
Si Si2 0.088884 0.774265 0.223840
Si Si3 0.580011 0.714237 0.916427
Si Si4 0.267821 0.404136 0.644284
Si Si5 0.715003 0.148072 0.079215
O O1 0.730341 0.730341 0.228012
O O2 0.696745 0.880640 0.227595
O O3 0.621348 0.786017 0.131945
O O4 0.587759 0.766140 0.272818
O O5 0.147203 0.852798 0.231642
O O6 0.083214 0.742478 0.140365
O O7 0.000000 0.801523 0.250000
O O8 0.629557 0.629557 0.905944
O O9 0.489136 0.700065 0.887759
O O10 0.581439 0.743034 0.000000
O O11 0.345050 0.345050 0.639189
O O12 0.191160 0.371450 0.597068
O O13 0.781012 0.218989 0.078203
O O14 0.709220 0.104730 0.000000
#
# Coordination Sequence:
#
# PCOD8316503 Si02
#       5
#    16  16  16  16  16
#     4   8  16  31  46  60  82 116 155 182 204 252
#     4   9  17  30  50  73  93 113 138 170 211 262
#     4  10  19  28  40  61  90 121 150 184 225 264
#     4   9  16  27  45  65  84 112 152 194 231 261
#     4   8  14  26  45  67  89 115 149 185 215 248
#
# _framework density 16.278010999999999
#
# number of rings (size 3 to 8) (size 9 to 14) (size 15 to 20)
#    0.000    3.200    0.000    3.600    0.000    1.800 
#    0.000    2.000    0.000   15.000    0.000    9.800 
#    0.000    0.000    0.000    0.000    0.000    0.000 
#
# Total GULP energy -991198.424383 kJ/mol
# GULP energy per Si atom -12389.980305 kJ/mol
# Density = 1.624096 g / cm^3
# Si number density = 16.278011 Si / 1000 Ang^3
#
#
#
# Elastic Constant Matrix: (Units=GPa)
#
#
# Indices 1 2 3 4 5 6 
#
# 1 60.0093 43.2086 51.5749 0.0000 0.0000 0.0000
# 2 43.2086 60.0093 51.5749 0.0000 0.0000 0.0000
# 3 51.5749 51.5749 137.5653 0.0000 0.0000 0.0000
# 4 0.0000 0.0000 0.0000 18.4093 0.0000 0.0000
# 5 0.0000 0.0000 0.0000 0.0000 18.4093 0.0000
# 6 0.0000 0.0000 0.0000 0.0000 0.0000 12.1110
#
#
#
# Elastic Compliance Matrix: (Units=1/GPa)
#
#
# Indices 1 2 3 4 5 6 
#
# 1 0.037507 -0.022014 -0.005808 0.000000 0.000000 0.000000
# 2 -0.022014 0.037507 -0.005808 0.000000 0.000000 0.000000
# 3 -0.005808 -0.005808 0.011625 0.000000 0.000000 0.000000
# 4 0.000000 0.000000 0.000000 0.054320 0.000000 0.000000
# 5 0.000000 0.000000 0.000000 0.000000 0.054320 0.000000
# 6 0.000000 0.000000 0.000000 0.000000 0.000000 0.082570
#
#
# Mechanical properties :
#
#
# Convention : Reuss Voigt Hill
#
# Bulk Modulus (GPa) = 51.60896 61.14452 56.37674
# Shear Modulus (GPa) = 14.22191 17.20098 15.71144
#
# Velocity S-wave (km/s) = 2.95903 3.25422 3.11013
# Velocity P-wave (km/s) = 6.59151 7.19473 6.89971
#
# Compressibility (1/GPa) = 0.01937648
#
# Stress axis : x y z
#
# Youngs Moduli (GPa) = 26.66157 26.66157 86.02453
#
# Poissons Ratio (x) = 0.58694 0.49967
# Poissons Ratio (y) = 0.58694 0.49967
# Poissons Ratio (z) = 0.15486 0.15486
#
# Static dielectric constant tensor:
#      x y z
#    x 2.778410 0.000000 0.000000 
#    y 0.000000 2.778410 0.000000 
#    z 0.000000 0.000000 3.496230 
# 
# 
# High freq. dielectric constant tensor:
#      x y z
#    x 1.595790 0.000000 0.000000 
#    y 0.000000 1.595790 0.000000 
#    z 0.000000 0.000000 1.640220 
# 
# From -- ./inp_files/7650.got.cif
#   From: 2010.03.12/outbox.cif.g09.slc.cpg/sg132_4_cif.got.tgz:7650.got - 2010.04.06 17:53:44.
