data_PCOD8316918
_publ_section_title
;
Structure prediction by ZEFSAII (Michael W. Deem and Ramdas Pophale) SiO2 
 PCOD8316918
Probable space group: P 42/N B C
;
_chemical_formula_sum "Si O2"
_cell_formula_units_Z 64
_cell_length_a 13.410664
_cell_length_b 13.410664
_cell_length_c 17.717691
_cell_angle_alpha 90.000000
_cell_angle_beta 90.000000
_cell_angle_gamma 90.000000
_cell_volume 3186.454242
_symmetry_space_group_name_H-M "P 42/N B C"
_symmetry_group_IT_number 133
_space_group.IT_coordinate_system_code '2'
_symmetry_cell_setting 'tetragonal'
loop_
_space_group_symop_operation_xyz
x,y,z
1/2-y,x,1/2+z
1/2-x,1/2-y,z
y,1/2-x,1/2+z
x,1/2-y,-z
1/2-x,y,-z
y,x,1/2-z
1/2-y,1/2-x,1/2-z
-x,-y,-z
1/2+y,-x,1/2-z
1/2+x,1/2+y,-z
-y,1/2+x,1/2-z
-x,1/2+y,z
1/2+x,-y,z
-y,-x,1/2+z
1/2+y,1/2+x,1/2+z
loop_
_atom_site_type_symbol
_atom_site_label
_atom_site_fract_x
_atom_site_fract_y
_atom_site_fract_z
Si Si1 0.915559 0.250000 0.500000
Si Si2 0.750000 0.250000 0.112813
Si Si3 0.929710 0.149933 0.803653
Si Si4 0.492181 0.063941 0.573142
Si Si5 0.483123 0.354660 0.199532
O O1 0.839391 0.298312 0.438181
O O2 0.988526 0.323639 0.545410
O O3 0.832924 0.293704 0.166864
O O4 0.970870 0.075318 0.867041
O O5 0.012575 0.235098 0.789679
O O6 0.905012 0.087519 0.727916
O O7 0.500000 0.000000 0.500000
O O8 0.385392 0.043860 0.613213
O O9 0.391201 0.391201 0.250000
#
# Coordination Sequence:
#
# PCOD8316918 Si02
#       5
#     8   8  16  16  16
#     4   9  18  32  52  83 112 134 182 233 280 333
#     4   9  16  29  56  84 104 138 174 240 304 316
#     4  10  19  34  55  82 112 137 181 228 274 330
#     4  10  21  35  55  80 109 144 179 225 276 323
#     4  10  21  34  54  82 111 148 181 225 278 324
#
# _framework density 20.085021000000001
#
# number of rings (size 3 to 8) (size 9 to 14) (size 15 to 20)
#    0.000    2.250    0.000    3.000    0.000    7.000 
#    0.000    0.000    0.000   18.750    0.000    0.000 
#    0.000    0.000    0.000    0.000    0.000    0.000 
#
# Total GULP energy -793027.138906 kJ/mol
# GULP energy per Si atom -12391.049045 kJ/mol
# Density = 2.003931 g / cm^3
# Si number density = 20.085021 Si / 1000 Ang^3
#
#
#
# Elastic Constant Matrix: (Units=GPa)
#
#
# Indices 1 2 3 4 5 6 
#
# 1 70.8592 27.0180 22.0024 0.0000 0.0000 0.0000
# 2 27.0180 70.8592 22.0024 0.0000 0.0000 0.0000
# 3 22.0024 22.0024 102.7572 0.0000 0.0000 0.0000
# 4 0.0000 0.0000 0.0000 30.2928 0.0000 0.0000
# 5 0.0000 0.0000 0.0000 0.0000 30.2928 0.0000
# 6 0.0000 0.0000 0.0000 0.0000 0.0000 31.4575
#
#
#
# Elastic Compliance Matrix: (Units=1/GPa)
#
#
# Indices 1 2 3 4 5 6 
#
# 1 0.017057 -0.005752 -0.002421 0.000000 0.000000 0.000000
# 2 -0.005752 0.017057 -0.002421 0.000000 0.000000 0.000000
# 3 -0.002421 -0.002421 0.010768 0.000000 0.000000 0.000000
# 4 0.000000 0.000000 0.000000 0.033011 0.000000 0.000000
# 5 0.000000 0.000000 0.000000 0.000000 0.033011 0.000000
# 6 0.000000 0.000000 0.000000 0.000000 0.000000 0.031789
#
#
# Mechanical properties :
#
#
# Convention : Reuss Voigt Hill
#
# Bulk Modulus (GPa) = 42.20117 42.94679 42.57398
# Shear Modulus (GPa) = 29.10699 29.97215 29.53957
#
# Velocity S-wave (km/s) = 3.81095 3.86717 3.83917
# Velocity P-wave (km/s) = 6.35778 6.43187 6.39493
#
# Compressibility (1/GPa) = 0.02369602
#
# Stress axis : x y z
#
# Youngs Moduli (GPa) = 58.62560 58.62560 92.86516
#
# Poissons Ratio (x) = 0.33723 0.22480
# Poissons Ratio (y) = 0.33723 0.22480
# Poissons Ratio (z) = 0.14191 0.14191
#
# Static dielectric constant tensor:
#      x y z
#    x 3.413320 0.000000 0.000000 
#    y 0.000000 3.413320 0.000000 
#    z 0.000000 0.000000 3.915470 
# 
# 
# High freq. dielectric constant tensor:
#      x y z
#    x 1.762860 0.000000 0.000000 
#    y 0.000000 1.762860 0.000000 
#    z 0.000000 0.000000 1.803600 
# 
# From -- ./inp_files/5242.got.cif
#   From: 2010.03.12/outbox.cif.g09.slc.cpg/sg133_3_cif.got.tgz:5242.got - 2010.04.06 18:08:06.
