data_PCOD8316827
_publ_section_title
;
Structure prediction by ZEFSAII (Michael W. Deem and Ramdas Pophale) SiO2 
 PCOD8316827
Probable space group: P 42/M C M
;
_chemical_formula_sum "Si O2"
_cell_formula_units_Z 80
_cell_length_a 16.869773
_cell_length_b 16.869773
_cell_length_c 14.296646
_cell_angle_alpha 90.000000
_cell_angle_beta 90.000000
_cell_angle_gamma 90.000000
_cell_volume 4068.671635
_symmetry_space_group_name_H-M "P 42/M C M"
_symmetry_group_IT_number 132
_symmetry_cell_setting 'tetragonal'
loop_
_space_group_symop_operation_xyz
x,y,z
-y,x,1/2+z
-x,-y,z
y,-x,1/2+z
x,-y,1/2-z
-x,y,1/2-z
y,x,-z
-y,-x,-z
-x,-y,-z
y,-x,1/2-z
x,y,-z
-y,x,1/2-z
-x,y,1/2+z
x,-y,1/2+z
-y,-x,z
y,x,z
loop_
_atom_site_type_symbol
_atom_site_label
_atom_site_fract_x
_atom_site_fract_y
_atom_site_fract_z
Si Si1 0.157195 0.334174 0.896056
Si Si2 0.275409 0.594209 0.750001
Si Si3 1.000000 0.591237 0.147222
Si Si4 0.094008 0.785036 0.750000
Si Si5 0.334174 0.842806 0.103944
O O1 0.225626 0.381952 0.841899
O O2 0.131419 0.255408 0.841901
O O3 0.078942 0.387491 0.908359
O O4 0.188515 0.313110 0.000000
O O5 0.291943 0.500000 0.750000
O O6 0.359107 0.640894 0.750002
O O7 0.225624 0.618046 0.841899
O O8 0.078940 0.612510 0.091640
O O9 0.000000 0.500000 0.166484
O O10 0.000000 0.635027 0.250000
O O11 0.124300 0.875701 0.750000
O O12 0.131420 0.744592 0.841900
O O13 0.000000 0.785535 0.750000
O O14 0.313110 0.811486 0.000000
#
# Coordination Sequence:
#
# PCOD8316827 Si02
#       5
#    16  16  16  16  16
#     4  11  21  38  62  90 122 154 192 241 300 361
#     4  11  25  43  62  88 121 158 205 254 297 351
#     4  11  19  31  55  88 127 158 182 228 294 365
#     4  11  23  40  59  85 120 157 202 247 287 343
#     4  11  21  38  62  90 122 154 192 241 300 361
#
# _framework density 19.662438000000002
#
# number of rings (size 3 to 8) (size 9 to 14) (size 15 to 20)
#    0.000    1.000    6.000    4.200    0.000    7.600 
#    0.000    0.000    0.000    0.000    0.000    5.600 
#    0.000    0.000    0.000    0.000    0.000    0.000 
#
# Total GULP energy -991655.826823 kJ/mol
# GULP energy per Si atom -12395.697835 kJ/mol
# Density = 1.961769 g / cm^3
# Si number density = 19.662438 Si / 1000 Ang^3
#
#
#
# Elastic Constant Matrix: (Units=GPa)
#
#
# Indices 1 2 3 4 5 6 
#
# 1 107.0367 97.9599 40.9143 0.0000 0.0000 0.0000
# 2 97.9599 107.0367 40.9143 0.0000 0.0000 0.0000
# 3 40.9143 40.9143 170.8809 0.0000 0.0000 0.0000
# 4 0.0000 0.0000 0.0000 -6.8617 0.0000 0.0000
# 5 0.0000 0.0000 0.0000 0.0000 -6.8617 0.0000
# 6 0.0000 0.0000 0.0000 0.0000 0.0000 30.9516
#
#
#
# Elastic Compliance Matrix: (Units=1/GPa)
#
#
# Indices 1 2 3 4 5 6 
#
# 1 0.057782 -0.052389 -0.001291 0.000000 0.000000 0.000000
# 2 -0.052389 0.057782 -0.001291 0.000000 0.000000 0.000000
# 3 -0.001291 -0.001291 0.006470 0.000000 0.000000 0.000000
# 4 0.000000 0.000000 0.000000 -0.145737 0.000000 0.000000
# 5 0.000000 0.000000 0.000000 0.000000 -0.145737 0.000000
# 6 0.000000 0.000000 0.000000 0.000000 0.000000 0.032309
#
#
# Mechanical properties :
#
#
# Convention : Reuss Voigt Hill
#
# Bulk Modulus (GPa) = 82.69891 82.72572 82.71231
# Shear Modulus (GPa) = -215.91611 17.12338 -99.39637
#
# Velocity S-wave (km/s) = -10.49046 2.95425 -7.11766
# Velocity P-wave (km/s) = 10.22656 7.33492 5.03892
#
# Compressibility (1/GPa) = 0.01209206
#
# Stress axis : x y z
#
# Youngs Moduli (GPa) = 17.30633 17.30633 154.54913
#
# Poissons Ratio (x) = 0.90666 0.19959
# Poissons Ratio (y) = 0.90666 0.19959
# Poissons Ratio (z) = 0.02235 0.02235
#
# Static dielectric constant tensor:
#      x y z
#    x 4.030160 0.000000 0.000000 
#    y 0.000000 4.030160 0.000000 
#    z 0.000000 0.000000 3.698070 
# 
# 
# High freq. dielectric constant tensor:
#      x y z
#    x 1.757730 0.000000 0.000000 
#    y 0.000000 1.757730 0.000000 
#    z 0.000000 0.000000 1.770210 
# 
# From -- ./inp_files/4658.got.cif
#   From: 2010.03.12/outbox.cif.g09.slc.cpg/sg132_3_cif.got.tgz:4658.got - 2010.04.06 17:53:44.
