data_PCOD8316656
_publ_section_title
;
Structure prediction by ZEFSAII (Michael W. Deem and Ramdas Pophale) SiO2 
 PCOD8316656
Probable space group: P 42/M C M
;
_chemical_formula_sum "Si O2"
_cell_formula_units_Z 104
_cell_length_a 14.440532
_cell_length_b 14.440532
_cell_length_c 25.302321
_cell_angle_alpha 90.000000
_cell_angle_beta 90.000000
_cell_angle_gamma 90.000000
_cell_volume 5276.266796
_symmetry_space_group_name_H-M "P 42/M C M"
_symmetry_group_IT_number 132
_symmetry_cell_setting 'tetragonal'
loop_
_space_group_symop_operation_xyz
x,y,z
-y,x,1/2+z
-x,-y,z
y,-x,1/2+z
x,-y,1/2-z
-x,y,1/2-z
y,x,-z
-y,-x,-z
-x,-y,-z
y,-x,1/2-z
x,y,-z
-y,x,1/2-z
-x,y,1/2+z
x,-y,1/2+z
-y,-x,z
y,x,z
loop_
_atom_site_type_symbol
_atom_site_label
_atom_site_fract_x
_atom_site_fract_y
_atom_site_fract_z
Si Si1 0.255229 0.892777 0.398373
Si Si2 0.000000 0.500000 0.637702
Si Si3 0.452952 0.156103 0.938369
Si Si4 0.388913 0.759458 0.109736
Si Si5 0.401800 0.751144 0.767780
Si Si6 0.336202 0.069525 0.793031
Si Si7 0.100314 0.752647 0.939256
O O1 0.167097 0.832904 0.415906
O O2 0.346570 0.840220 0.420267
O O3 0.258349 0.897755 0.334530
O O4 0.244596 0.993995 0.422297
O O5 0.084818 0.488587 0.597503
O O6 0.010346 0.588723 0.674573
O O7 0.514117 0.247269 0.923876
O O8 0.458278 0.131810 0.000000
O O9 0.338067 0.661934 0.099931
O O10 0.408908 0.776313 0.171096
O O11 0.323806 0.844176 0.092758
O O12 0.500000 0.708867 0.750000
O O13 0.322438 0.677562 0.755151
O O14 0.383174 0.843424 0.734589
O O15 0.291211 0.000000 0.750000
O O16 0.146151 0.853850 0.929922
O O17 0.105661 0.723110 0.000000
#
# Coordination Sequence:
#
# PCOD8316656 Si02
#       7
#    16   8  16  16  16  16  16
#     4  11  24  39  55  80 115 153 192 230 269 323
#     4  10  20  32  52  82 114 140 174 224 284 338
#     4  11  21  34  56  83 113 148 186 230 280 335
#     4  10  21  37  58  85 114 141 178 234 292 339
#     4  11  22  37  57  81 111 148 188 228 275 331
#     4  11  20  34  57  83 109 141 180 228 282 334
#     4  10  21  38  61  86 111 142 182 229 282 338
#
# _framework density 19.710905
#
# number of rings (size 3 to 8) (size 9 to 14) (size 15 to 20)
#    0.000    1.385    0.000    8.308    0.000    2.615 
#    0.000    1.538    0.000    1.385    0.000    1.077 
#    0.000    0.000    0.000    0.000    0.000    0.000 
#
# Total GULP energy -1289313.634737 kJ/mol
# GULP energy per Si atom -12397.246488 kJ/mol
# Density = 1.966604 g / cm^3
# Si number density = 19.710905 Si / 1000 Ang^3
#
#
#
# Elastic Constant Matrix: (Units=GPa)
#
#
# Indices 1 2 3 4 5 6 
#
# 1 83.4924 54.0063 53.6737 0.0000 0.0000 0.0000
# 2 54.0063 83.4924 53.6737 0.0000 0.0000 0.0000
# 3 53.6737 53.6737 134.6799 0.0000 0.0000 0.0000
# 4 0.0000 0.0000 0.0000 14.2958 0.0000 0.0000
# 5 0.0000 0.0000 0.0000 0.0000 14.2958 0.0000
# 6 0.0000 0.0000 0.0000 0.0000 0.0000 23.2410
#
#
#
# Elastic Compliance Matrix: (Units=1/GPa)
#
#
# Indices 1 2 3 4 5 6 
#
# 1 0.022236 -0.011678 -0.004208 0.000000 0.000000 0.000000
# 2 -0.011678 0.022236 -0.004208 0.000000 0.000000 0.000000
# 3 -0.004208 -0.004208 0.010779 0.000000 0.000000 0.000000
# 4 0.000000 0.000000 0.000000 0.069950 0.000000 0.000000
# 5 0.000000 0.000000 0.000000 0.000000 0.069950 0.000000
# 6 0.000000 0.000000 0.000000 0.000000 0.000000 0.043027
#
#
# Mechanical properties :
#
#
# Convention : Reuss Voigt Hill
#
# Bulk Modulus (GPa) = 66.38391 69.37467 67.87929
# Shear Modulus (GPa) = 17.64373 19.72062 18.68218
#
# Velocity S-wave (km/s) = 2.99511 3.16649 3.08199
# Velocity P-wave (km/s) = 6.76112 6.97434 6.86856
#
# Compressibility (1/GPa) = 0.01506389
#
# Stress axis : x y z
#
# Youngs Moduli (GPa) = 44.97215 44.97215 92.77611
#
# Poissons Ratio (x) = 0.52520 0.39036
# Poissons Ratio (y) = 0.52520 0.39036
# Poissons Ratio (z) = 0.18922 0.18922
#
# Static dielectric constant tensor:
#      x y z
#    x 3.623200 0.000000 0.000000 
#    y 0.000000 3.623200 0.000000 
#    z 0.000000 0.000000 3.879150 
# 
# 
# High freq. dielectric constant tensor:
#      x y z
#    x 1.756080 0.000000 0.000000 
#    y 0.000000 1.756080 0.000000 
#    z 0.000000 0.000000 1.789850 
# 
# From -- ./inp_files/9141.got.cif
#   From: 2010.03.12/outbox.cif.g09.slc.cpg/sg132_5_cif.got.tgz:9141.got - 2010.04.06 17:53:44.
