data_PCOD8316850
_publ_section_title
;
Structure prediction by ZEFSAII (Michael W. Deem and Ramdas Pophale) SiO2 
 PCOD8316850
Probable space group: P 42/M C M
;
_chemical_formula_sum "Si O2"
_cell_formula_units_Z 80
_cell_length_a 11.754954
_cell_length_b 11.754954
_cell_length_c 29.094414
_cell_angle_alpha 90.000000
_cell_angle_beta 90.000000
_cell_angle_gamma 90.000000
_cell_volume 4020.235389
_symmetry_space_group_name_H-M "P 42/M C M"
_symmetry_group_IT_number 132
_symmetry_cell_setting 'tetragonal'
loop_
_space_group_symop_operation_xyz
x,y,z
-y,x,1/2+z
-x,-y,z
y,-x,1/2+z
x,-y,1/2-z
-x,y,1/2-z
y,x,-z
-y,-x,-z
-x,-y,-z
y,-x,1/2-z
x,y,-z
-y,x,1/2-z
-x,y,1/2+z
x,-y,1/2+z
-y,-x,z
y,x,z
loop_
_atom_site_type_symbol
_atom_site_label
_atom_site_fract_x
_atom_site_fract_y
_atom_site_fract_z
Si Si1 0.150719 0.331336 0.640353
Si Si2 0.040597 0.225831 0.802985
Si Si3 0.405652 0.405652 0.915591
Si Si4 0.407176 0.407176 0.190926
Si Si5 0.160522 0.542684 0.296501
Si Si6 0.234294 0.576802 0.949648
O O1 0.276213 0.276213 0.648979
O O2 0.131026 0.448813 0.666099
O O3 0.143086 0.369011 0.586584
O O4 0.060657 0.237884 0.659356
O O5 0.111367 0.111367 0.814036
O O6 0.118794 0.334393 0.811728
O O7 0.000000 0.220207 0.750000
O O8 0.500000 0.500000 0.924403
O O9 0.384535 0.384535 0.862375
O O10 0.285144 0.451638 0.936070
O O11 0.500000 0.500000 0.201543
O O12 0.293003 0.450279 0.214092
O O13 0.099553 0.500000 0.250000
O O14 0.341051 0.658949 0.952432
O O15 0.175224 0.567639 0.000000
#
# Coordination Sequence:
#
# PCOD8316850 Si02
#       6
#    16  16   8   8  16  16
#     4  11  23  39  61  89 121 155 200 253 302 354
#     4  12  26  43  61  84 113 160 208 252 298 358
#     4   9  15  28  49  84 124 157 193 237 292 356
#     4  11  22  33  54  89 129 159 188 235 290 358
#     4  12  24  38  57  85 121 161 199 235 295 365
#     4   9  17  31  54  85 120 157 198 247 302 358
#
# _framework density 19.899332000000001
#
# number of rings (size 3 to 8) (size 9 to 14) (size 15 to 20)
#    0.000    1.200    5.000    2.100    2.800    2.600 
#    0.000    0.000    0.000    3.000    0.000    2.800 
#    0.000    0.000    0.000    0.000    0.000    0.000 
#
# Total GULP energy -991190.470216 kJ/mol
# GULP energy per Si atom -12389.880878 kJ/mol
# Density = 1.985404 g / cm^3
# Si number density = 19.899332 Si / 1000 Ang^3
#
#
#
# Elastic Constant Matrix: (Units=GPa)
#
#
# Indices 1 2 3 4 5 6 
#
# 1 88.4114 29.3670 41.5799 0.0000 0.0000 0.0000
# 2 29.3670 88.4114 41.5799 0.0000 0.0000 0.0000
# 3 41.5799 41.5799 144.5057 0.0000 0.0000 0.0000
# 4 0.0000 0.0000 0.0000 5.5102 0.0000 0.0000
# 5 0.0000 0.0000 0.0000 0.0000 5.5102 0.0000
# 6 0.0000 0.0000 0.0000 0.0000 0.0000 22.2115
#
#
#
# Elastic Compliance Matrix: (Units=1/GPa)
#
#
# Indices 1 2 3 4 5 6 
#
# 1 0.013796 -0.003141 -0.003066 0.000000 0.000000 0.000000
# 2 -0.003141 0.013796 -0.003066 0.000000 0.000000 0.000000
# 3 -0.003066 -0.003066 0.008685 0.000000 0.000000 0.000000
# 4 0.000000 0.000000 0.000000 0.181481 0.000000 0.000000
# 5 0.000000 0.000000 0.000000 0.000000 0.181481 0.000000
# 6 0.000000 0.000000 0.000000 0.000000 0.000000 0.045022
#
#
# Mechanical properties :
#
#
# Convention : Reuss Voigt Hill
#
# Bulk Modulus (GPa) = 56.39731 60.70912 58.55322
# Shear Modulus (GPa) = 10.66748 20.56652 15.61700
#
# Velocity S-wave (km/s) = 2.31783 3.21834 2.80447
# Velocity P-wave (km/s) = 5.96372 6.66218 6.32260
#
# Compressibility (1/GPa) = 0.01773134
#
# Stress axis : x y z
#
# Youngs Moduli (GPa) = 72.48563 72.48563 115.14742
#
# Poissons Ratio (x) = 0.22764 0.35303
# Poissons Ratio (y) = 0.22764 0.35303
# Poissons Ratio (z) = 0.22224 0.22224
#
# Static dielectric constant tensor:
#      x y z
#    x 3.673690 0.000000 0.000000 
#    y 0.000000 3.673690 0.000000 
#    z 0.000000 0.000000 3.812180 
# 
# 
# High freq. dielectric constant tensor:
#      x y z
#    x 1.763140 0.000000 0.000000 
#    y 0.000000 1.763140 0.000000 
#    z 0.000000 0.000000 1.767280 
# 
# From -- ./inp_files/10669.got.cif
#   From: 2010.03.12/outbox.cif.g09.slc.cpg/sg132_6_cif.got.tgz:10669.got - 2010.04.06 17:53:44.
