data_PCOD8316065
_publ_section_title
;
Structure prediction by ZEFSAII (Michael W. Deem and Ramdas Pophale) SiO2 
 PCOD8316065
Probable space group: P 42/M M C
;
_chemical_formula_sum "Si O2"
_cell_formula_units_Z 58
_cell_length_a 15.271337
_cell_length_b 15.271337
_cell_length_c 14.526503
_cell_angle_alpha 90.000000
_cell_angle_beta 90.000000
_cell_angle_gamma 90.000000
_cell_volume 3387.780003
_symmetry_space_group_name_H-M "P 42/M M C"
_symmetry_group_IT_number 131
_symmetry_cell_setting 'tetragonal'
loop_
_space_group_symop_operation_xyz
x,y,z
-x,-y,z
-y,x,1/2+z
y,-x,1/2+z
-x,y,-z
x,-y,-z
y,x,1/2-z
-y,-x,1/2-z
-x,-y,-z
x,y,-z
y,-x,1/2-z
-y,x,1/2-z
x,-y,z
-x,y,z
-y,-x,1/2+z
y,x,1/2+z
loop_
_atom_site_type_symbol
_atom_site_label
_atom_site_fract_x
_atom_site_fract_y
_atom_site_fract_z
Si Si1 0.674719 0.249557 0.396996
Si Si2 0.500000 0.500000 0.750000
Si Si3 0.098968 0.399830 0.215434
Si Si4 0.500000 0.646305 0.400175
Si Si5 0.193642 0.401557 0.395092
O O1 0.701531 0.220519 0.500000
O O2 0.670566 0.162938 0.333749
O O3 0.580247 0.289907 0.393715
O O4 0.738896 0.326655 0.361955
O O5 0.416605 0.500000 0.814216
O O6 0.115259 0.500000 0.181445
O O7 0.111989 0.395204 0.325950
O O8 0.000000 0.371083 0.193265
O O9 0.500000 0.596736 0.500000
O O10 0.162177 0.385302 0.500000
O O11 0.236360 0.500000 0.387588
#
# Coordination Sequence:
#
# PCOD8316065 Si02
#       5
#    16   2  16   8  16
#     4  10  20  34  49  67  98 132 166 208 245 291
#     4  12  26  28  52  70  92 144 174 220 244 278
#     4  10  20  32  49  70  95 130 172 210 247 296
#     4  10  23  35  44  68  98 130 171 207 248 291
#     4   9  19  33  51  72  97 129 163 206 255 297
#
# _framework density 17.120356000000001
#
# number of rings (size 3 to 8) (size 9 to 14) (size 15 to 20)
#    0.000    2.207    1.379    1.034    5.793    1.103 
#    0.000    4.138    0.000    0.000    0.000    0.000 
#    0.000    8.828    0.000   24.276    0.000    0.552 
#
# Total GULP energy -718628.035814 kJ/mol
# GULP energy per Si atom -12390.138549 kJ/mol
# Density = 1.708139 g / cm^3
# Si number density = 17.120356 Si / 1000 Ang^3
#
#
#
# Elastic Constant Matrix: (Units=GPa)
#
#
# Indices 1 2 3 4 5 6 
#
# 1 81.3827 25.9325 36.9630 0.0000 0.0000 0.0000
# 2 25.9325 81.3827 36.9630 0.0000 0.0000 0.0000
# 3 36.9630 36.9630 86.1143 0.0000 0.0000 0.0000
# 4 0.0000 0.0000 0.0000 19.4666 0.0000 0.0000
# 5 0.0000 0.0000 0.0000 0.0000 19.4666 0.0000
# 6 0.0000 0.0000 0.0000 0.0000 0.0000 -13.2972
#
#
#
# Elastic Compliance Matrix: (Units=1/GPa)
#
#
# Indices 1 2 3 4 5 6 
#
# 1 0.015632 -0.002402 -0.005679 0.000000 0.000000 0.000000
# 2 -0.002402 0.015632 -0.005679 0.000000 0.000000 0.000000
# 3 -0.005679 -0.005679 0.016488 0.000000 0.000000 0.000000
# 4 0.000000 0.000000 0.000000 0.051370 0.000000 0.000000
# 5 0.000000 0.000000 0.000000 0.000000 0.051370 0.000000
# 6 0.000000 0.000000 0.000000 0.000000 0.000000 -0.075204
#
#
# Mechanical properties :
#
#
# Convention : Reuss Voigt Hill
#
# Bulk Modulus (GPa) = 49.42484 49.84407 49.63445
# Shear Modulus (GPa) = 45.64057 15.06197 30.35127
#
# Velocity S-wave (km/s) = 5.16880 2.96931 4.21505
# Velocity P-wave (km/s) = 8.03454 6.39788 7.26246
#
# Compressibility (1/GPa) = 0.02023274
#
# Stress axis : x y z
#
# Youngs Moduli (GPa) = 63.97027 63.97027 60.65173
#
# Poissons Ratio (x) = 0.15365 0.34443
# Poissons Ratio (y) = 0.15365 0.34443
# Poissons Ratio (z) = 0.36328 0.36328
#
# Static dielectric constant tensor:
#      x y z
#    x 2.912140 0.000000 0.000000 
#    y 0.000000 2.912140 0.000000 
#    z 0.000000 0.000000 3.597170 
# 
# 
# High freq. dielectric constant tensor:
#      x y z
#    x 1.628530 0.000000 0.000000 
#    y 0.000000 1.628530 0.000000 
#    z 0.000000 0.000000 1.679190 
# 
# From -- ./inp_files/5483.got.cif
#   From: 2010.03.12/outbox.cif.g09.slc.cpg/sg131_3_cif.got.tgz:5483.got - 2010.04.06 17:36:35.
