data_PCOD8316473
_publ_section_title
;
Structure prediction by ZEFSAII (Michael W. Deem and Ramdas Pophale) SiO2 
 PCOD8316473
Probable space group: P 42/M C M
;
_chemical_formula_sum "Si O2"
_cell_formula_units_Z 82
_cell_length_a 17.155235
_cell_length_b 17.155235
_cell_length_c 17.667386
_cell_angle_alpha 90.000000
_cell_angle_beta 90.000000
_cell_angle_gamma 90.000000
_cell_volume 5199.548588
_symmetry_space_group_name_H-M "P 42/M C M"
_symmetry_group_IT_number 132
_symmetry_cell_setting 'tetragonal'
loop_
_space_group_symop_operation_xyz
x,y,z
-y,x,1/2+z
-x,-y,z
y,-x,1/2+z
x,-y,1/2-z
-x,y,1/2-z
y,x,-z
-y,-x,-z
-x,-y,-z
y,-x,1/2-z
x,y,-z
-y,x,1/2-z
-x,y,1/2+z
x,-y,1/2+z
-y,-x,z
y,x,z
loop_
_atom_site_type_symbol
_atom_site_label
_atom_site_fract_x
_atom_site_fract_y
_atom_site_fract_z
Si Si1 0.281924 0.281924 0.090377
Si Si2 0.131302 0.367423 0.911248
Si Si3 0.595531 0.404470 0.371328
Si Si4 0.412251 0.030382 0.415421
Si Si5 0.500000 0.500000 0.750000
Si Si6 0.525028 0.830582 0.335719
Si Si7 0.445535 0.319952 0.584358
O O1 0.298715 0.191225 0.112693
O O2 0.337868 0.337868 0.140679
O O3 0.295820 0.295820 0.000000
O O4 0.167915 0.448883 0.887117
O O5 0.041294 0.358885 0.881612
O O6 0.123009 0.371413 0.000000
O O7 0.557617 0.442384 0.296080
O O8 0.636376 0.472034 0.418949
O O9 0.384736 0.055328 0.500000
O O10 0.410618 0.104134 0.358838
O O11 0.500000 0.000000 0.418976
O O12 0.500000 0.842729 0.250000
O O13 0.561682 0.746345 0.351618
O O14 0.430113 0.286150 0.500000
O O15 0.380883 0.380883 0.609387
#
# Coordination Sequence:
#
# PCOD8316473 Si02
#       7
#     8  16   8  16   2  16  16
#     4  10  18  30  49  68  85 111 155 192 229 275
#     4   9  17  30  48  68  87 114 147 186 225 275
#     4  12  22  33  48  59  86 117 148 198 245 293
#     4   8  15  29  47  64  86 111 143 181 224 273
#     4  12  28  36  42  60  92 116 154 204 248 292
#     4  11  21  30  44  66  87 118 146 195 239 286
#     4  11  22  35  49  63  81 115 164 206 241 282
#
# _framework density 15.7706
#
# number of rings (size 3 to 8) (size 9 to 14) (size 15 to 20)
#    0.000    1.951    2.927    3.805    1.366    4.293 
#    1.756    0.000    0.000    0.000    0.000    0.000 
#    0.000    0.000    0.000    0.878    0.000   17.854 
#
# Total GULP energy -1015890.750799 kJ/mol
# GULP energy per Si atom -12388.911595 kJ/mol
# Density = 1.573471 g / cm^3
# Si number density = 15.770600 Si / 1000 Ang^3
#
#
#
# Elastic Constant Matrix: (Units=GPa)
#
#
# Indices 1 2 3 4 5 6 
#
# 1 98.4339 50.4300 32.1376 0.0000 0.0000 0.0000
# 2 50.4300 98.4339 32.1376 0.0000 0.0000 0.0000
# 3 32.1376 32.1376 39.6297 0.0000 0.0000 0.0000
# 4 0.0000 0.0000 0.0000 10.1456 0.0000 0.0000
# 5 0.0000 0.0000 0.0000 0.0000 10.1456 0.0000
# 6 0.0000 0.0000 0.0000 0.0000 0.0000 19.9982
#
#
#
# Elastic Compliance Matrix: (Units=1/GPa)
#
#
# Indices 1 2 3 4 5 6 
#
# 1 0.015584 -0.005247 -0.008383 0.000000 0.000000 0.000000
# 2 -0.005247 0.015584 -0.008383 0.000000 0.000000 0.000000
# 3 -0.008383 -0.008383 0.038829 0.000000 0.000000 0.000000
# 4 0.000000 0.000000 0.000000 0.098565 0.000000 0.000000
# 5 0.000000 0.000000 0.000000 0.000000 0.098565 0.000000
# 6 0.000000 0.000000 0.000000 0.000000 0.000000 0.050005
#
#
# Mechanical properties :
#
#
# Convention : Reuss Voigt Hill
#
# Bulk Modulus (GPa) = 38.50227 51.76754 45.13490
# Shear Modulus (GPa) = 13.52025 16.17736 14.84881
#
# Velocity S-wave (km/s) = 2.93116 3.20627 3.07180
# Velocity P-wave (km/s) = 5.99354 6.82668 6.42363
#
# Compressibility (1/GPa) = 0.02597250
#
# Stress axis : x y z
#
# Youngs Moduli (GPa) = 64.16710 64.16710 25.75362
#
# Poissons Ratio (x) = 0.33671 0.21589
# Poissons Ratio (y) = 0.33671 0.21589
# Poissons Ratio (z) = 0.53790 0.53790
#
# Static dielectric constant tensor:
#      x y z
#    x 3.178920 0.000000 0.000000 
#    y 0.000000 3.178920 0.000000 
#    z 0.000000 0.000000 2.916730 
# 
# 
# High freq. dielectric constant tensor:
#      x y z
#    x 1.579340 0.000000 0.000000 
#    y 0.000000 1.579340 0.000000 
#    z 0.000000 0.000000 1.597170 
# 
# From -- ./inp_files/6402.got.cif
#   From: 2010.03.12/outbox.cif.g09.slc.cpg/sg132_4_cif.got.tgz:6402.got - 2010.04.06 17:53:44.
