data_PCOD8316698
_publ_section_title
;
Structure prediction by ZEFSAII (Michael W. Deem and Ramdas Pophale) SiO2 
 PCOD8316698
Probable space group: P 42/M C M
;
_chemical_formula_sum "Si O2"
_cell_formula_units_Z 96
_cell_length_a 24.585721
_cell_length_b 24.585721
_cell_length_c 8.709165
_cell_angle_alpha 90.000000
_cell_angle_beta 90.000000
_cell_angle_gamma 90.000000
_cell_volume 5264.321645
_symmetry_space_group_name_H-M "P 42/M C M"
_symmetry_group_IT_number 132
_symmetry_cell_setting 'tetragonal'
loop_
_space_group_symop_operation_xyz
x,y,z
-y,x,1/2+z
-x,-y,z
y,-x,1/2+z
x,-y,1/2-z
-x,y,1/2-z
y,x,-z
-y,-x,-z
-x,-y,-z
y,-x,1/2-z
x,y,-z
-y,x,1/2-z
-x,y,1/2+z
x,-y,1/2+z
-y,-x,z
y,x,z
loop_
_atom_site_type_symbol
_atom_site_label
_atom_site_fract_x
_atom_site_fract_y
_atom_site_fract_z
Si Si1 0.660280 0.660280 0.824351
Si Si2 0.856600 0.943357 0.818129
Si Si3 0.555188 0.817933 0.328835
Si Si4 0.553371 0.310448 0.171930
Si Si5 0.672309 0.162917 0.681487
Si Si6 0.739495 0.260506 0.178535
Si Si7 0.266240 0.943906 0.319256
O O1 0.672290 0.598108 0.793684
O O2 0.694029 0.694029 0.700427
O O3 0.675451 0.675451 0.000000
O O4 0.894629 0.894629 0.756600
O O5 0.795108 0.931948 0.760216
O O6 0.878370 0.000000 0.750000
O O7 0.859140 0.946993 0.000000
O O8 0.500000 0.841769 0.250000
O O9 0.559043 0.842842 0.500000
O O10 0.549738 0.753856 0.338961
O O11 0.610609 0.831785 0.239381
O O12 0.500000 0.335200 0.250000
O O13 0.562372 0.334449 0.000000
O O14 0.671741 0.170546 0.500000
O O15 0.716072 0.205717 0.746641
O O16 0.693880 0.104095 0.733880
O O17 0.749832 0.250169 0.000000
O O18 0.266105 0.949687 0.500000
O O19 0.288825 0.000000 0.250000
#
# Coordination Sequence:
#
# PCOD8316698 Si02
#       7
#     8  16  16  16  16   8  16
#     4  12  22  34  54  77 109 146 180 223 273 326
#     4   9  18  33  52  73 102 137 177 223 269 319
#     4  10  20  34  54  79 112 146 180 221 268 324
#     4  10  20  34  52  75 106 142 183 224 269 323
#     4  11  22  36  57  83 112 147 184 225 276 330
#     4  12  24  36  50  80 117 149 181 223 276 326
#     4   9  20  37  58  80 106 143 184 225 270 326
#
# _framework density 18.235966999999999
#
# number of rings (size 3 to 8) (size 9 to 14) (size 15 to 20)
#    0.000    1.833    1.667    3.000    1.167    3.167 
#    0.000    0.833    0.000    0.750    0.000    5.250 
#    0.000    0.000    0.000    0.000    0.000    0.000 
#
# Total GULP energy -1190111.092505 kJ/mol
# GULP energy per Si atom -12396.990547 kJ/mol
# Density = 1.819446 g / cm^3
# Si number density = 18.235967 Si / 1000 Ang^3
#
#
#
# Elastic Constant Matrix: (Units=GPa)
#
#
# Indices 1 2 3 4 5 6 
#
# 1 105.3304 46.5900 39.7427 0.0000 0.0000 0.0000
# 2 46.5900 105.3304 39.7428 0.0000 0.0000 0.0000
# 3 39.7427 39.7428 90.6029 0.0000 0.0000 0.0000
# 4 0.0000 0.0000 0.0000 26.0560 0.0000 0.0000
# 5 0.0000 0.0000 0.0000 0.0000 26.0560 0.0000
# 6 0.0000 0.0000 0.0000 0.0000 0.0000 20.0312
#
#
#
# Elastic Compliance Matrix: (Units=1/GPa)
#
#
# Indices 1 2 3 4 5 6 
#
# 1 0.012784 -0.004241 -0.003747 0.000000 0.000000 0.000000
# 2 -0.004241 0.012784 -0.003747 0.000000 0.000000 0.000000
# 3 -0.003747 -0.003747 0.014325 0.000000 0.000000 0.000000
# 4 0.000000 0.000000 0.000000 0.038379 0.000000 0.000000
# 5 0.000000 0.000000 0.000000 0.000000 0.038379 0.000000
# 6 0.000000 0.000000 0.000000 0.000000 0.000000 0.049922
#
#
# Mechanical properties :
#
#
# Convention : Reuss Voigt Hill
#
# Bulk Modulus (GPa) = 60.89657 61.49051 61.19354
# Shear Modulus (GPa) = 25.57334 26.10785 25.84060
#
# Velocity S-wave (km/s) = 3.74887 3.78784 3.76841
# Velocity P-wave (km/s) = 7.22529 7.27481 7.25009
#
# Compressibility (1/GPa) = 0.01642129
#
# Stress axis : x y z
#
# Youngs Moduli (GPa) = 78.22559 78.22549 69.80932
#
# Poissons Ratio (x) = 0.33172 0.26160
# Poissons Ratio (y) = 0.33172 0.26160
# Poissons Ratio (z) = 0.29314 0.29314
#
# Static dielectric constant tensor:
#      x y z
#    x 3.412700 0.000000 0.000000 
#    y 0.000000 3.412700 0.000000 
#    z 0.000000 0.000000 3.480110 
# 
# 
# High freq. dielectric constant tensor:
#      x y z
#    x 1.695960 0.000000 0.000000 
#    y 0.000000 1.695960 0.000000 
#    z 0.000000 0.000000 1.716280 
# 
# From -- ./inp_files/1838.got.cif
#   From: 2010.03.12/outbox.cif.g09.slc.cpg/sg132_1_cif.got.tgz:1838.got - 2010.04.06 17:53:44.
