data_PCOD8316213
_publ_section_title
;
Structure prediction by ZEFSAII (Michael W. Deem and Ramdas Pophale) SiO2 
 PCOD8316213
Probable space group: P 42/M M C
;
_chemical_formula_sum "Si O2"
_cell_formula_units_Z 56
_cell_length_a 17.591678
_cell_length_b 17.591678
_cell_length_c 9.465467
_cell_angle_alpha 90.000000
_cell_angle_beta 90.000000
_cell_angle_gamma 90.000000
_cell_volume 2929.250953
_symmetry_space_group_name_H-M "P 42/M M C"
_symmetry_group_IT_number 131
_symmetry_cell_setting 'tetragonal'
loop_
_space_group_symop_operation_xyz
x,y,z
-x,-y,z
-y,x,1/2+z
y,-x,1/2+z
-x,y,-z
x,-y,-z
y,x,1/2-z
-y,-x,1/2-z
-x,-y,-z
x,y,-z
y,-x,1/2-z
-y,x,1/2-z
x,-y,z
-x,y,z
-y,-x,1/2+z
y,x,1/2+z
loop_
_atom_site_type_symbol
_atom_site_label
_atom_site_fract_x
_atom_site_fract_y
_atom_site_fract_z
Si Si1 0.585850 0.686984 0.660931
Si Si2 0.196848 0.911324 0.664840
Si Si3 0.911004 0.500000 0.657762
Si Si4 0.360995 0.851174 0.663210
O O1 0.616939 0.616939 0.750000
O O2 0.587592 0.660300 0.500000
O O3 0.500000 0.706701 0.708592
O O4 0.638096 0.760639 0.684425
O O5 0.131771 0.868230 0.750000
O O6 0.184436 0.895010 0.500000
O O7 0.279494 0.881892 0.713057
O O8 0.190340 0.000000 0.700414
O O9 0.874370 0.500000 0.500000
O O10 0.887852 0.424815 0.740518
O O11 0.000000 0.500000 0.643083
O O12 0.377474 0.872929 0.500000
#
# Coordination Sequence:
#
# PCOD8316213 Si02
#       4
#    16  16   8  16
#     4  10  21  37  57  83 113 148 193 237 284 341
#     4  10  22  39  61  89 118 155 201 245 296 354
#     4  11  23  35  53  87 124 153 186 231 285 344
#     4  10  20  39  62  84 115 153 195 239 287 349
#
# _framework density 19.117515000000001
#
# number of rings (size 3 to 8) (size 9 to 14) (size 15 to 20)
#    0.000    1.857    1.429    2.143    0.000    6.286 
#    0.000    2.857    0.000    0.000    0.000    0.000 
#    0.000    0.000    0.000    0.000    0.000    0.000 
#
# Total GULP energy -694584.184133 kJ/mol
# GULP energy per Si atom -12403.289002 kJ/mol
# Density = 1.907400 g / cm^3
# Si number density = 19.117515 Si / 1000 Ang^3
#
#
#
# Elastic Constant Matrix: (Units=GPa)
#
#
# Indices 1 2 3 4 5 6 
#
# 1 121.0846 81.4753 61.4531 0.0000 0.0000 0.0000
# 2 81.4753 121.0782 61.4500 0.0000 0.0000 0.0000
# 3 61.4531 61.4500 81.1920 0.0000 0.0000 0.0000
# 4 0.0000 0.0000 0.0000 35.4061 0.0000 0.0000
# 5 0.0000 0.0000 0.0000 0.0000 35.4063 0.0000
# 6 0.0000 0.0000 0.0000 0.0000 0.0000 27.2656
#
#
#
# Elastic Compliance Matrix: (Units=1/GPa)
#
#
# Indices 1 2 3 4 5 6 
#
# 1 0.017189 -0.008060 -0.006910 0.000000 0.000000 0.000000
# 2 -0.008060 0.017189 -0.006909 0.000000 0.000000 0.000000
# 3 -0.006910 -0.006909 0.022776 0.000000 0.000000 0.000000
# 4 0.000000 0.000000 0.000000 0.028244 0.000000 0.000000
# 5 0.000000 0.000000 0.000000 0.000000 0.028244 0.000000
# 6 0.000000 0.000000 0.000000 0.000000 0.000000 0.036676
#
#
# Mechanical properties :
#
#
# Convention : Reuss Voigt Hill
#
# Bulk Modulus (GPa) = 74.65006 81.34574 77.99790
# Shear Modulus (GPa) = 25.18367 27.54735 26.36551
#
# Velocity S-wave (km/s) = 3.63341 3.80010 3.71769
# Velocity P-wave (km/s) = 7.53226 7.86747 7.70169
#
# Compressibility (1/GPa) = 0.01339584
#
# Stress axis : x y z
#
# Youngs Moduli (GPa) = 58.17724 58.17590 43.90572
#
# Poissons Ratio (x) = 0.46887 0.30339
# Poissons Ratio (y) = 0.46888 0.30337
# Poissons Ratio (z) = 0.40201 0.40196
#
# Static dielectric constant tensor:
#      x y z
#    x 3.486210 0.000000 0.000000 
#    y 0.000000 3.486210 0.000000 
#    z 0.000000 0.000000 3.550090 
# 
# 
# High freq. dielectric constant tensor:
#      x y z
#    x 1.748490 0.000000 0.000000 
#    y 0.000000 1.748490 0.000000 
#    z 0.000000 0.000000 1.740430 
# 
# From -- ./inp_files/1195.got.cif
#   From: 2010.03.12/outbox.cif.g09.slc.cpg/sg131_1_cif.got.tgz:1195.got - 2010.04.06 17:36:35.
