data_PCOD8316943
_publ_section_title
;
Structure prediction by ZEFSAII (Michael W. Deem and Ramdas Pophale) SiO2 
 PCOD8316943
Probable space group: P 42/N B C
;
_chemical_formula_sum "Si O2"
_cell_formula_units_Z 88
_cell_length_a 17.966985
_cell_length_b 17.966985
_cell_length_c 14.722854
_cell_angle_alpha 90.000000
_cell_angle_beta 90.000000
_cell_angle_gamma 90.000000
_cell_volume 4752.722043
_symmetry_space_group_name_H-M "P 42/N B C"
_symmetry_group_IT_number 133
_space_group.IT_coordinate_system_code '2'
_symmetry_cell_setting 'tetragonal'
loop_
_space_group_symop_operation_xyz
x,y,z
1/2-y,x,1/2+z
1/2-x,1/2-y,z
y,1/2-x,1/2+z
x,1/2-y,-z
1/2-x,y,-z
y,x,1/2-z
1/2-y,1/2-x,1/2-z
-x,-y,-z
1/2+y,-x,1/2-z
1/2+x,1/2+y,-z
-y,1/2+x,1/2-z
-x,1/2+y,z
1/2+x,-y,z
-y,-x,1/2+z
1/2+y,1/2+x,1/2+z
loop_
_atom_site_type_symbol
_atom_site_label
_atom_site_fract_x
_atom_site_fract_y
_atom_site_fract_z
Si Si1 0.200787 0.562657 0.086160
Si Si2 0.163238 0.681547 0.217948
Si Si3 0.646111 0.853890 0.250000
Si Si4 0.476350 0.084416 0.516500
Si Si5 0.166224 0.513350 0.805919
Si Si6 0.829025 0.828977 0.956119
O O1 0.179630 0.644701 0.121280
O O2 0.248890 0.516812 0.159188
O O3 0.250000 0.579244 0.000000
O O4 0.128785 0.513753 0.065948
O O5 0.159722 0.771141 0.210025
O O6 0.086791 0.645121 0.250975
O O7 0.557987 0.839497 0.241280
O O8 0.677198 0.819031 0.345350
O O9 0.510321 0.107728 0.612423
O O10 0.388198 0.105860 0.518924
O O11 0.500000 0.000000 0.500000
O O12 0.851859 0.750000 0.000000
O O13 0.750000 0.855261 0.000000
#
# Coordination Sequence:
#
# PCOD8316943 Si02
#       6
#    16  16   8  16  16  16
#     4   9  18  35  56  77 111 152 188 232 289 341
#     4   9  18  34  55  80 113 146 190 232 270 339
#     4  10  20  37  66  82 118 156 188 239 314 344
#     4  10  20  36  56  83 115 149 188 240 295 347
#     4   9  19  35  55  80 110 154 187 229 293 346
#     4  10  22  41  64  87 120 156 200 246 295 358
#
# _framework density 18.515705000000001
#
# number of rings (size 3 to 8) (size 9 to 14) (size 15 to 20)
#    0.000    2.545    0.000    2.727    5.091    1.455 
#    6.545   15.455    0.000    0.000    0.000    0.000 
#    0.000    0.000    0.000    0.000    0.000    0.000 
#
# Total GULP energy -1090426.245706 kJ/mol
# GULP energy per Si atom -12391.207338 kJ/mol
# Density = 1.847356 g / cm^3
# Si number density = 18.515705 Si / 1000 Ang^3
#
#
#
# Elastic Constant Matrix: (Units=GPa)
#
#
# Indices 1 2 3 4 5 6 
#
# 1 127.2637 49.8989 46.8425 0.0000 0.0000 0.0000
# 2 49.8989 127.2649 46.8428 0.0000 0.0000 0.0000
# 3 46.8425 46.8428 88.3635 0.0000 0.0000 0.0000
# 4 0.0000 0.0000 0.0000 23.2083 0.0000 0.0000
# 5 0.0000 0.0000 0.0000 0.0000 23.2081 0.0000
# 6 0.0000 0.0000 0.0000 0.0000 0.0000 27.7192
#
#
#
# Elastic Compliance Matrix: (Units=1/GPa)
#
#
# Indices 1 2 3 4 5 6 
#
# 1 0.010384 -0.002541 -0.004158 0.000000 0.000000 0.000000
# 2 -0.002541 0.010384 -0.004158 0.000000 0.000000 0.000000
# 3 -0.004158 -0.004158 0.015725 0.000000 0.000000 0.000000
# 4 0.000000 0.000000 0.000000 0.043088 0.000000 0.000000
# 5 0.000000 0.000000 0.000000 0.000000 0.043088 0.000000
# 6 0.000000 0.000000 0.000000 0.000000 0.000000 0.036076
#
#
# Mechanical properties :
#
#
# Convention : Reuss Voigt Hill
#
# Bulk Modulus (GPa) = 67.65746 70.00672 68.83209
# Shear Modulus (GPa) = 26.97064 28.11432 27.54248
#
# Velocity S-wave (km/s) = 3.82073 3.90090 3.86102
# Velocity P-wave (km/s) = 7.48892 7.62763 7.55859
#
# Compressibility (1/GPa) = 0.01478034
#
# Stress axis : x y z
#
# Youngs Moduli (GPa) = 96.29761 96.29851 63.59274
#
# Poissons Ratio (x) = 0.24472 0.26440
# Poissons Ratio (y) = 0.24472 0.26440
# Poissons Ratio (z) = 0.40038 0.40039
#
# Static dielectric constant tensor:
#      x y z
#    x 3.479380 0.000000 0.000000 
#    y 0.000000 3.479370 0.000000 
#    z 0.000000 0.000000 3.552440 
# 
# 
# High freq. dielectric constant tensor:
#      x y z
#    x 1.717420 0.000000 0.000000 
#    y 0.000000 1.717420 0.000000 
#    z 0.000000 0.000000 1.709530 
# 
# From -- ./inp_files/4460.got.cif
#   From: 2010.03.12/outbox.cif.g09.slc.cpg/sg133_3_cif.got.tgz:4460.got - 2010.04.06 18:08:06.
