data_PCOD8316136
_publ_section_title
;
Structure prediction by ZEFSAII (Michael W. Deem and Ramdas Pophale) SiO2 
 PCOD8316136
Probable space group: P 42/M M C
;
_chemical_formula_sum "Si O2"
_cell_formula_units_Z 104
_cell_length_a 17.848205
_cell_length_b 17.848205
_cell_length_c 16.973800
_cell_angle_alpha 90.000000
_cell_angle_beta 90.000000
_cell_angle_gamma 90.000000
_cell_volume 5407.146939
_symmetry_space_group_name_H-M "P 42/M M C"
_symmetry_group_IT_number 131
_symmetry_cell_setting 'tetragonal'
loop_
_space_group_symop_operation_xyz
x,y,z
-x,-y,z
-y,x,1/2+z
y,-x,1/2+z
-x,y,-z
x,-y,-z
y,x,1/2-z
-y,-x,1/2-z
-x,-y,-z
x,y,-z
y,-x,1/2-z
-y,x,1/2-z
x,-y,z
-x,y,z
-y,-x,1/2+z
y,x,1/2+z
loop_
_atom_site_type_symbol
_atom_site_label
_atom_site_fract_x
_atom_site_fract_y
_atom_site_fract_z
Si Si1 0.666408 0.912044 0.671639
Si Si2 0.180117 0.083467 0.411925
Si Si3 0.302379 0.803029 0.802326
Si Si4 0.582119 0.789701 0.591489
Si Si5 0.353813 0.324383 0.094054
Si Si6 0.500000 0.416602 0.092853
Si Si7 0.782379 0.082991 0.091267
O O1 0.753327 0.901894 0.649507
O O2 0.650887 0.862221 0.749508
O O3 0.615338 0.872837 0.605503
O O4 0.644954 0.000000 0.681537
O O5 0.212002 0.099776 0.500000
O O6 0.106380 0.131684 0.395013
O O7 0.150338 0.000000 0.403998
O O8 0.243141 0.756860 0.750000
O O9 0.358245 0.750020 0.852275
O O10 0.264082 0.852863 0.868199
O O11 0.573204 0.776865 0.500000
O O12 0.500000 0.783373 0.631343
O O13 0.634842 0.722678 0.622947
O O14 0.425099 0.373650 0.119313
O O15 0.353597 0.306552 0.000000
O O16 0.500000 0.500000 0.130563
O O17 0.500000 0.424224 0.000000
O O18 0.769925 0.000000 0.128258
O O19 0.760376 0.081520 0.000000
#
# Coordination Sequence:
#
# PCOD8316136 Si02
#       7
#    16  16  16  16  16   8  16
#     4  11  22  36  54  77 109 150 194 241 291 342
#     4   9  17  30  49  73 102 137 178 227 287 358
#     4  12  21  36  55  80 108 148 192 242 286 343
#     4  10  20  35  57  86 118 152 190 232 279 344
#     4  10  20  37  62  90 119 154 193 233 285 347
#     4   9  18  36  66 100 127 151 184 229 283 347
#     4  10  20  34  53  76 103 139 188 245 299 349
#
# _framework density 19.233803999999999
#
# number of rings (size 3 to 8) (size 9 to 14) (size 15 to 20)
#    0.000    1.769    3.077    1.846    0.000    5.846 
#    1.385    2.308    0.000    0.000    0.000    0.000 
#    0.000    4.923    0.000    0.000    0.000    0.000 
#
# Total GULP energy -1288929.317810 kJ/mol
# GULP energy per Si atom -12393.551133 kJ/mol
# Density = 1.919003 g / cm^3
# Si number density = 19.233804 Si / 1000 Ang^3
#
#
#
# Elastic Constant Matrix: (Units=GPa)
#
#
# Indices 1 2 3 4 5 6 
#
# 1 117.6452 53.7786 31.6825 0.0000 0.0000 0.0000
# 2 53.7786 117.6450 31.6823 0.0000 0.0000 0.0000
# 3 31.6825 31.6823 37.2310 0.0000 0.0000 0.0000
# 4 0.0000 0.0000 0.0000 21.3634 0.0000 0.0000
# 5 0.0000 0.0000 0.0000 0.0000 21.3642 0.0000
# 6 0.0000 0.0000 0.0000 0.0000 0.0000 26.8371
#
#
#
# Elastic Compliance Matrix: (Units=1/GPa)
#
#
# Indices 1 2 3 4 5 6 
#
# 1 0.012084 -0.003574 -0.007242 0.000000 0.000000 0.000000
# 2 -0.003574 0.012084 -0.007242 0.000000 0.000000 0.000000
# 3 -0.007242 -0.007242 0.039185 0.000000 0.000000 0.000000
# 4 0.000000 0.000000 0.000000 0.046809 0.000000 0.000000
# 5 0.000000 0.000000 0.000000 0.000000 0.046807 0.000000
# 6 0.000000 0.000000 0.000000 0.000000 0.000000 0.037262
#
#
# Mechanical properties :
#
#
# Convention : Reuss Voigt Hill
#
# Bulk Modulus (GPa) = 36.71425 56.31200 46.51312
# Shear Modulus (GPa) = 20.88326 24.27146 22.57736
#
# Velocity S-wave (km/s) = 3.29866 3.55620 3.42985
# Velocity P-wave (km/s) = 5.79983 6.79730 6.31828
#
# Compressibility (1/GPa) = 0.02723738
#
# Stress axis : x y z
#
# Youngs Moduli (GPa) = 82.75343 82.75372 25.51996
#
# Poissons Ratio (x) = 0.29573 0.18482
# Poissons Ratio (y) = 0.29573 0.18482
# Poissons Ratio (z) = 0.59932 0.59931
#
# Static dielectric constant tensor:
#      x y z
#    x 3.615360 0.000000 0.000000 
#    y 0.000000 3.615360 0.000000 
#    z 0.000000 0.000000 3.479230 
# 
# 
# High freq. dielectric constant tensor:
#      x y z
#    x 1.741500 0.000000 0.000000 
#    y 0.000000 1.741500 0.000000 
#    z 0.000000 0.000000 1.738400 
# 
# From -- ./inp_files/8119.got.cif
#   From: 2010.03.12/outbox.cif.g09.slc.cpg/sg131_5_cif.got.tgz:8119.got - 2010.04.06 17:36:35.
