data_PCOD8316677
_publ_section_title
;
Structure prediction by ZEFSAII (Michael W. Deem and Ramdas Pophale) SiO2 
 PCOD8316677
Probable space group: P 42/M C M
;
_chemical_formula_sum "Si O2"
_cell_formula_units_Z 72
_cell_length_a 11.211556
_cell_length_b 11.211556
_cell_length_c 32.036930
_cell_angle_alpha 90.000000
_cell_angle_beta 90.000000
_cell_angle_gamma 90.000000
_cell_volume 4027.009678
_symmetry_space_group_name_H-M "P 42/M C M"
_symmetry_group_IT_number 132
_symmetry_cell_setting 'tetragonal'
loop_
_space_group_symop_operation_xyz
x,y,z
-y,x,1/2+z
-x,-y,z
y,-x,1/2+z
x,-y,1/2-z
-x,y,1/2-z
y,x,-z
-y,-x,-z
-x,-y,-z
y,-x,1/2-z
x,y,-z
-y,x,1/2-z
-x,y,1/2+z
x,-y,1/2+z
-y,-x,z
y,x,z
loop_
_atom_site_type_symbol
_atom_site_label
_atom_site_fract_x
_atom_site_fract_y
_atom_site_fract_z
Si Si1 0.655541 0.838644 0.852330
Si Si2 0.368190 0.985080 0.076413
Si Si3 0.616287 0.195676 0.849150
Si Si4 0.996008 0.193842 0.500000
Si Si5 0.776576 0.965856 0.702122
O O1 0.707065 0.707065 0.856336
O O2 0.656136 0.895931 0.897728
O O3 0.521514 0.816935 0.836225
O O4 0.743859 0.915186 0.823036
O O5 0.500000 0.000000 0.056678
O O6 0.357987 0.871191 0.107071
O O7 0.271723 0.976994 0.040474
O O8 0.668874 0.331127 0.853399
O O9 0.680435 0.133402 0.810209
O O10 0.086235 0.086235 0.500000
O O11 0.861570 0.138431 0.500000
O O12 0.909083 0.909083 0.692711
O O13 0.766642 0.000000 0.750000
#
# Coordination Sequence:
#
# PCOD8316677 Si02
#       5
#    16  16  16   8  16
#     4  10  20  33  51  75 101 128 161 205 251 292
#     4   9  18  34  52  69  94 129 166 199 236 286
#     4   9  19  35  53  72  97 131 167 203 244 292
#     4  11  21  30  46  74 103 127 154 194 244 295
#     4  10  20  34  52  73  98 130 168 205 243 292
#
# _framework density 17.879270000000002
#
# number of rings (size 3 to 8) (size 9 to 14) (size 15 to 20)
#    0.000    2.333    0.000    4.333    0.000    4.667 
#    0.000    0.000    0.000    0.000    0.000    3.111 
#    0.000   16.000    0.000    0.000    0.000    0.000 
#
# Total GULP energy -891971.335612 kJ/mol
# GULP energy per Si atom -12388.490772 kJ/mol
# Density = 1.783858 g / cm^3
# Si number density = 17.879270 Si / 1000 Ang^3
#
#
#
# Elastic Constant Matrix: (Units=GPa)
#
#
# Indices 1 2 3 4 5 6 
#
# 1 90.8431 83.1049 41.9601 0.0000 0.0000 0.0000
# 2 83.1049 90.8421 41.9598 0.0000 0.0000 0.0000
# 3 41.9601 41.9598 77.7437 0.0000 0.0000 0.0000
# 4 0.0000 0.0000 0.0000 15.9549 0.0000 0.0000
# 5 0.0000 0.0000 0.0000 0.0000 15.9572 0.0000
# 6 0.0000 0.0000 0.0000 0.0000 0.0000 25.1962
#
#
#
# Elastic Compliance Matrix: (Units=1/GPa)
#
#
# Indices 1 2 3 4 5 6 
#
# 1 0.068505 -0.060732 -0.004195 0.000000 0.000000 0.000000
# 2 -0.060732 0.068505 -0.004195 0.000000 0.000000 0.000000
# 3 -0.004195 -0.004195 0.017391 0.000000 0.000000 0.000000
# 4 0.000000 0.000000 0.000000 0.062677 0.000000 0.000000
# 5 0.000000 0.000000 0.000000 0.000000 0.062668 0.000000
# 6 0.000000 0.000000 0.000000 0.000000 0.000000 0.039689
#
#
# Mechanical properties :
#
#
# Convention : Reuss Voigt Hill
#
# Bulk Modulus (GPa) = 61.89574 65.94207 63.91891
# Shear Modulus (GPa) = 10.79763 17.58194 14.18978
#
# Velocity S-wave (km/s) = 2.46014 3.13927 2.82023
# Velocity P-wave (km/s) = 6.53939 7.07828 6.81416
#
# Compressibility (1/GPa) = 0.01615620
#
# Stress axis : x y z
#
# Youngs Moduli (GPa) = 14.59753 14.59739 57.50046
#
# Poissons Ratio (x) = 0.88653 0.24123
# Poissons Ratio (y) = 0.88654 0.24122
# Poissons Ratio (z) = 0.06124 0.06124
#
# Static dielectric constant tensor:
#      x y z
#    x 3.465590 0.000000 0.000000 
#    y 0.000000 3.465590 0.000000 
#    z 0.000000 0.000000 3.130640 
# 
# 
# High freq. dielectric constant tensor:
#      x y z
#    x 1.695260 0.000000 0.000000 
#    y 0.000000 1.695260 0.000000 
#    z 0.000000 0.000000 1.679700 
# 
# From -- ./inp_files/10464.got.cif
#   From: 2010.03.12/outbox.cif.g09.slc.cpg/sg132_6_cif.got.tgz:10464.got - 2010.04.06 17:53:44.
