data_PCOD8316584
_publ_section_title
;
Structure prediction by ZEFSAII (Michael W. Deem and Ramdas Pophale) SiO2 
 PCOD8316584
Probable space group: P 42/M C M
;
_chemical_formula_sum "Si O2"
_cell_formula_units_Z 96
_cell_length_a 23.573610
_cell_length_b 23.573610
_cell_length_c 9.328461
_cell_angle_alpha 90.000000
_cell_angle_beta 90.000000
_cell_angle_gamma 90.000000
_cell_volume 5183.966530
_symmetry_space_group_name_H-M "P 42/M C M"
_symmetry_group_IT_number 132
_symmetry_cell_setting 'tetragonal'
loop_
_space_group_symop_operation_xyz
x,y,z
-y,x,1/2+z
-x,-y,z
y,-x,1/2+z
x,-y,1/2-z
-x,y,1/2-z
y,x,-z
-y,-x,-z
-x,-y,-z
y,-x,1/2-z
x,y,-z
-y,x,1/2-z
-x,y,1/2+z
x,-y,1/2+z
-y,-x,z
y,x,z
loop_
_atom_site_type_symbol
_atom_site_label
_atom_site_fract_x
_atom_site_fract_y
_atom_site_fract_z
Si Si1 0.819682 0.731168 0.163758
Si Si2 0.052622 0.421248 0.161841
Si Si3 0.651668 0.560051 0.667851
Si Si4 0.286771 0.945625 0.338275
Si Si5 0.545615 0.840644 0.342033
Si Si6 0.753506 0.640564 0.341748
O O1 0.795209 0.795209 0.171750
O O2 0.883973 0.731792 0.227989
O O3 0.772823 0.692044 0.242010
O O4 0.823561 0.709097 0.000000
O O5 0.053654 0.353883 0.164960
O O6 0.106057 0.446381 0.240701
O O7 0.000000 0.445167 0.250000
O O8 0.049706 0.443801 0.000000
O O9 0.652767 0.500000 0.750000
O O10 0.661670 0.547129 0.500000
O O11 0.591156 0.591156 0.693877
O O12 0.701291 0.603277 0.722026
O O13 0.263333 0.951779 0.500000
O O14 0.262616 0.000000 0.250000
O O15 0.500000 0.803220 0.250000
O O16 0.522669 0.856909 0.500000
O O17 0.603608 0.808921 0.358843
O O18 0.735957 0.663345 0.500000
#
# Coordination Sequence:
#
# PCOD8316584 Si02
#       6
#    16  16  16  16  16  16
#     4  10  20  34  54  82 113 143 177 216 259 309
#     4  10  19  33  51  70  96 130 171 218 262 308
#     4  10  22  40  60  82 107 134 167 209 259 317
#     4   9  18  32  51  75 104 141 178 215 258 305
#     4  11  22  34  50  72  97 131 173 217 263 311
#     4  10  21  37  56  78 106 138 171 210 259 313
#
# _framework density 18.518637999999999
#
# number of rings (size 3 to 8) (size 9 to 14) (size 15 to 20)
#    0.000    2.000    1.667    2.000    0.000    4.500 
#    0.000    2.500    0.000    0.000    0.000    0.000 
#    0.000    0.333    0.000    4.167    0.000    0.000 
#
# Total GULP energy -1189380.886088 kJ/mol
# GULP energy per Si atom -12389.384230 kJ/mol
# Density = 1.847649 g / cm^3
# Si number density = 18.518638 Si / 1000 Ang^3
#
#
#
# Elastic Constant Matrix: (Units=GPa)
#
#
# Indices 1 2 3 4 5 6 
#
# 1 85.2355 55.7549 42.4960 0.0000 0.0000 0.0000
# 2 55.7549 85.2355 42.4960 0.0000 0.0000 0.0000
# 3 42.4960 42.4960 108.5314 0.0000 0.0000 0.0000
# 4 0.0000 0.0000 0.0000 75.1709 0.0000 0.0000
# 5 0.0000 0.0000 0.0000 0.0000 75.1709 0.0000
# 6 0.0000 0.0000 0.0000 0.0000 0.0000 19.9370
#
#
#
# Elastic Compliance Matrix: (Units=1/GPa)
#
#
# Indices 1 2 3 4 5 6 
#
# 1 0.021602 -0.012318 -0.003635 0.000000 0.000000 0.000000
# 2 -0.012318 0.021602 -0.003635 0.000000 0.000000 0.000000
# 3 -0.003635 -0.003635 0.012061 0.000000 0.000000 0.000000
# 4 0.000000 0.000000 0.000000 0.013303 0.000000 0.000000
# 5 0.000000 0.000000 0.000000 0.000000 0.013303 0.000000
# 6 0.000000 0.000000 0.000000 0.000000 0.000000 0.050158
#
#
# Mechanical properties :
#
#
# Convention : Reuss Voigt Hill
#
# Bulk Modulus (GPa) = 62.15834 62.27737 62.21785
# Shear Modulus (GPa) = 28.31747 43.27281 35.79514
#
# Velocity S-wave (km/s) = 3.91466 4.83920 4.40127
# Velocity P-wave (km/s) = 7.35329 8.05769 7.71354
#
# Compressibility (1/GPa) = 0.01608795
#
# Stress axis : x y z
#
# Youngs Moduli (GPa) = 46.29130 46.29130 82.91388
#
# Poissons Ratio (x) = 0.57023 0.30141
# Poissons Ratio (y) = 0.57023 0.30141
# Poissons Ratio (z) = 0.16828 0.16828
#
# Static dielectric constant tensor:
#      x y z
#    x -0.741820 0.000000 0.000000 
#    y 0.000000 -0.741820 0.000000 
#    z 0.000000 0.000000 3.596430 
# 
# 
# High freq. dielectric constant tensor:
#      x y z
#    x 1.707700 0.000000 0.000000 
#    y 0.000000 1.707700 0.000000 
#    z 0.000000 0.000000 1.719840 
# 
# From -- ./inp_files/1707.got.cif
#   From: 2010.03.12/outbox.cif.g09.slc.cpg/sg132_1_cif.got.tgz:1707.got - 2010.04.06 17:53:44.
