data_PCOD8316299
_publ_section_title
;
Structure prediction by ZEFSAII (Michael W. Deem and Ramdas Pophale) SiO2 
 PCOD8316299
Probable space group: P 42/M M C
;
_chemical_formula_sum "Si O2"
_cell_formula_units_Z 80
_cell_length_a 13.553495
_cell_length_b 13.553495
_cell_length_c 25.909960
_cell_angle_alpha 90.000000
_cell_angle_beta 90.000000
_cell_angle_gamma 90.000000
_cell_volume 4759.587796
_symmetry_space_group_name_H-M "P 42/M M C"
_symmetry_group_IT_number 131
_symmetry_cell_setting 'tetragonal'
loop_
_space_group_symop_operation_xyz
x,y,z
-x,-y,z
-y,x,1/2+z
y,-x,1/2+z
-x,y,-z
x,-y,-z
y,x,1/2-z
-y,-x,1/2-z
-x,-y,-z
x,y,-z
y,-x,1/2-z
-y,x,1/2-z
x,-y,z
-x,y,z
-y,-x,1/2+z
y,x,1/2+z
loop_
_atom_site_type_symbol
_atom_site_label
_atom_site_fract_x
_atom_site_fract_y
_atom_site_fract_z
Si Si1 0.610185 0.112640 0.312374
Si Si2 0.889672 0.109828 0.439113
Si Si3 0.113821 0.250879 0.719293
Si Si4 0.749470 0.755161 0.623286
Si Si5 0.616126 0.612382 0.059170
O O1 0.500000 0.154251 0.309389
O O2 0.654624 0.124593 0.255547
O O3 0.667083 0.172502 0.355415
O O4 0.613105 0.000000 0.330447
O O5 0.883873 0.109429 0.500000
O O6 0.812247 0.188443 0.419267
O O7 0.000000 0.139116 0.420881
O O8 0.864662 0.000000 0.417876
O O9 0.155498 0.155498 0.750000
O O10 0.176500 0.278270 0.668612
O O11 0.000000 0.229123 0.704739
O O12 0.693251 0.664208 0.596878
O O13 0.647032 0.500000 0.074074
O O14 0.500000 0.624910 0.065508
O O15 0.647755 0.633226 0.000000
#
# Coordination Sequence:
#
# PCOD8316299 Si02
#       5
#    16  16  16  16  16
#     4   9  18  32  47  65  93 123 149 185 236 288
#     4   9  18  31  46  68 100 132 156 183 226 278
#     4   9  19  32  46  68  96 126 160 195 233 278
#     4  11  18  29  51  75  92 118 162 203 235 275
#     4   9  19  35  52  71  96 125 159 202 252 301
#
# _framework density 16.808177000000001
#
# number of rings (size 3 to 8) (size 9 to 14) (size 15 to 20)
#    0.000    2.600    0.000    3.600    0.000    1.800 
#    0.000    0.000    0.000    1.800    0.000   25.200 
#    0.000    0.000    0.000    0.000    0.000    0.000 
#
# Total GULP energy -991753.917536 kJ/mol
# GULP energy per Si atom -12396.923969 kJ/mol
# Density = 1.676992 g / cm^3
# Si number density = 16.808177 Si / 1000 Ang^3
#
#
#
# Elastic Constant Matrix: (Units=GPa)
#
#
# Indices 1 2 3 4 5 6 
#
# 1 102.2789 51.7602 46.1673 0.0000 0.0000 0.0000
# 2 51.7602 102.2789 46.1673 0.0000 0.0000 0.0000
# 3 46.1673 46.1673 76.1809 0.0000 0.0000 0.0000
# 4 0.0000 0.0000 0.0000 26.5461 0.0000 0.0000
# 5 0.0000 0.0000 0.0000 0.0000 26.5461 0.0000
# 6 0.0000 0.0000 0.0000 0.0000 0.0000 31.4762
#
#
#
# Elastic Compliance Matrix: (Units=1/GPa)
#
#
# Indices 1 2 3 4 5 6 
#
# 1 0.014995 -0.004800 -0.006179 0.000000 0.000000 0.000000
# 2 -0.004800 0.014995 -0.006179 0.000000 0.000000 0.000000
# 3 -0.006179 -0.006179 0.020615 0.000000 0.000000 0.000000
# 4 0.000000 0.000000 0.000000 0.037670 0.000000 0.000000
# 5 0.000000 0.000000 0.000000 0.000000 0.037670 0.000000
# 6 0.000000 0.000000 0.000000 0.000000 0.000000 0.031770
#
#
# Mechanical properties :
#
#
# Convention : Reuss Voigt Hill
#
# Bulk Modulus (GPa) = 61.38088 63.21425 62.29757
# Shear Modulus (GPa) = 25.32148 26.02328 25.67238
#
# Velocity S-wave (km/s) = 3.88557 3.93905 3.91240
# Velocity P-wave (km/s) = 7.53180 7.64062 7.58640
#
# Compressibility (1/GPa) = 0.01629172
#
# Stress axis : x y z
#
# Youngs Moduli (GPa) = 66.68852 66.68852 48.50723
#
# Poissons Ratio (x) = 0.32008 0.29971
# Poissons Ratio (y) = 0.32008 0.29971
# Poissons Ratio (z) = 0.41205 0.41205
#
# Static dielectric constant tensor:
#      x y z
#    x 3.210240 0.000000 0.000000 
#    y 0.000000 3.210240 0.000000 
#    z 0.000000 0.000000 3.076030 
# 
# 
# High freq. dielectric constant tensor:
#      x y z
#    x 1.646790 0.000000 0.000000 
#    y 0.000000 1.646790 0.000000 
#    z 0.000000 0.000000 1.648090 
# 
# From -- ./inp_files/10960.got.cif
#   From: 2010.03.12/outbox.cif.g09.slc.cpg/sg131_6_cif.got.tgz:10960.got - 2010.04.06 17:36:35.
