data_PCOD8316650
_publ_section_title
;
Structure prediction by ZEFSAII (Michael W. Deem and Ramdas Pophale) SiO2 
 PCOD8316650
Probable space group: P 42/M C M
;
_chemical_formula_sum "Si O2"
_cell_formula_units_Z 56
_cell_length_a 13.505320
_cell_length_b 13.505320
_cell_length_c 17.904945
_cell_angle_alpha 90.000000
_cell_angle_beta 90.000000
_cell_angle_gamma 90.000000
_cell_volume 3265.748599
_symmetry_space_group_name_H-M "P 42/M C M"
_symmetry_group_IT_number 132
_symmetry_cell_setting 'tetragonal'
loop_
_space_group_symop_operation_xyz
x,y,z
-y,x,1/2+z
-x,-y,z
y,-x,1/2+z
x,-y,1/2-z
-x,y,1/2-z
y,x,-z
-y,-x,-z
-x,-y,-z
y,-x,1/2-z
x,y,-z
-y,x,1/2-z
-x,y,1/2+z
x,-y,1/2+z
-y,-x,z
y,x,z
loop_
_atom_site_type_symbol
_atom_site_label
_atom_site_fract_x
_atom_site_fract_y
_atom_site_fract_z
Si Si1 0.000000 0.159242 0.250000
Si Si2 0.888738 0.486031 0.586697
Si Si3 0.705060 0.137471 0.669683
Si Si4 0.243422 0.406286 0.703349
O O1 0.090495 0.090495 0.279935
O O2 0.038836 0.228476 0.182299
O O3 0.877325 0.510682 0.500000
O O4 0.870332 0.370540 0.601648
O O5 0.811397 0.557105 0.628733
O O6 0.000000 0.500000 0.616229
O O7 0.772290 0.227711 0.644564
O O8 0.650154 0.161251 0.747659
O O9 0.285176 0.500000 0.750000
O O10 0.335118 0.335118 0.681920
#
# Coordination Sequence:
#
# PCOD8316650 Si02
#       4
#     8  16  16  16
#     4   9  16  26  45  72  94 114 149 198 242 277
#     4  10  20  32  47  69  97 128 161 196 234 280
#     4   9  17  30  48  68  92 122 154 190 233 283
#     4   9  18  32  51  73  95 123 159 200 246 292
#
# _framework density 17.147675
#
# number of rings (size 3 to 8) (size 9 to 14) (size 15 to 20)
#    0.000    2.714    0.000    1.714    0.000    5.429 
#    0.000    0.000    0.000    2.571    0.000   12.000 
#    0.000    0.000    0.000    0.000    0.000    0.000 
#
# Total GULP energy -694150.073245 kJ/mol
# GULP energy per Si atom -12395.537022 kJ/mol
# Density = 1.710865 g / cm^3
# Si number density = 17.147675 Si / 1000 Ang^3
#
#
#
# Elastic Constant Matrix: (Units=GPa)
#
#
# Indices 1 2 3 4 5 6 
#
# 1 104.6024 53.9074 35.6353 0.0000 0.0000 0.0000
# 2 53.9074 104.6024 35.6353 0.0000 0.0000 0.0000
# 3 35.6353 35.6353 58.0081 0.0000 0.0000 0.0000
# 4 0.0000 0.0000 0.0000 19.8001 0.0000 0.0000
# 5 0.0000 0.0000 0.0000 0.0000 19.8001 0.0000
# 6 0.0000 0.0000 0.0000 0.0000 0.0000 27.3481
#
#
#
# Elastic Compliance Matrix: (Units=1/GPa)
#
#
# Indices 1 2 3 4 5 6 
#
# 1 0.014221 -0.005505 -0.005355 0.000000 0.000000 0.000000
# 2 -0.005505 0.014221 -0.005355 0.000000 0.000000 0.000000
# 3 -0.005355 -0.005355 0.023818 0.000000 0.000000 0.000000
# 4 0.000000 0.000000 0.000000 0.050505 0.000000 0.000000
# 5 0.000000 0.000000 0.000000 0.000000 0.050505 0.000000
# 6 0.000000 0.000000 0.000000 0.000000 0.000000 0.036566
#
#
# Mechanical properties :
#
#
# Convention : Reuss Voigt Hill
#
# Bulk Modulus (GPa) = 50.42326 57.50767 53.96547
# Shear Modulus (GPa) = 21.84611 22.85866 22.35238
#
# Velocity S-wave (km/s) = 3.57318 3.65505 3.61435
# Velocity P-wave (km/s) = 6.81855 7.17092 6.99695
#
# Compressibility (1/GPa) = 0.01983212
#
# Stress axis : x y z
#
# Youngs Moduli (GPa) = 70.31819 70.31819 41.98537
#
# Poissons Ratio (x) = 0.38708 0.22481
# Poissons Ratio (y) = 0.38708 0.22481
# Poissons Ratio (z) = 0.37653 0.37653
#
# Static dielectric constant tensor:
#      x y z
#    x 3.391740 0.000000 0.000000 
#    y 0.000000 3.391740 0.000000 
#    z 0.000000 0.000000 2.781070 
# 
# 
# High freq. dielectric constant tensor:
#      x y z
#    x 1.673700 0.000000 0.000000 
#    y 0.000000 1.673700 0.000000 
#    z 0.000000 0.000000 1.623610 
# 
# From -- ./inp_files/4286.got.cif
#   From: 2010.03.12/outbox.cif.g09.slc.cpg/sg132_3_cif.got.tgz:4286.got - 2010.04.06 17:53:44.
