data_PCOD8316001
_publ_section_title
;
Structure prediction by ZEFSAII (Michael W. Deem and Ramdas Pophale) SiO2 
 PCOD8316001
Probable space group: P 42/M M C
;
_chemical_formula_sum "Si O2"
_cell_formula_units_Z 72
_cell_length_a 13.166525
_cell_length_b 13.166525
_cell_length_c 23.769827
_cell_angle_alpha 90.000000
_cell_angle_beta 90.000000
_cell_angle_gamma 90.000000
_cell_volume 4120.674945
_symmetry_space_group_name_H-M "P 42/M M C"
_symmetry_group_IT_number 131
_symmetry_cell_setting 'tetragonal'
loop_
_space_group_symop_operation_xyz
x,y,z
-x,-y,z
-y,x,1/2+z
y,-x,1/2+z
-x,y,-z
x,-y,-z
y,x,1/2-z
-y,-x,1/2-z
-x,-y,-z
x,y,-z
y,-x,1/2-z
-y,x,1/2-z
x,-y,z
-x,y,z
-y,-x,1/2+z
y,x,1/2+z
loop_
_atom_site_type_symbol
_atom_site_label
_atom_site_fract_x
_atom_site_fract_y
_atom_site_fract_z
Si Si1 0.119759 0.616401 0.375187
Si Si2 0.885155 0.617992 0.141839
Si Si3 0.000000 0.888016 0.066716
Si Si4 0.797284 0.225182 0.065934
Si Si5 0.382807 0.217611 0.756716
O O1 0.148774 0.500000 0.390691
O O2 0.167878 0.692275 0.420790
O O3 0.160315 0.646289 0.313861
O O4 0.000000 0.631132 0.375960
O O5 0.874835 0.500000 0.129621
O O6 0.804169 0.669619 0.099894
O O7 0.859222 0.643476 0.206347
O O8 0.000000 0.655270 0.129726
O O9 0.104123 0.836564 0.087410
O O10 0.000000 0.000000 0.092908
O O11 0.000000 0.891304 0.000000
O O12 0.801213 0.247895 0.000000
O O13 0.320553 0.320553 0.750000
O O14 0.500000 0.249693 0.755961
#
# Coordination Sequence:
#
# PCOD8316001 Si02
#       5
#    16  16   8  16  16
#     4  10  21  37  57  80 107 142 183 225 268 318
#     4  10  20  35  56  81 109 141 178 221 269 322
#     4   9  18  32  49  73 105 139 176 218 262 309
#     4  11  21  34  54  79 108 145 184 221 264 317
#     4  10  19  34  57  82 106 135 174 222 274 324
#
# _framework density 17.472867000000001
#
# number of rings (size 3 to 8) (size 9 to 14) (size 15 to 20)
#    0.000    1.889    3.333    1.333    0.000    5.111 
#    0.000    2.222    0.000    0.667    0.000    3.111 
#    0.000    0.000    0.000    0.000    0.000    0.000 
#
# Total GULP energy -892821.109963 kJ/mol
# GULP energy per Si atom -12400.293194 kJ/mol
# Density = 1.743310 g / cm^3
# Si number density = 17.472867 Si / 1000 Ang^3
#
#
#
# Elastic Constant Matrix: (Units=GPa)
#
#
# Indices 1 2 3 4 5 6 
#
# 1 80.9258 41.0041 29.3679 0.0000 0.0000 0.0000
# 2 41.0041 80.9258 29.3679 0.0000 0.0000 0.0000
# 3 29.3679 29.3679 74.4103 0.0000 0.0000 0.0000
# 4 0.0000 0.0000 0.0000 27.2895 0.0000 0.0000
# 5 0.0000 0.0000 0.0000 0.0000 27.2895 0.0000
# 6 0.0000 0.0000 0.0000 0.0000 0.0000 32.4985
#
#
#
# Elastic Compliance Matrix: (Units=1/GPa)
#
#
# Indices 1 2 3 4 5 6 
#
# 1 0.017588 -0.007461 -0.003997 0.000000 0.000000 0.000000
# 2 -0.007461 0.017588 -0.003997 0.000000 0.000000 0.000000
# 3 -0.003997 -0.003997 0.016594 0.000000 0.000000 0.000000
# 4 0.000000 0.000000 0.000000 0.036644 0.000000 0.000000
# 5 0.000000 0.000000 0.000000 0.000000 0.036644 0.000000
# 6 0.000000 0.000000 0.000000 0.000000 0.000000 0.030771
#
#
# Mechanical properties :
#
#
# Convention : Reuss Voigt Hill
#
# Bulk Modulus (GPa) = 47.93806 48.41574 48.17690
# Shear Modulus (GPa) = 25.81425 26.51695 26.16560
#
# Velocity S-wave (km/s) = 3.84785 3.89987 3.87395
# Velocity P-wave (km/s) = 6.87289 6.93166 6.90234
#
# Compressibility (1/GPa) = 0.02086025
#
# Stress axis : x y z
#
# Youngs Moduli (GPa) = 56.85729 56.85729 60.26323
#
# Poissons Ratio (x) = 0.42422 0.24086
# Poissons Ratio (y) = 0.42422 0.24086
# Poissons Ratio (z) = 0.22725 0.22725
#
# Static dielectric constant tensor:
#      x y z
#    x 3.287640 0.000000 0.000000 
#    y 0.000000 3.287640 0.000000 
#    z 0.000000 0.000000 3.166380 
# 
# 
# High freq. dielectric constant tensor:
#      x y z
#    x 1.676700 0.000000 0.000000 
#    y 0.000000 1.676700 0.000000 
#    z 0.000000 0.000000 1.670100 
# 
# From -- ./inp_files/12060.got.cif
#   From: 2010.03.12/outbox.cif.g09.slc.cpg/sg131_7_cif.got.tgz:12060.got - 2010.04.06 17:36:35.
