data_PCOD8316329
_publ_section_title
;
Structure prediction by ZEFSAII (Michael W. Deem and Ramdas Pophale) SiO2 
 PCOD8316329
Probable space group: P 42/M M C
;
_chemical_formula_sum "Si O2"
_cell_formula_units_Z 50
_cell_length_a 21.524307
_cell_length_b 21.524307
_cell_length_c 7.781641
_cell_angle_alpha 90.000000
_cell_angle_beta 90.000000
_cell_angle_gamma 90.000000
_cell_volume 3605.201529
_symmetry_space_group_name_H-M "P 42/M M C"
_symmetry_group_IT_number 131
_symmetry_cell_setting 'tetragonal'
loop_
_space_group_symop_operation_xyz
x,y,z
-x,-y,z
-y,x,1/2+z
y,-x,1/2+z
-x,y,-z
x,-y,-z
y,x,1/2-z
-y,-x,1/2-z
-x,-y,-z
x,y,-z
y,-x,1/2-z
-y,x,1/2-z
x,-y,z
-x,y,z
-y,-x,1/2+z
y,x,1/2+z
loop_
_atom_site_type_symbol
_atom_site_label
_atom_site_fract_x
_atom_site_fract_y
_atom_site_fract_z
Si Si1 0.000000 0.129399 0.808241
Si Si2 0.926406 0.569157 0.000000
Si Si3 0.886327 0.791684 0.698652
Si Si4 0.072876 0.657397 0.303838
Si Si5 0.000000 0.000000 0.250000
O O1 0.060704 0.171335 0.797474
O O2 0.000000 0.071056 0.672142
O O3 0.000000 0.098842 0.000000
O O4 0.904325 0.604083 0.173240
O O5 0.897252 0.500000 0.000000
O O6 0.000000 0.564746 0.000000
O O7 0.818823 0.818823 0.750000
O O8 0.900640 0.799957 0.500000
O O9 0.888851 0.719082 0.746831
O O10 0.086858 0.636251 0.500000
O O11 0.000000 0.672023 0.280999
#
# Coordination Sequence:
#
# PCOD8316329 Si02
#       5
#     8   8  16  16   2
#     4  12  24  33  46  55  71 101 135 180 227 266
#     4   9  18  30  48  70  86 102 130 162 207 268
#     4  11  22  33  45  61  79 104 141 176 213 262
#     4   9  18  31  46  62  85 109 132 166 211 261
#     4  12  26  36  40  54  78  92 138 192 234 264
#
# _framework density 13.868849000000001
#
# number of rings (size 3 to 8) (size 9 to 14) (size 15 to 20)
#    0.000    1.760    3.200    1.680    4.480    1.920 
#    0.000    3.200    0.000    0.000    0.000    0.000 
#    0.000    0.000    0.000    0.000    0.000    0.000 
#
# Total GULP energy -619415.849093 kJ/mol
# GULP energy per Si atom -12388.316982 kJ/mol
# Density = 1.383728 g / cm^3
# Si number density = 13.868849 Si / 1000 Ang^3
#
#
#
# Elastic Constant Matrix: (Units=GPa)
#
#
# Indices 1 2 3 4 5 6 
#
# 1 81.0049 34.9160 39.9443 0.0000 0.0000 0.0000
# 2 34.9160 81.0049 39.9443 0.0000 0.0000 0.0000
# 3 39.9443 39.9443 81.4458 0.0000 0.0000 0.0000
# 4 0.0000 0.0000 0.0000 -16.6302 0.0000 0.0000
# 5 0.0000 0.0000 0.0000 0.0000 -16.6302 0.0000
# 6 0.0000 0.0000 0.0000 0.0000 0.0000 6.7595
#
#
#
# Elastic Compliance Matrix: (Units=1/GPa)
#
#
# Indices 1 2 3 4 5 6 
#
# 1 0.017364 -0.004333 -0.006391 0.000000 0.000000 0.000000
# 2 -0.004333 0.017364 -0.006391 0.000000 0.000000 0.000000
# 3 -0.006391 -0.006391 0.018547 0.000000 0.000000 0.000000
# 4 0.000000 0.000000 0.000000 -0.060131 0.000000 0.000000
# 5 0.000000 0.000000 0.000000 0.000000 -0.060131 0.000000
# 6 0.000000 0.000000 0.000000 0.000000 0.000000 0.147940
#
#
# Mechanical properties :
#
#
# Convention : Reuss Voigt Hill
#
# Bulk Modulus (GPa) = 52.50690 52.56274 52.53482
# Shear Modulus (GPa) = 41.14205 3.27655 22.20930
#
# Velocity S-wave (km/s) = 5.45247 1.53872 4.00607
# Velocity P-wave (km/s) = 8.80801 6.41397 7.70455
#
# Compressibility (1/GPa) = 0.01904512
#
# Stress axis : x y z
#
# Youngs Moduli (GPa) = 57.59017 57.59017 53.91763
#
# Poissons Ratio (x) = 0.24955 0.34458
# Poissons Ratio (y) = 0.24955 0.34458
# Poissons Ratio (z) = 0.36805 0.36805
#
# Static dielectric constant tensor:
#      x y z
#    x 2.622860 0.000000 0.000000 
#    y 0.000000 2.622860 0.000000 
#    z 0.000000 0.000000 2.907240 
# 
# 
# High freq. dielectric constant tensor:
#      x y z
#    x 1.490600 0.000000 0.000000 
#    y 0.000000 1.490600 0.000000 
#    z 0.000000 0.000000 1.546030 
# 
# From -- ./inp_files/1162.got.cif
#   From: 2010.03.12/outbox.cif.g09.slc.cpg/sg131_1_cif.got.tgz:1162.got - 2010.04.06 17:36:35.
