data_PCOD8316309
_publ_section_title
;
Structure prediction by ZEFSAII (Michael W. Deem and Ramdas Pophale) SiO2 
 PCOD8316309
Probable space group: P 42/M M C
;
_chemical_formula_sum "Si O2"
_cell_formula_units_Z 56
_cell_length_a 11.424325
_cell_length_b 11.424325
_cell_length_c 24.692146
_cell_angle_alpha 90.000000
_cell_angle_beta 90.000000
_cell_angle_gamma 90.000000
_cell_volume 3222.700416
_symmetry_space_group_name_H-M "P 42/M M C"
_symmetry_group_IT_number 131
_symmetry_cell_setting 'tetragonal'
loop_
_space_group_symop_operation_xyz
x,y,z
-x,-y,z
-y,x,1/2+z
y,-x,1/2+z
-x,y,-z
x,-y,-z
y,x,1/2-z
-y,-x,1/2-z
-x,-y,-z
x,y,-z
y,-x,1/2-z
-y,x,1/2-z
x,-y,z
-x,y,z
-y,-x,1/2+z
y,x,1/2+z
loop_
_atom_site_type_symbol
_atom_site_label
_atom_site_fract_x
_atom_site_fract_y
_atom_site_fract_z
Si Si1 0.730802 0.759111 0.906030
Si Si2 0.000000 0.627836 0.437966
Si Si3 0.863496 0.134113 0.812308
Si Si4 0.367692 0.862071 0.500000
Si Si5 0.361982 0.500000 0.562893
O O1 0.705535 0.889110 0.924882
O O2 0.789822 0.771427 0.846993
O O3 0.612055 0.684328 0.904610
O O4 0.820817 0.698137 0.946455
O O5 0.000000 0.500000 0.407659
O O6 0.000000 0.597939 0.500000
O O7 0.837138 0.162862 0.750000
O O8 0.000000 0.150031 0.825532
O O9 0.825980 0.000000 0.825131
O O10 0.500000 0.810636 0.500000
O O11 0.370063 0.000000 0.500000
O O12 0.500000 0.500000 0.564042
O O13 0.316735 0.500000 0.500000
#
# Coordination Sequence:
#
# PCOD8316309 Si02
#       5
#    16   8  16   8   8
#     4  12  20  35  58  84 112 144 186 230 280 333
#     4  11  20  32  50  86 120 142 170 225 290 337
#     4   9  19  36  58  84 114 149 185 224 278 340
#     4  11  24  38  53  78 114 154 188 223 274 337
#     4  11  22  37  59  83 111 154 194 225 272 335
#
# _framework density 17.376733000000002
#
# number of rings (size 3 to 8) (size 9 to 14) (size 15 to 20)
#    0.000    1.286    5.714    2.571    0.000    0.000 
#    0.000    0.714    6.286    0.000    0.000    0.000 
#    0.000    0.000    0.000    0.000    0.000    0.000 
#
# Total GULP energy -694292.769271 kJ/mol
# GULP energy per Si atom -12398.085166 kJ/mol
# Density = 1.733718 g / cm^3
# Si number density = 17.376733 Si / 1000 Ang^3
#
#
#
# Elastic Constant Matrix: (Units=GPa)
#
#
# Indices 1 2 3 4 5 6 
#
# 1 101.5110 47.7484 54.5272 0.0000 0.0000 0.0000
# 2 47.7484 101.5110 54.5272 0.0000 0.0000 0.0000
# 3 54.5272 54.5272 118.3346 0.0000 0.0000 0.0000
# 4 0.0000 0.0000 0.0000 2.0856 0.0000 0.0000
# 5 0.0000 0.0000 0.0000 0.0000 2.0856 0.0000
# 6 0.0000 0.0000 0.0000 0.0000 0.0000 29.6025
#
#
#
# Elastic Compliance Matrix: (Units=1/GPa)
#
#
# Indices 1 2 3 4 5 6 
#
# 1 0.014350 -0.004250 -0.004654 0.000000 0.000000 0.000000
# 2 -0.004250 0.014350 -0.004654 0.000000 0.000000 0.000000
# 3 -0.004654 -0.004654 0.012740 0.000000 0.000000 0.000000
# 4 0.000000 0.000000 0.000000 0.479467 0.000000 0.000000
# 5 0.000000 0.000000 0.000000 0.000000 0.479467 0.000000
# 6 0.000000 0.000000 0.000000 0.000000 0.000000 0.033781
#
#
# Mechanical properties :
#
#
# Convention : Reuss Voigt Hill
#
# Bulk Modulus (GPa) = 69.81371 70.55138 70.18254
# Shear Modulus (GPa) = 4.69023 17.72500 11.20761
#
# Velocity S-wave (km/s) = 1.64469 3.19727 2.54240
# Velocity P-wave (km/s) = 6.62348 7.37016 7.00677
#
# Compressibility (1/GPa) = 0.01432383
#
# Stress axis : x y z
#
# Youngs Moduli (GPa) = 69.68526 69.68526 78.49495
#
# Poissons Ratio (x) = 0.29617 0.36532
# Poissons Ratio (y) = 0.29617 0.36532
# Poissons Ratio (z) = 0.32432 0.32432
#
# Static dielectric constant tensor:
#      x y z
#    x 3.327080 0.000000 0.000000 
#    y 0.000000 3.327080 0.000000 
#    z 0.000000 0.000000 3.149800 
# 
# 
# High freq. dielectric constant tensor:
#      x y z
#    x 1.678120 0.000000 0.000000 
#    y 0.000000 1.678120 0.000000 
#    z 0.000000 0.000000 1.650390 
# 
# From -- ./inp_files/10707.got.cif
#   From: 2010.03.12/outbox.cif.g09.slc.cpg/sg131_6_cif.got.tgz:10707.got - 2010.04.06 17:36:35.
