data_PCOD8316889
_publ_section_title
;
Structure prediction by ZEFSAII (Michael W. Deem and Ramdas Pophale) SiO2 
 PCOD8316889
Probable space group: P 42/N B C
;
_chemical_formula_sum "Si O2"
_cell_formula_units_Z 104
_cell_length_a 18.141342
_cell_length_b 18.141342
_cell_length_c 15.529538
_cell_angle_alpha 90.000000
_cell_angle_beta 90.000000
_cell_angle_gamma 90.000000
_cell_volume 5110.899689
_symmetry_space_group_name_H-M "P 42/N B C"
_symmetry_group_IT_number 133
_space_group.IT_coordinate_system_code '2'
_symmetry_cell_setting 'tetragonal'
loop_
_space_group_symop_operation_xyz
x,y,z
1/2-y,x,1/2+z
1/2-x,1/2-y,z
y,1/2-x,1/2+z
x,1/2-y,-z
1/2-x,y,-z
y,x,1/2-z
1/2-y,1/2-x,1/2-z
-x,-y,-z
1/2+y,-x,1/2-z
1/2+x,1/2+y,-z
-y,1/2+x,1/2-z
-x,1/2+y,z
1/2+x,-y,z
-y,-x,1/2+z
1/2+y,1/2+x,1/2+z
loop_
_atom_site_type_symbol
_atom_site_label
_atom_site_fract_x
_atom_site_fract_y
_atom_site_fract_z
Si Si1 0.586844 0.586844 0.250000
Si Si2 0.857164 0.626641 0.571010
Si Si3 0.334447 0.998747 0.687881
Si Si4 0.949213 0.947765 0.557581
Si Si5 0.338577 0.161424 0.750000
Si Si6 0.425740 0.923608 0.818847
Si Si7 0.965053 0.294695 0.079918
Si Si8 0.750000 0.750000 0.610947
O O1 0.636548 0.610790 0.168000
O O2 0.598824 0.502443 0.274704
O O3 0.922242 0.623426 0.498769
O O4 0.820214 0.547311 0.556343
O O5 0.799611 0.693345 0.552962
O O6 0.380127 0.008700 0.598842
O O7 0.324948 0.074509 0.740656
O O8 0.366296 0.930803 0.743749
O O9 0.254400 0.969706 0.664867
O O10 0.995550 0.923010 0.639664
O O11 0.000000 0.000000 0.500000
O O12 0.298118 0.193063 0.833822
O O13 0.411386 0.862931 0.893574
O O14 0.929874 0.250000 0.000000
#
# Coordination Sequence:
#
# PCOD8316889 Si02
#       8
#     8  16  16  16   8  16  16   8
#     4  10  17  33  55  90 111 161 225 276 308 366
#     4  11  22  34  58  84 132 178 219 257 312 391
#     4  12  21  38  61  89 127 162 214 267 327 384
#     4  12  19  36  61  89 122 168 221 281 319 356
#     4  11  21  36  59  76 125 188 211 255 296 374
#     4  11  21  36  63  91 123 161 218 274 332 375
#     4  11  22  38  61  94 126 160 209 271 332 391
#     4  11  24  38  51  88 134 192 212 237 315 416
#
# _framework density 20.348669000000001
#
# number of rings (size 3 to 8) (size 9 to 14) (size 15 to 20)
#    0.000    0.769    9.231    0.923    2.154    0.000 
#    0.000    4.231    0.000    0.462    0.000    1.077 
#    0.000    0.000    0.000    0.000    0.000    0.000 
#
# Total GULP energy -1289002.220072 kJ/mol
# GULP energy per Si atom -12394.252116 kJ/mol
# Density = 2.030235 g / cm^3
# Si number density = 20.348669 Si / 1000 Ang^3
#
#
#
# Elastic Constant Matrix: (Units=GPa)
#
#
# Indices 1 2 3 4 5 6 
#
# 1 77.3598 36.4443 32.1060 0.0000 0.0000 0.0000
# 2 36.4443 77.3592 32.1058 0.0000 0.0000 0.0000
# 3 32.1060 32.1058 86.0759 0.0000 0.0000 0.0000
# 4 0.0000 0.0000 0.0000 29.9406 0.0000 0.0000
# 5 0.0000 0.0000 0.0000 0.0000 29.9410 0.0000
# 6 0.0000 0.0000 0.0000 0.0000 0.0000 38.6967
#
#
#
# Elastic Compliance Matrix: (Units=1/GPa)
#
#
# Indices 1 2 3 4 5 6 
#
# 1 0.017785 -0.006656 -0.004151 0.000000 0.000000 0.000000
# 2 -0.006656 0.017785 -0.004151 0.000000 0.000000 0.000000
# 3 -0.004151 -0.004151 0.014714 0.000000 0.000000 0.000000
# 4 0.000000 0.000000 0.000000 0.033399 0.000000 0.000000
# 5 0.000000 0.000000 0.000000 0.000000 0.033399 0.000000
# 6 0.000000 0.000000 0.000000 0.000000 0.000000 0.025842
#
#
# Mechanical properties :
#
#
# Convention : Reuss Voigt Hill
#
# Bulk Modulus (GPa) = 49.09597 49.12301 49.10949
# Shear Modulus (GPa) = 27.83491 29.05824 28.44657
#
# Velocity S-wave (km/s) = 3.70252 3.78301 3.74298
# Velocity P-wave (km/s) = 6.51598 6.57834 6.54724
#
# Compressibility (1/GPa) = 0.02036827
#
# Stress axis : x y z
#
# Youngs Moduli (GPa) = 56.22721 56.22688 67.96072
#
# Poissons Ratio (x) = 0.37423 0.28212
# Poissons Ratio (y) = 0.37423 0.28212
# Poissons Ratio (z) = 0.23341 0.23341
#
# Static dielectric constant tensor:
#      x y z
#    x 3.693540 0.000000 0.000000 
#    y 0.000000 3.693560 0.000000 
#    z 0.000000 0.000000 4.136040 
# 
# 
# High freq. dielectric constant tensor:
#      x y z
#    x 1.769060 0.000000 0.000000 
#    y 0.000000 1.769060 0.000000 
#    z 0.000000 0.000000 1.820970 
# 
# From -- ./inp_files/5632.got.cif
#   From: 2010.03.12/outbox.cif.g09.slc.cpg/sg133_3_cif.got.tgz:5632.got - 2010.04.06 18:08:06.
