data_PCOD8316624
_publ_section_title
;
Structure prediction by ZEFSAII (Michael W. Deem and Ramdas Pophale) SiO2 
 PCOD8316624
Probable space group: P 42/M C M
;
_chemical_formula_sum "Si O2"
_cell_formula_units_Z 104
_cell_length_a 17.261602
_cell_length_b 17.261602
_cell_length_c 18.330769
_cell_angle_alpha 90.000000
_cell_angle_beta 90.000000
_cell_angle_gamma 90.000000
_cell_volume 5461.889157
_symmetry_space_group_name_H-M "P 42/M C M"
_symmetry_group_IT_number 132
_symmetry_cell_setting 'tetragonal'
loop_
_space_group_symop_operation_xyz
x,y,z
-y,x,1/2+z
-x,-y,z
y,-x,1/2+z
x,-y,1/2-z
-x,y,1/2-z
y,x,-z
-y,-x,-z
-x,-y,-z
y,-x,1/2-z
x,y,-z
-y,x,1/2-z
-x,y,1/2+z
x,-y,1/2+z
-y,-x,z
y,x,z
loop_
_atom_site_type_symbol
_atom_site_label
_atom_site_fract_x
_atom_site_fract_y
_atom_site_fract_z
Si Si1 0.936466 0.936466 0.586208
Si Si2 0.690608 0.186705 0.825579
Si Si3 0.809459 0.423989 0.416312
Si Si4 0.786961 0.037579 0.177031
Si Si5 0.960163 0.337267 0.417591
Si Si6 0.587783 0.284909 0.278142
Si Si7 0.429631 0.103455 0.583716
O O1 0.929720 0.929720 0.500000
O O2 0.957836 0.853480 0.617625
O O3 0.000000 0.000000 0.609244
O O4 0.739564 0.260437 0.852355
O O5 0.749092 0.119431 0.799208
O O6 0.630421 0.213446 0.762877
O O7 0.645209 0.153423 0.894597
O O8 0.780239 0.436426 0.500000
O O9 0.868711 0.352184 0.413771
O O10 0.735577 0.410959 0.364418
O O11 0.859055 0.494474 0.379955
O O12 0.821545 0.000000 0.250000
O O13 0.725379 0.979025 0.142833
O O14 0.982717 0.310156 0.500000
O O15 0.012357 0.414308 0.399423
O O16 0.500000 0.297024 0.250000
O O17 0.635054 0.364947 0.266736
O O18 0.446396 0.116001 0.500000
#
# Coordination Sequence:
#
# PCOD8316624 Si02
#       7
#     8  16  16  16  16  16  16
#     4  11  26  44  62  84 116 162 211 251 297 356
#     4  10  20  36  55  86 116 148 193 245 297 344
#     4  10  19  35  58  86 118 154 192 232 285 356
#     4  11  22  37  60  86 118 154 200 253 298 343
#     4   9  18  33  55  86 123 157 190 234 295 356
#     4  11  23  40  62  84 118 155 197 246 300 368
#     4   9  17  30  53  84 118 155 189 229 286 351
#
# _framework density 19.041032000000001
#
# number of rings (size 3 to 8) (size 9 to 14) (size 15 to 20)
#    0.000    1.923    2.308    1.846    1.077    3.231 
#    0.000    0.769    0.000    1.385    0.000    1.077 
#    0.000    0.000    0.000    0.000    0.000    0.000 
#
# Total GULP energy -1288907.767117 kJ/mol
# GULP energy per Si atom -12393.343915 kJ/mol
# Density = 1.899769 g / cm^3
# Si number density = 19.041032 Si / 1000 Ang^3
#
#
#
# Elastic Constant Matrix: (Units=GPa)
#
#
# Indices 1 2 3 4 5 6 
#
# 1 82.4592 37.3852 31.3004 0.0000 0.0000 0.0000
# 2 37.3852 82.4592 31.3004 0.0000 0.0000 0.0000
# 3 31.3004 31.3004 45.5279 0.0000 0.0000 0.0000
# 4 0.0000 0.0000 0.0000 25.7005 0.0000 0.0000
# 5 0.0000 0.0000 0.0000 0.0000 25.7005 0.0000
# 6 0.0000 0.0000 0.0000 0.0000 0.0000 23.5801
#
#
#
# Elastic Compliance Matrix: (Units=1/GPa)
#
#
# Indices 1 2 3 4 5 6 
#
# 1 0.017603 -0.004583 -0.008951 0.000000 0.000000 0.000000
# 2 -0.004583 0.017603 -0.008951 0.000000 0.000000 0.000000
# 3 -0.008951 -0.008951 0.034272 0.000000 0.000000 0.000000
# 4 0.000000 0.000000 0.000000 0.038910 0.000000 0.000000
# 5 0.000000 0.000000 0.000000 0.000000 0.038910 0.000000
# 6 0.000000 0.000000 0.000000 0.000000 0.000000 0.042409
#
#
# Mechanical properties :
#
#
# Convention : Reuss Voigt Hill
#
# Bulk Modulus (GPa) = 40.80387 45.60204 43.20296
# Shear Modulus (GPa) = 20.58921 22.36021 21.47471
#
# Velocity S-wave (km/s) = 3.29189 3.43055 3.36194
# Velocity P-wave (km/s) = 5.99372 6.30023 6.14889
#
# Compressibility (1/GPa) = 0.02450748
#
# Stress axis : x y z
#
# Youngs Moduli (GPa) = 56.80925 56.80925 29.17806
#
# Poissons Ratio (x) = 0.26036 0.26118
# Poissons Ratio (y) = 0.26036 0.26118
# Poissons Ratio (z) = 0.50851 0.50851
#
# Static dielectric constant tensor:
#      x y z
#    x 3.444040 0.000000 0.000000 
#    y 0.000000 3.444040 0.000000 
#    z 0.000000 0.000000 3.372880 
# 
# 
# High freq. dielectric constant tensor:
#      x y z
#    x 1.734000 0.000000 0.000000 
#    y 0.000000 1.734000 0.000000 
#    z 0.000000 0.000000 1.734350 
# 
# From -- ./inp_files/6595.got.cif
#   From: 2010.03.12/outbox.cif.g09.slc.cpg/sg132_4_cif.got.tgz:6595.got - 2010.04.06 17:53:44.
