data_PCOD8316917
_publ_section_title
;
Structure prediction by ZEFSAII (Michael W. Deem and Ramdas Pophale) SiO2 
 PCOD8316917
Probable space group: P 42/N B C
;
_chemical_formula_sum "Si O2"
_cell_formula_units_Z 108
_cell_length_a 14.214248
_cell_length_b 14.214248
_cell_length_c 26.659816
_cell_angle_alpha 90.000000
_cell_angle_beta 90.000000
_cell_angle_gamma 90.000000
_cell_volume 5386.478424
_symmetry_space_group_name_H-M "P 42/N B C"
_symmetry_group_IT_number 133
_space_group.IT_coordinate_system_code '2'
_symmetry_cell_setting 'tetragonal'
loop_
_space_group_symop_operation_xyz
x,y,z
1/2-y,x,1/2+z
1/2-x,1/2-y,z
y,1/2-x,1/2+z
x,1/2-y,-z
1/2-x,y,-z
y,x,1/2-z
1/2-y,1/2-x,1/2-z
-x,-y,-z
1/2+y,-x,1/2-z
1/2+x,1/2+y,-z
-y,1/2+x,1/2-z
-x,1/2+y,z
1/2+x,-y,z
-y,-x,1/2+z
1/2+y,1/2+x,1/2+z
loop_
_atom_site_type_symbol
_atom_site_label
_atom_site_fract_x
_atom_site_fract_y
_atom_site_fract_z
Si Si1 0.750000 0.750000 0.917433
Si Si2 0.644588 0.512320 0.724138
Si Si3 0.159640 0.570407 0.281639
Si Si4 0.629433 0.007982 0.608345
Si Si5 0.750000 0.250000 0.250000
Si Si6 0.331027 0.435585 0.943010
Si Si7 0.828217 0.935253 0.613839
Si Si8 0.369270 0.005611 0.947267
O O1 0.704695 0.828856 0.953903
O O2 0.827678 0.793352 0.879804
O O3 0.607886 0.607886 0.750000
O O4 0.579255 0.424439 0.741414
O O5 0.756179 0.499280 0.736863
O O6 0.630902 0.522763 0.664916
O O7 0.114808 0.536813 0.333905
O O8 0.206409 0.673196 0.287838
O O9 0.593312 0.088368 0.570563
O O10 0.569626 0.911683 0.599331
O O11 0.739737 0.997364 0.595376
O O12 0.237632 0.491933 0.925426
O O13 0.371646 0.483752 0.992888
O O14 0.911806 0.936866 0.573625
#
# Coordination Sequence:
#
# PCOD8316917 Si02
#       8
#     8  16  16  16   4  16  16  16
#     4   8  16  33  53  80 110 138 177 226 274 329
#     4  10  19  36  56  79 108 142 187 234 278 331
#     4   9  19  35  57  80 108 145 189 235 278 333
#     4  10  19  34  54  81 112 142 182 230 273 323
#     4   8  16  36  60  80 104 150 196 224 276 344
#     4   9  19  33  56  84 111 145 185 224 276 331
#     4   9  19  33  54  80 109 144 181 222 276 328
#     4  10  19  34  55  81 113 147 181 224 270 330
#
# _framework density 20.050204000000001
#
# number of rings (size 3 to 8) (size 9 to 14) (size 15 to 20)
#    0.000    2.667    0.000    1.333    0.000    8.889 
#    0.000   21.111    0.000    1.778    0.000    2.074 
#    0.000    0.000    0.000    0.000    0.000    0.000 
#
# Total GULP energy -1338315.921783 kJ/mol
# GULP energy per Si atom -12391.814091 kJ/mol
# Density = 2.000457 g / cm^3
# Si number density = 20.050204 Si / 1000 Ang^3
#
#
#
# Elastic Constant Matrix: (Units=GPa)
#
#
# Indices 1 2 3 4 5 6 
#
# 1 94.0173 62.2839 63.3371 0.0000 0.0000 0.0000
# 2 62.2839 94.0173 63.3371 0.0000 0.0000 0.0000
# 3 63.3371 63.3371 104.6034 0.0000 0.0000 0.0000
# 4 0.0000 0.0000 0.0000 32.0105 0.0000 0.0000
# 5 0.0000 0.0000 0.0000 0.0000 32.0105 0.0000
# 6 0.0000 0.0000 0.0000 0.0000 0.0000 35.9615
#
#
#
# Elastic Compliance Matrix: (Units=1/GPa)
#
#
# Indices 1 2 3 4 5 6 
#
# 1 0.022038 -0.009475 -0.007607 0.000000 0.000000 0.000000
# 2 -0.009475 0.022038 -0.007607 0.000000 0.000000 0.000000
# 3 -0.007607 -0.007607 0.018772 0.000000 0.000000 0.000000
# 4 0.000000 0.000000 0.000000 0.031240 0.000000 0.000000
# 5 0.000000 0.000000 0.000000 0.000000 0.031240 0.000000
# 6 0.000000 0.000000 0.000000 0.000000 0.000000 0.027807
#
#
# Mechanical properties :
#
#
# Convention : Reuss Voigt Hill
#
# Bulk Modulus (GPa) = 74.23762 74.50604 74.37183
# Shear Modulus (GPa) = 24.15451 26.90851 25.53151
#
# Velocity S-wave (km/s) = 3.47465 3.66738 3.57232
# Velocity P-wave (km/s) = 7.29409 7.42788 7.36129
#
# Compressibility (1/GPa) = 0.01347026
#
# Stress axis : x y z
#
# Youngs Moduli (GPa) = 45.37687 45.37687 53.27186
#
# Poissons Ratio (x) = 0.42994 0.40522
# Poissons Ratio (y) = 0.42994 0.40522
# Poissons Ratio (z) = 0.34517 0.34517
#
# Static dielectric constant tensor:
#      x y z
#    x 3.827890 0.000000 0.000000 
#    y 0.000000 3.827890 0.000000 
#    z 0.000000 0.000000 3.316910 
# 
# 
# High freq. dielectric constant tensor:
#      x y z
#    x 1.783440 0.000000 0.000000 
#    y 0.000000 1.783440 0.000000 
#    z 0.000000 0.000000 1.755010 
# 
# From -- ./inp_files/8094.got.cif
#   From: 2010.03.12/outbox.cif.g09.slc.cpg/sg133_5_cif.got.tgz:8094.got - 2010.04.06 18:08:06.
