data_PCOD8316317
_publ_section_title
;
Structure prediction by ZEFSAII (Michael W. Deem and Ramdas Pophale) SiO2 
 PCOD8316317
Probable space group: P 42/M M C
;
_chemical_formula_sum "Si O2"
_cell_formula_units_Z 104
_cell_length_a 26.544430
_cell_length_b 26.544430
_cell_length_c 8.946133
_cell_angle_alpha 90.000000
_cell_angle_beta 90.000000
_cell_angle_gamma 90.000000
_cell_volume 6303.505824
_symmetry_space_group_name_H-M "P 42/M M C"
_symmetry_group_IT_number 131
_symmetry_cell_setting 'tetragonal'
loop_
_space_group_symop_operation_xyz
x,y,z
-x,-y,z
-y,x,1/2+z
y,-x,1/2+z
-x,y,-z
x,-y,-z
y,x,1/2-z
-y,-x,1/2-z
-x,-y,-z
x,y,-z
y,-x,1/2-z
-y,x,1/2-z
x,-y,z
-x,y,z
-y,-x,1/2+z
y,x,1/2+z
loop_
_atom_site_type_symbol
_atom_site_label
_atom_site_fract_x
_atom_site_fract_y
_atom_site_fract_z
Si Si1 0.682344 0.165521 0.326778
Si Si2 0.555934 0.757659 0.326455
Si Si3 0.137210 0.209020 0.174156
Si Si4 0.871514 0.576185 0.171708
Si Si5 0.268548 0.344577 0.322778
Si Si6 0.056732 0.869816 0.176781
Si Si7 0.942721 0.500000 0.676317
O O1 0.682225 0.182752 0.500000
O O2 0.732117 0.133888 0.284683
O O3 0.635993 0.127865 0.295614
O O4 0.679480 0.215777 0.228499
O O5 0.570796 0.751700 0.500000
O O6 0.500000 0.735737 0.294221
O O7 0.555439 0.816612 0.283689
O O8 0.596985 0.727914 0.228501
O O9 0.186848 0.186848 0.250000
O O10 0.087118 0.180043 0.229790
O O11 0.144063 0.200551 0.000000
O O12 0.914512 0.550179 0.268997
O O13 0.883293 0.563714 0.000000
O O14 0.314698 0.314698 0.250000
O O15 0.272846 0.341378 0.500000
O O16 0.080640 0.919361 0.250000
O O17 0.000000 0.863783 0.235543
O O18 0.058411 0.876482 0.000000
O O19 0.942257 0.500000 0.500000
O O20 0.000000 0.500000 0.737260
#
# Coordination Sequence:
#
# PCOD8316317 Si02
#       7
#    16  16  16  16  16  16   8
#     4   9  18  32  49  70  95 121 153 194 239 286
#     4   9  17  32  52  72  96 125 158 200 247 292
#     4   9  17  30  48  69  93 121 151 184 223 274
#     4   9  17  32  51  70  90 117 154 195 239 287
#     4  11  21  31  45  69 101 134 166 199 237 282
#     4   9  18  32  49  69  92 117 146 182 225 273
#     4  11  23  35  47  65  91 121 155 201 248 285
#
# _framework density 16.498756
#
# number of rings (size 3 to 8) (size 9 to 14) (size 15 to 20)
#    0.000    2.538    0.769    3.000    0.000    5.692 
#    0.000    1.538    0.000    2.769    0.000    0.000 
#    0.000    0.308    0.000    3.231    0.000    1.385 
#
# Total GULP energy -1289414.333336 kJ/mol
# GULP energy per Si atom -12398.214744 kJ/mol
# Density = 1.646120 g / cm^3
# Si number density = 16.498756 Si / 1000 Ang^3
#
#
#
# Elastic Constant Matrix: (Units=GPa)
#
#
# Indices 1 2 3 4 5 6 
#
# 1 123.3983 61.0476 42.4240 0.0000 0.0000 0.0000
# 2 61.0476 123.3958 42.4245 0.0000 0.0000 0.0000
# 3 42.4240 42.4245 67.0469 0.0000 0.0000 0.0000
# 4 0.0000 0.0000 0.0000 23.7900 0.0000 0.0000
# 5 0.0000 0.0000 0.0000 0.0000 23.7902 0.0000
# 6 0.0000 0.0000 0.0000 0.0000 0.0000 20.7859
#
#
#
# Elastic Compliance Matrix: (Units=1/GPa)
#
#
# Indices 1 2 3 4 5 6 
#
# 1 0.011843 -0.004195 -0.004839 0.000000 0.000000 0.000000
# 2 -0.004195 0.011843 -0.004839 0.000000 0.000000 0.000000
# 3 -0.004839 -0.004839 0.021039 0.000000 0.000000 0.000000
# 4 0.000000 0.000000 0.000000 0.042034 0.000000 0.000000
# 5 0.000000 0.000000 0.000000 0.000000 0.042034 0.000000
# 6 0.000000 0.000000 0.000000 0.000000 0.000000 0.048110
#
#
# Mechanical properties :
#
#
# Convention : Reuss Voigt Hill
#
# Bulk Modulus (GPa) = 58.90031 67.29257 63.09644
# Shear Modulus (GPa) = 23.77437 24.86954 24.32195
#
# Velocity S-wave (km/s) = 3.80014 3.88668 3.84366
# Velocity P-wave (km/s) = 7.41836 7.81132 7.61738
#
# Compressibility (1/GPa) = 0.01697784
#
# Stress axis : x y z
#
# Youngs Moduli (GPa) = 84.43783 84.43508 47.53081
#
# Poissons Ratio (x) = 0.35424 0.23000
# Poissons Ratio (y) = 0.35425 0.23002
# Poissons Ratio (z) = 0.40860 0.40861
#
# Static dielectric constant tensor:
#      x y z
#    x 3.266120 0.000000 0.000000 
#    y 0.000000 3.266130 0.000000 
#    z 0.000000 0.000000 3.027060 
# 
# 
# High freq. dielectric constant tensor:
#      x y z
#    x 1.624800 0.000000 0.000000 
#    y 0.000000 1.624800 0.000000 
#    z 0.000000 0.000000 1.631010 
# 
# From -- ./inp_files/2542.got.cif
#   From: 2010.03.12/outbox.cif.g09.slc.cpg/sg131_2_cif.got.tgz:2542.got - 2010.04.06 17:36:35.
