data_PCOD8316070
_publ_section_title
;
Structure prediction by ZEFSAII (Michael W. Deem and Ramdas Pophale) SiO2 
 PCOD8316070
Probable space group: P 42/M M C
;
_chemical_formula_sum "Si O2"
_cell_formula_units_Z 96
_cell_length_a 24.442457
_cell_length_b 24.442457
_cell_length_c 8.869372
_cell_angle_alpha 90.000000
_cell_angle_beta 90.000000
_cell_angle_gamma 90.000000
_cell_volume 5298.861768
_symmetry_space_group_name_H-M "P 42/M M C"
_symmetry_group_IT_number 131
_symmetry_cell_setting 'tetragonal'
loop_
_space_group_symop_operation_xyz
x,y,z
-x,-y,z
-y,x,1/2+z
y,-x,1/2+z
-x,y,-z
x,-y,-z
y,x,1/2-z
-y,-x,1/2-z
-x,-y,-z
x,y,-z
y,-x,1/2-z
-y,x,1/2-z
x,-y,z
-x,y,z
-y,-x,1/2+z
y,x,1/2+z
loop_
_atom_site_type_symbol
_atom_site_label
_atom_site_fract_x
_atom_site_fract_y
_atom_site_fract_z
Si Si1 0.186850 0.732517 0.672125
Si Si2 0.911768 0.562172 0.820999
Si Si3 0.768780 0.000000 0.179853
Si Si4 0.890757 0.804560 0.820380
Si Si5 0.728013 0.646911 0.669169
Si Si6 0.000000 0.359545 0.678973
Si Si7 0.437060 0.788702 0.665881
O O1 0.234665 0.765336 0.750000
O O2 0.176416 0.751922 0.500000
O O3 0.132960 0.744693 0.770895
O O4 0.209794 0.671279 0.678129
O O5 0.930681 0.500000 0.778207
O O6 0.849483 0.571086 0.765652
O O7 0.946968 0.608773 0.739688
O O8 0.917119 0.569490 0.000000
O O9 0.804157 0.049594 0.248365
O O10 0.704571 0.000000 0.230651
O O11 0.772993 0.000000 0.000000
O O12 0.852859 0.852859 0.750000
O O13 0.893254 0.810703 0.000000
O O14 0.681478 0.681478 0.750000
O O15 0.707317 0.641185 0.500000
O O16 0.738323 0.587874 0.739895
O O17 0.000000 0.362107 0.500000
O O18 0.410202 0.787752 0.500000
O O19 0.500000 0.774431 0.655958
#
# Coordination Sequence:
#
# PCOD8316070 Si02
#       7
#    16  16   8  16  16   8  16
#     4   9  17  30  48  73 103 135 169 207 253 306
#     4   9  19  36  55  73  98 138 183 223 267 318
#     4  11  25  42  56  80 115 142 172 217 264 311
#     4  11  22  38  60  83 107 139 174 209 258 317
#     4  10  20  32  50  75 104 137 176 219 265 315
#     4  11  24  36  51  76 107 137 174 227 274 307
#     4   9  19  35  53  74 102 138 179 223 270 318
#
# _framework density 18.117097999999999
#
# number of rings (size 3 to 8) (size 9 to 14) (size 15 to 20)
#    0.000    2.167    0.000    5.250    2.333    5.667 
#    0.000    1.667    0.000    0.250    0.000    1.750 
#    0.000    0.333    0.000    3.500    0.000    1.500 
#
# Total GULP energy -1189305.449696 kJ/mol
# GULP energy per Si atom -12388.598434 kJ/mol
# Density = 1.807586 g / cm^3
# Si number density = 18.117098 Si / 1000 Ang^3
#
#
#
# Elastic Constant Matrix: (Units=GPa)
#
#
# Indices 1 2 3 4 5 6 
#
# 1 77.5023 39.7828 41.3074 0.0000 0.0000 0.0000
# 2 39.7828 77.5016 41.3080 0.0000 0.0000 0.0000
# 3 41.3074 41.3080 114.9487 0.0000 0.0000 0.0000
# 4 0.0000 0.0000 0.0000 27.1717 0.0000 0.0000
# 5 0.0000 0.0000 0.0000 0.0000 27.1722 0.0000
# 6 0.0000 0.0000 0.0000 0.0000 0.0000 30.8250
#
#
#
# Elastic Compliance Matrix: (Units=1/GPa)
#
#
# Indices 1 2 3 4 5 6 
#
# 1 0.018964 -0.007548 -0.004102 0.000000 0.000000 0.000000
# 2 -0.007548 0.018964 -0.004103 0.000000 0.000000 0.000000
# 3 -0.004102 -0.004103 0.011648 0.000000 0.000000 0.000000
# 4 0.000000 0.000000 0.000000 0.036803 0.000000 0.000000
# 5 0.000000 0.000000 0.000000 0.000000 0.036802 0.000000
# 6 0.000000 0.000000 0.000000 0.000000 0.000000 0.032441
#
#
# Mechanical properties :
#
#
# Convention : Reuss Voigt Hill
#
# Bulk Modulus (GPa) = 55.33940 57.19435 56.26688
# Shear Modulus (GPa) = 25.88647 26.87074 26.37860
#
# Velocity S-wave (km/s) = 3.78410 3.85537 3.81990
# Velocity P-wave (km/s) = 7.05013 7.17331 7.11198
#
# Compressibility (1/GPa) = 0.01807031
#
# Stress axis : x y z
#
# Youngs Moduli (GPa) = 52.73236 52.73140 85.85157
#
# Poissons Ratio (x) = 0.39801 0.35219
# Poissons Ratio (y) = 0.39802 0.35221
# Poissons Ratio (z) = 0.21632 0.21633
#
# Static dielectric constant tensor:
#      x y z
#    x 3.275690 0.000000 0.000000 
#    y 0.000000 3.275700 0.000000 
#    z 0.000000 0.000000 3.466340 
# 
# 
# High freq. dielectric constant tensor:
#      x y z
#    x 1.684970 0.000000 0.000000 
#    y 0.000000 1.684970 0.000000 
#    z 0.000000 0.000000 1.710210 
# 
# From -- ./inp_files/2345.got.cif
#   From: 2010.03.12/outbox.cif.g09.slc.cpg/sg131_2_cif.got.tgz:2345.got - 2010.04.06 17:36:35.
