data_PCOD8316994
_publ_section_title
;
Structure prediction by ZEFSAII (Michael W. Deem and Ramdas Pophale) SiO2 
 PCOD8316994
Probable space group: P 42/N B C
;
_chemical_formula_sum "Si O2"
_cell_formula_units_Z 104
_cell_length_a 18.019738
_cell_length_b 18.019738
_cell_length_c 15.476810
_cell_angle_alpha 90.000000
_cell_angle_beta 90.000000
_cell_angle_gamma 90.000000
_cell_volume 5025.489796
_symmetry_space_group_name_H-M "P 42/N B C"
_symmetry_group_IT_number 133
_space_group.IT_coordinate_system_code '2'
_symmetry_cell_setting 'tetragonal'
loop_
_space_group_symop_operation_xyz
x,y,z
1/2-y,x,1/2+z
1/2-x,1/2-y,z
y,1/2-x,1/2+z
x,1/2-y,-z
1/2-x,y,-z
y,x,1/2-z
1/2-y,1/2-x,1/2-z
-x,-y,-z
1/2+y,-x,1/2-z
1/2+x,1/2+y,-z
-y,1/2+x,1/2-z
-x,1/2+y,z
1/2+x,-y,z
-y,-x,1/2+z
1/2+y,1/2+x,1/2+z
loop_
_atom_site_type_symbol
_atom_site_label
_atom_site_fract_x
_atom_site_fract_y
_atom_site_fract_z
Si Si1 0.544894 0.833365 0.376166
Si Si2 0.078765 0.358542 0.164419
Si Si3 0.104113 0.892974 0.819449
Si Si4 0.458619 0.458619 0.250000
Si Si5 0.175307 0.227492 0.597403
Si Si6 0.045657 0.754101 0.240076
Si Si7 0.421631 0.007493 0.043276
O O1 0.569320 0.910809 0.332153
O O2 0.605974 0.770156 0.362185
O O3 0.477590 0.795132 0.323667
O O4 0.529139 0.854640 0.476864
O O5 0.123606 0.376395 0.250000
O O6 0.138728 0.326564 0.098135
O O7 0.054985 0.434905 0.118767
O O8 0.016510 0.297176 0.184274
O O9 0.082821 0.805846 0.825054
O O10 0.184178 0.897122 0.773610
O O11 0.045450 0.942748 0.764820
O O12 0.106466 0.930099 0.914538
O O13 0.250000 0.250000 0.648430
O O14 0.181549 0.250000 0.500000
O O15 0.500000 0.000000 0.000000
#
# Coordination Sequence:
#
# PCOD8316994 Si02
#       7
#    16  16  16   8  16  16  16
#     4  11  23  41  66 101 131 184 230 281 347 418
#     4  12  23  42  69  99 135 181 228 273 341 417
#     4  11  23  44  67 102 131 178 232 286 349 400
#     4  10  22  40  69  94 132 169 242 274 340 414
#     4  11  24  38  58  95 144 181 212 271 343 414
#     4  11  26  43  73  99 135 182 238 293 343 424
#     4  12  24  41  74 102 137 176 235 295 336 408
#
# _framework density 20.694499
#
# number of rings (size 3 to 8) (size 9 to 14) (size 15 to 20)
#    0.000    0.769    6.154    0.923    6.462    0.615 
#    0.000    0.000    0.000    0.000    4.000    0.000 
#    0.000    0.000    0.000    0.000    0.000    0.000 
#
# Total GULP energy -1288535.722834 kJ/mol
# GULP energy per Si atom -12389.766566 kJ/mol
# Density = 2.064740 g / cm^3
# Si number density = 20.694499 Si / 1000 Ang^3
#
#
#
# Elastic Constant Matrix: (Units=GPa)
#
#
# Indices 1 2 3 4 5 6 
#
# 1 129.7753 48.9730 36.7015 0.0000 0.0000 0.0000
# 2 48.9730 129.7755 36.7018 0.0000 0.0000 0.0000
# 3 36.7015 36.7018 88.4975 0.0000 0.0000 0.0000
# 4 0.0000 0.0000 0.0000 17.4561 0.0000 0.0000
# 5 0.0000 0.0000 0.0000 0.0000 17.4563 0.0000
# 6 0.0000 0.0000 0.0000 0.0000 0.0000 43.3137
#
#
#
# Elastic Compliance Matrix: (Units=1/GPa)
#
#
# Indices 1 2 3 4 5 6 
#
# 1 0.009559 -0.002817 -0.002796 0.000000 0.000000 0.000000
# 2 -0.002817 0.009559 -0.002796 0.000000 0.000000 0.000000
# 3 -0.002796 -0.002796 0.013619 0.000000 0.000000 0.000000
# 4 0.000000 0.000000 0.000000 0.057287 0.000000 0.000000
# 5 0.000000 0.000000 0.000000 0.000000 0.057286 0.000000
# 6 0.000000 0.000000 0.000000 0.000000 0.000000 0.023087
#
#
# Mechanical properties :
#
#
# Convention : Reuss Voigt Hill
#
# Bulk Modulus (GPa) = 62.81692 65.86678 64.34185
# Shear Modulus (GPa) = 25.97095 30.69002 28.33048
#
# Velocity S-wave (km/s) = 3.54640 3.85516 3.70400
# Velocity P-wave (km/s) = 6.86946 7.19121 7.03218
#
# Compressibility (1/GPa) = 0.01591928
#
# Stress axis : x y z
#
# Youngs Moduli (GPa) = 104.60993 104.60988 73.42594
#
# Poissons Ratio (x) = 0.29464 0.20532
# Poissons Ratio (y) = 0.29464 0.20533
# Poissons Ratio (z) = 0.29253 0.29253
#
# Static dielectric constant tensor:
#      x y z
#    x 4.458460 0.000000 0.000000 
#    y 0.000000 4.458470 0.000000 
#    z 0.000000 0.000000 4.039080 
# 
# 
# High freq. dielectric constant tensor:
#      x y z
#    x 1.809210 0.000000 0.000000 
#    y 0.000000 1.809210 0.000000 
#    z 0.000000 0.000000 1.807380 
# 
# From -- ./inp_files/5618.got.cif
#   From: 2010.03.12/outbox.cif.g09.slc.cpg/sg133_3_cif.got.tgz:5618.got - 2010.04.06 18:08:06.
