data_PCOD8316900
_publ_section_title
;
Structure prediction by ZEFSAII (Michael W. Deem and Ramdas Pophale) SiO2 
 PCOD8316900
Probable space group: P 42/N B C
;
_chemical_formula_sum "Si O2"
_cell_formula_units_Z 96
_cell_length_a 19.986404
_cell_length_b 19.986404
_cell_length_c 13.022542
_cell_angle_alpha 90.000000
_cell_angle_beta 90.000000
_cell_angle_gamma 90.000000
_cell_volume 5201.937028
_symmetry_space_group_name_H-M "P 42/N B C"
_symmetry_group_IT_number 133
_space_group.IT_coordinate_system_code '2'
_symmetry_cell_setting 'tetragonal'
loop_
_space_group_symop_operation_xyz
x,y,z
1/2-y,x,1/2+z
1/2-x,1/2-y,z
y,1/2-x,1/2+z
x,1/2-y,-z
1/2-x,y,-z
y,x,1/2-z
1/2-y,1/2-x,1/2-z
-x,-y,-z
1/2+y,-x,1/2-z
1/2+x,1/2+y,-z
-y,1/2+x,1/2-z
-x,1/2+y,z
1/2+x,-y,z
-y,-x,1/2+z
1/2+y,1/2+x,1/2+z
loop_
_atom_site_type_symbol
_atom_site_label
_atom_site_fract_x
_atom_site_fract_y
_atom_site_fract_z
Si Si1 0.479453 0.214528 0.601689
Si Si2 0.582077 0.330595 0.226927
Si Si3 0.541484 0.103776 0.976827
Si Si4 0.183323 0.575505 0.334865
Si Si5 0.440406 0.161126 0.285986
Si Si6 0.041846 0.409118 0.487979
O O1 0.512752 0.250000 0.500000
O O2 0.535601 0.185309 0.676208
O O3 0.430696 0.265830 0.661957
O O4 0.435698 0.153058 0.559413
O O5 0.550990 0.381025 0.143242
O O6 0.596069 0.260799 0.169583
O O7 0.648027 0.367226 0.267555
O O8 0.461990 0.100592 0.993619
O O9 0.576655 0.160259 0.046635
O O10 0.568152 0.032667 0.018524
O O11 0.167238 0.499800 0.296958
O O12 0.367992 0.132009 0.250000
O O13 0.465142 0.107739 0.368745
#
# Coordination Sequence:
#
# PCOD8316900 Si02
#       6
#    16  16  16  16  16  16
#     4   9  20  36  55  82 115 151 188 233 293 358
#     4  11  23  37  56  79 114 157 197 238 293 344
#     4  11  21  34  55  87 115 144 192 253 297 344
#     4  11  22  37  55  77 116 151 199 243 285 345
#     4  10  18  34  57  82 114 153 187 233 296 356
#     4  10  19  33  57  85 117 146 185 242 304 351
#
# _framework density 18.454664000000001
#
# number of rings (size 3 to 8) (size 9 to 14) (size 15 to 20)
#    0.000    1.667    5.000    0.500    0.000    1.000 
#    0.000    0.000    0.000    2.000    0.000    9.333 
#    0.000    0.000    0.000    0.000    0.000    0.000 
#
# Total GULP energy -1189444.301153 kJ/mol
# GULP energy per Si atom -12390.044804 kJ/mol
# Density = 1.841266 g / cm^3
# Si number density = 18.454664 Si / 1000 Ang^3
#
#
#
# Elastic Constant Matrix: (Units=GPa)
#
#
# Indices 1 2 3 4 5 6 
#
# 1 80.0248 37.3244 25.7793 0.0000 0.0000 0.0000
# 2 37.3244 80.0239 25.7803 0.0000 0.0000 0.0000
# 3 25.7793 25.7803 84.9469 0.0000 0.0000 0.0000
# 4 0.0000 0.0000 0.0000 26.8991 0.0000 0.0000
# 5 0.0000 0.0000 0.0000 0.0000 26.8997 0.0000
# 6 0.0000 0.0000 0.0000 0.0000 0.0000 14.7527
#
#
#
# Elastic Compliance Matrix: (Units=1/GPa)
#
#
# Indices 1 2 3 4 5 6 
#
# 1 0.016626 -0.006793 -0.002984 0.000000 0.000000 0.000000
# 2 -0.006793 0.016626 -0.002984 0.000000 0.000000 0.000000
# 3 -0.002984 -0.002984 0.013583 0.000000 0.000000 0.000000
# 4 0.000000 0.000000 0.000000 0.037176 0.000000 0.000000
# 5 0.000000 0.000000 0.000000 0.000000 0.037175 0.000000
# 6 0.000000 0.000000 0.000000 0.000000 0.000000 0.067784
#
#
# Mechanical properties :
#
#
# Convention : Reuss Voigt Hill
#
# Bulk Modulus (GPa) = 46.92079 46.97372 46.94726
# Shear Modulus (GPa) = 22.56344 24.11774 23.34059
#
# Velocity S-wave (km/s) = 3.50042 3.61898 3.56019
# Velocity P-wave (km/s) = 6.46664 6.55527 6.51110
#
# Compressibility (1/GPa) = 0.02131251
#
# Stress axis : x y z
#
# Youngs Moduli (GPa) = 60.14753 60.14629 73.62002
#
# Poissons Ratio (x) = 0.40859 0.21967
# Poissons Ratio (y) = 0.40860 0.21970
# Poissons Ratio (z) = 0.17947 0.17949
#
# Static dielectric constant tensor:
#      x y z
#    x 3.367440 0.000000 0.000000 
#    y 0.000000 3.367440 0.000000 
#    z 0.000000 0.000000 3.535190 
# 
# 
# High freq. dielectric constant tensor:
#      x y z
#    x 1.697420 0.000000 0.000000 
#    y 0.000000 1.697420 0.000000 
#    z 0.000000 0.000000 1.732320 
# 
# From -- ./inp_files/3366.got.cif
#   From: 2010.03.12/outbox.cif.g09.slc.cpg/sg133_2_cif.got.tgz:3366.got - 2010.04.06 18:08:06.
