data_PCOD8316736
_publ_section_title
;
Structure prediction by ZEFSAII (Michael W. Deem and Ramdas Pophale) SiO2 
 PCOD8316736
Probable space group: P 42/M C M
;
_chemical_formula_sum "Si O2"
_cell_formula_units_Z 64
_cell_length_a 12.395428
_cell_length_b 12.395428
_cell_length_c 22.843883
_cell_angle_alpha 90.000000
_cell_angle_beta 90.000000
_cell_angle_gamma 90.000000
_cell_volume 3509.885760
_symmetry_space_group_name_H-M "P 42/M C M"
_symmetry_group_IT_number 132
_symmetry_cell_setting 'tetragonal'
loop_
_space_group_symop_operation_xyz
x,y,z
-y,x,1/2+z
-x,-y,z
y,-x,1/2+z
x,-y,1/2-z
-x,y,1/2-z
y,x,-z
-y,-x,-z
-x,-y,-z
y,-x,1/2-z
x,y,-z
-y,x,1/2-z
-x,y,1/2+z
x,-y,1/2+z
-y,-x,z
y,x,z
loop_
_atom_site_type_symbol
_atom_site_label
_atom_site_fract_x
_atom_site_fract_y
_atom_site_fract_z
Si Si1 0.136230 0.311266 0.432528
Si Si2 0.479077 0.209048 0.128832
Si Si3 0.106334 0.717815 0.566685
Si Si4 0.586514 0.413487 0.438137
Si Si5 0.500000 0.680701 0.750000
O O1 0.153730 0.345759 0.500000
O O2 0.224478 0.224478 0.412483
O O3 0.143979 0.416059 0.391797
O O4 0.019448 0.256836 0.423493
O O5 0.373140 0.141061 0.112900
O O6 0.474124 0.322722 0.097172
O O7 0.484663 0.235825 0.197088
O O8 0.125568 0.676991 0.500000
O O9 0.173429 0.826572 0.579120
O O10 0.500000 0.500000 0.454483
O O11 0.633142 0.366859 0.500000
O O12 0.605525 0.605525 0.741726
#
# Coordination Sequence:
#
# PCOD8316736 Si02
#       5
#    16  16  16   8   8
#     4  10  21  36  56  83 114 146 183 230 282 337
#     4  12  21  35  55  80 111 147 185 230 278 332
#     4  10  20  36  58  83 112 146 184 229 284 341
#     4  11  20  30  50  80 111 141 173 217 272 335
#     4  11  22  36  53  76 114 156 193 227 272 334
#
# _framework density 18.234210999999998
#
# number of rings (size 3 to 8) (size 9 to 14) (size 15 to 20)
#    0.000    1.250    2.500    5.250    0.000    4.500 
#    0.000    5.000    0.000    0.000    0.000    0.000 
#    0.000    6.000    0.000    0.000    0.000    0.000 
#
# Total GULP energy -793559.206641 kJ/mol
# GULP energy per Si atom -12399.362604 kJ/mol
# Density = 1.819271 g / cm^3
# Si number density = 18.234211 Si / 1000 Ang^3
#
#
#
# Elastic Constant Matrix: (Units=GPa)
#
#
# Indices 1 2 3 4 5 6 
#
# 1 104.5200 11.1013 26.9302 0.0000 0.0000 0.0000
# 2 11.1013 104.5200 26.9302 0.0000 0.0000 0.0000
# 3 26.9302 26.9302 109.2738 0.0000 0.0000 0.0000
# 4 0.0000 0.0000 0.0000 901.6733 0.0000 0.0000
# 5 0.0000 0.0000 0.0000 0.0000 901.6993 0.0000
# 6 0.0000 0.0000 0.0000 0.0000 0.0000 21.8681
#
#
#
# Elastic Compliance Matrix: (Units=1/GPa)
#
#
# Indices 1 2 3 4 5 6 
#
# 1 0.010238 -0.000467 -0.002408 0.000000 0.000000 0.000000
# 2 -0.000467 0.010238 -0.002408 0.000000 0.000000 0.000000
# 3 -0.002408 -0.002408 0.010338 0.000000 0.000000 0.000000
# 4 0.000000 0.000000 0.000000 0.001109 0.000000 0.000000
# 5 0.000000 0.000000 0.000000 0.000000 0.001109 0.000000
# 6 0.000000 0.000000 0.000000 0.000000 0.000000 0.045729
#
#
# Mechanical properties :
#
#
# Convention : Reuss Voigt Hill
#
# Bulk Modulus (GPa) = 49.38839 49.80414 49.59627
# Shear Modulus (GPa) = 52.04270 381.93828 216.99049
#
# Velocity S-wave (km/s) = 5.34820 14.48852 10.92063
# Velocity P-wave (km/s) = 8.07973 17.52890 13.64816
#
# Compressibility (1/GPa) = 0.02024767
#
# Stress axis : x y z
#
# Youngs Moduli (GPa) = 97.67946 97.67945 96.72878
#
# Poissons Ratio (x) = 0.04561 0.23292
# Poissons Ratio (y) = 0.04561 0.23292
# Poissons Ratio (z) = 0.23521 0.23521
#
# Static dielectric constant tensor:
#      x y z
#    x 3.481030 0.000000 0.000000 
#    y 0.000000 3.481020 0.000000 
#    z 0.000000 0.000000 3.393200 
# 
# 
# High freq. dielectric constant tensor:
#      x y z
#    x 1.707640 0.000000 0.000000 
#    y 0.000000 1.707640 0.000000 
#    z 0.000000 0.000000 1.689070 
# 
# From -- ./inp_files/8771.got.cif
#   From: 2010.03.12/outbox.cif.g09.slc.cpg/sg132_5_cif.got.tgz:8771.got - 2010.04.06 17:53:44.
