data_PCOD8316180
_publ_section_title
;
Structure prediction by ZEFSAII (Michael W. Deem and Ramdas Pophale) SiO2 
 PCOD8316180
Probable space group: P 42/M M C
;
_chemical_formula_sum "Si O2"
_cell_formula_units_Z 104
_cell_length_a 18.009222
_cell_length_b 18.009222
_cell_length_c 16.717421
_cell_angle_alpha 90.000000
_cell_angle_beta 90.000000
_cell_angle_gamma 90.000000
_cell_volume 5421.995876
_symmetry_space_group_name_H-M "P 42/M M C"
_symmetry_group_IT_number 131
_symmetry_cell_setting 'tetragonal'
loop_
_space_group_symop_operation_xyz
x,y,z
-x,-y,z
-y,x,1/2+z
y,-x,1/2+z
-x,y,-z
x,-y,-z
y,x,1/2-z
-y,-x,1/2-z
-x,-y,-z
x,y,-z
y,-x,1/2-z
-y,x,1/2-z
x,-y,z
-x,y,z
-y,-x,1/2+z
y,x,1/2+z
loop_
_atom_site_type_symbol
_atom_site_label
_atom_site_fract_x
_atom_site_fract_y
_atom_site_fract_z
Si Si1 0.083913 0.000000 0.905108
Si Si2 0.083928 0.295404 0.181268
Si Si3 0.654148 0.580777 0.094623
Si Si4 0.284767 0.804104 0.814015
Si Si5 0.179896 0.583733 0.906076
Si Si6 0.731008 0.415294 0.406180
Si Si7 0.841380 0.142588 0.594133
O O1 0.126002 0.925422 0.875348
O O2 0.000000 0.000000 0.871033
O O3 0.082119 0.000000 0.000000
O O4 0.117757 0.293149 0.269744
O O5 0.124478 0.357964 0.130677
O O6 0.087377 0.215076 0.138737
O O7 0.000000 0.320510 0.190258
O O8 0.628434 0.500000 0.128794
O O9 0.736843 0.600434 0.126239
O O10 0.597622 0.645324 0.120324
O O11 0.658303 0.574499 0.000000
O O12 0.257544 0.742457 0.750000
O O13 0.362904 0.783075 0.853540
O O14 0.225869 0.816068 0.884936
O O15 0.156722 0.500000 0.882190
O O16 0.176804 0.594662 0.000000
O O17 0.741423 0.397182 0.500000
O O18 0.752322 0.500000 0.387194
O O19 0.834512 0.129655 0.500000
#
# Coordination Sequence:
#
# PCOD8316180 Si02
#       7
#     8  16  16  16  16  16  16
#     4   9  18  32  54  86 115 137 168 215 273 331
#     4  11  23  36  54  80 112 146 183 230 282 338
#     4   8  14  27  50  80 111 138 168 214 272 328
#     4  10  22  38  55  78 111 148 188 227 275 341
#     4   9  18  33  54  80 109 144 186 229 277 336
#     4  10  20  35  58  84 109 144 193 244 284 321
#     4  10  20  36  60  84 110 146 185 226 274 331
#
# _framework density 19.181128999999999
#
# number of rings (size 3 to 8) (size 9 to 14) (size 15 to 20)
#    0.000    2.385    0.000    4.154    1.077    4.308 
#    0.000    3.077    0.000    0.000    0.000    1.077 
#    0.000    0.000    0.000    0.000    0.000    0.000 
#
# Total GULP energy -1289324.064528 kJ/mol
# GULP energy per Si atom -12397.346774 kJ/mol
# Density = 1.913747 g / cm^3
# Si number density = 19.181129 Si / 1000 Ang^3
#
#
#
# Elastic Constant Matrix: (Units=GPa)
#
#
# Indices 1 2 3 4 5 6 
#
# 1 98.6699 31.9651 39.9665 0.0000 0.0000 0.0000
# 2 31.9651 98.6707 39.9663 0.0000 0.0000 0.0000
# 3 39.9665 39.9663 51.5631 0.0000 0.0000 0.0000
# 4 0.0000 0.0000 0.0000 19.3079 0.0000 0.0000
# 5 0.0000 0.0000 0.0000 0.0000 19.3081 0.0000
# 6 0.0000 0.0000 0.0000 0.0000 0.0000 24.0824
#
#
#
# Elastic Compliance Matrix: (Units=1/GPa)
#
#
# Indices 1 2 3 4 5 6 
#
# 1 0.014776 -0.000215 -0.011286 0.000000 0.000000 0.000000
# 2 -0.000215 0.014776 -0.011286 0.000000 0.000000 0.000000
# 3 -0.011286 -0.011286 0.036889 0.000000 0.000000 0.000000
# 4 0.000000 0.000000 0.000000 0.051792 0.000000 0.000000
# 5 0.000000 0.000000 0.000000 0.000000 0.051792 0.000000
# 6 0.000000 0.000000 0.000000 0.000000 0.000000 0.041524
#
#
# Mechanical properties :
#
#
# Convention : Reuss Voigt Hill
#
# Bulk Modulus (GPa) = 47.92333 52.52219 50.22276
# Shear Modulus (GPa) = 18.93380 21.67338 20.30359
#
# Velocity S-wave (km/s) = 3.14523 3.36509 3.25702
# Velocity P-wave (km/s) = 6.18295 6.52228 6.35488
#
# Compressibility (1/GPa) = 0.02086666
#
# Stress axis : x y z
#
# Youngs Moduli (GPa) = 67.67749 67.67857 27.10858
#
# Poissons Ratio (x) = 0.01458 0.30594
# Poissons Ratio (y) = 0.01458 0.30594
# Poissons Ratio (z) = 0.76379 0.76379
#
# Static dielectric constant tensor:
#      x y z
#    x 3.635650 0.000000 0.000000 
#    y 0.000000 3.635660 0.000000 
#    z 0.000000 0.000000 3.294730 
# 
# 
# High freq. dielectric constant tensor:
#      x y z
#    x 1.744670 0.000000 0.000000 
#    y 0.000000 1.744670 0.000000 
#    z 0.000000 0.000000 1.726820 
# 
# From -- ./inp_files/8113.got.cif
#   From: 2010.03.12/outbox.cif.g09.slc.cpg/sg131_5_cif.got.tgz:8113.got - 2010.04.06 17:36:35.
