data_PCOD8316622
_publ_section_title
;
Structure prediction by ZEFSAII (Michael W. Deem and Ramdas Pophale) SiO2 
 PCOD8316622
Probable space group: P 42/M C M
;
_chemical_formula_sum "Si O2"
_cell_formula_units_Z 96
_cell_length_a 15.870537
_cell_length_b 15.870537
_cell_length_c 20.103596
_cell_angle_alpha 90.000000
_cell_angle_beta 90.000000
_cell_angle_gamma 90.000000
_cell_volume 5063.572027
_symmetry_space_group_name_H-M "P 42/M C M"
_symmetry_group_IT_number 132
_symmetry_cell_setting 'tetragonal'
loop_
_space_group_symop_operation_xyz
x,y,z
-y,x,1/2+z
-x,-y,z
y,-x,1/2+z
x,-y,1/2-z
-x,y,1/2-z
y,x,-z
-y,-x,-z
-x,-y,-z
y,-x,1/2-z
x,y,-z
-y,x,1/2-z
-x,y,1/2+z
x,-y,1/2+z
-y,-x,z
y,x,z
loop_
_atom_site_type_symbol
_atom_site_label
_atom_site_fract_x
_atom_site_fract_y
_atom_site_fract_z
Si Si1 0.863618 0.996465 0.925956
Si Si2 0.584925 0.134695 0.785407
Si Si3 0.005399 0.721813 0.825926
Si Si4 0.569965 0.708026 0.927451
Si Si5 0.819919 0.320652 0.342056
Si Si6 0.551063 0.688336 0.682060
O O1 0.906683 0.906683 0.903724
O O2 0.796495 0.036065 0.873751
O O3 0.823256 0.985666 0.000000
O O4 0.936325 0.063676 0.930370
O O5 0.500000 0.097051 0.750000
O O6 0.636797 0.062667 0.824857
O O7 0.644158 0.182158 0.732425
O O8 0.563656 0.212148 0.833826
O O9 0.000000 0.755496 0.750000
O O10 0.916006 0.700325 0.859012
O O11 0.647685 0.647685 0.938196
O O12 0.605661 0.791719 0.891956
O O13 0.502570 0.658733 0.881570
O O14 0.531357 0.731073 0.000000
O O15 0.762003 0.237998 0.346700
O O16 0.500000 0.673113 0.750000
O O17 0.638189 0.638189 0.685339
#
# Coordination Sequence:
#
# PCOD8316622 Si02
#       6
#    16  16  16  16  16  16
#     4   9  19  37  58  81 118 164 201 241 299 359
#     4  10  20  37  58  82 115 155 192 235 288 344
#     4  10  22  34  57  91 116 149 196 249 291 342
#     4  10  21  37  56  82 116 149 185 238 296 345
#     4  10  19  35  56  81 112 147 190 238 289 341
#     4  11  21  36  59  84 111 151 197 241 289 354
#
# _framework density 18.958947999999999
#
# number of rings (size 3 to 8) (size 9 to 14) (size 15 to 20)
#    0.000    2.000    3.333    2.000    0.000    9.167 
#    0.000    4.167    0.000    1.000    0.000    0.000 
#    0.000    0.000    0.000    0.000    0.000    0.000 
#
# Total GULP energy -1189405.564808 kJ/mol
# GULP energy per Si atom -12389.641300 kJ/mol
# Density = 1.891580 g / cm^3
# Si number density = 18.958948 Si / 1000 Ang^3
#
#
#
# Elastic Constant Matrix: (Units=GPa)
#
#
# Indices 1 2 3 4 5 6 
#
# 1 99.9019 39.7156 34.8039 0.0000 0.0000 0.0000
# 2 39.7156 99.9019 34.8039 0.0000 0.0000 0.0000
# 3 34.8039 34.8039 95.0502 0.0000 0.0000 0.0000
# 4 0.0000 0.0000 0.0000 22.8856 0.0000 0.0000
# 5 0.0000 0.0000 0.0000 0.0000 22.8856 0.0000
# 6 0.0000 0.0000 0.0000 0.0000 0.0000 29.3109
#
#
#
# Elastic Compliance Matrix: (Units=1/GPa)
#
#
# Indices 1 2 3 4 5 6 
#
# 1 0.012689 -0.003927 -0.003208 0.000000 0.000000 0.000000
# 2 -0.003927 0.012689 -0.003208 0.000000 0.000000 0.000000
# 3 -0.003208 -0.003208 0.012870 0.000000 0.000000 0.000000
# 4 0.000000 0.000000 0.000000 0.043696 0.000000 0.000000
# 5 0.000000 0.000000 0.000000 0.000000 0.043696 0.000000
# 6 0.000000 0.000000 0.000000 0.000000 0.000000 0.034117
#
#
# Mechanical properties :
#
#
# Convention : Reuss Voigt Hill
#
# Bulk Modulus (GPa) = 56.94447 57.05567 57.00007
# Shear Modulus (GPa) = 26.83908 27.38513 27.11211
#
# Velocity S-wave (km/s) = 3.76658 3.80471 3.78569
# Velocity P-wave (km/s) = 7.00122 7.03283 7.01704
#
# Compressibility (1/GPa) = 0.01756097
#
# Stress axis : x y z
#
# Youngs Moduli (GPa) = 78.81139 78.81139 77.69831
#
# Poissons Ratio (x) = 0.30946 0.24928
# Poissons Ratio (y) = 0.30946 0.24928
# Poissons Ratio (z) = 0.25285 0.25285
#
# Static dielectric constant tensor:
#      x y z
#    x 3.635220 0.000000 0.000000 
#    y 0.000000 3.635220 0.000000 
#    z 0.000000 0.000000 3.695130 
# 
# 
# High freq. dielectric constant tensor:
#      x y z
#    x 1.733720 0.000000 0.000000 
#    y 0.000000 1.733720 0.000000 
#    z 0.000000 0.000000 1.718640 
# 
# From -- ./inp_files/7866.got.cif
#   From: 2010.03.12/outbox.cif.g09.slc.cpg/sg132_4_cif.got.tgz:7866.got - 2010.04.06 17:53:44.
