data_PCOD8316446
_publ_section_title
;
Structure prediction by ZEFSAII (Michael W. Deem and Ramdas Pophale) SiO2 
 PCOD8316446
Probable space group: P 42/M C M
;
_chemical_formula_sum "Si O2"
_cell_formula_units_Z 96
_cell_length_a 19.080440
_cell_length_b 19.080440
_cell_length_c 17.711469
_cell_angle_alpha 90.000000
_cell_angle_beta 90.000000
_cell_angle_gamma 90.000000
_cell_volume 6448.093914
_symmetry_space_group_name_H-M "P 42/M C M"
_symmetry_group_IT_number 132
_symmetry_cell_setting 'tetragonal'
loop_
_space_group_symop_operation_xyz
x,y,z
-y,x,1/2+z
-x,-y,z
y,-x,1/2+z
x,-y,1/2-z
-x,y,1/2-z
y,x,-z
-y,-x,-z
-x,-y,-z
y,-x,1/2-z
x,y,-z
-y,x,1/2-z
-x,y,1/2+z
x,-y,1/2+z
-y,-x,z
y,x,z
loop_
_atom_site_type_symbol
_atom_site_label
_atom_site_fract_x
_atom_site_fract_y
_atom_site_fract_z
Si Si1 0.904014 0.365978 0.411339
Si Si2 0.916699 0.505881 0.334831
Si Si3 0.218440 0.892227 0.859315
Si Si4 0.869897 0.979219 0.163589
Si Si5 0.639958 0.064743 0.915874
Si Si6 0.131378 0.242071 0.190160
O O1 0.887108 0.354510 0.500000
O O2 0.883413 0.445025 0.387071
O O3 0.860907 0.313097 0.357873
O O4 0.984546 0.350693 0.390509
O O5 0.887909 0.500000 0.250000
O O6 0.894912 0.582655 0.365010
O O7 0.000000 0.500000 0.338410
O O8 0.183206 0.816795 0.872162
O O9 0.284443 0.898346 0.914372
O O10 0.251210 0.898818 0.775061
O O11 0.158023 0.950575 0.877599
O O12 0.943982 0.943982 0.134570
O O13 0.810336 0.921685 0.148792
O O14 0.881500 0.000000 0.250000
O O15 0.609693 0.066830 0.000000
O O16 0.208668 0.208668 0.193618
#
# Coordination Sequence:
#
# PCOD8316446 Si02
#       6
#    16  16  16  16  16  16
#     4  10  18  28  43  61  81 104 129 161 202 253
#     4   9  17  28  45  64  79  98 124 160 201 242
#     4  10  19  29  43  59  77 104 139 177 213 251
#     4   9  16  26  40  57  75  96 130 179 225 256
#     4  10  19  30  42  58  81 105 129 164 205 249
#     4   9  17  28  42  60  80 104 134 169 210 252
#
# _framework density 14.888120000000001
#
# number of rings (size 3 to 8) (size 9 to 14) (size 15 to 20)
#    0.000    2.500    1.667    3.000    0.000    5.167 
#    0.000    0.000    0.000    0.500    0.000    1.167 
#    0.000    0.000    0.000    0.000    0.000    0.833 
#
# Total GULP energy -1189577.515748 kJ/mol
# GULP energy per Si atom -12391.432456 kJ/mol
# Density = 1.485423 g / cm^3
# Si number density = 14.888120 Si / 1000 Ang^3
#
#
#
# Elastic Constant Matrix: (Units=GPa)
#
#
# Indices 1 2 3 4 5 6 
#
# 1 63.1022 28.2898 18.6575 0.0000 0.0000 0.0000
# 2 28.2898 63.1022 18.6575 0.0000 0.0000 0.0000
# 3 18.6575 18.6575 47.4699 0.0000 0.0000 0.0000
# 4 0.0000 0.0000 0.0000 16.6342 0.0000 0.0000
# 5 0.0000 0.0000 0.0000 0.0000 16.6342 0.0000
# 6 0.0000 0.0000 0.0000 0.0000 0.0000 7.2353
#
#
#
# Elastic Compliance Matrix: (Units=1/GPa)
#
#
# Indices 1 2 3 4 5 6 
#
# 1 0.020879 -0.007846 -0.005123 0.000000 0.000000 0.000000
# 2 -0.007846 0.020879 -0.005123 0.000000 0.000000 0.000000
# 3 -0.005123 -0.005123 0.025093 0.000000 0.000000 0.000000
# 4 0.000000 0.000000 0.000000 0.060117 0.000000 0.000000
# 5 0.000000 0.000000 0.000000 0.000000 0.060117 0.000000
# 6 0.000000 0.000000 0.000000 0.000000 0.000000 0.138212
#
#
# Mechanical properties :
#
#
# Convention : Reuss Voigt Hill
#
# Bulk Modulus (GPa) = 32.60611 33.87596 33.24103
# Shear Modulus (GPa) = 13.45160 15.30538 14.37849
#
# Velocity S-wave (km/s) = 3.00911 3.20976 3.11105
# Velocity P-wave (km/s) = 5.83278 6.04482 5.93974
#
# Compressibility (1/GPa) = 0.03066910
#
# Stress axis : x y z
#
# Youngs Moduli (GPa) = 47.89409 47.89409 39.85213
#
# Poissons Ratio (x) = 0.37578 0.20415
# Poissons Ratio (y) = 0.37578 0.20415
# Poissons Ratio (z) = 0.24534 0.24534
#
# Static dielectric constant tensor:
#      x y z
#    x 2.725880 0.000000 0.000000 
#    y 0.000000 2.725880 0.000000 
#    z 0.000000 0.000000 2.740270 
# 
# 
# High freq. dielectric constant tensor:
#      x y z
#    x 1.537730 0.000000 0.000000 
#    y 0.000000 1.537730 0.000000 
#    z 0.000000 0.000000 1.562240 
# 
# From -- ./inp_files/5022.got.cif
#   From: 2010.03.12/outbox.cif.g09.slc.cpg/sg132_3_cif.got.tgz:5022.got - 2010.04.06 17:53:44.
