data_PCOD8316665
_publ_section_title
;
Structure prediction by ZEFSAII (Michael W. Deem and Ramdas Pophale) SiO2 
 PCOD8316665
Probable space group: P 42/M C M
;
_chemical_formula_sum "Si O2"
_cell_formula_units_Z 96
_cell_length_a 24.414207
_cell_length_b 24.414207
_cell_length_c 8.979827
_cell_angle_alpha 90.000000
_cell_angle_beta 90.000000
_cell_angle_gamma 90.000000
_cell_volume 5352.457344
_symmetry_space_group_name_H-M "P 42/M C M"
_symmetry_group_IT_number 132
_symmetry_cell_setting 'tetragonal'
loop_
_space_group_symop_operation_xyz
x,y,z
-y,x,1/2+z
-x,-y,z
y,-x,1/2+z
x,-y,1/2-z
-x,y,1/2-z
y,x,-z
-y,-x,-z
-x,-y,-z
y,-x,1/2-z
x,y,-z
-y,x,1/2-z
-x,y,1/2+z
x,-y,1/2+z
-y,-x,z
y,x,z
loop_
_atom_site_type_symbol
_atom_site_label
_atom_site_fract_x
_atom_site_fract_y
_atom_site_fract_z
Si Si1 0.259711 0.944026 0.825803
Si Si2 0.943182 0.853254 0.176114
Si Si3 0.839529 0.330476 0.825820
Si Si4 0.256137 0.256137 0.662282
Si Si5 0.653571 0.653571 0.662010
Si Si6 0.175346 0.446161 0.166610
Si Si7 0.695541 0.448605 0.335739
O O1 0.204023 0.923839 0.747205
O O2 0.306928 0.899790 0.799988
O O3 0.280355 0.000000 0.750000
O O4 0.248150 0.953750 0.000000
O O5 0.897943 0.897943 0.215991
O O6 0.000000 0.872415 0.250000
O O7 0.951017 0.846284 0.000000
O O8 0.795736 0.285992 0.756398
O O9 0.838182 0.389615 0.749611
O O10 0.825486 0.338697 0.000000
O O11 0.235302 0.235302 0.500000
O O12 0.301332 0.301332 0.640489
O O13 0.633267 0.633267 0.500000
O O14 0.605182 0.680307 0.750477
O O15 0.150576 0.500000 0.250000
O O16 0.239763 0.453727 0.156236
O O17 0.150268 0.443802 0.000000
O O18 0.669675 0.500000 0.250000
O O19 0.669825 0.446944 0.500000
#
# Coordination Sequence:
#
# PCOD8316665 Si02
#       7
#    16  16  16   8   8  16  16
#     4  10  21  36  58  80 107 144 184 224 266 320
#     4  10  21  36  54  77 106 139 179 226 273 322
#     4  10  20  35  55  80 108 143 180 218 264 318
#     4   9  18  31  49  77 110 138 172 212 259 315
#     4  11  19  31  53  74 104 141 169 214 264 311
#     4  10  20  33  52  77 108 142 175 216 261 314
#     4  10  20  33  49  72 102 137 178 216 258 312
#
# _framework density 17.935686
#
# number of rings (size 3 to 8) (size 9 to 14) (size 15 to 20)
#    0.000    2.000    1.667    3.250    1.167    4.167 
#    0.000    1.250    0.000    0.750    0.000    5.250 
#    0.000    0.000    0.000    0.000    0.000    0.000 
#
# Total GULP energy -1189939.948465 kJ/mol
# GULP energy per Si atom -12395.207797 kJ/mol
# Density = 1.789486 g / cm^3
# Si number density = 17.935686 Si / 1000 Ang^3
#
#
#
# Elastic Constant Matrix: (Units=GPa)
#
#
# Indices 1 2 3 4 5 6 
#
# 1 88.8010 43.9541 44.7495 0.0000 0.0000 0.0000
# 2 43.9541 88.8010 44.7495 0.0000 0.0000 0.0000
# 3 44.7495 44.7495 127.9220 0.0000 0.0000 0.0000
# 4 0.0000 0.0000 0.0000 26.7296 0.0000 0.0000
# 5 0.0000 0.0000 0.0000 0.0000 26.7296 0.0000
# 6 0.0000 0.0000 0.0000 0.0000 0.0000 20.1549
#
#
#
# Elastic Compliance Matrix: (Units=1/GPa)
#
#
# Indices 1 2 3 4 5 6 
#
# 1 0.016078 -0.006220 -0.003448 0.000000 0.000000 0.000000
# 2 -0.006220 0.016078 -0.003448 0.000000 0.000000 0.000000
# 3 -0.003448 -0.003448 0.010230 0.000000 0.000000 0.000000
# 4 0.000000 0.000000 0.000000 0.037412 0.000000 0.000000
# 5 0.000000 0.000000 0.000000 0.000000 0.037412 0.000000
# 6 0.000000 0.000000 0.000000 0.000000 0.000000 0.049616
#
#
# Mechanical properties :
#
#
# Convention : Reuss Voigt Hill
#
# Bulk Modulus (GPa) = 61.91411 63.60338 62.75874
# Shear Modulus (GPa) = 25.19627 26.19422 25.69524
#
# Velocity S-wave (km/s) = 3.75215 3.82573 3.78912
# Velocity P-wave (km/s) = 7.30524 7.41983 7.36276
#
# Compressibility (1/GPa) = 0.01615141
#
# Stress axis : x y z
#
# Youngs Moduli (GPa) = 62.19771 62.19771 97.75335
#
# Poissons Ratio (x) = 0.38689 0.33708
# Poissons Ratio (y) = 0.38689 0.33708
# Poissons Ratio (z) = 0.21448 0.21448
#
# Static dielectric constant tensor:
#      x y z
#    x 3.204180 0.000000 0.000000 
#    y 0.000000 3.204180 0.000000 
#    z 0.000000 0.000000 3.572870 
# 
# 
# High freq. dielectric constant tensor:
#      x y z
#    x 1.683440 0.000000 0.000000 
#    y 0.000000 1.683440 0.000000 
#    z 0.000000 0.000000 1.702900 
# 
# From -- ./inp_files/1861.got.cif
#   From: 2010.03.12/outbox.cif.g09.slc.cpg/sg132_1_cif.got.tgz:1861.got - 2010.04.06 17:53:44.
