data_PCOD8316123
_publ_section_title
;
Structure prediction by ZEFSAII (Michael W. Deem and Ramdas Pophale) SiO2 
 PCOD8316123
Probable space group: P 42/M M C
;
_chemical_formula_sum "Si O2"
_cell_formula_units_Z 56
_cell_length_a 17.654775
_cell_length_b 17.654775
_cell_length_c 9.607101
_cell_angle_alpha 90.000000
_cell_angle_beta 90.000000
_cell_angle_gamma 90.000000
_cell_volume 2994.447689
_symmetry_space_group_name_H-M "P 42/M M C"
_symmetry_group_IT_number 131
_symmetry_cell_setting 'tetragonal'
loop_
_space_group_symop_operation_xyz
x,y,z
-x,-y,z
-y,x,1/2+z
y,-x,1/2+z
-x,y,-z
x,-y,-z
y,x,1/2-z
-y,-x,1/2-z
-x,-y,-z
x,y,-z
y,-x,1/2-z
-y,x,1/2-z
x,-y,z
-x,y,z
-y,-x,1/2+z
y,x,1/2+z
loop_
_atom_site_type_symbol
_atom_site_label
_atom_site_fract_x
_atom_site_fract_y
_atom_site_fract_z
Si Si1 0.806767 0.910690 0.163108
Si Si2 0.650596 0.158346 0.162405
Si Si3 0.911226 0.500000 0.342068
Si Si4 0.586031 0.317100 0.840837
O O1 0.876413 0.876413 0.250000
O O2 0.729191 0.873521 0.224040
O O3 0.803832 0.000000 0.189706
O O4 0.818228 0.892232 0.000000
O O5 0.577048 0.117864 0.232028
O O6 0.642316 0.247489 0.191108
O O7 0.651320 0.138174 0.000000
O O8 0.878464 0.500000 0.500000
O O9 0.000000 0.500000 0.339550
O O10 0.611318 0.388683 0.750000
O O11 0.500000 0.293787 0.803708
O O12 0.592273 0.342278 0.000000
#
# Coordination Sequence:
#
# PCOD8316123 Si02
#       4
#    16  16   8  16
#     4  10  21  36  55  80 108 139 177 219 263 313
#     4   9  16  30  50  76 107 134 166 211 261 310
#     4   9  14  22  44  76 106 133 160 200 255 309
#     4  10  20  34  52  74 102 135 171 212 256 303
#
# _framework density 18.701277999999999
#
# number of rings (size 3 to 8) (size 9 to 14) (size 15 to 20)
#    0.000    2.429    1.429    1.714    0.000    5.143 
#    0.000    2.857    0.000    0.000    0.000    0.000 
#    0.000    4.571    0.000    0.000    0.000    0.000 
#
# Total GULP energy -694226.573466 kJ/mol
# GULP energy per Si atom -12396.903098 kJ/mol
# Density = 1.865871 g / cm^3
# Si number density = 18.701278 Si / 1000 Ang^3
#
#
#
# Elastic Constant Matrix: (Units=GPa)
#
#
# Indices 1 2 3 4 5 6 
#
# 1 102.0724 64.8792 43.2726 0.0000 0.0000 0.0000
# 2 64.8792 102.0672 43.2727 0.0000 0.0000 0.0000
# 3 43.2726 43.2727 39.8864 0.0000 0.0000 0.0000
# 4 0.0000 0.0000 0.0000 22.2759 0.0000 0.0000
# 5 0.0000 0.0000 0.0000 0.0000 22.2762 0.0000
# 6 0.0000 0.0000 0.0000 0.0000 0.0000 38.9789
#
#
#
# Elastic Compliance Matrix: (Units=1/GPa)
#
#
# Indices 1 2 3 4 5 6 
#
# 1 0.020287 -0.006600 -0.014849 0.000000 0.000000 0.000000
# 2 -0.006600 0.020289 -0.014851 0.000000 0.000000 0.000000
# 3 -0.014849 -0.014851 0.057293 0.000000 0.000000 0.000000
# 4 0.000000 0.000000 0.000000 0.044892 0.000000 0.000000
# 5 0.000000 0.000000 0.000000 0.000000 0.044891 0.000000
# 6 0.000000 0.000000 0.000000 0.000000 0.000000 0.025655
#
#
# Mechanical properties :
#
#
# Convention : Reuss Voigt Hill
#
# Bulk Modulus (GPa) = 39.57493 60.76390 50.16942
# Shear Modulus (GPa) = 16.98767 22.87962 19.93365
#
# Velocity S-wave (km/s) = 3.01719 3.50154 3.26835
# Velocity P-wave (km/s) = 5.77455 6.99358 6.41310
#
# Compressibility (1/GPa) = 0.02526852
#
# Stress axis : x y z
#
# Youngs Moduli (GPa) = 49.29189 49.28709 17.45412
#
# Poissons Ratio (x) = 0.32530 0.25918
# Poissons Ratio (y) = 0.32534 0.25922
# Poissons Ratio (z) = 0.73194 0.73198
#
# Static dielectric constant tensor:
#      x y z
#    x 3.480940 0.000000 0.000000 
#    y 0.000000 3.480940 0.000000 
#    z 0.000000 0.000000 2.965520 
# 
# 
# High freq. dielectric constant tensor:
#      x y z
#    x 1.737110 0.000000 0.000000 
#    y 0.000000 1.737110 0.000000 
#    z 0.000000 0.000000 1.663400 
# 
# From -- ./inp_files/1199.got.cif
#   From: 2010.03.12/outbox.cif.g09.slc.cpg/sg131_1_cif.got.tgz:1199.got - 2010.04.06 17:36:35.
