data_PCOD8316093
_publ_section_title
;
Structure prediction by ZEFSAII (Michael W. Deem and Ramdas Pophale) SiO2 
 PCOD8316093
Probable space group: P 42/M M C
;
_chemical_formula_sum "Si O2"
_cell_formula_units_Z 96
_cell_length_a 25.048167
_cell_length_b 25.048167
_cell_length_c 9.213298
_cell_angle_alpha 90.000000
_cell_angle_beta 90.000000
_cell_angle_gamma 90.000000
_cell_volume 5780.521472
_symmetry_space_group_name_H-M "P 42/M M C"
_symmetry_group_IT_number 131
_symmetry_cell_setting 'tetragonal'
loop_
_space_group_symop_operation_xyz
x,y,z
-x,-y,z
-y,x,1/2+z
y,-x,1/2+z
-x,y,-z
x,-y,-z
y,x,1/2-z
-y,-x,1/2-z
-x,-y,-z
x,y,-z
y,-x,1/2-z
-y,x,1/2-z
x,-y,z
-x,y,z
-y,-x,1/2+z
y,x,1/2+z
loop_
_atom_site_type_symbol
_atom_site_label
_atom_site_fract_x
_atom_site_fract_y
_atom_site_fract_z
Si Si1 0.563100 0.639439 0.831324
Si Si2 0.436560 0.744286 0.335566
Si Si3 0.848513 0.561666 0.669118
Si Si4 0.939802 0.641186 0.670477
Si Si5 0.860583 0.939147 0.328536
Si Si6 0.936587 0.256911 0.839673
O O1 0.589661 0.589661 0.750000
O O2 0.500000 0.632948 0.812811
O O3 0.584116 0.693799 0.756515
O O4 0.579578 0.640237 0.000000
O O5 0.414411 0.741050 0.500000
O O6 0.500000 0.744439 0.334855
O O7 0.415857 0.798375 0.259738
O O8 0.835590 0.570337 0.500000
O O9 0.859610 0.500000 0.704046
O O10 0.901535 0.592961 0.718561
O O11 0.940098 0.648276 0.500000
O O12 0.916418 0.696225 0.734779
O O13 0.000000 0.629031 0.727200
O O14 0.904188 0.904188 0.250000
O O15 0.867713 0.934291 0.500000
O O16 0.801408 0.918127 0.283476
O O17 0.868857 0.000000 0.277762
O O18 0.000000 0.255982 0.846795
O O19 0.913251 0.268059 0.000000
#
# Coordination Sequence:
#
# PCOD8316093 Si02
#       6
#    16  16  16  16  16  16
#     4  10  20  33  50  72  98 127 157 190 230 275
#     4   9  17  30  48  68  90 119 158 198 231 269
#     4   9  17  29  45  66  94 125 153 185 229 278
#     4   9  17  28  44  68  94 120 153 190 226 268
#     4   9  18  31  46  66  91 118 148 181 220 266
#     4   8  15  29  46  62  84 116 151 185 222 265
#
# _framework density 16.607498
#
# number of rings (size 3 to 8) (size 9 to 14) (size 15 to 20)
#    0.000    3.000    0.000    2.000    0.000    5.333 
#    0.000    5.000    0.000    1.000    0.000    7.000 
#    0.000    0.000    0.000    0.000    0.000    0.000 
#
# Total GULP energy -1190077.711123 kJ/mol
# GULP energy per Si atom -12396.642824 kJ/mol
# Density = 1.656970 g / cm^3
# Si number density = 16.607498 Si / 1000 Ang^3
#
#
#
# Elastic Constant Matrix: (Units=GPa)
#
#
# Indices 1 2 3 4 5 6 
#
# 1 87.3854 53.8497 48.8717 0.0000 0.0000 0.0000
# 2 53.8497 87.3854 48.8717 0.0000 0.0000 0.0000
# 3 48.8717 48.8717 78.6165 0.0000 0.0000 0.0000
# 4 0.0000 0.0000 0.0000 26.7760 0.0000 0.0000
# 5 0.0000 0.0000 0.0000 0.0000 26.7760 0.0000
# 6 0.0000 0.0000 0.0000 0.0000 0.0000 3.1910
#
#
#
# Elastic Compliance Matrix: (Units=1/GPa)
#
#
# Indices 1 2 3 4 5 6 
#
# 1 0.021123 -0.008696 -0.007725 0.000000 0.000000 0.000000
# 2 -0.008696 0.021123 -0.007725 0.000000 0.000000 0.000000
# 3 -0.007725 -0.007725 0.022324 0.000000 0.000000 0.000000
# 4 0.000000 0.000000 0.000000 0.037347 0.000000 0.000000
# 5 0.000000 0.000000 0.000000 0.000000 0.037347 0.000000
# 6 0.000000 0.000000 0.000000 0.000000 0.000000 0.313377
#
#
# Mechanical properties :
#
#
# Convention : Reuss Voigt Hill
#
# Bulk Modulus (GPa) = 61.43370 61.84149 61.63760
# Shear Modulus (GPa) = 9.87443 18.13488 14.00465
#
# Velocity S-wave (km/s) = 2.44104 3.30808 2.90707
# Velocity P-wave (km/s) = 6.70945 7.20480 6.96153
#
# Compressibility (1/GPa) = 0.01627771
#
# Stress axis : x y z
#
# Youngs Moduli (GPa) = 47.34229 47.34229 44.79424
#
# Poissons Ratio (x) = 0.41170 0.34603
# Poissons Ratio (y) = 0.41170 0.34603
# Poissons Ratio (z) = 0.36571 0.36571
#
# Static dielectric constant tensor:
#      x y z
#    x 3.129550 0.000000 0.000000 
#    y 0.000000 3.129550 0.000000 
#    z 0.000000 0.000000 3.222100 
# 
# 
# High freq. dielectric constant tensor:
#      x y z
#    x 1.623100 0.000000 0.000000 
#    y 0.000000 1.623100 0.000000 
#    z 0.000000 0.000000 1.642800 
# 
# From -- ./inp_files/2254.got.cif
#   From: 2010.03.12/outbox.cif.g09.slc.cpg/sg131_2_cif.got.tgz:2254.got - 2010.04.06 17:36:35.
