data_PCOD8316959
_publ_section_title
;
Structure prediction by ZEFSAII (Michael W. Deem and Ramdas Pophale) SiO2 
 PCOD8316959
Probable space group: P 42/N B C
;
_chemical_formula_sum "Si O2"
_cell_formula_units_Z 52
_cell_length_a 11.555214
_cell_length_b 11.555214
_cell_length_c 19.054881
_cell_angle_alpha 90.000000
_cell_angle_beta 90.000000
_cell_angle_gamma 90.000000
_cell_volume 2544.264315
_symmetry_space_group_name_H-M "P 42/N B C"
_symmetry_group_IT_number 133
_space_group.IT_coordinate_system_code '2'
_symmetry_cell_setting 'tetragonal'
loop_
_space_group_symop_operation_xyz
x,y,z
1/2-y,x,1/2+z
1/2-x,1/2-y,z
y,1/2-x,1/2+z
x,1/2-y,-z
1/2-x,y,-z
y,x,1/2-z
1/2-y,1/2-x,1/2-z
-x,-y,-z
1/2+y,-x,1/2-z
1/2+x,1/2+y,-z
-y,1/2+x,1/2-z
-x,1/2+y,z
1/2+x,-y,z
-y,-x,1/2+z
1/2+y,1/2+x,1/2+z
loop_
_atom_site_type_symbol
_atom_site_label
_atom_site_fract_x
_atom_site_fract_y
_atom_site_fract_z
Si Si1 0.750000 0.250000 0.750000
Si Si2 0.908789 0.264731 0.127046
Si Si3 0.774833 0.060911 0.077539
Si Si4 0.848137 0.845059 0.169662
O O1 0.863452 0.274734 0.796505
O O2 0.877043 0.158538 0.074394
O O3 0.842961 0.381948 0.105837
O O4 0.044104 0.288455 0.129026
O O5 0.808975 0.958512 0.129052
O O6 0.750000 0.011854 0.000000
O O7 0.750000 0.750000 0.167574
O O8 0.878647 0.878647 0.250000
#
# Coordination Sequence:
#
# PCOD8316959 Si02
#       4
#     4  16  16  16
#     4   8  16  36  66  92 112 176 220 246 324 380
#     4  10  20  40  65  90 126 170 210 267 316 390
#     4  10  23  44  65  92 126 170 214 258 326 392
#     4  11  25  41  62  97 129 165 216 272 320 374
#
# _framework density 20.438127999999999
#
# number of rings (size 3 to 8) (size 9 to 14) (size 15 to 20)
#    0.000    2.154    0.000    5.538    4.308    1.846 
#    5.538    0.000    0.000    0.000    0.000    0.000 
#    0.000    0.000    0.000    0.000    0.000    0.000 
#
# Total GULP energy -644758.109341 kJ/mol
# GULP energy per Si atom -12399.194410 kJ/mol
# Density = 2.039161 g / cm^3
# Si number density = 20.438128 Si / 1000 Ang^3
#
#
#
# Elastic Constant Matrix: (Units=GPa)
#
#
# Indices 1 2 3 4 5 6 
#
# 1 118.1138 49.9236 51.8594 0.0000 0.0000 0.0000
# 2 49.9236 118.1138 51.8594 0.0000 0.0000 0.0000
# 3 51.8594 51.8594 133.0620 0.0000 0.0000 0.0000
# 4 0.0000 0.0000 0.0000 19.1407 0.0000 0.0000
# 5 0.0000 0.0000 0.0000 0.0000 19.1407 0.0000
# 6 0.0000 0.0000 0.0000 0.0000 0.0000 23.3131
#
#
#
# Elastic Compliance Matrix: (Units=1/GPa)
#
#
# Indices 1 2 3 4 5 6 
#
# 1 0.011250 -0.003414 -0.003054 0.000000 0.000000 0.000000
# 2 -0.003414 0.011250 -0.003054 0.000000 0.000000 0.000000
# 3 -0.003054 -0.003054 0.009896 0.000000 0.000000 0.000000
# 4 0.000000 0.000000 0.000000 0.052245 0.000000 0.000000
# 5 0.000000 0.000000 0.000000 0.000000 0.052245 0.000000
# 6 0.000000 0.000000 0.000000 0.000000 0.000000 0.042894
#
#
# Mechanical properties :
#
#
# Convention : Reuss Voigt Hill
#
# Bulk Modulus (GPa) = 74.89552 75.17493 75.03523
# Shear Modulus (GPa) = 24.59706 26.69536 25.64621
#
# Velocity S-wave (km/s) = 3.47290 3.61800 3.54619
# Velocity P-wave (km/s) = 7.26677 7.36986 7.31849
#
# Compressibility (1/GPa) = 0.01335193
#
# Stress axis : x y z
#
# Youngs Moduli (GPa) = 88.88497 88.88497 101.05255
#
# Poissons Ratio (x) = 0.30349 0.30862
# Poissons Ratio (y) = 0.30349 0.30862
# Poissons Ratio (z) = 0.27146 0.27146
#
# Static dielectric constant tensor:
#      x y z
#    x 3.646520 0.000000 0.000000 
#    y 0.000000 3.646520 0.000000 
#    z 0.000000 0.000000 3.891050 
# 
# 
# High freq. dielectric constant tensor:
#      x y z
#    x 1.791710 0.000000 0.000000 
#    y 0.000000 1.791710 0.000000 
#    z 0.000000 0.000000 1.806350 
# 
# From -- ./inp_files/6045.got.cif
#   From: 2010.03.12/outbox.cif.g09.slc.cpg/sg133_4_cif.got.tgz:6045.got - 2010.04.06 18:08:06.
