data_PCOD8316561
_publ_section_title
;
Structure prediction by ZEFSAII (Michael W. Deem and Ramdas Pophale) SiO2 
 PCOD8316561
Probable space group: P 42/M C M
;
_chemical_formula_sum "Si O2"
_cell_formula_units_Z 80
_cell_length_a 18.828365
_cell_length_b 18.828365
_cell_length_c 14.977011
_cell_angle_alpha 90.000000
_cell_angle_beta 90.000000
_cell_angle_gamma 90.000000
_cell_volume 5309.460160
_symmetry_space_group_name_H-M "P 42/M C M"
_symmetry_group_IT_number 132
_symmetry_cell_setting 'tetragonal'
loop_
_space_group_symop_operation_xyz
x,y,z
-y,x,1/2+z
-x,-y,z
y,-x,1/2+z
x,-y,1/2-z
-x,y,1/2-z
y,x,-z
-y,-x,-z
-x,-y,-z
y,-x,1/2-z
x,y,-z
-y,x,1/2-z
-x,y,1/2+z
x,-y,1/2+z
-y,-x,z
y,x,z
loop_
_atom_site_type_symbol
_atom_site_label
_atom_site_fract_x
_atom_site_fract_y
_atom_site_fract_z
Si Si1 0.503321 0.916041 0.349497
Si Si2 0.748097 0.134346 0.254976
Si Si3 0.000000 0.839659 0.250000
Si Si4 0.089260 0.351228 0.900633
Si Si5 0.342952 0.925176 0.899360
Si Si6 0.057779 0.942222 0.899332
O O1 0.500000 0.884809 0.250000
O O2 0.434277 0.888086 0.402338
O O3 0.577394 0.892686 0.394530
O O4 0.500000 0.000000 0.348837
O O5 0.794078 0.205923 0.248027
O O6 0.795535 0.067350 0.282127
O O7 0.690203 0.141516 0.333686
O O8 0.709803 0.121013 0.160765
O O9 0.977576 0.881360 0.339212
O O10 0.007465 0.342884 0.867473
O O11 0.098704 0.320339 0.000000
O O12 0.314947 0.919018 0.000000
O O13 0.083761 0.916240 0.000000
O O14 0.000000 0.000000 0.919228
#
# Coordination Sequence:
#
# PCOD8316561 Si02
#       6
#    16  16   8  16  16   8
#     4   9  15  27  51  73  93 113 137 179 235 282
#     4  12  23  34  48  63  90 125 155 192 237 280
#     4  12  21  38  50  63  88 110 150 204 244 287
#     4  10  19  32  50  71  92 115 147 188 235 284
#     4  10  19  32  50  72  92 114 148 190 237 284
#     4  11  22  38  58  68  72  96 146 210 268 300
#
# _framework density 15.067444999999999
#
# number of rings (size 3 to 8) (size 9 to 14) (size 15 to 20)
#    0.000    1.500    6.000    0.600    0.000    4.800 
#    0.000    0.000    0.000    0.000    0.000    0.000 
#    0.000    0.000    0.000    0.000    0.000    8.000 
#
# Total GULP energy -991514.731620 kJ/mol
# GULP energy per Si atom -12393.934145 kJ/mol
# Density = 1.503315 g / cm^3
# Si number density = 15.067445 Si / 1000 Ang^3
#
#
#
# Elastic Constant Matrix: (Units=GPa)
#
#
# Indices 1 2 3 4 5 6 
#
# 1 72.5599 35.5262 33.5420 0.0000 0.0000 0.0000
# 2 35.5262 72.5600 33.5420 0.0000 0.0000 0.0000
# 3 33.5420 33.5420 107.9866 0.0000 0.0000 0.0000
# 4 0.0000 0.0000 0.0000 10.7608 0.0000 0.0000
# 5 0.0000 0.0000 0.0000 0.0000 10.7608 0.0000
# 6 0.0000 0.0000 0.0000 0.0000 0.0000 12.8739
#
#
#
# Elastic Compliance Matrix: (Units=1/GPa)
#
#
# Indices 1 2 3 4 5 6 
#
# 1 0.019232 -0.007770 -0.003560 0.000000 0.000000 0.000000
# 2 -0.007770 0.019232 -0.003560 0.000000 0.000000 0.000000
# 3 -0.003560 -0.003560 0.011472 0.000000 0.000000 0.000000
# 4 0.000000 0.000000 0.000000 0.092930 0.000000 0.000000
# 5 0.000000 0.000000 0.000000 0.000000 0.092930 0.000000
# 6 0.000000 0.000000 0.000000 0.000000 0.000000 0.077676
#
#
# Mechanical properties :
#
#
# Convention : Reuss Voigt Hill
#
# Bulk Modulus (GPa) = 49.61638 50.92520 50.27079
# Shear Modulus (GPa) = 14.28689 16.91221 15.59955
#
# Velocity S-wave (km/s) = 3.08262 3.35391 3.22112
# Velocity P-wave (km/s) = 6.75804 6.99069 6.87535
#
# Compressibility (1/GPa) = 0.02015463
#
# Stress axis : x y z
#
# Youngs Moduli (GPa) = 51.99691 51.99695 87.16868
#
# Poissons Ratio (x) = 0.40404 0.31033
# Poissons Ratio (y) = 0.40404 0.31033
# Poissons Ratio (z) = 0.18511 0.18511
#
# Static dielectric constant tensor:
#      x y z
#    x 2.781350 0.000000 0.000000 
#    y 0.000000 2.781350 0.000000 
#    z 0.000000 0.000000 3.131120 
# 
# 
# High freq. dielectric constant tensor:
#      x y z
#    x 1.541200 0.000000 0.000000 
#    y 0.000000 1.541200 0.000000 
#    z 0.000000 0.000000 1.597480 
# 
# From -- ./inp_files/4721.got.cif
#   From: 2010.03.12/outbox.cif.g09.slc.cpg/sg132_3_cif.got.tgz:4721.got - 2010.04.06 17:53:44.
