data_PCOD8316945
_publ_section_title
;
Structure prediction by ZEFSAII (Michael W. Deem and Ramdas Pophale) SiO2 
 PCOD8316945
Probable space group: P 42/N B C
;
_chemical_formula_sum "Si O2"
_cell_formula_units_Z 84
_cell_length_a 14.908130
_cell_length_b 14.908130
_cell_length_c 19.450952
_cell_angle_alpha 90.000000
_cell_angle_beta 90.000000
_cell_angle_gamma 90.000000
_cell_volume 4323.019599
_symmetry_space_group_name_H-M "P 42/N B C"
_symmetry_group_IT_number 133
_space_group.IT_coordinate_system_code '2'
_symmetry_cell_setting 'tetragonal'
loop_
_space_group_symop_operation_xyz
x,y,z
1/2-y,x,1/2+z
1/2-x,1/2-y,z
y,1/2-x,1/2+z
x,1/2-y,-z
1/2-x,y,-z
y,x,1/2-z
1/2-y,1/2-x,1/2-z
-x,-y,-z
1/2+y,-x,1/2-z
1/2+x,1/2+y,-z
-y,1/2+x,1/2-z
-x,1/2+y,z
1/2+x,-y,z
-y,-x,1/2+z
1/2+y,1/2+x,1/2+z
loop_
_atom_site_type_symbol
_atom_site_label
_atom_site_fract_x
_atom_site_fract_y
_atom_site_fract_z
Si Si1 0.344904 0.298232 0.371538
Si Si2 0.529502 0.970499 0.750000
Si Si3 0.250000 0.750000 0.000000
Si Si4 0.504214 0.867795 0.166667
Si Si5 0.100908 0.836861 0.412515
Si Si6 0.997616 0.271786 0.281535
Si Si7 0.750000 0.955683 0.000000
O O1 0.250000 0.250000 0.374963
O O2 0.326358 0.401015 0.353207
O O3 0.405821 0.252230 0.313610
O O4 0.392997 0.298078 0.444931
O O5 0.473325 0.010314 0.686074
O O6 0.509577 0.865106 0.759814
O O7 0.304902 0.809873 0.051951
O O8 0.438897 0.870855 0.101725
O O9 0.465508 0.806242 0.229369
O O10 0.076777 0.783816 0.341693
O O11 0.016923 0.826973 0.464615
#
# Coordination Sequence:
#
# PCOD8316945 Si02
#       7
#    16   8   4  16  16  16   8
#     4  11  21  37  61  88 126 164 201 254 307 377
#     4  10  20  36  56  86 126 154 198 242 314 382
#     4  10  20  44  56  80 116 156 206 258 300 366
#     4  11  21  38  60  94 120 160 206 257 324 378
#     4   9  22  39  60  82 117 159 206 255 310 368
#     4  10  20  36  59  88 123 154 196 257 316 368
#     4   9  21  43  57  80 122 168 203 257 301 357
#
# _framework density 19.430862999999999
#
# number of rings (size 3 to 8) (size 9 to 14) (size 15 to 20)
#    0.000    1.905    1.905    1.429    0.000    4.571 
#    6.857    0.000    0.000    0.000    0.000    0.000 
#    0.000    0.000    0.000    0.000    0.000    0.000 
#
# Total GULP energy -1041138.524024 kJ/mol
# GULP energy per Si atom -12394.506238 kJ/mol
# Density = 1.938664 g / cm^3
# Si number density = 19.430863 Si / 1000 Ang^3
#
#
#
# Elastic Constant Matrix: (Units=GPa)
#
#
# Indices 1 2 3 4 5 6 
#
# 1 130.3237 64.5749 62.7615 0.0000 0.0000 0.0000
# 2 64.5749 130.3227 62.7611 0.0000 0.0000 0.0000
# 3 62.7615 62.7611 101.3010 0.0000 0.0000 0.0000
# 4 0.0000 0.0000 0.0000 27.4195 0.0000 0.0000
# 5 0.0000 0.0000 0.0000 0.0000 27.4195 0.0000
# 6 0.0000 0.0000 0.0000 0.0000 0.0000 18.8882
#
#
#
# Elastic Compliance Matrix: (Units=1/GPa)
#
#
# Indices 1 2 3 4 5 6 
#
# 1 0.011873 -0.003336 -0.005289 0.000000 0.000000 0.000000
# 2 -0.003336 0.011874 -0.005289 0.000000 0.000000 0.000000
# 3 -0.005289 -0.005289 0.016426 0.000000 0.000000 0.000000
# 4 0.000000 0.000000 0.000000 0.036470 0.000000 0.000000
# 5 0.000000 0.000000 0.000000 0.000000 0.036470 0.000000
# 6 0.000000 0.000000 0.000000 0.000000 0.000000 0.052943
#
#
# Mechanical properties :
#
#
# Convention : Reuss Voigt Hill
#
# Bulk Modulus (GPa) = 81.01750 82.46026 81.73888
# Shear Modulus (GPa) = 25.25243 26.20210 25.72727
#
# Velocity S-wave (km/s) = 3.60891 3.67615 3.64269
# Velocity P-wave (km/s) = 7.69100 7.78130 7.73628
#
# Compressibility (1/GPa) = 0.01234301
#
# Stress axis : x y z
#
# Youngs Moduli (GPa) = 84.22127 84.22086 60.88012
#
# Poissons Ratio (x) = 0.28096 0.32202
# Poissons Ratio (y) = 0.28096 0.32202
# Poissons Ratio (z) = 0.44548 0.44548
#
# Static dielectric constant tensor:
#      x y z
#    x 4.458860 0.000000 0.000000 
#    y 0.000000 4.459180 0.000000 
#    z 0.000000 0.000000 3.772620 
# 
# 
# High freq. dielectric constant tensor:
#      x y z
#    x 1.757250 0.000000 0.000000 
#    y 0.000000 1.757250 0.000000 
#    z 0.000000 0.000000 1.754810 
# 
# From -- ./inp_files/6453.got.cif
#   From: 2010.03.12/outbox.cif.g09.slc.cpg/sg133_4_cif.got.tgz:6453.got - 2010.04.06 18:08:06.
