data_PCOD8316554
_publ_section_title
;
Structure prediction by ZEFSAII (Michael W. Deem and Ramdas Pophale) SiO2 
 PCOD8316554
Probable space group: P 42/M C M
;
_chemical_formula_sum "Si O2"
_cell_formula_units_Z 96
_cell_length_a 25.768785
_cell_length_b 25.768785
_cell_length_c 8.617673
_cell_angle_alpha 90.000000
_cell_angle_beta 90.000000
_cell_angle_gamma 90.000000
_cell_volume 5722.395818
_symmetry_space_group_name_H-M "P 42/M C M"
_symmetry_group_IT_number 132
_symmetry_cell_setting 'tetragonal'
loop_
_space_group_symop_operation_xyz
x,y,z
-y,x,1/2+z
-x,-y,z
y,-x,1/2+z
x,-y,1/2-z
-x,y,1/2-z
y,x,-z
-y,-x,-z
-x,-y,-z
y,-x,1/2-z
x,y,-z
-y,x,1/2-z
-x,y,1/2+z
x,-y,1/2+z
-y,-x,z
y,x,z
loop_
_atom_site_type_symbol
_atom_site_label
_atom_site_fract_x
_atom_site_fract_y
_atom_site_fract_z
Si Si1 0.841007 0.308574 0.815107
Si Si2 0.189565 0.580466 0.821477
Si Si3 0.447726 0.076801 0.679764
Si Si4 0.744971 0.255030 0.683606
Si Si5 0.946405 0.337294 0.683035
Si Si6 0.553157 0.699676 0.315760
Si Si7 0.660043 0.339958 0.684129
O O1 0.819833 0.363074 0.746925
O O2 0.802563 0.265654 0.747519
O O3 0.899827 0.302742 0.753698
O O4 0.842386 0.306238 0.000000
O O5 0.138723 0.545764 0.796969
O O6 0.240799 0.554035 0.750949
O O7 0.201337 0.590518 0.000000
O O8 0.500000 0.051235 0.750000
O O9 0.441198 0.061865 0.500000
O O10 0.397865 0.056496 0.770478
O O11 0.745570 0.254431 0.500000
O O12 0.702514 0.297487 0.744350
O O13 0.945469 0.332274 0.500000
O O14 0.000000 0.314210 0.750000
O O15 0.500000 0.674436 0.250000
O O16 0.553431 0.694651 0.500000
O O17 0.603191 0.671785 0.247713
O O18 0.659449 0.340552 0.500000
#
# Coordination Sequence:
#
# PCOD8316554 Si02
#       7
#    16  16  16   8  16  16   8
#     4  10  19  34  54  77 104 136 170 208 255 306
#     4   8  16  29  47  70  97 127 159 195 243 297
#     4  10  19  32  47  68  93 125 165 210 257 301
#     4  11  21  33  53  83 112 138 169 210 258 309
#     4  11  22  37  53  71  95 129 171 216 258 305
#     4  11  21  35  53  75 100 131 161 195 241 297
#     4  11  23  37  53  78 106 133 163 199 242 296
#
# _framework density 16.77619
#
# number of rings (size 3 to 8) (size 9 to 14) (size 15 to 20)
#    0.000    1.833    1.667    5.000    0.000    1.000 
#    0.000    3.333    0.000    0.250    0.000    1.750 
#    0.000    0.000    0.000    0.000    0.000    0.417 
#
# Total GULP energy -1190048.885667 kJ/mol
# GULP energy per Si atom -12396.342559 kJ/mol
# Density = 1.673801 g / cm^3
# Si number density = 16.776190 Si / 1000 Ang^3
#
#
#
# Elastic Constant Matrix: (Units=GPa)
#
#
# Indices 1 2 3 4 5 6 
#
# 1 95.1301 47.4760 38.9657 0.0000 0.0000 0.0000
# 2 47.4760 95.1297 38.9656 0.0000 0.0000 0.0000
# 3 38.9657 38.9656 96.0873 0.0000 0.0000 0.0000
# 4 0.0000 0.0000 0.0000 24.4485 0.0000 0.0000
# 5 0.0000 0.0000 0.0000 0.0000 24.4485 0.0000
# 6 0.0000 0.0000 0.0000 0.0000 0.0000 8.0746
#
#
#
# Elastic Compliance Matrix: (Units=1/GPa)
#
#
# Indices 1 2 3 4 5 6 
#
# 1 0.014997 -0.005988 -0.003653 0.000000 0.000000 0.000000
# 2 -0.005988 0.014997 -0.003653 0.000000 0.000000 0.000000
# 3 -0.003653 -0.003653 0.013370 0.000000 0.000000 0.000000
# 4 0.000000 0.000000 0.000000 0.040902 0.000000 0.000000
# 5 0.000000 0.000000 0.000000 0.000000 0.040902 0.000000
# 6 0.000000 0.000000 0.000000 0.000000 0.000000 0.123845
#
#
# Mechanical properties :
#
#
# Convention : Reuss Voigt Hill
#
# Bulk Modulus (GPa) = 59.61379 59.68465 59.64922
# Shear Modulus (GPa) = 17.78133 22.12363 19.95248
#
# Velocity S-wave (km/s) = 3.25917 3.63540 3.45241
# Velocity P-wave (km/s) = 7.05512 7.29902 7.17811
#
# Compressibility (1/GPa) = 0.01677464
#
# Stress axis : x y z
#
# Youngs Moduli (GPa) = 66.68145 66.68122 74.79337
#
# Poissons Ratio (x) = 0.39928 0.27324
# Poissons Ratio (y) = 0.39928 0.27324
# Poissons Ratio (z) = 0.24361 0.24360
#
# Static dielectric constant tensor:
#      x y z
#    x 3.142650 0.000000 0.000000 
#    y 0.000000 3.142640 0.000000 
#    z 0.000000 0.000000 3.085580 
# 
# 
# High freq. dielectric constant tensor:
#      x y z
#    x 1.623560 0.000000 0.000000 
#    y 0.000000 1.623560 0.000000 
#    z 0.000000 0.000000 1.653480 
# 
# From -- ./inp_files/1841.got.cif
#   From: 2010.03.12/outbox.cif.g09.slc.cpg/sg132_1_cif.got.tgz:1841.got - 2010.04.06 17:53:44.
