data_PCOD8316086
_publ_section_title
;
Structure prediction by ZEFSAII (Michael W. Deem and Ramdas Pophale) SiO2 
 PCOD8316086
Probable space group: P 42/M M C
;
_chemical_formula_sum "Si O2"
_cell_formula_units_Z 112
_cell_length_a 14.459483
_cell_length_b 14.459483
_cell_length_c 26.732615
_cell_angle_alpha 90.000000
_cell_angle_beta 90.000000
_cell_angle_gamma 90.000000
_cell_volume 5589.165553
_symmetry_space_group_name_H-M "P 42/M M C"
_symmetry_group_IT_number 131
_symmetry_cell_setting 'tetragonal'
loop_
_space_group_symop_operation_xyz
x,y,z
-x,-y,z
-y,x,1/2+z
y,-x,1/2+z
-x,y,-z
x,-y,-z
y,x,1/2-z
-y,-x,1/2-z
-x,-y,-z
x,y,-z
y,-x,1/2-z
-y,x,1/2-z
x,-y,z
-x,y,z
-y,-x,1/2+z
y,x,1/2+z
loop_
_atom_site_type_symbol
_atom_site_label
_atom_site_fract_x
_atom_site_fract_y
_atom_site_fract_z
Si Si1 0.892290 0.610427 0.145460
Si Si2 0.733027 0.718559 0.807308
Si Si3 0.102379 0.752492 0.366776
Si Si4 0.603243 0.858391 0.056842
Si Si5 0.397240 0.221459 0.553754
Si Si6 0.102921 0.889841 0.944869
Si Si7 0.604669 0.338500 0.105525
O O1 0.878515 0.500000 0.151529
O O2 0.829923 0.663496 0.186240
O O3 0.851941 0.647848 0.092236
O O4 0.000000 0.637611 0.151013
O O5 0.706278 0.706278 0.750000
O O6 0.741192 0.827812 0.820595
O O7 0.648067 0.677881 0.839560
O O8 0.087918 0.663789 0.402430
O O9 0.149428 0.830428 0.402036
O O10 0.000000 0.778322 0.345824
O O11 0.500000 0.899067 0.059809
O O12 0.603067 0.751766 0.071531
O O13 0.641468 0.871085 0.000000
O O14 0.344327 0.219384 0.500000
O O15 0.500000 0.186524 0.544508
O O16 0.405069 0.325314 0.576140
O O17 0.000000 0.855177 0.932559
O O18 0.107878 0.000000 0.943815
O O19 0.132980 0.854512 0.000000
O O20 0.500000 0.378997 0.110868
#
# Coordination Sequence:
#
# PCOD8316086 Si02
#       7
#    16  16  16  16  16  16  16
#     4   9  19  37  60  84 110 142 182 228 274 319
#     4  10  22  38  56  77 101 134 179 235 288 333
#     4  10  20  33  49  71 101 135 169 209 260 316
#     4   9  17  29  47  72 102 137 173 205 242 298
#     4   9  17  29  49  81 117 148 178 212 256 320
#     4   8  14  26  45  68  94 126 162 197 238 296
#     4   9  18  33  51  72 103 141 179 222 273 328
#
# _framework density 20.038768000000001
#
# number of rings (size 3 to 8) (size 9 to 14) (size 15 to 20)
#    0.000    2.857    0.000    1.286    0.000    4.286 
#    0.000    3.571    0.000    0.000    0.000    3.000 
#    0.000    0.000    0.000    0.000    0.000    0.000 
#
# Total GULP energy -1387605.580773 kJ/mol
# GULP energy per Si atom -12389.335543 kJ/mol
# Density = 1.999316 g / cm^3
# Si number density = 20.038768 Si / 1000 Ang^3
#
#
#
# Elastic Constant Matrix: (Units=GPa)
#
#
# Indices 1 2 3 4 5 6 
#
# 1 77.9797 13.9783 22.0458 0.0000 0.0000 0.0000
# 2 13.9783 77.9797 22.0458 0.0000 0.0000 0.0000
# 3 22.0458 22.0458 112.1179 0.0000 0.0000 0.0000
# 4 0.0000 0.0000 0.0000 12.7288 0.0000 0.0000
# 5 0.0000 0.0000 0.0000 0.0000 12.7288 0.0000
# 6 0.0000 0.0000 0.0000 0.0000 0.0000 23.8056
#
#
#
# Elastic Compliance Matrix: (Units=1/GPa)
#
#
# Indices 1 2 3 4 5 6 
#
# 1 0.013816 -0.001809 -0.002361 0.000000 0.000000 0.000000
# 2 -0.001809 0.013816 -0.002361 0.000000 0.000000 0.000000
# 3 -0.002361 -0.002361 0.009848 0.000000 0.000000 0.000000
# 4 0.000000 0.000000 0.000000 0.078562 0.000000 0.000000
# 5 0.000000 0.000000 0.000000 0.000000 0.078562 0.000000
# 6 0.000000 0.000000 0.000000 0.000000 0.000000 0.042007
#
#
# Mechanical properties :
#
#
# Convention : Reuss Voigt Hill
#
# Bulk Modulus (GPa) = 40.95470 42.69079 41.82275
# Shear Modulus (GPa) = 19.39413 23.85314 21.62363
#
# Velocity S-wave (km/s) = 3.11437 3.45389 3.28851
# Velocity P-wave (km/s) = 5.78053 6.10378 5.94435
#
# Compressibility (1/GPa) = 0.02441722
#
# Stress axis : x y z
#
# Youngs Moduli (GPa) = 72.38211 72.38211 101.54744
#
# Poissons Ratio (x) = 0.13094 0.23974
# Poissons Ratio (y) = 0.13094 0.23974
# Poissons Ratio (z) = 0.17088 0.17088
#
# Static dielectric constant tensor:
#      x y z
#    x 3.637020 0.000000 0.000000 
#    y 0.000000 3.637020 0.000000 
#    z 0.000000 0.000000 3.501130 
# 
# 
# High freq. dielectric constant tensor:
#      x y z
#    x 1.777620 0.000000 0.000000 
#    y 0.000000 1.777620 0.000000 
#    z 0.000000 0.000000 1.756270 
# 
# From -- ./inp_files/11277.got.cif
#   From: 2010.03.12/outbox.cif.g09.slc.cpg/sg131_6_cif.got.tgz:11277.got - 2010.04.06 17:36:35.
