data_PCOD8316459
_publ_section_title
;
Structure prediction by ZEFSAII (Michael W. Deem and Ramdas Pophale) SiO2 
 PCOD8316459
Probable space group: P 42/M C M
;
_chemical_formula_sum "Si O2"
_cell_formula_units_Z 64
_cell_length_a 20.192937
_cell_length_b 20.192937
_cell_length_c 10.318560
_cell_angle_alpha 90.000000
_cell_angle_beta 90.000000
_cell_angle_gamma 90.000000
_cell_volume 4207.441386
_symmetry_space_group_name_H-M "P 42/M C M"
_symmetry_group_IT_number 132
_symmetry_cell_setting 'tetragonal'
loop_
_space_group_symop_operation_xyz
x,y,z
-y,x,1/2+z
-x,-y,z
y,-x,1/2+z
x,-y,1/2-z
-x,y,1/2-z
y,x,-z
-y,-x,-z
-x,-y,-z
y,-x,1/2-z
x,y,-z
-y,x,1/2-z
-x,y,1/2+z
x,-y,1/2+z
-y,-x,z
y,x,z
loop_
_atom_site_type_symbol
_atom_site_label
_atom_site_fract_x
_atom_site_fract_y
_atom_site_fract_z
Si Si1 0.928112 0.817979 0.500000
Si Si2 0.226312 0.662369 0.144163
Si Si3 0.758061 0.131108 0.247684
Si Si4 0.189506 0.921954 0.500000
Si Si5 0.558646 0.330795 0.149748
O O1 0.884443 0.884443 0.500000
O O2 0.914650 0.772682 0.624534
O O3 0.004411 0.840378 0.500000
O O4 0.280365 0.719636 0.139068
O O5 0.165240 0.685170 0.235852
O O6 0.262248 0.595170 0.191372
O O7 0.197671 0.651899 0.000000
O O8 0.811785 0.188216 0.254908
O O9 0.762456 0.087766 0.377027
O O10 0.127218 0.872783 0.500000
O O11 0.500000 0.342708 0.250000
O O12 0.607875 0.392126 0.163763
O O13 0.533794 0.326251 0.000000
#
# Coordination Sequence:
#
# PCOD8316459 Si02
#       5
#     8  16  16   8  16
#     4  10  18  29  46  60  79 121 158 174 204 266
#     4   8  13  26  47  64  80 110 150 185 219 259
#     4   9  16  28  44  61  82 110 145 186 227 259
#     4  10  20  29  38  62  95 115 138 184 226 256
#     4   9  18  31  46  66  94 125 155 184 211 249
#
# _framework density 15.211144000000001
#
# number of rings (size 3 to 8) (size 9 to 14) (size 15 to 20)
#    0.000    3.000    1.250    2.250    0.000    1.000 
#    2.250    1.250    0.000    4.500    0.000    0.000 
#    0.000    6.000    0.000    0.000    0.000    0.000 
#
# Total GULP energy -793017.509081 kJ/mol
# GULP energy per Si atom -12390.898579 kJ/mol
# Density = 1.517652 g / cm^3
# Si number density = 15.211144 Si / 1000 Ang^3
#
#
#
# Elastic Constant Matrix: (Units=GPa)
#
#
# Indices 1 2 3 4 5 6 
#
# 1 52.7579 47.6328 44.9417 0.0000 0.0000 0.0000
# 2 47.6328 52.7572 44.9417 0.0000 0.0000 0.0000
# 3 44.9417 44.9417 116.5363 0.0000 0.0000 0.0000
# 4 0.0000 0.0000 0.0000 15.9826 0.0000 0.0000
# 5 0.0000 0.0000 0.0000 0.0000 15.9826 0.0000
# 6 0.0000 0.0000 0.0000 0.0000 0.0000 14.2388
#
#
#
# Elastic Compliance Matrix: (Units=1/GPa)
#
#
# Indices 1 2 3 4 5 6 
#
# 1 0.105172 -0.089959 -0.005867 0.000000 0.000000 0.000000
# 2 -0.089959 0.105174 -0.005868 0.000000 0.000000 0.000000
# 3 -0.005867 -0.005868 0.013106 0.000000 0.000000 0.000000
# 4 0.000000 0.000000 0.000000 0.062568 0.000000 0.000000
# 5 0.000000 0.000000 0.000000 0.000000 0.062568 0.000000
# 6 0.000000 0.000000 0.000000 0.000000 0.000000 0.070231
#
#
# Mechanical properties :
#
#
# Convention : Reuss Voigt Hill
#
# Bulk Modulus (GPa) = 49.83605 55.23154 52.53380
# Shear Modulus (GPa) = 7.95045 14.87647 11.41346
#
# Velocity S-wave (km/s) = 2.28868 3.13069 2.74220
# Velocity P-wave (km/s) = 6.31016 7.03257 6.68113
#
# Compressibility (1/GPa) = 0.02006579
#
# Stress axis : x y z
#
# Youngs Moduli (GPa) = 9.50821 9.50804 76.29831
#
# Poissons Ratio (x) = 0.85533 0.44765
# Poissons Ratio (y) = 0.85535 0.44769
# Poissons Ratio (z) = 0.05579 0.05579
#
# Static dielectric constant tensor:
#      x y z
#    x 2.813000 0.000000 0.000000 
#    y 0.000000 2.813000 0.000000 
#    z 0.000000 0.000000 3.187390 
# 
# 
# High freq. dielectric constant tensor:
#      x y z
#    x 1.556030 0.000000 0.000000 
#    y 0.000000 1.556030 0.000000 
#    z 0.000000 0.000000 1.587030 
# 
# From -- ./inp_files/1279.got.cif
#   From: 2010.03.12/outbox.cif.g09.slc.cpg/sg132_1_cif.got.tgz:1279.got - 2010.04.06 17:53:44.
