data_PCOD8316035
_publ_section_title
;
Structure prediction by ZEFSAII (Michael W. Deem and Ramdas Pophale) SiO2 
 PCOD8316035
Probable space group: P 42/M M C
;
_chemical_formula_sum "Si O2"
_cell_formula_units_Z 56
_cell_length_a 22.650720
_cell_length_b 22.650720
_cell_length_c 9.423788
_cell_angle_alpha 90.000000
_cell_angle_beta 90.000000
_cell_angle_gamma 90.000000
_cell_volume 4834.922650
_symmetry_space_group_name_H-M "P 42/M M C"
_symmetry_group_IT_number 131
_symmetry_cell_setting 'tetragonal'
loop_
_space_group_symop_operation_xyz
x,y,z
-x,-y,z
-y,x,1/2+z
y,-x,1/2+z
-x,y,-z
x,-y,-z
y,x,1/2-z
-y,-x,1/2-z
-x,-y,-z
x,y,-z
y,-x,1/2-z
-y,x,1/2-z
x,-y,z
-x,y,z
-y,-x,1/2+z
y,x,1/2+z
loop_
_atom_site_type_symbol
_atom_site_label
_atom_site_fract_x
_atom_site_fract_y
_atom_site_fract_z
Si Si1 0.151172 0.070005 0.163026
Si Si2 0.929871 0.261162 0.840823
Si Si3 0.929817 0.608270 0.840665
Si Si4 0.070570 0.500000 0.659445
O O1 0.096759 0.096759 0.250000
O O2 0.212386 0.093946 0.230865
O O3 0.146049 0.000000 0.176089
O O4 0.148660 0.090598 0.000000
O O5 0.907831 0.326426 0.793203
O O6 0.000000 0.260508 0.841181
O O7 0.906944 0.246811 0.000000
O O8 0.903973 0.558447 0.736307
O O9 0.000000 0.606359 0.836735
O O10 0.907805 0.594672 0.000000
O O11 0.094818 0.500000 0.500000
O O12 0.000000 0.500000 0.662806
#
# Coordination Sequence:
#
# PCOD8316035 Si02
#       4
#    16  16  16   8
#     4  10  20  31  42  54  65  77  93 116 148 186
#     4   8  14  25  39  51  62  77  96 117 141 171
#     4   8  13  21  32  44  59  80 101 117 135 161
#     4   9  15  19  25  41  63  83 101 121 139 153
#
# _framework density 11.582398
#
# number of rings (size 3 to 8) (size 9 to 14) (size 15 to 20)
#    0.000    3.286    0.000    3.000    0.000    4.857 
#    0.000    7.143    0.000    0.000    0.000    0.000 
#    0.000    0.000    0.000    0.000    0.000    0.000 
#
# Total GULP energy -693955.250611 kJ/mol
# GULP energy per Si atom -12392.058047 kJ/mol
# Density = 1.155604 g / cm^3
# Si number density = 11.582398 Si / 1000 Ang^3
#
#
#
# Elastic Constant Matrix: (Units=GPa)
#
#
# Indices 1 2 3 4 5 6 
#
# 1 38.0537 17.9363 34.5995 0.0000 0.0000 0.0000
# 2 17.9363 38.0537 34.5995 0.0000 0.0000 0.0000
# 3 34.5995 34.5995 97.2204 0.0000 0.0000 0.0000
# 4 0.0000 0.0000 0.0000 14.5482 0.0000 0.0000
# 5 0.0000 0.0000 0.0000 0.0000 14.5482 0.0000
# 6 0.0000 0.0000 0.0000 0.0000 0.0000 0.3502
#
#
#
# Elastic Compliance Matrix: (Units=1/GPa)
#
#
# Indices 1 2 3 4 5 6 
#
# 1 0.040796 -0.008912 -0.011347 0.000000 0.000000 0.000000
# 2 -0.008912 0.040796 -0.011347 0.000000 0.000000 0.000000
# 3 -0.011347 -0.011347 0.018363 0.000000 0.000000 0.000000
# 4 0.000000 0.000000 0.000000 0.068737 0.000000 0.000000
# 5 0.000000 0.000000 0.000000 0.000000 0.068737 0.000000
# 6 0.000000 0.000000 0.000000 0.000000 0.000000 2.855473
#
#
# Mechanical properties :
#
#
# Convention : Reuss Voigt Hill
#
# Bulk Modulus (GPa) = 27.21634 38.62203 32.91918
# Shear Modulus (GPa) = 1.57810 11.63548 6.60679
#
# Velocity S-wave (km/s) = 1.16853 3.17295 2.39093
# Velocity P-wave (km/s) = 5.03683 6.84407 6.00878
#
# Compressibility (1/GPa) = 0.03674264
#
# Stress axis : x y z
#
# Youngs Moduli (GPa) = 24.51198 24.51198 54.45836
#
# Poissons Ratio (x) = 0.21844 0.61796
# Poissons Ratio (y) = 0.21844 0.61796
# Poissons Ratio (z) = 0.27815 0.27815
#
# Static dielectric constant tensor:
#      x y z
#    x 2.302220 0.000000 0.000000 
#    y 0.000000 2.302220 0.000000 
#    z 0.000000 0.000000 2.637470 
# 
# 
# High freq. dielectric constant tensor:
#      x y z
#    x 1.398660 0.000000 0.000000 
#    y 0.000000 1.398660 0.000000 
#    z 0.000000 0.000000 1.451520 
# 
# From -- ./inp_files/1464.got.cif
#   From: 2010.03.12/outbox.cif.g09.slc.cpg/sg131_1_cif.got.tgz:1464.got - 2010.04.06 17:36:35.
