data_PCOD8316088
_publ_section_title
;
Structure prediction by ZEFSAII (Michael W. Deem and Ramdas Pophale) SiO2 
 PCOD8316088
Probable space group: P 42/M M C
;
_chemical_formula_sum "Si O2"
_cell_formula_units_Z 112
_cell_length_a 14.054615
_cell_length_b 14.054615
_cell_length_c 31.082069
_cell_angle_alpha 90.000000
_cell_angle_beta 90.000000
_cell_angle_gamma 90.000000
_cell_volume 6139.709557
_symmetry_space_group_name_H-M "P 42/M M C"
_symmetry_group_IT_number 131
_symmetry_cell_setting 'tetragonal'
loop_
_space_group_symop_operation_xyz
x,y,z
-x,-y,z
-y,x,1/2+z
y,-x,1/2+z
-x,y,-z
x,-y,-z
y,x,1/2-z
-y,-x,1/2-z
-x,-y,-z
x,y,-z
y,-x,1/2-z
-y,x,1/2-z
x,-y,z
-x,y,z
-y,-x,1/2+z
y,x,1/2+z
loop_
_atom_site_type_symbol
_atom_site_label
_atom_site_fract_x
_atom_site_fract_y
_atom_site_fract_z
Si Si1 0.892444 0.605410 0.668498
Si Si2 0.703708 0.392624 0.950698
Si Si3 0.890796 0.205426 0.289654
Si Si4 0.106450 0.394768 0.903469
Si Si5 0.213300 0.390704 0.581564
Si Si6 0.890469 0.217804 0.548672
Si Si7 0.195651 0.891208 0.627379
O O1 0.875160 0.500000 0.687604
O O2 0.877969 0.680654 0.706942
O O3 0.818811 0.626877 0.630466
O O4 0.000000 0.614726 0.649915
O O5 0.668992 0.500000 0.941703
O O6 0.815881 0.381816 0.940904
O O7 0.639625 0.323845 0.921308
O O8 0.688292 0.363776 0.000000
O O9 0.828704 0.171297 0.250000
O O10 0.856130 0.161845 0.334254
O O11 0.000000 0.176430 0.281534
O O12 0.118653 0.500000 0.881801
O O13 0.119801 0.310615 0.868253
O O14 0.000000 0.385805 0.923646
O O15 0.199505 0.500000 0.567645
O O16 0.150231 0.325026 0.550468
O O17 0.877554 0.179637 0.500000
O O18 0.834050 0.150188 0.581178
O O19 0.000000 0.218993 0.562430
O O20 0.163279 0.000000 0.629418
#
# Coordination Sequence:
#
# PCOD8316088 Si02
#       7
#    16  16  16  16  16  16  16
#     4   9  18  35  60  85 109 142 183 226 276 332
#     4  10  20  33  49  72 105 142 182 231 284 335
#     4  11  22  37  58  85 116 147 183 226 273 332
#     4   9  18  33  54  78 102 134 180 228 274 327
#     4  11  21  35  56  78 105 143 186 233 284 333
#     4  11  23  37  53  77 109 145 189 234 275 327
#     4  11  22  37  57  80 112 151 185 225 277 332
#
# _framework density 18.241904999999999
#
# number of rings (size 3 to 8) (size 9 to 14) (size 15 to 20)
#    0.000    1.714    2.857    1.714    0.000    4.714 
#    0.000    5.714    0.000    4.286    0.000    0.000 
#    0.000    0.000    0.000    0.000    0.000    0.000 
#
# Total GULP energy -1388470.097027 kJ/mol
# GULP energy per Si atom -12397.054438 kJ/mol
# Density = 1.820039 g / cm^3
# Si number density = 18.241905 Si / 1000 Ang^3
#
#
#
# Elastic Constant Matrix: (Units=GPa)
#
#
# Indices 1 2 3 4 5 6 
#
# 1 109.8765 44.0713 43.7149 0.0000 0.0000 0.0000
# 2 44.0713 109.8758 43.7151 0.0000 0.0000 0.0000
# 3 43.7149 43.7151 82.2627 0.0000 0.0000 0.0000
# 4 0.0000 0.0000 0.0000 23.0910 0.0000 0.0000
# 5 0.0000 0.0000 0.0000 0.0000 23.0921 0.0000
# 6 0.0000 0.0000 0.0000 0.0000 0.0000 27.3325
#
#
#
# Elastic Compliance Matrix: (Units=1/GPa)
#
#
# Indices 1 2 3 4 5 6 
#
# 1 0.012250 -0.002946 -0.004944 0.000000 0.000000 0.000000
# 2 -0.002946 0.012250 -0.004944 0.000000 0.000000 0.000000
# 3 -0.004944 -0.004944 0.017411 0.000000 0.000000 0.000000
# 4 0.000000 0.000000 0.000000 0.043307 0.000000 0.000000
# 5 0.000000 0.000000 0.000000 0.000000 0.043305 0.000000
# 6 0.000000 0.000000 0.000000 0.000000 0.000000 0.036587
#
#
# Mechanical properties :
#
#
# Convention : Reuss Voigt Hill
#
# Bulk Modulus (GPa) = 61.56922 62.77975 62.17448
# Shear Modulus (GPa) = 25.48530 26.07070 25.77800
#
# Velocity S-wave (km/s) = 3.74180 3.78453 3.76323
# Velocity P-wave (km/s) = 7.24520 7.32030 7.28284
#
# Compressibility (1/GPa) = 0.01624188
#
# Stress axis : x y z
#
# Youngs Moduli (GPa) = 81.63328 81.63245 57.43600
#
# Poissons Ratio (x) = 0.24053 0.28396
# Poissons Ratio (y) = 0.24053 0.28396
# Poissons Ratio (z) = 0.40359 0.40359
#
# Static dielectric constant tensor:
#      x y z
#    x 3.639570 0.000000 0.000000 
#    y 0.000000 3.639570 0.000000 
#    z 0.000000 0.000000 3.015490 
# 
# 
# High freq. dielectric constant tensor:
#      x y z
#    x 1.720360 0.000000 0.000000 
#    y 0.000000 1.720360 0.000000 
#    z 0.000000 0.000000 1.666580 
# 
# From -- ./inp_files/12476.got.cif
#   From: 2010.03.12/outbox.cif.g09.slc.cpg/sg131_7_cif.got.tgz:12476.got - 2010.04.06 17:36:35.
