data_PCOD8316619
_publ_section_title
;
Structure prediction by ZEFSAII (Michael W. Deem and Ramdas Pophale) SiO2 
 PCOD8316619
Probable space group: P 42/M C M
;
_chemical_formula_sum "Si O2"
_cell_formula_units_Z 112
_cell_length_a 14.781426
_cell_length_b 14.781426
_cell_length_c 25.573318
_cell_angle_alpha 90.000000
_cell_angle_beta 90.000000
_cell_angle_gamma 90.000000
_cell_volume 5587.528433
_symmetry_space_group_name_H-M "P 42/M C M"
_symmetry_group_IT_number 132
_symmetry_cell_setting 'tetragonal'
loop_
_space_group_symop_operation_xyz
x,y,z
-y,x,1/2+z
-x,-y,z
y,-x,1/2+z
x,-y,1/2-z
-x,y,1/2-z
y,x,-z
-y,-x,-z
-x,-y,-z
y,-x,1/2-z
x,y,-z
-y,x,1/2-z
-x,y,1/2+z
x,-y,1/2+z
-y,-x,z
y,x,z
loop_
_atom_site_type_symbol
_atom_site_label
_atom_site_fract_x
_atom_site_fract_y
_atom_site_fract_z
Si Si1 0.869459 0.276895 0.942736
Si Si2 0.626428 0.226058 0.857000
Si Si3 0.807151 0.047363 0.592368
Si Si4 0.221349 0.077166 0.212014
Si Si5 0.720581 0.572119 0.852616
Si Si6 0.400175 0.842882 0.743584
Si Si7 0.335191 0.184983 0.943050
O O1 0.776674 0.223327 0.947617
O O2 0.854000 0.358935 0.900582
O O3 0.944731 0.201764 0.926532
O O4 0.893200 0.318703 0.000000
O O5 0.706733 0.293268 0.866336
O O6 0.535181 0.286080 0.861196
O O7 0.636766 0.182759 0.800170
O O8 0.899977 0.100024 0.574612
O O9 0.802769 0.046932 0.654397
O O10 0.719297 0.094271 0.567990
O O11 0.172553 0.172553 0.225117
O O12 0.329611 0.087031 0.218404
O O13 0.183346 0.000000 0.250000
O O14 0.624650 0.624650 0.860839
O O15 0.755439 0.593549 0.794273
O O16 0.796641 0.597478 0.895372
O O17 0.500000 0.887343 0.750000
O O18 0.268034 0.268034 0.944557
O O19 0.384178 0.176794 0.000000
#
# Coordination Sequence:
#
# PCOD8316619 Si02
#       7
#    16  16  16  16  16  16  16
#     4  10  22  40  58  78 111 152 192 236 286 344
#     4  10  21  36  56  81 111 152 190 226 282 344
#     4  10  20  35  58  85 110 142 187 239 289 336
#     4  11  22  36  56  82 118 159 195 237 285 340
#     4  10  19  34  57  84 113 144 185 235 284 338
#     4  10  20  36  59  86 114 150 191 238 288 348
#     4   9  17  31  53  80 108 136 171 222 282 333
#
# _framework density 20.044640999999999
#
# number of rings (size 3 to 8) (size 9 to 14) (size 15 to 20)
#    0.000    2.000    1.429    2.571    0.000    4.143 
#    0.000    2.857    0.000    4.286    0.000    4.000 
#    0.000    0.000    0.000    0.000    0.000    0.000 
#
# Total GULP energy -1387825.015118 kJ/mol
# GULP energy per Si atom -12391.294778 kJ/mol
# Density = 1.999902 g / cm^3
# Si number density = 20.044641 Si / 1000 Ang^3
#
#
#
# Elastic Constant Matrix: (Units=GPa)
#
#
# Indices 1 2 3 4 5 6 
#
# 1 58.0616 5.4719 35.6324 0.0000 0.0000 0.0000
# 2 5.4719 58.0616 35.6324 0.0000 0.0000 0.0000
# 3 35.6324 35.6324 143.0471 0.0000 0.0000 0.0000
# 4 0.0000 0.0000 0.0000 44.7396 0.0000 0.0000
# 5 0.0000 0.0000 0.0000 0.0000 44.7396 0.0000
# 6 0.0000 0.0000 0.0000 0.0000 0.0000 21.3507
#
#
#
# Elastic Compliance Matrix: (Units=1/GPa)
#
#
# Indices 1 2 3 4 5 6 
#
# 1 0.020429 0.001414 -0.005441 0.000000 0.000000 0.000000
# 2 0.001414 0.020429 -0.005441 0.000000 0.000000 0.000000
# 3 -0.005441 -0.005441 0.009701 0.000000 0.000000 0.000000
# 4 0.000000 0.000000 0.000000 0.022352 0.000000 0.000000
# 5 0.000000 0.000000 0.000000 0.000000 0.022352 0.000000
# 6 0.000000 0.000000 0.000000 0.000000 0.000000 0.046837
#
#
# Mechanical properties :
#
#
# Convention : Reuss Voigt Hill
#
# Bulk Modulus (GPa) = 31.62242 45.84928 38.73585
# Shear Modulus (GPa) = 29.14153 34.32822 31.73488
#
# Velocity S-wave (km/s) = 3.81705 4.14283 3.98327
# Velocity P-wave (km/s) = 5.93605 6.76811 6.36569
#
# Compressibility (1/GPa) = 0.03162314
#
# Stress axis : x y z
#
# Youngs Moduli (GPa) = 48.95012 48.95012 103.07865
#
# Poissons Ratio (x) = -0.06921 0.56084
# Poissons Ratio (y) = -0.06921 0.56084
# Poissons Ratio (z) = 0.26633 0.26633
#
# Static dielectric constant tensor:
#      x y z
#    x 3.509790 0.000000 0.000000 
#    y 0.000000 3.509790 0.000000 
#    z 0.000000 0.000000 4.303130 
# 
# 
# High freq. dielectric constant tensor:
#      x y z
#    x 1.761290 0.000000 0.000000 
#    y 0.000000 1.761290 0.000000 
#    z 0.000000 0.000000 1.804160 
# 
# From -- ./inp_files/9094.got.cif
#   From: 2010.03.12/outbox.cif.g09.slc.cpg/sg132_5_cif.got.tgz:9094.got - 2010.04.06 17:53:44.
