data_PCOD8316360
_publ_section_title
;
Structure prediction by ZEFSAII (Michael W. Deem and Ramdas Pophale) SiO2 
 PCOD8316360
Probable space group: P 42/M M C
;
_chemical_formula_sum "Si O2"
_cell_formula_units_Z 72
_cell_length_a 14.736766
_cell_length_b 14.736766
_cell_length_c 17.774858
_cell_angle_alpha 90.000000
_cell_angle_beta 90.000000
_cell_angle_gamma 90.000000
_cell_volume 3860.206299
_symmetry_space_group_name_H-M "P 42/M M C"
_symmetry_group_IT_number 131
_symmetry_cell_setting 'tetragonal'
loop_
_space_group_symop_operation_xyz
x,y,z
-x,-y,z
-y,x,1/2+z
y,-x,1/2+z
-x,y,-z
x,-y,-z
y,x,1/2-z
-y,-x,1/2-z
-x,-y,-z
x,y,-z
y,-x,1/2-z
-y,x,1/2-z
x,-y,z
-x,y,z
-y,-x,1/2+z
y,x,1/2+z
loop_
_atom_site_type_symbol
_atom_site_label
_atom_site_fract_x
_atom_site_fract_y
_atom_site_fract_z
Si Si1 0.898205 0.304465 0.410188
Si Si2 0.500000 0.106287 0.918863
Si Si3 0.725191 0.248544 0.337278
Si Si4 0.395628 0.105428 0.586057
Si Si5 0.603704 0.604559 0.586681
O O1 0.894496 0.306697 0.500000
O O2 0.870919 0.405154 0.376974
O O3 0.822901 0.236656 0.377959
O O4 0.000000 0.276040 0.383975
O O5 0.500000 0.000000 0.934337
O O6 0.500000 0.156880 0.000000
O O7 0.744352 0.255649 0.250000
O O8 0.667206 0.159668 0.356345
O O9 0.671547 0.337352 0.363545
O O10 0.371250 0.130962 0.500000
O O11 0.500000 0.130797 0.601973
O O12 0.378496 0.000000 0.600730
O O13 0.614938 0.633139 0.500000
O O14 0.630179 0.500000 0.598381
O O15 0.500000 0.621662 0.612208
#
# Coordination Sequence:
#
# PCOD8316360 Si02
#       5
#    16   8  16  16  16
#     4   9  18  34  55  77 102 137 182 225 261 307
#     4   7  12  26  48  72  97 127 168 215 253 289
#     4  12  24  33  50  80 118 149 172 213 277 348
#     4   9  19  39  65  85 102 136 193 251 287 314
#     4   9  19  36  55  73  98 139 190 234 267 310
#
# _framework density 18.651852999999999
#
# number of rings (size 3 to 8) (size 9 to 14) (size 15 to 20)
#    0.000    2.556    0.000    5.333    1.556    4.444 
#    0.000    1.111    0.000    0.667    0.000    4.667 
#    0.000    0.000    0.000    0.000    0.000    0.000 
#
# Total GULP energy -892355.105434 kJ/mol
# GULP energy per Si atom -12393.820909 kJ/mol
# Density = 1.860940 g / cm^3
# Si number density = 18.651853 Si / 1000 Ang^3
#
#
#
# Elastic Constant Matrix: (Units=GPa)
#
#
# Indices 1 2 3 4 5 6 
#
# 1 99.4789 55.2407 47.3562 0.0000 0.0000 0.0000
# 2 55.2407 99.4790 47.3563 0.0000 0.0000 0.0000
# 3 47.3562 47.3563 82.4365 0.0000 0.0000 0.0000
# 4 0.0000 0.0000 0.0000 8.7703 0.0000 0.0000
# 5 0.0000 0.0000 0.0000 0.0000 8.7725 0.0000
# 6 0.0000 0.0000 0.0000 0.0000 0.0000 25.5155
#
#
#
# Elastic Compliance Matrix: (Units=1/GPa)
#
#
# Indices 1 2 3 4 5 6 
#
# 1 0.016287 -0.006318 -0.005727 0.000000 0.000000 0.000000
# 2 -0.006318 0.016287 -0.005727 0.000000 0.000000 0.000000
# 3 -0.005727 -0.005727 0.018710 0.000000 0.000000 0.000000
# 4 0.000000 0.000000 0.000000 0.114021 0.000000 0.000000
# 5 0.000000 0.000000 0.000000 0.000000 0.113993 0.000000
# 6 0.000000 0.000000 0.000000 0.000000 0.000000 0.039192
#
#
# Mechanical properties :
#
#
# Convention : Reuss Voigt Hill
#
# Bulk Modulus (GPa) = 63.52823 64.58900 64.05861
# Shear Modulus (GPa) = 13.91675 17.37440 15.64557
#
# Velocity S-wave (km/s) = 2.73451 3.05538 2.89938
# Velocity P-wave (km/s) = 6.64108 6.86666 6.75481
#
# Compressibility (1/GPa) = 0.01574103
#
# Stress axis : x y z
#
# Youngs Moduli (GPa) = 61.39890 61.39892 53.44712
#
# Poissons Ratio (x) = 0.38792 0.30608
# Poissons Ratio (y) = 0.38792 0.30608
# Poissons Ratio (z) = 0.35162 0.35162
#
# Static dielectric constant tensor:
#      x y z
#    x 3.494020 0.000000 0.000000 
#    y 0.000000 3.494020 0.000000 
#    z 0.000000 0.000000 3.066810 
# 
# 
# High freq. dielectric constant tensor:
#      x y z
#    x 1.719060 0.000000 0.000000 
#    y 0.000000 1.719060 0.000000 
#    z 0.000000 0.000000 1.691050 
# 
# From -- ./inp_files/7597.got.cif
#   From: 2010.03.12/outbox.cif.g09.slc.cpg/sg131_4_cif.got.tgz:7597.got - 2010.04.06 17:36:35.
