data_PCOD8316946
_publ_section_title
;
Structure prediction by ZEFSAII (Michael W. Deem and Ramdas Pophale) SiO2 
 PCOD8316946
Probable space group: P 42/N B C
;
_chemical_formula_sum "Si O2"
_cell_formula_units_Z 96
_cell_length_a 16.983659
_cell_length_b 16.983659
_cell_length_c 17.621580
_cell_angle_alpha 90.000000
_cell_angle_beta 90.000000
_cell_angle_gamma 90.000000
_cell_volume 5082.850881
_symmetry_space_group_name_H-M "P 42/N B C"
_symmetry_group_IT_number 133
_space_group.IT_coordinate_system_code '2'
_symmetry_cell_setting 'tetragonal'
loop_
_space_group_symop_operation_xyz
x,y,z
1/2-y,x,1/2+z
1/2-x,1/2-y,z
y,1/2-x,1/2+z
x,1/2-y,-z
1/2-x,y,-z
y,x,1/2-z
1/2-y,1/2-x,1/2-z
-x,-y,-z
1/2+y,-x,1/2-z
1/2+x,1/2+y,-z
-y,1/2+x,1/2-z
-x,1/2+y,z
1/2+x,-y,z
-y,-x,1/2+z
1/2+y,1/2+x,1/2+z
loop_
_atom_site_type_symbol
_atom_site_label
_atom_site_fract_x
_atom_site_fract_y
_atom_site_fract_z
Si Si1 0.413384 0.555491 0.056609
Si Si2 0.527677 0.839976 0.174388
Si Si3 0.698184 0.976463 0.575797
Si Si4 0.967400 0.432071 0.391841
Si Si5 0.608001 0.847873 0.665331
Si Si6 0.060871 0.327198 0.651495
O O1 0.444878 0.644468 0.070056
O O2 0.484933 0.500644 0.080710
O O3 0.338866 0.520659 0.103788
O O4 0.384754 0.548970 0.969417
O O5 0.509251 0.752608 0.147752
O O6 0.449714 0.888794 0.154370
O O7 0.535699 0.839127 0.263090
O O8 0.606387 0.873448 0.132508
O O9 0.750000 0.963480 0.500000
O O10 0.651077 0.896302 0.597518
O O11 0.020437 0.383785 0.332480
O O12 0.645919 0.854082 0.750000
O O13 0.602570 0.757159 0.639083
#
# Coordination Sequence:
#
# PCOD8316946 Si02
#       6
#    16  16  16  16  16  16
#     4   9  19  36  58  80 112 150 201 248 275 344
#     4  10  20  36  58  83 119 155 195 240 293 353
#     4  11  21  38  61  87 116 157 198 240 295 353
#     4   9  19  34  57  82 109 150 203 244 279 336
#     4  11  23  37  57  88 122 154 194 241 298 362
#     4  10  22  36  54  85 121 155 190 240 299 348
#
# _framework density 18.887038
#
# number of rings (size 3 to 8) (size 9 to 14) (size 15 to 20)
#    0.000    2.000    3.333    0.000    9.333    1.333 
#    0.000    0.833    0.000    1.000    0.000    2.333 
#    0.000    0.000    0.000    0.000    0.000    0.000 
#
# Total GULP energy -1189321.165836 kJ/mol
# GULP energy per Si atom -12388.762144 kJ/mol
# Density = 1.884405 g / cm^3
# Si number density = 18.887038 Si / 1000 Ang^3
#
#
#
# Elastic Constant Matrix: (Units=GPa)
#
#
# Indices 1 2 3 4 5 6 
#
# 1 75.0804 54.9034 27.8820 0.0000 0.0000 0.0000
# 2 54.9034 75.0807 27.8821 0.0000 0.0000 0.0000
# 3 27.8820 27.8821 53.8900 0.0000 0.0000 0.0000
# 4 0.0000 0.0000 0.0000 25.4618 0.0000 0.0000
# 5 0.0000 0.0000 0.0000 0.0000 25.4614 0.0000
# 6 0.0000 0.0000 0.0000 0.0000 0.0000 23.4660
#
#
#
# Elastic Compliance Matrix: (Units=1/GPa)
#
#
# Indices 1 2 3 4 5 6 
#
# 1 0.029725 -0.019836 -0.005116 0.000000 0.000000 0.000000
# 2 -0.019836 0.029724 -0.005116 0.000000 0.000000 0.000000
# 3 -0.005116 -0.005116 0.023850 0.000000 0.000000 0.000000
# 4 0.000000 0.000000 0.000000 0.039275 0.000000 0.000000
# 5 0.000000 0.000000 0.000000 0.000000 0.039275 0.000000
# 6 0.000000 0.000000 0.000000 0.000000 0.000000 0.042615
#
#
# Mechanical properties :
#
#
# Convention : Reuss Voigt Hill
#
# Bulk Modulus (GPa) = 43.17335 47.26514 45.21924
# Shear Modulus (GPa) = 18.36067 21.10342 19.73205
#
# Velocity S-wave (km/s) = 3.12128 3.34630 3.23575
# Velocity P-wave (km/s) = 5.99151 6.32533 6.16068
#
# Compressibility (1/GPa) = 0.02316244
#
# Stress axis : x y z
#
# Youngs Moduli (GPa) = 33.64220 33.64234 41.92842
#
# Poissons Ratio (x) = 0.66735 0.21450
# Poissons Ratio (y) = 0.66734 0.21450
# Poissons Ratio (z) = 0.17211 0.17211
#
# Static dielectric constant tensor:
#      x y z
#    x 3.596810 0.000000 0.000000 
#    y 0.000000 3.596820 0.000000 
#    z 0.000000 0.000000 3.594860 
# 
# 
# High freq. dielectric constant tensor:
#      x y z
#    x 1.714170 0.000000 0.000000 
#    y 0.000000 1.714170 0.000000 
#    z 0.000000 0.000000 1.743900 
# 
# From -- ./inp_files/5545.got.cif
#   From: 2010.03.12/outbox.cif.g09.slc.cpg/sg133_3_cif.got.tgz:5545.got - 2010.04.06 18:08:06.
