data_PCOD8316639
_publ_section_title
;
Structure prediction by ZEFSAII (Michael W. Deem and Ramdas Pophale) SiO2 
 PCOD8316639
Probable space group: P 42/M C M
;
_chemical_formula_sum "Si O2"
_cell_formula_units_Z 96
_cell_length_a 28.728922
_cell_length_b 28.728922
_cell_length_c 9.148970
_cell_angle_alpha 90.000000
_cell_angle_beta 90.000000
_cell_angle_gamma 90.000000
_cell_volume 7551.111166
_symmetry_space_group_name_H-M "P 42/M C M"
_symmetry_group_IT_number 132
_symmetry_cell_setting 'tetragonal'
loop_
_space_group_symop_operation_xyz
x,y,z
-y,x,1/2+z
-x,-y,z
y,-x,1/2+z
x,-y,1/2-z
-x,y,1/2-z
y,x,-z
-y,-x,-z
-x,-y,-z
y,-x,1/2-z
x,y,-z
-y,x,1/2-z
-x,y,1/2+z
x,-y,1/2+z
-y,-x,z
y,x,z
loop_
_atom_site_type_symbol
_atom_site_label
_atom_site_fract_x
_atom_site_fract_y
_atom_site_fract_z
Si Si1 0.182410 0.260938 0.335955
Si Si2 0.309935 0.611749 0.165319
Si Si3 0.375303 0.547034 0.330814
Si Si4 0.246104 0.324595 0.165204
Si Si5 0.198568 0.879666 0.662298
Si Si6 0.048963 0.123893 0.827230
O O1 0.172232 0.277979 0.500000
O O2 0.221519 0.221519 0.335421
O O3 0.199661 0.304824 0.241370
O O4 0.134456 0.240764 0.268982
O O5 0.348109 0.651892 0.163326
O O6 0.329177 0.567723 0.254922
O O7 0.263640 0.630447 0.245274
O O8 0.297497 0.596575 0.000000
O O9 0.389926 0.500000 0.250000
O O10 0.364100 0.537397 0.500000
O O11 0.418228 0.581773 0.312909
O O12 0.285673 0.285673 0.164792
O O13 0.234020 0.339602 0.000000
O O14 0.219100 0.887819 0.500000
O O15 0.161345 0.838656 0.654489
O O16 0.172330 0.926010 0.719473
O O17 0.080304 0.080304 0.776490
O O18 0.000000 0.119995 0.750000
O O19 0.042042 0.122934 0.000000
#
# Coordination Sequence:
#
# PCOD8316639 Si02
#       6
#    16  16  16  16  16  16
#     4   9  15  21  31  49  69  86 105 127 151 183
#     4   9  16  26  39  53  69  87 107 133 164 198
#     4  10  20  32  44  56  69  86 110 141 179 221
#     4   9  15  22  33  49  69  91 110 126 149 185
#     4   8  14  25  37  47  62  83 104 127 159 199
#     4   9  18  30  41  52  65  82 106 138 177 219
#
# _framework density 12.71336
#
# number of rings (size 3 to 8) (size 9 to 14) (size 15 to 20)
#    0.000    3.000    0.000    3.000    0.000    8.333 
#    0.000    3.333    0.000    0.000    0.000    0.000 
#    0.000    0.000    0.000    0.000    0.000    0.000 
#
# Total GULP energy -1190035.326944 kJ/mol
# GULP energy per Si atom -12396.201322 kJ/mol
# Density = 1.268442 g / cm^3
# Si number density = 12.713360 Si / 1000 Ang^3
#
#
#
# Elastic Constant Matrix: (Units=GPa)
#
#
# Indices 1 2 3 4 5 6 
#
# 1 40.9460 40.8977 40.4600 0.0000 0.0000 0.0000
# 2 40.8977 40.9460 40.4600 0.0000 0.0000 0.0000
# 3 40.4600 40.4600 109.8798 0.0000 0.0000 0.0000
# 4 0.0000 0.0000 0.0000 19.4830 0.0000 0.0000
# 5 0.0000 0.0000 0.0000 0.0000 19.4830 0.0000
# 6 0.0000 0.0000 0.0000 0.0000 0.0000 11.7693
#
#
#
# Elastic Compliance Matrix: (Units=1/GPa)
#
#
# Indices 1 2 3 4 5 6 
#
# 1 10.361269-10.342055 -0.007075 0.000000 0.000000 0.000000
# 2 -10.342055 10.361269 -0.007075 0.000000 0.000000 0.000000
# 3 -0.007075 -0.007075 0.014311 0.000000 0.000000 0.000000
# 4 0.000000 0.000000 0.000000 0.051327 0.000000 0.000000
# 5 0.000000 0.000000 0.000000 0.000000 0.051327 0.000000
# 6 0.000000 0.000000 0.000000 0.000000 0.000000 0.084967
#
#
# Mechanical properties :
#
#
# Convention : Reuss Voigt Hill
#
# Bulk Modulus (GPa) = 40.91882 48.37857 44.64870
# Shear Modulus (GPa) = 0.12006 14.81066 7.46536
#
# Velocity S-wave (km/s) = 0.30764 3.41687 2.42586
# Velocity P-wave (km/s) = 5.69050 7.32820 6.56065
#
# Compressibility (1/GPa) = 0.02443863
#
# Stress axis : x y z
#
# Youngs Moduli (GPa) = 0.09651 0.09651 69.87657
#
# Poissons Ratio (x) = 0.99815 0.49436
# Poissons Ratio (y) = 0.99815 0.49436
# Poissons Ratio (z) = 0.00068 0.00068
#
# Static dielectric constant tensor:
#      x y z
#    x 2.411320 0.000000 0.000000 
#    y 0.000000 2.411320 0.000000 
#    z 0.000000 0.000000 2.789600 
# 
# 
# High freq. dielectric constant tensor:
#      x y z
#    x 1.443850 0.000000 0.000000 
#    y 0.000000 1.443850 0.000000 
#    z 0.000000 0.000000 1.501280 
# 
# From -- ./inp_files/1895.got.cif
#   From: 2010.03.12/outbox.cif.g09.slc.cpg/sg132_1_cif.got.tgz:1895.got - 2010.04.06 17:53:44.
