data_PCOD8316834
_publ_section_title
;
Structure prediction by ZEFSAII (Michael W. Deem and Ramdas Pophale) SiO2 
 PCOD8316834
Probable space group: P 42/M C M
;
_chemical_formula_sum "Si O2"
_cell_formula_units_Z 48
_cell_length_a 11.730800
_cell_length_b 11.730800
_cell_length_c 18.798183
_cell_angle_alpha 90.000000
_cell_angle_beta 90.000000
_cell_angle_gamma 90.000000
_cell_volume 2586.849330
_symmetry_space_group_name_H-M "P 42/M C M"
_symmetry_group_IT_number 132
_symmetry_cell_setting 'tetragonal'
loop_
_space_group_symop_operation_xyz
x,y,z
-y,x,1/2+z
-x,-y,z
y,-x,1/2+z
x,-y,1/2-z
-x,y,1/2-z
y,x,-z
-y,-x,-z
-x,-y,-z
y,-x,1/2-z
x,y,-z
-y,x,1/2-z
-x,y,1/2+z
x,-y,1/2+z
-y,-x,z
y,x,z
loop_
_atom_site_type_symbol
_atom_site_label
_atom_site_fract_x
_atom_site_fract_y
_atom_site_fract_z
Si Si1 0.404065 0.595936 0.079481
Si Si2 0.391495 0.926164 0.578308
Si Si3 0.263390 0.551615 0.676850
Si Si4 0.996500 0.189219 0.000000
O O1 0.500000 0.500000 0.074683
O O2 0.451068 0.705165 0.121870
O O3 0.366714 0.633287 0.000000
O O4 0.418040 0.871145 0.500000
O O5 0.370986 0.831178 0.638294
O O6 0.500000 0.000000 0.602948
O O7 0.272378 0.997017 0.569874
O O8 0.214728 0.500000 0.750000
O O9 0.373402 0.626599 0.696331
O O10 0.876884 0.123117 0.000000
O O11 0.102169 0.102169 0.000000
#
# Coordination Sequence:
#
# PCOD8316834 Si02
#       4
#     8  16  16   8
#     4   9  18  30  48  76 108 150 193 234 272 330
#     4   9  20  37  54  83 114 150 190 248 295 356
#     4  11  20  33  53  79 116 156 195 236 287 351
#     4   9  17  34  60  85 109 141 192 254 301 343
#
# _framework density 18.555391
#
# number of rings (size 3 to 8) (size 9 to 14) (size 15 to 20)
#    1.000    1.333    1.667    2.000    0.000    2.000 
#    3.000    0.000    0.000    0.000    0.000    0.000 
#    0.000    5.333    0.000    0.000    0.000    0.333 
#
# Total GULP energy -594791.746578 kJ/mol
# GULP energy per Si atom -12391.494720 kJ/mol
# Density = 1.851316 g / cm^3
# Si number density = 18.555391 Si / 1000 Ang^3
#
#
#
# Elastic Constant Matrix: (Units=GPa)
#
#
# Indices 1 2 3 4 5 6 
#
# 1 85.9734 47.5023 35.5933 0.0000 0.0000 0.0000
# 2 47.5023 85.9719 35.5935 0.0000 0.0000 0.0000
# 3 35.5933 35.5935 123.2201 0.0000 0.0000 0.0000
# 4 0.0000 0.0000 0.0000 17.0822 0.0000 0.0000
# 5 0.0000 0.0000 0.0000 0.0000 17.0823 0.0000
# 6 0.0000 0.0000 0.0000 0.0000 0.0000 33.5794
#
#
#
# Elastic Compliance Matrix: (Units=1/GPa)
#
#
# Indices 1 2 3 4 5 6 
#
# 1 0.017425 -0.008569 -0.002558 0.000000 0.000000 0.000000
# 2 -0.008569 0.017425 -0.002558 0.000000 0.000000 0.000000
# 3 -0.002558 -0.002558 0.009594 0.000000 0.000000 0.000000
# 4 0.000000 0.000000 0.000000 0.058541 0.000000 0.000000
# 5 0.000000 0.000000 0.000000 0.000000 0.058540 0.000000
# 6 0.000000 0.000000 0.000000 0.000000 0.000000 0.029780
#
#
# Mechanical properties :
#
#
# Convention : Reuss Voigt Hill
#
# Bulk Modulus (GPa) = 58.57087 59.17151 58.87119
# Shear Modulus (GPa) = 22.28496 25.31386 23.79941
#
# Velocity S-wave (km/s) = 3.46930 3.69756 3.58525
# Velocity P-wave (km/s) = 6.90521 7.08432 6.99534
#
# Compressibility (1/GPa) = 0.01707333
#
# Stress axis : x y z
#
# Youngs Moduli (GPa) = 57.38859 57.38742 104.23688
#
# Poissons Ratio (x) = 0.49174 0.26666
# Poissons Ratio (y) = 0.49175 0.26667
# Poissons Ratio (z) = 0.14681 0.14682
#
# Static dielectric constant tensor:
#      x y z
#    x 3.173500 0.000000 0.000000 
#    y 0.000000 3.173510 0.000000 
#    z 0.000000 0.000000 3.273400 
# 
# 
# High freq. dielectric constant tensor:
#      x y z
#    x 1.701110 0.000000 0.000000 
#    y 0.000000 1.701110 0.000000 
#    z 0.000000 0.000000 1.705660 
# 
# From -- ./inp_files/5718.got.cif
#   From: 2010.03.12/outbox.cif.g09.slc.cpg/sg132_3_cif.got.tgz:5718.got - 2010.04.06 17:53:44.
