data_PCOD8316139
_publ_section_title
;
Structure prediction by ZEFSAII (Michael W. Deem and Ramdas Pophale) SiO2 
 PCOD8316139
Probable space group: P 42/M M C
;
_chemical_formula_sum "Si O2"
_cell_formula_units_Z 88
_cell_length_a 17.408408
_cell_length_b 17.408408
_cell_length_c 15.151302
_cell_angle_alpha 90.000000
_cell_angle_beta 90.000000
_cell_angle_gamma 90.000000
_cell_volume 4591.642511
_symmetry_space_group_name_H-M "P 42/M M C"
_symmetry_group_IT_number 131
_symmetry_cell_setting 'tetragonal'
loop_
_space_group_symop_operation_xyz
x,y,z
-x,-y,z
-y,x,1/2+z
y,-x,1/2+z
-x,y,-z
x,-y,-z
y,x,1/2-z
-y,-x,1/2-z
-x,-y,-z
x,y,-z
y,-x,1/2-z
-y,x,1/2-z
x,-y,z
-x,y,z
-y,-x,1/2+z
y,x,1/2+z
loop_
_atom_site_type_symbol
_atom_site_label
_atom_site_fract_x
_atom_site_fract_y
_atom_site_fract_z
Si Si1 0.750644 0.822930 0.099115
Si Si2 0.849507 0.916185 0.667672
Si Si3 0.683869 0.916053 0.250505
Si Si4 0.311372 0.656774 0.900888
Si Si5 0.156896 0.586889 0.096833
Si Si6 0.409675 0.590326 0.750000
O O1 0.839813 0.851370 0.106786
O O2 0.690981 0.866271 0.162143
O O3 0.738395 0.733292 0.122413
O O4 0.724723 0.840905 0.000000
O O5 0.907375 0.907375 0.750000
O O6 0.764981 0.920719 0.703977
O O7 0.868406 0.000000 0.621332
O O8 0.625587 0.882916 0.320900
O O9 0.654621 0.000000 0.222230
O O10 0.249139 0.589095 0.892488
O O11 0.381204 0.639091 0.834695
O O12 0.346004 0.662024 0.000000
O O13 0.129150 0.500000 0.097501
O O14 0.135018 0.623708 0.000000
O O15 0.500000 0.606155 0.736894
#
# Coordination Sequence:
#
# PCOD8316139 Si02
#       6
#    16  16  16  16  16   8
#     4  10  20  35  57  82 108 146 197 238 270 322
#     4   9  18  32  52  80 112 148 189 231 280 333
#     4  10  20  34  53  77 111 150 183 223 275 326
#     4  10  20  36  58  82 110 145 184 230 276 323
#     4  10  20  34  56  86 113 140 177 221 277 341
#     4  11  24  38  56  84 114 148 187 226 276 338
#
# _framework density 19.165255999999999
#
# number of rings (size 3 to 8) (size 9 to 14) (size 15 to 20)
#    0.000    2.091    1.818    1.636    1.273    3.091 
#    0.000    3.636    0.000    1.636    0.000    6.364 
#    0.000    0.000    0.000    0.000    0.000    0.000 
#
# Total GULP energy -1090275.185227 kJ/mol
# GULP energy per Si atom -12389.490741 kJ/mol
# Density = 1.912163 g / cm^3
# Si number density = 19.165256 Si / 1000 Ang^3
#
#
#
# Elastic Constant Matrix: (Units=GPa)
#
#
# Indices 1 2 3 4 5 6 
#
# 1 77.5107 36.2627 55.0921 0.0000 0.0000 0.0000
# 2 36.2627 77.5110 55.0919 0.0000 0.0000 0.0000
# 3 55.0921 55.0919 130.1174 0.0000 0.0000 0.0000
# 4 0.0000 0.0000 0.0000 18.4397 0.0000 0.0000
# 5 0.0000 0.0000 0.0000 0.0000 18.4390 0.0000
# 6 0.0000 0.0000 0.0000 0.0000 0.0000 -44.4188
#
#
#
# Elastic Compliance Matrix: (Units=1/GPa)
#
#
# Indices 1 2 3 4 5 6 
#
# 1 0.019571 -0.004673 -0.006308 0.000000 0.000000 0.000000
# 2 -0.004673 0.019571 -0.006308 0.000000 0.000000 0.000000
# 3 -0.006308 -0.006308 0.013027 0.000000 0.000000 0.000000
# 4 0.000000 0.000000 0.000000 0.054231 0.000000 0.000000
# 5 0.000000 0.000000 0.000000 0.000000 0.054233 0.000000
# 6 0.000000 0.000000 0.000000 0.000000 0.000000 -0.022513
#
#
# Mechanical properties :
#
#
# Convention : Reuss Voigt Hill
#
# Bulk Modulus (GPa) = 56.84485 64.22583 60.53534
# Shear Modulus (GPa) = 28.00165 7.73812 17.86988
#
# Velocity S-wave (km/s) = 3.82653 2.01155 3.05685
# Velocity P-wave (km/s) = 7.01768 6.24335 6.64181
#
# Compressibility (1/GPa) = 0.01759174
#
# Stress axis : x y z
#
# Youngs Moduli (GPa) = 51.09590 51.09636 76.76359
#
# Poissons Ratio (x) = 0.23875 0.48423
# Poissons Ratio (y) = 0.23875 0.48422
# Poissons Ratio (z) = 0.32232 0.32231
#
# Static dielectric constant tensor:
#      x y z
#    x 3.621450 0.000000 0.000000 
#    y 0.000000 3.621470 0.000000 
#    z 0.000000 0.000000 3.136890 
# 
# 
# High freq. dielectric constant tensor:
#      x y z
#    x 1.734730 0.000000 0.000000 
#    y 0.000000 1.734730 0.000000 
#    z 0.000000 0.000000 1.740490 
# 
# From -- ./inp_files/5827.got.cif
#   From: 2010.03.12/outbox.cif.g09.slc.cpg/sg131_3_cif.got.tgz:5827.got - 2010.04.06 17:36:35.
