data_PCOD8316167
_publ_section_title
;
Structure prediction by ZEFSAII (Michael W. Deem and Ramdas Pophale) SiO2 
 PCOD8316167
Probable space group: P 42/M M C
;
_chemical_formula_sum "Si O2"
_cell_formula_units_Z 72
_cell_length_a 20.673269
_cell_length_b 20.673269
_cell_length_c 8.729470
_cell_angle_alpha 90.000000
_cell_angle_beta 90.000000
_cell_angle_gamma 90.000000
_cell_volume 3730.836253
_symmetry_space_group_name_H-M "P 42/M M C"
_symmetry_group_IT_number 131
_symmetry_cell_setting 'tetragonal'
loop_
_space_group_symop_operation_xyz
x,y,z
-x,-y,z
-y,x,1/2+z
y,-x,1/2+z
-x,y,-z
x,-y,-z
y,x,1/2-z
-y,-x,1/2-z
-x,-y,-z
x,y,-z
y,-x,1/2-z
-y,x,1/2-z
x,-y,z
-x,y,z
-y,-x,1/2+z
y,x,1/2+z
loop_
_atom_site_type_symbol
_atom_site_label
_atom_site_fract_x
_atom_site_fract_y
_atom_site_fract_z
Si Si1 0.674484 0.767708 0.818944
Si Si2 0.176172 0.926202 0.820282
Si Si3 0.570957 0.662680 0.179539
Si Si4 0.098582 0.317386 0.820028
Si Si5 0.425707 0.000000 0.319189
O O1 0.741286 0.741286 0.750000
O O2 0.616374 0.721197 0.770439
O O3 0.659619 0.831479 0.727307
O O4 0.680775 0.778837 0.000000
O O5 0.125418 0.874583 0.750000
O O6 0.249398 0.919457 0.758909
O O7 0.152733 0.000000 0.785912
O O8 0.178427 0.912275 0.000000
O O9 0.595802 0.595802 0.250000
O O10 0.500000 0.677499 0.244539
O O11 0.570438 0.654116 0.000000
O O12 0.059281 0.380646 0.764419
O O13 0.090203 0.306027 0.000000
O O14 0.500000 0.000000 0.248637
O O15 0.434051 0.000000 0.500000
#
# Coordination Sequence:
#
# PCOD8316167 Si02
#       5
#    16  16  16  16   8
#     4  10  20  35  55  80 110 144 185 233 282 336
#     4  11  24  41  63  90 122 159 201 247 295 353
#     4   9  19  35  53  75 106 143 183 230 284 342
#     4  11  21  37  61  86 116 153 193 239 289 345
#     4   9  20  38  59  85 116 151 190 233 283 342
#
# _framework density 19.298622999999999
#
# number of rings (size 3 to 8) (size 9 to 14) (size 15 to 20)
#    0.000    1.889    1.111    2.667    0.000    4.000 
#    0.000    2.222    0.000    4.667    0.000    0.000 
#    0.000    0.000    0.000    0.000    0.000    0.000 
#
# Total GULP energy -892240.712594 kJ/mol
# GULP energy per Si atom -12392.232119 kJ/mol
# Density = 1.925470 g / cm^3
# Si number density = 19.298623 Si / 1000 Ang^3
#
#
#
# Elastic Constant Matrix: (Units=GPa)
#
#
# Indices 1 2 3 4 5 6 
#
# 1 160.9722 72.2725 41.2203 0.0000 0.0000 0.0000
# 2 72.2725 160.9731 41.2218 0.0000 0.0000 0.0000
# 3 41.2203 41.2218 58.5716 0.0000 0.0000 0.0000
# 4 0.0000 0.0000 0.0000 23.3231 0.0000 0.0000
# 5 0.0000 0.0000 0.0000 0.0000 23.3230 0.0000
# 6 0.0000 0.0000 0.0000 0.0000 0.0000 19.3594
#
#
#
# Elastic Compliance Matrix: (Units=1/GPa)
#
#
# Indices 1 2 3 4 5 6 
#
# 1 0.008490 -0.002783 -0.004016 0.000000 0.000000 0.000000
# 2 -0.002783 0.008490 -0.004017 0.000000 0.000000 0.000000
# 3 -0.004016 -0.004017 0.022726 0.000000 0.000000 0.000000
# 4 0.000000 0.000000 0.000000 0.042876 0.000000 0.000000
# 5 0.000000 0.000000 0.000000 0.000000 0.042876 0.000000
# 6 0.000000 0.000000 0.000000 0.000000 0.000000 0.051654
#
#
# Mechanical properties :
#
#
# Convention : Reuss Voigt Hill
#
# Bulk Modulus (GPa) = 55.32597 76.66068 65.99333
# Shear Modulus (GPa) = 24.41749 28.25459 26.33604
#
# Velocity S-wave (km/s) = 3.56089 3.83047 3.69814
# Velocity P-wave (km/s) = 6.75553 7.70539 7.24604
#
# Compressibility (1/GPa) = 0.01807469
#
# Stress axis : x y z
#
# Youngs Moduli (GPa) = 117.77991 117.77886 44.00179
#
# Poissons Ratio (x) = 0.32784 0.17672
# Poissons Ratio (y) = 0.32784 0.17674
# Poissons Ratio (z) = 0.47303 0.47307
#
# Static dielectric constant tensor:
#      x y z
#    x 3.613290 0.000000 0.000000 
#    y 0.000000 3.613290 0.000000 
#    z 0.000000 0.000000 3.471730 
# 
# 
# High freq. dielectric constant tensor:
#      x y z
#    x 1.760710 0.000000 0.000000 
#    y 0.000000 1.760710 0.000000 
#    z 0.000000 0.000000 1.746160 
# 
# From -- ./inp_files/1757.got.cif
#   From: 2010.03.12/outbox.cif.g09.slc.cpg/sg131_1_cif.got.tgz:1757.got - 2010.04.06 17:36:35.
