data_PCOD8316115
_publ_section_title
;
Structure prediction by ZEFSAII (Michael W. Deem and Ramdas Pophale) SiO2 
 PCOD8316115
Probable space group: P 42/M M C
;
_chemical_formula_sum "Si O2"
_cell_formula_units_Z 64
_cell_length_a 21.475564
_cell_length_b 21.475564
_cell_length_c 10.875070
_cell_angle_alpha 90.000000
_cell_angle_beta 90.000000
_cell_angle_gamma 90.000000
_cell_volume 5015.580643
_symmetry_space_group_name_H-M "P 42/M M C"
_symmetry_group_IT_number 131
_symmetry_cell_setting 'tetragonal'
loop_
_space_group_symop_operation_xyz
x,y,z
-x,-y,z
-y,x,1/2+z
y,-x,1/2+z
-x,y,-z
x,-y,-z
y,x,1/2-z
-y,-x,1/2-z
-x,-y,-z
x,y,-z
y,-x,1/2-z
-y,x,1/2-z
x,-y,z
-x,y,z
-y,-x,1/2+z
y,x,1/2+z
loop_
_atom_site_type_symbol
_atom_site_label
_atom_site_fract_x
_atom_site_fract_y
_atom_site_fract_z
Si Si1 0.569062 0.572631 0.000000
Si Si2 0.426618 0.929029 0.500000
Si Si3 0.375181 0.375181 0.750000
Si Si4 0.000000 0.432053 0.359228
Si Si5 0.746247 0.426566 0.355796
Si Si6 0.123513 0.573899 0.253744
O O1 0.603898 0.590092 0.125668
O O2 0.500000 0.604439 0.000000
O O3 0.560934 0.500000 0.000000
O O4 0.500000 0.936491 0.500000
O O5 0.404890 0.886556 0.386251
O O6 0.398403 0.000000 0.500000
O O7 0.388705 0.302581 0.772608
O O8 0.936597 0.396629 0.323002
O O9 0.000000 0.500000 0.290065
O O10 0.000000 0.444715 0.500000
O O11 0.735766 0.412448 0.500000
O O12 0.739533 0.500000 0.328984
O O13 0.813125 0.399849 0.312469
O O14 0.125429 0.500000 0.272075
#
# Coordination Sequence:
#
# PCOD8316115 Si02
#       6
#     8   8   8   8  16  16
#     4  11  22  35  51  67  77  92 124 167 220 276
#     4   9  14  23  37  57  85 106 121 146 177 214
#     4  12  22  35  50  62  82 104 126 168 218 263
#     4   9  14  21  35  57  79 100 125 147 173 218
#     4  10  20  34  47  60  79 102 129 163 204 251
#     4   9  16  25  40  58  79 104 125 149 184 228
#
# _framework density 12.760237
#
# number of rings (size 3 to 8) (size 9 to 14) (size 15 to 20)
#    0.000    2.125    2.500    3.000    0.000    5.000 
#    0.000    2.500    0.000    0.000    0.000    0.000 
#    0.000    0.000    0.000    0.000    0.000    0.000 
#
# Total GULP energy -792879.304458 kJ/mol
# GULP energy per Si atom -12388.739132 kJ/mol
# Density = 1.273119 g / cm^3
# Si number density = 12.760237 Si / 1000 Ang^3
#
#
#
# Elastic Constant Matrix: (Units=GPa)
#
#
# Indices 1 2 3 4 5 6 
#
# 1 77.6693 22.9507 35.8495 0.0000 0.0000 0.0000
# 2 22.9507 77.6693 35.8495 0.0000 0.0000 0.0000
# 3 35.8495 35.8495 98.2683 0.0000 0.0000 0.0000
# 4 0.0000 0.0000 0.0000 20.4747 0.0000 0.0000
# 5 0.0000 0.0000 0.0000 0.0000 20.4747 0.0000
# 6 0.0000 0.0000 0.0000 0.0000 0.0000 3.6763
#
#
#
# Elastic Compliance Matrix: (Units=1/GPa)
#
#
# Indices 1 2 3 4 5 6 
#
# 1 0.015852 -0.002423 -0.004899 0.000000 0.000000 0.000000
# 2 -0.002423 0.015852 -0.004899 0.000000 0.000000 0.000000
# 3 -0.004899 -0.004899 0.013751 0.000000 0.000000 0.000000
# 4 0.000000 0.000000 0.000000 0.048841 0.000000 0.000000
# 5 0.000000 0.000000 0.000000 0.000000 0.048841 0.000000
# 6 0.000000 0.000000 0.000000 0.000000 0.000000 0.272012
#
#
# Mechanical properties :
#
#
# Convention : Reuss Voigt Hill
#
# Bulk Modulus (GPa) = 47.59008 49.21183 48.40095
# Shear Modulus (GPa) = 11.19579 19.52229 15.35904
#
# Velocity S-wave (km/s) = 2.96530 3.91568 3.47315
# Velocity P-wave (km/s) = 7.00718 7.68724 7.35507
#
# Compressibility (1/GPa) = 0.02101278
#
# Stress axis : x y z
#
# Youngs Moduli (GPa) = 63.08200 63.08200 72.72290
#
# Poissons Ratio (x) = 0.15284 0.35629
# Poissons Ratio (y) = 0.15284 0.35629
# Poissons Ratio (z) = 0.30905 0.30905
#
# Static dielectric constant tensor:
#      x y z
#    x 2.475670 0.000000 0.000000 
#    y 0.000000 2.475670 0.000000 
#    z 0.000000 0.000000 2.802200 
# 
# 
# High freq. dielectric constant tensor:
#      x y z
#    x 1.446620 0.000000 0.000000 
#    y 0.000000 1.446620 0.000000 
#    z 0.000000 0.000000 1.507130 
# 
# From -- ./inp_files/4099.got.cif
#   From: 2010.03.12/outbox.cif.g09.slc.cpg/sg131_3_cif.got.tgz:4099.got - 2010.04.06 17:36:35.
