data_PCOD8316244
_publ_section_title
;
Structure prediction by ZEFSAII (Michael W. Deem and Ramdas Pophale) SiO2 
 PCOD8316244
Probable space group: P 42/M M C
;
_chemical_formula_sum "Si O2"
_cell_formula_units_Z 72
_cell_length_a 20.523252
_cell_length_b 20.523252
_cell_length_c 8.762570
_cell_angle_alpha 90.000000
_cell_angle_beta 90.000000
_cell_angle_gamma 90.000000
_cell_volume 3690.828418
_symmetry_space_group_name_H-M "P 42/M M C"
_symmetry_group_IT_number 131
_symmetry_cell_setting 'tetragonal'
loop_
_space_group_symop_operation_xyz
x,y,z
-x,-y,z
-y,x,1/2+z
y,-x,1/2+z
-x,y,-z
x,-y,-z
y,x,1/2-z
-y,-x,1/2-z
-x,-y,-z
x,y,-z
y,-x,1/2-z
-y,x,1/2-z
x,-y,z
-x,y,z
-y,-x,1/2+z
y,x,1/2+z
loop_
_atom_site_type_symbol
_atom_site_label
_atom_site_fract_x
_atom_site_fract_y
_atom_site_fract_z
Si Si1 0.077467 0.500000 0.181895
Si Si2 0.573270 0.675796 0.322374
Si Si3 0.817055 0.406933 0.318925
Si Si4 0.261127 0.162023 0.821526
Si Si5 0.830149 0.925033 0.672479
O O1 0.118460 0.560760 0.246853
O O2 0.000000 0.500000 0.233475
O O3 0.080455 0.500000 0.000000
O O4 0.626725 0.626725 0.250000
O O5 0.591144 0.683645 0.500000
O O6 0.500000 0.646426 0.302446
O O7 0.570671 0.747475 0.246656
O O8 0.817159 0.419362 0.500000
O O9 0.824620 0.333293 0.268995
O O10 0.217934 0.217934 0.750000
O O11 0.237207 0.092449 0.757732
O O12 0.253540 0.163021 0.000000
O O13 0.891061 0.891061 0.750000
O O14 0.824492 0.900366 0.500000
O O15 0.843950 0.000000 0.684828
#
# Coordination Sequence:
#
# PCOD8316244 Si02
#       5
#     8  16  16  16  16
#     4  11  25  43  63  89 122 161 204 251 305 367
#     4  11  24  41  64  94 128 169 215 262 316 375
#     4  11  23  40  64  91 122 160 204 254 308 368
#     4  10  21  36  57  86 115 149 191 239 292 347
#     4  10  21  36  55  80 110 147 190 237 292 353
#
# _framework density 19.507815000000001
#
# number of rings (size 3 to 8) (size 9 to 14) (size 15 to 20)
#    0.000    1.444    1.111    5.000    0.000   10.667 
#    0.000    6.667    0.000    0.000    0.000    0.000 
#    0.000    0.000    0.000    0.000    0.000    0.000 
#
# Total GULP energy -892294.563412 kJ/mol
# GULP energy per Si atom -12392.980047 kJ/mol
# Density = 1.946341 g / cm^3
# Si number density = 19.507815 Si / 1000 Ang^3
#
#
#
# Elastic Constant Matrix: (Units=GPa)
#
#
# Indices 1 2 3 4 5 6 
#
# 1 94.3230 2.4056 3.7849 0.0000 0.0000 0.0000
# 2 2.4056 94.3230 3.7849 0.0000 0.0000 0.0000
# 3 3.7849 3.7849 36.6431 0.0000 0.0000 0.0000
# 4 0.0000 0.0000 0.0000 38.7208 0.0000 0.0000
# 5 0.0000 0.0000 0.0000 0.0000 38.7208 0.0000
# 6 0.0000 0.0000 0.0000 0.0000 0.0000 4.3300
#
#
#
# Elastic Compliance Matrix: (Units=1/GPa)
#
#
# Indices 1 2 3 4 5 6 
#
# 1 0.010651 -0.000228 -0.001077 0.000000 0.000000 0.000000
# 2 -0.000228 0.010651 -0.001077 0.000000 0.000000 0.000000
# 3 -0.001077 -0.001077 0.027513 0.000000 0.000000 0.000000
# 4 0.000000 0.000000 0.000000 0.025826 0.000000 0.000000
# 5 0.000000 0.000000 0.000000 0.000000 0.025826 0.000000
# 6 0.000000 0.000000 0.000000 0.000000 0.000000 0.230945
#
#
# Mechanical properties :
#
#
# Convention : Reuss Voigt Hill
#
# Bulk Modulus (GPa) = 22.70072 27.24885 24.97478
# Shear Modulus (GPa) = 14.25078 30.70859 22.47968
#
# Velocity S-wave (km/s) = 2.70574 3.97188 3.39830
# Velocity P-wave (km/s) = 4.62854 5.91887 5.31302
#
# Compressibility (1/GPa) = 0.04405146
#
# Stress axis : x y z
#
# Youngs Moduli (GPa) = 93.88887 93.88887 36.34687
#
# Poissons Ratio (x) = 0.02145 0.03913
# Poissons Ratio (y) = 0.02145 0.03913
# Poissons Ratio (z) = 0.10107 0.10107
#
# Static dielectric constant tensor:
#      x y z
#    x 3.773550 0.000000 0.000000 
#    y 0.000000 3.773550 0.000000 
#    z 0.000000 0.000000 3.834260 
# 
# 
# High freq. dielectric constant tensor:
#      x y z
#    x 1.767350 0.000000 0.000000 
#    y 0.000000 1.767350 0.000000 
#    z 0.000000 0.000000 1.779240 
# 
# From -- ./inp_files/1791.got.cif
#   From: 2010.03.12/outbox.cif.g09.slc.cpg/sg131_1_cif.got.tgz:1791.got - 2010.04.06 17:36:35.
