data_PCOD8316285
_publ_section_title
;
Structure prediction by ZEFSAII (Michael W. Deem and Ramdas Pophale) SiO2 
 PCOD8316285
Probable space group: P 42/M M C
;
_chemical_formula_sum "Si O2"
_cell_formula_units_Z 32
_cell_length_a 12.282183
_cell_length_b 12.282183
_cell_length_c 9.640312
_cell_angle_alpha 90.000000
_cell_angle_beta 90.000000
_cell_angle_gamma 90.000000
_cell_volume 1454.260531
_symmetry_space_group_name_H-M "P 42/M M C"
_symmetry_group_IT_number 131
_symmetry_cell_setting 'tetragonal'
loop_
_space_group_symop_operation_xyz
x,y,z
-x,-y,z
-y,x,1/2+z
y,-x,1/2+z
-x,y,-z
x,-y,-z
y,x,1/2-z
-y,-x,1/2-z
-x,-y,-z
x,y,-z
y,-x,1/2-z
-y,x,1/2-z
x,-y,z
-x,y,z
-y,-x,1/2+z
y,x,1/2+z
loop_
_atom_site_type_symbol
_atom_site_label
_atom_site_fract_x
_atom_site_fract_y
_atom_site_fract_z
Si Si1 0.119880 0.500000 0.251439
Si Si2 0.647163 0.500000 0.839550
Si Si3 0.263735 0.120714 0.154621
O O1 0.221820 0.500000 0.146220
O O2 0.129990 0.394026 0.347162
O O3 0.000000 0.500000 0.175500
O O4 0.604070 0.604070 0.750000
O O5 0.604001 0.500000 0.000000
O O6 0.211518 0.211518 0.250000
O O7 0.228056 0.000000 0.204743
O O8 0.221493 0.142390 0.000000
#
# Coordination Sequence:
#
# PCOD8316285 Si02
#       3
#     8   8  16
#     4  10  22  39  61  90 122 155 195 245 299 354
#     4  11  24  41  63  90 122 159 200 246 295 351
#     4  10  22  40  62  88 119 157 199 244 296 353
#
# _framework density 22.004308000000002
#
# number of rings (size 3 to 8) (size 9 to 14) (size 15 to 20)
#    0.000    1.750    0.000    3.750    0.000   15.000 
#    0.000    7.500    0.000    0.000    0.000    0.000 
#    0.000    0.000    0.000    0.000    0.000    0.000 
#
# Total GULP energy -396453.378605 kJ/mol
# GULP energy per Si atom -12389.168081 kJ/mol
# Density = 2.195423 g / cm^3
# Si number density = 22.004308 Si / 1000 Ang^3
#
#
#
# Elastic Constant Matrix: (Units=GPa)
#
#
# Indices 1 2 3 4 5 6 
#
# 1 152.4680 51.6607 52.2970 0.0000 0.0000 0.0000
# 2 51.6607 152.4680 52.2970 0.0000 0.0000 0.0000
# 3 52.2970 52.2970 124.9212 0.0000 0.0000 0.0000
# 4 0.0000 0.0000 0.0000 13.8657 0.0000 0.0000
# 5 0.0000 0.0000 0.0000 0.0000 13.8657 0.0000
# 6 0.0000 0.0000 0.0000 0.0000 0.0000 29.0130
#
#
#
# Elastic Compliance Matrix: (Units=1/GPa)
#
#
# Indices 1 2 3 4 5 6 
#
# 1 0.008078 -0.001842 -0.002611 0.000000 0.000000 0.000000
# 2 -0.001842 0.008078 -0.002611 0.000000 0.000000 0.000000
# 3 -0.002611 -0.002611 0.010191 0.000000 0.000000 0.000000
# 4 0.000000 0.000000 0.000000 0.072120 0.000000 0.000000
# 5 0.000000 0.000000 0.000000 0.000000 0.072120 0.000000
# 6 0.000000 0.000000 0.000000 0.000000 0.000000 0.034467
#
#
# Mechanical properties :
#
#
# Convention : Reuss Voigt Hill
#
# Bulk Modulus (GPa) = 81.82771 82.48515 82.15643
# Shear Modulus (GPa) = 22.39580 29.58906 25.99243
#
# Velocity S-wave (km/s) = 3.19375 3.67098 3.44065
# Velocity P-wave (km/s) = 7.13217 7.45221 7.29395
#
# Compressibility (1/GPa) = 0.01222080
#
# Stress axis : x y z
#
# Youngs Moduli (GPa) = 123.78834 123.78834 98.12461
#
# Poissons Ratio (x) = 0.22797 0.25620
# Poissons Ratio (y) = 0.22797 0.25620
# Poissons Ratio (z) = 0.32320 0.32320
#
# Static dielectric constant tensor:
#      x y z
#    x 4.109210 0.000000 0.000000 
#    y 0.000000 4.109210 0.000000 
#    z 0.000000 0.000000 3.546770 
# 
# 
# High freq. dielectric constant tensor:
#      x y z
#    x 1.873130 0.000000 0.000000 
#    y 0.000000 1.873130 0.000000 
#    z 0.000000 0.000000 1.839060 
# 
# From -- ./inp_files/3113.got.cif
#   From: 2010.03.12/outbox.cif.g09.slc.cpg/sg131_2_cif.got.tgz:3113.got - 2010.04.06 17:36:35.
