data_PCOD8316849
_publ_section_title
;
Structure prediction by ZEFSAII (Michael W. Deem and Ramdas Pophale) SiO2 
 PCOD8316849
Probable space group: P 42/M C M
;
_chemical_formula_sum "Si O2"
_cell_formula_units_Z 72
_cell_length_a 20.283270
_cell_length_b 20.283270
_cell_length_c 10.532731
_cell_angle_alpha 90.000000
_cell_angle_beta 90.000000
_cell_angle_gamma 90.000000
_cell_volume 4333.281835
_symmetry_space_group_name_H-M "P 42/M C M"
_symmetry_group_IT_number 132
_symmetry_cell_setting 'tetragonal'
loop_
_space_group_symop_operation_xyz
x,y,z
-y,x,1/2+z
-x,-y,z
y,-x,1/2+z
x,-y,1/2-z
-x,y,1/2-z
y,x,-z
-y,-x,-z
-x,-y,-z
y,-x,1/2-z
x,y,-z
-y,x,1/2-z
-x,y,1/2+z
x,-y,1/2+z
-y,-x,z
y,x,z
loop_
_atom_site_type_symbol
_atom_site_label
_atom_site_fract_x
_atom_site_fract_y
_atom_site_fract_z
Si Si1 0.201447 0.093631 0.863839
Si Si2 0.261847 0.369253 0.647935
Si Si3 0.497367 0.393063 0.500000
Si Si4 0.000000 0.896337 0.750000
Si Si5 0.154632 0.265534 0.640138
Si Si6 0.307456 0.500000 0.250000
O O1 0.161624 0.161624 0.864031
O O2 0.252488 0.097642 0.745587
O O3 0.150899 0.032324 0.854898
O O4 0.238394 0.086273 0.000000
O O5 0.268388 0.388147 0.500000
O O6 0.322490 0.322490 0.688615
O O7 0.192710 0.332779 0.674669
O O8 0.262153 0.435241 0.732680
O O9 0.423252 0.423252 0.500000
O O10 0.548725 0.451276 0.500000
O O11 0.508793 0.351391 0.625923
O O12 0.057043 0.942958 0.812120
O O13 0.121575 0.271605 0.500000
O O14 0.206428 0.206428 0.635296
#
# Coordination Sequence:
#
# PCOD8316849 Si02
#       6
#    16  16   8   8  16   8
#     4   9  17  29  44  66  94 121 157 202 233 251
#     4   9  17  31  47  62  83 113 151 193 238 289
#     4  11  22  32  42  58  84 120 156 187 226 280
#     4   9  18  30  44  66 102 145 172 182 204 249
#     4   8  15  29  48  63  79 112 154 193 236 284
#     4  12  20  31  46  62  86 115 152 198 238 284
#
# _framework density 16.615583000000001
#
# number of rings (size 3 to 8) (size 9 to 14) (size 15 to 20)
#    0.000    2.667    1.111    3.333    0.000    2.222 
#    2.000    4.444    0.000    0.000    0.000    0.000 
#    0.000    0.889    0.000    6.889    0.000    2.222 
#
# Total GULP energy -892127.618822 kJ/mol
# GULP energy per Si atom -12390.661373 kJ/mol
# Density = 1.657776 g / cm^3
# Si number density = 16.615583 Si / 1000 Ang^3
#
#
#
# Elastic Constant Matrix: (Units=GPa)
#
#
# Indices 1 2 3 4 5 6 
#
# 1 58.6415 43.2047 52.0008 0.0000 0.0000 0.0000
# 2 43.2047 58.6414 52.0007 0.0000 0.0000 0.0000
# 3 52.0008 52.0007 140.8352 0.0000 0.0000 0.0000
# 4 0.0000 0.0000 0.0000 16.5577 0.0000 0.0000
# 5 0.0000 0.0000 0.0000 0.0000 16.5579 0.0000
# 6 0.0000 0.0000 0.0000 0.0000 0.0000 31.4288
#
#
#
# Elastic Compliance Matrix: (Units=1/GPa)
#
#
# Indices 1 2 3 4 5 6 
#
# 1 0.040271 -0.024509 -0.005820 0.000000 0.000000 0.000000
# 2 -0.024509 0.040271 -0.005820 0.000000 0.000000 0.000000
# 3 -0.005820 -0.005820 0.011398 0.000000 0.000000 0.000000
# 4 0.000000 0.000000 0.000000 0.060395 0.000000 0.000000
# 5 0.000000 0.000000 0.000000 0.000000 0.060394 0.000000
# 6 0.000000 0.000000 0.000000 0.000000 0.000000 0.031818
#
#
# Mechanical properties :
#
#
# Convention : Reuss Voigt Hill
#
# Bulk Modulus (GPa) = 50.90984 61.39227 56.15106
# Shear Modulus (GPa) = 15.46109 20.30299 17.88204
#
# Velocity S-wave (km/s) = 3.05375 3.49940 3.28414
# Velocity P-wave (km/s) = 6.56812 7.30455 6.94610
#
# Compressibility (1/GPa) = 0.01964257
#
# Stress axis : x y z
#
# Youngs Moduli (GPa) = 24.83176 24.83174 87.73405
#
# Poissons Ratio (x) = 0.60861 0.51058
# Poissons Ratio (y) = 0.60861 0.51058
# Poissons Ratio (z) = 0.14451 0.14451
#
# Static dielectric constant tensor:
#      x y z
#    x 2.989170 0.000000 0.000000 
#    y 0.000000 2.989170 0.000000 
#    z 0.000000 0.000000 3.308660 
# 
# 
# High freq. dielectric constant tensor:
#      x y z
#    x 1.607600 0.000000 0.000000 
#    y 0.000000 1.607600 0.000000 
#    z 0.000000 0.000000 1.642880 
# 
# From -- ./inp_files/3349.got.cif
#   From: 2010.03.12/outbox.cif.g09.slc.cpg/sg132_2_cif.got.tgz:3349.got - 2010.04.06 17:53:44.
