data_PCOD8316557
_publ_section_title
;
Structure prediction by ZEFSAII (Michael W. Deem and Ramdas Pophale) SiO2 
 PCOD8316557
Probable space group: P 42/M C M
;
_chemical_formula_sum "Si O2"
_cell_formula_units_Z 96
_cell_length_a 17.640641
_cell_length_b 17.640641
_cell_length_c 18.476876
_cell_angle_alpha 90.000000
_cell_angle_beta 90.000000
_cell_angle_gamma 90.000000
_cell_volume 5749.859967
_symmetry_space_group_name_H-M "P 42/M C M"
_symmetry_group_IT_number 132
_symmetry_cell_setting 'tetragonal'
loop_
_space_group_symop_operation_xyz
x,y,z
-y,x,1/2+z
-x,-y,z
y,-x,1/2+z
x,-y,1/2-z
-x,y,1/2-z
y,x,-z
-y,-x,-z
-x,-y,-z
y,-x,1/2-z
x,y,-z
-y,x,1/2-z
-x,y,1/2+z
x,-y,1/2+z
-y,-x,z
y,x,z
loop_
_atom_site_type_symbol
_atom_site_label
_atom_site_fract_x
_atom_site_fract_y
_atom_site_fract_z
Si Si1 0.916177 0.795743 0.081226
Si Si2 0.194902 0.314430 0.160444
Si Si3 0.164185 0.046586 0.679763
Si Si4 0.399559 0.928834 0.085011
Si Si5 0.571547 0.097687 0.584808
Si Si6 0.832582 0.713287 0.319862
O O1 0.878462 0.878462 0.079193
O O2 0.869758 0.742350 0.134133
O O3 0.000096 0.804290 0.111910
O O4 0.919942 0.760724 0.000000
O O5 0.277333 0.277333 0.138957
O O6 0.173059 0.393807 0.122612
O O7 0.193094 0.328688 0.246458
O O8 0.090422 0.090422 0.651117
O O9 0.228260 0.104030 0.705890
O O10 0.140167 0.000000 0.750000
O O11 0.484468 0.907324 0.108563
O O12 0.344697 0.868789 0.123474
O O13 0.386039 0.017876 0.106293
O O14 0.387761 0.918581 0.000000
O O15 0.578044 0.109962 0.500000
O O16 0.760162 0.760162 0.352907
#
# Coordination Sequence:
#
# PCOD8316557 Si02
#       6
#    16  16  16  16  16  16
#     4  10  20  32  45  62  84 113 151 194 241 288
#     4  10  19  32  48  69  96 123 154 194 236 284
#     4  11  21  33  46  61  84 116 156 202 244 280
#     4   9  19  34  50  71  98 126 159 201 244 289
#     4   9  18  32  50  73  99 125 156 198 247 292
#     4  10  21  33  47  67  92 123 160 197 233 283
#
# _framework density 16.696058000000001
#
# number of rings (size 3 to 8) (size 9 to 14) (size 15 to 20)
#    0.000    2.167    1.667    3.000    0.000    5.500 
#    0.000    4.167    0.000    0.000    0.000    0.000 
#    0.000    0.667    0.000    7.333    0.000    5.333 
#
# Total GULP energy -1189643.541758 kJ/mol
# GULP energy per Si atom -12392.120227 kJ/mol
# Density = 1.665806 g / cm^3
# Si number density = 16.696058 Si / 1000 Ang^3
#
#
#
# Elastic Constant Matrix: (Units=GPa)
#
#
# Indices 1 2 3 4 5 6 
#
# 1 63.7348 27.1754 25.9447 0.0000 0.0000 0.0000
# 2 27.1754 63.7348 25.9447 0.0000 0.0000 0.0000
# 3 25.9447 25.9447 62.9994 0.0000 0.0000 0.0000
# 4 0.0000 0.0000 0.0000 26.2905 0.0000 0.0000
# 5 0.0000 0.0000 0.0000 0.0000 26.2905 0.0000
# 6 0.0000 0.0000 0.0000 0.0000 0.0000 30.4712
#
#
#
# Elastic Compliance Matrix: (Units=1/GPa)
#
#
# Indices 1 2 3 4 5 6 
#
# 1 0.020866 -0.006486 -0.005922 0.000000 0.000000 0.000000
# 2 -0.006486 0.020866 -0.005922 0.000000 0.000000 0.000000
# 3 -0.005922 -0.005922 0.020751 0.000000 0.000000 0.000000
# 4 0.000000 0.000000 0.000000 0.038037 0.000000 0.000000
# 5 0.000000 0.000000 0.000000 0.000000 0.038037 0.000000
# 6 0.000000 0.000000 0.000000 0.000000 0.000000 0.032818
#
#
# Mechanical properties :
#
#
# Convention : Reuss Voigt Hill
#
# Bulk Modulus (GPa) = 38.72559 38.73318 38.72939
# Shear Modulus (GPa) = 23.07942 24.03737 23.55840
#
# Velocity S-wave (km/s) = 3.72200 3.79846 3.76042
# Velocity P-wave (km/s) = 6.45878 6.51821 6.48856
#
# Compressibility (1/GPa) = 0.02582272
#
# Stress axis : x y z
#
# Youngs Moduli (GPa) = 47.92397 47.92397 48.19079
#
# Poissons Ratio (x) = 0.31085 0.28539
# Poissons Ratio (y) = 0.31085 0.28539
# Poissons Ratio (z) = 0.28381 0.28381
#
# Static dielectric constant tensor:
#      x y z
#    x 3.123670 0.000000 0.000000 
#    y 0.000000 3.123670 0.000000 
#    z 0.000000 0.000000 3.074030 
# 
# 
# High freq. dielectric constant tensor:
#      x y z
#    x 1.621940 0.000000 0.000000 
#    y 0.000000 1.621940 0.000000 
#    z 0.000000 0.000000 1.642440 
# 
# From -- ./inp_files/6436.got.cif
#   From: 2010.03.12/outbox.cif.g09.slc.cpg/sg132_4_cif.got.tgz:6436.got - 2010.04.06 17:53:44.
