data_PCOD8316009
_publ_section_title
;
Structure prediction by ZEFSAII (Michael W. Deem and Ramdas Pophale) SiO2 
 PCOD8316009
Probable space group: P 42/M M C
;
_chemical_formula_sum "Si O2"
_cell_formula_units_Z 84
_cell_length_a 15.568224
_cell_length_b 15.568224
_cell_length_c 20.280657
_cell_angle_alpha 90.000000
_cell_angle_beta 90.000000
_cell_angle_gamma 90.000000
_cell_volume 4915.414695
_symmetry_space_group_name_H-M "P 42/M M C"
_symmetry_group_IT_number 131
_symmetry_cell_setting 'tetragonal'
loop_
_space_group_symop_operation_xyz
x,y,z
-x,-y,z
-y,x,1/2+z
y,-x,1/2+z
-x,y,-z
x,-y,-z
y,x,1/2-z
-y,-x,1/2-z
-x,-y,-z
x,y,-z
y,-x,1/2-z
-y,x,1/2-z
x,-y,z
-x,y,z
-y,-x,1/2+z
y,x,1/2+z
loop_
_atom_site_type_symbol
_atom_site_label
_atom_site_fract_x
_atom_site_fract_y
_atom_site_fract_z
Si Si1 0.600951 0.312574 0.188875
Si Si2 0.187691 0.000000 0.372574
Si Si3 0.598177 0.296826 0.424717
Si Si4 0.000000 0.000000 0.149276
Si Si5 0.827035 0.256176 0.074847
Si Si6 0.000000 0.190210 0.716877
Si Si7 0.733685 0.175215 0.809502
O O1 0.628291 0.371709 0.250000
O O2 0.500000 0.303856 0.185792
O O3 0.633373 0.356670 0.121741
O O4 0.638523 0.215693 0.198475
O O5 0.244461 0.077882 0.398248
O O6 0.178314 0.000000 0.294575
O O7 0.086958 0.000000 0.396077
O O8 0.604814 0.330598 0.500000
O O9 0.500000 0.283540 0.402856
O O10 0.644736 0.203880 0.418259
O O11 0.908202 0.000000 0.189502
O O12 0.763981 0.199081 0.117703
O O13 0.821475 0.223730 0.000000
O O14 0.925698 0.254286 0.693419
O O15 0.790994 0.209007 0.750000
#
# Coordination Sequence:
#
# PCOD8316009 Si02
#       7
#    16   8  16   4  16   8  16
#     4  10  21  35  54  80 108 138 172 218 272 318
#     4  12  20  32  51  78 106 137 175 221 263 302
#     4   9  19  36  57  79 106 141 176 212 260 319
#     4  12  21  30  55  84 105 130 181 230 253 302
#     4  10  20  34  51  76 110 141 171 215 266 313
#     4  12  19  33  55  79 102 140 184 220 254 305
#     4  10  19  35  54  72 103 144 180 211 260 326
#
# _framework density 17.089096999999999
#
# number of rings (size 3 to 8) (size 9 to 14) (size 15 to 20)
#    0.000    1.714    3.810    1.714    0.000    1.714 
#    0.000    4.286    0.000    3.429    0.000    0.000 
#    0.000    6.095    0.000    0.000    0.000    0.000 
#
# Total GULP energy -1040684.841672 kJ/mol
# GULP energy per Si atom -12389.105258 kJ/mol
# Density = 1.705020 g / cm^3
# Si number density = 17.089097 Si / 1000 Ang^3
#
#
#
# Elastic Constant Matrix: (Units=GPa)
#
#
# Indices 1 2 3 4 5 6 
#
# 1 131.3783 75.4271 38.7089 0.0000 0.0000 0.0000
# 2 75.4271 131.3783 38.7093 0.0000 0.0000 0.0000
# 3 38.7089 38.7093 80.7570 0.0000 0.0000 0.0000
# 4 0.0000 0.0000 0.0000 22.1512 0.0000 0.0000
# 5 0.0000 0.0000 0.0000 0.0000 22.1516 0.0000
# 6 0.0000 0.0000 0.0000 0.0000 0.0000 15.5574
#
#
#
# Elastic Compliance Matrix: (Units=1/GPa)
#
#
# Indices 1 2 3 4 5 6 
#
# 1 0.011883 -0.005990 -0.002825 0.000000 0.000000 0.000000
# 2 -0.005990 0.011883 -0.002825 0.000000 0.000000 0.000000
# 3 -0.002825 -0.002825 0.015091 0.000000 0.000000 0.000000
# 4 0.000000 0.000000 0.000000 0.045144 0.000000 0.000000
# 5 0.000000 0.000000 0.000000 0.000000 0.045143 0.000000
# 6 0.000000 0.000000 0.000000 0.000000 0.000000 0.064278
#
#
# Mechanical properties :
#
#
# Convention : Reuss Voigt Hill
#
# Bulk Modulus (GPa) = 64.19339 72.13381 68.16360
# Shear Modulus (GPa) = 22.53337 24.68326 23.60831
#
# Velocity S-wave (km/s) = 3.63517 3.80463 3.72086
# Velocity P-wave (km/s) = 7.43403 7.84872 7.64418
#
# Compressibility (1/GPa) = 0.01557793
#
# Stress axis : x y z
#
# Youngs Moduli (GPa) = 84.15545 84.15513 66.26618
#
# Poissons Ratio (x) = 0.50408 0.18717
# Poissons Ratio (y) = 0.50409 0.18718
# Poissons Ratio (z) = 0.23770 0.23771
#
# Static dielectric constant tensor:
#      x y z
#    x 3.318330 0.000000 0.000000 
#    y 0.000000 3.318330 0.000000 
#    z 0.000000 0.000000 3.423150 
# 
# 
# High freq. dielectric constant tensor:
#      x y z
#    x 1.650700 0.000000 0.000000 
#    y 0.000000 1.650700 0.000000 
#    z 0.000000 0.000000 1.671180 
# 
# From -- ./inp_files/9626.got.cif
#   From: 2010.03.12/outbox.cif.g09.slc.cpg/sg131_5_cif.got.tgz:9626.got - 2010.04.06 17:36:35.
