data_PCOD8316321
_publ_section_title
;
Structure prediction by ZEFSAII (Michael W. Deem and Ramdas Pophale) SiO2 
 PCOD8316321
Probable space group: P 42/M M C
;
_chemical_formula_sum "Si O2"
_cell_formula_units_Z 48
_cell_length_a 12.274396
_cell_length_b 12.274396
_cell_length_c 16.703252
_cell_angle_alpha 90.000000
_cell_angle_beta 90.000000
_cell_angle_gamma 90.000000
_cell_volume 2516.525262
_symmetry_space_group_name_H-M "P 42/M M C"
_symmetry_group_IT_number 131
_symmetry_cell_setting 'tetragonal'
loop_
_space_group_symop_operation_xyz
x,y,z
-x,-y,z
-y,x,1/2+z
y,-x,1/2+z
-x,y,-z
x,-y,-z
y,x,1/2-z
-y,-x,1/2-z
-x,-y,-z
x,y,-z
y,-x,1/2-z
-y,x,1/2-z
x,-y,z
-x,y,z
-y,-x,1/2+z
y,x,1/2+z
loop_
_atom_site_type_symbol
_atom_site_label
_atom_site_fract_x
_atom_site_fract_y
_atom_site_fract_z
Si Si1 0.120199 0.879184 0.154664
Si Si2 0.870636 0.500000 0.904880
Si Si3 0.500000 0.379791 0.906785
Si Si4 0.274185 0.695388 0.843620
O O1 0.122076 0.877925 0.250000
O O2 0.216185 0.803149 0.121124
O O3 0.000000 0.839637 0.125596
O O4 0.142686 0.000000 0.121742
O O5 0.811277 0.398734 0.863999
O O6 0.000000 0.500000 0.885019
O O7 0.850184 0.500000 0.000000
O O8 0.500000 0.500000 0.865564
O O9 0.608447 0.315471 0.883735
O O10 0.500000 0.396058 0.000000
O O11 0.296027 0.703974 0.750000
#
# Coordination Sequence:
#
# PCOD8316321 Si02
#       4
#    16   8   8  16
#     4   8  15  30  53  82 115 145 175 222 285 343
#     4  11  23  39  61  89 122 156 196 252 310 360
#     4  11  23  38  55  73 108 155 188 225 285 348
#     4  11  21  35  58  88 115 149 194 245 290 348
#
# _framework density 19.073919
#
# number of rings (size 3 to 8) (size 9 to 14) (size 15 to 20)
#    0.000    2.000    1.667    4.000    0.000    1.333 
#    0.000    0.833    0.000    5.000    0.000   11.667 
#    0.000    0.000    0.000    0.000    0.000    0.000 
#
# Total GULP energy -594864.850528 kJ/mol
# GULP energy per Si atom -12393.017719 kJ/mol
# Density = 1.903051 g / cm^3
# Si number density = 19.073919 Si / 1000 Ang^3
#
#
#
# Elastic Constant Matrix: (Units=GPa)
#
#
# Indices 1 2 3 4 5 6 
#
# 1 171.9871 105.8601 36.2310 0.0000 0.0000 0.0000
# 2 105.8601 171.9872 36.2310 0.0000 0.0000 0.0000
# 3 36.2310 36.2310 62.8668 0.0000 0.0000 0.0000
# 4 0.0000 0.0000 0.0000 -6.7872 0.0000 0.0000
# 5 0.0000 0.0000 0.0000 0.0000 -6.7723 0.0000
# 6 0.0000 0.0000 0.0000 0.0000 0.0000 16.2173
#
#
#
# Elastic Compliance Matrix: (Units=1/GPa)
#
#
# Indices 1 2 3 4 5 6 
#
# 1 0.009679 -0.005443 -0.002441 0.000000 0.000000 0.000000
# 2 -0.005443 0.009679 -0.002441 0.000000 0.000000 0.000000
# 3 -0.002441 -0.002441 0.018720 0.000000 0.000000 0.000000
# 4 0.000000 0.000000 0.000000 -0.147337 0.000000 0.000000
# 5 0.000000 0.000000 0.000000 0.000000 -0.147660 0.000000
# 6 0.000000 0.000000 0.000000 0.000000 0.000000 0.061662
#
#
# Mechanical properties :
#
#
# Convention : Reuss Voigt Hill
#
# Bulk Modulus (GPa) = 57.38102 84.83168 71.10635
# Shear Modulus (GPa) = -29.62164 15.76617 -6.92774
#
# Velocity S-wave (km/s) = -3.94508 2.87815 -1.90786
# Velocity P-wave (km/s) = 3.06550 7.45767 5.70150
#
# Compressibility (1/GPa) = 0.01742737
#
# Stress axis : x y z
#
# Youngs Moduli (GPa) = 103.31566 103.31578 53.41781
#
# Poissons Ratio (x) = 0.56238 0.13040
# Poissons Ratio (y) = 0.56238 0.13040
# Poissons Ratio (z) = 0.25221 0.25220
#
# Static dielectric constant tensor:
#      x y z
#    x 3.872220 0.000000 0.000000 
#    y 0.000000 3.872240 0.000000 
#    z 0.000000 0.000000 3.211090 
# 
# 
# High freq. dielectric constant tensor:
#      x y z
#    x 1.753740 0.000000 0.000000 
#    y 0.000000 1.753740 0.000000 
#    z 0.000000 0.000000 1.715420 
# 
# From -- ./inp_files/7033.got.cif
#   From: 2010.03.12/outbox.cif.g09.slc.cpg/sg131_4_cif.got.tgz:7033.got - 2010.04.06 17:36:35.
