data_PCOD8316352
_publ_section_title
;
Structure prediction by ZEFSAII (Michael W. Deem and Ramdas Pophale) SiO2 
 PCOD8316352
Probable space group: P 42/M M C
;
_chemical_formula_sum "Si O2"
_cell_formula_units_Z 88
_cell_length_a 17.921137
_cell_length_b 17.921137
_cell_length_c 14.436124
_cell_angle_alpha 90.000000
_cell_angle_beta 90.000000
_cell_angle_gamma 90.000000
_cell_volume 4636.408822
_symmetry_space_group_name_H-M "P 42/M M C"
_symmetry_group_IT_number 131
_symmetry_cell_setting 'tetragonal'
loop_
_space_group_symop_operation_xyz
x,y,z
-x,-y,z
-y,x,1/2+z
y,-x,1/2+z
-x,y,-z
x,-y,-z
y,x,1/2-z
-y,-x,1/2-z
-x,-y,-z
x,y,-z
y,-x,1/2-z
-y,x,1/2-z
x,-y,z
-x,y,z
-y,-x,1/2+z
y,x,1/2+z
loop_
_atom_site_type_symbol
_atom_site_label
_atom_site_fract_x
_atom_site_fract_y
_atom_site_fract_z
Si Si1 0.791192 0.085235 0.249980
Si Si2 0.671360 0.328641 0.250000
Si Si3 0.820899 0.585681 0.250071
Si Si4 0.335240 0.913272 0.605784
Si Si5 0.583084 0.415988 0.605381
Si Si6 0.335327 0.086748 0.894239
O O1 0.863547 0.136454 0.250000
O O2 0.742615 0.101692 0.341731
O O3 0.742428 0.101840 0.158396
O O4 0.819070 0.000000 0.249788
O O5 0.650503 0.241972 0.249592
O O6 0.637618 0.361706 0.342881
O O7 0.790609 0.500000 0.249598
O O8 0.869505 0.598198 0.157430
O O9 0.869596 0.597940 0.342719
O O10 0.328013 0.885317 0.500000
O O11 0.356277 0.000000 0.610175
O O12 0.581353 0.389897 0.500000
O O13 0.613178 0.500000 0.614234
O O14 0.500000 0.410313 0.648156
O O15 0.356240 0.000000 0.890013
O O16 0.328083 0.114818 0.000000
#
# Coordination Sequence:
#
# PCOD8316352 Si02
#       6
#    16   8  16  16  16  16
#     4   9  18  33  55  86 121 157 196 234 274 329
#     4  12  24  37  52  78 116 150 173 218 284 338
#     4  11  24  38  56  86 116 144 188 237 282 340
#     4   9  20  39  61  84 111 148 191 234 286 341
#     4   9  18  34  56  76  96 136 190 229 262 315
#     4   9  20  39  61  84 111 148 191 234 286 341
#
# _framework density 18.980208000000001
#
# number of rings (size 3 to 8) (size 9 to 14) (size 15 to 20)
#    0.000    2.364    0.000    3.818    5.091    5.273 
#    0.000    1.818    0.000    0.000    0.000    5.091 
#    0.000    0.000    0.000    0.000    0.000    0.000 
#
# Total GULP energy -1091044.026030 kJ/mol
# GULP energy per Si atom -12398.227569 kJ/mol
# Density = 1.893701 g / cm^3
# Si number density = 18.980208 Si / 1000 Ang^3
#
#
#
# Elastic Constant Matrix: (Units=GPa)
#
#
# Indices 1 2 3 4 5 6 
#
# 1 84.7943 47.5676 42.0455 0.0000 0.0000 0.0000
# 2 47.5676 84.7953 42.0458 0.0000 0.0000 0.0000
# 3 42.0455 42.0458 152.7734 0.0000 0.0000 0.0000
# 4 0.0000 0.0000 0.0000 19.2527 0.0000 0.0000
# 5 0.0000 0.0000 0.0000 0.0000 19.2527 0.0000
# 6 0.0000 0.0000 0.0000 0.0000 0.0000 37.0168
#
#
#
# Elastic Compliance Matrix: (Units=1/GPa)
#
#
# Indices 1 2 3 4 5 6 
#
# 1 0.018009 -0.008853 -0.002520 0.000000 0.000000 0.000000
# 2 -0.008853 0.018009 -0.002520 0.000000 0.000000 0.000000
# 3 -0.002520 -0.002520 0.007933 0.000000 0.000000 0.000000
# 4 0.000000 0.000000 0.000000 0.051941 0.000000 0.000000
# 5 0.000000 0.000000 0.000000 0.000000 0.051941 0.000000
# 6 0.000000 0.000000 0.000000 0.000000 0.000000 0.027015
#
#
# Mechanical properties :
#
#
# Convention : Reuss Voigt Hill
#
# Bulk Modulus (GPa) = 61.86183 65.07564 63.46874
# Shear Modulus (GPa) = 24.03604 27.81803 25.92703
#
# Velocity S-wave (km/s) = 3.56248 3.83251 3.69996
# Velocity P-wave (km/s) = 7.04168 7.34470 7.19479
#
# Compressibility (1/GPa) = 0.01616506
#
# Stress axis : x y z
#
# Youngs Moduli (GPa) = 55.52751 55.52817 126.06128
#
# Poissons Ratio (x) = 0.49160 0.31766
# Poissons Ratio (y) = 0.49159 0.31766
# Poissons Ratio (z) = 0.13992 0.13992
#
# Static dielectric constant tensor:
#      x y z
#    x 3.361170 0.000000 0.000000 
#    y 0.000000 3.361180 0.000000 
#    z 0.000000 0.000000 3.746270 
# 
# 
# High freq. dielectric constant tensor:
#      x y z
#    x 1.727850 0.000000 0.000000 
#    y 0.000000 1.727850 0.000000 
#    z 0.000000 0.000000 1.746680 
# 
# From -- ./inp_files/5860.got.cif
#   From: 2010.03.12/outbox.cif.g09.slc.cpg/sg131_3_cif.got.tgz:5860.got - 2010.04.06 17:36:35.
