data_PCOD8316678
_publ_section_title
;
Structure prediction by ZEFSAII (Michael W. Deem and Ramdas Pophale) SiO2 
 PCOD8316678
Probable space group: P 42/M C M
;
_chemical_formula_sum "Si O2"
_cell_formula_units_Z 88
_cell_length_a 12.373643
_cell_length_b 12.373643
_cell_length_c 29.414165
_cell_angle_alpha 90.000000
_cell_angle_beta 90.000000
_cell_angle_gamma 90.000000
_cell_volume 4503.515769
_symmetry_space_group_name_H-M "P 42/M C M"
_symmetry_group_IT_number 132
_symmetry_cell_setting 'tetragonal'
loop_
_space_group_symop_operation_xyz
x,y,z
-y,x,1/2+z
-x,-y,z
y,-x,1/2+z
x,-y,1/2-z
-x,y,1/2-z
y,x,-z
-y,-x,-z
-x,-y,-z
y,-x,1/2-z
x,y,-z
-y,x,1/2-z
-x,y,1/2+z
x,-y,1/2+z
-y,-x,z
y,x,z
loop_
_atom_site_type_symbol
_atom_site_label
_atom_site_fract_x
_atom_site_fract_y
_atom_site_fract_z
Si Si1 0.775857 0.048832 0.551746
Si Si2 0.198421 0.364268 0.106391
Si Si3 0.882987 0.485011 0.179989
Si Si4 0.694115 0.136821 0.108765
Si Si5 0.314391 0.500000 0.750000
Si Si6 0.276154 0.548311 0.051406
O O1 0.762034 0.007388 0.500000
O O2 0.889560 0.110441 0.557016
O O3 0.675500 0.125940 0.564203
O O4 0.774261 0.953378 0.588611
O O5 0.265111 0.265111 0.128315
O O6 0.124342 0.415349 0.145145
O O7 0.284720 0.447530 0.085272
O O8 0.897645 0.373934 0.152616
O O9 0.770844 0.485099 0.208576
O O10 0.000000 0.500000 0.206175
O O11 0.764422 0.235579 0.126972
O O12 0.618865 0.173074 0.066733
O O13 0.393124 0.606877 0.745175
O O14 0.387353 0.612648 0.056335
O O15 0.257490 0.510389 0.000000
#
# Coordination Sequence:
#
# PCOD8316678 Si02
#       6
#    16  16  16  16   8  16
#     4  10  20  33  51  77 111 156 206 251 293 332
#     4  10  20  34  52  78 113 150 192 239 288 339
#     4  11  21  40  64  91 115 152 191 233 284 352
#     4  10  20  35  54  79 112 149 194 245 294 342
#     4  11  25  44  68  98 127 151 180 230 298 371
#     4   9  18  30  46  71 104 147 196 244 294 345
#
# _framework density 19.540289000000001
#
# number of rings (size 3 to 8) (size 9 to 14) (size 15 to 20)
#    0.000    1.909    1.818    2.455    0.000    3.636 
#    0.000    4.545    0.000    0.000    0.000    0.000 
#    0.000    2.909    0.000    0.000    0.000    0.000 
#
# Total GULP energy -1090151.643436 kJ/mol
# GULP energy per Si atom -12388.086857 kJ/mol
# Density = 1.949581 g / cm^3
# Si number density = 19.540289 Si / 1000 Ang^3
#
#
#
# Elastic Constant Matrix: (Units=GPa)
#
#
# Indices 1 2 3 4 5 6 
#
# 1 89.0754 40.3633 35.0627 0.0000 0.0000 0.0000
# 2 40.3633 89.0754 35.0627 0.0000 0.0000 0.0000
# 3 35.0627 35.0627 81.7297 0.0000 0.0000 0.0000
# 4 0.0000 0.0000 0.0000 26.8739 0.0000 0.0000
# 5 0.0000 0.0000 0.0000 0.0000 26.8739 0.0000
# 6 0.0000 0.0000 0.0000 0.0000 0.0000 20.8907
#
#
#
# Elastic Compliance Matrix: (Units=1/GPa)
#
#
# Indices 1 2 3 4 5 6 
#
# 1 0.015297 -0.005232 -0.004318 0.000000 0.000000 0.000000
# 2 -0.005232 0.015297 -0.004318 0.000000 0.000000 0.000000
# 3 -0.004318 -0.004318 0.015940 0.000000 0.000000 0.000000
# 4 0.000000 0.000000 0.000000 0.037211 0.000000 0.000000
# 5 0.000000 0.000000 0.000000 0.000000 0.037211 0.000000
# 6 0.000000 0.000000 0.000000 0.000000 0.000000 0.047868
#
#
# Mechanical properties :
#
#
# Convention : Reuss Voigt Hill
#
# Bulk Modulus (GPa) = 53.19581 53.42863 53.31222
# Shear Modulus (GPa) = 24.65171 24.88716 24.76944
#
# Velocity S-wave (km/s) = 3.55573 3.57267 3.56421
# Velocity P-wave (km/s) = 6.64382 6.66489 6.65437
#
# Compressibility (1/GPa) = 0.01879847
#
# Stress axis : x y z
#
# Youngs Moduli (GPa) = 65.37283 65.37283 62.73399
#
# Poissons Ratio (x) = 0.34202 0.27088
# Poissons Ratio (y) = 0.34202 0.27088
# Poissons Ratio (z) = 0.28228 0.28228
#
# Static dielectric constant tensor:
#      x y z
#    x 3.653140 0.000000 0.000000 
#    y 0.000000 3.653140 0.000000 
#    z 0.000000 0.000000 3.374270 
# 
# 
# High freq. dielectric constant tensor:
#      x y z
#    x 1.765250 0.000000 0.000000 
#    y 0.000000 1.765250 0.000000 
#    z 0.000000 0.000000 1.736750 
# 
# From -- ./inp_files/10800.got.cif
#   From: 2010.03.12/outbox.cif.g09.slc.cpg/sg132_6_cif.got.tgz:10800.got - 2010.04.06 17:53:44.
