data_PCOD8316431
_publ_section_title
;
Structure prediction by ZEFSAII (Michael W. Deem and Ramdas Pophale) SiO2 
 PCOD8316431
Probable space group: P 42/M C M
;
_chemical_formula_sum "Si O2"
_cell_formula_units_Z 80
_cell_length_a 11.631878
_cell_length_b 11.631878
_cell_length_c 30.245890
_cell_angle_alpha 90.000000
_cell_angle_beta 90.000000
_cell_angle_gamma 90.000000
_cell_volume 4092.286635
_symmetry_space_group_name_H-M "P 42/M C M"
_symmetry_group_IT_number 132
_symmetry_cell_setting 'tetragonal'
loop_
_space_group_symop_operation_xyz
x,y,z
-y,x,1/2+z
-x,-y,z
y,-x,1/2+z
x,-y,1/2-z
-x,y,1/2-z
y,x,-z
-y,-x,-z
-x,-y,-z
y,-x,1/2-z
x,y,-z
-y,x,1/2-z
-x,y,1/2+z
x,-y,1/2+z
-y,-x,z
y,x,z
loop_
_atom_site_type_symbol
_atom_site_label
_atom_site_fract_x
_atom_site_fract_y
_atom_site_fract_z
Si Si1 0.679857 0.320144 0.547885
Si Si2 0.920381 0.593270 0.925613
Si Si3 0.405652 0.594349 0.358503
Si Si4 0.315338 0.983432 0.200157
Si Si5 0.835933 0.514439 0.166309
Si Si6 0.816712 0.998720 0.383560
O O1 0.633639 0.366362 0.500000
O O2 0.816070 0.349814 0.547342
O O3 0.623797 0.376204 0.590711
O O4 0.874601 0.516781 0.884685
O O5 0.001589 0.697707 0.909907
O O6 0.000000 0.500000 0.952576
O O7 0.500000 0.500000 0.361720
O O8 0.299301 0.541190 0.331333
O O9 0.384466 0.099900 0.191535
O O10 0.204963 0.977678 0.168539
O O11 0.271809 0.000000 0.250000
O O12 0.394413 0.870385 0.190072
O O13 0.878469 0.121532 0.389687
O O14 0.896708 0.896708 0.402096
#
# Coordination Sequence:
#
# PCOD8316431 Si02
#       6
#     8  16   8  16  16  16
#     4  10  22  37  59  90 118 147 185 232 292 351
#     4  10  17  35  60  83 108 147 194 230 267 335
#     4  10  22  37  58  81 113 148 184 233 275 346
#     4  10  19  33  56  76 108 145 188 243 284 333
#     4   9  17  33  55  77  99 144 194 225 270 322
#     4  10  20  34  53  80 111 145 187 234 281 334
#
# _framework density 19.548974999999999
#
# number of rings (size 3 to 8) (size 9 to 14) (size 15 to 20)
#    0.000    2.200    5.000    1.200    4.200    2.200 
#    0.000    1.000    6.600    1.200    0.000    0.000 
#    0.000    0.000    0.000    0.000    0.000    0.000 
#
# Total GULP energy -991140.864927 kJ/mol
# GULP energy per Si atom -12389.260812 kJ/mol
# Density = 1.950448 g / cm^3
# Si number density = 19.548975 Si / 1000 Ang^3
#
#
#
# Elastic Constant Matrix: (Units=GPa)
#
#
# Indices 1 2 3 4 5 6 
#
# 1 116.5694 62.0343 17.6551 0.0000 0.0000 0.0000
# 2 62.0343 116.5692 17.6550 0.0000 0.0000 0.0000
# 3 17.6551 17.6550 59.8121 0.0000 0.0000 0.0000
# 4 0.0000 0.0000 0.0000 39.1773 0.0000 0.0000
# 5 0.0000 0.0000 0.0000 0.0000 39.1766 0.0000
# 6 0.0000 0.0000 0.0000 0.0000 0.0000 25.9169
#
#
#
# Elastic Compliance Matrix: (Units=1/GPa)
#
#
# Indices 1 2 3 4 5 6 
#
# 1 0.012141 -0.006195 -0.001755 0.000000 0.000000 0.000000
# 2 -0.006195 0.012141 -0.001755 0.000000 0.000000 0.000000
# 3 -0.001755 -0.001755 0.017755 0.000000 0.000000 0.000000
# 4 0.000000 0.000000 0.000000 0.025525 0.000000 0.000000
# 5 0.000000 0.000000 0.000000 0.000000 0.025525 0.000000
# 6 0.000000 0.000000 0.000000 0.000000 0.000000 0.038585
#
#
# Mechanical properties :
#
#
# Convention : Reuss Voigt Hill
#
# Bulk Modulus (GPa) = 44.19559 54.18216 49.18887
# Shear Modulus (GPa) = 31.52053 33.89458 32.70756
#
# Velocity S-wave (km/s) = 4.01981 4.16844 4.09480
# Velocity P-wave (km/s) = 6.64845 7.13752 6.89732
#
# Compressibility (1/GPa) = 0.02262669
#
# Stress axis : x y z
#
# Youngs Moduli (GPa) = 82.36276 82.36267 56.32168
#
# Poissons Ratio (x) = 0.51027 0.09885
# Poissons Ratio (y) = 0.51027 0.09885
# Poissons Ratio (z) = 0.14456 0.14455
#
# Static dielectric constant tensor:
#      x y z
#    x 3.588560 0.000000 0.000000 
#    y 0.000000 3.588560 0.000000 
#    z 0.000000 0.000000 3.353570 
# 
# 
# High freq. dielectric constant tensor:
#      x y z
#    x 1.756050 0.000000 0.000000 
#    y 0.000000 1.756050 0.000000 
#    z 0.000000 0.000000 1.732110 
# 
# From -- ./inp_files/10694.got.cif
#   From: 2010.03.12/outbox.cif.g09.slc.cpg/sg132_6_cif.got.tgz:10694.got - 2010.04.06 17:53:44.
