data_PCOD8316048
_publ_section_title
;
Structure prediction by ZEFSAII (Michael W. Deem and Ramdas Pophale) SiO2 
 PCOD8316048
Probable space group: P 42/M M C
;
_chemical_formula_sum "Si O2"
_cell_formula_units_Z 112
_cell_length_a 22.005146
_cell_length_b 22.005146
_cell_length_c 18.660609
_cell_angle_alpha 90.000000
_cell_angle_beta 90.000000
_cell_angle_gamma 90.000000
_cell_volume 9035.960460
_symmetry_space_group_name_H-M "P 42/M M C"
_symmetry_group_IT_number 131
_symmetry_cell_setting 'tetragonal'
loop_
_space_group_symop_operation_xyz
x,y,z
-x,-y,z
-y,x,1/2+z
y,-x,1/2+z
-x,y,-z
x,-y,-z
y,x,1/2-z
-y,-x,1/2-z
-x,-y,-z
x,y,-z
y,-x,1/2-z
-y,x,1/2-z
x,-y,z
-x,y,z
-y,-x,1/2+z
y,x,1/2+z
loop_
_atom_site_type_symbol
_atom_site_label
_atom_site_fract_x
_atom_site_fract_y
_atom_site_fract_z
Si Si1 0.500000 0.927674 0.657541
Si Si2 0.726213 0.927537 0.155151
Si Si3 0.606697 0.927626 0.079798
Si Si4 0.071329 0.726608 0.814322
Si Si5 0.072500 0.622615 0.918690
Si Si6 0.071918 0.152519 0.419495
Si Si7 0.928914 0.865714 0.183617
Si Si8 0.927529 0.500000 0.680062
O O1 0.440152 0.903775 0.616445
O O2 0.500000 0.902033 0.738948
O O3 0.500000 0.000000 0.659367
O O4 0.673090 0.904348 0.103000
O O5 0.713502 0.902206 0.234944
O O6 0.790368 0.902693 0.125880
O O7 0.728854 0.000000 0.156604
O O8 0.558426 0.902577 0.137185
O O9 0.604689 0.000000 0.079231
O O10 0.592176 0.902867 0.000000
O O11 0.098903 0.679481 0.872469
O O12 0.086602 0.795870 0.834109
O O13 0.000000 0.715427 0.812580
O O14 0.000000 0.623337 0.919241
O O15 0.097321 0.627678 0.000000
O O16 0.096115 0.158734 0.500000
O O17 0.096927 0.089874 0.386657
O O18 0.000000 0.150276 0.417435
O O19 0.889951 0.889951 0.250000
O O20 0.000000 0.874739 0.200914
O O21 0.000000 0.500000 0.681829
#
# Coordination Sequence:
#
# PCOD8316048 Si02
#       8
#     8  16  16  16  16  16  16   8
#     4   9  15  23  35  51  71  97 119 135 153 177
#     4   9  15  26  40  52  65  83 107 131 158 199
#     4   9  15  21  31  47  67  89 108 130 158 184
#     4   9  17  28  42  55  68  86 108 132 162 202
#     4   9  16  25  37  54  74  93 113 135 158 187
#     4  10  20  32  44  57  70  83 104 136 174 220
#     4  11  21  33  46  58  70  87 109 137 177 226
#     4   9  15  21  29  45  69  91 115 135 149 177
#
# _framework density 12.394920000000001
#
# number of rings (size 3 to 8) (size 9 to 14) (size 15 to 20)
#    0.000    2.571    1.429    2.143    0.000    8.714 
#    0.000    2.143    0.000    0.000    0.000    0.000 
#    0.000    0.000    0.000    0.000    0.000    0.000 
#
# Total GULP energy -1388232.022878 kJ/mol
# GULP energy per Si atom -12394.928776 kJ/mol
# Density = 1.236671 g / cm^3
# Si number density = 12.394920 Si / 1000 Ang^3
#
#
#
# Elastic Constant Matrix: (Units=GPa)
#
#
# Indices 1 2 3 4 5 6 
#
# 1 37.0330 20.6257 30.2827 0.0000 0.0000 0.0000
# 2 20.6257 37.0330 30.2827 0.0000 0.0000 0.0000
# 3 30.2827 30.2827 119.5223 0.0000 0.0000 0.0000
# 4 0.0000 0.0000 0.0000 16.6724 0.0000 0.0000
# 5 0.0000 0.0000 0.0000 0.0000 16.6724 0.0000
# 6 0.0000 0.0000 0.0000 0.0000 0.0000 0.3453
#
#
#
# Elastic Compliance Matrix: (Units=1/GPa)
#
#
# Indices 1 2 3 4 5 6 
#
# 1 0.042291 -0.018658 -0.005988 0.000000 0.000000 0.000000
# 2 -0.018658 0.042291 -0.005988 0.000000 0.000000 0.000000
# 3 -0.005988 -0.005988 0.011401 0.000000 0.000000 0.000000
# 4 0.000000 0.000000 0.000000 0.059979 0.000000 0.000000
# 5 0.000000 0.000000 0.000000 0.000000 0.059979 0.000000
# 6 0.000000 0.000000 0.000000 0.000000 0.000000 2.896233
#
#
# Mechanical properties :
#
#
# Convention : Reuss Voigt Hill
#
# Bulk Modulus (GPa) = 28.80531 39.55229 34.17880
# Shear Modulus (GPa) = 1.56985 14.23119 7.90052
#
# Velocity S-wave (km/s) = 1.12662 3.39211 2.52742
# Velocity P-wave (km/s) = 4.99824 6.87904 6.01264
#
# Compressibility (1/GPa) = 0.03471582
#
# Stress axis : x y z
#
# Youngs Moduli (GPa) = 23.64585 23.64585 87.71307
#
# Poissons Ratio (x) = 0.44118 0.52521
# Poissons Ratio (y) = 0.44118 0.52521
# Poissons Ratio (z) = 0.14159 0.14159
#
# Static dielectric constant tensor:
#      x y z
#    x 2.323730 0.000000 0.000000 
#    y 0.000000 2.323730 0.000000 
#    z 0.000000 0.000000 2.851550 
# 
# 
# High freq. dielectric constant tensor:
#      x y z
#    x 1.425390 0.000000 0.000000 
#    y 0.000000 1.425390 0.000000 
#    z 0.000000 0.000000 1.493620 
# 
# From -- ./inp_files/8384.got.cif
#   From: 2010.03.12/outbox.cif.g09.slc.cpg/sg131_5_cif.got.tgz:8384.got - 2010.04.06 17:36:35.
