data_PCOD8316556
_publ_section_title
;
Structure prediction by ZEFSAII (Michael W. Deem and Ramdas Pophale) SiO2 
 PCOD8316556
Probable space group: P 42/M C M
;
_chemical_formula_sum "Si O2"
_cell_formula_units_Z 96
_cell_length_a 24.240859
_cell_length_b 24.240859
_cell_length_c 8.862061
_cell_angle_alpha 90.000000
_cell_angle_beta 90.000000
_cell_angle_gamma 90.000000
_cell_volume 5207.517594
_symmetry_space_group_name_H-M "P 42/M C M"
_symmetry_group_IT_number 132
_symmetry_cell_setting 'tetragonal'
loop_
_space_group_symop_operation_xyz
x,y,z
-y,x,1/2+z
-x,-y,z
y,-x,1/2+z
x,-y,1/2-z
-x,y,1/2-z
y,x,-z
-y,-x,-z
-x,-y,-z
y,-x,1/2-z
x,y,-z
-y,x,1/2-z
-x,y,1/2+z
x,-y,1/2+z
-y,-x,z
y,x,z
loop_
_atom_site_type_symbol
_atom_site_label
_atom_site_fract_x
_atom_site_fract_y
_atom_site_fract_z
Si Si1 0.766602 0.443687 0.821310
Si Si2 0.851643 0.644443 0.677650
Si Si3 0.231253 0.858308 0.178065
Si Si4 0.059400 0.850399 0.677018
Si Si5 0.555297 0.357992 0.177699
Si Si6 0.941075 0.556157 0.321144
O O1 0.790416 0.500000 0.750000
O O2 0.799632 0.390445 0.760347
O O3 0.704160 0.434428 0.767556
O O4 0.772955 0.449262 0.000000
O O5 0.846233 0.650358 0.500000
O O6 0.852587 0.706514 0.744627
O O7 0.905600 0.609731 0.722644
O O8 0.197361 0.802640 0.217843
O O9 0.203678 0.911230 0.255809
O O10 0.231457 0.869122 0.000000
O O11 0.052435 0.841645 0.500000
O O12 0.095685 0.904316 0.714883
O O13 0.000000 0.859094 0.750000
O O14 0.500000 0.382478 0.250000
O O15 0.606496 0.393505 0.236701
O O16 0.549040 0.361232 0.000000
O O17 0.915586 0.500000 0.250000
O O18 0.945033 0.548114 0.500000
O O19 0.000000 0.567679 0.250000
#
# Coordination Sequence:
#
# PCOD8316556 Si02
#       6
#    16  16  16  16  16  16
#     4   9  17  31  49  69  95 124 158 203 251 297
#     4   9  18  31  50  75  98 125 164 205 242 289
#     4   9  18  34  54  75 102 135 169 205 247 293
#     4  10  21  37  57  81 109 139 170 206 247 289
#     4   9  18  31  47  68  93 122 156 195 241 293
#     4  10  19  32  48  68  97 127 159 198 241 287
#
# _framework density 18.434887
#
# number of rings (size 3 to 8) (size 9 to 14) (size 15 to 20)
#    0.000    2.667    0.000    2.000    0.000    3.000 
#    0.000   10.000    0.000    0.000    0.000    2.333 
#    0.000    0.000    0.000    0.000    0.000    0.000 
#
# Total GULP energy -1190152.882283 kJ/mol
# GULP energy per Si atom -12397.425857 kJ/mol
# Density = 1.839293 g / cm^3
# Si number density = 18.434887 Si / 1000 Ang^3
#
#
#
# Elastic Constant Matrix: (Units=GPa)
#
#
# Indices 1 2 3 4 5 6 
#
# 1 151.5686 81.2446 38.5844 0.0000 0.0000 0.0000
# 2 81.2446 151.5686 38.5844 0.0000 0.0000 0.0000
# 3 38.5844 38.5844 44.0320 0.0000 0.0000 0.0000
# 4 0.0000 0.0000 0.0000 21.7822 0.0000 0.0000
# 5 0.0000 0.0000 0.0000 0.0000 21.7822 0.0000
# 6 0.0000 0.0000 0.0000 0.0000 0.0000 23.9111
#
#
#
# Elastic Compliance Matrix: (Units=1/GPa)
#
#
# Indices 1 2 3 4 5 6 
#
# 1 0.010137 -0.004083 -0.005305 0.000000 0.000000 0.000000
# 2 -0.004083 0.010137 -0.005305 0.000000 0.000000 0.000000
# 3 -0.005305 -0.005305 0.032007 0.000000 0.000000 0.000000
# 4 0.000000 0.000000 0.000000 0.045909 0.000000 0.000000
# 5 0.000000 0.000000 0.000000 0.000000 0.045909 0.000000
# 6 0.000000 0.000000 0.000000 0.000000 0.000000 0.041822
#
#
# Mechanical properties :
#
#
# Convention : Reuss Voigt Hill
#
# Bulk Modulus (GPa) = 43.67560 73.77732 58.72646
# Shear Modulus (GPa) = 22.42781 26.07881 24.25331
#
# Velocity S-wave (km/s) = 3.49176 3.76526 3.63108
# Velocity P-wave (km/s) = 6.32453 7.68181 7.03598
#
# Compressibility (1/GPa) = 0.02289608
#
# Stress axis : x y z
#
# Youngs Moduli (GPa) = 98.65107 98.65107 31.24274
#
# Poissons Ratio (x) = 0.40281 0.16573
# Poissons Ratio (y) = 0.40281 0.16573
# Poissons Ratio (z) = 0.52331 0.52331
#
# Static dielectric constant tensor:
#      x y z
#    x 3.661860 0.000000 0.000000 
#    y 0.000000 3.661860 0.000000 
#    z 0.000000 0.000000 3.224160 
# 
# 
# High freq. dielectric constant tensor:
#      x y z
#    x 1.719940 0.000000 0.000000 
#    y 0.000000 1.719940 0.000000 
#    z 0.000000 0.000000 1.696340 
# 
# From -- ./inp_files/1715.got.cif
#   From: 2010.03.12/outbox.cif.g09.slc.cpg/sg132_1_cif.got.tgz:1715.got - 2010.04.06 17:53:44.
