data_PCOD8316068
_publ_section_title
;
Structure prediction by ZEFSAII (Michael W. Deem and Ramdas Pophale) SiO2 
 PCOD8316068
Probable space group: P 42/M M C
;
_chemical_formula_sum "Si O2"
_cell_formula_units_Z 88
_cell_length_a 12.579553
_cell_length_b 12.579553
_cell_length_c 29.926009
_cell_angle_alpha 90.000000
_cell_angle_beta 90.000000
_cell_angle_gamma 90.000000
_cell_volume 4735.645893
_symmetry_space_group_name_H-M "P 42/M M C"
_symmetry_group_IT_number 131
_symmetry_cell_setting 'tetragonal'
loop_
_space_group_symop_operation_xyz
x,y,z
-x,-y,z
-y,x,1/2+z
y,-x,1/2+z
-x,y,-z
x,-y,-z
y,x,1/2-z
-y,-x,1/2-z
-x,-y,-z
x,y,-z
y,-x,1/2-z
-y,x,1/2-z
x,-y,z
-x,y,z
-y,-x,1/2+z
y,x,1/2+z
loop_
_atom_site_type_symbol
_atom_site_label
_atom_site_fract_x
_atom_site_fract_y
_atom_site_fract_z
Si Si1 0.122029 0.730499 0.374363
Si Si2 0.665377 0.621966 0.375985
Si Si3 0.814517 0.880440 0.296327
Si Si4 0.882989 0.125810 0.049048
Si Si5 0.618953 0.741810 0.287234
Si Si6 0.374863 0.500000 0.949561
O O1 0.205655 0.633749 0.375676
O O2 0.127155 0.798649 0.329266
O O3 0.167981 0.802887 0.414144
O O4 0.000000 0.690567 0.381300
O O5 0.638104 0.500000 0.367328
O O6 0.616701 0.688593 0.335650
O O7 0.606434 0.659598 0.421817
O O8 0.878075 0.878075 0.250000
O O9 0.692414 0.846518 0.288102
O O10 0.818167 0.000000 0.315881
O O11 0.000000 0.174637 0.057498
O O12 0.890400 0.000000 0.052762
O O13 0.841579 0.159653 0.000000
O O14 0.659834 0.659834 0.250000
O O15 0.500000 0.777740 0.274357
O O16 0.500000 0.500000 0.955593
O O17 0.323694 0.500000 0.000000
#
# Coordination Sequence:
#
# PCOD8316068 Si02
#       6
#    16  16  16  16  16   8
#     4  10  20  32  49  75 105 137 175 216 262 317
#     4  10  20  34  52  75 104 135 175 220 263 318
#     4  10  21  35  51  74 105 142 180 215 255 312
#     4   8  14  26  45  68  93 122 159 205 253 298
#     4  10  20  34  54  79 104 132 172 219 274 319
#     4   9  18  34  56  76  97 133 179 223 262 312
#
# _framework density 18.582471999999999
#
# number of rings (size 3 to 8) (size 9 to 14) (size 15 to 20)
#    0.000    2.455    0.909    2.182    0.000    4.364 
#    0.000    0.000    0.000    6.545    0.000    5.091 
#    0.000    5.818    0.000    0.000    0.000    0.000 
#
# Total GULP energy -1090656.236876 kJ/mol
# GULP energy per Si atom -12393.820874 kJ/mol
# Density = 1.854018 g / cm^3
# Si number density = 18.582472 Si / 1000 Ang^3
#
#
#
# Elastic Constant Matrix: (Units=GPa)
#
#
# Indices 1 2 3 4 5 6 
#
# 1 70.9855 18.4531 9.9866 0.0000 0.0000 0.0000
# 2 18.4531 70.9855 9.9866 0.0000 0.0000 0.0000
# 3 9.9866 9.9866 106.0984 0.0000 0.0000 0.0000
# 4 0.0000 0.0000 0.0000 23.6319 0.0000 0.0000
# 5 0.0000 0.0000 0.0000 0.0000 23.6319 0.0000
# 6 0.0000 0.0000 0.0000 0.0000 0.0000 8.4820
#
#
#
# Elastic Compliance Matrix: (Units=1/GPa)
#
#
# Indices 1 2 3 4 5 6 
#
# 1 0.015228 -0.003807 -0.001075 0.000000 0.000000 0.000000
# 2 -0.003807 0.015228 -0.001075 0.000000 0.000000 0.000000
# 3 -0.001075 -0.001075 0.009628 0.000000 0.000000 0.000000
# 4 0.000000 0.000000 0.000000 0.042316 0.000000 0.000000
# 5 0.000000 0.000000 0.000000 0.000000 0.042316 0.000000
# 6 0.000000 0.000000 0.000000 0.000000 0.000000 0.117897
#
#
# Mechanical properties :
#
#
# Convention : Reuss Voigt Hill
#
# Bulk Modulus (GPa) = 35.49951 36.10246 35.80098
# Shear Modulus (GPa) = 18.94535 25.12538 22.03536
#
# Velocity S-wave (km/s) = 3.19647 3.68108 3.44730
# Velocity P-wave (km/s) = 5.72437 6.12679 5.92900
#
# Compressibility (1/GPa) = 0.02816941
#
# Stress axis : x y z
#
# Youngs Moduli (GPa) = 65.66676 65.66676 103.86820
#
# Poissons Ratio (x) = 0.25002 0.11166
# Poissons Ratio (y) = 0.25002 0.11166
# Poissons Ratio (z) = 0.07059 0.07059
#
# Static dielectric constant tensor:
#      x y z
#    x 3.309800 0.000000 0.000000 
#    y 0.000000 3.309800 0.000000 
#    z 0.000000 0.000000 3.705940 
# 
# 
# High freq. dielectric constant tensor:
#      x y z
#    x 1.700500 0.000000 0.000000 
#    y 0.000000 1.700500 0.000000 
#    z 0.000000 0.000000 1.734270 
# 
# From -- ./inp_files/13567.got.cif
#   From: 2010.03.12/outbox.cif.g09.slc.cpg/sg131_7_cif.got.tgz:13567.got - 2010.04.06 17:36:35.
