data_PCOD8316941
_publ_section_title
;
Structure prediction by ZEFSAII (Michael W. Deem and Ramdas Pophale) SiO2 
 PCOD8316941
Probable space group: P 42/N B C
;
_chemical_formula_sum "Si O2"
_cell_formula_units_Z 56
_cell_length_a 19.726348
_cell_length_b 19.726348
_cell_length_c 7.444018
_cell_angle_alpha 90.000000
_cell_angle_beta 90.000000
_cell_angle_gamma 90.000000
_cell_volume 2896.681832
_symmetry_space_group_name_H-M "P 42/N B C"
_symmetry_group_IT_number 133
_space_group.IT_coordinate_system_code '2'
_symmetry_cell_setting 'tetragonal'
loop_
_space_group_symop_operation_xyz
x,y,z
1/2-y,x,1/2+z
1/2-x,1/2-y,z
y,1/2-x,1/2+z
x,1/2-y,-z
1/2-x,y,-z
y,x,1/2-z
1/2-y,1/2-x,1/2-z
-x,-y,-z
1/2+y,-x,1/2-z
1/2+x,1/2+y,-z
-y,1/2+x,1/2-z
-x,1/2+y,z
1/2+x,-y,z
-y,-x,1/2+z
1/2+y,1/2+x,1/2+z
loop_
_atom_site_type_symbol
_atom_site_label
_atom_site_fract_x
_atom_site_fract_y
_atom_site_fract_z
Si Si1 0.898609 0.989048 0.496274
Si Si2 0.792365 0.897238 0.669535
Si Si3 0.485263 0.607790 0.415808
Si Si4 0.250000 0.025841 0.000000
O O1 0.881710 0.993051 0.287743
O O2 0.916150 0.064151 0.572501
O O3 0.834396 0.962281 0.603091
O O4 0.959388 0.935265 0.528949
O O5 0.750000 0.868112 0.500000
O O6 0.837428 0.837428 0.750000
O O7 0.744103 0.925162 0.826832
O O8 0.479155 0.682347 0.505136
#
# Coordination Sequence:
#
# PCOD8316941 Si02
#       4
#    16  16  16   8
#     4  10  20  37  59  90 118 160 205 262 320 370
#     4  12  25  42  63  85 125 168 216 266 312 376
#     4  10  20  34  62  89 124 155 200 264 324 371
#     4  12  22  38  61  92 127 160 208 260 316 384
#
# _framework density 19.332464000000002
#
# number of rings (size 3 to 8) (size 9 to 14) (size 15 to 20)
#    0.000    1.143    5.714    1.714    4.000    1.143 
#    0.000    2.143    0.000    0.000    0.000    1.000 
#    0.000    0.000    0.000    0.000    0.000    0.000 
#
# Total GULP energy -694390.057926 kJ/mol
# GULP energy per Si atom -12399.822463 kJ/mol
# Density = 1.928846 g / cm^3
# Si number density = 19.332464 Si / 1000 Ang^3
#
#
#
# Elastic Constant Matrix: (Units=GPa)
#
#
# Indices 1 2 3 4 5 6 
#
# 1 106.6502 43.8504 38.6662 0.0000 0.0000 0.0000
# 2 43.8504 106.6502 38.6662 0.0000 0.0000 0.0000
# 3 38.6662 38.6662 103.1094 0.0000 0.0000 0.0000
# 4 0.0000 0.0000 0.0000 30.4679 0.0000 0.0000
# 5 0.0000 0.0000 0.0000 0.0000 30.4679 0.0000
# 6 0.0000 0.0000 0.0000 0.0000 0.0000 19.6073
#
#
#
# Elastic Compliance Matrix: (Units=1/GPa)
#
#
# Indices 1 2 3 4 5 6 
#
# 1 0.012077 -0.003847 -0.003086 0.000000 0.000000 0.000000
# 2 -0.003847 0.012077 -0.003086 0.000000 0.000000 0.000000
# 3 -0.003086 -0.003086 0.012013 0.000000 0.000000 0.000000
# 4 0.000000 0.000000 0.000000 0.032821 0.000000 0.000000
# 5 0.000000 0.000000 0.000000 0.000000 0.032821 0.000000
# 6 0.000000 0.000000 0.000000 0.000000 0.000000 0.051001
#
#
# Mechanical properties :
#
#
# Convention : Reuss Voigt Hill
#
# Bulk Modulus (GPa) = 62.00242 62.08614 62.04428
# Shear Modulus (GPa) = 28.05417 29.12374 28.58895
#
# Velocity S-wave (km/s) = 3.81352 3.88554 3.84970
# Velocity P-wave (km/s) = 7.17857 7.23288 7.20578
#
# Compressibility (1/GPa) = 0.01612840
#
# Stress axis : x y z
#
# Youngs Moduli (GPa) = 82.80193 82.80193 83.24132
#
# Poissons Ratio (x) = 0.31851 0.25692
# Poissons Ratio (y) = 0.31851 0.25692
# Poissons Ratio (z) = 0.25556 0.25556
#
# Static dielectric constant tensor:
#      x y z
#    x 3.389870 0.000000 0.000000 
#    y 0.000000 3.389870 0.000000 
#    z 0.000000 0.000000 3.815130 
# 
# 
# High freq. dielectric constant tensor:
#      x y z
#    x 1.724270 0.000000 0.000000 
#    y 0.000000 1.724270 0.000000 
#    z 0.000000 0.000000 1.782500 
# 
# From -- ./inp_files/1477.got.cif
#   From: 2010.03.12/outbox.cif.g09.slc.cpg/sg133_1_cif.got.tgz:1477.got - 2010.04.06 18:08:06.
