data_PCOD8316130
_publ_section_title
;
Structure prediction by ZEFSAII (Michael W. Deem and Ramdas Pophale) SiO2 
 PCOD8316130
Probable space group: P 42/M M C
;
_chemical_formula_sum "Si O2"
_cell_formula_units_Z 88
_cell_length_a 13.782959
_cell_length_b 13.782959
_cell_length_c 26.119473
_cell_angle_alpha 90.000000
_cell_angle_beta 90.000000
_cell_angle_gamma 90.000000
_cell_volume 4961.915210
_symmetry_space_group_name_H-M "P 42/M M C"
_symmetry_group_IT_number 131
_symmetry_cell_setting 'tetragonal'
loop_
_space_group_symop_operation_xyz
x,y,z
-x,-y,z
-y,x,1/2+z
y,-x,1/2+z
-x,y,-z
x,-y,-z
y,x,1/2-z
-y,-x,1/2-z
-x,-y,-z
x,y,-z
y,-x,1/2-z
-y,x,1/2-z
x,-y,z
-x,y,z
-y,-x,1/2+z
y,x,1/2+z
loop_
_atom_site_type_symbol
_atom_site_label
_atom_site_fract_x
_atom_site_fract_y
_atom_site_fract_z
Si Si1 0.733039 0.112303 0.744939
Si Si2 0.390870 0.384838 0.500000
Si Si3 0.893098 0.609749 0.345668
Si Si4 0.614137 0.215156 0.343704
Si Si5 0.385102 0.891092 0.444145
Si Si6 0.387976 0.303732 0.106165
O O1 0.838557 0.161444 0.750000
O O2 0.680787 0.124779 0.798833
O O3 0.668331 0.166484 0.703228
O O4 0.746251 0.000000 0.729636
O O5 0.500000 0.341421 0.500000
O O6 0.394065 0.500000 0.500000
O O7 0.336067 0.348059 0.449322
O O8 0.885067 0.500000 0.324585
O O9 0.812233 0.627826 0.389128
O O10 0.000000 0.627933 0.369867
O O11 0.500000 0.199889 0.335721
O O12 0.655984 0.169135 0.396407
O O13 0.640321 0.329196 0.348931
O O14 0.355466 0.845964 0.500000
O O15 0.500000 0.893953 0.439735
O O16 0.343460 0.000000 0.440427
O O17 0.500000 0.333206 0.113464
#
# Coordination Sequence:
#
# PCOD8316130 Si02
#       6
#    16   8  16  16  16  16
#     4  11  22  38  57  80 106 133 173 224 278 332
#     4   9  18  32  49  73 110 154 186 213 255 309
#     4   9  18  35  58  78 101 135 175 225 280 325
#     4  11  21  32  52  79 107 143 184 219 261 315
#     4   8  15  28  45  69 102 136 172 215 258 299
#     4  10  20  34  52  77 110 145 185 222 261 318
#
# _framework density 17.735087
#
# number of rings (size 3 to 8) (size 9 to 14) (size 15 to 20)
#    0.000    2.273    1.818    2.182    1.273    3.091 
#    0.000    0.455    0.000    2.727    0.000    0.000 
#    0.000    0.000    0.000    9.818    0.000    0.545 
#
# Total GULP energy -1090838.355856 kJ/mol
# GULP energy per Si atom -12395.890407 kJ/mol
# Density = 1.769472 g / cm^3
# Si number density = 17.735087 Si / 1000 Ang^3
#
#
#
# Elastic Constant Matrix: (Units=GPa)
#
#
# Indices 1 2 3 4 5 6 
#
# 1 94.2919 40.3178 47.4475 0.0000 0.0000 0.0000
# 2 40.3178 94.2934 47.4478 0.0000 0.0000 0.0000
# 3 47.4475 47.4478 80.9060 0.0000 0.0000 0.0000
# 4 0.0000 0.0000 0.0000 25.4730 0.0000 0.0000
# 5 0.0000 0.0000 0.0000 0.0000 25.4733 0.0000
# 6 0.0000 0.0000 0.0000 0.0000 0.0000 21.1156
#
#
#
# Elastic Compliance Matrix: (Units=1/GPa)
#
#
# Indices 1 2 3 4 5 6 
#
# 1 0.015596 -0.002931 -0.007427 0.000000 0.000000 0.000000
# 2 -0.002931 0.015596 -0.007427 0.000000 0.000000 0.000000
# 3 -0.007427 -0.007427 0.021072 0.000000 0.000000 0.000000
# 4 0.000000 0.000000 0.000000 0.039257 0.000000 0.000000
# 5 0.000000 0.000000 0.000000 0.000000 0.039257 0.000000
# 6 0.000000 0.000000 0.000000 0.000000 0.000000 0.047358
#
#
# Mechanical properties :
#
#
# Convention : Reuss Voigt Hill
#
# Bulk Modulus (GPa) = 59.90924 59.99082 59.95003
# Shear Modulus (GPa) = 22.80276 23.36426 23.08351
#
# Velocity S-wave (km/s) = 3.58962 3.63354 3.61165
# Velocity P-wave (km/s) = 7.14380 7.17656 7.16020
#
# Compressibility (1/GPa) = 0.01669192
#
# Stress axis : x y z
#
# Youngs Moduli (GPa) = 64.11845 64.11954 47.45718
#
# Poissons Ratio (x) = 0.18794 0.35248
# Poissons Ratio (y) = 0.18794 0.35248
# Poissons Ratio (z) = 0.47623 0.47624
#
# Static dielectric constant tensor:
#      x y z
#    x 3.347160 0.000000 0.000000 
#    y 0.000000 3.347160 0.000000 
#    z 0.000000 0.000000 3.372900 
# 
# 
# High freq. dielectric constant tensor:
#      x y z
#    x 1.677960 0.000000 0.000000 
#    y 0.000000 1.677960 0.000000 
#    z 0.000000 0.000000 1.679450 
# 
# From -- ./inp_files/11075.got.cif
#   From: 2010.03.12/outbox.cif.g09.slc.cpg/sg131_6_cif.got.tgz:11075.got - 2010.04.06 17:36:35.
