data_PCOD8316116
_publ_section_title
;
Structure prediction by ZEFSAII (Michael W. Deem and Ramdas Pophale) SiO2 
 PCOD8316116
Probable space group: P 42/M M C
;
_chemical_formula_sum "Si O2"
_cell_formula_units_Z 72
_cell_length_a 17.116496
_cell_length_b 17.116496
_cell_length_c 16.372630
_cell_angle_alpha 90.000000
_cell_angle_beta 90.000000
_cell_angle_gamma 90.000000
_cell_volume 4796.762029
_symmetry_space_group_name_H-M "P 42/M M C"
_symmetry_group_IT_number 131
_symmetry_cell_setting 'tetragonal'
loop_
_space_group_symop_operation_xyz
x,y,z
-x,-y,z
-y,x,1/2+z
y,-x,1/2+z
-x,y,-z
x,-y,-z
y,x,1/2-z
-y,-x,1/2-z
-x,-y,-z
x,y,-z
y,-x,1/2-z
-y,x,1/2-z
x,-y,z
-x,y,z
-y,-x,1/2+z
y,x,1/2+z
loop_
_atom_site_type_symbol
_atom_site_label
_atom_site_fract_x
_atom_site_fract_y
_atom_site_fract_z
Si Si1 0.907698 0.500000 0.093358
Si Si2 0.092291 0.584304 0.500000
Si Si3 0.914551 0.909718 0.500000
Si Si4 0.340610 0.088870 0.328913
Si Si5 0.312047 0.088705 0.146863
Si Si6 0.845383 0.170487 0.157631
O O1 0.874179 0.580770 0.131665
O O2 0.000000 0.500000 0.107398
O O3 0.882756 0.500000 0.000000
O O4 0.132909 0.500000 0.500000
O O5 0.120064 0.628043 0.580512
O O6 0.000000 0.575917 0.500000
O O7 0.870261 0.891672 0.584427
O O8 0.000000 0.867729 0.500000
O O9 0.928451 0.000000 0.500000
O O10 0.356131 0.089362 0.232691
O O11 0.263264 0.139066 0.349318
O O12 0.326226 0.000000 0.360336
O O13 0.244688 0.152858 0.142786
O O14 0.281354 0.000000 0.128363
O O15 0.863816 0.136185 0.250000
#
# Coordination Sequence:
#
# PCOD8316116 Si02
#       6
#     8   8   8  16  16  16
#     4   9  18  30  44  63  85 109 143 186 229 270
#     4   9  17  27  43  65  88 114 145 178 215 263
#     4  11  23  33  45  64  85 116 158 203 239 267
#     4   9  18  30  46  65  86 115 149 186 226 271
#     4   9  17  29  45  65  88 117 149 182 221 263
#     4  10  20  34  49  65  89 120 154 191 234 275
#
# _framework density 15.010126
#
# number of rings (size 3 to 8) (size 9 to 14) (size 15 to 20)
#    0.000    2.556    0.000    2.000    3.111    3.556 
#    0.000    1.111    0.000    0.000    0.000    0.000 
#    0.000    0.000    0.000    2.000    4.222    0.000 
#
# Total GULP energy -892042.625620 kJ/mol
# GULP energy per Si atom -12389.480911 kJ/mol
# Density = 1.497596 g / cm^3
# Si number density = 15.010126 Si / 1000 Ang^3
#
#
#
# Elastic Constant Matrix: (Units=GPa)
#
#
# Indices 1 2 3 4 5 6 
#
# 1 87.6734 40.1481 51.0287 0.0000 0.0000 0.0000
# 2 40.1481 87.6738 51.0288 0.0000 0.0000 0.0000
# 3 51.0287 51.0288 114.9919 0.0000 0.0000 0.0000
# 4 0.0000 0.0000 0.0000 21.4609 0.0000 0.0000
# 5 0.0000 0.0000 0.0000 0.0000 21.4608 0.0000
# 6 0.0000 0.0000 0.0000 0.0000 0.0000 9.0893
#
#
#
# Elastic Compliance Matrix: (Units=1/GPa)
#
#
# Indices 1 2 3 4 5 6 
#
# 1 0.016579 -0.004462 -0.005377 0.000000 0.000000 0.000000
# 2 -0.004462 0.016579 -0.005377 0.000000 0.000000 0.000000
# 3 -0.005377 -0.005377 0.013468 0.000000 0.000000 0.000000
# 4 0.000000 0.000000 0.000000 0.046596 0.000000 0.000000
# 5 0.000000 0.000000 0.000000 0.000000 0.046597 0.000000
# 6 0.000000 0.000000 0.000000 0.000000 0.000000 0.110019
#
#
# Mechanical properties :
#
#
# Convention : Reuss Voigt Hill
#
# Bulk Modulus (GPa) = 61.75133 63.86114 62.80623
# Shear Modulus (GPa) = 17.50284 20.27777 18.89031
#
# Velocity S-wave (km/s) = 3.41848 3.67950 3.55139
# Velocity P-wave (km/s) = 7.53727 7.79034 7.66485
#
# Compressibility (1/GPa) = 0.01619398
#
# Stress axis : x y z
#
# Youngs Moduli (GPa) = 60.31762 60.31784 74.24875
#
# Poissons Ratio (x) = 0.26917 0.39922
# Poissons Ratio (y) = 0.26917 0.39922
# Poissons Ratio (z) = 0.32431 0.32431
#
# Static dielectric constant tensor:
#      x y z
#    x 2.787800 0.000000 0.000000 
#    y 0.000000 2.787800 0.000000 
#    z 0.000000 0.000000 2.660910 
# 
# 
# High freq. dielectric constant tensor:
#      x y z
#    x 1.545340 0.000000 0.000000 
#    y 0.000000 1.545340 0.000000 
#    z 0.000000 0.000000 1.597610 
# 
# From -- ./inp_files/7675.got.cif
#   From: 2010.03.12/outbox.cif.g09.slc.cpg/sg131_4_cif.got.tgz:7675.got - 2010.04.06 17:36:35.
