data_PCOD8316140
_publ_section_title
;
Structure prediction by ZEFSAII (Michael W. Deem and Ramdas Pophale) SiO2 
 PCOD8316140
Probable space group: P 42/M M C
;
_chemical_formula_sum "Si O2"
_cell_formula_units_Z 112
_cell_length_a 14.688340
_cell_length_b 14.688340
_cell_length_c 26.064640
_cell_angle_alpha 90.000000
_cell_angle_beta 90.000000
_cell_angle_gamma 90.000000
_cell_volume 5623.376538
_symmetry_space_group_name_H-M "P 42/M M C"
_symmetry_group_IT_number 131
_symmetry_cell_setting 'tetragonal'
loop_
_space_group_symop_operation_xyz
x,y,z
-x,-y,z
-y,x,1/2+z
y,-x,1/2+z
-x,y,-z
x,-y,-z
y,x,1/2-z
-y,-x,1/2-z
-x,-y,-z
x,y,-z
y,-x,1/2-z
-y,x,1/2-z
x,-y,z
-x,y,z
-y,-x,1/2+z
y,x,1/2+z
loop_
_atom_site_type_symbol
_atom_site_label
_atom_site_fract_x
_atom_site_fract_y
_atom_site_fract_z
Si Si1 0.600463 0.184377 0.114173
Si Si2 0.601139 0.637221 0.059252
Si Si3 0.205302 0.601031 0.902384
Si Si4 0.758524 0.898350 0.059048
Si Si5 0.606905 0.253407 0.774868
Si Si6 0.900321 0.757446 0.057664
Si Si7 0.393018 0.897767 0.697963
O O1 0.500000 0.140588 0.122272
O O2 0.599428 0.254817 0.066951
O O3 0.671146 0.107620 0.096673
O O4 0.629656 0.240311 0.165109
O O5 0.500000 0.598144 0.075163
O O6 0.684235 0.598038 0.093504
O O7 0.620351 0.613604 0.000000
O O8 0.168016 0.500000 0.911004
O O9 0.157227 0.664060 0.944387
O O10 0.167448 0.640788 0.848405
O O11 0.837337 0.834807 0.083390
O O12 0.795925 0.000000 0.061438
O O13 0.734136 0.871477 0.000000
O O14 0.664432 0.335569 0.750000
O O15 0.500000 0.276251 0.765974
O O16 0.633723 0.156435 0.749419
O O17 0.000000 0.747838 0.085023
O O18 0.918092 0.788359 0.000000
O O19 0.500000 0.909390 0.694261
O O20 0.348949 0.000000 0.697399
#
# Coordination Sequence:
#
# PCOD8316140 Si02
#       7
#    16  16  16  16  16  16  16
#     4  10  20  35  56  82 114 148 188 238 289 345
#     4  10  20  34  53  77 112 158 197 232 281 341
#     4  11  21  34  55  82 112 150 194 237 282 336
#     4  10  21  37  58  84 114 149 189 235 292 355
#     4  10  21  36  57  86 117 151 191 237 290 347
#     4  10  21  36  54  78 110 148 190 238 288 335
#     4   9  19  36  56  78 107 145 189 237 289 342
#
# _framework density 19.91686
#
# number of rings (size 3 to 8) (size 9 to 14) (size 15 to 20)
#    0.000    2.000    1.429    2.143    0.000    4.429 
#    0.000    5.000    0.000    5.143    0.000    0.000 
#    0.000    0.286    0.000    0.000    0.000    0.000 
#
# Total GULP energy -1387650.395766 kJ/mol
# GULP energy per Si atom -12389.735676 kJ/mol
# Density = 1.987153 g / cm^3
# Si number density = 19.916860 Si / 1000 Ang^3
#
#
#
# Elastic Constant Matrix: (Units=GPa)
#
#
# Indices 1 2 3 4 5 6 
#
# 1 127.2894 51.1070 35.5831 0.0000 0.0000 0.0000
# 2 51.1070 127.2880 35.5832 0.0000 0.0000 0.0000
# 3 35.5831 35.5832 65.2284 0.0000 0.0000 0.0000
# 4 0.0000 0.0000 0.0000 23.6020 0.0000 0.0000
# 5 0.0000 0.0000 0.0000 0.0000 23.6021 0.0000
# 6 0.0000 0.0000 0.0000 0.0000 0.0000 16.0655
#
#
#
# Elastic Compliance Matrix: (Units=1/GPa)
#
#
# Indices 1 2 3 4 5 6 
#
# 1 0.010146 -0.002981 -0.003908 0.000000 0.000000 0.000000
# 2 -0.002981 0.010146 -0.003909 0.000000 0.000000 0.000000
# 3 -0.003908 -0.003909 0.019595 0.000000 0.000000 0.000000
# 4 0.000000 0.000000 0.000000 0.042369 0.000000 0.000000
# 5 0.000000 0.000000 0.000000 0.000000 0.042369 0.000000
# 6 0.000000 0.000000 0.000000 0.000000 0.000000 0.062245
#
#
# Mechanical properties :
#
#
# Convention : Reuss Voigt Hill
#
# Bulk Modulus (GPa) = 54.67299 62.70580 58.68940
# Shear Modulus (GPa) = 23.30326 25.82275 24.56300
#
# Velocity S-wave (km/s) = 3.42428 3.60464 3.51561
# Velocity P-wave (km/s) = 6.56844 6.99119 6.78311
#
# Compressibility (1/GPa) = 0.01829057
#
# Stress axis : x y z
#
# Youngs Moduli (GPa) = 98.56562 98.56423 51.03345
#
# Poissons Ratio (x) = 0.29381 0.19946
# Poissons Ratio (y) = 0.29381 0.19946
# Poissons Ratio (z) = 0.38523 0.38524
#
# Static dielectric constant tensor:
#      x y z
#    x 3.659910 0.000000 0.000000 
#    y 0.000000 3.659910 0.000000 
#    z 0.000000 0.000000 3.519080 
# 
# 
# High freq. dielectric constant tensor:
#      x y z
#    x 1.768210 0.000000 0.000000 
#    y 0.000000 1.768210 0.000000 
#    z 0.000000 0.000000 1.759280 
# 
# From -- ./inp_files/12418.got.cif
#   From: 2010.03.12/outbox.cif.g09.slc.cpg/sg131_7_cif.got.tgz:12418.got - 2010.04.06 17:36:35.
