data_PCOD8316762
_publ_section_title
;
Structure prediction by ZEFSAII (Michael W. Deem and Ramdas Pophale) SiO2 
 PCOD8316762
Probable space group: P 42/M C M
;
_chemical_formula_sum "Si O2"
_cell_formula_units_Z 42
_cell_length_a 15.048328
_cell_length_b 15.048328
_cell_length_c 8.805161
_cell_angle_alpha 90.000000
_cell_angle_beta 90.000000
_cell_angle_gamma 90.000000
_cell_volume 1993.947865
_symmetry_space_group_name_H-M "P 42/M C M"
_symmetry_group_IT_number 132
_symmetry_cell_setting 'tetragonal'
loop_
_space_group_symop_operation_xyz
x,y,z
-y,x,1/2+z
-x,-y,z
y,-x,1/2+z
x,-y,1/2-z
-x,y,1/2-z
y,x,-z
-y,-x,-z
-x,-y,-z
y,-x,1/2-z
x,y,-z
-y,x,1/2-z
-x,y,1/2+z
x,-y,1/2+z
-y,-x,z
y,x,z
loop_
_atom_site_type_symbol
_atom_site_label
_atom_site_fract_x
_atom_site_fract_y
_atom_site_fract_z
Si Si1 0.669695 0.908801 0.180873
Si Si2 0.000000 0.000000 0.750000
Si Si3 0.860705 0.139296 0.332121
Si Si4 0.590532 0.736525 0.320932
O O1 0.770540 0.895652 0.246759
O O2 0.608489 0.830195 0.241138
O O3 0.632244 0.000000 0.250000
O O4 0.665649 0.913737 0.000000
O O5 0.936237 0.936237 0.846825
O O6 0.832154 0.167847 0.500000
O O7 0.500000 0.697479 0.250000
O O8 0.580577 0.749651 0.500000
O O9 0.669079 0.669079 0.279737
#
# Coordination Sequence:
#
# PCOD8316762 Si02
#       4
#    16   2   8  16
#     4  11  22  40  63  93 130 173 219 266 323 383
#     4  12  18  36  52  90 128 168 226 264 326 372
#     4  10  21  33  53  84 124 170 212 261 315 371
#     4  11  25  45  70 100 131 169 214 268 331 396
#
# _framework density 21.063739999999999
#
# number of rings (size 3 to 8) (size 9 to 14) (size 15 to 20)
#    0.000    1.143    3.810    2.571    0.000    3.429 
#    0.000    5.714    0.000    0.000    0.000    0.000 
#    0.000    0.000    0.000    0.000    0.000    0.000 
#
# Total GULP energy -520843.290435 kJ/mol
# GULP energy per Si atom -12401.030725 kJ/mol
# Density = 2.101580 g / cm^3
# Si number density = 21.063740 Si / 1000 Ang^3
#
#
#
# Elastic Constant Matrix: (Units=GPa)
#
#
# Indices 1 2 3 4 5 6 
#
# 1 117.4974 35.5314 47.3617 0.0000 0.0000 0.0000
# 2 35.5314 117.4973 47.3616 0.0000 0.0000 0.0000
# 3 47.3617 47.3616 110.6381 0.0000 0.0000 0.0000
# 4 0.0000 0.0000 0.0000 31.5261 0.0000 0.0000
# 5 0.0000 0.0000 0.0000 0.0000 31.5261 0.0000
# 6 0.0000 0.0000 0.0000 0.0000 0.0000 4.4383
#
#
#
# Elastic Compliance Matrix: (Units=1/GPa)
#
#
# Indices 1 2 3 4 5 6 
#
# 1 0.010545 -0.001655 -0.003806 0.000000 0.000000 0.000000
# 2 -0.001655 0.010545 -0.003806 0.000000 0.000000 0.000000
# 3 -0.003806 -0.003806 0.012297 0.000000 0.000000 0.000000
# 4 0.000000 0.000000 0.000000 0.031720 0.000000 0.000000
# 5 0.000000 0.000000 0.000000 0.000000 0.031720 0.000000
# 6 0.000000 0.000000 0.000000 0.000000 0.000000 0.225314
#
#
# Mechanical properties :
#
#
# Convention : Reuss Voigt Hill
#
# Bulk Modulus (GPa) = 67.31942 67.34913 67.33427
# Shear Modulus (GPa) = 14.46654 27.85665 21.16159
#
# Velocity S-wave (km/s) = 2.62353 3.64055 3.17305
# Velocity P-wave (km/s) = 6.41922 7.05088 6.74245
#
# Compressibility (1/GPa) = 0.01485455
#
# Stress axis : x y z
#
# Youngs Moduli (GPa) = 94.82872 94.82870 81.32171
#
# Poissons Ratio (x) = 0.15693 0.30950
# Poissons Ratio (y) = 0.15693 0.30949
# Poissons Ratio (z) = 0.36090 0.36090
#
# Static dielectric constant tensor:
#      x y z
#    x 3.853780 0.000000 0.000000 
#    y 0.000000 3.853780 0.000000 
#    z 0.000000 0.000000 3.588100 
# 
# 
# High freq. dielectric constant tensor:
#      x y z
#    x 1.830340 0.000000 0.000000 
#    y 0.000000 1.830340 0.000000 
#    z 0.000000 0.000000 1.817260 
# 
# From -- ./inp_files/580.got.cif
#   From: 2010.03.12/outbox.cif.g09.slc.cpg/sg132_1_cif.got.tgz:580.got - 2010.04.06 17:53:44.
