data_PCOD8316433
_publ_section_title
;
Structure prediction by ZEFSAII (Michael W. Deem and Ramdas Pophale) SiO2 
 PCOD8316433
Probable space group: P 42/M C M
;
_chemical_formula_sum "Si O2"
_cell_formula_units_Z 112
_cell_length_a 17.099186
_cell_length_b 17.099186
_cell_length_c 27.578355
_cell_angle_alpha 90.000000
_cell_angle_beta 90.000000
_cell_angle_gamma 90.000000
_cell_volume 8063.419056
_symmetry_space_group_name_H-M "P 42/M C M"
_symmetry_group_IT_number 132
_symmetry_cell_setting 'tetragonal'
loop_
_space_group_symop_operation_xyz
x,y,z
-y,x,1/2+z
-x,-y,z
y,-x,1/2+z
x,-y,1/2-z
-x,y,1/2-z
y,x,-z
-y,-x,-z
-x,-y,-z
y,-x,1/2-z
x,y,-z
-y,x,1/2-z
-x,y,1/2+z
x,-y,1/2+z
-y,-x,z
y,x,z
loop_
_atom_site_type_symbol
_atom_site_label
_atom_site_fract_x
_atom_site_fract_y
_atom_site_fract_z
Si Si1 0.616334 0.079438 0.443107
Si Si2 0.352081 0.907438 0.943497
Si Si3 0.936930 0.193675 0.895855
Si Si4 0.375680 0.499968 0.442348
Si Si5 0.508324 0.799696 0.557128
Si Si6 0.908865 0.211232 0.443318
Si Si7 0.872810 0.003717 0.303429
O O1 0.615436 0.094566 0.500000
O O2 0.554291 0.139610 0.419282
O O3 0.701871 0.098196 0.420968
O O4 0.598852 0.987467 0.433090
O O5 0.278170 0.900184 0.907755
O O6 0.405669 0.832969 0.931630
O O7 0.324784 0.907597 0.000000
O O8 0.870585 0.129416 0.901686
O O9 0.977809 0.192193 0.842707
O O10 0.005545 0.175212 0.934029
O O11 0.371624 0.496792 0.500000
O O12 0.421079 0.578922 0.425876
O O13 0.423896 0.423896 0.423707
O O14 0.287605 0.499933 0.420377
O O15 0.494716 0.795262 0.500000
O O16 0.895418 0.215142 0.500000
O O17 0.843072 0.156929 0.418740
O O18 0.943324 0.943324 0.304847
O O19 0.833384 0.000000 0.250000
O O20 0.909996 0.090005 0.314266
#
# Coordination Sequence:
#
# PCOD8316433 Si02
#       7
#    16  16  16  16  16  16  16
#     4   8  14  24  35  46  62  85 116 153 182 201
#     4   9  17  26  34  48  71  95 122 156 181 202
#     4  10  18  26  36  50  71  99 125 148 177 213
#     4   8  14  23  32  44  62  80 104 144 187 220
#     4   9  15  23  37  50  61  87 122 150 181 218
#     4   9  17  26  34  48  72  98 123 153 182 207
#     4   8  14  25  40  55  68  85 116 157 192 217
#
# _framework density 13.889889999999999
#
# number of rings (size 3 to 8) (size 9 to 14) (size 15 to 20)
#    0.000    3.286    0.000    3.000    0.000    4.857 
#    0.000    5.000    0.000    0.000    0.000    0.000 
#    0.000    9.143    0.000    0.000    0.000    0.000 
#
# Total GULP energy -1387473.576988 kJ/mol
# GULP energy per Si atom -12388.156937 kJ/mol
# Density = 1.385828 g / cm^3
# Si number density = 13.889890 Si / 1000 Ang^3
#
#
#
# Elastic Constant Matrix: (Units=GPa)
#
#
# Indices 1 2 3 4 5 6 
#
# 1 88.2645 53.5636 20.5928 0.0000 0.0000 0.0000
# 2 53.5636 88.2645 20.5928 0.0000 0.0000 0.0000
# 3 20.5928 20.5928 27.4218 0.0000 0.0000 0.0000
# 4 0.0000 0.0000 0.0000 7.4666 0.0000 0.0000
# 5 0.0000 0.0000 0.0000 0.0000 7.4666 0.0000
# 6 0.0000 0.0000 0.0000 0.0000 0.0000 20.4345
#
#
#
# Elastic Compliance Matrix: (Units=1/GPa)
#
#
# Indices 1 2 3 4 5 6 
#
# 1 0.018917 -0.009900 -0.006772 0.000000 0.000000 0.000000
# 2 -0.009900 0.018917 -0.006772 0.000000 0.000000 0.000000
# 3 -0.006772 -0.006772 0.046638 0.000000 0.000000 0.000000
# 4 0.000000 0.000000 0.000000 0.133930 0.000000 0.000000
# 5 0.000000 0.000000 0.000000 0.000000 0.133930 0.000000
# 6 0.000000 0.000000 0.000000 0.000000 0.000000 0.048937
#
#
# Mechanical properties :
#
#
# Convention : Reuss Voigt Hill
#
# Bulk Modulus (GPa) = 26.60580 43.71657 35.16118
# Shear Modulus (GPa) = 10.85339 14.35363 12.60351
#
# Velocity S-wave (km/s) = 2.79836 3.21812 3.01555
# Velocity P-wave (km/s) = 5.44403 6.73427 6.12323
#
# Compressibility (1/GPa) = 0.03758580
#
# Stress axis : x y z
#
# Youngs Moduli (GPa) = 52.86124 52.86124 21.44185
#
# Poissons Ratio (x) = 0.52334 0.14520
# Poissons Ratio (y) = 0.52334 0.14520
# Poissons Ratio (z) = 0.35795 0.35795
#
# Static dielectric constant tensor:
#      x y z
#    x 2.919330 0.000000 0.000000 
#    y 0.000000 2.919330 0.000000 
#    z 0.000000 0.000000 2.412280 
# 
# 
# High freq. dielectric constant tensor:
#      x y z
#    x 1.530740 0.000000 0.000000 
#    y 0.000000 1.530740 0.000000 
#    z 0.000000 0.000000 1.456400 
# 
# From -- ./inp_files/9279.got.cif
#   From: 2010.03.12/outbox.cif.g09.slc.cpg/sg132_5_cif.got.tgz:9279.got - 2010.04.06 17:53:44.
