data_PCOD8316778
_publ_section_title
;
Structure prediction by ZEFSAII (Michael W. Deem and Ramdas Pophale) SiO2 
 PCOD8316778
Probable space group: P 42/M C M
;
_chemical_formula_sum "Si O2"
_cell_formula_units_Z 56
_cell_length_a 12.523735
_cell_length_b 12.523735
_cell_length_c 18.235117
_cell_angle_alpha 90.000000
_cell_angle_beta 90.000000
_cell_angle_gamma 90.000000
_cell_volume 2860.067567
_symmetry_space_group_name_H-M "P 42/M C M"
_symmetry_group_IT_number 132
_symmetry_cell_setting 'tetragonal'
loop_
_space_group_symop_operation_xyz
x,y,z
-y,x,1/2+z
-x,-y,z
y,-x,1/2+z
x,-y,1/2-z
-x,y,1/2-z
y,x,-z
-y,-x,-z
-x,-y,-z
y,-x,1/2-z
x,y,-z
-y,x,1/2-z
-x,y,1/2+z
x,-y,1/2+z
-y,-x,z
y,x,z
loop_
_atom_site_type_symbol
_atom_site_label
_atom_site_fract_x
_atom_site_fract_y
_atom_site_fract_z
Si Si1 0.567151 0.104420 0.586232
Si Si2 0.332894 0.501515 0.913229
Si Si3 0.910474 0.910474 0.418947
Si Si4 0.229917 0.051889 0.825562
O O1 0.595807 0.106522 0.500000
O O2 0.500538 0.209161 0.610935
O O3 0.674758 0.110452 0.632899
O O4 0.500000 0.000000 0.607112
O O5 0.390614 0.609387 0.883082
O O6 0.397424 0.397424 0.883760
O O7 0.339044 0.501275 0.000000
O O8 0.874123 0.874123 0.500000
O O9 0.955511 0.807990 0.377294
O O10 0.000000 0.000000 0.424410
O O11 0.134537 0.134537 0.809407
O O12 0.269959 0.000000 0.750000
#
# Coordination Sequence:
#
# PCOD8316778 Si02
#       4
#    16  16   8  16
#     4  10  21  36  54  83 119 152 194 250 306 364
#     4   8  14  28  52  79 107 142 185 233 285 341
#     4   9  18  32  54  82 110 146 195 246 289 343
#     4  11  21  36  58  82 115 157 200 247 298 358
#
# _framework density 19.579958000000001
#
# number of rings (size 3 to 8) (size 9 to 14) (size 15 to 20)
#    0.000    2.429    1.429    2.571    0.000    3.429 
#    2.571    0.000    0.000    0.000    0.000    0.000 
#    0.000    4.571    0.000    0.286    0.000    0.857 
#
# Total GULP energy -694242.700722 kJ/mol
# GULP energy per Si atom -12397.191084 kJ/mol
# Density = 1.953539 g / cm^3
# Si number density = 19.579958 Si / 1000 Ang^3
#
#
#
# Elastic Constant Matrix: (Units=GPa)
#
#
# Indices 1 2 3 4 5 6 
#
# 1 126.3255 62.3998 29.7020 0.0000 0.0000 0.0000
# 2 62.3998 126.3255 29.7020 0.0000 0.0000 0.0000
# 3 29.7020 29.7020 80.0165 0.0000 0.0000 0.0000
# 4 0.0000 0.0000 0.0000 11.6543 0.0000 0.0000
# 5 0.0000 0.0000 0.0000 0.0000 11.6543 0.0000
# 6 0.0000 0.0000 0.0000 0.0000 0.0000 30.8331
#
#
#
# Elastic Compliance Matrix: (Units=1/GPa)
#
#
# Indices 1 2 3 4 5 6 
#
# 1 0.010821 -0.004822 -0.002227 0.000000 0.000000 0.000000
# 2 -0.004822 0.010821 -0.002227 0.000000 0.000000 0.000000
# 3 -0.002227 -0.002227 0.014151 0.000000 0.000000 0.000000
# 4 0.000000 0.000000 0.000000 0.085806 0.000000 0.000000
# 5 0.000000 0.000000 0.000000 0.000000 0.085806 0.000000
# 6 0.000000 0.000000 0.000000 0.000000 0.000000 0.032433
#
#
# Mechanical properties :
#
#
# Convention : Reuss Voigt Hill
#
# Bulk Modulus (GPa) = 57.99827 64.03056 61.01442
# Shear Modulus (GPa) = 18.92961 24.88590 21.90775
#
# Velocity S-wave (km/s) = 3.11269 3.56896 3.34861
# Velocity P-wave (km/s) = 6.52717 7.05382 6.79560
#
# Compressibility (1/GPa) = 0.01724189
#
# Stress axis : x y z
#
# Youngs Moduli (GPa) = 92.40913 92.40913 70.66733
#
# Poissons Ratio (x) = 0.44557 0.15738
# Poissons Ratio (y) = 0.44557 0.15738
# Poissons Ratio (z) = 0.20580 0.20580
#
# Static dielectric constant tensor:
#      x y z
#    x 3.634300 0.000000 0.000000 
#    y 0.000000 3.634300 0.000000 
#    z 0.000000 0.000000 3.314310 
# 
# 
# High freq. dielectric constant tensor:
#      x y z
#    x 1.758660 0.000000 0.000000 
#    y 0.000000 1.758660 0.000000 
#    z 0.000000 0.000000 1.732760 
# 
# From -- ./inp_files/7293.got.cif
#   From: 2010.03.12/outbox.cif.g09.slc.cpg/sg132_4_cif.got.tgz:7293.got - 2010.04.06 17:53:44.
