data_PCOD8316399
_publ_section_title
;
Structure prediction by ZEFSAII (Michael W. Deem and Ramdas Pophale) SiO2 
 PCOD8316399
Probable space group: P 42/M M C
;
_chemical_formula_sum "Si O2"
_cell_formula_units_Z 112
_cell_length_a 15.000000
_cell_length_b 15.000000
_cell_length_c 30.000000
_cell_angle_alpha 90.000000
_cell_angle_beta 90.000000
_cell_angle_gamma 90.000000
_cell_volume 6750.000000
_symmetry_space_group_name_H-M "P 42/M M C"
_symmetry_group_IT_number 131
_symmetry_cell_setting 'tetragonal'
loop_
_space_group_symop_operation_xyz
x,y,z
-x,-y,z
-y,x,1/2+z
y,-x,1/2+z
-x,y,-z
x,-y,-z
y,x,1/2-z
-y,-x,1/2-z
-x,-y,-z
x,y,-z
y,-x,1/2-z
-y,x,1/2-z
x,-y,z
-x,y,z
-y,-x,1/2+z
y,x,1/2+z
loop_
_atom_site_type_symbol
_atom_site_label
_atom_site_fract_x
_atom_site_fract_y
_atom_site_fract_z
Si Si1 0.903141 0.397848 0.412575
Si Si2 0.596871 0.896720 0.191247
Si Si3 0.897151 0.102424 0.123444
Si Si4 0.400162 0.280291 0.052099
Si Si5 0.209814 0.894432 0.212285
Si Si6 0.749467 0.103236 0.551411
Si Si7 0.241399 0.399567 0.052933
O O1 0.911268 0.500000 0.427022
O O2 0.882259 0.388447 0.360813
O O3 0.817969 0.357369 0.438446
O O4 0.000000 0.351870 0.423820
O O5 0.500000 0.853278 0.205844
O O6 0.686798 0.859519 0.214718
O O7 0.590217 0.000000 0.202503
O O8 0.833741 0.128763 0.164589
O O9 0.872190 0.165037 0.081601
O O10 0.000000 0.116297 0.137937
O O11 0.880535 0.000000 0.108949
O O12 0.500000 0.290402 0.073427
O O13 0.333402 0.355539 0.071434
O O14 0.407635 0.293388 0.000000
O O15 0.155834 0.844167 0.250000
O O16 0.203903 0.000000 0.220866
O O17 0.773688 0.125813 0.500000
O O18 0.662867 0.158794 0.567615
O O19 0.723646 0.000000 0.556843
O O20 0.230898 0.500000 0.072706
O O21 0.244759 0.404830 0.000000
#
# Coordination Sequence:
#
# PCOD8316399 Si02
#       7
#    16  16  16  16  16  16  16
#     4   8  14  25  41  62  90 122 153 185 220 263
#     4   8  15  28  45  66  91 120 155 188 218 261
#     4   9  18  31  47  70 100 130 156 186 228 279
#     4   9  17  27  40  62  91 122 154 188 232 283
#     4  10  19  30  48  73  99 128 158 189 229 276
#     4   9  18  32  49  68  90 120 160 201 237 277
#     4   9  18  31  45  61  82 112 154 203 246 281
#
# _framework density 16.592593000000001
#
# number of rings (size 3 to 8) (size 9 to 14) (size 15 to 20)
#    0.000    3.143    0.000    1.286    2.000    1.857 
#    0.000    5.714    0.000    3.429    0.000    2.000 
#    0.000    0.286    0.000    0.000    0.000    0.000 
#
# Total GULP energy -1387470.024378 kJ/mol
# GULP energy per Si atom -12388.125218 kJ/mol
# Density = 1.655483 g / cm^3
# Si number density = 16.592593 Si / 1000 Ang^3
#
#
#
# Elastic Constant Matrix: (Units=GPa)
#
#
# Indices 1 2 3 4 5 6 
#
# 1 114.6872 57.2293 39.6736 0.0000 0.0000 0.0000
# 2 57.2293 114.6849 39.6740 0.0000 0.0000 0.0000
# 3 39.6736 39.6740 48.2525 0.0000 0.0000 0.0000
# 4 0.0000 0.0000 0.0000 14.2590 0.0000 0.0000
# 5 0.0000 0.0000 0.0000 0.0000 14.2590 0.0000
# 6 0.0000 0.0000 0.0000 0.0000 0.0000 25.7036
#
#
#
# Elastic Compliance Matrix: (Units=1/GPa)
#
#
# Indices 1 2 3 4 5 6 
#
# 1 0.013389 -0.004015 -0.007707 0.000000 0.000000 0.000000
# 2 -0.004015 0.013390 -0.007708 0.000000 0.000000 0.000000
# 3 -0.007707 -0.007708 0.033399 0.000000 0.000000 0.000000
# 4 0.000000 0.000000 0.000000 0.070131 0.000000 0.000000
# 5 0.000000 0.000000 0.000000 0.000000 0.070131 0.000000
# 6 0.000000 0.000000 0.000000 0.000000 0.000000 0.038905
#
#
# Mechanical properties :
#
#
# Convention : Reuss Voigt Hill
#
# Bulk Modulus (GPa) = 46.91110 61.19758 54.05434
# Shear Modulus (GPa) = 17.52473 20.24751 18.88612
#
# Velocity S-wave (km/s) = 3.25341 3.49703 3.37742
# Velocity P-wave (km/s) = 6.51511 7.29851 6.91790
#
# Compressibility (1/GPa) = 0.02131692
#
# Stress axis : x y z
#
# Youngs Moduli (GPa) = 74.68760 74.68498 29.94109
#
# Poissons Ratio (x) = 0.29986 0.23077
# Poissons Ratio (y) = 0.29987 0.23078
# Poissons Ratio (z) = 0.57565 0.57566
#
# Static dielectric constant tensor:
#      x y z
#    x 3.308440 0.000000 0.000000 
#    y 0.000000 3.308430 0.000000 
#    z 0.000000 0.000000 2.769150 
# 
# 
# High freq. dielectric constant tensor:
#      x y z
#    x 1.640010 0.000000 0.000000 
#    y 0.000000 1.640010 0.000000 
#    z 0.000000 0.000000 1.593020 
# 
# From -- ./inp_files/13865.got.cif
#   From: 2010.03.12/outbox.ucp.g09.slc.cvg/sg131_7_cif.got.tgz:13865.got - 2010.05.04 20:27:56.
