data_PCOD8316885
_publ_section_title
;
Structure prediction by ZEFSAII (Michael W. Deem and Ramdas Pophale) SiO2 
 PCOD8316885
Probable space group: P 42/N B C
;
_chemical_formula_sum "Si O2"
_cell_formula_units_Z 88
_cell_length_a 14.754893
_cell_length_b 14.754893
_cell_length_c 20.209813
_cell_angle_alpha 90.000000
_cell_angle_beta 90.000000
_cell_angle_gamma 90.000000
_cell_volume 4399.815080
_symmetry_space_group_name_H-M "P 42/N B C"
_symmetry_group_IT_number 133
_space_group.IT_coordinate_system_code '2'
_symmetry_cell_setting 'tetragonal'
loop_
_space_group_symop_operation_xyz
x,y,z
1/2-y,x,1/2+z
1/2-x,1/2-y,z
y,1/2-x,1/2+z
x,1/2-y,-z
1/2-x,y,-z
y,x,1/2-z
1/2-y,1/2-x,1/2-z
-x,-y,-z
1/2+y,-x,1/2-z
1/2+x,1/2+y,-z
-y,1/2+x,1/2-z
-x,1/2+y,z
1/2+x,-y,z
-y,-x,1/2+z
1/2+y,1/2+x,1/2+z
loop_
_atom_site_type_symbol
_atom_site_label
_atom_site_fract_x
_atom_site_fract_y
_atom_site_fract_z
Si Si1 0.687164 0.968206 0.889254
Si Si2 0.999777 0.538077 0.105113
Si Si3 0.632540 0.445530 0.473187
Si Si4 0.100807 0.750000 0.500000
Si Si5 0.384782 0.282395 0.932067
Si Si6 0.344854 0.366033 0.174811
O O1 0.647758 0.884976 0.930112
O O2 0.758468 0.931527 0.835829
O O3 0.596820 0.016732 0.859751
O O4 0.736641 0.037437 0.936966
O O5 0.947352 0.450976 0.077436
O O6 0.938090 0.581144 0.162184
O O7 0.009094 0.606981 0.043584
O O8 0.660952 0.340039 0.485136
O O9 0.714561 0.503878 0.439711
O O10 0.346305 0.223464 0.871405
O O11 0.339987 0.250000 0.000000
O O12 0.335480 0.335480 0.250000
#
# Coordination Sequence:
#
# PCOD8316885 Si02
#       6
#    16  16  16   8  16  16
#     4  10  21  35  59  87 115 157 200 249 304 376
#     4   9  18  37  57  84 116 155 204 245 304 381
#     4   9  17  33  60  88 115 153 200 257 306 367
#     4  10  16  32  64  88 118 152 212 256 308 364
#     4  11  21  36  58  86 125 152 194 253 320 366
#     4  12  24  40  57  87 126 163 203 254 323 393
#
# _framework density 20.000841000000001
#
# number of rings (size 3 to 8) (size 9 to 14) (size 15 to 20)
#    0.000    1.818    3.636    2.727    0.000    2.182 
#    6.545    0.455    0.000    0.000    0.000    0.000 
#    0.000    0.000    0.000    0.000    0.000    0.000 
#
# Total GULP energy -1090369.734065 kJ/mol
# GULP energy per Si atom -12390.565160 kJ/mol
# Density = 1.995532 g / cm^3
# Si number density = 20.000841 Si / 1000 Ang^3
#
#
#
# Elastic Constant Matrix: (Units=GPa)
#
#
# Indices 1 2 3 4 5 6 
#
# 1 94.7047 10.5870 22.1608 0.0000 0.0000 0.0000
# 2 10.5870 94.7047 22.1608 0.0000 0.0000 0.0000
# 3 22.1608 22.1608 98.4541 0.0000 0.0000 0.0000
# 4 0.0000 0.0000 0.0000 20.4128 0.0000 0.0000
# 5 0.0000 0.0000 0.0000 0.0000 20.4128 0.0000
# 6 0.0000 0.0000 0.0000 0.0000 0.0000 16.8586
#
#
#
# Elastic Compliance Matrix: (Units=1/GPa)
#
#
# Indices 1 2 3 4 5 6 
#
# 1 0.011190 -0.000698 -0.002362 0.000000 0.000000 0.000000
# 2 -0.000698 0.011190 -0.002362 0.000000 0.000000 0.000000
# 3 -0.002362 -0.002362 0.011220 0.000000 0.000000 0.000000
# 4 0.000000 0.000000 0.000000 0.048989 0.000000 0.000000
# 5 0.000000 0.000000 0.000000 0.000000 0.048989 0.000000
# 6 0.000000 0.000000 0.000000 0.000000 0.000000 0.059317
#
#
# Mechanical properties :
#
#
# Convention : Reuss Voigt Hill
#
# Bulk Modulus (GPa) = 43.94245 44.18678 44.06462
# Shear Modulus (GPa) = 23.88657 27.06716 25.47687
#
# Velocity S-wave (km/s) = 3.45958 3.68272 3.57289
# Velocity P-wave (km/s) = 6.16249 6.34221 6.25299
#
# Compressibility (1/GPa) = 0.02275704
#
# Stress axis : x y z
#
# Youngs Moduli (GPa) = 89.36720 89.36720 89.12568
#
# Poissons Ratio (x) = 0.06241 0.21047
# Poissons Ratio (y) = 0.06241 0.21047
# Poissons Ratio (z) = 0.21104 0.21104
#
# Static dielectric constant tensor:
#      x y z
#    x 3.859670 0.000000 0.000000 
#    y 0.000000 3.859670 0.000000 
#    z 0.000000 0.000000 3.123500 
# 
# 
# High freq. dielectric constant tensor:
#      x y z
#    x 1.793890 0.000000 0.000000 
#    y 0.000000 1.793890 0.000000 
#    z 0.000000 0.000000 1.726060 
# 
# From -- ./inp_files/6397.got.cif
#   From: 2010.03.12/outbox.cif.g09.slc.cpg/sg133_4_cif.got.tgz:6397.got - 2010.04.06 18:08:06.
