data_PCOD8316631
_publ_section_title
;
Structure prediction by ZEFSAII (Michael W. Deem and Ramdas Pophale) SiO2 
 PCOD8316631
Probable space group: P 42/M C M
;
_chemical_formula_sum "Si O2"
_cell_formula_units_Z 120
_cell_length_a 13.924665
_cell_length_b 13.924665
_cell_length_c 32.749755
_cell_angle_alpha 90.000000
_cell_angle_beta 90.000000
_cell_angle_gamma 90.000000
_cell_volume 6350.056169
_symmetry_space_group_name_H-M "P 42/M C M"
_symmetry_group_IT_number 132
_symmetry_cell_setting 'tetragonal'
loop_
_space_group_symop_operation_xyz
x,y,z
-y,x,1/2+z
-x,-y,z
y,-x,1/2+z
x,-y,1/2-z
-x,y,1/2-z
y,x,-z
-y,-x,-z
-x,-y,-z
y,-x,1/2-z
x,y,-z
-y,x,1/2-z
-x,y,1/2+z
x,-y,1/2+z
-y,-x,z
y,x,z
loop_
_atom_site_type_symbol
_atom_site_label
_atom_site_fract_x
_atom_site_fract_y
_atom_site_fract_z
Si Si1 0.616463 0.895937 0.826683
Si Si2 0.543490 0.695169 0.952396
Si Si3 0.969080 0.288795 0.047088
Si Si4 0.789876 0.363697 0.915094
Si Si5 0.076435 0.923566 0.951521
Si Si6 0.614041 0.771107 0.250573
Si Si7 0.686351 0.163543 0.588653
Si Si8 0.888625 0.609182 0.670644
O O1 0.648285 0.840363 0.786030
O O2 0.651996 0.832319 0.864691
O O3 0.503219 0.903200 0.827078
O O4 0.658400 0.005188 0.828226
O O5 0.589292 0.589292 0.943087
O O6 0.449940 0.716262 0.925130
O O7 0.621485 0.773982 0.941170
O O8 0.516363 0.702966 0.000000
O O9 0.879742 0.360951 0.053752
O O10 0.948005 0.182550 0.064036
O O11 0.056165 0.327112 0.073564
O O12 0.998273 0.287779 0.000000
O O13 0.735038 0.264963 0.921436
O O14 0.829549 0.366155 0.869594
O O15 0.074109 0.925892 0.000000
O O16 0.000000 0.000000 0.933451
O O17 0.500000 0.749046 0.250000
O O18 0.669904 0.669904 0.247818
O O19 0.645878 0.826182 0.291428
O O20 0.795298 0.204703 0.586001
#
# Coordination Sequence:
#
# PCOD8316631 Si02
#       8
#    16  16  16  16   8  16  16  16
#     4  10  19  36  61  86 113 147 188 234 291 352
#     4  10  23  41  59  82 114 155 203 254 303 350
#     4  11  22  35  54  81 111 150 197 244 297 351
#     4  12  23  38  59  83 115 154 200 247 292 352
#     4   9  18  34  52  74 109 149 189 239 296 354
#     4  10  21  37  59  88 120 154 189 229 282 345
#     4  11  21  36  58  85 116 149 193 245 297 352
#     4  10  20  37  59  86 116 146 185 240 293 343
#
# _framework density 18.897472
#
# number of rings (size 3 to 8) (size 9 to 14) (size 15 to 20)
#    0.000    1.533    3.333    2.400    0.000    4.667 
#    0.000    2.000    0.000    1.600    0.000    0.000 
#    0.000    2.133    0.000    0.000    0.000    0.000 
#
# Total GULP energy -1487832.368318 kJ/mol
# GULP energy per Si atom -12398.603069 kJ/mol
# Density = 1.885446 g / cm^3
# Si number density = 18.897472 Si / 1000 Ang^3
#
#
#
# Elastic Constant Matrix: (Units=GPa)
#
#
# Indices 1 2 3 4 5 6 
#
# 1 75.8576 34.1644 35.0096 0.0000 0.0000 0.0000
# 2 34.1644 75.8576 35.0095 0.0000 0.0000 0.0000
# 3 35.0096 35.0095 104.5978 0.0000 0.0000 0.0000
# 4 0.0000 0.0000 0.0000 46.2516 0.0000 0.0000
# 5 0.0000 0.0000 0.0000 0.0000 46.2516 0.0000
# 6 0.0000 0.0000 0.0000 0.0000 0.0000 25.7430
#
#
#
# Elastic Compliance Matrix: (Units=1/GPa)
#
#
# Indices 1 2 3 4 5 6 
#
# 1 0.017767 -0.006218 -0.003866 0.000000 0.000000 0.000000
# 2 -0.006218 0.017767 -0.003866 0.000000 0.000000 0.000000
# 3 -0.003866 -0.003866 0.012148 0.000000 0.000000 0.000000
# 4 0.000000 0.000000 0.000000 0.021621 0.000000 0.000000
# 5 0.000000 0.000000 0.000000 0.000000 0.021621 0.000000
# 6 0.000000 0.000000 0.000000 0.000000 0.000000 0.038846
#
#
# Mechanical properties :
#
#
# Convention : Reuss Voigt Hill
#
# Bulk Modulus (GPa) = 50.54557 51.63113 51.08835
# Shear Modulus (GPa) = 30.43919 33.79120 32.11520
#
# Velocity S-wave (km/s) = 4.01778 4.23322 4.12690
# Velocity P-wave (km/s) = 6.95188 7.16063 7.05703
#
# Compressibility (1/GPa) = 0.01978413
#
# Stress axis : x y z
#
# Youngs Moduli (GPa) = 56.28425 56.28428 82.31735
#
# Poissons Ratio (x) = 0.34996 0.31821
# Poissons Ratio (y) = 0.34996 0.31820
# Poissons Ratio (z) = 0.21757 0.21757
#
# Static dielectric constant tensor:
#      x y z
#    x 3.559680 0.000000 0.000000 
#    y 0.000000 3.559680 0.000000 
#    z 0.000000 0.000000 3.812330 
# 
# 
# High freq. dielectric constant tensor:
#      x y z
#    x 1.730510 0.000000 0.000000 
#    y 0.000000 1.730510 0.000000 
#    z 0.000000 0.000000 1.735360 
# 
# From -- ./inp_files/11090.got.cif
#   From: 2010.03.12/outbox.cif.g09.slc.cpg/sg132_6_cif.got.tgz:11090.got - 2010.04.06 17:53:44.
