data_PCOD8316533
_publ_section_title
;
Structure prediction by ZEFSAII (Michael W. Deem and Ramdas Pophale) SiO2 
 PCOD8316533
Probable space group: P 42/M C M
;
_chemical_formula_sum "Si O2"
_cell_formula_units_Z 96
_cell_length_a 24.355876
_cell_length_b 24.355876
_cell_length_c 8.956437
_cell_angle_alpha 90.000000
_cell_angle_beta 90.000000
_cell_angle_gamma 90.000000
_cell_volume 5313.036311
_symmetry_space_group_name_H-M "P 42/M C M"
_symmetry_group_IT_number 132
_symmetry_cell_setting 'tetragonal'
loop_
_space_group_symop_operation_xyz
x,y,z
-y,x,1/2+z
-x,-y,z
y,-x,1/2+z
x,-y,1/2-z
-x,y,1/2-z
y,x,-z
-y,-x,-z
-x,-y,-z
y,-x,1/2-z
x,y,-z
-y,x,1/2-z
-x,y,1/2+z
x,-y,1/2+z
-y,-x,z
y,x,z
loop_
_atom_site_type_symbol
_atom_site_label
_atom_site_fract_x
_atom_site_fract_y
_atom_site_fract_z
Si Si1 0.944428 0.441704 0.177479
Si Si2 0.734303 0.352708 0.177769
Si Si3 0.265893 0.944224 0.176411
Si Si4 0.857297 0.351887 0.176013
Si Si5 0.054859 0.858463 0.824547
Si Si6 0.440943 0.352393 0.324258
O O1 0.932382 0.500000 0.250000
O O2 0.891705 0.405585 0.220373
O O3 0.000000 0.416523 0.250000
O O4 0.952618 0.446204 0.000000
O O5 0.701879 0.298122 0.232924
O O6 0.796005 0.353290 0.246870
O O7 0.701270 0.406984 0.230785
O O8 0.736366 0.352476 0.000000
O O9 0.299576 0.891600 0.235411
O O10 0.203579 0.933791 0.226733
O O11 0.288707 0.000000 0.250000
O O12 0.272815 0.951009 0.000000
O O13 0.850813 0.347509 0.000000
O O14 0.105863 0.894138 0.767668
O O15 0.000000 0.881928 0.750000
O O16 0.047187 0.862532 0.000000
O O17 0.500000 0.353665 0.250000
O O18 0.449423 0.349944 0.500000
O O19 0.406984 0.406984 0.279476
#
# Coordination Sequence:
#
# PCOD8316533 Si02
#       6
#    16  16  16  16  16  16
#     4  10  19  31  46  66  94 123 153 188 226 268
#     4   8  15  29  47  68  95 122 149 186 230 270
#     4   9  17  30  47  67  91 117 147 186 230 271
#     4   9  17  28  46  70  91 117 154 190 224 269
#     4   9  18  31  46  66  91 117 147 184 225 271
#     4   9  18  32  50  72  97 125 155 187 225 268
#
# _framework density 18.068764999999999
#
# number of rings (size 3 to 8) (size 9 to 14) (size 15 to 20)
#    0.000    3.000    0.000    2.500    0.000    2.333 
#    0.000    5.833    0.000    2.000    0.000    0.000 
#    0.000    0.000    0.000    0.000    0.000    0.000 
#
# Total GULP energy -1189895.077111 kJ/mol
# GULP energy per Si atom -12394.740387 kJ/mol
# Density = 1.802764 g / cm^3
# Si number density = 18.068765 Si / 1000 Ang^3
#
#
#
# Elastic Constant Matrix: (Units=GPa)
#
#
# Indices 1 2 3 4 5 6 
#
# 1 164.4942 94.7459 30.2651 0.0000 0.0000 0.0000
# 2 94.7459 164.4942 30.2651 0.0000 0.0000 0.0000
# 3 30.2651 30.2651 27.9590 0.0000 0.0000 0.0000
# 4 0.0000 0.0000 0.0000 20.2784 0.0000 0.0000
# 5 0.0000 0.0000 0.0000 0.0000 20.2784 0.0000
# 6 0.0000 0.0000 0.0000 0.0000 0.0000 25.5184
#
#
#
# Elastic Compliance Matrix: (Units=1/GPa)
#
#
# Indices 1 2 3 4 5 6 
#
# 1 0.009750 -0.004588 -0.005588 0.000000 0.000000 0.000000
# 2 -0.004588 0.009750 -0.005588 0.000000 0.000000 0.000000
# 3 -0.005588 -0.005588 0.047864 0.000000 0.000000 0.000000
# 4 0.000000 0.000000 0.000000 0.049314 0.000000 0.000000
# 5 0.000000 0.000000 0.000000 0.000000 0.049314 0.000000
# 6 0.000000 0.000000 0.000000 0.000000 0.000000 0.039187
#
#
# Mechanical properties :
#
#
# Convention : Reuss Voigt Hill
#
# Bulk Modulus (GPa) = 27.90419 74.16664 51.03542
# Shear Modulus (GPa) = 20.10852 26.65980 23.38416
#
# Velocity S-wave (km/s) = 3.33962 3.84534 3.60137
# Velocity P-wave (km/s) = 5.50886 7.80074 6.75274
#
# Compressibility (1/GPa) = 0.03583691
#
# Stress axis : x y z
#
# Youngs Moduli (GPa) = 102.56711 102.56711 20.89235
#
# Poissons Ratio (x) = 0.47053 0.11675
# Poissons Ratio (y) = 0.47053 0.11675
# Poissons Ratio (z) = 0.57314 0.57314
#
# Static dielectric constant tensor:
#      x y z
#    x 3.665790 0.000000 0.000000 
#    y 0.000000 3.665790 0.000000 
#    z 0.000000 0.000000 2.985890 
# 
# 
# High freq. dielectric constant tensor:
#      x y z
#    x 1.706290 0.000000 0.000000 
#    y 0.000000 1.706290 0.000000 
#    z 0.000000 0.000000 1.661250 
# 
# From -- ./inp_files/1763.got.cif
#   From: 2010.03.12/outbox.cif.g09.slc.cpg/sg132_1_cif.got.tgz:1763.got - 2010.04.06 17:53:44.
