data_PCOD8316927
_publ_section_title
;
Structure prediction by ZEFSAII (Michael W. Deem and Ramdas Pophale) SiO2 
 PCOD8316927
Probable space group: P 42/N B C
;
_chemical_formula_sum "Si O2"
_cell_formula_units_Z 112
_cell_length_a 14.911028
_cell_length_b 14.911028
_cell_length_c 27.890414
_cell_angle_alpha 90.000000
_cell_angle_beta 90.000000
_cell_angle_gamma 90.000000
_cell_volume 6201.119954
_symmetry_space_group_name_H-M "P 42/N B C"
_symmetry_group_IT_number 133
_space_group.IT_coordinate_system_code '2'
_symmetry_cell_setting 'tetragonal'
loop_
_space_group_symop_operation_xyz
x,y,z
1/2-y,x,1/2+z
1/2-x,1/2-y,z
y,1/2-x,1/2+z
x,1/2-y,-z
1/2-x,y,-z
y,x,1/2-z
1/2-y,1/2-x,1/2-z
-x,-y,-z
1/2+y,-x,1/2-z
1/2+x,1/2+y,-z
-y,1/2+x,1/2-z
-x,1/2+y,z
1/2+x,-y,z
-y,-x,1/2+z
1/2+y,1/2+x,1/2+z
loop_
_atom_site_type_symbol
_atom_site_label
_atom_site_fract_x
_atom_site_fract_y
_atom_site_fract_z
Si Si1 0.977423 0.234091 0.943503
Si Si2 0.236414 0.997417 0.947753
Si Si3 0.639041 0.152033 0.802911
Si Si4 0.849552 0.357668 0.194992
Si Si5 0.580061 0.430044 0.604378
Si Si6 0.197891 0.327985 0.449818
Si Si7 0.911766 0.058173 0.898734
O O1 0.959089 0.325861 0.917001
O O2 0.913086 0.152451 0.927603
O O3 0.075737 0.203659 0.925079
O O4 0.968160 0.250000 0.000000
O O5 0.198657 0.095932 0.956872
O O6 0.165815 0.940021 0.918293
O O7 0.329179 0.999804 0.918680
O O8 0.250000 0.952503 0.000000
O O9 0.743523 0.134906 0.812222
O O10 0.617677 0.256084 0.813175
O O11 0.611817 0.125318 0.748852
O O12 0.580824 0.090329 0.838375
O O13 0.899712 0.422463 0.157710
O O14 0.501243 0.499840 0.592689
O O15 0.250000 0.250000 0.419532
O O16 0.250000 0.336522 0.500000
#
# Coordination Sequence:
#
# PCOD8316927 Si02
#       7
#    16  16  16  16  16  16  16
#     4  11  24  39  56  83 122 161 196 244 289 340
#     4  12  24  38  58  87 120 160 204 247 286 350
#     4   9  18  37  63  85 110 148 192 243 303 369
#     4   9  18  37  63  85 110 148 192 243 305 363
#     4  12  24  38  60  90 118 153 203 247 300 354
#     4  10  19  38  60  76 109 163 211 234 277 339
#     4  12  24  38  60  90 119 153 202 249 299 352
#
# _framework density 18.061253000000001
#
# number of rings (size 3 to 8) (size 9 to 14) (size 15 to 20)
#    0.000    1.286    5.714    2.571    2.000    2.286 
#    0.000    1.429    0.000    0.000    0.000    0.000 
#    0.000    9.143    0.000    0.000    0.000    0.000 
#
# Total GULP energy -1388518.756875 kJ/mol
# GULP energy per Si atom -12397.488901 kJ/mol
# Density = 1.802014 g / cm^3
# Si number density = 18.061253 Si / 1000 Ang^3
#
#
#
# Elastic Constant Matrix: (Units=GPa)
#
#
# Indices 1 2 3 4 5 6 
#
# 1 81.8342 22.8247 40.6110 0.0000 0.0000 0.0000
# 2 22.8247 81.8342 40.6110 0.0000 0.0000 0.0000
# 3 40.6110 40.6110 118.5472 0.0000 0.0000 0.0000
# 4 0.0000 0.0000 0.0000 20.8257 0.0000 0.0000
# 5 0.0000 0.0000 0.0000 0.0000 20.8257 0.0000
# 6 0.0000 0.0000 0.0000 0.0000 0.0000 50.3680
#
#
#
# Elastic Compliance Matrix: (Units=1/GPa)
#
#
# Indices 1 2 3 4 5 6 
#
# 1 0.014981 -0.001966 -0.004459 0.000000 0.000000 0.000000
# 2 -0.001966 0.014981 -0.004459 0.000000 0.000000 0.000000
# 3 -0.004459 -0.004459 0.011490 0.000000 0.000000 0.000000
# 4 0.000000 0.000000 0.000000 0.048018 0.000000 0.000000
# 5 0.000000 0.000000 0.000000 0.000000 0.048018 0.000000
# 6 0.000000 0.000000 0.000000 0.000000 0.000000 0.019854
#
#
# Mechanical properties :
#
#
# Convention : Reuss Voigt Hill
#
# Bulk Modulus (GPa) = 50.79778 54.47879 52.63828
# Shear Modulus (GPa) = 26.92975 30.28183 28.60579
#
# Velocity S-wave (km/s) = 3.86557 4.09909 3.98404
# Velocity P-wave (km/s) = 6.93612 7.25481 7.09726
#
# Compressibility (1/GPa) = 0.01968590
#
# Stress axis : x y z
#
# Youngs Moduli (GPa) = 66.75251 66.75251 87.03048
#
# Poissons Ratio (x) = 0.13122 0.38803
# Poissons Ratio (y) = 0.13122 0.38803
# Poissons Ratio (z) = 0.29762 0.29762
#
# Static dielectric constant tensor:
#      x y z
#    x 3.461080 0.000000 0.000000 
#    y 0.000000 3.461080 0.000000 
#    z 0.000000 0.000000 3.409770 
# 
# 
# High freq. dielectric constant tensor:
#      x y z
#    x 1.700080 0.000000 0.000000 
#    y 0.000000 1.700080 0.000000 
#    z 0.000000 0.000000 1.690290 
# 
# From -- ./inp_files/7646.got.cif
#   From: 2010.03.12/outbox.cif.g09.slc.cpg/sg133_4_cif.got.tgz:7646.got - 2010.04.06 18:08:06.
