data_PCOD8316766
_publ_section_title
;
Structure prediction by ZEFSAII (Michael W. Deem and Ramdas Pophale) SiO2 
 PCOD8316766
Probable space group: P 42/M C M
;
_chemical_formula_sum "Si O2"
_cell_formula_units_Z 72
_cell_length_a 12.249006
_cell_length_b 12.249006
_cell_length_c 24.607334
_cell_angle_alpha 90.000000
_cell_angle_beta 90.000000
_cell_angle_gamma 90.000000
_cell_volume 3692.038820
_symmetry_space_group_name_H-M "P 42/M C M"
_symmetry_group_IT_number 132
_symmetry_cell_setting 'tetragonal'
loop_
_space_group_symop_operation_xyz
x,y,z
-y,x,1/2+z
-x,-y,z
y,-x,1/2+z
x,-y,1/2-z
-x,y,1/2-z
y,x,-z
-y,-x,-z
-x,-y,-z
y,-x,1/2-z
x,y,-z
-y,x,1/2-z
-x,y,1/2+z
x,-y,1/2+z
-y,-x,z
y,x,z
loop_
_atom_site_type_symbol
_atom_site_label
_atom_site_fract_x
_atom_site_fract_y
_atom_site_fract_z
Si Si1 0.676966 0.500000 0.250000
Si Si2 0.192601 0.367315 0.062107
Si Si3 0.980767 0.380838 0.872390
Si Si4 0.168134 0.999268 0.186477
Si Si5 0.256276 0.563577 0.133283
O O1 0.601831 0.398170 0.267937
O O2 0.750087 0.466612 0.197705
O O3 0.248583 0.248583 0.069956
O O4 0.063343 0.363033 0.076966
O O5 0.260914 0.452870 0.098500
O O6 0.200306 0.405957 0.000000
O O7 0.000000 0.500000 0.846649
O O8 0.011614 0.293576 0.827414
O O9 0.852153 0.370397 0.886320
O O10 0.112944 0.887057 0.163947
O O11 0.156939 0.000000 0.250000
O O12 0.102004 0.102004 0.161868
O O13 0.362874 0.637126 0.121339
#
# Coordination Sequence:
#
# PCOD8316766 Si02
#       5
#     8  16  16  16  16
#     4   9  18  34  55  80 116 156 187 219 266 330
#     4  10  22  40  60  80 105 143 189 232 275 327
#     4  10  21  34  52  77 108 141 174 215 268 327
#     4   9  18  33  53  76 103 138 180 224 267 314
#     4  10  21  36  57  86 115 145 182 226 277 327
#
# _framework density 19.501421000000001
#
# number of rings (size 3 to 8) (size 9 to 14) (size 15 to 20)
#    0.000    2.333    0.000    2.667    0.000    9.778 
#    0.000    6.667    0.000    2.000    0.000    7.778 
#    0.000    0.000    0.000    0.000    0.000    0.000 
#
# Total GULP energy -892147.144494 kJ/mol
# GULP energy per Si atom -12390.932562 kJ/mol
# Density = 1.945703 g / cm^3
# Si number density = 19.501421 Si / 1000 Ang^3
#
#
#
# Elastic Constant Matrix: (Units=GPa)
#
#
# Indices 1 2 3 4 5 6 
#
# 1 108.6979 49.4383 47.7899 0.0000 0.0000 0.0000
# 2 49.4383 108.6979 47.7899 0.0000 0.0000 0.0000
# 3 47.7899 47.7899 91.4632 0.0000 0.0000 0.0000
# 4 0.0000 0.0000 0.0000 26.9293 0.0000 0.0000
# 5 0.0000 0.0000 0.0000 0.0000 26.9293 0.0000
# 6 0.0000 0.0000 0.0000 0.0000 0.0000 20.9203
#
#
#
# Elastic Compliance Matrix: (Units=1/GPa)
#
#
# Indices 1 2 3 4 5 6 
#
# 1 0.013059 -0.003816 -0.004829 0.000000 0.000000 0.000000
# 2 -0.003816 0.013059 -0.004829 0.000000 0.000000 0.000000
# 3 -0.004829 -0.004829 0.015980 0.000000 0.000000 0.000000
# 4 0.000000 0.000000 0.000000 0.037134 0.000000 0.000000
# 5 0.000000 0.000000 0.000000 0.000000 0.037134 0.000000
# 6 0.000000 0.000000 0.000000 0.000000 0.000000 0.047800
#
#
# Mechanical properties :
#
#
# Convention : Reuss Voigt Hill
#
# Bulk Modulus (GPa) = 66.01531 66.54390 66.27961
# Shear Modulus (GPa) = 25.48873 25.87852 25.68362
#
# Velocity S-wave (km/s) = 3.61919 3.64676 3.63300
# Velocity P-wave (km/s) = 7.16867 7.20614 7.18743
#
# Compressibility (1/GPa) = 0.01514800
#
# Stress axis : x y z
#
# Youngs Moduli (GPa) = 76.57716 76.57716 62.57828
#
# Poissons Ratio (x) = 0.29223 0.30221
# Poissons Ratio (y) = 0.29223 0.30221
# Poissons Ratio (z) = 0.36981 0.36981
#
# Static dielectric constant tensor:
#      x y z
#    x 3.799100 0.000000 0.000000 
#    y 0.000000 3.799100 0.000000 
#    z 0.000000 0.000000 3.250560 
# 
# 
# High freq. dielectric constant tensor:
#      x y z
#    x 1.767530 0.000000 0.000000 
#    y 0.000000 1.767530 0.000000 
#    z 0.000000 0.000000 1.727620 
# 
# From -- ./inp_files/10451.got.cif
#   From: 2010.03.12/outbox.cif.g09.slc.cpg/sg132_6_cif.got.tgz:10451.got - 2010.04.06 17:53:44.
