data_PCOD8316337
_publ_section_title
;
Structure prediction by ZEFSAII (Michael W. Deem and Ramdas Pophale) SiO2 
 PCOD8316337
Probable space group: P 42/M M C
;
_chemical_formula_sum "Si O2"
_cell_formula_units_Z 64
_cell_length_a 13.692236
_cell_length_b 13.692236
_cell_length_c 19.290199
_cell_angle_alpha 90.000000
_cell_angle_beta 90.000000
_cell_angle_gamma 90.000000
_cell_volume 3616.474940
_symmetry_space_group_name_H-M "P 42/M M C"
_symmetry_group_IT_number 131
_symmetry_cell_setting 'tetragonal'
loop_
_space_group_symop_operation_xyz
x,y,z
-x,-y,z
-y,x,1/2+z
y,-x,1/2+z
-x,y,-z
x,-y,-z
y,x,1/2-z
-y,-x,1/2-z
-x,-y,-z
x,y,-z
y,-x,1/2-z
-y,x,1/2-z
x,-y,z
-x,y,z
-y,-x,1/2+z
y,x,1/2+z
loop_
_atom_site_type_symbol
_atom_site_label
_atom_site_fract_x
_atom_site_fract_y
_atom_site_fract_z
Si Si1 0.500000 0.107949 0.081452
Si Si2 0.382658 0.616920 0.000000
Si Si3 0.113634 0.000000 0.575248
Si Si4 0.253893 0.658103 0.629237
Si Si5 0.393457 0.606544 0.250000
Si Si6 0.172812 0.886043 0.825620
O O1 0.405193 0.163396 0.105638
O O2 0.500000 0.000000 0.114955
O O3 0.500000 0.099696 0.000000
O O4 0.331088 0.667989 0.933578
O O5 0.500000 0.638277 0.000000
O O6 0.362726 0.500000 0.000000
O O7 0.143295 0.905445 0.617337
O O8 0.166804 0.000000 0.500000
O O9 0.000000 0.000000 0.562830
O O10 0.310933 0.611066 0.692553
O O11 0.200361 0.752182 0.659067
O O12 0.500000 0.616385 0.286071
O O13 0.126412 0.873589 0.750000
O O14 0.208740 0.000000 0.833542
#
# Coordination Sequence:
#
# PCOD8316337 Si02
#       6
#     8   8   8  16   8  16
#     4  11  22  38  58  84 120 153 184 237 307 364
#     4  11  22  40  64  85 114 155 199 248 307 363
#     4   9  20  36  58  86 112 148 201 248 286 336
#     4  12  21  38  56  87 117 148 196 239 299 360
#     4  11  22  36  58  82 111 146 192 250 291 336
#     4  11  22  37  59  84 120 161 195 241 302 360
#
# _framework density 17.696788999999999
#
# number of rings (size 3 to 8) (size 9 to 14) (size 15 to 20)
#    0.000    1.000    6.250    1.500    1.750    2.000 
#    0.000    0.000    0.000    0.000    0.000    3.500 
#    0.000    0.000    0.000    0.000    0.000    0.000 
#
# Total GULP energy -792899.240808 kJ/mol
# GULP energy per Si atom -12389.050638 kJ/mol
# Density = 1.765651 g / cm^3
# Si number density = 17.696789 Si / 1000 Ang^3
#
#
#
# Elastic Constant Matrix: (Units=GPa)
#
#
# Indices 1 2 3 4 5 6 
#
# 1 101.1296 44.2212 36.4053 0.0000 0.0000 0.0000
# 2 44.2212 101.1294 36.4060 0.0000 0.0000 0.0000
# 3 36.4053 36.4060 110.2735 0.0000 0.0000 0.0000
# 4 0.0000 0.0000 0.0000 54.8661 0.0000 0.0000
# 5 0.0000 0.0000 0.0000 0.0000 54.8241 0.0000
# 6 0.0000 0.0000 0.0000 0.0000 0.0000 33.2066
#
#
#
# Elastic Compliance Matrix: (Units=1/GPa)
#
#
# Indices 1 2 3 4 5 6 
#
# 1 0.012908 -0.004664 -0.002721 0.000000 0.000000 0.000000
# 2 -0.004664 0.012908 -0.002721 0.000000 0.000000 0.000000
# 3 -0.002721 -0.002721 0.010865 0.000000 0.000000 0.000000
# 4 0.000000 0.000000 0.000000 0.018226 0.000000 0.000000
# 5 0.000000 0.000000 0.000000 0.000000 0.018240 0.000000
# 6 0.000000 0.000000 0.000000 0.000000 0.000000 0.030115
#
#
# Mechanical properties :
#
#
# Convention : Reuss Voigt Hill
#
# Bulk Modulus (GPa) = 60.73130 60.73308 60.73219
# Shear Modulus (GPa) = 38.77033 41.61269 40.19151
#
# Velocity S-wave (km/s) = 4.68569 4.85441 4.77080
# Velocity P-wave (km/s) = 7.97912 8.11256 8.04612
#
# Compressibility (1/GPa) = 0.01646597
#
# Stress axis : x y z
#
# Youngs Moduli (GPa) = 77.47378 77.47316 92.03658
#
# Poissons Ratio (x) = 0.36137 0.25046
# Poissons Ratio (y) = 0.36138 0.25047
# Poissons Ratio (z) = 0.21083 0.21084
#
# Static dielectric constant tensor:
#      x y z
#    x 3.362980 0.000000 0.000000 
#    y 0.000000 3.362980 0.000000 
#    z 0.000000 0.000000 3.614340 
# 
# 
# High freq. dielectric constant tensor:
#      x y z
#    x 1.681980 0.000000 0.000000 
#    y 0.000000 1.681980 0.000000 
#    z 0.000000 0.000000 1.697290 
# 
# From -- ./inp_files/7474.got.cif
#   From: 2010.03.12/outbox.cif.g09.slc.cpg/sg131_4_cif.got.tgz:7474.got - 2010.04.06 17:36:35.
