data_PCOD8316792
_publ_section_title
;
Structure prediction by ZEFSAII (Michael W. Deem and Ramdas Pophale) SiO2 
 PCOD8316792
Probable space group: P 42/M C M
;
_chemical_formula_sum "Si O2"
_cell_formula_units_Z 104
_cell_length_a 15.875054
_cell_length_b 15.875054
_cell_length_c 20.669740
_cell_angle_alpha 90.000000
_cell_angle_beta 90.000000
_cell_angle_gamma 90.000000
_cell_volume 5209.132883
_symmetry_space_group_name_H-M "P 42/M C M"
_symmetry_group_IT_number 132
_symmetry_cell_setting 'tetragonal'
loop_
_space_group_symop_operation_xyz
x,y,z
-y,x,1/2+z
-x,-y,z
y,-x,1/2+z
x,-y,1/2-z
-x,y,1/2-z
y,x,-z
-y,-x,-z
-x,-y,-z
y,-x,1/2-z
x,y,-z
-y,x,1/2-z
-x,y,1/2+z
x,-y,1/2+z
-y,-x,z
y,x,z
loop_
_atom_site_type_symbol
_atom_site_label
_atom_site_fract_x
_atom_site_fract_y
_atom_site_fract_z
Si Si1 0.077248 0.563090 0.428674
Si Si2 0.140994 0.722781 0.230065
Si Si3 0.482906 0.739873 0.074762
Si Si4 0.976101 0.287572 0.654125
Si Si5 0.870319 0.998621 0.424150
Si Si6 0.412032 0.277411 0.711621
Si Si7 0.566665 0.566665 0.925371
O O1 0.074244 0.604769 0.500000
O O2 0.168493 0.522717 0.418661
O O3 0.000000 0.500000 0.421850
O O4 0.066143 0.628834 0.372068
O O5 0.196434 0.803567 0.208069
O O6 0.070354 0.695289 0.178862
O O7 0.200838 0.642495 0.240713
O O8 0.089605 0.748765 0.294080
O O9 0.415409 0.733950 0.133028
O O10 0.548313 0.664326 0.091827
O O11 0.447294 0.728576 0.000000
O O12 0.987551 0.224234 0.595842
O O13 0.873978 0.003750 0.500000
O O14 0.908408 0.908408 0.400709
O O15 0.928005 0.071996 0.393836
O O16 0.500000 0.277764 0.750000
O O17 0.365704 0.365704 0.726124
O O18 0.500000 0.500000 0.891636
O O19 0.553029 0.553029 0.000000
#
# Coordination Sequence:
#
# PCOD8316792 Si02
#       7
#    16  16  16  16  16  16   8
#     4  10  21  37  58  86 118 152 194 242 294 355
#     4  10  23  39  56  82 113 149 195 248 292 345
#     4  10  21  39  62  88 119 157 201 250 298 357
#     4  11  20  36  60  80 110 153 198 237 290 355
#     4   9  18  33  54  83 117 149 185 236 295 353
#     4  11  24  41  60  85 119 153 192 241 300 362
#     4   9  18  34  58  86 116 152 196 248 302 358
#
# _framework density 19.964936000000002
#
# number of rings (size 3 to 8) (size 9 to 14) (size 15 to 20)
#    0.000    1.923    0.000    4.154    1.077    1.077 
#    2.769    2.308    0.000    5.538    0.000    0.000 
#    0.000    0.000    0.000    0.000    0.000    0.000 
#
# Total GULP energy -1288513.074242 kJ/mol
# GULP energy per Si atom -12389.548791 kJ/mol
# Density = 1.991950 g / cm^3
# Si number density = 19.964936 Si / 1000 Ang^3
#
#
#
# Elastic Constant Matrix: (Units=GPa)
#
#
# Indices 1 2 3 4 5 6 
#
# 1 120.2906 51.8150 28.6424 0.0000 0.0000 0.0000
# 2 51.8150 120.2906 28.6424 0.0000 0.0000 0.0000
# 3 28.6424 28.6424 66.6695 0.0000 0.0000 0.0000
# 4 0.0000 0.0000 0.0000 29.2405 0.0000 0.0000
# 5 0.0000 0.0000 0.0000 0.0000 29.2405 0.0000
# 6 0.0000 0.0000 0.0000 0.0000 0.0000 21.6034
#
#
#
# Elastic Compliance Matrix: (Units=1/GPa)
#
#
# Indices 1 2 3 4 5 6 
#
# 1 0.010692 -0.003912 -0.002913 0.000000 0.000000 0.000000
# 2 -0.003912 0.010692 -0.002913 0.000000 0.000000 0.000000
# 3 -0.002913 -0.002913 0.017502 0.000000 0.000000 0.000000
# 4 0.000000 0.000000 0.000000 0.034199 0.000000 0.000000
# 5 0.000000 0.000000 0.000000 0.000000 0.034199 0.000000
# 6 0.000000 0.000000 0.000000 0.000000 0.000000 0.046289
#
#
# Mechanical properties :
#
#
# Convention : Reuss Voigt Hill
#
# Bulk Modulus (GPa) = 51.51758 58.38336 54.95047
# Shear Modulus (GPa) = 27.85232 29.22693 28.53963
#
# Velocity S-wave (km/s) = 3.73910 3.83026 3.78496
# Velocity P-wave (km/s) = 6.67093 6.99054 6.83260
#
# Compressibility (1/GPa) = 0.01941085
#
# Stress axis : x y z
#
# Youngs Moduli (GPa) = 93.52950 93.52950 57.13602
#
# Poissons Ratio (x) = 0.36588 0.16642
# Poissons Ratio (y) = 0.36588 0.16642
# Poissons Ratio (z) = 0.27243 0.27243
#
# Static dielectric constant tensor:
#      x y z
#    x 3.810070 0.000000 0.000000 
#    y 0.000000 3.810070 0.000000 
#    z 0.000000 0.000000 3.701720 
# 
# 
# High freq. dielectric constant tensor:
#      x y z
#    x 1.781040 0.000000 0.000000 
#    y 0.000000 1.781040 0.000000 
#    z 0.000000 0.000000 1.778420 
# 
# From -- ./inp_files/9123.got.cif
#   From: 2010.03.12/outbox.cif.g09.slc.cpg/sg132_5_cif.got.tgz:9123.got - 2010.04.06 17:53:44.
