data_PCOD8316660
_publ_section_title
;
Structure prediction by ZEFSAII (Michael W. Deem and Ramdas Pophale) SiO2 
 PCOD8316660
Probable space group: P 42/M C M
;
_chemical_formula_sum "Si O2"
_cell_formula_units_Z 112
_cell_length_a 14.434817
_cell_length_b 14.434817
_cell_length_c 30.247920
_cell_angle_alpha 90.000000
_cell_angle_beta 90.000000
_cell_angle_gamma 90.000000
_cell_volume 6302.575843
_symmetry_space_group_name_H-M "P 42/M C M"
_symmetry_group_IT_number 132
_symmetry_cell_setting 'tetragonal'
loop_
_space_group_symop_operation_xyz
x,y,z
-y,x,1/2+z
-x,-y,z
y,-x,1/2+z
x,-y,1/2-z
-x,y,1/2-z
y,x,-z
-y,-x,-z
-x,-y,-z
y,-x,1/2-z
x,y,-z
-y,x,1/2-z
-x,y,1/2+z
x,-y,1/2+z
-y,-x,z
y,x,z
loop_
_atom_site_type_symbol
_atom_site_label
_atom_site_fract_x
_atom_site_fract_y
_atom_site_fract_z
Si Si1 0.077357 0.225118 0.187693
Si Si2 0.526301 0.671919 0.135314
Si Si3 0.574577 0.718751 0.549940
Si Si4 0.270004 0.124093 0.285625
Si Si5 0.474738 0.900277 0.551076
Si Si6 0.267153 0.415184 0.283957
Si Si7 0.670833 0.183292 0.386603
O O1 0.119249 0.119249 0.183329
O O2 0.113754 0.267036 0.233104
O O3 0.109758 0.286596 0.146922
O O4 0.966766 0.236092 0.188125
O O5 0.574377 0.574377 0.146193
O O6 0.488791 0.665041 0.085127
O O7 0.444619 0.688860 0.169588
O O8 0.598492 0.755524 0.141040
O O9 0.538960 0.697014 0.500000
O O10 0.681314 0.681314 0.554776
O O11 0.561400 0.829180 0.558820
O O12 0.199917 0.199917 0.303859
O O13 0.373785 0.164001 0.294287
O O14 0.450543 0.911143 0.500000
O O15 0.379918 0.867016 0.573289
O O16 0.500000 0.000000 0.571672
O O17 0.260469 0.500000 0.250000
O O18 0.334689 0.334689 0.263947
O O19 0.751120 0.248881 0.406742
#
# Coordination Sequence:
#
# PCOD8316660 Si02
#       7
#    16  16  16  16  16  16  16
#     4   9  17  32  53  74  96 122 156 196 243 301
#     4  10  20  33  48  67  93 127 168 206 239 281
#     4   9  18  32  49  70  96 123 154 200 253 294
#     4   9  19  34  50  71  99 127 156 198 249 295
#     4   9  18  32  50  73 100 130 165 202 240 289
#     4  11  22  34  47  65  95 133 170 205 239 279
#     4   9  18  32  50  71  96 127 160 200 247 289
#
# _framework density 17.770512
#
# number of rings (size 3 to 8) (size 9 to 14) (size 15 to 20)
#    0.000    2.571    0.000    1.714    0.000    7.286 
#    0.000    9.286    0.000    0.000    0.000    0.000 
#    0.000    0.000    0.000    8.714    0.000    0.429 
#
# Total GULP energy -1387639.809087 kJ/mol
# GULP energy per Si atom -12389.641153 kJ/mol
# Density = 1.773007 g / cm^3
# Si number density = 17.770512 Si / 1000 Ang^3
#
#
#
# Elastic Constant Matrix: (Units=GPa)
#
#
# Indices 1 2 3 4 5 6 
#
# 1 117.4639 71.1017 41.5439 0.0000 0.0000 0.0000
# 2 71.1017 117.4639 41.5439 0.0000 0.0000 0.0000
# 3 41.5439 41.5439 65.4765 0.0000 0.0000 0.0000
# 4 0.0000 0.0000 0.0000 22.4558 0.0000 0.0000
# 5 0.0000 0.0000 0.0000 0.0000 22.4558 0.0000
# 6 0.0000 0.0000 0.0000 0.0000 0.0000 24.1003
#
#
#
# Elastic Compliance Matrix: (Units=1/GPa)
#
#
# Indices 1 2 3 4 5 6 
#
# 1 0.014465 -0.007104 -0.004671 0.000000 0.000000 0.000000
# 2 -0.007104 0.014465 -0.004671 0.000000 0.000000 0.000000
# 3 -0.004671 -0.004671 0.021199 0.000000 0.000000 0.000000
# 4 0.000000 0.000000 0.000000 0.044532 0.000000 0.000000
# 5 0.000000 0.000000 0.000000 0.000000 0.044532 0.000000
# 6 0.000000 0.000000 0.000000 0.000000 0.000000 0.041493
#
#
# Mechanical properties :
#
#
# Convention : Reuss Voigt Hill
#
# Bulk Modulus (GPa) = 58.00605 67.64257 62.82431
# Shear Modulus (GPa) = 22.79734 23.55005 23.17369
#
# Velocity S-wave (km/s) = 3.58561 3.64432 3.61509
# Velocity P-wave (km/s) = 7.06079 7.47364 7.27014
#
# Compressibility (1/GPa) = 0.01723958
#
# Stress axis : x y z
#
# Youngs Moduli (GPa) = 69.13128 69.13128 47.17101
#
# Poissons Ratio (x) = 0.49111 0.22032
# Poissons Ratio (y) = 0.49111 0.22032
# Poissons Ratio (z) = 0.32288 0.32288
#
# Static dielectric constant tensor:
#      x y z
#    x 3.459790 0.000000 0.000000 
#    y 0.000000 3.459790 0.000000 
#    z 0.000000 0.000000 3.148020 
# 
# 
# High freq. dielectric constant tensor:
#      x y z
#    x 1.682070 0.000000 0.000000 
#    y 0.000000 1.682070 0.000000 
#    z 0.000000 0.000000 1.678720 
# 
# From -- ./inp_files/10054.got.cif
#   From: 2010.03.12/outbox.cif.g09.slc.cpg/sg132_6_cif.got.tgz:10054.got - 2010.04.06 17:53:44.
