data_PCOD8316414
_publ_section_title
;
Structure prediction by ZEFSAII (Michael W. Deem and Ramdas Pophale) SiO2 
 PCOD8316414
Probable space group: P 42/M C M
;
_chemical_formula_sum "Si O2"
_cell_formula_units_Z 96
_cell_length_a 25.525954
_cell_length_b 25.525954
_cell_length_c 8.811684
_cell_angle_alpha 90.000000
_cell_angle_beta 90.000000
_cell_angle_gamma 90.000000
_cell_volume 5741.467077
_symmetry_space_group_name_H-M "P 42/M C M"
_symmetry_group_IT_number 132
_symmetry_cell_setting 'tetragonal'
loop_
_space_group_symop_operation_xyz
x,y,z
-y,x,1/2+z
-x,-y,z
y,-x,1/2+z
x,-y,1/2-z
-x,y,1/2-z
y,x,-z
-y,-x,-z
-x,-y,-z
y,-x,1/2-z
x,y,-z
-y,x,1/2-z
-x,y,1/2+z
x,-y,1/2+z
-y,-x,z
y,x,z
loop_
_atom_site_type_symbol
_atom_site_label
_atom_site_fract_x
_atom_site_fract_y
_atom_site_fract_z
Si Si1 0.757566 0.948097 0.179268
Si Si2 0.639998 0.835565 0.323974
Si Si3 0.356146 0.049383 0.323117
Si Si4 0.756670 0.445404 0.179927
Si Si5 0.445706 0.637794 0.821028
Si Si6 0.757551 0.842599 0.678814
O O1 0.697659 0.948102 0.231652
O O2 0.782564 0.894121 0.242311
O O3 0.785529 0.000000 0.250000
O O4 0.762991 0.949970 0.000000
O O5 0.644161 0.822107 0.500000
O O6 0.616046 0.894275 0.299154
O O7 0.600502 0.793397 0.250235
O O8 0.698906 0.831027 0.256843
O O9 0.345168 0.039149 0.500000
O O10 0.388507 0.000000 0.250000
O O11 0.775732 0.500000 0.250000
O O12 0.697149 0.432959 0.229733
O O13 0.762272 0.449433 0.000000
O O14 0.500000 0.618118 0.750000
O O15 0.399010 0.600991 0.760457
O O16 0.451238 0.633883 0.000000
O O17 0.755427 0.853682 0.500000
O O18 0.792982 0.792982 0.720271
#
# Coordination Sequence:
#
# PCOD8316414 Si02
#       6
#    16  16  16  16  16  16
#     4  10  17  26  41  60  85 117 152 185 218 258
#     4   8  15  27  44  64  85 112 144 177 215 261
#     4   9  15  25  41  62  85 109 141 179 220 261
#     4   9  17  31  48  65  86 112 145 182 216 254
#     4   9  18  31  47  67  88 110 137 170 209 253
#     4   9  17  29  44  64  91 119 146 179 222 268
#
# _framework density 16.720464
#
# number of rings (size 3 to 8) (size 9 to 14) (size 15 to 20)
#    0.000    3.000    0.000    4.000    0.000    1.500 
#    0.000    8.333    0.000    0.500    0.000   10.500 
#    0.000    0.333    0.000    3.500    0.000    1.667 
#
# Total GULP energy -1189507.819943 kJ/mol
# GULP energy per Si atom -12390.706458 kJ/mol
# Density = 1.668241 g / cm^3
# Si number density = 16.720464 Si / 1000 Ang^3
#
#
#
# Elastic Constant Matrix: (Units=GPa)
#
#
# Indices 1 2 3 4 5 6 
#
# 1 109.2517 74.0764 32.0726 0.0000 0.0000 0.0000
# 2 74.0764 109.2517 32.0726 0.0000 0.0000 0.0000
# 3 32.0726 32.0726 53.0472 0.0000 0.0000 0.0000
# 4 0.0000 0.0000 0.0000 20.7357 0.0000 0.0000
# 5 0.0000 0.0000 0.0000 0.0000 20.7357 0.0000
# 6 0.0000 0.0000 0.0000 0.0000 0.0000 5.7868
#
#
#
# Elastic Compliance Matrix: (Units=1/GPa)
#
#
# Indices 1 2 3 4 5 6 
#
# 1 0.017674 -0.010755 -0.004183 0.000000 0.000000 0.000000
# 2 -0.010755 0.017674 -0.004183 0.000000 0.000000 0.000000
# 3 -0.004183 -0.004183 0.023909 0.000000 0.000000 0.000000
# 4 0.000000 0.000000 0.000000 0.048226 0.000000 0.000000
# 5 0.000000 0.000000 0.000000 0.000000 0.048226 0.000000
# 6 0.000000 0.000000 0.000000 0.000000 0.000000 0.172807
#
#
# Mechanical properties :
#
#
# Convention : Reuss Voigt Hill
#
# Bulk Modulus (GPa) = 47.58663 60.88818 54.23741
# Shear Modulus (GPa) = 13.37749 18.34025 15.85887
#
# Velocity S-wave (km/s) = 2.83161 3.31550 3.08307
# Velocity P-wave (km/s) = 6.26200 7.15200 6.72175
#
# Compressibility (1/GPa) = 0.02101430
#
# Stress axis : x y z
#
# Youngs Moduli (GPa) = 56.58136 56.58136 41.82522
#
# Poissons Ratio (x) = 0.60856 0.17495
# Poissons Ratio (y) = 0.60856 0.17495
# Poissons Ratio (z) = 0.23667 0.23667
#
# Static dielectric constant tensor:
#      x y z
#    x 3.436390 0.000000 0.000000 
#    y 0.000000 3.436390 0.000000 
#    z 0.000000 0.000000 3.031640 
# 
# 
# High freq. dielectric constant tensor:
#      x y z
#    x 1.628690 0.000000 0.000000 
#    y 0.000000 1.628690 0.000000 
#    z 0.000000 0.000000 1.630660 
# 
# From -- ./inp_files/1929.got.cif
#   From: 2010.03.12/outbox.cif.g09.slc.cpg/sg132_1_cif.got.tgz:1929.got - 2010.04.06 17:53:44.
