data_PCOD8316292
_publ_section_title
;
Structure prediction by ZEFSAII (Michael W. Deem and Ramdas Pophale) SiO2 
 PCOD8316292
Probable space group: P 42/M M C
;
_chemical_formula_sum "Si O2"
_cell_formula_units_Z 58
_cell_length_a 12.216626
_cell_length_b 12.216626
_cell_length_c 19.558388
_cell_angle_alpha 90.000000
_cell_angle_beta 90.000000
_cell_angle_gamma 90.000000
_cell_volume 2919.010214
_symmetry_space_group_name_H-M "P 42/M M C"
_symmetry_group_IT_number 131
_symmetry_cell_setting 'tetragonal'
loop_
_space_group_symop_operation_xyz
x,y,z
-x,-y,z
-y,x,1/2+z
y,-x,1/2+z
-x,y,-z
x,-y,-z
y,x,1/2-z
-y,-x,1/2-z
-x,-y,-z
x,y,-z
y,-x,1/2-z
-y,x,1/2-z
x,-y,z
-x,y,z
-y,-x,1/2+z
y,x,1/2+z
loop_
_atom_site_type_symbol
_atom_site_label
_atom_site_fract_x
_atom_site_fract_y
_atom_site_fract_z
Si Si1 0.711084 0.229937 0.080452
Si Si2 0.127847 0.267482 0.196473
Si Si3 0.500000 0.500000 0.250000
Si Si4 0.500000 0.309776 0.140097
Si Si5 0.371256 0.000000 0.077255
Si Si6 0.500000 0.123164 0.759238
O O1 0.821155 0.259393 0.120776
O O2 0.610990 0.315905 0.094808
O O3 0.677808 0.110185 0.110187
O O4 0.736060 0.232165 0.000000
O O5 0.188999 0.188999 0.250000
O O6 0.147346 0.393472 0.214689
O O7 0.000000 0.235643 0.194128
O O8 0.500000 0.396013 0.201155
O O9 0.500000 0.191096 0.172534
O O10 0.500000 0.000000 0.079959
O O11 0.330322 0.000000 0.000000
O O12 0.500000 0.000000 0.787661
#
# Coordination Sequence:
#
# PCOD8316292 Si02
#       6
#    16  16   2   8   8   8
#     4  11  23  39  63  95 127 161 208 263 317 369
#     4  11  24  42  64  91 125 166 211 256 311 379
#     4  12  28  40  54  92 140 176 198 240 328 408
#     4  12  21  38  63  87 126 161 203 258 313 370
#     4   9  18  34  59  91 123 157 203 257 306 358
#     4  10  22  41  67  91 113 156 215 263 299 349
#
# _framework density 19.86975
#
# number of rings (size 3 to 8) (size 9 to 14) (size 15 to 20)
#    0.000    1.241    4.138    2.069    3.862    0.828 
#    0.000    3.448    0.000    4.966    0.000    0.000 
#    0.000    0.000    0.000    0.000    0.000    0.000 
#
# Total GULP energy -719012.632637 kJ/mol
# GULP energy per Si atom -12396.769528 kJ/mol
# Density = 1.982453 g / cm^3
# Si number density = 19.869750 Si / 1000 Ang^3
#
#
#
# Elastic Constant Matrix: (Units=GPa)
#
#
# Indices 1 2 3 4 5 6 
#
# 1 107.1420 53.9690 50.2603 0.0000 0.0000 0.0000
# 2 53.9690 107.1420 50.2603 0.0000 0.0000 0.0000
# 3 50.2603 50.2603 114.8384 0.0000 0.0000 0.0000
# 4 0.0000 0.0000 0.0000 28.8424 0.0000 0.0000
# 5 0.0000 0.0000 0.0000 0.0000 28.8424 0.0000
# 6 0.0000 0.0000 0.0000 0.0000 0.0000 26.7365
#
#
#
# Elastic Compliance Matrix: (Units=1/GPa)
#
#
# Indices 1 2 3 4 5 6 
#
# 1 0.013673 -0.005134 -0.003737 0.000000 0.000000 0.000000
# 2 -0.005134 0.013673 -0.003737 0.000000 0.000000 0.000000
# 3 -0.003737 -0.003737 0.011979 0.000000 0.000000 0.000000
# 4 0.000000 0.000000 0.000000 0.034671 0.000000 0.000000
# 5 0.000000 0.000000 0.000000 0.000000 0.034671 0.000000
# 6 0.000000 0.000000 0.000000 0.000000 0.000000 0.037402
#
#
# Mechanical properties :
#
#
# Convention : Reuss Voigt Hill
#
# Bulk Modulus (GPa) = 70.88153 70.90016 70.89084
# Shear Modulus (GPa) = 28.41119 28.52643 28.46881
#
# Velocity S-wave (km/s) = 3.78547 3.79314 3.78930
# Velocity P-wave (km/s) = 7.40654 7.41241 7.40947
#
# Compressibility (1/GPa) = 0.01410805
#
# Stress axis : x y z
#
# Youngs Moduli (GPa) = 73.13949 73.13949 83.47988
#
# Poissons Ratio (x) = 0.37550 0.31196
# Poissons Ratio (y) = 0.37550 0.31196
# Poissons Ratio (z) = 0.27332 0.27332
#
# Static dielectric constant tensor:
#      x y z
#    x 3.927440 0.000000 0.000000 
#    y 0.000000 3.927440 0.000000 
#    z 0.000000 0.000000 3.587340 
# 
# 
# High freq. dielectric constant tensor:
#      x y z
#    x 1.773580 0.000000 0.000000 
#    y 0.000000 1.773580 0.000000 
#    z 0.000000 0.000000 1.779600 
# 
# From -- ./inp_files/9212.got.cif
#   From: 2010.03.12/outbox.cif.g09.slc.cpg/sg131_5_cif.got.tgz:9212.got - 2010.04.06 17:36:35.
