data_PCOD8316871
_publ_section_title
;
Structure prediction by ZEFSAII (Michael W. Deem and Ramdas Pophale) SiO2 
 PCOD8316871
Probable space group: P 42/M C M
;
_chemical_formula_sum "Si O2"
_cell_formula_units_Z 96
_cell_length_a 25.935283
_cell_length_b 25.935283
_cell_length_c 9.528781
_cell_angle_alpha 90.000000
_cell_angle_beta 90.000000
_cell_angle_gamma 90.000000
_cell_volume 6409.428811
_symmetry_space_group_name_H-M "P 42/M C M"
_symmetry_group_IT_number 132
_symmetry_cell_setting 'tetragonal'
loop_
_space_group_symop_operation_xyz
x,y,z
-y,x,1/2+z
-x,-y,z
y,-x,1/2+z
x,-y,1/2-z
-x,y,1/2-z
y,x,-z
-y,-x,-z
-x,-y,-z
y,-x,1/2-z
x,y,-z
-y,x,1/2-z
-x,y,1/2+z
x,-y,1/2+z
-y,-x,z
y,x,z
loop_
_atom_site_type_symbol
_atom_site_label
_atom_site_fract_x
_atom_site_fract_y
_atom_site_fract_z
Si Si1 0.243837 0.838383 0.167404
Si Si2 0.453636 0.065629 0.155023
Si Si3 0.752382 0.953442 0.660159
Si Si4 0.366001 0.940311 0.849512
Si Si5 0.188281 0.548952 0.340222
Si Si6 0.819388 0.643168 0.656579
O O1 0.197951 0.802050 0.222696
O O2 0.232977 0.896774 0.221785
O O3 0.298530 0.814619 0.219205
O O4 0.246693 0.841037 0.000000
O O5 0.500000 0.045213 0.250000
O O6 0.401131 0.041634 0.219386
O O7 0.452407 0.127020 0.152277
O O8 0.460561 0.043311 0.000000
O O9 0.771355 0.959081 0.500000
O O10 0.691322 0.960104 0.673306
O O11 0.778157 0.000000 0.750000
O O12 0.369087 0.879078 0.857077
O O13 0.387076 0.960847 0.000000
O O14 0.208677 0.500000 0.250000
O O15 0.210572 0.547306 0.500000
O O16 0.206768 0.601728 0.262221
O O17 0.794235 0.638833 0.500000
#
# Coordination Sequence:
#
# PCOD8316871 Si02
#       6
#    16  16  16  16  16  16
#     4   8  14  26  44  63  81 103 131 158 185 225
#     4   9  15  21  31  47  65  87 115 148 185 221
#     4   9  17  28  43  61  79  99 121 147 179 217
#     4   8  14  24  35  48  67  90 116 145 178 216
#     4   9  15  21  30  46  69  95 123 155 190 227
#     4   8  13  22  36  52  70  93 122 155 188 222
#
# _framework density 14.977933999999999
#
# number of rings (size 3 to 8) (size 9 to 14) (size 15 to 20)
#    0.000    3.500    0.000    3.000    0.000    4.667 
#    0.000    2.500    0.000    2.500    0.000    3.500 
#    0.000    0.333    0.000    4.167    0.000    0.000 
#
# Total GULP energy -1189346.095769 kJ/mol
# GULP energy per Si atom -12389.021831 kJ/mol
# Density = 1.494384 g / cm^3
# Si number density = 14.977934 Si / 1000 Ang^3
#
#
#
# Elastic Constant Matrix: (Units=GPa)
#
#
# Indices 1 2 3 4 5 6 
#
# 1 54.7279 31.9436 31.8905 0.0000 0.0000 0.0000
# 2 31.9436 54.7279 31.8905 0.0000 0.0000 0.0000
# 3 31.8905 31.8905 96.6111 0.0000 0.0000 0.0000
# 4 0.0000 0.0000 0.0000 10.1593 0.0000 0.0000
# 5 0.0000 0.0000 0.0000 0.0000 10.1593 0.0000
# 6 0.0000 0.0000 0.0000 0.0000 0.0000 1.7413
#
#
#
# Elastic Compliance Matrix: (Units=1/GPa)
#
#
# Indices 1 2 3 4 5 6 
#
# 1 0.029565 -0.014325 -0.005031 0.000000 0.000000 0.000000
# 2 -0.014325 0.029565 -0.005031 0.000000 0.000000 0.000000
# 3 -0.005031 -0.005031 0.013672 0.000000 0.000000 0.000000
# 4 0.000000 0.000000 0.000000 0.098432 0.000000 0.000000
# 5 0.000000 0.000000 0.000000 0.000000 0.098432 0.000000
# 6 0.000000 0.000000 0.000000 0.000000 0.000000 0.574275
#
#
# Mechanical properties :
#
#
# Convention : Reuss Voigt Hill
#
# Bulk Modulus (GPa) = 41.61589 44.16845 42.89217
# Shear Modulus (GPa) = 5.55109 11.76812 8.65961
#
# Velocity S-wave (km/s) = 1.92723 2.80607 2.40710
# Velocity P-wave (km/s) = 5.72690 6.32864 6.03528
#
# Compressibility (1/GPa) = 0.02402928
#
# Stress axis : x y z
#
# Youngs Moduli (GPa) = 33.82401 33.82401 73.14310
#
# Poissons Ratio (x) = 0.48453 0.36795
# Poissons Ratio (y) = 0.48453 0.36795
# Poissons Ratio (z) = 0.17015 0.17015
#
# Static dielectric constant tensor:
#      x y z
#    x 2.692140 0.000000 0.000000 
#    y 0.000000 2.692140 0.000000 
#    z 0.000000 0.000000 3.163420 
# 
# 
# High freq. dielectric constant tensor:
#      x y z
#    x 1.530610 0.000000 0.000000 
#    y 0.000000 1.530610 0.000000 
#    z 0.000000 0.000000 1.572170 
# 
# From -- ./inp_files/1960.got.cif
#   From: 2010.03.12/outbox.cif.g09.slc.cpg/sg132_1_cif.got.tgz:1960.got - 2010.04.06 17:53:44.
