data_PCOD8316385
_publ_section_title
;
Structure prediction by ZEFSAII (Michael W. Deem and Ramdas Pophale) SiO2 
 PCOD8316385
Probable space group: P 42/M M C
;
_chemical_formula_sum "Si O2"
_cell_formula_units_Z 72
_cell_length_a 18.286421
_cell_length_b 18.286421
_cell_length_c 14.871320
_cell_angle_alpha 90.000000
_cell_angle_beta 90.000000
_cell_angle_gamma 90.000000
_cell_volume 4972.868179
_symmetry_space_group_name_H-M "P 42/M M C"
_symmetry_group_IT_number 131
_symmetry_cell_setting 'tetragonal'
loop_
_space_group_symop_operation_xyz
x,y,z
-x,-y,z
-y,x,1/2+z
y,-x,1/2+z
-x,y,-z
x,-y,-z
y,x,1/2-z
-y,-x,1/2-z
-x,-y,-z
x,y,-z
y,-x,1/2-z
-y,x,1/2-z
x,-y,z
-x,y,z
-y,-x,1/2+z
y,x,1/2+z
loop_
_atom_site_type_symbol
_atom_site_label
_atom_site_fract_x
_atom_site_fract_y
_atom_site_fract_z
Si Si1 0.695989 0.416487 0.101265
Si Si2 0.583422 0.583422 0.750000
Si Si3 0.353230 0.848372 0.395702
Si Si4 0.500000 0.914230 0.397647
Si Si5 0.796685 0.914318 0.397152
Si Si6 0.915485 0.084516 0.250000
O O1 0.722126 0.500000 0.119605
O O2 0.629915 0.392384 0.164339
O O3 0.761890 0.360640 0.119274
O O4 0.666997 0.408907 0.000000
O O5 0.597701 0.500000 0.723245
O O6 0.351992 0.870834 0.500000
O O7 0.425002 0.886117 0.350328
O O8 0.275883 0.875473 0.355497
O O9 0.500000 0.883491 0.500000
O O10 0.500000 0.000000 0.394074
O O11 0.813004 0.888924 0.500000
O O12 0.866131 0.893198 0.335684
O O13 0.781386 0.000000 0.394233
O O14 0.000000 0.097609 0.277223
#
# Coordination Sequence:
#
# PCOD8316385 Si02
#       6
#    16   8  16   8  16   8
#     4   9  16  27  41  56  78 105 130 159 194 233
#     4   9  18  29  40  56  74  97 136 173 198 228
#     4   9  15  24  38  58  82 107 131 154 190 239
#     4   9  14  20  34  56  81 107 130 151 181 229
#     4   9  17  28  42  61  84 107 133 166 200 238
#     4   9  18  31  44  58  78 107 142 175 206 236
#
# _framework density 14.478565
#
# number of rings (size 3 to 8) (size 9 to 14) (size 15 to 20)
#    0.000    3.000    1.111    0.667    0.000    4.444 
#    0.000    4.444    0.000    0.000    0.000    0.000 
#    0.000    0.000    0.000    0.000    0.000   11.778 
#
# Total GULP energy -892400.898139 kJ/mol
# GULP energy per Si atom -12394.456919 kJ/mol
# Density = 1.444561 g / cm^3
# Si number density = 14.478565 Si / 1000 Ang^3
#
#
#
# Elastic Constant Matrix: (Units=GPa)
#
#
# Indices 1 2 3 4 5 6 
#
# 1 78.9686 48.7522 42.8559 0.0000 0.0000 0.0000
# 2 48.7522 78.9670 42.8563 0.0000 0.0000 0.0000
# 3 42.8559 42.8563 61.0787 0.0000 0.0000 0.0000
# 4 0.0000 0.0000 0.0000 13.9218 0.0000 0.0000
# 5 0.0000 0.0000 0.0000 0.0000 13.9218 0.0000
# 6 0.0000 0.0000 0.0000 0.0000 0.0000 20.8869
#
#
#
# Elastic Compliance Matrix: (Units=1/GPa)
#
#
# Indices 1 2 3 4 5 6 
#
# 1 0.023946 -0.009149 -0.010382 0.000000 0.000000 0.000000
# 2 -0.009149 0.023947 -0.010383 0.000000 0.000000 0.000000
# 3 -0.010382 -0.010383 0.030942 0.000000 0.000000 0.000000
# 4 0.000000 0.000000 0.000000 0.071830 0.000000 0.000000
# 5 0.000000 0.000000 0.000000 0.000000 0.071830 0.000000
# 6 0.000000 0.000000 0.000000 0.000000 0.000000 0.047877
#
#
# Mechanical properties :
#
#
# Convention : Reuss Voigt Hill
#
# Bulk Modulus (GPa) = 52.61343 54.21592 53.41467
# Shear Modulus (GPa) = 14.85725 15.38275 15.12000
#
# Velocity S-wave (km/s) = 3.20684 3.26306 3.23507
# Velocity P-wave (km/s) = 7.08022 7.19192 7.13629
#
# Compressibility (1/GPa) = 0.01900655
#
# Stress axis : x y z
#
# Youngs Moduli (GPa) = 41.76081 41.75892 32.31815
#
# Poissons Ratio (x) = 0.38206 0.33553
# Poissons Ratio (y) = 0.38207 0.33556
# Poissons Ratio (z) = 0.43357 0.43359
#
# Static dielectric constant tensor:
#      x y z
#    x 2.846250 0.000000 0.000000 
#    y 0.000000 2.846260 0.000000 
#    z 0.000000 0.000000 2.567520 
# 
# 
# High freq. dielectric constant tensor:
#      x y z
#    x 1.553940 0.000000 0.000000 
#    y 0.000000 1.553940 0.000000 
#    z 0.000000 0.000000 1.507400 
# 
# From -- ./inp_files/7767.got.cif
#   From: 2010.03.12/outbox.cif.g09.slc.cpg/sg131_4_cif.got.tgz:7767.got - 2010.04.06 17:36:35.
