data_PCOD8316235
_publ_section_title
;
Structure prediction by ZEFSAII (Michael W. Deem and Ramdas Pophale) SiO2 
 PCOD8316235
Probable space group: P 42/M M C
;
_chemical_formula_sum "Si O2"
_cell_formula_units_Z 64
_cell_length_a 19.962078
_cell_length_b 19.962078
_cell_length_c 9.149406
_cell_angle_alpha 90.000000
_cell_angle_beta 90.000000
_cell_angle_gamma 90.000000
_cell_volume 3645.897007
_symmetry_space_group_name_H-M "P 42/M M C"
_symmetry_group_IT_number 131
_symmetry_cell_setting 'tetragonal'
loop_
_space_group_symop_operation_xyz
x,y,z
-x,-y,z
-y,x,1/2+z
y,-x,1/2+z
-x,y,-z
x,-y,-z
y,x,1/2-z
-y,-x,1/2-z
-x,-y,-z
x,y,-z
y,-x,1/2-z
-y,x,1/2-z
x,-y,z
-x,y,z
-y,-x,1/2+z
y,x,1/2+z
loop_
_atom_site_type_symbol
_atom_site_label
_atom_site_fract_x
_atom_site_fract_y
_atom_site_fract_z
Si Si1 0.324230 0.423273 0.329294
Si Si2 0.077255 0.689833 0.329128
Si Si3 0.921561 0.824853 0.169041
Si Si4 0.425977 0.173945 0.826320
O O1 0.375990 0.375990 0.250000
O O2 0.330461 0.409764 0.500000
O O3 0.341800 0.500000 0.291815
O O4 0.248863 0.406608 0.274974
O O5 0.090318 0.702990 0.500000
O O6 0.100492 0.755072 0.241314
O O7 0.120936 0.628132 0.267329
O O8 0.000000 0.672385 0.298658
O O9 0.885321 0.885321 0.250000
O O10 0.000000 0.837035 0.190098
O O11 0.900761 0.823605 0.000000
O O12 0.500000 0.154786 0.765996
O O13 0.428168 0.171917 0.000000
#
# Coordination Sequence:
#
# PCOD8316235 Si02
#       4
#    16  16  16  16
#     4   9  18  32  48  66  91 122 154 192 237 282
#     4   9  17  30  50  75 101 129 162 199 237 281
#     4  10  21  36  53  73  99 130 162 199 243 290
#     4   8  15  29  48  71  99 128 160 200 242 281
#
# _framework density 17.553979000000002
#
# number of rings (size 3 to 8) (size 9 to 14) (size 15 to 20)
#    0.000    3.000    0.000    2.250    0.000    4.000 
#    0.000    8.750    0.000    2.250    0.000    3.500 
#    0.000    0.000    0.000    0.000    0.000    0.000 
#
# Total GULP energy -793491.811242 kJ/mol
# GULP energy per Si atom -12398.309551 kJ/mol
# Density = 1.751403 g / cm^3
# Si number density = 17.553979 Si / 1000 Ang^3
#
#
#
# Elastic Constant Matrix: (Units=GPa)
#
#
# Indices 1 2 3 4 5 6 
#
# 1 105.3237 84.5143 48.6263 0.0000 0.0000 0.0000
# 2 84.5143 105.3237 48.6263 0.0000 0.0000 0.0000
# 3 48.6263 48.6263 59.2179 0.0000 0.0000 0.0000
# 4 0.0000 0.0000 0.0000 22.9050 0.0000 0.0000
# 5 0.0000 0.0000 0.0000 0.0000 22.9050 0.0000
# 6 0.0000 0.0000 0.0000 0.0000 0.0000 39.4652
#
#
#
# Elastic Compliance Matrix: (Units=1/GPa)
#
#
# Indices 1 2 3 4 5 6 
#
# 1 0.028574 -0.019481 -0.007466 0.000000 0.000000 0.000000
# 2 -0.019481 0.028574 -0.007466 0.000000 0.000000 0.000000
# 3 -0.007466 -0.007466 0.029149 0.000000 0.000000 0.000000
# 4 0.000000 0.000000 0.000000 0.043659 0.000000 0.000000
# 5 0.000000 0.000000 0.000000 0.000000 0.043659 0.000000
# 6 0.000000 0.000000 0.000000 0.000000 0.000000 0.025339
#
#
# Mechanical properties :
#
#
# Convention : Reuss Voigt Hill
#
# Bulk Modulus (GPa) = 57.24577 70.37768 63.81172
# Shear Modulus (GPa) = 18.27465 22.92824 20.60145
#
# Velocity S-wave (km/s) = 3.23004 3.61800 3.42951
# Velocity P-wave (km/s) = 6.82590 7.59160 7.21891
#
# Compressibility (1/GPa) = 0.01746854
#
# Stress axis : x y z
#
# Youngs Moduli (GPa) = 34.99706 34.99706 34.30692
#
# Poissons Ratio (x) = 0.68179 0.25615
# Poissons Ratio (y) = 0.68179 0.25615
# Poissons Ratio (z) = 0.26130 0.26130
#
# Static dielectric constant tensor:
#      x y z
#    x 3.459950 0.000000 0.000000 
#    y 0.000000 3.459950 0.000000 
#    z 0.000000 0.000000 3.030080 
# 
# 
# High freq. dielectric constant tensor:
#      x y z
#    x 1.683130 0.000000 0.000000 
#    y 0.000000 1.683130 0.000000 
#    z 0.000000 0.000000 1.652340 
# 
# From -- ./inp_files/1597.got.cif
#   From: 2010.03.12/outbox.cif.g09.slc.cpg/sg131_1_cif.got.tgz:1597.got - 2010.04.06 17:36:35.
