data_PCOD8316890
_publ_section_title
;
Structure prediction by ZEFSAII (Michael W. Deem and Ramdas Pophale) SiO2 
 PCOD8316890
Probable space group: P 42/N B C
;
_chemical_formula_sum "Si O2"
_cell_formula_units_Z 128
_cell_length_a 22.000383
_cell_length_b 22.000383
_cell_length_c 17.992853
_cell_angle_alpha 90.000000
_cell_angle_beta 90.000000
_cell_angle_gamma 90.000000
_cell_volume 8708.844070
_symmetry_space_group_name_H-M "P 42/N B C"
_symmetry_group_IT_number 133
_space_group.IT_coordinate_system_code '2'
_symmetry_cell_setting 'tetragonal'
loop_
_space_group_symop_operation_xyz
x,y,z
1/2-y,x,1/2+z
1/2-x,1/2-y,z
y,1/2-x,1/2+z
x,1/2-y,-z
1/2-x,y,-z
y,x,1/2-z
1/2-y,1/2-x,1/2-z
-x,-y,-z
1/2+y,-x,1/2-z
1/2+x,1/2+y,-z
-y,1/2+x,1/2-z
-x,1/2+y,z
1/2+x,-y,z
-y,-x,1/2+z
1/2+y,1/2+x,1/2+z
loop_
_atom_site_type_symbol
_atom_site_label
_atom_site_fract_x
_atom_site_fract_y
_atom_site_fract_z
Si Si1 0.997680 0.181855 0.293222
Si Si2 0.929090 0.429091 0.749998
Si Si3 0.497679 0.818144 0.706776
Si Si4 0.318985 0.111715 0.310263
Si Si5 0.614231 0.930757 0.083817
Si Si6 0.930759 0.885768 0.416185
Si Si7 0.499999 0.999999 0.869883
Si Si8 0.388283 0.318983 0.189737
O O1 0.973833 0.250000 0.303248
O O2 0.027342 0.160524 0.370376
O O3 0.046384 0.175739 0.227886
O O4 0.939809 0.141358 0.269860
O O5 0.858642 0.439809 0.769865
O O6 0.969528 0.448223 0.819878
O O7 0.948214 0.469522 0.680108
O O8 0.546382 0.824263 0.772113
O O9 0.527342 0.839473 0.629622
O O10 0.337283 0.162718 0.250000
O O11 0.363495 0.111652 0.380897
O O12 0.250001 0.124559 0.336943
O O13 0.548861 0.963934 0.080889
O O14 0.611654 0.863493 0.119103
O O15 0.638437 0.923905 0.000001
O O16 0.963939 0.951136 0.419112
O O17 0.337281 0.337281 0.250000
#
# Coordination Sequence:
#
# PCOD8316890 Si02
#       8
#    16  16  16  16  16  16  16  16
#     4   9  17  29  45  63  84 113 146 179 216 258
#     4   9  14  26  48  63  82 110 146 179 212 258
#     4   9  17  29  45  63  84 113 146 179 216 258
#     4   9  17  30  44  61  84 116 155 186 211 245
#     4  10  18  27  42  65  92 118 140 175 220 262
#     4  10  18  27  42  65  92 118 140 175 220 262
#     4   9  15  26  42  66  88 112 140 174 218 264
#     4   9  17  30  44  61  84 116 155 186 211 245
#
# _framework density 14.697702
#
# number of rings (size 3 to 8) (size 9 to 14) (size 15 to 20)
#    0.000    2.750    2.500    0.375    0.000    1.250 
#    0.000    0.000    0.000    0.375    0.000    7.000 
#    0.000    0.000    0.000    6.500    0.000    0.000 
#
# Total GULP energy -1586664.453004 kJ/mol
# GULP energy per Si atom -12395.816039 kJ/mol
# Density = 1.466425 g / cm^3
# Si number density = 14.697702 Si / 1000 Ang^3
#
#
#
# Elastic Constant Matrix: (Units=GPa)
#
#
# Indices 1 2 3 4 5 6 
#
# 1 101.2016 53.7339 36.6242 0.0000 0.0000 0.0000
# 2 53.7339 101.2011 36.6243 0.0000 0.0000 0.0000
# 3 36.6242 36.6243 92.9164 0.0000 0.0000 0.0000
# 4 0.0000 0.0000 0.0000 9.9235 0.0000 0.0000
# 5 0.0000 0.0000 0.0000 0.0000 9.9234 0.0000
# 6 0.0000 0.0000 0.0000 0.0000 0.0000 13.8439
#
#
#
# Elastic Compliance Matrix: (Units=1/GPa)
#
#
# Indices 1 2 3 4 5 6 
#
# 1 0.014500 -0.006567 -0.003127 0.000000 0.000000 0.000000
# 2 -0.006567 0.014500 -0.003127 0.000000 0.000000 0.000000
# 3 -0.003127 -0.003127 0.013227 0.000000 0.000000 0.000000
# 4 0.000000 0.000000 0.000000 0.100771 0.000000 0.000000
# 5 0.000000 0.000000 0.000000 0.000000 0.100772 0.000000
# 6 0.000000 0.000000 0.000000 0.000000 0.000000 0.072234
#
#
# Mechanical properties :
#
#
# Convention : Reuss Voigt Hill
#
# Bulk Modulus (GPa) = 60.29389 61.03155 60.66272
# Shear Modulus (GPa) = 14.40202 17.96060 16.18131
#
# Velocity S-wave (km/s) = 3.13370 3.49950 3.32164
# Velocity P-wave (km/s) = 7.36242 7.61206 7.48828
#
# Compressibility (1/GPa) = 0.01658543
#
# Stress axis : x y z
#
# Youngs Moduli (GPa) = 68.96672 68.96623 75.60157
#
# Poissons Ratio (x) = 0.45292 0.23638
# Poissons Ratio (y) = 0.45292 0.23639
# Poissons Ratio (z) = 0.21564 0.21564
#
# Static dielectric constant tensor:
#      x y z
#    x 2.893110 0.000000 0.000000 
#    y 0.000000 2.893110 0.000000 
#    z 0.000000 0.000000 2.663890 
# 
# 
# High freq. dielectric constant tensor:
#      x y z
#    x 1.548400 0.000000 0.000000 
#    y 0.000000 1.548400 0.000000 
#    z 0.000000 0.000000 1.551020 
# 
# From -- ./inp_files/5755.got.cif
#   From: 2010.03.12/outbox.cif.g09.slc.cpg/sg133_3_cif.got.tgz:5755.got - 2010.04.06 18:08:06.
