data_PCOD8316958
_publ_section_title
;
Structure prediction by ZEFSAII (Michael W. Deem and Ramdas Pophale) SiO2 
 PCOD8316958
Probable space group: P 42/N B C
;
_chemical_formula_sum "Si O2"
_cell_formula_units_Z 120
_cell_length_a 13.792821
_cell_length_b 13.792821
_cell_length_c 32.527001
_cell_angle_alpha 90.000000
_cell_angle_beta 90.000000
_cell_angle_gamma 90.000000
_cell_volume 6187.998834
_symmetry_space_group_name_H-M "P 42/N B C"
_symmetry_group_IT_number 133
_space_group.IT_coordinate_system_code '2'
_symmetry_cell_setting 'tetragonal'
loop_
_space_group_symop_operation_xyz
x,y,z
1/2-y,x,1/2+z
1/2-x,1/2-y,z
y,1/2-x,1/2+z
x,1/2-y,-z
1/2-x,y,-z
y,x,1/2-z
1/2-y,1/2-x,1/2-z
-x,-y,-z
1/2+y,-x,1/2-z
1/2+x,1/2+y,-z
-y,1/2+x,1/2-z
-x,1/2+y,z
1/2+x,-y,z
-y,-x,1/2+z
1/2+y,1/2+x,1/2+z
loop_
_atom_site_type_symbol
_atom_site_label
_atom_site_fract_x
_atom_site_fract_y
_atom_site_fract_z
Si Si1 0.192261 0.514932 0.391630
Si Si2 0.691285 0.850541 0.927654
Si Si3 0.750000 0.986877 0.000000
Si Si4 0.347876 0.799951 0.444609
Si Si5 0.470679 0.717846 0.375446
Si Si6 0.964383 0.379809 0.839736
Si Si7 0.624538 0.161460 0.754702
Si Si8 0.549106 0.094052 0.673234
O O1 0.175272 0.418251 0.417304
O O2 0.179421 0.598970 0.424570
O O3 0.300531 0.515549 0.374223
O O4 0.119129 0.525350 0.353485
O O5 0.750000 0.750000 0.932030
O O6 0.733844 0.919148 0.891515
O O7 0.692753 0.914928 0.969337
O O8 0.678614 0.064452 0.022890
O O9 0.250000 0.750000 0.463066
O O10 0.391472 0.725014 0.411572
O O11 0.458558 0.613391 0.355075
O O12 0.443609 0.796255 0.341518
O O13 0.933381 0.331299 0.797067
O O14 0.062440 0.438287 0.831861
O O15 0.625353 0.267938 0.734856
O O16 0.577035 0.089038 0.721370
#
# Coordination Sequence:
#
# PCOD8316958 Si02
#       8
#    16  16   8  16  16  16  16  16
#     4  11  23  37  67  94 118 166 215 258 319 375
#     4  11  23  45  64  90 125 164 210 254 316 394
#     4  10  24  42  64  90 128 170 196 260 328 380
#     4  10  20  38  62  94 127 154 202 261 316 375
#     4  10  21  37  62  88 120 159 208 259 313 370
#     4  12  21  38  61  88 128 166 212 265 316 376
#     4  11  22  35  59  87 124 170 211 262 328 372
#     4  11  22  38  58  90 124 168 212 265 315 376
#
# _framework density 19.392377
#
# number of rings (size 3 to 8) (size 9 to 14) (size 15 to 20)
#    0.000    1.200    5.333    1.600    0.000    0.533 
#    0.000    2.667    0.000    0.000    0.000    5.600 
#    0.000    0.000    0.000    0.000    0.000    0.000 
#
# Total GULP energy -1487528.943824 kJ/mol
# GULP energy per Si atom -12396.074532 kJ/mol
# Density = 1.934824 g / cm^3
# Si number density = 19.392377 Si / 1000 Ang^3
#
#
#
# Elastic Constant Matrix: (Units=GPa)
#
#
# Indices 1 2 3 4 5 6 
#
# 1 105.6120 52.0857 48.3265 0.0000 0.0000 0.0000
# 2 52.0857 105.6120 48.3265 0.0000 0.0000 0.0000
# 3 48.3265 48.3265 108.3844 0.0000 0.0000 0.0000
# 4 0.0000 0.0000 0.0000 21.5794 0.0000 0.0000
# 5 0.0000 0.0000 0.0000 0.0000 21.5794 0.0000
# 6 0.0000 0.0000 0.0000 0.0000 0.0000 29.9967
#
#
#
# Elastic Compliance Matrix: (Units=1/GPa)
#
#
# Indices 1 2 3 4 5 6 
#
# 1 0.013704 -0.004978 -0.003891 0.000000 0.000000 0.000000
# 2 -0.004978 0.013704 -0.003891 0.000000 0.000000 0.000000
# 3 -0.003891 -0.003891 0.012696 0.000000 0.000000 0.000000
# 4 0.000000 0.000000 0.000000 0.046340 0.000000 0.000000
# 5 0.000000 0.000000 0.000000 0.000000 0.046340 0.000000
# 6 0.000000 0.000000 0.000000 0.000000 0.000000 0.033337
#
#
# Mechanical properties :
#
#
# Convention : Reuss Voigt Hill
#
# Bulk Modulus (GPa) = 68.56389 68.56509 68.56449
# Shear Modulus (GPa) = 25.44490 26.02243 25.73367
#
# Velocity S-wave (km/s) = 3.62623 3.66716 3.64675
# Velocity P-wave (km/s) = 7.27775 7.30508 7.29143
#
# Compressibility (1/GPa) = 0.01458494
#
# Stress axis : x y z
#
# Youngs Moduli (GPa) = 72.97070 72.97070 78.76506
#
# Poissons Ratio (x) = 0.36327 0.30645
# Poissons Ratio (y) = 0.36327 0.30645
# Poissons Ratio (z) = 0.28391 0.28391
#
# Static dielectric constant tensor:
#      x y z
#    x 3.475500 0.000000 0.000000 
#    y 0.000000 3.475500 0.000000 
#    z 0.000000 0.000000 3.560090 
# 
# 
# High freq. dielectric constant tensor:
#      x y z
#    x 1.751190 0.000000 0.000000 
#    y 0.000000 1.751190 0.000000 
#    z 0.000000 0.000000 1.761720 
# 
# From -- ./inp_files/8118.got.cif
#   From: 2010.03.12/outbox.cif.g09.slc.cpg/sg133_5_cif.got.tgz:8118.got - 2010.04.06 18:08:06.
