data_PCOD8316501
_publ_section_title
;
Structure prediction by ZEFSAII (Michael W. Deem and Ramdas Pophale) SiO2 
 PCOD8316501
Probable space group: P 42/M C M
;
_chemical_formula_sum "Si O2"
_cell_formula_units_Z 96
_cell_length_a 20.263148
_cell_length_b 20.263148
_cell_length_c 13.467436
_cell_angle_alpha 90.000000
_cell_angle_beta 90.000000
_cell_angle_gamma 90.000000
_cell_volume 5529.664132
_symmetry_space_group_name_H-M "P 42/M C M"
_symmetry_group_IT_number 132
_symmetry_cell_setting 'tetragonal'
loop_
_space_group_symop_operation_xyz
x,y,z
-y,x,1/2+z
-x,-y,z
y,-x,1/2+z
x,-y,1/2-z
-x,y,1/2-z
y,x,-z
-y,-x,-z
-x,-y,-z
y,-x,1/2-z
x,y,-z
-y,x,1/2-z
-x,y,1/2+z
x,-y,1/2+z
-y,-x,z
y,x,z
loop_
_atom_site_type_symbol
_atom_site_label
_atom_site_fract_x
_atom_site_fract_y
_atom_site_fract_z
Si Si1 0.903085 0.200641 0.180431
Si Si2 0.640808 0.913285 0.888901
Si Si3 0.572274 0.166081 0.231237
Si Si4 0.801078 0.305555 0.883606
Si Si5 0.950548 0.210773 0.390556
Si Si6 0.567869 0.036403 0.891437
O O1 0.858112 0.141889 0.133521
O O2 0.862549 0.269421 0.171775
O O3 0.918270 0.176798 0.294044
O O4 0.970167 0.211372 0.119789
O O5 0.611451 0.849710 0.832449
O O6 0.718988 0.915159 0.888089
O O7 0.618434 0.983751 0.843441
O O8 0.612339 0.906976 0.000000
O O9 0.500000 0.200386 0.250000
O O10 0.621040 0.209415 0.161931
O O11 0.557284 0.097612 0.178599
O O12 0.733710 0.266290 0.863726
O O13 0.816950 0.309837 0.000000
O O14 0.935043 0.178570 0.500000
O O15 0.500000 0.000000 0.903634
O O16 0.593615 0.060277 0.000000
#
# Coordination Sequence:
#
# PCOD8316501 Si02
#       6
#    16  16  16  16  16  16
#     4  10  20  34  53  76  99 127 170 220 266 313
#     4  10  20  31  43  65  97 131 166 202 243 297
#     4  12  21  30  50  73 103 138 173 209 250 298
#     4  10  21  37  55  75 102 139 182 222 256 295
#     4  10  20  34  52  71  94 125 163 214 268 318
#     4  10  19  28  39  63 100 136 168 203 244 291
#
# _framework density 17.360911000000002
#
# number of rings (size 3 to 8) (size 9 to 14) (size 15 to 20)
#    0.000    1.667    3.333    2.500    2.333    3.333 
#    0.000    0.000    0.000    4.500    0.000    4.667 
#    0.000    0.333    0.000    1.833    0.000    0.000 
#
# Total GULP energy -1189345.843848 kJ/mol
# GULP energy per Si atom -12389.019207 kJ/mol
# Density = 1.732140 g / cm^3
# Si number density = 17.360911 Si / 1000 Ang^3
#
#
#
# Elastic Constant Matrix: (Units=GPa)
#
#
# Indices 1 2 3 4 5 6 
#
# 1 61.2681 27.8628 20.2635 0.0000 0.0000 0.0000
# 2 27.8628 61.2681 20.2635 0.0000 0.0000 0.0000
# 3 20.2635 20.2635 92.6244 0.0000 0.0000 0.0000
# 4 0.0000 0.0000 0.0000 19.6671 0.0000 0.0000
# 5 0.0000 0.0000 0.0000 0.0000 19.6671 0.0000
# 6 0.0000 0.0000 0.0000 0.0000 0.0000 17.0494
#
#
#
# Elastic Compliance Matrix: (Units=1/GPa)
#
#
# Indices 1 2 3 4 5 6 
#
# 1 0.021197 -0.008738 -0.002726 0.000000 0.000000 0.000000
# 2 -0.008738 0.021197 -0.002726 0.000000 0.000000 0.000000
# 3 -0.002726 -0.002726 0.011989 0.000000 0.000000 0.000000
# 4 0.000000 0.000000 0.000000 0.050846 0.000000 0.000000
# 5 0.000000 0.000000 0.000000 0.000000 0.050846 0.000000
# 6 0.000000 0.000000 0.000000 0.000000 0.000000 0.058653
#
#
# Mechanical properties :
#
#
# Convention : Reuss Voigt Hill
#
# Bulk Modulus (GPa) = 38.45568 39.10444 38.78006
# Shear Modulus (GPa) = 19.85895 21.06145 20.46020
#
# Velocity S-wave (km/s) = 3.38581 3.48681 3.43668
# Velocity P-wave (km/s) = 6.12240 6.22766 6.17526
#
# Compressibility (1/GPa) = 0.02600396
#
# Stress axis : x y z
#
# Youngs Moduli (GPa) = 47.17630 47.17630 83.41080
#
# Poissons Ratio (x) = 0.41224 0.22735
# Poissons Ratio (y) = 0.41224 0.22735
# Poissons Ratio (z) = 0.12858 0.12858
#
# Static dielectric constant tensor:
#      x y z
#    x 3.032640 0.000000 0.000000 
#    y 0.000000 3.032640 0.000000 
#    z 0.000000 0.000000 3.758910 
# 
# 
# High freq. dielectric constant tensor:
#      x y z
#    x 1.631750 0.000000 0.000000 
#    y 0.000000 1.631750 0.000000 
#    z 0.000000 0.000000 1.695030 
# 
# From -- ./inp_files/5006.got.cif
#   From: 2010.03.12/outbox.cif.g09.slc.cpg/sg132_3_cif.got.tgz:5006.got - 2010.04.06 17:53:44.
