data_PCOD8316568
_publ_section_title
;
Structure prediction by ZEFSAII (Michael W. Deem and Ramdas Pophale) SiO2 
 PCOD8316568
Probable space group: P 42/M C M
;
_chemical_formula_sum "Si O2"
_cell_formula_units_Z 104
_cell_length_a 17.637615
_cell_length_b 17.637615
_cell_length_c 18.523267
_cell_angle_alpha 90.000000
_cell_angle_beta 90.000000
_cell_angle_gamma 90.000000
_cell_volume 5762.319089
_symmetry_space_group_name_H-M "P 42/M C M"
_symmetry_group_IT_number 132
_symmetry_cell_setting 'tetragonal'
loop_
_space_group_symop_operation_xyz
x,y,z
-y,x,1/2+z
-x,-y,z
y,-x,1/2+z
x,-y,1/2-z
-x,y,1/2-z
y,x,-z
-y,-x,-z
-x,-y,-z
y,-x,1/2-z
x,y,-z
-y,x,1/2-z
-x,y,1/2+z
x,-y,1/2+z
-y,-x,z
y,x,z
loop_
_atom_site_type_symbol
_atom_site_label
_atom_site_fract_x
_atom_site_fract_y
_atom_site_fract_z
Si Si1 0.881217 0.000000 0.750000
Si Si2 0.576181 0.295861 0.290313
Si Si3 0.055106 0.637858 0.416506
Si Si4 0.775570 0.102061 0.335283
Si Si5 0.311418 0.813700 0.216519
Si Si6 0.539897 0.808720 0.917252
Si Si7 0.114181 0.379193 0.417612
O O1 0.830964 0.033869 0.686106
O O2 0.933395 0.066606 0.783989
O O3 0.500000 0.323286 0.250000
O O4 0.633589 0.366412 0.297132
O O5 0.612267 0.225953 0.245783
O O6 0.554442 0.266774 0.370416
O O7 0.059895 0.621375 0.500000
O O8 0.070031 0.726628 0.401402
O O9 0.123420 0.589525 0.382008
O O10 0.972597 0.608920 0.390460
O O11 0.823142 0.176859 0.358479
O O12 0.717644 0.120831 0.270332
O O13 0.247725 0.752276 0.207786
O O14 0.320347 0.848761 0.137275
O O15 0.454226 0.836322 0.912977
O O16 0.562243 0.789179 0.000000
O O17 0.114859 0.347226 0.500000
#
# Coordination Sequence:
#
# PCOD8316568 Si02
#       7
#     8  16  16  16  16  16  16
#     4   9  18  32  50  70  97 138 182 224 273 320
#     4  11  22  39  60  84 113 144 182 229 281 333
#     4  10  20  33  51  77 110 145 179 219 272 329
#     4  10  19  32  51  76 105 138 180 228 270 316
#     4  10  20  34  54  79 106 139 182 230 276 325
#     4  10  20  36  56  80 112 146 180 220 270 333
#     4  10  20  34  53  77 108 145 180 218 271 330
#
# _framework density 18.048290000000001
#
# number of rings (size 3 to 8) (size 9 to 14) (size 15 to 20)
#    0.000    1.923    3.077    1.385    0.000    2.923 
#    0.000    1.538    0.000    1.846    0.000    3.231 
#    0.000    0.000    0.000    0.000    0.000    0.000 
#
# Total GULP energy -1289236.944285 kJ/mol
# GULP energy per Si atom -12396.509080 kJ/mol
# Density = 1.800721 g / cm^3
# Si number density = 18.048290 Si / 1000 Ang^3
#
#
#
# Elastic Constant Matrix: (Units=GPa)
#
#
# Indices 1 2 3 4 5 6 
#
# 1 75.8133 21.4165 27.7432 0.0000 0.0000 0.0000
# 2 21.4165 75.8133 27.7432 0.0000 0.0000 0.0000
# 3 27.7432 27.7432 59.5489 0.0000 0.0000 0.0000
# 4 0.0000 0.0000 0.0000 25.4905 0.0000 0.0000
# 5 0.0000 0.0000 0.0000 0.0000 25.4905 0.0000
# 6 0.0000 0.0000 0.0000 0.0000 0.0000 25.4394
#
#
#
# Elastic Compliance Matrix: (Units=1/GPa)
#
#
# Indices 1 2 3 4 5 6 
#
# 1 0.016197 -0.002187 -0.006527 0.000000 0.000000 0.000000
# 2 -0.002187 0.016197 -0.006527 0.000000 0.000000 0.000000
# 3 -0.006527 -0.006527 0.022875 0.000000 0.000000 0.000000
# 4 0.000000 0.000000 0.000000 0.039230 0.000000 0.000000
# 5 0.000000 0.000000 0.000000 0.000000 0.039230 0.000000
# 6 0.000000 0.000000 0.000000 0.000000 0.000000 0.039309
#
#
# Mechanical properties :
#
#
# Convention : Reuss Voigt Hill
#
# Bulk Modulus (GPa) = 40.34519 40.55349 40.44934
# Shear Modulus (GPa) = 23.60930 24.23560 23.92245
#
# Velocity S-wave (km/s) = 3.62072 3.66843 3.64465
# Velocity P-wave (km/s) = 6.31522 6.36092 6.33811
#
# Compressibility (1/GPa) = 0.02478610
#
# Stress axis : x y z
#
# Youngs Moduli (GPa) = 61.74157 61.74157 43.71659
#
# Poissons Ratio (x) = 0.13502 0.28534
# Poissons Ratio (y) = 0.13502 0.28534
# Poissons Ratio (z) = 0.40298 0.40298
#
# Static dielectric constant tensor:
#      x y z
#    x 3.392230 0.000000 0.000000 
#    y 0.000000 3.392230 0.000000 
#    z 0.000000 0.000000 3.246710 
# 
# 
# High freq. dielectric constant tensor:
#      x y z
#    x 1.700070 0.000000 0.000000 
#    y 0.000000 1.700070 0.000000 
#    z 0.000000 0.000000 1.683290 
# 
# From -- ./inp_files/6552.got.cif
#   From: 2010.03.12/outbox.cif.g09.slc.cpg/sg132_4_cif.got.tgz:6552.got - 2010.04.06 17:53:44.
