data_PCOD8316775
_publ_section_title
;
Structure prediction by ZEFSAII (Michael W. Deem and Ramdas Pophale) SiO2 
 PCOD8316775
Probable space group: P 42/M C M
;
_chemical_formula_sum "Si O2"
_cell_formula_units_Z 96
_cell_length_a 24.776181
_cell_length_b 24.776181
_cell_length_c 9.300024
_cell_angle_alpha 90.000000
_cell_angle_beta 90.000000
_cell_angle_gamma 90.000000
_cell_volume 5708.904781
_symmetry_space_group_name_H-M "P 42/M C M"
_symmetry_group_IT_number 132
_symmetry_cell_setting 'tetragonal'
loop_
_space_group_symop_operation_xyz
x,y,z
-y,x,1/2+z
-x,-y,z
y,-x,1/2+z
x,-y,1/2-z
-x,y,1/2-z
y,x,-z
-y,-x,-z
-x,-y,-z
y,-x,1/2-z
x,y,-z
-y,x,1/2-z
-x,y,1/2+z
x,-y,1/2+z
-y,-x,z
y,x,z
loop_
_atom_site_type_symbol
_atom_site_label
_atom_site_fract_x
_atom_site_fract_y
_atom_site_fract_z
Si Si1 0.219940 0.867454 0.168882
Si Si2 0.269033 0.353332 0.659044
Si Si3 0.945401 0.143282 0.665585
Si Si4 0.857511 0.656935 0.337140
Si Si5 0.450430 0.265818 0.159714
Si Si6 0.862889 0.447228 0.336144
O O1 0.190321 0.809680 0.201073
O O2 0.192467 0.914304 0.260289
O O3 0.282563 0.869928 0.218253
O O4 0.215066 0.880331 0.000000
O O5 0.284859 0.373838 0.500000
O O6 0.295968 0.295968 0.693891
O O7 0.206054 0.346526 0.669286
O O8 0.290484 0.396383 0.773202
O O9 0.957133 0.158501 0.500000
O O10 0.911085 0.088916 0.676645
O O11 0.000000 0.132103 0.750000
O O12 0.878614 0.648324 0.500000
O O13 0.882789 0.608961 0.238768
O O14 0.500000 0.288507 0.250000
O O15 0.448993 0.201342 0.163907
O O16 0.456200 0.288084 0.000000
O O17 0.884948 0.500000 0.250000
O O18 0.884958 0.448808 0.500000
#
# Coordination Sequence:
#
# PCOD8316775 Si02
#       6
#    16  16  16  16  16  16
#     4   9  17  30  48  69  95 127 160 193 231 278
#     4   9  16  25  37  54  77 104 134 167 202 244
#     4  10  21  36  54  76 101 129 161 198 239 281
#     4   9  16  26  41  61  86 118 153 185 220 265
#     4   9  16  25  36  49  67  94 128 165 206 250
#     4   9  16  25  37  54  78 110 148 189 229 267
#
# _framework density 16.815833999999999
#
# number of rings (size 3 to 8) (size 9 to 14) (size 15 to 20)
#    0.000    2.833    0.000    2.000    0.000    8.167 
#    0.000    0.833    0.000    3.000    0.000    0.000 
#    0.000    1.000    0.000   10.500    0.000    5.167 
#
# Total GULP energy -1189737.017169 kJ/mol
# GULP energy per Si atom -12393.093929 kJ/mol
# Density = 1.677756 g / cm^3
# Si number density = 16.815834 Si / 1000 Ang^3
#
#
#
# Elastic Constant Matrix: (Units=GPa)
#
#
# Indices 1 2 3 4 5 6 
#
# 1 77.4445 18.9760 45.6296 0.0000 0.0000 0.0000
# 2 18.9760 77.4445 45.6296 0.0000 0.0000 0.0000
# 3 45.6296 45.6296 120.3423 0.0000 0.0000 0.0000
# 4 0.0000 0.0000 0.0000 24.2298 0.0000 0.0000
# 5 0.0000 0.0000 0.0000 0.0000 24.2298 0.0000
# 6 0.0000 0.0000 0.0000 0.0000 0.0000 9.0996
#
#
#
# Elastic Compliance Matrix: (Units=1/GPa)
#
#
# Indices 1 2 3 4 5 6 
#
# 1 0.016640 -0.000463 -0.006134 0.000000 0.000000 0.000000
# 2 -0.000463 0.016640 -0.006134 0.000000 0.000000 0.000000
# 3 -0.006134 -0.006134 0.012961 0.000000 0.000000 0.000000
# 4 0.000000 0.000000 0.000000 0.041271 0.000000 0.000000
# 5 0.000000 0.000000 0.000000 0.000000 0.041271 0.000000
# 6 0.000000 0.000000 0.000000 0.000000 0.000000 0.109895
#
#
# Mechanical properties :
#
#
# Convention : Reuss Voigt Hill
#
# Bulk Modulus (GPa) = 48.12412 55.07800 51.60106
# Shear Modulus (GPa) = 18.44573 22.51160 20.47866
#
# Velocity S-wave (km/s) = 3.31558 3.66281 3.49351
# Velocity P-wave (km/s) = 6.58315 7.12131 6.85751
#
# Compressibility (1/GPa) = 0.02077960
#
# Stress axis : x y z
#
# Youngs Moduli (GPa) = 60.09672 60.09672 77.15516
#
# Poissons Ratio (x) = 0.02785 0.47324
# Poissons Ratio (y) = 0.02785 0.47324
# Poissons Ratio (z) = 0.36861 0.36861
#
# Static dielectric constant tensor:
#      x y z
#    x 3.027430 0.000000 0.000000 
#    y 0.000000 3.027430 0.000000 
#    z 0.000000 0.000000 3.420490 
# 
# 
# High freq. dielectric constant tensor:
#      x y z
#    x 1.620080 0.000000 0.000000 
#    y 0.000000 1.620080 0.000000 
#    z 0.000000 0.000000 1.658360 
# 
# From -- ./inp_files/1700.got.cif
#   From: 2010.03.12/outbox.cif.g09.slc.cpg/sg132_1_cif.got.tgz:1700.got - 2010.04.06 17:53:44.
