data_PCOD8316783
_publ_section_title
;
Structure prediction by ZEFSAII (Michael W. Deem and Ramdas Pophale) SiO2 
 PCOD8316783
Probable space group: P 42/M C M
;
_chemical_formula_sum "Si O2"
_cell_formula_units_Z 64
_cell_length_a 13.541364
_cell_length_b 13.541364
_cell_length_c 19.235668
_cell_angle_alpha 90.000000
_cell_angle_beta 90.000000
_cell_angle_gamma 90.000000
_cell_volume 3527.216337
_symmetry_space_group_name_H-M "P 42/M C M"
_symmetry_group_IT_number 132
_symmetry_cell_setting 'tetragonal'
loop_
_space_group_symop_operation_xyz
x,y,z
-y,x,1/2+z
-x,-y,z
y,-x,1/2+z
x,-y,1/2-z
-x,y,1/2-z
y,x,-z
-y,-x,-z
-x,-y,-z
y,-x,1/2-z
x,y,-z
-y,x,1/2-z
-x,y,1/2+z
x,-y,1/2+z
-y,-x,z
y,x,z
loop_
_atom_site_type_symbol
_atom_site_label
_atom_site_fract_x
_atom_site_fract_y
_atom_site_fract_z
Si Si1 0.435181 0.268964 0.180877
Si Si2 0.727384 0.882657 0.178421
Si Si3 0.763000 0.598904 0.422642
Si Si4 0.898009 0.259419 0.842874
O O1 0.500000 0.259794 0.250000
O O2 0.359686 0.359686 0.190001
O O3 0.378555 0.166783 0.164470
O O4 0.504682 0.285420 0.114655
O O5 0.813848 0.813848 0.148536
O O6 0.735347 0.890676 0.260763
O O7 0.741474 0.986160 0.138086
O O8 0.799957 0.570049 0.500000
O O9 0.679480 0.679480 0.428166
O O10 0.853325 0.642402 0.377645
O O11 0.839227 0.160774 0.869075
#
# Coordination Sequence:
#
# PCOD8316783 Si02
#       4
#    16  16  16  16
#     4  11  21  35  54  77 107 140 179 226 270 313
#     4   9  18  32  53  81 108 134 171 221 268 311
#     4  10  21  37  55  77 108 143 179 221 266 315
#     4   9  17  33  54  78 108 139 173 213 264 318
#
# _framework density 18.144621000000001
#
# number of rings (size 3 to 8) (size 9 to 14) (size 15 to 20)
#    0.000    2.250    2.500    0.750    0.000    3.750 
#    0.000    6.250    0.000    2.250    0.000    3.500 
#    0.000    0.000    0.000    0.000    0.000    0.000 
#
# Total GULP energy -793306.823168 kJ/mol
# GULP energy per Si atom -12395.419112 kJ/mol
# Density = 1.810332 g / cm^3
# Si number density = 18.144621 Si / 1000 Ang^3
#
#
#
# Elastic Constant Matrix: (Units=GPa)
#
#
# Indices 1 2 3 4 5 6 
#
# 1 105.8935 36.1753 32.4631 0.0000 0.0000 0.0000
# 2 36.1753 105.8935 32.4631 0.0000 0.0000 0.0000
# 3 32.4631 32.4631 52.5848 0.0000 0.0000 0.0000
# 4 0.0000 0.0000 0.0000 14.2819 0.0000 0.0000
# 5 0.0000 0.0000 0.0000 0.0000 14.2819 0.0000
# 6 0.0000 0.0000 0.0000 0.0000 0.0000 8.1599
#
#
#
# Elastic Compliance Matrix: (Units=1/GPa)
#
#
# Indices 1 2 3 4 5 6 
#
# 1 0.012074 -0.002269 -0.006053 0.000000 0.000000 0.000000
# 2 -0.002269 0.012074 -0.006053 0.000000 0.000000 0.000000
# 3 -0.006053 -0.006053 0.026491 0.000000 0.000000 0.000000
# 4 0.000000 0.000000 0.000000 0.070019 0.000000 0.000000
# 5 0.000000 0.000000 0.000000 0.000000 0.070019 0.000000
# 6 0.000000 0.000000 0.000000 0.000000 0.000000 0.122551
#
#
# Mechanical properties :
#
#
# Convention : Reuss Voigt Hill
#
# Bulk Modulus (GPa) = 45.68649 51.84164 48.76407
# Shear Modulus (GPa) = 14.31537 18.22943 16.27240
#
# Velocity S-wave (km/s) = 2.81189 3.17310 2.99794
# Velocity P-wave (km/s) = 5.98131 6.48522 6.23836
#
# Compressibility (1/GPa) = 0.02188831
#
# Stress axis : x y z
#
# Youngs Moduli (GPa) = 82.82045 82.82045 37.74904
#
# Poissons Ratio (x) = 0.18793 0.22850
# Poissons Ratio (y) = 0.18793 0.22850
# Poissons Ratio (z) = 0.50133 0.50133
#
# Static dielectric constant tensor:
#      x y z
#    x 3.559630 0.000000 0.000000 
#    y 0.000000 3.559630 0.000000 
#    z 0.000000 0.000000 3.291040 
# 
# 
# High freq. dielectric constant tensor:
#      x y z
#    x 1.705140 0.000000 0.000000 
#    y 0.000000 1.705140 0.000000 
#    z 0.000000 0.000000 1.675170 
# 
# From -- ./inp_files/7436.got.cif
#   From: 2010.03.12/outbox.cif.g09.slc.cpg/sg132_4_cif.got.tgz:7436.got - 2010.04.06 17:53:44.
