data_PCOD8316789
_publ_section_title
;
Structure prediction by ZEFSAII (Michael W. Deem and Ramdas Pophale) SiO2 
 PCOD8316789
Probable space group: P 42/M C M
;
_chemical_formula_sum "Si O2"
_cell_formula_units_Z 96
_cell_length_a 17.005335
_cell_length_b 17.005335
_cell_length_c 16.677174
_cell_angle_alpha 90.000000
_cell_angle_beta 90.000000
_cell_angle_gamma 90.000000
_cell_volume 4822.728833
_symmetry_space_group_name_H-M "P 42/M C M"
_symmetry_group_IT_number 132
_symmetry_cell_setting 'tetragonal'
loop_
_space_group_symop_operation_xyz
x,y,z
-y,x,1/2+z
-x,-y,z
y,-x,1/2+z
x,-y,1/2-z
-x,y,1/2-z
y,x,-z
-y,-x,-z
-x,-y,-z
y,-x,1/2-z
x,y,-z
-y,x,1/2-z
-x,y,1/2+z
x,-y,1/2+z
-y,-x,z
y,x,z
loop_
_atom_site_type_symbol
_atom_site_label
_atom_site_fract_x
_atom_site_fract_y
_atom_site_fract_z
Si Si1 0.312529 0.014435 0.591039
Si Si2 0.784289 0.554430 0.908603
Si Si3 0.841539 0.286015 0.349041
Si Si4 0.081217 0.205789 0.706386
Si Si5 0.535883 0.076143 0.160732
Si Si6 0.372934 0.503128 0.841556
O O1 0.335996 0.033872 0.500000
O O2 0.234390 0.061479 0.616347
O O3 0.372227 0.054607 0.655423
O O4 0.299284 0.920608 0.598981
O O5 0.793818 0.631490 0.852211
O O6 0.846823 0.486709 0.888317
O O7 0.700201 0.513500 0.898566
O O8 0.794279 0.581930 0.000000
O O9 0.785235 0.214766 0.381954
O O10 0.865309 0.267308 0.257474
O O11 0.123023 0.123023 0.697330
O O12 0.000000 0.190385 0.750000
O O13 0.500000 0.083201 0.250000
O O14 0.500000 0.000000 0.116277
O O15 0.343673 0.500000 0.750000
O O16 0.411617 0.588384 0.860770
O O17 0.437506 0.437506 0.857642
#
# Coordination Sequence:
#
# PCOD8316789 Si02
#       6
#    16  16  16  16  16  16
#     4  11  22  37  59  86 121 153 188 242 301 354
#     4  12  23  35  57  87 118 147 187 240 292 349
#     4  10  21  37  57  82 114 151 190 236 289 346
#     4   9  20  38  60  84 114 153 198 239 283 346
#     4  11  23  38  60  84 114 158 196 235 281 352
#     4   9  20  40  61  80 109 152 199 244 289 340
#
# _framework density 19.905743999999999
#
# number of rings (size 3 to 8) (size 9 to 14) (size 15 to 20)
#    0.000    1.667    1.667    3.500    4.667    3.833 
#    0.000    3.333    0.000    2.000    0.000    4.667 
#    0.000    0.000    0.000    0.000    0.000    0.000 
#
# Total GULP energy -1189591.595167 kJ/mol
# GULP energy per Si atom -12391.579116 kJ/mol
# Density = 1.986044 g / cm^3
# Si number density = 19.905744 Si / 1000 Ang^3
#
#
#
# Elastic Constant Matrix: (Units=GPa)
#
#
# Indices 1 2 3 4 5 6 
#
# 1 112.4702 56.6164 38.7697 0.0000 0.0000 0.0000
# 2 56.6164 112.4702 38.7697 0.0000 0.0000 0.0000
# 3 38.7697 38.7697 78.4252 0.0000 0.0000 0.0000
# 4 0.0000 0.0000 0.0000 14.1606 0.0000 0.0000
# 5 0.0000 0.0000 0.0000 0.0000 14.1606 0.0000
# 6 0.0000 0.0000 0.0000 0.0000 0.0000 36.3292
#
#
#
# Elastic Compliance Matrix: (Units=1/GPa)
#
#
# Indices 1 2 3 4 5 6 
#
# 1 0.012776 -0.005128 -0.003781 0.000000 0.000000 0.000000
# 2 -0.005128 0.012776 -0.003781 0.000000 0.000000 0.000000
# 3 -0.003781 -0.003781 0.016489 0.000000 0.000000 0.000000
# 4 0.000000 0.000000 0.000000 0.070619 0.000000 0.000000
# 5 0.000000 0.000000 0.000000 0.000000 0.070619 0.000000
# 6 0.000000 0.000000 0.000000 0.000000 0.000000 0.027526
#
#
# Mechanical properties :
#
#
# Convention : Reuss Voigt Hill
#
# Bulk Modulus (GPa) = 60.01743 63.51968 61.76856
# Shear Modulus (GPa) = 20.68364 24.21073 22.44719
#
# Velocity S-wave (km/s) = 3.22697 3.49129 3.36173
# Velocity P-wave (km/s) = 6.64084 6.94490 6.79457
#
# Compressibility (1/GPa) = 0.01666183
#
# Stress axis : x y z
#
# Youngs Moduli (GPa) = 78.27245 78.27245 60.64621
#
# Poissons Ratio (x) = 0.40138 0.22929
# Poissons Ratio (y) = 0.40138 0.22929
# Poissons Ratio (z) = 0.29593 0.29593
#
# Static dielectric constant tensor:
#      x y z
#    x 3.727590 0.000000 0.000000 
#    y 0.000000 3.727590 0.000000 
#    z 0.000000 0.000000 3.428950 
# 
# 
# High freq. dielectric constant tensor:
#      x y z
#    x 1.778170 0.000000 0.000000 
#    y 0.000000 1.778170 0.000000 
#    z 0.000000 0.000000 1.758070 
# 
# From -- ./inp_files/6462.got.cif
#   From: 2010.03.12/outbox.cif.g09.slc.cpg/sg132_4_cif.got.tgz:6462.got - 2010.04.06 17:53:44.
