data_PCOD8316349
_publ_section_title
;
Structure prediction by ZEFSAII (Michael W. Deem and Ramdas Pophale) SiO2 
 PCOD8316349
Probable space group: P 42/M M C
;
_chemical_formula_sum "Si O2"
_cell_formula_units_Z 48
_cell_length_a 11.987762
_cell_length_b 11.987762
_cell_length_c 17.231189
_cell_angle_alpha 90.000000
_cell_angle_beta 90.000000
_cell_angle_gamma 90.000000
_cell_volume 2476.232790
_symmetry_space_group_name_H-M "P 42/M M C"
_symmetry_group_IT_number 131
_symmetry_cell_setting 'tetragonal'
loop_
_space_group_symop_operation_xyz
x,y,z
-x,-y,z
-y,x,1/2+z
y,-x,1/2+z
-x,y,-z
x,-y,-z
y,x,1/2-z
-y,-x,1/2-z
-x,-y,-z
x,y,-z
y,-x,1/2-z
-y,x,1/2-z
x,-y,z
-x,y,z
-y,-x,1/2+z
y,x,1/2+z
loop_
_atom_site_type_symbol
_atom_site_label
_atom_site_fract_x
_atom_site_fract_y
_atom_site_fract_z
Si Si1 0.500000 0.867391 0.591633
Si Si2 0.624359 0.500000 0.590841
Si Si3 0.125123 0.869455 0.087704
Si Si4 0.274883 0.301466 0.839460
O O1 0.500000 0.838947 0.500000
O O2 0.606110 0.813303 0.633156
O O3 0.500000 0.000000 0.605516
O O4 0.500000 0.500000 0.628596
O O5 0.612557 0.500000 0.500000
O O6 0.690924 0.609671 0.614926
O O7 0.217171 0.816507 0.143522
O O8 0.000000 0.840015 0.116399
O O9 0.145156 0.000000 0.090066
O O10 0.140306 0.824084 0.000000
O O11 0.307705 0.307705 0.750000
#
# Coordination Sequence:
#
# PCOD8316349 Si02
#       4
#     8   8  16  16
#     4  11  23  41  67  93 118 154 208 266 306 348
#     4  11  23  40  63  83 112 159 200 237 289 358
#     4   9  19  38  63  88 118 160 207 251 296 355
#     4  12  24  38  59  91 126 160 194 249 311 366
#
# _framework density 19.384283
#
# number of rings (size 3 to 8) (size 9 to 14) (size 15 to 20)
#    0.000    1.333    1.667    6.000    0.000    5.333 
#    0.000    2.500    0.000    3.000    0.000    0.000 
#    0.000    0.000    0.000    0.000    0.000    0.000 
#
# Total GULP energy -595280.660609 kJ/mol
# GULP energy per Si atom -12401.680429 kJ/mol
# Density = 1.934016 g / cm^3
# Si number density = 19.384283 Si / 1000 Ang^3
#
#
#
# Elastic Constant Matrix: (Units=GPa)
#
#
# Indices 1 2 3 4 5 6 
#
# 1 111.5718 57.8095 41.9413 0.0000 0.0000 0.0000
# 2 57.8095 111.5718 41.9413 0.0000 0.0000 0.0000
# 3 41.9413 41.9413 100.7811 0.0000 0.0000 0.0000
# 4 0.0000 0.0000 0.0000 19.0846 0.0000 0.0000
# 5 0.0000 0.0000 0.0000 0.0000 19.0846 0.0000
# 6 0.0000 0.0000 0.0000 0.0000 0.0000 17.3510
#
#
#
# Elastic Compliance Matrix: (Units=1/GPa)
#
#
# Indices 1 2 3 4 5 6 
#
# 1 0.013018 -0.005582 -0.003095 0.000000 0.000000 0.000000
# 2 -0.005582 0.013018 -0.003095 0.000000 0.000000 0.000000
# 3 -0.003095 -0.003095 0.012498 0.000000 0.000000 0.000000
# 4 0.000000 0.000000 0.000000 0.052398 0.000000 0.000000
# 5 0.000000 0.000000 0.000000 0.000000 0.052398 0.000000
# 6 0.000000 0.000000 0.000000 0.000000 0.000000 0.057633
#
#
# Mechanical properties :
#
#
# Convention : Reuss Voigt Hill
#
# Bulk Modulus (GPa) = 66.70148 67.47879 67.09013
# Shear Modulus (GPa) = 21.78597 23.25289 22.51943
#
# Velocity S-wave (km/s) = 3.35610 3.46724 3.41212
# Velocity P-wave (km/s) = 7.03581 7.13552 7.08584
#
# Compressibility (1/GPa) = 0.01499217
#
# Stress axis : x y z
#
# Youngs Moduli (GPa) = 76.81419 76.81419 80.01049
#
# Poissons Ratio (x) = 0.42877 0.24761
# Poissons Ratio (y) = 0.42877 0.24761
# Poissons Ratio (z) = 0.23772 0.23772
#
# Static dielectric constant tensor:
#      x y z
#    x 3.620350 0.000000 0.000000 
#    y 0.000000 3.620350 0.000000 
#    z 0.000000 0.000000 3.610190 
# 
# 
# High freq. dielectric constant tensor:
#      x y z
#    x 1.762200 0.000000 0.000000 
#    y 0.000000 1.762200 0.000000 
#    z 0.000000 0.000000 1.751070 
# 
# From -- ./inp_files/7035.got.cif
#   From: 2010.03.12/outbox.cif.g09.slc.cpg/sg131_4_cif.got.tgz:7035.got - 2010.04.06 17:36:35.
