data_PCOD8316835
_publ_section_title
;
Structure prediction by ZEFSAII (Michael W. Deem and Ramdas Pophale) SiO2 
 PCOD8316835
Probable space group: P 42/M C M
;
_chemical_formula_sum "Si O2"
_cell_formula_units_Z 96
_cell_length_a 16.707031
_cell_length_b 16.707031
_cell_length_c 17.256551
_cell_angle_alpha 90.000000
_cell_angle_beta 90.000000
_cell_angle_gamma 90.000000
_cell_volume 4816.732811
_symmetry_space_group_name_H-M "P 42/M C M"
_symmetry_group_IT_number 132
_symmetry_cell_setting 'tetragonal'
loop_
_space_group_symop_operation_xyz
x,y,z
-y,x,1/2+z
-x,-y,z
y,-x,1/2+z
x,-y,1/2-z
-x,y,1/2-z
y,x,-z
-y,-x,-z
-x,-y,-z
y,-x,1/2-z
x,y,-z
-y,x,1/2-z
-x,y,1/2+z
x,-y,1/2+z
-y,-x,z
y,x,z
loop_
_atom_site_type_symbol
_atom_site_label
_atom_site_fract_x
_atom_site_fract_y
_atom_site_fract_z
Si Si1 0.181628 0.642211 0.814179
Si Si2 0.984327 0.408851 0.165425
Si Si3 0.566084 0.691124 0.589419
Si Si4 0.216779 0.905894 0.734680
Si Si5 0.684476 0.117999 0.586628
Si Si6 0.262527 0.396894 0.842520
O O1 0.108598 0.596490 0.855390
O O2 0.252004 0.636769 0.877023
O O3 0.147719 0.730134 0.794101
O O4 0.212049 0.597312 0.736722
O O5 0.000000 0.500000 0.174906
O O6 0.000000 0.365713 0.250000
O O7 0.041123 0.371990 0.100414
O O8 0.550866 0.711999 0.500000
O O9 0.600230 0.600230 0.598090
O O10 0.483440 0.701674 0.635932
O O11 0.126166 0.873835 0.744161
O O12 0.243368 0.885484 0.647199
O O13 0.217873 0.000000 0.750000
O O14 0.719401 0.112758 0.500000
O O15 0.634477 0.200656 0.592760
O O16 0.336051 0.336051 0.832135
#
# Coordination Sequence:
#
# PCOD8316835 Si02
#       6
#    16  16  16  16  16  16
#     4  11  20  40  63  87 120 154 202 253 299 361
#     4  11  20  33  58  87 121 161 194 235 297 368
#     4  11  25  41  58  86 123 164 209 256 307 360
#     4  11  22  41  64  90 119 155 202 244 293 359
#     4  11  21  37  59  93 129 155 194 250 306 363
#     4  11  23  39  62  89 118 163 213 257 304 355
#
# _framework density 19.930523000000001
#
# number of rings (size 3 to 8) (size 9 to 14) (size 15 to 20)
#    0.000    1.000    5.000    5.000    2.333    3.833 
#    0.000    0.833    0.000    2.500    0.000    1.167 
#    0.000    0.000    0.000    0.000    0.000    0.000 
#
# Total GULP energy -1189780.589219 kJ/mol
# GULP energy per Si atom -12393.547804 kJ/mol
# Density = 1.988516 g / cm^3
# Si number density = 19.930523 Si / 1000 Ang^3
#
#
#
# Elastic Constant Matrix: (Units=GPa)
#
#
# Indices 1 2 3 4 5 6 
#
# 1 103.4511 71.3731 24.7492 0.0000 0.0000 0.0000
# 2 71.3731 103.4511 24.7492 0.0000 0.0000 0.0000
# 3 24.7492 24.7492 52.3162 0.0000 0.0000 0.0000
# 4 0.0000 0.0000 0.0000 16.6465 0.0000 0.0000
# 5 0.0000 0.0000 0.0000 0.0000 16.6465 0.0000
# 6 0.0000 0.0000 0.0000 0.0000 0.0000 34.6675
#
#
#
# Elastic Compliance Matrix: (Units=1/GPa)
#
#
# Indices 1 2 3 4 5 6 
#
# 1 0.018889 -0.012285 -0.003124 0.000000 0.000000 0.000000
# 2 -0.012285 0.018889 -0.003124 0.000000 0.000000 0.000000
# 3 -0.003124 -0.003124 0.022071 0.000000 0.000000 0.000000
# 4 0.000000 0.000000 0.000000 0.060073 0.000000 0.000000
# 5 0.000000 0.000000 0.000000 0.000000 0.060073 0.000000
# 6 0.000000 0.000000 0.000000 0.000000 0.000000 0.028845
#
#
# Mechanical properties :
#
#
# Convention : Reuss Voigt Hill
#
# Bulk Modulus (GPa) = 43.89394 55.66236 49.77815
# Shear Modulus (GPa) = 19.72376 22.81524 21.26950
#
# Velocity S-wave (km/s) = 3.14924 3.38707 3.27032
# Velocity P-wave (km/s) = 5.94095 6.57914 6.26818
#
# Compressibility (1/GPa) = 0.02278219
#
# Stress axis : x y z
#
# Youngs Moduli (GPa) = 52.94000 52.94000 45.30897
#
# Poissons Ratio (x) = 0.65035 0.14157
# Poissons Ratio (y) = 0.65035 0.14157
# Poissons Ratio (z) = 0.16541 0.16541
#
# Static dielectric constant tensor:
#      x y z
#    x 3.361210 0.000000 0.000000 
#    y 0.000000 3.361210 0.000000 
#    z 0.000000 0.000000 3.575440 
# 
# 
# High freq. dielectric constant tensor:
#      x y z
#    x 1.778290 0.000000 0.000000 
#    y 0.000000 1.778290 0.000000 
#    z 0.000000 0.000000 1.758570 
# 
# From -- ./inp_files/6500.got.cif
#   From: 2010.03.12/outbox.cif.g09.slc.cpg/sg132_4_cif.got.tgz:6500.got - 2010.04.06 17:53:44.
