data_PCOD8316538
_publ_section_title
;
Structure prediction by ZEFSAII (Michael W. Deem and Ramdas Pophale) SiO2 
 PCOD8316538
Probable space group: P 42/M C M
;
_chemical_formula_sum "Si O2"
_cell_formula_units_Z 120
_cell_length_a 19.222868
_cell_length_b 19.222868
_cell_length_c 19.478250
_cell_angle_alpha 90.000000
_cell_angle_beta 90.000000
_cell_angle_gamma 90.000000
_cell_volume 7197.576725
_symmetry_space_group_name_H-M "P 42/M C M"
_symmetry_group_IT_number 132
_symmetry_cell_setting 'tetragonal'
loop_
_space_group_symop_operation_xyz
x,y,z
-y,x,1/2+z
-x,-y,z
y,-x,1/2+z
x,-y,1/2-z
-x,y,1/2-z
y,x,-z
-y,-x,-z
-x,-y,-z
y,-x,1/2-z
x,y,-z
-y,x,1/2-z
-x,y,1/2+z
x,-y,1/2+z
-y,-x,z
y,x,z
loop_
_atom_site_type_symbol
_atom_site_label
_atom_site_fract_x
_atom_site_fract_y
_atom_site_fract_z
Si Si1 0.236292 0.350749 0.919922
Si Si2 0.992614 0.813924 0.170172
Si Si3 0.610650 0.495713 0.322364
Si Si4 0.506023 0.728372 0.420681
Si Si5 0.057744 0.057744 0.921214
Si Si6 0.146360 0.739722 0.676417
Si Si7 0.252096 0.861609 0.168632
Si Si8 0.769818 0.342480 0.920011
O O1 0.308456 0.308456 0.906089
O O2 0.240608 0.431733 0.896528
O O3 0.174318 0.320256 0.873736
O O4 0.215808 0.344779 0.000000
O O5 0.061281 0.772089 0.148956
O O6 0.000000 0.839006 0.250000
O O7 0.976226 0.878447 0.120632
O O8 0.932556 0.757430 0.158499
O O9 0.653285 0.500000 0.250000
O O10 0.582185 0.417816 0.336128
O O11 0.546830 0.546830 0.313573
O O12 0.655236 0.519484 0.385875
O O13 0.501794 0.712080 0.500000
O O14 0.575040 0.772192 0.402180
O O15 0.079624 0.079624 0.000000
O O16 0.000000 0.000000 0.927236
O O17 0.190498 0.809503 0.665199
O O18 0.148262 0.715381 0.755484
O O19 0.183351 0.816650 0.160202
O O20 0.311524 0.837427 0.116588
O O21 0.698820 0.301181 0.896363
O O22 0.779872 0.331081 0.000000
#
# Coordination Sequence:
#
# PCOD8316538 Si02
#       8
#    16  16  16  16   8  16  16  16
#     4   9  18  31  48  70  98 129 159 205 261 303
#     4  10  20  34  55  76 101 140 173 201 244 296
#     4   9  18  30  42  61  93 127 156 191 244 306
#     4  10  19  31  48  70  93 122 167 209 251 307
#     4  11  24  34  46  80 116 140 170 204 241 291
#     4   9  17  32  50  74  98 126 168 202 239 298
#     4   9  18  32  51  74  98 127 168 205 239 292
#     4   9  18  32  49  69  95 128 163 206 256 298
#
# _framework density 16.672277000000001
#
# number of rings (size 3 to 8) (size 9 to 14) (size 15 to 20)
#    0.000    2.600    0.667    1.600    1.867    3.733 
#    0.000    4.667    0.000    0.800    0.000    5.600 
#    0.000    0.000    0.000    0.000    0.000    0.000 
#
# Total GULP energy -1486973.772726 kJ/mol
# GULP energy per Si atom -12391.448106 kJ/mol
# Density = 1.663433 g / cm^3
# Si number density = 16.672277 Si / 1000 Ang^3
#
#
#
# Elastic Constant Matrix: (Units=GPa)
#
#
# Indices 1 2 3 4 5 6 
#
# 1 107.5468 55.4355 57.9785 0.0000 0.0000 0.0000
# 2 55.4355 107.5468 57.9785 0.0000 0.0000 0.0000
# 3 57.9785 57.9785 61.1838 0.0000 0.0000 0.0000
# 4 0.0000 0.0000 0.0000 28.0028 0.0000 0.0000
# 5 0.0000 0.0000 0.0000 0.0000 28.0028 0.0000
# 6 0.0000 0.0000 0.0000 0.0000 0.0000 16.1834
#
#
#
# Elastic Compliance Matrix: (Units=1/GPa)
#
#
# Indices 1 2 3 4 5 6 
#
# 1 0.019011 -0.000179 -0.017846 0.000000 0.000000 0.000000
# 2 -0.000179 0.019011 -0.017846 0.000000 0.000000 0.000000
# 3 -0.017846 -0.017846 0.050166 0.000000 0.000000 0.000000
# 4 0.000000 0.000000 0.000000 0.035711 0.000000 0.000000
# 5 0.000000 0.000000 0.000000 0.000000 0.035711 0.000000
# 6 0.000000 0.000000 0.000000 0.000000 0.000000 0.061792
#
#
# Mechanical properties :
#
#
# Convention : Reuss Voigt Hill
#
# Bulk Modulus (GPa) = 60.79928 68.78471 64.79200
# Shear Modulus (GPa) = 16.74344 21.43012 19.08678
#
# Velocity S-wave (km/s) = 3.17246 3.58910 3.38719
# Velocity P-wave (km/s) = 7.06865 7.64997 7.36505
#
# Compressibility (1/GPa) = 0.01644756
#
# Stress axis : x y z
#
# Youngs Moduli (GPa) = 52.60095 52.60095 19.93380
#
# Poissons Ratio (x) = 0.00940 0.35574
# Poissons Ratio (y) = 0.00940 0.35574
# Poissons Ratio (z) = 0.93871 0.93871
#
# Static dielectric constant tensor:
#      x y z
#    x 2.897320 0.000000 0.000000 
#    y 0.000000 2.897320 0.000000 
#    z 0.000000 0.000000 3.312490 
# 
# 
# High freq. dielectric constant tensor:
#      x y z
#    x 1.627260 0.000000 0.000000 
#    y 0.000000 1.627260 0.000000 
#    z 0.000000 0.000000 1.649670 
# 
# From -- ./inp_files/8211.got.cif
#   From: 2010.03.12/outbox.cif.g09.slc.cpg/sg132_5_cif.got.tgz:8211.got - 2010.04.06 17:53:44.
