data_PCOD8316506
_publ_section_title
;
Structure prediction by ZEFSAII (Michael W. Deem and Ramdas Pophale) SiO2 
 PCOD8316506
Probable space group: P 42/M C M
;
_chemical_formula_sum "Si O2"
_cell_formula_units_Z 88
_cell_length_a 14.238026
_cell_length_b 14.238026
_cell_length_c 29.264694
_cell_angle_alpha 90.000000
_cell_angle_beta 90.000000
_cell_angle_gamma 90.000000
_cell_volume 5932.579281
_symmetry_space_group_name_H-M "P 42/M C M"
_symmetry_group_IT_number 132
_symmetry_cell_setting 'tetragonal'
loop_
_space_group_symop_operation_xyz
x,y,z
-y,x,1/2+z
-x,-y,z
y,-x,1/2+z
x,-y,1/2-z
-x,y,1/2-z
y,x,-z
-y,-x,-z
-x,-y,-z
y,-x,1/2-z
x,y,-z
-y,x,1/2-z
-x,y,1/2+z
x,-y,1/2+z
-y,-x,z
y,x,z
loop_
_atom_site_type_symbol
_atom_site_label
_atom_site_fract_x
_atom_site_fract_y
_atom_site_fract_z
Si Si1 0.575186 0.424815 0.445396
Si Si2 0.783041 0.456184 0.553959
Si Si3 0.201517 0.950465 0.894506
Si Si4 0.666813 0.184287 0.052202
Si Si5 0.848227 0.995562 0.201150
Si Si6 0.727169 0.878837 0.051059
O O1 0.500000 0.500000 0.425905
O O2 0.572466 0.427535 0.500000
O O3 0.551325 0.321713 0.425872
O O4 0.776793 0.441957 0.500000
O O5 0.820006 0.558832 0.566964
O O6 0.855035 0.375951 0.572679
O O7 0.099315 0.900686 0.902605
O O8 0.282876 0.883270 0.912188
O O9 0.217649 0.972122 0.840807
O O10 0.209912 0.048444 0.920670
O O11 0.710659 0.289341 0.056091
O O12 0.679586 0.148269 0.000000
O O13 0.933090 0.066911 0.207314
O O14 0.792266 0.000000 0.250000
O O15 0.892078 0.892078 0.190725
O O16 0.779960 0.779960 0.049821
O O17 0.716031 0.920329 0.000000
#
# Coordination Sequence:
#
# PCOD8316506 Si02
#       6
#     8  16  16  16  16  16
#     4   9  14  22  40  60  75  99 137 181 226 254
#     4   9  16  27  40  56  79 107 141 180 216 245
#     4  10  19  29  41  59  84 113 142 166 199 243
#     4   9  17  28  41  59  84 112 144 177 203 240
#     4   8  14  26  44  63  80  99 131 175 214 246
#     4  10  19  29  40  56  82 113 145 179 207 234
#
# _framework density 14.833345
#
# number of rings (size 3 to 8) (size 9 to 14) (size 15 to 20)
#    0.000    2.818    0.909    2.182    0.000    5.091 
#    0.000    3.636    0.000    0.000    0.000    2.545 
#    0.000    0.000    0.000    0.000    0.727    3.636 
#
# Total GULP energy -1090293.311776 kJ/mol
# GULP energy per Si atom -12389.696725 kJ/mol
# Density = 1.479958 g / cm^3
# Si number density = 14.833345 Si / 1000 Ang^3
#
#
#
# Elastic Constant Matrix: (Units=GPa)
#
#
# Indices 1 2 3 4 5 6 
#
# 1 80.9277 32.4380 39.4871 0.0000 0.0000 0.0000
# 2 32.4380 80.9278 39.4871 0.0000 0.0000 0.0000
# 3 39.4871 39.4871 84.5713 0.0000 0.0000 0.0000
# 4 0.0000 0.0000 0.0000 -13.3927 0.0000 0.0000
# 5 0.0000 0.0000 0.0000 0.0000 -13.3926 0.0000
# 6 0.0000 0.0000 0.0000 0.0000 0.0000 21.6525
#
#
#
# Elastic Compliance Matrix: (Units=1/GPa)
#
#
# Indices 1 2 3 4 5 6 
#
# 1 0.016848 -0.003775 -0.006104 0.000000 0.000000 0.000000
# 2 -0.003775 0.016848 -0.006104 0.000000 0.000000 0.000000
# 3 -0.006104 -0.006104 0.017524 0.000000 0.000000 0.000000
# 4 0.000000 0.000000 0.000000 -0.074668 0.000000 0.000000
# 5 0.000000 0.000000 0.000000 0.000000 -0.074668 0.000000
# 6 0.000000 0.000000 0.000000 0.000000 0.000000 0.046184
#
#
# Mechanical properties :
#
#
# Convention : Reuss Voigt Hill
#
# Bulk Modulus (GPa) = 51.93505 52.13902 52.03704
# Shear Modulus (GPa) = -369.08967 7.97440 -180.55764
#
# Velocity S-wave (km/s) = -15.79128 2.32113 -11.04484
# Velocity P-wave (km/s) = 17.24522 6.51228 11.29132
#
# Compressibility (1/GPa) = 0.01925482
#
# Stress axis : x y z
#
# Youngs Moduli (GPa) = 59.35389 59.35390 57.06331
#
# Poissons Ratio (x) = 0.22405 0.34832
# Poissons Ratio (y) = 0.22405 0.34832
# Poissons Ratio (z) = 0.36230 0.36230
#
# Static dielectric constant tensor:
#      x y z
#    x 2.853730 0.000000 0.000000 
#    y 0.000000 2.853730 0.000000 
#    z 0.000000 0.000000 2.737000 
# 
# 
# High freq. dielectric constant tensor:
#      x y z
#    x 1.562490 0.000000 0.000000 
#    y 0.000000 1.562490 0.000000 
#    z 0.000000 0.000000 1.518330 
# 
# From -- ./inp_files/8967.got.cif
#   From: 2010.03.12/outbox.cif.g09.slc.cpg/sg132_5_cif.got.tgz:8967.got - 2010.04.06 17:53:44.
