data_PCOD8316239
_publ_section_title
;
Structure prediction by ZEFSAII (Michael W. Deem and Ramdas Pophale) SiO2 
 PCOD8316239
Probable space group: P 42/M M C
;
_chemical_formula_sum "Si O2"
_cell_formula_units_Z 72
_cell_length_a 13.201417
_cell_length_b 13.201417
_cell_length_c 22.564164
_cell_angle_alpha 90.000000
_cell_angle_beta 90.000000
_cell_angle_gamma 90.000000
_cell_volume 3932.424079
_symmetry_space_group_name_H-M "P 42/M M C"
_symmetry_group_IT_number 131
_symmetry_cell_setting 'tetragonal'
loop_
_space_group_symop_operation_xyz
x,y,z
-x,-y,z
-y,x,1/2+z
y,-x,1/2+z
-x,y,-z
x,-y,-z
y,x,1/2-z
-y,-x,1/2-z
-x,-y,-z
x,y,-z
y,-x,1/2-z
-y,x,1/2-z
x,-y,z
-x,y,z
-y,-x,1/2+z
y,x,1/2+z
loop_
_atom_site_type_symbol
_atom_site_label
_atom_site_fract_x
_atom_site_fract_y
_atom_site_fract_z
Si Si1 0.611402 0.885310 0.868152
Si Si2 0.500000 0.120550 0.566064
Si Si3 0.811559 0.883640 0.931534
Si Si4 0.883369 0.693253 0.138518
Si Si5 0.770564 0.616629 0.751975
O O1 0.500000 0.860073 0.894151
O O2 0.691989 0.866953 0.920277
O O3 0.636105 0.815748 0.812519
O O4 0.615896 0.000000 0.844746
O O5 0.500000 0.166022 0.500000
O O6 0.602375 0.160482 0.597672
O O7 0.500000 0.000000 0.564026
O O8 0.872432 0.803560 0.891727
O O9 0.842963 0.000000 0.915444
O O10 0.835359 0.861564 0.000000
O O11 0.828149 0.688538 0.201528
O O12 0.000000 0.673068 0.151284
O O13 0.653789 0.653789 0.750000
O O14 0.777193 0.500000 0.771416
#
# Coordination Sequence:
#
# PCOD8316239 Si02
#       5
#    16   8  16  16  16
#     4   9  18  33  55  80 104 134 176 228 277 320
#     4   9  18  32  52  80 109 139 180 228 272 313
#     4  10  21  36  54  79 112 150 189 226 272 334
#     4  11  21  35  56  82 111 146 188 232 275 324
#     4  11  21  36  58  83 109 138 176 224 278 334
#
# _framework density 18.309317
#
# number of rings (size 3 to 8) (size 9 to 14) (size 15 to 20)
#    0.000    1.889    3.333    1.333    0.000    3.333 
#    0.000    3.333    0.000    0.000    0.000    0.000 
#    0.000    7.111    0.000    0.000    0.000    0.000 
#
# Total GULP energy -892598.080196 kJ/mol
# GULP energy per Si atom -12397.195558 kJ/mol
# Density = 1.826764 g / cm^3
# Si number density = 18.309317 Si / 1000 Ang^3
#
#
#
# Elastic Constant Matrix: (Units=GPa)
#
#
# Indices 1 2 3 4 5 6 
#
# 1 71.0016 22.5805 15.1128 0.0000 0.0000 0.0000
# 2 22.5805 71.0016 15.1128 0.0000 0.0000 0.0000
# 3 15.1128 15.1128 48.3706 0.0000 0.0000 0.0000
# 4 0.0000 0.0000 0.0000 25.7079 0.0000 0.0000
# 5 0.0000 0.0000 0.0000 0.0000 25.7079 0.0000
# 6 0.0000 0.0000 0.0000 0.0000 0.0000 27.7110
#
#
#
# Elastic Compliance Matrix: (Units=1/GPa)
#
#
# Indices 1 2 3 4 5 6 
#
# 1 0.016269 -0.004383 -0.003713 0.000000 0.000000 0.000000
# 2 -0.004383 0.016269 -0.003713 0.000000 0.000000 0.000000
# 3 -0.003713 -0.003713 0.022994 0.000000 0.000000 0.000000
# 4 0.000000 0.000000 0.000000 0.038899 0.000000 0.000000
# 5 0.000000 0.000000 0.000000 0.000000 0.038899 0.000000
# 6 0.000000 0.000000 0.000000 0.000000 0.000000 0.036087
#
#
# Mechanical properties :
#
#
# Convention : Reuss Voigt Hill
#
# Bulk Modulus (GPa) = 31.33722 32.88736 32.11229
# Shear Modulus (GPa) = 24.54917 24.99653 24.77285
#
# Velocity S-wave (km/s) = 3.66567 3.69892 3.68233
# Velocity P-wave (km/s) = 5.92189 6.02028 5.97129
#
# Compressibility (1/GPa) = 0.03191093
#
# Stress axis : x y z
#
# Youngs Moduli (GPa) = 61.46788 61.46788 43.48935
#
# Poissons Ratio (x) = 0.26944 0.16149
# Poissons Ratio (y) = 0.26944 0.16149
# Poissons Ratio (z) = 0.22825 0.22825
#
# Static dielectric constant tensor:
#      x y z
#    x 3.374420 0.000000 0.000000 
#    y 0.000000 3.374420 0.000000 
#    z 0.000000 0.000000 3.291400 
# 
# 
# High freq. dielectric constant tensor:
#      x y z
#    x 1.703520 0.000000 0.000000 
#    y 0.000000 1.703520 0.000000 
#    z 0.000000 0.000000 1.706300 
# 
# From -- ./inp_files/12124.got.cif
#   From: 2010.03.12/outbox.cif.g09.slc.cpg/sg131_7_cif.got.tgz:12124.got - 2010.04.06 17:36:35.
