data_PCOD8316812
_publ_section_title
;
Structure prediction by ZEFSAII (Michael W. Deem and Ramdas Pophale) SiO2 
 PCOD8316812
Probable space group: P 42/M C M
;
_chemical_formula_sum "Si O2"
_cell_formula_units_Z 64
_cell_length_a 13.366861
_cell_length_b 13.366861
_cell_length_c 17.748520
_cell_angle_alpha 90.000000
_cell_angle_beta 90.000000
_cell_angle_gamma 90.000000
_cell_volume 3171.180835
_symmetry_space_group_name_H-M "P 42/M C M"
_symmetry_group_IT_number 132
_symmetry_cell_setting 'tetragonal'
loop_
_space_group_symop_operation_xyz
x,y,z
-y,x,1/2+z
-x,-y,z
y,-x,1/2+z
x,-y,1/2-z
-x,y,1/2-z
y,x,-z
-y,-x,-z
-x,-y,-z
y,-x,1/2-z
x,y,-z
-y,x,1/2-z
-x,y,1/2+z
x,-y,1/2+z
-y,-x,z
y,x,z
loop_
_atom_site_type_symbol
_atom_site_label
_atom_site_fract_x
_atom_site_fract_y
_atom_site_fract_z
Si Si1 0.308978 0.146964 0.863229
Si Si2 0.112304 0.482569 0.415011
Si Si3 0.005016 0.843275 0.838736
Si Si4 0.606689 0.768679 0.716112
O O1 0.231412 0.231412 0.889568
O O2 0.407432 0.162399 0.913254
O O3 0.260963 0.034938 0.875193
O O4 0.334879 0.160513 0.774677
O O5 0.115460 0.440343 0.500000
O O6 0.169359 0.405198 0.361162
O O7 0.000000 0.500000 0.385032
O O8 0.927968 0.927968 0.864857
O O9 0.000000 0.831047 0.750000
O O10 0.117643 0.882358 0.862635
O O11 0.500000 0.736305 0.750000
O O12 0.668164 0.668164 0.698536
#
# Coordination Sequence:
#
# PCOD8316812 Si02
#       4
#    16  16  16  16
#     4   9  18  32  53  78 102 134 174 216 263 317
#     4  10  22  37  52  73 107 148 183 218 262 316
#     4   8  14  24  41  71 105 129 156 203 256 300
#     4   9  19  35  57  83 107 134 174 227 283 334
#
# _framework density 20.181757000000001
#
# number of rings (size 3 to 8) (size 9 to 14) (size 15 to 20)
#    0.000    3.000    0.000    0.750    3.500    4.750 
#    0.000    0.000    0.000    2.250    0.000   10.500 
#    0.000    0.000    0.000    9.750    0.000    0.000 
#
# Total GULP energy -792921.289694 kJ/mol
# GULP energy per Si atom -12389.395151 kJ/mol
# Density = 2.013582 g / cm^3
# Si number density = 20.181757 Si / 1000 Ang^3
#
#
#
# Elastic Constant Matrix: (Units=GPa)
#
#
# Indices 1 2 3 4 5 6 
#
# 1 76.8846 33.5412 17.0587 0.0000 0.0000 0.0000
# 2 33.5412 76.8846 17.0587 0.0000 0.0000 0.0000
# 3 17.0587 17.0587 63.5535 0.0000 0.0000 0.0000
# 4 0.0000 0.0000 0.0000 17.6936 0.0000 0.0000
# 5 0.0000 0.0000 0.0000 0.0000 17.6936 0.0000
# 6 0.0000 0.0000 0.0000 0.0000 0.0000 38.0389
#
#
#
# Elastic Compliance Matrix: (Units=1/GPa)
#
#
# Indices 1 2 3 4 5 6 
#
# 1 0.016473 -0.006598 -0.002651 0.000000 0.000000 0.000000
# 2 -0.006598 0.016473 -0.002651 0.000000 0.000000 0.000000
# 3 -0.002651 -0.002651 0.017158 0.000000 0.000000 0.000000
# 4 0.000000 0.000000 0.000000 0.056518 0.000000 0.000000
# 5 0.000000 0.000000 0.000000 0.000000 0.056518 0.000000
# 6 0.000000 0.000000 0.000000 0.000000 0.000000 0.026289
#
#
# Mechanical properties :
#
#
# Convention : Reuss Voigt Hill
#
# Bulk Modulus (GPa) = 38.01550 39.18221 38.59886
# Shear Modulus (GPa) = 22.52299 24.66283 23.59291
#
# Velocity S-wave (km/s) = 3.34429 3.49956 3.42280
# Velocity P-wave (km/s) = 5.81290 5.98214 5.89813
#
# Compressibility (1/GPa) = 0.02630506
#
# Stress axis : x y z
#
# Youngs Moduli (GPa) = 60.70473 60.70473 58.28299
#
# Poissons Ratio (x) = 0.40055 0.15448
# Poissons Ratio (y) = 0.40055 0.15448
# Poissons Ratio (z) = 0.16090 0.16090
#
# Static dielectric constant tensor:
#      x y z
#    x 3.793110 0.000000 0.000000 
#    y 0.000000 3.793110 0.000000 
#    z 0.000000 0.000000 3.206150 
# 
# 
# High freq. dielectric constant tensor:
#      x y z
#    x 1.785590 0.000000 0.000000 
#    y 0.000000 1.785590 0.000000 
#    z 0.000000 0.000000 1.746550 
# 
# From -- ./inp_files/4434.got.cif
#   From: 2010.03.12/outbox.cif.g09.slc.cpg/sg132_3_cif.got.tgz:4434.got - 2010.04.06 17:53:44.
