data_PCOD8316266
_publ_section_title
;
Structure prediction by ZEFSAII (Michael W. Deem and Ramdas Pophale) SiO2 
 PCOD8316266
Probable space group: P 42/M M C
;
_chemical_formula_sum "Si O2"
_cell_formula_units_Z 80
_cell_length_a 16.321068
_cell_length_b 16.321068
_cell_length_c 15.344035
_cell_angle_alpha 90.000000
_cell_angle_beta 90.000000
_cell_angle_gamma 90.000000
_cell_volume 4087.302011
_symmetry_space_group_name_H-M "P 42/M M C"
_symmetry_group_IT_number 131
_symmetry_cell_setting 'tetragonal'
loop_
_space_group_symop_operation_xyz
x,y,z
-x,-y,z
-y,x,1/2+z
y,-x,1/2+z
-x,y,-z
x,-y,-z
y,x,1/2-z
-y,-x,1/2-z
-x,-y,-z
x,y,-z
y,-x,1/2-z
-y,x,1/2-z
x,-y,z
-x,y,z
-y,-x,1/2+z
y,x,1/2+z
loop_
_atom_site_type_symbol
_atom_site_label
_atom_site_fract_x
_atom_site_fract_y
_atom_site_fract_z
Si Si1 0.680954 0.000000 0.102793
Si Si2 0.591888 0.276328 0.261991
Si Si3 0.207434 0.712647 0.097181
Si Si4 0.166357 0.908459 0.328639
Si Si5 0.363804 0.178614 0.900439
Si Si6 0.000000 0.139764 0.599502
O O1 0.633780 0.916578 0.130030
O O2 0.770978 0.000000 0.146659
O O3 0.688310 0.000000 0.000000
O O4 0.636445 0.363556 0.250000
O O5 0.500000 0.292679 0.296222
O O6 0.640714 0.223136 0.333556
O O7 0.583659 0.229471 0.169438
O O8 0.120068 0.755816 0.114478
O O9 0.271778 0.786947 0.104230
O O10 0.207975 0.674252 0.000000
O O11 0.155969 0.844031 0.250000
O O12 0.080776 0.912204 0.379960
O O13 0.183553 0.000000 0.294208
O O14 0.398029 0.188900 0.000000
O O15 0.000000 0.160877 0.500000
#
# Coordination Sequence:
#
# PCOD8316266 Si02
#       6
#     8  16  16  16  16   8
#     4   9  16  29  53  81 109 146 187 228 280 340
#     4  10  22  40  63  91 118 146 185 234 294 361
#     4  10  21  38  58  80 110 156 208 246 285 342
#     4  12  23  34  50  77 115 157 203 255 312 353
#     4   9  17  33  58  86 117 150 185 229 285 350
#     4  11  21  32  49  75 113 154 194 247 301 353
#
# _framework density 19.572813
#
# number of rings (size 3 to 8) (size 9 to 14) (size 15 to 20)
#    0.000    1.800    3.000    2.700    0.000    3.000 
#    0.000    0.500    0.000    1.800    0.000    7.000 
#    0.000    0.000    0.000    0.000    0.000    0.000 
#
# Total GULP energy -991546.067821 kJ/mol
# GULP energy per Si atom -12394.325848 kJ/mol
# Density = 1.952826 g / cm^3
# Si number density = 19.572813 Si / 1000 Ang^3
#
#
#
# Elastic Constant Matrix: (Units=GPa)
#
#
# Indices 1 2 3 4 5 6 
#
# 1 103.5596 43.7593 38.4035 0.0000 0.0000 0.0000
# 2 43.7593 103.5587 38.4030 0.0000 0.0000 0.0000
# 3 38.4035 38.4030 105.7905 0.0000 0.0000 0.0000
# 4 0.0000 0.0000 0.0000 14.2302 0.0000 0.0000
# 5 0.0000 0.0000 0.0000 0.0000 14.2307 0.0000
# 6 0.0000 0.0000 0.0000 0.0000 0.0000 18.9904
#
#
#
# Elastic Compliance Matrix: (Units=1/GPa)
#
#
# Indices 1 2 3 4 5 6 
#
# 1 0.012548 -0.004175 -0.003039 0.000000 0.000000 0.000000
# 2 -0.004175 0.012548 -0.003039 0.000000 0.000000 0.000000
# 3 -0.003039 -0.003039 0.011659 0.000000 0.000000 0.000000
# 4 0.000000 0.000000 0.000000 0.070273 0.000000 0.000000
# 5 0.000000 0.000000 0.000000 0.000000 0.070271 0.000000
# 6 0.000000 0.000000 0.000000 0.000000 0.000000 0.052658
#
#
# Mechanical properties :
#
#
# Convention : Reuss Voigt Hill
#
# Bulk Modulus (GPa) = 61.54947 61.56004 61.55476
# Shear Modulus (GPa) = 19.54047 22.31313 20.92680
#
# Velocity S-wave (km/s) = 3.16309 3.38006 3.27337
# Velocity P-wave (km/s) = 6.69738 6.83763 6.76787
#
# Compressibility (1/GPa) = 0.01624709
#
# Stress axis : x y z
#
# Youngs Moduli (GPa) = 79.69709 79.69661 85.76843
#
# Poissons Ratio (x) = 0.33273 0.26068
# Poissons Ratio (y) = 0.33273 0.26068
# Poissons Ratio (z) = 0.24223 0.24223
#
# Static dielectric constant tensor:
#      x y z
#    x 3.349850 0.000000 0.000000 
#    y 0.000000 3.349860 0.000000 
#    z 0.000000 0.000000 3.684600 
# 
# 
# High freq. dielectric constant tensor:
#      x y z
#    x 1.737170 0.000000 0.000000 
#    y 0.000000 1.737170 0.000000 
#    z 0.000000 0.000000 1.768450 
# 
# From -- ./inp_files/5798.got.cif
#   From: 2010.03.12/outbox.cif.g09.slc.cpg/sg131_3_cif.got.tgz:5798.got - 2010.04.06 17:36:35.
