data_PCOD8316040
_publ_section_title
;
Structure prediction by ZEFSAII (Michael W. Deem and Ramdas Pophale) SiO2 
 PCOD8316040
Probable space group: P 42/M M C
;
_chemical_formula_sum "Si O2"
_cell_formula_units_Z 96
_cell_length_a 18.112110
_cell_length_b 18.112110
_cell_length_c 16.966881
_cell_angle_alpha 90.000000
_cell_angle_beta 90.000000
_cell_angle_gamma 90.000000
_cell_volume 5565.960348
_symmetry_space_group_name_H-M "P 42/M M C"
_symmetry_group_IT_number 131
_symmetry_cell_setting 'tetragonal'
loop_
_space_group_symop_operation_xyz
x,y,z
-x,-y,z
-y,x,1/2+z
y,-x,1/2+z
-x,y,-z
x,-y,-z
y,x,1/2-z
-y,-x,1/2-z
-x,-y,-z
x,y,-z
y,-x,1/2-z
-y,x,1/2-z
x,-y,z
-x,y,z
-y,-x,1/2+z
y,x,1/2+z
loop_
_atom_site_type_symbol
_atom_site_label
_atom_site_fract_x
_atom_site_fract_y
_atom_site_fract_z
Si Si1 0.000000 0.586519 0.415116
Si Si2 0.584601 0.838785 0.905903
Si Si3 0.714455 0.082605 0.312411
Si Si4 0.581136 0.912400 0.587796
Si Si5 0.200347 0.718868 0.314339
Si Si6 0.083856 0.000000 0.093413
Si Si7 0.858712 0.158405 0.906877
O O1 0.921888 0.605508 0.373657
O O2 0.000000 0.500000 0.430696
O O3 0.000000 0.627134 0.500000
O O4 0.500000 0.818140 0.885318
O O5 0.639748 0.785705 0.856936
O O6 0.597047 0.832928 0.000000
O O7 0.645328 0.121189 0.357754
O O8 0.726069 0.123869 0.231242
O O9 0.788081 0.081672 0.366014
O O10 0.693489 0.000000 0.289485
O O11 0.590133 0.879595 0.500000
O O12 0.500000 0.890986 0.621522
O O13 0.589722 0.000000 0.583714
O O14 0.265346 0.734655 0.250000
O O15 0.191855 0.779420 0.382809
O O16 0.127077 0.073885 0.122116
O O17 0.000000 0.000000 0.127121
O O18 0.080595 0.000000 0.000000
O O19 0.867997 0.163833 0.000000
#
# Coordination Sequence:
#
# PCOD8316040 Si02
#       7
#     8  16  16  16  16   8  16
#     4   7  12  23  41  69  95 114 149 200 243 275
#     4   9  17  31  52  74  96 128 170 209 244 290
#     4  10  20  31  45  64  90 121 153 189 235 293
#     4   8  14  26  44  65  86 109 143 182 215 256
#     4  10  22  34  44  66 100 129 155 192 245 305
#     4   9  18  31  49  69  80  99 153 221 265 294
#     4  10  20  34  50  64  83 116 159 207 256 293
#
# _framework density 17.247696000000001
#
# number of rings (size 3 to 8) (size 9 to 14) (size 15 to 20)
#    0.000    2.833    0.000    3.000    2.333    2.333 
#    0.000    2.500    0.000    0.000    0.000    0.000 
#    0.000    0.333    0.000    1.833    0.000    1.833 
#
# Total GULP energy -1189275.407055 kJ/mol
# GULP energy per Si atom -12388.285490 kJ/mol
# Density = 1.720844 g / cm^3
# Si number density = 17.247696 Si / 1000 Ang^3
#
#
#
# Elastic Constant Matrix: (Units=GPa)
#
#
# Indices 1 2 3 4 5 6 
#
# 1 80.6507 12.0611 19.9420 0.0000 0.0000 0.0000
# 2 12.0611 80.6512 19.9420 0.0000 0.0000 0.0000
# 3 19.9420 19.9420 48.5469 0.0000 0.0000 0.0000
# 4 0.0000 0.0000 0.0000 17.2868 0.0000 0.0000
# 5 0.0000 0.0000 0.0000 0.0000 17.2871 0.0000
# 6 0.0000 0.0000 0.0000 0.0000 0.0000 10.3181
#
#
#
# Elastic Compliance Matrix: (Units=1/GPa)
#
#
# Indices 1 2 3 4 5 6 
#
# 1 0.013840 -0.000739 -0.005382 0.000000 0.000000 0.000000
# 2 -0.000739 0.013840 -0.005382 0.000000 0.000000 0.000000
# 3 -0.005382 -0.005382 0.025020 0.000000 0.000000 0.000000
# 4 0.000000 0.000000 0.000000 0.057847 0.000000 0.000000
# 5 0.000000 0.000000 0.000000 0.000000 0.057847 0.000000
# 6 0.000000 0.000000 0.000000 0.000000 0.000000 0.096917
#
#
# Mechanical properties :
#
#
# Convention : Reuss Voigt Hill
#
# Bulk Modulus (GPa) = 33.67489 34.85986 34.26737
# Shear Modulus (GPa) = 16.76642 19.50533 18.13588
#
# Velocity S-wave (km/s) = 3.12123 3.36653 3.24620
# Velocity P-wave (km/s) = 5.70579 5.94698 5.82763
#
# Compressibility (1/GPa) = 0.02969572
#
# Stress axis : x y z
#
# Youngs Moduli (GPa) = 72.25232 72.25283 39.96798
#
# Poissons Ratio (x) = 0.05340 0.21510
# Poissons Ratio (y) = 0.05340 0.21510
# Poissons Ratio (z) = 0.38884 0.38884
#
# Static dielectric constant tensor:
#      x y z
#    x 3.180420 0.000000 0.000000 
#    y 0.000000 3.180420 0.000000 
#    z 0.000000 0.000000 3.141220 
# 
# 
# High freq. dielectric constant tensor:
#      x y z
#    x 1.636410 0.000000 0.000000 
#    y 0.000000 1.636410 0.000000 
#    z 0.000000 0.000000 1.664890 
# 
# From -- ./inp_files/8009.got.cif
#   From: 2010.03.12/outbox.cif.g09.slc.cpg/sg131_5_cif.got.tgz:8009.got - 2010.04.06 17:36:35.
