data_PCOD8316260
_publ_section_title
;
Structure prediction by ZEFSAII (Michael W. Deem and Ramdas Pophale) SiO2 
 PCOD8316260
Probable space group: P 42/M M C
;
_chemical_formula_sum "Si O2"
_cell_formula_units_Z 96
_cell_length_a 23.871277
_cell_length_b 23.871277
_cell_length_c 9.193384
_cell_angle_alpha 90.000000
_cell_angle_beta 90.000000
_cell_angle_gamma 90.000000
_cell_volume 5238.738316
_symmetry_space_group_name_H-M "P 42/M M C"
_symmetry_group_IT_number 131
_symmetry_cell_setting 'tetragonal'
loop_
_space_group_symop_operation_xyz
x,y,z
-x,-y,z
-y,x,1/2+z
y,-x,1/2+z
-x,y,-z
x,-y,-z
y,x,1/2-z
-y,-x,1/2-z
-x,-y,-z
x,y,-z
y,-x,1/2-z
-y,x,1/2-z
x,-y,z
-x,y,z
-y,-x,1/2+z
y,x,1/2+z
loop_
_atom_site_type_symbol
_atom_site_label
_atom_site_fract_x
_atom_site_fract_y
_atom_site_fract_z
Si Si1 0.934804 0.147381 0.669276
Si Si2 0.935568 0.261843 0.170442
Si Si3 0.366243 0.140161 0.668712
Si Si4 0.938800 0.565408 0.658184
Si Si5 0.355540 0.562736 0.330912
Si Si6 0.436618 0.228164 0.828589
O O1 0.900979 0.099022 0.750000
O O2 0.918347 0.148809 0.500000
O O3 0.919520 0.207059 0.738861
O O4 0.000000 0.133757 0.691442
O O5 0.889733 0.308419 0.218992
O O6 0.000000 0.280679 0.204211
O O7 0.929337 0.248733 0.000000
O O8 0.364811 0.154546 0.500000
O O9 0.414703 0.096186 0.704464
O O10 0.384446 0.196038 0.754100
O O11 0.911526 0.581503 0.500000
O O12 0.944486 0.500000 0.670171
O O13 0.000000 0.593131 0.667122
O O14 0.393646 0.606355 0.250000
O O15 0.359398 0.575769 0.500000
O O16 0.376742 0.500000 0.296881
O O17 0.291949 0.569378 0.276900
O O18 0.500000 0.206415 0.786540
O O19 0.429286 0.222782 0.000000
#
# Coordination Sequence:
#
# PCOD8316260 Si02
#       6
#    16  16  16  16  16  16
#     4  10  21  37  59  86 112 139 172 209 252 305
#     4   9  19  36  54  73 104 143 178 217 265 312
#     4  11  21  31  48  75 102 132 175 222 267 312
#     4   9  18  31  45  63  91 129 171 215 265 318
#     4   9  19  36  57  81 108 137 169 207 254 309
#     4   9  19  36  54  72 101 142 182 218 259 309
#
# _framework density 18.325023999999999
#
# number of rings (size 3 to 8) (size 9 to 14) (size 15 to 20)
#    0.000    2.500    0.000    3.500    0.000    7.333 
#    0.000    6.667    0.000    2.000    0.000    0.000 
#    0.000    0.000    0.000    0.000    0.000    0.000 
#
# Total GULP energy -1189630.205528 kJ/mol
# GULP energy per Si atom -12391.981308 kJ/mol
# Density = 1.828332 g / cm^3
# Si number density = 18.325024 Si / 1000 Ang^3
#
#
#
# Elastic Constant Matrix: (Units=GPa)
#
#
# Indices 1 2 3 4 5 6 
#
# 1 100.0311 65.8521 52.2885 0.0000 0.0000 0.0000
# 2 65.8521 100.0277 52.2945 0.0000 0.0000 0.0000
# 3 52.2885 52.2945 69.4634 0.0000 0.0000 0.0000
# 4 0.0000 0.0000 0.0000 111.2232 0.0000 0.0000
# 5 0.0000 0.0000 0.0000 0.0000 110.9080 0.0000
# 6 0.0000 0.0000 0.0000 0.0000 0.0000 38.6359
#
#
#
# Elastic Compliance Matrix: (Units=1/GPa)
#
#
# Indices 1 2 3 4 5 6 
#
# 1 0.020365 -0.008893 -0.008635 0.000000 0.000000 0.000000
# 2 -0.008893 0.020369 -0.008640 0.000000 0.000000 0.000000
# 3 -0.008635 -0.008640 0.027401 0.000000 0.000000 0.000000
# 4 0.000000 0.000000 0.000000 0.008991 0.000000 0.000000
# 5 0.000000 0.000000 0.000000 0.000000 0.009016 0.000000
# 6 0.000000 0.000000 0.000000 0.000000 0.000000 0.025883
#
#
# Mechanical properties :
#
#
# Convention : Reuss Voigt Hill
#
# Bulk Modulus (GPa) = 63.29724 67.82139 65.55932
# Shear Modulus (GPa) = 29.47660 58.75922 44.11791
#
# Velocity S-wave (km/s) = 4.01502 5.66874 4.91197
# Velocity P-wave (km/s) = 7.49068 8.94074 8.24764
#
# Compressibility (1/GPa) = 0.01579848
#
# Stress axis : x y z
#
# Youngs Moduli (GPa) = 49.10477 49.09478 36.49533
#
# Poissons Ratio (x) = 0.43658 0.31513
# Poissons Ratio (y) = 0.43667 0.31534
# Poissons Ratio (z) = 0.42401 0.42420
#
# Static dielectric constant tensor:
#      x y z
#    x 3.508030 0.000000 0.000000 
#    y 0.000000 3.508500 0.000000 
#    z 0.000000 0.000000 3.382390 
# 
# 
# High freq. dielectric constant tensor:
#      x y z
#    x 1.704580 0.000000 0.000000 
#    y 0.000000 1.704580 0.000000 
#    z 0.000000 0.000000 1.707760 
# 
# From -- ./inp_files/2219.got.cif
#   From: 2010.03.12/outbox.cif.g09.slc.cpg/sg131_2_cif.got.tgz:2219.got - 2010.04.06 17:36:35.
