data_PCOD8316645
_publ_section_title
;
Structure prediction by ZEFSAII (Michael W. Deem and Ramdas Pophale) SiO2 
 PCOD8316645
Probable space group: P 42/M C M
;
_chemical_formula_sum "Si O2"
_cell_formula_units_Z 80
_cell_length_a 23.824568
_cell_length_b 23.824568
_cell_length_c 9.523320
_cell_angle_alpha 90.000000
_cell_angle_beta 90.000000
_cell_angle_gamma 90.000000
_cell_volume 5405.532050
_symmetry_space_group_name_H-M "P 42/M C M"
_symmetry_group_IT_number 132
_symmetry_cell_setting 'tetragonal'
loop_
_space_group_symop_operation_xyz
x,y,z
-y,x,1/2+z
-x,-y,z
y,-x,1/2+z
x,-y,1/2-z
-x,y,1/2-z
y,x,-z
-y,-x,-z
-x,-y,-z
y,-x,1/2-z
x,y,-z
-y,x,1/2-z
-x,y,1/2+z
x,-y,1/2+z
-y,-x,z
y,x,z
loop_
_atom_site_type_symbol
_atom_site_label
_atom_site_fract_x
_atom_site_fract_y
_atom_site_fract_z
Si Si1 0.092110 0.000812 0.000000
Si Si2 0.351803 0.554161 0.162742
Si Si3 0.175157 0.000000 0.750000
Si Si4 0.298534 0.204587 0.656145
Si Si5 0.275999 0.629561 0.340814
Si Si6 0.116898 0.207865 0.333996
O O1 0.133029 0.998940 0.874117
O O2 0.053087 0.946914 0.000000
O O3 0.057524 0.057524 0.000000
O O4 0.371449 0.500000 0.250000
O O5 0.402739 0.597262 0.167788
O O6 0.297471 0.578932 0.242675
O O7 0.336852 0.539989 0.000000
O O8 0.211914 0.942944 0.754027
O O9 0.324563 0.195410 0.500000
O O10 0.255809 0.255809 0.646007
O O11 0.346865 0.219008 0.769075
O O12 0.265019 0.149375 0.706479
O O13 0.262907 0.608821 0.500000
O O14 0.322429 0.677572 0.346598
O O15 0.107058 0.204905 0.500000
O O16 0.153422 0.153422 0.286160
#
# Coordination Sequence:
#
# PCOD8316645 Si02
#       6
#     8  16   8  16  16  16
#     4  11  22  32  42  54  70  98 138 180 217 254
#     4  10  20  32  46  64  89 124 162 195 225 253
#     4  12  20  31  44  56  76 102 135 176 222 264
#     4   8  14  26  44  60  75  99 131 167 211 265
#     4   9  16  27  43  64  87 108 136 177 220 260
#     4   9  17  30  44  57  75 101 133 170 215 266
#
# _framework density 14.799652999999999
#
# number of rings (size 3 to 8) (size 9 to 14) (size 15 to 20)
#    0.000    2.500    1.000    4.200    0.000    4.600 
#    1.800    1.000    0.000    0.000    0.000    0.000 
#    0.000    0.000    0.000    0.900    0.000   14.200 
#
# Total GULP energy -991353.430982 kJ/mol
# GULP energy per Si atom -12391.917887 kJ/mol
# Density = 1.476597 g / cm^3
# Si number density = 14.799653 Si / 1000 Ang^3
#
#
#
# Elastic Constant Matrix: (Units=GPa)
#
#
# Indices 1 2 3 4 5 6 
#
# 1 51.1501 35.7992 40.5272 0.0000 0.0000 0.0000
# 2 35.7992 51.1500 40.5269 0.0000 0.0000 0.0000
# 3 40.5272 40.5269 119.4644 0.0000 0.0000 0.0000
# 4 0.0000 0.0000 0.0000 22.6204 0.0000 0.0000
# 5 0.0000 0.0000 0.0000 0.0000 22.6205 0.0000
# 6 0.0000 0.0000 0.0000 0.0000 0.0000 15.4806
#
#
#
# Elastic Compliance Matrix: (Units=1/GPa)
#
#
# Indices 1 2 3 4 5 6 
#
# 1 0.040982 -0.024161 -0.005706 0.000000 0.000000 0.000000
# 2 -0.024161 0.040981 -0.005706 0.000000 0.000000 0.000000
# 3 -0.005706 -0.005706 0.012242 0.000000 0.000000 0.000000
# 4 0.000000 0.000000 0.000000 0.044208 0.000000 0.000000
# 5 0.000000 0.000000 0.000000 0.000000 0.044208 0.000000
# 6 0.000000 0.000000 0.000000 0.000000 0.000000 0.064597
#
#
# Mechanical properties :
#
#
# Convention : Reuss Voigt Hill
#
# Bulk Modulus (GPa) = 43.36852 50.60791 46.98822
# Shear Modulus (GPa) = 15.33503 19.13839 17.23671
#
# Velocity S-wave (km/s) = 3.22246 3.59996 3.41643
# Velocity P-wave (km/s) = 6.57366 7.17978 6.88339
#
# Compressibility (1/GPa) = 0.02305820
#
# Stress axis : x y z
#
# Youngs Moduli (GPa) = 24.40122 24.40127 81.68508
#
# Poissons Ratio (x) = 0.58957 0.46611
# Poissons Ratio (y) = 0.58957 0.46609
# Poissons Ratio (z) = 0.13924 0.13923
#
# Static dielectric constant tensor:
#      x y z
#    x 2.850730 0.000000 0.000000 
#    y 0.000000 2.850730 0.000000 
#    z 0.000000 0.000000 3.063930 
# 
# 
# High freq. dielectric constant tensor:
#      x y z
#    x 1.535610 0.000000 0.000000 
#    y 0.000000 1.535610 0.000000 
#    z 0.000000 0.000000 1.578440 
# 
# From -- ./inp_files/1661.got.cif
#   From: 2010.03.12/outbox.cif.g09.slc.cpg/sg132_1_cif.got.tgz:1661.got - 2010.04.06 17:53:44.
