data_PCOD8316261
_publ_section_title
;
Structure prediction by ZEFSAII (Michael W. Deem and Ramdas Pophale) SiO2 
 PCOD8316261
Probable space group: P 42/M M C
;
_chemical_formula_sum "Si O2"
_cell_formula_units_Z 96
_cell_length_a 24.104475
_cell_length_b 24.104475
_cell_length_c 8.885156
_cell_angle_alpha 90.000000
_cell_angle_beta 90.000000
_cell_angle_gamma 90.000000
_cell_volume 5162.504118
_symmetry_space_group_name_H-M "P 42/M M C"
_symmetry_group_IT_number 131
_symmetry_cell_setting 'tetragonal'
loop_
_space_group_symop_operation_xyz
x,y,z
-x,-y,z
-y,x,1/2+z
y,-x,1/2+z
-x,y,-z
x,-y,-z
y,x,1/2-z
-y,-x,1/2-z
-x,-y,-z
x,y,-z
y,-x,1/2-z
-y,x,1/2-z
x,-y,z
-x,y,z
-y,-x,1/2+z
y,x,1/2+z
loop_
_atom_site_type_symbol
_atom_site_label
_atom_site_fract_x
_atom_site_fract_y
_atom_site_fract_z
Si Si1 0.062113 0.435126 0.669980
Si Si2 0.647339 0.730658 0.319914
Si Si3 0.937885 0.268456 0.676170
Si Si4 0.647065 0.435009 0.678120
Si Si5 0.858217 0.354035 0.176796
Si Si6 0.939213 0.143382 0.323583
O O1 0.067836 0.412090 0.500000
O O2 0.072205 0.500000 0.672667
O O3 0.109795 0.409051 0.771724
O O4 0.000000 0.421024 0.729885
O O5 0.702087 0.702087 0.250000
O O6 0.648217 0.724630 0.500000
O O7 0.592580 0.701155 0.253672
O O8 0.645888 0.794658 0.266820
O O9 0.926401 0.272192 0.500000
O O10 0.890405 0.301311 0.760830
O O11 0.933157 0.205870 0.734931
O O12 0.000000 0.291447 0.711905
O O13 0.591811 0.408190 0.750000
O O14 0.647767 0.423585 0.500000
O O15 0.647358 0.500000 0.715279
O O16 0.859171 0.351385 0.000000
O O17 0.892627 0.107374 0.250000
O O18 0.931160 0.141723 0.500000
O O19 0.000000 0.120422 0.278935
#
# Coordination Sequence:
#
# PCOD8316261 Si02
#       6
#    16  16  16  16  16  16
#     4   9  19  36  56  78 106 141 179 216 255 304
#     4  10  22  39  56  76 106 142 178 218 264 311
#     4   9  19  36  55  74 100 136 175 215 261 313
#     4  10  21  37  59  86 113 143 179 217 258 304
#     4  11  23  35  52  81 109 135 173 219 266 315
#     4   9  19  35  53  75 103 134 170 212 259 313
#
# _framework density 18.595628000000001
#
# number of rings (size 3 to 8) (size 9 to 14) (size 15 to 20)
#    0.000    2.333    0.000    4.500    0.000    9.667 
#    0.000   10.833    0.000    0.000    0.000    0.000 
#    0.000    0.000    0.000    0.000    0.000    0.000 
#
# Total GULP energy -1190191.675571 kJ/mol
# GULP energy per Si atom -12397.829954 kJ/mol
# Density = 1.855330 g / cm^3
# Si number density = 18.595628 Si / 1000 Ang^3
#
#
#
# Elastic Constant Matrix: (Units=GPa)
#
#
# Indices 1 2 3 4 5 6 
#
# 1 145.2721 69.8912 50.9589 0.0000 0.0000 0.0000
# 2 69.8912 145.2652 50.9583 0.0000 0.0000 0.0000
# 3 50.9589 50.9583 69.8561 0.0000 0.0000 0.0000
# 4 0.0000 0.0000 0.0000 35.0525 0.0000 0.0000
# 5 0.0000 0.0000 0.0000 0.0000 35.0524 0.0000
# 6 0.0000 0.0000 0.0000 0.0000 0.0000 30.6611
#
#
#
# Elastic Compliance Matrix: (Units=1/GPa)
#
#
# Indices 1 2 3 4 5 6 
#
# 1 0.010184 -0.003082 -0.005180 0.000000 0.000000 0.000000
# 2 -0.003082 0.010184 -0.005181 0.000000 0.000000 0.000000
# 3 -0.005180 -0.005181 0.021873 0.000000 0.000000 0.000000
# 4 0.000000 0.000000 0.000000 0.028529 0.000000 0.000000
# 5 0.000000 0.000000 0.000000 0.000000 0.028529 0.000000
# 6 0.000000 0.000000 0.000000 0.000000 0.000000 0.032615
#
#
# Mechanical properties :
#
#
# Convention : Reuss Voigt Hill
#
# Bulk Modulus (GPa) = 65.12725 78.22333 71.67529
# Shear Modulus (GPa) = 30.50298 32.72553 31.61425
#
# Velocity S-wave (km/s) = 4.05449 4.19961 4.12769
# Velocity P-wave (km/s) = 7.55099 8.10385 7.83230
#
# Compressibility (1/GPa) = 0.01535455
#
# Stress axis : x y z
#
# Youngs Moduli (GPa) = 98.19522 98.18971 45.71797
#
# Poissons Ratio (x) = 0.30267 0.23683
# Poissons Ratio (y) = 0.30268 0.23685
# Poissons Ratio (z) = 0.50868 0.50868
#
# Static dielectric constant tensor:
#      x y z
#    x 3.501550 0.000000 0.000000 
#    y 0.000000 3.501560 0.000000 
#    z 0.000000 0.000000 3.400890 
# 
# 
# High freq. dielectric constant tensor:
#      x y z
#    x 1.727910 0.000000 0.000000 
#    y 0.000000 1.727910 0.000000 
#    z 0.000000 0.000000 1.719670 
# 
# From -- ./inp_files/2296.got.cif
#   From: 2010.03.12/outbox.cif.g09.slc.cpg/sg131_2_cif.got.tgz:2296.got - 2010.04.06 17:36:35.
