data_PCOD8316694
_publ_section_title
;
Structure prediction by ZEFSAII (Michael W. Deem and Ramdas Pophale) SiO2 
 PCOD8316694
Probable space group: P 42/M C M
;
_chemical_formula_sum "Si O2"
_cell_formula_units_Z 96
_cell_length_a 23.523171
_cell_length_b 23.523171
_cell_length_c 8.805501
_cell_angle_alpha 90.000000
_cell_angle_beta 90.000000
_cell_angle_gamma 90.000000
_cell_volume 4872.432171
_symmetry_space_group_name_H-M "P 42/M C M"
_symmetry_group_IT_number 132
_symmetry_cell_setting 'tetragonal'
loop_
_space_group_symop_operation_xyz
x,y,z
-y,x,1/2+z
-x,-y,z
y,-x,1/2+z
x,-y,1/2-z
-x,y,1/2-z
y,x,-z
-y,-x,-z
-x,-y,-z
y,-x,1/2-z
x,y,-z
-y,x,1/2-z
-x,y,1/2+z
x,-y,1/2+z
-y,-x,z
y,x,z
loop_
_atom_site_type_symbol
_atom_site_label
_atom_site_fract_x
_atom_site_fract_y
_atom_site_fract_z
Si Si1 0.654215 0.436889 0.321425
Si Si2 0.759359 0.358552 0.677379
Si Si3 0.941210 0.706769 0.179900
Si Si4 0.586620 0.947841 0.669843
Si Si5 0.174608 0.262807 0.328783
Si Si6 0.173688 0.446399 0.330691
O O1 0.656591 0.500000 0.250000
O O2 0.661938 0.445030 0.500000
O O3 0.593909 0.406092 0.283261
O O4 0.704223 0.394037 0.261842
O O5 0.752852 0.347086 0.500000
O O6 0.772961 0.299284 0.757838
O O7 0.815059 0.394168 0.719957
O O8 0.934953 0.641674 0.229376
O O9 0.884541 0.738619 0.237873
O O10 0.000000 0.732584 0.250000
O O11 0.943519 0.712829 0.000000
O O12 0.606074 0.964856 0.500000
O O13 0.545219 0.893950 0.662469
O O14 0.553303 0.000000 0.750000
O O15 0.162885 0.285330 0.500000
O O16 0.198337 0.198337 0.330891
O O17 0.203089 0.500000 0.250000
O O18 0.199225 0.438525 0.500000
#
# Coordination Sequence:
#
# PCOD8316694 Si02
#       6
#    16  16  16  16  16  16
#     4  10  23  42  62  86 113 140 176 223 277 343
#     4  11  22  38  60  83 111 147 185 228 283 342
#     4  11  21  35  58  83 114 154 196 239 286 340
#     4  10  20  34  52  73 102 139 184 234 283 334
#     4  11  23  38  58  87 122 156 194 239 285 337
#     4  11  23  36  52  74 105 141 185 237 284 336
#
# _framework density 19.702687000000001
#
# number of rings (size 3 to 8) (size 9 to 14) (size 15 to 20)
#    0.000    1.333    1.667    5.500    0.000    7.500 
#    0.000    2.500    0.000    0.000    0.000    0.000 
#    0.000    0.333    0.000    3.500    0.000    1.500 
#
# Total GULP energy -1189448.824599 kJ/mol
# GULP energy per Si atom -12390.091923 kJ/mol
# Density = 1.965784 g / cm^3
# Si number density = 19.702687 Si / 1000 Ang^3
#
#
#
# Elastic Constant Matrix: (Units=GPa)
#
#
# Indices 1 2 3 4 5 6 
#
# 1 81.3938 46.1715 43.9335 0.0000 0.0000 0.0000
# 2 46.1715 81.3938 43.9335 0.0000 0.0000 0.0000
# 3 43.9335 43.9335 132.1992 0.0000 0.0000 0.0000
# 4 0.0000 0.0000 0.0000 22.7245 0.0000 0.0000
# 5 0.0000 0.0000 0.0000 0.0000 22.7245 0.0000
# 6 0.0000 0.0000 0.0000 0.0000 0.0000 16.5854
#
#
#
# Elastic Compliance Matrix: (Units=1/GPa)
#
#
# Indices 1 2 3 4 5 6 
#
# 1 0.019279 -0.009112 -0.003379 0.000000 0.000000 0.000000
# 2 -0.009112 0.019279 -0.003379 0.000000 0.000000 0.000000
# 3 -0.003379 -0.003379 0.009810 0.000000 0.000000 0.000000
# 4 0.000000 0.000000 0.000000 0.044005 0.000000 0.000000
# 5 0.000000 0.000000 0.000000 0.000000 0.044005 0.000000
# 6 0.000000 0.000000 0.000000 0.000000 0.000000 0.060294
#
#
# Mechanical properties :
#
#
# Convention : Reuss Voigt Hill
#
# Bulk Modulus (GPa) = 60.13846 62.56263 61.35055
# Shear Modulus (GPa) = 21.37174 23.13675 22.25425
#
# Velocity S-wave (km/s) = 3.29707 3.43052 3.36445
# Velocity P-wave (km/s) = 6.71442 6.89301 6.80430
#
# Compressibility (1/GPa) = 0.01662829
#
# Stress axis : x y z
#
# Youngs Moduli (GPa) = 51.87074 51.87074 101.93778
#
# Poissons Ratio (x) = 0.47267 0.34440
# Poissons Ratio (y) = 0.47267 0.34440
# Poissons Ratio (z) = 0.17525 0.17525
#
# Static dielectric constant tensor:
#      x y z
#    x 3.676540 0.000000 0.000000 
#    y 0.000000 3.676540 0.000000 
#    z 0.000000 0.000000 3.753670 
# 
# 
# High freq. dielectric constant tensor:
#      x y z
#    x 1.753140 0.000000 0.000000 
#    y 0.000000 1.753140 0.000000 
#    z 0.000000 0.000000 1.779940 
# 
# From -- ./inp_files/1767.got.cif
#   From: 2010.03.12/outbox.cif.g09.slc.cpg/sg132_1_cif.got.tgz:1767.got - 2010.04.06 17:53:44.
