data_PCOD8316627
_publ_section_title
;
Structure prediction by ZEFSAII (Michael W. Deem and Ramdas Pophale) SiO2 
 PCOD8316627
Probable space group: P 42/M C M
;
_chemical_formula_sum "Si O2"
_cell_formula_units_Z 112
_cell_length_a 14.238559
_cell_length_b 14.238559
_cell_length_c 26.504152
_cell_angle_alpha 90.000000
_cell_angle_beta 90.000000
_cell_angle_gamma 90.000000
_cell_volume 5373.360666
_symmetry_space_group_name_H-M "P 42/M C M"
_symmetry_group_IT_number 132
_symmetry_cell_setting 'tetragonal'
loop_
_space_group_symop_operation_xyz
x,y,z
-y,x,1/2+z
-x,-y,z
y,-x,1/2+z
x,-y,1/2-z
-x,y,1/2-z
y,x,-z
-y,-x,-z
-x,-y,-z
y,-x,1/2-z
x,y,-z
-y,x,1/2-z
-x,y,1/2+z
x,-y,1/2+z
-y,-x,z
y,x,z
loop_
_atom_site_type_symbol
_atom_site_label
_atom_site_fract_x
_atom_site_fract_y
_atom_site_fract_z
Si Si1 0.760753 0.910316 0.783527
Si Si2 0.350879 0.502410 0.146260
Si Si3 0.079540 0.568263 0.596629
Si Si4 0.855365 0.001056 0.124411
Si Si5 0.167539 0.562369 0.297645
Si Si6 0.555744 0.775605 0.557695
Si Si7 0.701460 0.062103 0.940739
O O1 0.850370 0.850370 0.763909
O O2 0.672384 0.838771 0.783648
O O3 0.737593 0.000000 0.750000
O O4 0.781311 0.952682 0.838268
O O5 0.419255 0.580746 0.171844
O O6 0.410918 0.410918 0.130522
O O7 0.271796 0.470240 0.185996
O O8 0.311494 0.552358 0.095660
O O9 0.096665 0.548272 0.655762
O O10 0.172544 0.545030 0.564167
O O11 0.000000 0.500000 0.575505
O O12 0.038325 0.669285 0.583129
O O13 0.926079 0.073922 0.153032
O O14 0.804998 0.066388 0.082432
O O15 0.918291 0.918291 0.099120
O O16 0.134828 0.500000 0.250000
O O17 0.569933 0.741529 0.500000
O O18 0.639413 0.846842 0.574906
O O19 0.705454 0.055196 0.000000
#
# Coordination Sequence:
#
# PCOD8316627 Si02
#       7
#    16  16  16  16  16  16  16
#     4  11  24  41  64  92 125 166 212 264 319 381
#     4  10  23  43  63  86 121 162 202 249 307 372
#     4   9  18  34  57  86 123 158 195 246 306 366
#     4  10  22  40  60  86 125 170 212 258 311 367
#     4  11  24  39  66  92 123 154 204 255 316 374
#     4   9  19  35  59  91 122 156 200 249 304 365
#     4  10  19  35  60  89 125 167 208 255 310 366
#
# _framework density 20.843565000000002
#
# number of rings (size 3 to 8) (size 9 to 14) (size 15 to 20)
#    0.000    2.000    1.429    1.286    2.000    6.429 
#    0.000    3.571    0.000    1.714    0.000    0.000 
#    0.000    0.000    0.000    0.000    0.000    0.000 
#
# Total GULP energy -1387594.953120 kJ/mol
# GULP energy per Si atom -12389.240653 kJ/mol
# Density = 2.079612 g / cm^3
# Si number density = 20.843565 Si / 1000 Ang^3
#
#
#
# Elastic Constant Matrix: (Units=GPa)
#
#
# Indices 1 2 3 4 5 6 
#
# 1 102.6290 49.0937 40.2474 0.0000 0.0000 0.0000
# 2 49.0937 102.6290 40.2474 0.0000 0.0000 0.0000
# 3 40.2474 40.2474 87.9907 0.0000 0.0000 0.0000
# 4 0.0000 0.0000 0.0000 24.7126 0.0000 0.0000
# 5 0.0000 0.0000 0.0000 0.0000 24.7126 0.0000
# 6 0.0000 0.0000 0.0000 0.0000 0.0000 35.0692
#
#
#
# Elastic Compliance Matrix: (Units=1/GPa)
#
#
# Indices 1 2 3 4 5 6 
#
# 1 0.013691 -0.004988 -0.003981 0.000000 0.000000 0.000000
# 2 -0.004988 0.013691 -0.003981 0.000000 0.000000 0.000000
# 3 -0.003981 -0.003981 0.015006 0.000000 0.000000 0.000000
# 4 0.000000 0.000000 0.000000 0.040465 0.000000 0.000000
# 5 0.000000 0.000000 0.000000 0.000000 0.040465 0.000000
# 6 0.000000 0.000000 0.000000 0.000000 0.000000 0.028515
#
#
# Mechanical properties :
#
#
# Convention : Reuss Voigt Hill
#
# Bulk Modulus (GPa) = 60.64548 61.38064 61.01306
# Shear Modulus (GPa) = 27.28811 27.80955 27.54883
#
# Velocity S-wave (km/s) = 3.62219 3.65664 3.63946
# Velocity P-wave (km/s) = 6.83026 6.88042 6.85538
#
# Compressibility (1/GPa) = 0.01648928
#
# Stress axis : x y z
#
# Youngs Moduli (GPa) = 73.04017 73.04017 66.63791
#
# Poissons Ratio (x) = 0.36434 0.26527
# Poissons Ratio (y) = 0.36434 0.26527
# Poissons Ratio (z) = 0.29076 0.29076
#
# Static dielectric constant tensor:
#      x y z
#    x 3.908930 0.000000 0.000000 
#    y 0.000000 3.908930 0.000000 
#    z 0.000000 0.000000 3.488940 
# 
# 
# High freq. dielectric constant tensor:
#      x y z
#    x 1.819570 0.000000 0.000000 
#    y 0.000000 1.819570 0.000000 
#    z 0.000000 0.000000 1.796530 
# 
# From -- ./inp_files/9117.got.cif
#   From: 2010.03.12/outbox.cif.g09.slc.cpg/sg132_5_cif.got.tgz:9117.got - 2010.04.06 17:53:44.
