data_PCOD8316230
_publ_section_title
;
Structure prediction by ZEFSAII (Michael W. Deem and Ramdas Pophale) SiO2 
 PCOD8316230
Probable space group: P 42/M M C
;
_chemical_formula_sum "Si O2"
_cell_formula_units_Z 88
_cell_length_a 24.727300
_cell_length_b 24.727300
_cell_length_c 8.558373
_cell_angle_alpha 90.000000
_cell_angle_beta 90.000000
_cell_angle_gamma 90.000000
_cell_volume 5232.926155
_symmetry_space_group_name_H-M "P 42/M M C"
_symmetry_group_IT_number 131
_symmetry_cell_setting 'tetragonal'
loop_
_space_group_symop_operation_xyz
x,y,z
-x,-y,z
-y,x,1/2+z
y,-x,1/2+z
-x,y,-z
x,-y,-z
y,x,1/2-z
-y,-x,1/2-z
-x,-y,-z
x,y,-z
y,-x,1/2-z
-y,x,1/2-z
x,-y,z
-x,y,z
-y,-x,1/2+z
y,x,1/2+z
loop_
_atom_site_type_symbol
_atom_site_label
_atom_site_fract_x
_atom_site_fract_y
_atom_site_fract_z
Si Si1 0.666261 0.748207 0.316665
Si Si2 0.713897 0.061422 0.316252
Si Si3 0.401422 0.108320 0.680858
Si Si4 0.830987 0.251765 0.684271
Si Si5 0.438368 0.782177 0.181421
Si Si6 0.939992 0.500000 0.330589
O O1 0.696156 0.696156 0.250000
O O2 0.672725 0.749378 0.500000
O O3 0.693574 0.803672 0.252909
O O4 0.603152 0.741959 0.269245
O O5 0.724154 0.064816 0.500000
O O6 0.652851 0.077139 0.272542
O O7 0.752028 0.105676 0.231696
O O8 0.725878 0.000000 0.256927
O O9 0.400940 0.126663 0.500000
O O10 0.413183 0.159240 0.790226
O O11 0.449212 0.067808 0.718304
O O12 0.801132 0.198869 0.750000
O O13 0.824479 0.252889 0.500000
O O14 0.500000 0.777764 0.247728
O O15 0.438124 0.767997 0.000000
O O16 0.906720 0.500000 0.500000
O O17 0.000000 0.500000 0.388478
#
# Coordination Sequence:
#
# PCOD8316230 Si02
#       6
#    16  16  16  16  16   8
#     4  11  21  35  55  77 102 132 171 213 260 311
#     4  10  21  36  52  72 100 132 168 212 259 306
#     4  11  21  33  50  68  91 127 171 214 256 302
#     4  11  21  34  54  76 101 132 170 213 260 310
#     4  11  22  35  52  74 103 135 170 213 260 306
#     4  11  23  35  45  59  85 123 169 219 262 299
#
# _framework density 16.816595
#
# number of rings (size 3 to 8) (size 9 to 14) (size 15 to 20)
#    0.000    1.182    2.727    6.273    0.000    3.636 
#    0.000    0.000    0.000    0.000    0.000    0.000 
#    0.000    0.727    0.000    7.636    0.000    3.273 
#
# Total GULP energy -1090783.870241 kJ/mol
# GULP energy per Si atom -12395.271253 kJ/mol
# Density = 1.677832 g / cm^3
# Si number density = 16.816595 Si / 1000 Ang^3
#
#
#
# Elastic Constant Matrix: (Units=GPa)
#
#
# Indices 1 2 3 4 5 6 
#
# 1 98.1667 53.9384 38.3015 0.0000 0.0000 0.0000
# 2 53.9384 98.1666 38.3012 0.0000 0.0000 0.0000
# 3 38.3015 38.3012 96.5510 0.0000 0.0000 0.0000
# 4 0.0000 0.0000 0.0000 23.1856 0.0000 0.0000
# 5 0.0000 0.0000 0.0000 0.0000 23.1856 0.0000
# 6 0.0000 0.0000 0.0000 0.0000 0.0000 22.0387
#
#
#
# Elastic Compliance Matrix: (Units=1/GPa)
#
#
# Indices 1 2 3 4 5 6 
#
# 1 0.015413 -0.007197 -0.003259 0.000000 0.000000 0.000000
# 2 -0.007197 0.015413 -0.003259 0.000000 0.000000 0.000000
# 3 -0.003259 -0.003259 0.012943 0.000000 0.000000 0.000000
# 4 0.000000 0.000000 0.000000 0.043130 0.000000 0.000000
# 5 0.000000 0.000000 0.000000 0.000000 0.043130 0.000000
# 6 0.000000 0.000000 0.000000 0.000000 0.000000 0.045375
#
#
# Mechanical properties :
#
#
# Convention : Reuss Voigt Hill
#
# Bulk Modulus (GPa) = 61.20734 61.55184 61.37959
# Shear Modulus (GPa) = 24.00607 24.50487 24.25547
#
# Velocity S-wave (km/s) = 3.78236 3.82145 3.80195
# Velocity P-wave (km/s) = 7.45325 7.49350 7.47340
#
# Compressibility (1/GPa) = 0.01633791
#
# Stress axis : x y z
#
# Youngs Moduli (GPa) = 64.88079 64.88091 77.26177
#
# Poissons Ratio (x) = 0.46695 0.25181
# Poissons Ratio (y) = 0.46695 0.25181
# Poissons Ratio (z) = 0.21146 0.21145
#
# Static dielectric constant tensor:
#      x y z
#    x 3.226890 0.000000 0.000000 
#    y 0.000000 3.226890 0.000000 
#    z 0.000000 0.000000 3.235100 
# 
# 
# High freq. dielectric constant tensor:
#      x y z
#    x 1.626880 0.000000 0.000000 
#    y 0.000000 1.626880 0.000000 
#    z 0.000000 0.000000 1.663560 
# 
# From -- ./inp_files/2429.got.cif
#   From: 2010.03.12/outbox.cif.g09.slc.cpg/sg131_2_cif.got.tgz:2429.got - 2010.04.06 17:36:35.
