data_PCOD8316437
_publ_section_title
;
Structure prediction by ZEFSAII (Michael W. Deem and Ramdas Pophale) SiO2 
 PCOD8316437
Probable space group: P 42/M C M
;
_chemical_formula_sum "Si O2"
_cell_formula_units_Z 80
_cell_length_a 22.862525
_cell_length_b 22.862525
_cell_length_c 8.961342
_cell_angle_alpha 90.000000
_cell_angle_beta 90.000000
_cell_angle_gamma 90.000000
_cell_volume 4684.049099
_symmetry_space_group_name_H-M "P 42/M C M"
_symmetry_group_IT_number 132
_symmetry_cell_setting 'tetragonal'
loop_
_space_group_symop_operation_xyz
x,y,z
-y,x,1/2+z
-x,-y,z
y,-x,1/2+z
x,-y,1/2-z
-x,y,1/2-z
y,x,-z
-y,-x,-z
-x,-y,-z
y,-x,1/2-z
x,y,-z
-y,x,1/2-z
-x,y,1/2+z
x,-y,1/2+z
-y,-x,z
y,x,z
loop_
_atom_site_type_symbol
_atom_site_label
_atom_site_fract_x
_atom_site_fract_y
_atom_site_fract_z
Si Si1 0.061289 0.242340 0.329284
Si Si2 0.242420 0.242420 0.826970
Si Si3 0.841708 0.841708 0.669784
Si Si4 0.558519 0.780141 0.673805
Si Si5 0.342392 0.561104 0.322580
Si Si6 0.163614 0.675049 0.828641
O O1 0.047641 0.254748 0.500000
O O2 0.090547 0.177303 0.306367
O O3 0.104280 0.294026 0.266898
O O4 0.000000 0.244447 0.250000
O O5 0.193932 0.193932 0.791664
O O6 0.221282 0.303027 0.756854
O O7 0.251659 0.251659 0.000000
O O8 0.823694 0.823694 0.500000
O O9 0.500000 0.804531 0.750000
O O10 0.547875 0.766115 0.500000
O O11 0.578846 0.720491 0.754533
O O12 0.605231 0.833230 0.692451
O O13 0.363560 0.500000 0.250000
O O14 0.336687 0.553771 0.500000
O O15 0.388902 0.611099 0.280326
O O16 0.169701 0.693878 0.000000
#
# Coordination Sequence:
#
# PCOD8316437 Si02
#       6
#    16   8   8  16  16  16
#     4   9  17  31  51  74 101 131 165 201 238 283
#     4  10  18  26  44  74  99 119 155 205 239 274
#     4   8  16  32  48  65 101 142 163 187 237 292
#     4  10  20  34  52  70  92 125 162 199 245 300
#     4  10  21  35  50  70  96 124 159 204 250 295
#     4   9  19  34  49  68  98 134 161 188 244 308
#
# _framework density 17.079241
#
# number of rings (size 3 to 8) (size 9 to 14) (size 15 to 20)
#    0.000    2.600    0.000    4.500    1.400    6.600 
#    0.000    1.000    0.000    0.900    0.000    6.300 
#    0.000    0.000    0.000    0.000    0.000    0.000 
#
# Total GULP energy -991097.536406 kJ/mol
# GULP energy per Si atom -12388.719205 kJ/mol
# Density = 1.704037 g / cm^3
# Si number density = 17.079241 Si / 1000 Ang^3
#
#
#
# Elastic Constant Matrix: (Units=GPa)
#
#
# Indices 1 2 3 4 5 6 
#
# 1 109.2813 66.6630 39.0160 0.0000 0.0000 0.0000
# 2 66.6630 109.2813 39.0160 0.0000 0.0000 0.0000
# 3 39.0160 39.0160 77.0168 0.0000 0.0000 0.0000
# 4 0.0000 0.0000 0.0000 22.5439 0.0000 0.0000
# 5 0.0000 0.0000 0.0000 0.0000 22.5439 0.0000
# 6 0.0000 0.0000 0.0000 0.0000 0.0000 22.5230
#
#
#
# Elastic Compliance Matrix: (Units=1/GPa)
#
#
# Indices 1 2 3 4 5 6 
#
# 1 0.015397 -0.008067 -0.003714 0.000000 0.000000 0.000000
# 2 -0.008067 0.015397 -0.003714 0.000000 0.000000 0.000000
# 3 -0.003714 -0.003714 0.016747 0.000000 0.000000 0.000000
# 4 0.000000 0.000000 0.000000 0.044358 0.000000 0.000000
# 5 0.000000 0.000000 0.000000 0.000000 0.044358 0.000000
# 6 0.000000 0.000000 0.000000 0.000000 0.000000 0.044399
#
#
# Mechanical properties :
#
#
# Convention : Reuss Voigt Hill
#
# Bulk Modulus (GPa) = 60.41016 64.99657 62.70336
# Shear Modulus (GPa) = 23.02425 23.58110 23.30267
#
# Velocity S-wave (km/s) = 3.67561 3.71979 3.69777
# Velocity P-wave (km/s) = 7.31169 7.52248 7.41783
#
# Compressibility (1/GPa) = 0.01655351
#
# Stress axis : x y z
#
# Youngs Moduli (GPa) = 64.94619 64.94619 59.71309
#
# Poissons Ratio (x) = 0.52390 0.22175
# Poissons Ratio (y) = 0.52390 0.22175
# Poissons Ratio (z) = 0.24119 0.24119
#
# Static dielectric constant tensor:
#      x y z
#    x 3.148280 0.000000 0.000000 
#    y 0.000000 3.148280 0.000000 
#    z 0.000000 0.000000 3.194140 
# 
# 
# High freq. dielectric constant tensor:
#      x y z
#    x 1.642440 0.000000 0.000000 
#    y 0.000000 1.642440 0.000000 
#    z 0.000000 0.000000 1.663980 
# 
# From -- ./inp_files/1607.got.cif
#   From: 2010.03.12/outbox.cif.g09.slc.cpg/sg132_1_cif.got.tgz:1607.got - 2010.04.06 17:53:44.
