data_PCOD8316786
_publ_section_title
;
Structure prediction by ZEFSAII (Michael W. Deem and Ramdas Pophale) SiO2 
 PCOD8316786
Probable space group: P 42/M C M
;
_chemical_formula_sum "Si O2"
_cell_formula_units_Z 120
_cell_length_a 19.832886
_cell_length_b 19.832886
_cell_length_c 17.271530
_cell_angle_alpha 90.000000
_cell_angle_beta 90.000000
_cell_angle_gamma 90.000000
_cell_volume 6793.641765
_symmetry_space_group_name_H-M "P 42/M C M"
_symmetry_group_IT_number 132
_symmetry_cell_setting 'tetragonal'
loop_
_space_group_symop_operation_xyz
x,y,z
-y,x,1/2+z
-x,-y,z
y,-x,1/2+z
x,-y,1/2-z
-x,y,1/2-z
y,x,-z
-y,-x,-z
-x,-y,-z
y,-x,1/2-z
x,y,-z
-y,x,1/2-z
-x,y,1/2+z
x,-y,1/2+z
-y,-x,z
y,x,z
loop_
_atom_site_type_symbol
_atom_site_label
_atom_site_fract_x
_atom_site_fract_y
_atom_site_fract_z
Si Si1 0.443538 0.556463 0.088774
Si Si2 0.527912 0.306491 0.164651
Si Si3 0.649974 0.945707 0.909206
Si Si4 0.666158 0.774928 0.675366
Si Si5 0.219912 0.432790 0.914338
Si Si6 0.512321 0.095851 0.339100
Si Si7 0.632423 0.093112 0.089212
Si Si8 0.809795 0.298287 0.349311
O O1 0.500000 0.500000 0.088222
O O2 0.465481 0.617672 0.141131
O O3 0.424052 0.575949 0.000000
O O4 0.500000 0.299450 0.250000
O O5 0.596299 0.262928 0.157515
O O6 0.471019 0.288683 0.100883
O O7 0.574244 0.946197 0.874678
O O8 0.699402 0.890981 0.866642
O O9 0.674367 0.023005 0.896575
O O10 0.647567 0.927076 0.000000
O O11 0.727257 0.727257 0.647010
O O12 0.670009 0.846062 0.631732
O O13 0.674765 0.793417 0.764543
O O14 0.173004 0.465380 0.847752
O O15 0.225873 0.352101 0.906076
O O16 0.192306 0.448884 0.000000
O O17 0.500000 0.077118 0.250000
O O18 0.444022 0.082036 0.384487
O O19 0.631646 0.112157 0.000000
O O20 0.776008 0.223993 0.363159
#
# Coordination Sequence:
#
# PCOD8316786 Si02
#       8
#     8  16  16  16  16  16  16  16
#     4  11  28  46  60  80 102 132 186 248 307 359
#     4  12  23  39  62  80 108 139 183 232 291 349
#     4  10  22  36  52  80 112 143 182 222 267 328
#     4  11  23  39  57  84 108 141 187 231 272 339
#     4  11  21  33  52  78 107 138 177 224 274 327
#     4  11  20  31  50  76 106 140 180 220 267 324
#     4  11  22  36  55  78 109 145 181 223 275 331
#     4  10  21  37  57  79 110 143 182 223 270 323
#
# _framework density 17.663574000000001
#
# number of rings (size 3 to 8) (size 9 to 14) (size 15 to 20)
#    0.000    1.133    3.333    5.200    0.933    6.133 
#    0.000    0.000    0.000    0.000    0.000    0.000 
#    0.000    0.533    0.000    5.867    0.000    4.267 
#
# Total GULP energy -1486724.529874 kJ/mol
# GULP energy per Si atom -12389.371082 kJ/mol
# Density = 1.762337 g / cm^3
# Si number density = 17.663574 Si / 1000 Ang^3
#
#
#
# Elastic Constant Matrix: (Units=GPa)
#
#
# Indices 1 2 3 4 5 6 
#
# 1 -933.1694 1080.0879 33.6916 0.0000 0.0000 0.0000
# 2 1080.0879 -933.2156 33.6824 0.0000 0.0000 0.0000
# 3 33.6916 33.6824 83.7770 0.0000 0.0000 0.0000
# 4 0.0000 0.0000 0.0000 33.4134 0.0000 0.0000
# 5 0.0000 0.0000 0.0000 0.0000 33.4134 0.0000
# 6 0.0000 0.0000 0.0000 0.0000 0.0000 24.1547
#
#
#
# Elastic Compliance Matrix: (Units=1/GPa)
#
#
# Indices 1 2 3 4 5 6 
#
# 1 0.003925 0.004422 -0.003356 0.000000 0.000000 0.000000
# 2 0.004422 0.003925 -0.003356 0.000000 0.000000 0.000000
# 3 -0.003356 -0.003356 0.014636 0.000000 0.000000 0.000000
# 4 0.000000 0.000000 0.000000 0.029928 0.000000 0.000000
# 5 0.000000 0.000000 0.000000 0.000000 0.029928 0.000000
# 6 0.000000 0.000000 0.000000 0.000000 0.000000 0.041400
#
#
# Mechanical properties :
#
#
# Convention : Reuss Voigt Hill
#
# Bulk Modulus (GPa) = 55.85280 56.92397 56.38839
# Shear Modulus (GPa) = 37.23236 -177.14170 -69.95467
#
# Velocity S-wave (km/s) = 4.59613 -10.02518 -6.29999
# Velocity P-wave (km/s) = 7.73659 10.08508 4.57460
#
# Compressibility (1/GPa) = 0.01790420
#
# Stress axis : x y z
#
# Youngs Moduli (GPa) = 254.76356 254.77401 68.32635
#
# Poissons Ratio (x) = -1.12657 0.22933
# Poissons Ratio (y) = -1.12652 0.22933
# Poissons Ratio (z) = 0.85507 0.85511
#
# Static dielectric constant tensor:
#      x y z
#    x 3.438490 0.000000 0.000000 
#    y 0.000000 3.438490 0.000000 
#    z 0.000000 0.000000 3.401870 
# 
# 
# High freq. dielectric constant tensor:
#      x y z
#    x 1.664850 0.000000 0.000000 
#    y 0.000000 1.664860 0.000000 
#    z 0.000000 0.000000 1.699710 
# 
# From -- ./inp_files/5119.got.cif
#   From: 2010.03.12/outbox.cif.g09.slc.cpg/sg132_3_cif.got.tgz:5119.got - 2010.04.06 17:53:44.
