data_PCOD8316306
_publ_section_title
;
Structure prediction by ZEFSAII (Michael W. Deem and Ramdas Pophale) SiO2 
 PCOD8316306
Probable space group: P 42/M M C
;
_chemical_formula_sum "Si O2"
_cell_formula_units_Z 96
_cell_length_a 23.963878
_cell_length_b 23.963878
_cell_length_c 9.370593
_cell_angle_alpha 90.000000
_cell_angle_beta 90.000000
_cell_angle_gamma 90.000000
_cell_volume 5381.226536
_symmetry_space_group_name_H-M "P 42/M M C"
_symmetry_group_IT_number 131
_symmetry_cell_setting 'tetragonal'
loop_
_space_group_symop_operation_xyz
x,y,z
-x,-y,z
-y,x,1/2+z
y,-x,1/2+z
-x,y,-z
x,-y,-z
y,x,1/2-z
-y,-x,1/2-z
-x,-y,-z
x,y,-z
y,-x,1/2-z
-y,x,1/2-z
x,-y,z
-x,y,z
-y,-x,1/2+z
y,x,1/2+z
loop_
_atom_site_type_symbol
_atom_site_label
_atom_site_fract_x
_atom_site_fract_y
_atom_site_fract_z
Si Si1 0.359088 0.869856 0.832081
Si Si2 0.564368 0.645190 0.166055
Si Si3 0.562456 0.771017 0.169351
Si Si4 0.270921 0.936424 0.332801
Si Si5 0.937328 0.857427 0.834446
Si Si6 0.065263 0.439022 0.844537
O O1 0.388055 0.812210 0.776081
O O2 0.302105 0.886770 0.752263
O O3 0.402283 0.917887 0.790134
O O4 0.347774 0.868718 0.000000
O O5 0.602565 0.602565 0.250000
O O6 0.500000 0.630682 0.196989
O O7 0.577551 0.708261 0.218059
O O8 0.577976 0.638971 0.000000
O O9 0.500000 0.786988 0.227102
O O10 0.560114 0.774258 0.000000
O O11 0.280400 0.926900 0.500000
O O12 0.206685 0.929611 0.290685
O O13 0.290864 0.000000 0.293244
O O14 0.893957 0.893957 0.750000
O O15 0.000000 0.876898 0.797026
O O16 0.925135 0.865592 0.000000
O O17 0.092557 0.500000 0.827107
O O18 0.000000 0.444738 0.841524
O O19 0.083616 0.413629 0.000000
#
# Coordination Sequence:
#
# PCOD8316306 Si02
#       6
#    16  16  16  16  16  16
#     4  11  20  29  47  73  96 123 167 217 255 289
#     4   9  18  34  55  76 100 130 160 192 236 291
#     4   8  16  32  50  68  96 133 165 197 245 297
#     4   9  19  36  53  69  98 139 174 204 245 299
#     4   9  19  36  57  80 105 134 166 200 243 296
#     4   9  18  31  44  60  88 126 163 202 254 311
#
# _framework density 17.839798999999999
#
# number of rings (size 3 to 8) (size 9 to 14) (size 15 to 20)
#    0.000    2.833    0.000    4.000    0.000    5.333 
#    0.000    6.667    0.000    6.000    0.000    0.000 
#    0.000    0.000    0.000    0.000    0.000    0.000 
#
# Total GULP energy -1189419.588058 kJ/mol
# GULP energy per Si atom -12389.787376 kJ/mol
# Density = 1.779919 g / cm^3
# Si number density = 17.839799 Si / 1000 Ang^3
#
#
#
# Elastic Constant Matrix: (Units=GPa)
#
#
# Indices 1 2 3 4 5 6 
#
# 1 104.1551 73.3879 47.9651 0.0000 0.0000 0.0000
# 2 73.3879 104.1551 47.9651 0.0000 0.0000 0.0000
# 3 47.9651 47.9651 54.8392 0.0000 0.0000 0.0000
# 4 0.0000 0.0000 0.0000 23.4990 0.0000 0.0000
# 5 0.0000 0.0000 0.0000 0.0000 23.4990 0.0000
# 6 0.0000 0.0000 0.0000 0.0000 0.0000 38.0534
#
#
#
# Elastic Compliance Matrix: (Units=1/GPa)
#
#
# Indices 1 2 3 4 5 6 
#
# 1 0.021591 -0.010911 -0.009341 0.000000 0.000000 0.000000
# 2 -0.010911 0.021591 -0.009341 0.000000 0.000000 0.000000
# 3 -0.009341 -0.009341 0.034575 0.000000 0.000000 0.000000
# 4 0.000000 0.000000 0.000000 0.042555 0.000000 0.000000
# 5 0.000000 0.000000 0.000000 0.000000 0.042555 0.000000
# 6 0.000000 0.000000 0.000000 0.000000 0.000000 0.026279
#
#
# Mechanical properties :
#
#
# Convention : Reuss Voigt Hill
#
# Bulk Modulus (GPa) = 53.84814 66.86507 60.35661
# Shear Modulus (GPa) = 19.64468 23.26568 21.45518
#
# Velocity S-wave (km/s) = 3.32199 3.61521 3.47170
# Velocity P-wave (km/s) = 6.70552 7.41543 7.06939
#
# Compressibility (1/GPa) = 0.01857074
#
# Stress axis : x y z
#
# Youngs Moduli (GPa) = 46.31603 46.31603 28.92258
#
# Poissons Ratio (x) = 0.50537 0.27016
# Poissons Ratio (y) = 0.50537 0.27016
# Poissons Ratio (z) = 0.43263 0.43263
#
# Static dielectric constant tensor:
#      x y z
#    x 3.356010 0.000000 0.000000 
#    y 0.000000 3.356010 0.000000 
#    z 0.000000 0.000000 3.181890 
# 
# 
# High freq. dielectric constant tensor:
#      x y z
#    x 1.686190 0.000000 0.000000 
#    y 0.000000 1.686190 0.000000 
#    z 0.000000 0.000000 1.671860 
# 
# From -- ./inp_files/2211.got.cif
#   From: 2010.03.12/outbox.cif.g09.slc.cpg/sg131_2_cif.got.tgz:2211.got - 2010.04.06 17:36:35.
