data_PCOD8316820
_publ_section_title
;
Structure prediction by ZEFSAII (Michael W. Deem and Ramdas Pophale) SiO2 
 PCOD8316820
Probable space group: P 42/M C M
;
_chemical_formula_sum "Si O2"
_cell_formula_units_Z 96
_cell_length_a 23.903258
_cell_length_b 23.903258
_cell_length_c 8.980281
_cell_angle_alpha 90.000000
_cell_angle_beta 90.000000
_cell_angle_gamma 90.000000
_cell_volume 5131.024926
_symmetry_space_group_name_H-M "P 42/M C M"
_symmetry_group_IT_number 132
_symmetry_cell_setting 'tetragonal'
loop_
_space_group_symop_operation_xyz
x,y,z
-y,x,1/2+z
-x,-y,z
y,-x,1/2+z
x,-y,1/2-z
-x,y,1/2-z
y,x,-z
-y,-x,-z
-x,-y,-z
y,-x,1/2-z
x,y,-z
-y,x,1/2-z
-x,y,1/2+z
x,-y,1/2+z
-y,-x,z
y,x,z
loop_
_atom_site_type_symbol
_atom_site_label
_atom_site_fract_x
_atom_site_fract_y
_atom_site_fract_z
Si Si1 0.122322 0.254412 0.827142
Si Si2 0.239542 0.239542 0.677777
Si Si3 0.056964 0.142756 0.170262
Si Si4 0.146888 0.556318 0.826062
Si Si5 0.557392 0.725588 0.324020
Si Si6 0.330063 0.330063 0.676546
Si Si7 0.058125 0.350651 0.322921
O O1 0.181087 0.260477 0.743881
O O2 0.101957 0.191400 0.809802
O O3 0.075641 0.291794 0.747100
O O4 0.128957 0.271424 0.000000
O O5 0.234752 0.234752 0.500000
O O6 0.284895 0.284895 0.730128
O O7 0.086204 0.086204 0.233076
O O8 0.000000 0.157480 0.250000
O O9 0.041277 0.134279 0.000000
O O10 0.125188 0.500000 0.750000
O O11 0.210358 0.570535 0.776800
O O12 0.106283 0.605939 0.776238
O O13 0.143617 0.546264 0.000000
O O14 0.500000 0.704293 0.250000
O O15 0.550699 0.720491 0.500000
O O16 0.608351 0.687083 0.264382
O O17 0.330342 0.330342 0.500000
O O18 0.051259 0.345213 0.500000
O O19 0.000000 0.370438 0.250000
#
# Coordination Sequence:
#
# PCOD8316820 Si02
#       7
#    16   8  16  16  16   8  16
#     4  11  22  39  58  80 113 147 179 224 280 336
#     4  11  21  35  59  87 113 143 183 228 278 339
#     4  10  22  40  58  78 106 136 171 217 265 319
#     4   9  19  35  55  77 107 143 186 233 280 334
#     4   9  17  33  55  79 108 145 184 227 276 327
#     4   9  18  33  55  82 114 150 185 224 274 328
#     4  11  23  38  55  80 110 145 188 234 281 337
#
# _framework density 18.709712
#
# number of rings (size 3 to 8) (size 9 to 14) (size 15 to 20)
#    0.000    2.000    0.833    2.750    0.000    7.500 
#    0.000    7.917    0.000    0.250    0.000    1.750 
#    0.000    0.000    0.000    0.000    0.000    0.000 
#
# Total GULP energy -1190506.924432 kJ/mol
# GULP energy per Si atom -12401.113796 kJ/mol
# Density = 1.866713 g / cm^3
# Si number density = 18.709712 Si / 1000 Ang^3
#
#
#
# Elastic Constant Matrix: (Units=GPa)
#
#
# Indices 1 2 3 4 5 6 
#
# 1 116.6170 54.4000 42.4833 0.0000 0.0000 0.0000
# 2 54.4000 116.6170 42.4833 0.0000 0.0000 0.0000
# 3 42.4833 42.4833 66.3396 0.0000 0.0000 0.0000
# 4 0.0000 0.0000 0.0000 30.6824 0.0000 0.0000
# 5 0.0000 0.0000 0.0000 0.0000 30.6824 0.0000
# 6 0.0000 0.0000 0.0000 0.0000 0.0000 22.5338
#
#
#
# Elastic Compliance Matrix: (Units=1/GPa)
#
#
# Indices 1 2 3 4 5 6 
#
# 1 0.012324 -0.003748 -0.005492 0.000000 0.000000 0.000000
# 2 -0.003748 0.012324 -0.005492 0.000000 0.000000 0.000000
# 3 -0.005492 -0.005492 0.022108 0.000000 0.000000 0.000000
# 4 0.000000 0.000000 0.000000 0.032592 0.000000 0.000000
# 5 0.000000 0.000000 0.000000 0.000000 0.032592 0.000000
# 6 0.000000 0.000000 0.000000 0.000000 0.000000 0.044378
#
#
# Mechanical properties :
#
#
# Convention : Reuss Voigt Hill
#
# Bulk Modulus (GPa) = 57.83018 64.25632 61.04325
# Shear Modulus (GPa) = 26.10324 27.46018 26.78171
#
# Velocity S-wave (km/s) = 3.73925 3.83521 3.78753
# Velocity P-wave (km/s) = 7.04407 7.35052 7.19893
#
# Compressibility (1/GPa) = 0.01729201
#
# Stress axis : x y z
#
# Youngs Moduli (GPa) = 81.14007 81.14007 45.23252
#
# Poissons Ratio (x) = 0.30415 0.24842
# Poissons Ratio (y) = 0.30415 0.24842
# Poissons Ratio (z) = 0.44562 0.44562
#
# Static dielectric constant tensor:
#      x y z
#    x 3.523910 0.000000 0.000000 
#    y 0.000000 3.523910 0.000000 
#    z 0.000000 0.000000 3.362620 
# 
# 
# High freq. dielectric constant tensor:
#      x y z
#    x 1.727700 0.000000 0.000000 
#    y 0.000000 1.727700 0.000000 
#    z 0.000000 0.000000 1.719560 
# 
# From -- ./inp_files/1858.got.cif
#   From: 2010.03.12/outbox.cif.g09.slc.cpg/sg132_1_cif.got.tgz:1858.got - 2010.04.06 17:53:44.
