data_PCOD8316579
_publ_section_title
;
Structure prediction by ZEFSAII (Michael W. Deem and Ramdas Pophale) SiO2 
 PCOD8316579
Probable space group: P 42/M C M
;
_chemical_formula_sum "Si O2"
_cell_formula_units_Z 64
_cell_length_a 13.308563
_cell_length_b 13.308563
_cell_length_c 20.161210
_cell_angle_alpha 90.000000
_cell_angle_beta 90.000000
_cell_angle_gamma 90.000000
_cell_volume 3570.910151
_symmetry_space_group_name_H-M "P 42/M C M"
_symmetry_group_IT_number 132
_symmetry_cell_setting 'tetragonal'
loop_
_space_group_symop_operation_xyz
x,y,z
-y,x,1/2+z
-x,-y,z
y,-x,1/2+z
x,-y,1/2-z
-x,y,1/2-z
y,x,-z
-y,-x,-z
-x,-y,-z
y,-x,1/2-z
x,y,-z
-y,x,1/2-z
-x,y,1/2+z
x,-y,1/2+z
-y,-x,z
y,x,z
loop_
_atom_site_type_symbol
_atom_site_label
_atom_site_fract_x
_atom_site_fract_y
_atom_site_fract_z
Si Si1 0.309743 0.534528 0.825410
Si Si2 0.221484 0.620675 0.425449
Si Si3 0.611503 0.044850 0.663491
Si Si4 0.688251 0.149874 0.790454
O O1 0.319344 0.500000 0.750000
O O2 0.414827 0.585174 0.846528
O O3 0.287902 0.446095 0.876250
O O4 0.221796 0.616179 0.832075
O O5 0.228289 0.577202 0.500000
O O6 0.266712 0.733289 0.422577
O O7 0.103601 0.621925 0.405673
O O8 0.636188 0.127939 0.719562
O O9 0.500000 0.000000 0.674132
O O10 0.693783 0.955152 0.668608
O O11 0.798327 0.201674 0.781947
#
# Coordination Sequence:
#
# PCOD8316579 Si02
#       4
#    16  16  16  16
#     4  11  20  34  55  82 114 150 190 229 277 337
#     4  11  24  39  55  80 116 155 192 234 284 336
#     4  11  19  35  59  83 112 146 191 230 278 337
#     4  10  19  32  56  86 114 139 174 235 290 327
#
# _framework density 17.922602000000001
#
# number of rings (size 3 to 8) (size 9 to 14) (size 15 to 20)
#    0.000    1.250    5.000    3.000    0.000    2.750 
#    0.000    1.250    0.000   13.500    0.000    1.750 
#    0.000    0.000    0.000    0.000    0.000    0.000 
#
# Total GULP energy -793234.639804 kJ/mol
# GULP energy per Si atom -12394.291247 kJ/mol
# Density = 1.788181 g / cm^3
# Si number density = 17.922602 Si / 1000 Ang^3
#
#
#
# Elastic Constant Matrix: (Units=GPa)
#
#
# Indices 1 2 3 4 5 6 
#
# 1 92.0438 56.7921 43.2591 0.0000 0.0000 0.0000
# 2 56.7921 92.0438 43.2591 0.0000 0.0000 0.0000
# 3 43.2591 43.2591 112.1849 0.0000 0.0000 0.0000
# 4 0.0000 0.0000 0.0000 14.6499 0.0000 0.0000
# 5 0.0000 0.0000 0.0000 0.0000 14.6499 0.0000
# 6 0.0000 0.0000 0.0000 0.0000 0.0000 38.4814
#
#
#
# Elastic Compliance Matrix: (Units=1/GPa)
#
#
# Indices 1 2 3 4 5 6 
#
# 1 0.018514 -0.009854 -0.003339 0.000000 0.000000 0.000000
# 2 -0.009854 0.018514 -0.003339 0.000000 0.000000 0.000000
# 3 -0.003339 -0.003339 0.011489 0.000000 0.000000 0.000000
# 4 0.000000 0.000000 0.000000 0.068260 0.000000 0.000000
# 5 0.000000 0.000000 0.000000 0.000000 0.068260 0.000000
# 6 0.000000 0.000000 0.000000 0.000000 0.000000 0.025987
#
#
# Mechanical properties :
#
#
# Convention : Reuss Voigt Hill
#
# Bulk Modulus (GPa) = 64.71741 64.76589 64.74165
# Shear Modulus (GPa) = 20.06110 23.75371 21.90741
#
# Velocity S-wave (km/s) = 3.34925 3.64448 3.49998
# Velocity P-wave (km/s) = 7.15153 7.34334 7.24807
#
# Compressibility (1/GPa) = 0.01545179
#
# Stress axis : x y z
#
# Youngs Moduli (GPa) = 54.01404 54.01404 87.03847
#
# Poissons Ratio (x) = 0.53224 0.29065
# Poissons Ratio (y) = 0.53224 0.29065
# Poissons Ratio (z) = 0.18037 0.18037
#
# Static dielectric constant tensor:
#      x y z
#    x 3.469270 0.000000 0.000000 
#    y 0.000000 3.469270 0.000000 
#    z 0.000000 0.000000 3.164720 
# 
# 
# High freq. dielectric constant tensor:
#      x y z
#    x 1.690630 0.000000 0.000000 
#    y 0.000000 1.690630 0.000000 
#    z 0.000000 0.000000 1.669500 
# 
# From -- ./inp_files/5955.got.cif
#   From: 2010.03.12/outbox.cif.g09.slc.cpg/sg132_3_cif.got.tgz:5955.got - 2010.04.06 17:53:44.
