data_PCOD8316122
_publ_section_title
;
Structure prediction by ZEFSAII (Michael W. Deem and Ramdas Pophale) SiO2 
 PCOD8316122
Probable space group: P 42/M M C
;
_chemical_formula_sum "Si O2"
_cell_formula_units_Z 56
_cell_length_a 19.414375
_cell_length_b 19.414375
_cell_length_c 8.634519
_cell_angle_alpha 90.000000
_cell_angle_beta 90.000000
_cell_angle_gamma 90.000000
_cell_volume 3254.505258
_symmetry_space_group_name_H-M "P 42/M M C"
_symmetry_group_IT_number 131
_symmetry_cell_setting 'tetragonal'
loop_
_space_group_symop_operation_xyz
x,y,z
-x,-y,z
-y,x,1/2+z
y,-x,1/2+z
-x,y,-z
x,-y,-z
y,x,1/2-z
-y,-x,1/2-z
-x,-y,-z
x,y,-z
y,-x,1/2-z
-y,x,1/2-z
x,-y,z
-x,y,z
-y,-x,1/2+z
y,x,1/2+z
loop_
_atom_site_type_symbol
_atom_site_label
_atom_site_fract_x
_atom_site_fract_y
_atom_site_fract_z
Si Si1 0.184384 0.920358 0.316499
Si Si2 0.711908 0.815269 0.182604
Si Si3 0.419305 0.000000 0.828458
Si Si4 0.421806 0.141872 0.317708
O O1 0.116032 0.883969 0.250000
O O2 0.184360 0.912293 0.500000
O O3 0.252868 0.884120 0.250567
O O4 0.184354 0.000000 0.264972
O O5 0.748032 0.748032 0.250000
O O6 0.631884 0.808070 0.232397
O O7 0.719105 0.816495 0.000000
O O8 0.397206 0.065765 0.729736
O O9 0.500000 0.000000 0.851699
O O10 0.384369 0.000000 0.000000
O O11 0.415756 0.150494 0.500000
O O12 0.500000 0.157760 0.262047
#
# Coordination Sequence:
#
# PCOD8316122 Si02
#       4
#    16  16   8  16
#     4  10  21  36  53  72  95 125 164 210 260 311
#     4  11  22  36  54  74 101 133 169 209 252 304
#     4   9  17  29  45  69  99 129 164 203 244 289
#     4  10  20  34  52  74 102 134 167 205 249 297
#
# _framework density 17.206918000000002
#
# number of rings (size 3 to 8) (size 9 to 14) (size 15 to 20)
#    0.000    1.857    0.000    6.429    2.000    6.000 
#    0.000    1.429    0.000    0.000    0.000    0.000 
#    0.000    0.571    0.000    6.000    0.000    2.571 
#
# Total GULP energy -694339.116708 kJ/mol
# GULP energy per Si atom -12398.912798 kJ/mol
# Density = 1.716775 g / cm^3
# Si number density = 17.206918 Si / 1000 Ang^3
#
#
#
# Elastic Constant Matrix: (Units=GPa)
#
#
# Indices 1 2 3 4 5 6 
#
# 1 113.9973 49.2121 39.7690 0.0000 0.0000 0.0000
# 2 49.2121 113.9973 39.7698 0.0000 0.0000 0.0000
# 3 39.7690 39.7698 100.9201 0.0000 0.0000 0.0000
# 4 0.0000 0.0000 0.0000 27.4774 0.0000 0.0000
# 5 0.0000 0.0000 0.0000 0.0000 27.4777 0.0000
# 6 0.0000 0.0000 0.0000 0.0000 0.0000 6.7914
#
#
#
# Elastic Compliance Matrix: (Units=1/GPa)
#
#
# Indices 1 2 3 4 5 6 
#
# 1 0.011510 -0.003926 -0.002988 0.000000 0.000000 0.000000
# 2 -0.003926 0.011510 -0.002988 0.000000 0.000000 0.000000
# 3 -0.002988 -0.002988 0.012264 0.000000 0.000000 0.000000
# 4 0.000000 0.000000 0.000000 0.036394 0.000000 0.000000
# 5 0.000000 0.000000 0.000000 0.000000 0.036393 0.000000
# 6 0.000000 0.000000 0.000000 0.000000 0.000000 0.147245
#
#
# Mechanical properties :
#
#
# Convention : Reuss Voigt Hill
#
# Bulk Modulus (GPa) = 64.61024 65.15740 64.88382
# Shear Modulus (GPa) = 17.83932 25.69356 21.76644
#
# Velocity S-wave (km/s) = 3.22336 3.86840 3.56052
# Velocity P-wave (km/s) = 7.17523 7.60933 7.39546
#
# Compressibility (1/GPa) = 0.01547742
#
# Stress axis : x y z
#
# Youngs Moduli (GPa) = 86.88467 86.88405 81.53883
#
# Poissons Ratio (x) = 0.34111 0.24366
# Poissons Ratio (y) = 0.34112 0.24368
# Poissons Ratio (z) = 0.25964 0.25965
#
# Static dielectric constant tensor:
#      x y z
#    x 3.249760 0.000000 0.000000 
#    y 0.000000 3.249760 0.000000 
#    z 0.000000 0.000000 3.332330 
# 
# 
# High freq. dielectric constant tensor:
#      x y z
#    x 1.645720 0.000000 0.000000 
#    y 0.000000 1.645720 0.000000 
#    z 0.000000 0.000000 1.685510 
# 
# From -- ./inp_files/1223.got.cif
#   From: 2010.03.12/outbox.cif.g09.slc.cpg/sg131_1_cif.got.tgz:1223.got - 2010.04.06 17:36:35.
