data_PCOD8316984
_publ_section_title
;
Structure prediction by ZEFSAII (Michael W. Deem and Ramdas Pophale) SiO2 
 PCOD8316984
Probable space group: P 42/N B C
;
_chemical_formula_sum "Si O2"
_cell_formula_units_Z 76
_cell_length_a 18.006236
_cell_length_b 18.006236
_cell_length_c 11.368867
_cell_angle_alpha 90.000000
_cell_angle_beta 90.000000
_cell_angle_gamma 90.000000
_cell_volume 3686.065615
_symmetry_space_group_name_H-M "P 42/N B C"
_symmetry_group_IT_number 133
_space_group.IT_coordinate_system_code '2'
_symmetry_cell_setting 'tetragonal'
loop_
_space_group_symop_operation_xyz
x,y,z
1/2-y,x,1/2+z
1/2-x,1/2-y,z
y,1/2-x,1/2+z
x,1/2-y,-z
1/2-x,y,-z
y,x,1/2-z
1/2-y,1/2-x,1/2-z
-x,-y,-z
1/2+y,-x,1/2-z
1/2+x,1/2+y,-z
-y,1/2+x,1/2-z
-x,1/2+y,z
1/2+x,-y,z
-y,-x,1/2+z
1/2+y,1/2+x,1/2+z
loop_
_atom_site_type_symbol
_atom_site_label
_atom_site_fract_x
_atom_site_fract_y
_atom_site_fract_z
Si Si1 0.750000 0.250000 0.250000
Si Si2 0.102927 0.323921 0.573810
Si Si3 0.904427 0.750000 0.000000
Si Si4 0.747657 0.982326 0.272064
Si Si5 0.965411 0.329676 0.442975
Si Si6 0.809712 0.381352 0.397435
O O1 0.798419 0.303696 0.331312
O O2 0.110197 0.250000 0.500000
O O3 0.182630 0.361635 0.562446
O O4 0.080941 0.303083 0.708166
O O5 0.033183 0.368869 0.515412
O O6 0.951833 0.783975 0.107103
O O7 0.816093 0.009401 0.191939
O O8 0.694839 0.051568 0.304739
O O9 0.946437 0.250000 0.500000
O O10 0.892909 0.381419 0.450436
O O11 0.750000 0.392020 0.500000
#
# Coordination Sequence:
#
# PCOD8316984 Si02
#       6
#     4  16   8  16  16  16
#     4  12  22  32  64  94 120 176 234 244 308 366
#     4   9  22  40  66  90 119 157 204 274 320 378
#     4  12  21  42  66  89 120 158 218 248 338 393
#     4  10  22  38  59  91 130 160 197 272 320 369
#     4   9  20  39  57  90 130 161 205 264 321 359
#     4  12  22  35  60  95 126 173 217 259 304 384
#
# _framework density 20.618189999999998
#
# number of rings (size 3 to 8) (size 9 to 14) (size 15 to 20)
#    0.000    2.105    3.158    2.526    2.947    3.368 
#    0.000    5.263    4.632    0.000    0.000    0.000 
#    0.000    0.000    0.000    0.000    0.000    0.000 
#
# Total GULP energy -941813.826932 kJ/mol
# GULP energy per Si atom -12392.287196 kJ/mol
# Density = 2.057126 g / cm^3
# Si number density = 20.618190 Si / 1000 Ang^3
#
#
#
# Elastic Constant Matrix: (Units=GPa)
#
#
# Indices 1 2 3 4 5 6 
#
# 1 86.8996 22.7911 26.7008 0.0000 0.0000 0.0000
# 2 22.7911 86.8996 26.7008 0.0000 0.0000 0.0000
# 3 26.7008 26.7008 133.0421 0.0000 0.0000 0.0000
# 4 0.0000 0.0000 0.0000 19.1981 0.0000 0.0000
# 5 0.0000 0.0000 0.0000 0.0000 19.1981 0.0000
# 6 0.0000 0.0000 0.0000 0.0000 0.0000 3.2353
#
#
#
# Elastic Compliance Matrix: (Units=1/GPa)
#
#
# Indices 1 2 3 4 5 6 
#
# 1 0.012851 -0.002747 -0.002028 0.000000 0.000000 0.000000
# 2 -0.002747 0.012851 -0.002028 0.000000 0.000000 0.000000
# 3 -0.002028 -0.002028 0.008330 0.000000 0.000000 0.000000
# 4 0.000000 0.000000 0.000000 0.052088 0.000000 0.000000
# 5 0.000000 0.000000 0.000000 0.000000 0.052088 0.000000
# 6 0.000000 0.000000 0.000000 0.000000 0.000000 0.309093
#
#
# Mechanical properties :
#
#
# Convention : Reuss Voigt Hill
#
# Bulk Modulus (GPa) = 48.95537 51.02517 49.99027
# Shear Modulus (GPa) = 10.69021 23.70288 17.19655
#
# Velocity S-wave (km/s) = 2.27950 3.39427 2.89112
# Velocity P-wave (km/s) = 5.54287 6.33741 5.95341
#
# Compressibility (1/GPa) = 0.02042677
#
# Stress axis : x y z
#
# Youngs Moduli (GPa) = 77.81410 77.81410 120.04318
#
# Poissons Ratio (x) = 0.21379 0.24342
# Poissons Ratio (y) = 0.21379 0.24342
# Poissons Ratio (z) = 0.15779 0.15779
#
# Static dielectric constant tensor:
#      x y z
#    x 3.851370 0.000000 0.000000 
#    y 0.000000 3.851370 0.000000 
#    z 0.000000 0.000000 3.998230 
# 
# 
# High freq. dielectric constant tensor:
#      x y z
#    x 1.784120 0.000000 0.000000 
#    y 0.000000 1.784120 0.000000 
#    z 0.000000 0.000000 1.829120 
# 
# From -- ./inp_files/3271.got.cif
#   From: 2010.03.12/outbox.cif.g09.slc.cpg/sg133_2_cif.got.tgz:3271.got - 2010.04.06 18:08:06.
