data_PCOD8316397
_publ_section_title
;
Structure prediction by ZEFSAII (Michael W. Deem and Ramdas Pophale) SiO2 
 PCOD8316397
Probable space group: P 42/M M C
;
_chemical_formula_sum "Si O2"
_cell_formula_units_Z 56
_cell_length_a 13.747564
_cell_length_b 13.747564
_cell_length_c 18.545195
_cell_angle_alpha 90.000000
_cell_angle_beta 90.000000
_cell_angle_gamma 90.000000
_cell_volume 3504.958697
_symmetry_space_group_name_H-M "P 42/M M C"
_symmetry_group_IT_number 131
_symmetry_cell_setting 'tetragonal'
loop_
_space_group_symop_operation_xyz
x,y,z
-x,-y,z
-y,x,1/2+z
y,-x,1/2+z
-x,y,-z
x,-y,-z
y,x,1/2-z
-y,-x,1/2-z
-x,-y,-z
x,y,-z
y,-x,1/2-z
-y,x,1/2-z
x,-y,z
-x,y,z
-y,-x,1/2+z
y,x,1/2+z
loop_
_atom_site_type_symbol
_atom_site_label
_atom_site_fract_x
_atom_site_fract_y
_atom_site_fract_z
Si Si1 0.886056 0.886058 0.000000
Si Si2 0.891552 0.388029 0.827929
Si Si3 0.253999 0.237743 0.579401
Si Si4 0.612852 0.745687 0.795693
O O1 0.831856 0.841439 0.929133
O O2 0.000000 0.858069 0.000000
O O3 0.870379 0.000000 0.000000
O O4 0.894602 0.500000 0.849019
O O5 0.829090 0.338732 0.889863
O O6 0.843823 0.372466 0.749756
O O7 0.000000 0.343785 0.824861
O O8 0.285820 0.276175 0.500000
O O9 0.235732 0.330699 0.629755
O O10 0.655010 0.655010 0.750000
O O11 0.500000 0.724150 0.812397
#
# Coordination Sequence:
#
# PCOD8316397 Si02
#       4
#     8  16  16  16
#     4   9  18  32  48  68  98 133 164 196 242 296
#     4   9  17  30  50  73  96 123 157 204 255 296
#     4   9  19  31  48  72  99 130 164 202 248 293
#     4   9  18  33  50  71  98 130 169 207 247 298
#
# _framework density 15.977363
#
# number of rings (size 3 to 8) (size 9 to 14) (size 15 to 20)
#    0.857    2.143    0.000    0.857    0.000    2.571 
#    0.000    1.429    0.000    0.857    0.000   22.000 
#    0.000    0.000    0.000    0.000    0.000    0.000 
#
# Total GULP energy -693961.239913 kJ/mol
# GULP energy per Si atom -12392.164998 kJ/mol
# Density = 1.594100 g / cm^3
# Si number density = 15.977363 Si / 1000 Ang^3
#
#
#
# Elastic Constant Matrix: (Units=GPa)
#
#
# Indices 1 2 3 4 5 6 
#
# 1 94.0434 33.5698 50.1661 0.0000 0.0000 0.0000
# 2 33.5698 94.0434 50.1661 0.0000 0.0000 0.0000
# 3 50.1661 50.1661 117.6208 0.0000 0.0000 0.0000
# 4 0.0000 0.0000 0.0000 20.7966 0.0000 0.0000
# 5 0.0000 0.0000 0.0000 0.0000 20.7966 0.0000
# 6 0.0000 0.0000 0.0000 0.0000 0.0000 22.2309
#
#
#
# Elastic Compliance Matrix: (Units=1/GPa)
#
#
# Indices 1 2 3 4 5 6 
#
# 1 0.014163 -0.002373 -0.005028 0.000000 0.000000 0.000000
# 2 -0.002373 0.014163 -0.005028 0.000000 0.000000 0.000000
# 3 -0.005028 -0.005028 0.012791 0.000000 0.000000 0.000000
# 4 0.000000 0.000000 0.000000 0.048085 0.000000 0.000000
# 5 0.000000 0.000000 0.000000 0.000000 0.048085 0.000000
# 6 0.000000 0.000000 0.000000 0.000000 0.000000 0.044982
#
#
# Mechanical properties :
#
#
# Convention : Reuss Voigt Hill
#
# Bulk Modulus (GPa) = 61.51223 63.72352 62.61788
# Shear Modulus (GPa) = 23.52414 24.21854 23.87134
#
# Velocity S-wave (km/s) = 3.84127 3.89756 3.86952
# Velocity P-wave (km/s) = 7.63263 7.76046 7.69681
#
# Compressibility (1/GPa) = 0.01625693
#
# Stress axis : x y z
#
# Youngs Moduli (GPa) = 70.60729 70.60729 78.17909
#
# Poissons Ratio (x) = 0.16757 0.39311
# Poissons Ratio (y) = 0.16757 0.39311
# Poissons Ratio (z) = 0.35504 0.35504
#
# Static dielectric constant tensor:
#      x y z
#    x 3.039290 0.000000 0.000000 
#    y 0.000000 3.039290 0.000000 
#    z 0.000000 0.000000 2.952520 
# 
# 
# High freq. dielectric constant tensor:
#      x y z
#    x 1.613130 0.000000 0.000000 
#    y 0.000000 1.613130 0.000000 
#    z 0.000000 0.000000 1.606290 
# 
# From -- ./inp_files/7216.got.cif
#   From: 2010.03.12/outbox.cif.g09.slc.cpg/sg131_4_cif.got.tgz:7216.got - 2010.04.06 17:36:35.
