data_PCOD8316602
_publ_section_title
;
Structure prediction by ZEFSAII (Michael W. Deem and Ramdas Pophale) SiO2 
 PCOD8316602
Probable space group: P 42/M C M
;
_chemical_formula_sum "Si O2"
_cell_formula_units_Z 96
_cell_length_a 23.402501
_cell_length_b 23.402501
_cell_length_c 9.196804
_cell_angle_alpha 90.000000
_cell_angle_beta 90.000000
_cell_angle_gamma 90.000000
_cell_volume 5036.878512
_symmetry_space_group_name_H-M "P 42/M C M"
_symmetry_group_IT_number 132
_symmetry_cell_setting 'tetragonal'
loop_
_space_group_symop_operation_xyz
x,y,z
-y,x,1/2+z
-x,-y,z
y,-x,1/2+z
x,-y,1/2-z
-x,y,1/2-z
y,x,-z
-y,-x,-z
-x,-y,-z
y,-x,1/2-z
x,y,-z
-y,x,1/2-z
-x,y,1/2+z
x,-y,1/2+z
-y,-x,z
y,x,z
loop_
_atom_site_type_symbol
_atom_site_label
_atom_site_fract_x
_atom_site_fract_y
_atom_site_fract_z
Si Si1 0.828545 0.734807 0.332740
Si Si2 0.050433 0.386924 0.158803
Si Si3 0.650862 0.560450 0.670440
Si Si4 0.256047 0.946620 0.338507
Si Si5 0.443383 0.861805 0.162586
Si Si6 0.756793 0.628648 0.337527
O O1 0.844677 0.719042 0.500000
O O2 0.792658 0.792658 0.324860
O O3 0.886319 0.747619 0.244806
O O4 0.789724 0.682715 0.263569
O O5 0.035939 0.321208 0.137388
O O6 0.107708 0.391563 0.253673
O O7 0.000000 0.417783 0.250000
O O8 0.056937 0.416148 0.000000
O O9 0.653554 0.500000 0.750000
O O10 0.663068 0.550044 0.500000
O O11 0.588595 0.588595 0.695526
O O12 0.697897 0.605895 0.734721
O O13 0.227597 0.941027 0.500000
O O14 0.227083 0.000000 0.250000
O O15 0.500000 0.875153 0.250000
O O16 0.428256 0.795390 0.161534
O O17 0.449574 0.886042 0.000000
O O18 0.742390 0.649810 0.500000
#
# Coordination Sequence:
#
# PCOD8316602 Si02
#       6
#    16  16  16  16  16  16
#     4  10  19  33  56  84 113 145 183 223 266 321
#     4  10  20  34  51  71  96 131 174 220 267 313
#     4  10  21  38  59  81 105 134 170 213 265 326
#     4  10  20  34  54  78 109 146 185 227 270 319
#     4  11  21  33  50  71  98 131 172 220 266 318
#     4   9  18  34  55  78 104 138 174 212 260 319
#
# _framework density 19.059424
#
# number of rings (size 3 to 8) (size 9 to 14) (size 15 to 20)
#    0.000    2.000    1.667    2.500    0.000    4.500 
#    0.000    4.167    0.000    2.000    0.000    0.000 
#    0.000    0.333    0.000    3.500    0.000    1.500 
#
# Total GULP energy -1189476.454691 kJ/mol
# GULP energy per Si atom -12390.379736 kJ/mol
# Density = 1.901604 g / cm^3
# Si number density = 19.059424 Si / 1000 Ang^3
#
#
#
# Elastic Constant Matrix: (Units=GPa)
#
#
# Indices 1 2 3 4 5 6 
#
# 1 84.4149 37.2243 41.1372 0.0000 0.0000 0.0000
# 2 37.2243 84.4149 41.1372 0.0000 0.0000 0.0000
# 3 41.1372 41.1372 120.3939 0.0000 0.0000 0.0000
# 4 0.0000 0.0000 0.0000 24.1729 0.0000 0.0000
# 5 0.0000 0.0000 0.0000 0.0000 24.1729 0.0000
# 6 0.0000 0.0000 0.0000 0.0000 0.0000 13.9859
#
#
#
# Elastic Compliance Matrix: (Units=1/GPa)
#
#
# Indices 1 2 3 4 5 6 
#
# 1 0.015941 -0.005249 -0.003653 0.000000 0.000000 0.000000
# 2 -0.005249 0.015941 -0.003653 0.000000 0.000000 0.000000
# 3 -0.003653 -0.003653 0.010803 0.000000 0.000000 0.000000
# 4 0.000000 0.000000 0.000000 0.041369 0.000000 0.000000
# 5 0.000000 0.000000 0.000000 0.000000 0.041369 0.000000
# 6 0.000000 0.000000 0.000000 0.000000 0.000000 0.071500
#
#
# Mechanical properties :
#
#
# Convention : Reuss Voigt Hill
#
# Bulk Modulus (GPa) = 56.90409 58.69123 57.79766
# Shear Modulus (GPa) = 21.94011 23.78133 22.86072
#
# Velocity S-wave (km/s) = 3.39653 3.53618 3.46706
# Velocity P-wave (km/s) = 6.73074 6.89445 6.81308
#
# Compressibility (1/GPa) = 0.01757343
#
# Stress axis : x y z
#
# Youngs Moduli (GPa) = 62.72975 62.72975 92.56943
#
# Poissons Ratio (x) = 0.32929 0.33819
# Poissons Ratio (y) = 0.32929 0.33819
# Poissons Ratio (z) = 0.22918 0.22918
#
# Static dielectric constant tensor:
#      x y z
#    x 3.303810 0.000000 0.000000 
#    y 0.000000 3.303810 0.000000 
#    z 0.000000 0.000000 3.611320 
# 
# 
# High freq. dielectric constant tensor:
#      x y z
#    x 1.723270 0.000000 0.000000 
#    y 0.000000 1.723270 0.000000 
#    z 0.000000 0.000000 1.728910 
# 
# From -- ./inp_files/1706.got.cif
#   From: 2010.03.12/outbox.cif.g09.slc.cpg/sg132_1_cif.got.tgz:1706.got - 2010.04.06 17:53:44.
