data_PCOD8316921
_publ_section_title
;
Structure prediction by ZEFSAII (Michael W. Deem and Ramdas Pophale) SiO2 
 PCOD8316921
Probable space group: P 42/N B C
;
_chemical_formula_sum "Si O2"
_cell_formula_units_Z 64
_cell_length_a 23.856232
_cell_length_b 23.856232
_cell_length_c 5.304120
_cell_angle_alpha 90.000000
_cell_angle_beta 90.000000
_cell_angle_gamma 90.000000
_cell_volume 3018.679741
_symmetry_space_group_name_H-M "P 42/N B C"
_symmetry_group_IT_number 133
_space_group.IT_coordinate_system_code '2'
_symmetry_cell_setting 'tetragonal'
loop_
_space_group_symop_operation_xyz
x,y,z
1/2-y,x,1/2+z
1/2-x,1/2-y,z
y,1/2-x,1/2+z
x,1/2-y,-z
1/2-x,y,-z
y,x,1/2-z
1/2-y,1/2-x,1/2-z
-x,-y,-z
1/2+y,-x,1/2-z
1/2+x,1/2+y,-z
-y,1/2+x,1/2-z
-x,1/2+y,z
1/2+x,-y,z
-y,-x,1/2+z
1/2+y,1/2+x,1/2+z
loop_
_atom_site_type_symbol
_atom_site_label
_atom_site_fract_x
_atom_site_fract_y
_atom_site_fract_z
Si Si1 0.972454 0.060479 0.396819
Si Si2 0.351777 0.615208 0.597521
Si Si3 0.533466 0.250000 0.000000
Si Si4 0.420749 0.129924 0.502170
Si Si5 0.961162 0.750000 0.500000
O O1 0.965557 0.012620 0.617890
O O2 0.911652 0.086788 0.341003
O O3 0.015550 0.108535 0.473911
O O4 0.353376 0.659816 0.365057
O O5 0.305150 0.569719 0.540234
O O6 0.497337 0.240589 0.750647
O O7 0.385602 0.114399 0.750000
O O8 0.421094 0.196557 0.469467
O O9 0.394773 0.105228 0.250000
#
# Coordination Sequence:
#
# PCOD8316921 Si02
#       5
#    16  16   8  16   8
#     4  10  19  35  55  86 127 163 200 243 307 382
#     4  10  20  35  58  89 124 163 218 269 313 367
#     4  12  22  40  70  95 126 181 232 272 310 376
#     4  12  26  42  64  95 129 166 207 263 329 389
#     4  12  24  44  68  93 130 169 222 272 316 392
#
# _framework density 21.201322999999999
#
# number of rings (size 3 to 8) (size 9 to 14) (size 15 to 20)
#    0.000    1.000    0.000   10.500    0.000    3.000 
#    0.000    0.000    0.000    4.500    0.000    0.000 
#    0.000    0.000    0.000    0.000    0.000    0.000 
#
# Total GULP energy -793713.134854 kJ/mol
# GULP energy per Si atom -12401.767732 kJ/mol
# Density = 2.115307 g / cm^3
# Si number density = 21.201323 Si / 1000 Ang^3
#
#
#
# Elastic Constant Matrix: (Units=GPa)
#
#
# Indices 1 2 3 4 5 6 
#
# 1 161.1860 -5.5051 37.0965 0.0000 0.0000 0.0000
# 2 -5.5051 161.1759 37.0934 0.0000 0.0000 0.0000
# 3 37.0965 37.0934 201.6140 0.0000 0.0000 0.0000
# 4 0.0000 0.0000 0.0000 29.1853 0.0000 0.0000
# 5 0.0000 0.0000 0.0000 0.0000 29.1905 0.0000
# 6 0.0000 0.0000 0.0000 0.0000 0.0000 44.6999
#
#
#
# Elastic Compliance Matrix: (Units=1/GPa)
#
#
# Indices 1 2 3 4 5 6 
#
# 1 0.006520 0.000521 -0.001295 0.000000 0.000000 0.000000
# 2 0.000521 0.006520 -0.001295 0.000000 0.000000 0.000000
# 3 -0.001295 -0.001295 0.005437 0.000000 0.000000 0.000000
# 4 0.000000 0.000000 0.000000 0.034264 0.000000 0.000000
# 5 0.000000 0.000000 0.000000 0.000000 0.034258 0.000000
# 6 0.000000 0.000000 0.000000 0.000000 0.000000 0.022371
#
#
# Mechanical properties :
#
#
# Convention : Reuss Voigt Hill
#
# Bulk Modulus (GPa) = 69.75076 73.48284 71.61680
# Shear Modulus (GPa) = 42.26932 50.96787 46.61860
#
# Velocity S-wave (km/s) = 4.46994 4.90837 4.69428
# Velocity P-wave (km/s) = 7.72083 8.17665 7.95201
#
# Compressibility (1/GPa) = 0.01433676
#
# Stress axis : x y z
#
# Youngs Moduli (GPa) = 153.37538 153.36647 183.93582
#
# Poissons Ratio (x) = -0.07988 0.23829
# Poissons Ratio (y) = -0.07988 0.23828
# Poissons Ratio (z) = 0.19869 0.19868
#
# Static dielectric constant tensor:
#      x y z
#    x 3.711540 0.000000 0.000000 
#    y 0.000000 3.711530 0.000000 
#    z 0.000000 0.000000 4.891010 
# 
# 
# High freq. dielectric constant tensor:
#      x y z
#    x 1.813180 0.000000 0.000000 
#    y 0.000000 1.813180 0.000000 
#    z 0.000000 0.000000 1.889760 
# 
# From -- ./inp_files/375.got.cif
#   From: 2010.03.12/outbox.cif.g09.slc.cpg/sg133_1_cif.got.tgz:375.got - 2010.04.06 18:08:06.
