data_PCOD8316273
_publ_section_title
;
Structure prediction by ZEFSAII (Michael W. Deem and Ramdas Pophale) SiO2 
 PCOD8316273
Probable space group: P 42/M M C
;
_chemical_formula_sum "Si O2"
_cell_formula_units_Z 56
_cell_length_a 16.666994
_cell_length_b 16.666994
_cell_length_c 10.350944
_cell_angle_alpha 90.000000
_cell_angle_beta 90.000000
_cell_angle_gamma 90.000000
_cell_volume 2875.375164
_symmetry_space_group_name_H-M "P 42/M M C"
_symmetry_group_IT_number 131
_symmetry_cell_setting 'tetragonal'
loop_
_space_group_symop_operation_xyz
x,y,z
-x,-y,z
-y,x,1/2+z
y,-x,1/2+z
-x,y,-z
x,-y,-z
y,x,1/2-z
-y,-x,1/2-z
-x,-y,-z
x,y,-z
y,-x,1/2-z
-y,x,1/2-z
x,-y,z
-x,y,z
-y,-x,1/2+z
y,x,1/2+z
loop_
_atom_site_type_symbol
_atom_site_label
_atom_site_fract_x
_atom_site_fract_y
_atom_site_fract_z
Si Si1 0.408273 0.166520 0.773604
Si Si2 0.322590 0.759547 0.000000
Si Si3 0.408917 0.240840 0.500000
Si Si4 0.090730 0.090730 0.750000
Si Si5 0.409719 0.000000 0.152152
Si Si6 0.197286 0.905688 0.000000
O O1 0.500000 0.159092 0.816495
O O2 0.398284 0.185887 0.624481
O O3 0.365018 0.080149 0.797138
O O4 0.371811 0.233582 0.867122
O O5 0.300066 0.665898 0.000000
O O6 0.260175 0.832856 0.000000
O O7 0.500000 0.280157 0.500000
O O8 0.110352 0.146062 0.628057
O O9 0.000000 0.104124 0.797231
O O10 0.500000 0.000000 0.208440
O O11 0.409553 0.000000 0.000000
O O12 0.230466 0.000000 0.000000
#
# Coordination Sequence:
#
# PCOD8316273 Si02
#       6
#    16   8   8   8   8   8
#     4  10  21  38  62  88 118 155 199 243 305 370
#     4  12  23  37  62  86 120 157 195 249 303 369
#     4  10  24  42  58  85 119 160 205 254 303 359
#     4   9  18  38  60  78 112 162 206 243 288 346
#     4   9  16  31  57  87 115 151 194 235 287 370
#     4  10  23  35  55  89 121 154 199 248 297 353
#
# _framework density 19.475718000000001
#
# number of rings (size 3 to 8) (size 9 to 14) (size 15 to 20)
#    0.000    2.000    1.429    1.714    6.000    2.286 
#    0.000    2.857    3.143    1.714    0.000    8.000 
#    0.000    0.000    0.000    0.000    0.000    0.000 
#
# Total GULP energy -693780.975815 kJ/mol
# GULP energy per Si atom -12388.945997 kJ/mol
# Density = 1.943139 g / cm^3
# Si number density = 19.475718 Si / 1000 Ang^3
#
#
#
# Elastic Constant Matrix: (Units=GPa)
#
#
# Indices 1 2 3 4 5 6 
#
# 1 93.2478 56.5927 48.3803 0.0000 0.0000 0.0000
# 2 56.5927 93.2478 48.3803 0.0000 0.0000 0.0000
# 3 48.3803 48.3803 140.3756 0.0000 0.0000 0.0000
# 4 0.0000 0.0000 0.0000 24.6457 0.0000 0.0000
# 5 0.0000 0.0000 0.0000 0.0000 24.6457 0.0000
# 6 0.0000 0.0000 0.0000 0.0000 0.0000 28.4683
#
#
#
# Elastic Compliance Matrix: (Units=1/GPa)
#
#
# Indices 1 2 3 4 5 6 
#
# 1 0.017933 -0.009349 -0.002959 0.000000 0.000000 0.000000
# 2 -0.009349 0.017933 -0.002959 0.000000 0.000000 0.000000
# 3 -0.002959 -0.002959 0.009163 0.000000 0.000000 0.000000
# 4 0.000000 0.000000 0.000000 0.040575 0.000000 0.000000
# 5 0.000000 0.000000 0.000000 0.000000 0.040575 0.000000
# 6 0.000000 0.000000 0.000000 0.000000 0.000000 0.035127
#
#
# Mechanical properties :
#
#
# Convention : Reuss Voigt Hill
#
# Bulk Modulus (GPa) = 68.97800 70.39756 69.68778
# Shear Modulus (GPa) = 25.42338 27.11980 26.27159
#
# Velocity S-wave (km/s) = 3.61694 3.73566 3.67678
# Velocity P-wave (km/s) = 7.27580 7.40484 7.34061
#
# Compressibility (1/GPa) = 0.01449738
#
# Stress axis : x y z
#
# Youngs Moduli (GPa) = 55.76368 55.76368 109.13364
#
# Poissons Ratio (x) = 0.52131 0.32288
# Poissons Ratio (y) = 0.52131 0.32288
# Poissons Ratio (z) = 0.16498 0.16498
#
# Static dielectric constant tensor:
#      x y z
#    x 3.679120 0.000000 0.000000 
#    y 0.000000 3.679120 0.000000 
#    z 0.000000 0.000000 3.616450 
# 
# 
# High freq. dielectric constant tensor:
#      x y z
#    x 1.749670 0.000000 0.000000 
#    y 0.000000 1.749670 0.000000 
#    z 0.000000 0.000000 1.773250 
# 
# From -- ./inp_files/1332.got.cif
#   From: 2010.03.12/outbox.cif.g09.slc.cpg/sg131_1_cif.got.tgz:1332.got - 2010.04.06 17:36:35.
