data_PCOD8316749
_publ_section_title
;
Structure prediction by ZEFSAII (Michael W. Deem and Ramdas Pophale) SiO2 
 PCOD8316749
Probable space group: P 42/M C M
;
_chemical_formula_sum "Si O2"
_cell_formula_units_Z 80
_cell_length_a 12.078273
_cell_length_b 12.078273
_cell_length_c 28.808677
_cell_angle_alpha 90.000000
_cell_angle_beta 90.000000
_cell_angle_gamma 90.000000
_cell_volume 4202.744587
_symmetry_space_group_name_H-M "P 42/M C M"
_symmetry_group_IT_number 132
_symmetry_cell_setting 'tetragonal'
loop_
_space_group_symop_operation_xyz
x,y,z
-y,x,1/2+z
-x,-y,z
y,-x,1/2+z
x,-y,1/2-z
-x,y,1/2-z
y,x,-z
-y,-x,-z
-x,-y,-z
y,-x,1/2-z
x,y,-z
-y,x,1/2-z
-x,y,1/2+z
x,-y,1/2+z
-y,-x,z
y,x,z
loop_
_atom_site_type_symbol
_atom_site_label
_atom_site_fract_x
_atom_site_fract_y
_atom_site_fract_z
Si Si1 0.685835 0.133248 0.446644
Si Si2 0.873145 0.486152 0.120300
Si Si3 0.418528 0.764782 0.292732
Si Si4 0.058284 0.765690 0.703514
Si Si5 0.070373 0.749548 0.110930
O O1 0.665232 0.103025 0.500000
O O2 0.754356 0.245645 0.440843
O O3 0.568056 0.150586 0.422329
O O4 0.754621 0.034180 0.423150
O O5 0.785930 0.509968 0.161096
O O6 0.856527 0.360815 0.102199
O O7 0.000000 0.500000 0.137820
O O8 0.500000 0.745721 0.250000
O O9 0.344318 0.655683 0.299655
O O10 0.343946 0.872803 0.283963
O O11 0.139226 0.860775 0.684378
O O12 0.000000 0.807747 0.750000
O O13 0.967699 0.743517 0.664372
O O14 0.142719 0.857282 0.100869
#
# Coordination Sequence:
#
# PCOD8316749 Si02
#       5
#    16  16  16  16  16
#     4  10  21  39  64  91 117 154 202 248 297 352
#     4  10  20  37  61  82 115 156 200 242 286 344
#     4  11  23  37  57  83 114 153 199 246 295 347
#     4  11  22  35  53  79 114 157 200 239 286 350
#     4  11  23  37  57  89 122 154 193 242 301 360
#
# _framework density 19.03518
#
# number of rings (size 3 to 8) (size 9 to 14) (size 15 to 20)
#    0.000    1.400    4.000    3.000    0.000    9.200 
#    0.000    1.000    0.000    1.800    0.000    1.400 
#    0.000    0.000    0.000    0.000    0.000    0.000 
#
# Total GULP energy -992233.062479 kJ/mol
# GULP energy per Si atom -12402.913281 kJ/mol
# Density = 1.899186 g / cm^3
# Si number density = 19.035180 Si / 1000 Ang^3
#
#
#
# Elastic Constant Matrix: (Units=GPa)
#
#
# Indices 1 2 3 4 5 6 
#
# 1 74.4803 31.2578 37.2309 0.0000 0.0000 0.0000
# 2 31.2578 74.4803 37.2309 0.0000 0.0000 0.0000
# 3 37.2309 37.2309 137.1748 0.0000 0.0000 0.0000
# 4 0.0000 0.0000 0.0000 19.6842 0.0000 0.0000
# 5 0.0000 0.0000 0.0000 0.0000 19.6842 0.0000
# 6 0.0000 0.0000 0.0000 0.0000 0.0000 27.5248
#
#
#
# Elastic Compliance Matrix: (Units=1/GPa)
#
#
# Indices 1 2 3 4 5 6 
#
# 1 0.017414 -0.005722 -0.003173 0.000000 0.000000 0.000000
# 2 -0.005722 0.017414 -0.003173 0.000000 0.000000 0.000000
# 3 -0.003173 -0.003173 0.009013 0.000000 0.000000 0.000000
# 4 0.000000 0.000000 0.000000 0.050802 0.000000 0.000000
# 5 0.000000 0.000000 0.000000 0.000000 0.050802 0.000000
# 6 0.000000 0.000000 0.000000 0.000000 0.000000 0.036331
#
#
# Mechanical properties :
#
#
# Convention : Reuss Voigt Hill
#
# Bulk Modulus (GPa) = 50.75321 55.28606 53.01963
# Shear Modulus (GPa) = 23.53151 25.40637 24.46894
#
# Velocity S-wave (km/s) = 3.51979 3.65733 3.58922
# Velocity P-wave (km/s) = 6.57566 6.85142 6.71495
#
# Compressibility (1/GPa) = 0.01970319
#
# Stress axis : x y z
#
# Youngs Moduli (GPa) = 57.42486 57.42486 110.95637
#
# Poissons Ratio (x) = 0.32859 0.35211
# Poissons Ratio (y) = 0.32859 0.35211
# Poissons Ratio (z) = 0.18223 0.18223
#
# Static dielectric constant tensor:
#      x y z
#    x 3.530590 0.000000 0.000000 
#    y 0.000000 3.530590 0.000000 
#    z 0.000000 0.000000 3.416140 
# 
# 
# High freq. dielectric constant tensor:
#      x y z
#    x 1.736600 0.000000 0.000000 
#    y 0.000000 1.736600 0.000000 
#    z 0.000000 0.000000 1.736200 
# 
# From -- ./inp_files/10591.got.cif
#   From: 2010.03.12/outbox.cif.g09.slc.cpg/sg132_6_cif.got.tgz:10591.got - 2010.04.06 17:53:44.
