data_PCOD8316274
_publ_section_title
;
Structure prediction by ZEFSAII (Michael W. Deem and Ramdas Pophale) SiO2 
 PCOD8316274
Probable space group: P 42/M M C
;
_chemical_formula_sum "Si O2"
_cell_formula_units_Z 64
_cell_length_a 14.449189
_cell_length_b 14.449189
_cell_length_c 14.466461
_cell_angle_alpha 90.000000
_cell_angle_beta 90.000000
_cell_angle_gamma 90.000000
_cell_volume 3020.294169
_symmetry_space_group_name_H-M "P 42/M M C"
_symmetry_group_IT_number 131
_symmetry_cell_setting 'tetragonal'
loop_
_space_group_symop_operation_xyz
x,y,z
-x,-y,z
-y,x,1/2+z
y,-x,1/2+z
-x,y,-z
x,-y,-z
y,x,1/2-z
-y,-x,1/2-z
-x,-y,-z
x,y,-z
y,-x,1/2-z
-y,x,1/2-z
x,-y,z
-x,y,z
-y,-x,1/2+z
y,x,1/2+z
loop_
_atom_site_type_symbol
_atom_site_label
_atom_site_fract_x
_atom_site_fract_y
_atom_site_fract_z
Si Si1 0.145883 0.901191 0.393611
Si Si2 0.703446 0.102735 0.107854
Si Si3 0.896671 0.363455 0.895185
Si Si4 0.757607 0.396810 0.261423
O O1 0.116068 0.903146 0.500000
O O2 0.102849 0.808225 0.348597
O O3 0.254659 0.892971 0.382756
O O4 0.112328 0.000000 0.349133
O O5 0.639561 0.177299 0.156717
O O6 0.662114 0.000000 0.122990
O O7 0.707075 0.129514 0.000000
O O8 0.818087 0.406734 0.831240
O O9 0.000000 0.398858 0.868258
O O10 0.874145 0.392713 0.000000
O O11 0.668986 0.331015 0.250000
O O12 0.722417 0.500000 0.287026
#
# Coordination Sequence:
#
# PCOD8316274 Si02
#       4
#    16  16  16  16
#     4   8  14  28  54  87 122 160 197 231 274 337
#     4  10  21  38  62  93 129 167 203 238 287 360
#     4   9  18  36  64  94 121 150 190 243 301 359
#     4  12  26  43  64  87 115 155 204 258 313 365
#
# _framework density 21.189990000000002
#
# number of rings (size 3 to 8) (size 9 to 14) (size 15 to 20)
#    0.000    2.250    2.500    2.250    0.000    3.750 
#    0.000    5.000    0.000    0.000    0.000    3.500 
#    0.000    0.000    0.000    0.000    0.000    0.000 
#
# Total GULP energy -793008.180374 kJ/mol
# GULP energy per Si atom -12390.752818 kJ/mol
# Density = 2.114176 g / cm^3
# Si number density = 21.189990 Si / 1000 Ang^3
#
#
#
# Elastic Constant Matrix: (Units=GPa)
#
#
# Indices 1 2 3 4 5 6 
#
# 1 142.9892 63.9231 45.4394 0.0000 0.0000 0.0000
# 2 63.9231 142.9897 45.4395 0.0000 0.0000 0.0000
# 3 45.4394 45.4395 66.4487 0.0000 0.0000 0.0000
# 4 0.0000 0.0000 0.0000 13.9392 0.0000 0.0000
# 5 0.0000 0.0000 0.0000 0.0000 13.9400 0.0000
# 6 0.0000 0.0000 0.0000 0.0000 0.0000 -2.1028
#
#
#
# Elastic Compliance Matrix: (Units=1/GPa)
#
#
# Indices 1 2 3 4 5 6 
#
# 1 0.009778 -0.002870 -0.004724 0.000000 0.000000 0.000000
# 2 -0.002870 0.009778 -0.004724 0.000000 0.000000 0.000000
# 3 -0.004724 -0.004724 0.021510 0.000000 0.000000 0.000000
# 4 0.000000 0.000000 0.000000 0.071740 0.000000 0.000000
# 5 0.000000 0.000000 0.000000 0.000000 0.071736 0.000000
# 6 0.000000 0.000000 0.000000 0.000000 0.000000 -0.475547
#
#
# Mechanical properties :
#
#
# Convention : Reuss Voigt Hill
#
# Bulk Modulus (GPa) = 60.86332 73.55905 67.21119
# Shear Modulus (GPa) = -19.16482 18.33033 -0.41725
#
# Velocity S-wave (km/s) = -3.01063 2.94436 -0.44422
# Velocity P-wave (km/s) = 4.08654 6.80797 5.61463
#
# Compressibility (1/GPa) = 0.01643026
#
# Stress axis : x y z
#
# Youngs Moduli (GPa) = 102.27407 102.27456 46.49102
#
# Poissons Ratio (x) = 0.29353 0.21961
# Poissons Ratio (y) = 0.29352 0.21961
# Poissons Ratio (z) = 0.48311 0.48311
#
# Static dielectric constant tensor:
#      x y z
#    x 3.781400 0.000000 0.000000 
#    y 0.000000 3.781410 0.000000 
#    z 0.000000 0.000000 3.727680 
# 
# 
# High freq. dielectric constant tensor:
#      x y z
#    x 1.819980 0.000000 0.000000 
#    y 0.000000 1.819980 0.000000 
#    z 0.000000 0.000000 1.817470 
# 
# From -- ./inp_files/5435.got.cif
#   From: 2010.03.12/outbox.cif.g09.slc.cpg/sg131_3_cif.got.tgz:5435.got - 2010.04.06 17:36:35.
