data_PCOD8316878
_publ_section_title
;
Structure prediction by ZEFSAII (Michael W. Deem and Ramdas Pophale) SiO2 
 PCOD8316878
Probable space group: P 42/M C M
;
_chemical_formula_sum "Si O2"
_cell_formula_units_Z 104
_cell_length_a 14.656284
_cell_length_b 14.656284
_cell_length_c 30.279135
_cell_angle_alpha 90.000000
_cell_angle_beta 90.000000
_cell_angle_gamma 90.000000
_cell_volume 6504.159878
_symmetry_space_group_name_H-M "P 42/M C M"
_symmetry_group_IT_number 132
_symmetry_cell_setting 'tetragonal'
loop_
_space_group_symop_operation_xyz
x,y,z
-y,x,1/2+z
-x,-y,z
y,-x,1/2+z
x,-y,1/2-z
-x,y,1/2-z
y,x,-z
-y,-x,-z
-x,-y,-z
y,-x,1/2-z
x,y,-z
-y,x,1/2-z
-x,y,1/2+z
x,-y,1/2+z
-y,-x,z
y,x,z
loop_
_atom_site_type_symbol
_atom_site_label
_atom_site_fract_x
_atom_site_fract_y
_atom_site_fract_z
Si Si1 0.406766 0.886707 0.373096
Si Si2 0.572240 0.572240 0.947269
Si Si3 0.774003 0.450827 0.549025
Si Si4 0.613987 0.237816 0.201965
Si Si5 0.377794 0.088818 0.632319
Si Si6 0.336788 0.188488 0.451659
Si Si7 0.595397 0.743207 0.802174
O O1 0.389902 0.843327 0.421625
O O2 0.514640 0.899982 0.371858
O O3 0.368174 0.818216 0.336336
O O4 0.354269 0.981597 0.364193
O O5 0.500000 0.500000 0.927010
O O6 0.673335 0.551111 0.929893
O O7 0.567502 0.567502 0.000000
O O8 0.777314 0.407745 0.500000
O O9 0.796893 0.556290 0.547342
O O10 0.679812 0.320188 0.188517
O O11 0.648124 0.147398 0.175819
O O12 0.512200 0.271316 0.189531
O O13 0.617248 0.215919 0.253907
O O14 0.319201 0.121717 0.589668
O O15 0.307864 0.147243 0.500000
O O16 0.283356 0.283356 0.443767
O O17 0.646930 0.646930 0.809127
#
# Coordination Sequence:
#
# PCOD8316878 Si02
#       7
#    16   8  16  16  16  16  16
#     4   9  18  29  42  59  84 116 150 188 219 256
#     4   9  16  26  40  58  82 118 161 193 215 245
#     4   9  17  27  40  58  84 119 154 185 219 258
#     4   9  17  30  47  66  87 114 148 182 218 262
#     4   9  17  29  43  60  83 114 150 186 221 256
#     4   9  16  26  41  61  85 111 140 180 226 263
#     4   9  18  30  45  64  89 118 145 179 218 258
#
# _framework density 15.989768
#
# number of rings (size 3 to 8) (size 9 to 14) (size 15 to 20)
#    0.000    3.000    0.000    0.923    1.077    3.385 
#    0.000    8.462    0.000    0.000    0.000    0.000 
#    0.000    2.462    0.000    8.462    0.000    0.769 
#
# Total GULP energy -1288487.687834 kJ/mol
# GULP energy per Si atom -12389.304691 kJ/mol
# Density = 1.595337 g / cm^3
# Si number density = 15.989768 Si / 1000 Ang^3
#
#
#
# Elastic Constant Matrix: (Units=GPa)
#
#
# Indices 1 2 3 4 5 6 
#
# 1 -44.7970 148.3772 47.7912 0.0000 0.0000 0.0000
# 2 148.3772 -44.7970 47.7912 0.0000 0.0000 0.0000
# 3 47.7912 47.7912 104.0402 0.0000 0.0000 0.0000
# 4 0.0000 0.0000 0.0000 18.9948 0.0000 0.0000
# 5 0.0000 0.0000 0.0000 0.0000 18.9948 0.0000
# 6 0.0000 0.0000 0.0000 0.0000 0.0000 7.9881
#
#
#
# Elastic Compliance Matrix: (Units=1/GPa)
#
#
# Indices 1 2 3 4 5 6 
#
# 1 0.005791 0.010967 -0.007698 0.000000 0.000000 0.000000
# 2 0.010967 0.005791 -0.007698 0.000000 0.000000 0.000000
# 3 -0.007698 -0.007698 0.016684 0.000000 0.000000 0.000000
# 4 0.000000 0.000000 0.000000 0.052646 0.000000 0.000000
# 5 0.000000 0.000000 0.000000 0.000000 0.052646 0.000000
# 6 0.000000 0.000000 0.000000 0.000000 0.000000 0.125186
#
#
# Mechanical properties :
#
#
# Convention : Reuss Voigt Hill
#
# Bulk Modulus (GPa) = 51.52466 55.81837 53.67151
# Shear Modulus (GPa) = 18.24362 -6.10535 6.06914
#
# Velocity S-wave (km/s) = 3.38147 -1.95616 1.95035
# Velocity P-wave (km/s) = 6.89487 5.46649 6.22181
#
# Compressibility (1/GPa) = 0.01940818
#
# Stress axis : x y z
#
# Youngs Moduli (GPa) = 172.69640 172.69640 59.93914
#
# Poissons Ratio (x) = -1.89399 0.46139
# Poissons Ratio (y) = -1.89399 0.46139
# Poissons Ratio (z) = 1.32936 1.32936
#
# Static dielectric constant tensor:
#      x y z
#    x 2.919720 0.000000 0.000000 
#    y 0.000000 2.919720 0.000000 
#    z 0.000000 0.000000 3.407870 
# 
# 
# High freq. dielectric constant tensor:
#      x y z
#    x 1.579370 0.000000 0.000000 
#    y 0.000000 1.579370 0.000000 
#    z 0.000000 0.000000 1.629070 
# 
# From -- ./inp_files/11026.got.cif
#   From: 2010.03.12/outbox.cif.g09.slc.cpg/sg132_6_cif.got.tgz:11026.got - 2010.04.06 17:53:44.
