data_PCOD8316600
_publ_section_title
;
Structure prediction by ZEFSAII (Michael W. Deem and Ramdas Pophale) SiO2 
 PCOD8316600
Probable space group: P 42/M C M
;
_chemical_formula_sum "Si O2"
_cell_formula_units_Z 48
_cell_length_a 13.563904
_cell_length_b 13.563904
_cell_length_c 14.887946
_cell_angle_alpha 90.000000
_cell_angle_beta 90.000000
_cell_angle_gamma 90.000000
_cell_volume 2739.076738
_symmetry_space_group_name_H-M "P 42/M C M"
_symmetry_group_IT_number 132
_symmetry_cell_setting 'tetragonal'
loop_
_space_group_symop_operation_xyz
x,y,z
-y,x,1/2+z
-x,-y,z
y,-x,1/2+z
x,-y,1/2-z
-x,y,1/2-z
y,x,-z
-y,-x,-z
-x,-y,-z
y,-x,1/2-z
x,y,-z
-y,x,1/2-z
-x,y,1/2+z
x,-y,1/2+z
-y,-x,z
y,x,z
loop_
_atom_site_type_symbol
_atom_site_label
_atom_site_fract_x
_atom_site_fract_y
_atom_site_fract_z
Si Si1 0.945975 0.601900 0.896799
Si Si2 0.766114 0.609687 0.762817
Si Si3 0.287429 0.864843 0.101657
O O1 0.852779 0.618431 0.834799
O O2 0.000000 0.500000 0.869729
O O3 0.018975 0.695652 0.879345
O O4 0.911363 0.597934 0.000000
O O5 0.726001 0.500000 0.750000
O O6 0.676972 0.676972 0.797860
O O7 0.802432 0.642335 0.665261
O O8 0.173264 0.826737 0.114799
O O9 0.322699 0.843066 0.000000
#
# Coordination Sequence:
#
# PCOD8316600 Si02
#       3
#    16  16  16
#     4  10  19  33  56  80 104 138 180 229 275 322
#     4  11  22  34  52  77 108 145 182 227 272 320
#     4   9  18  32  52  79 107 137 174 215 269 331
#
# _framework density 17.524152999999998
#
# number of rings (size 3 to 8) (size 9 to 14) (size 15 to 20)
#    0.000    2.000    3.333    1.000    0.000    1.000 
#    0.000    0.000    0.000    1.000    0.000   16.333 
#    0.000    0.000    0.000    0.000    0.000    0.000 
#
# Total GULP energy -594884.276483 kJ/mol
# GULP energy per Si atom -12393.422427 kJ/mol
# Density = 1.748427 g / cm^3
# Si number density = 17.524153 Si / 1000 Ang^3
#
#
#
# Elastic Constant Matrix: (Units=GPa)
#
#
# Indices 1 2 3 4 5 6 
#
# 1 125.5116 83.5359 55.1950 0.0000 0.0000 0.0000
# 2 83.5359 125.5116 55.1950 0.0000 0.0000 0.0000
# 3 55.1950 55.1950 81.7122 0.0000 0.0000 0.0000
# 4 0.0000 0.0000 0.0000 17.2877 0.0000 0.0000
# 5 0.0000 0.0000 0.0000 0.0000 17.2877 0.0000
# 6 0.0000 0.0000 0.0000 0.0000 0.0000 33.9813
#
#
#
# Elastic Compliance Matrix: (Units=1/GPa)
#
#
# Indices 1 2 3 4 5 6 
#
# 1 0.015630 -0.008194 -0.005023 0.000000 0.000000 0.000000
# 2 -0.008194 0.015630 -0.005023 0.000000 0.000000 0.000000
# 3 -0.005023 -0.005023 0.019024 0.000000 0.000000 0.000000
# 4 0.000000 0.000000 0.000000 0.057845 0.000000 0.000000
# 5 0.000000 0.000000 0.000000 0.000000 0.057845 0.000000
# 6 0.000000 0.000000 0.000000 0.000000 0.000000 0.029428
#
#
# Mechanical properties :
#
#
# Convention : Reuss Voigt Hill
#
# Bulk Modulus (GPa) = 72.44127 80.06522 76.25325
# Shear Modulus (GPa) = 21.14338 22.96529 22.05433
#
# Velocity S-wave (km/s) = 3.47728 3.62400 3.55140
# Velocity P-wave (km/s) = 7.58615 7.95606 7.77330
#
# Compressibility (1/GPa) = 0.01380429
#
# Stress axis : x y z
#
# Youngs Moduli (GPa) = 63.98100 63.98100 52.56589
#
# Poissons Ratio (x) = 0.52424 0.26403
# Poissons Ratio (y) = 0.52424 0.26403
# Poissons Ratio (z) = 0.32137 0.32137
#
# Static dielectric constant tensor:
#      x y z
#    x 3.424810 0.000000 0.000000 
#    y 0.000000 3.424810 0.000000 
#    z 0.000000 0.000000 3.409190 
# 
# 
# High freq. dielectric constant tensor:
#      x y z
#    x 1.659640 0.000000 0.000000 
#    y 0.000000 1.659640 0.000000 
#    z 0.000000 0.000000 1.695750 
# 
# From -- ./inp_files/2749.got.cif
#   From: 2010.03.12/outbox.cif.g09.slc.cpg/sg132_2_cif.got.tgz:2749.got - 2010.04.06 17:53:44.
