data_PCOD8316435
_publ_section_title
;
Structure prediction by ZEFSAII (Michael W. Deem and Ramdas Pophale) SiO2 
 PCOD8316435
Probable space group: P 42/M C M
;
_chemical_formula_sum "Si O2"
_cell_formula_units_Z 96
_cell_length_a 19.035097
_cell_length_b 19.035097
_cell_length_c 17.635443
_cell_angle_alpha 90.000000
_cell_angle_beta 90.000000
_cell_angle_gamma 90.000000
_cell_volume 6389.936790
_symmetry_space_group_name_H-M "P 42/M C M"
_symmetry_group_IT_number 132
_symmetry_cell_setting 'tetragonal'
loop_
_space_group_symop_operation_xyz
x,y,z
-y,x,1/2+z
-x,-y,z
y,-x,1/2+z
x,-y,1/2-z
-x,y,1/2-z
y,x,-z
-y,-x,-z
-x,-y,-z
y,-x,1/2-z
x,y,-z
-y,x,1/2-z
-x,y,1/2+z
x,-y,1/2+z
-y,-x,z
y,x,z
loop_
_atom_site_type_symbol
_atom_site_label
_atom_site_fract_x
_atom_site_fract_y
_atom_site_fract_z
Si Si1 0.351185 0.239260 0.914833
Si Si2 0.803161 0.922020 0.237745
Si Si3 0.757622 0.125133 0.581312
Si Si4 0.924586 0.650726 0.713984
Si Si5 0.539854 0.073122 0.087716
Si Si6 0.173103 0.552598 0.311679
O O1 0.296570 0.296570 0.885261
O O2 0.318853 0.160432 0.910861
O O3 0.415737 0.239564 0.856636
O O4 0.376117 0.256484 0.000000
O O5 0.862892 0.862892 0.252154
O O6 0.775487 0.925320 0.150897
O O7 0.734797 0.907186 0.290797
O O8 0.835274 0.000000 0.250000
O O9 0.761516 0.084033 0.500000
O O10 0.811152 0.188849 0.579388
O O11 0.925789 0.615389 0.630503
O O12 0.869199 0.613260 0.768371
O O13 0.000000 0.639166 0.750000
O O14 0.487904 0.127681 0.126383
O O15 0.500000 0.000000 0.095502
O O16 0.553593 0.092746 0.000000
O O17 0.204894 0.500000 0.250000
#
# Coordination Sequence:
#
# PCOD8316435 Si02
#       6
#    16  16  16  16  16  16
#     4   9  16  27  43  65  92 119 150 188 228 267
#     4  10  20  33  49  68  88 116 156 201 249 290
#     4   8  14  26  45  66  84 104 138 184 231 280
#     4  10  18  30  43  61  87 117 149 185 225 281
#     4  10  19  29  43  63  90 122 151 180 220 273
#     4  10  18  26  42  63  93 122 149 182 221 275
#
# _framework density 15.023622
#
# number of rings (size 3 to 8) (size 9 to 14) (size 15 to 20)
#    0.000    2.500    3.333    1.500    0.000    0.167 
#    0.000    3.333    0.000    2.000    0.000    2.333 
#    0.000    2.333    0.000    1.833    0.000    1.833 
#
# Total GULP energy -1189447.461380 kJ/mol
# GULP energy per Si atom -12390.077723 kJ/mol
# Density = 1.498943 g / cm^3
# Si number density = 15.023622 Si / 1000 Ang^3
#
#
#
# Elastic Constant Matrix: (Units=GPa)
#
#
# Indices 1 2 3 4 5 6 
#
# 1 71.3570 34.4609 42.9187 0.0000 0.0000 0.0000
# 2 34.4609 71.3570 42.9187 0.0000 0.0000 0.0000
# 3 42.9187 42.9187 110.3207 0.0000 0.0000 0.0000
# 4 0.0000 0.0000 0.0000 15.7571 0.0000 0.0000
# 5 0.0000 0.0000 0.0000 0.0000 15.7571 0.0000
# 6 0.0000 0.0000 0.0000 0.0000 0.0000 47.1258
#
#
#
# Elastic Compliance Matrix: (Units=1/GPa)
#
#
# Indices 1 2 3 4 5 6 
#
# 1 0.020455 -0.006648 -0.005372 0.000000 0.000000 0.000000
# 2 -0.006648 0.020455 -0.005372 0.000000 0.000000 0.000000
# 3 -0.005372 -0.005372 0.013244 0.000000 0.000000 0.000000
# 4 0.000000 0.000000 0.000000 0.063464 0.000000 0.000000
# 5 0.000000 0.000000 0.000000 0.000000 0.063464 0.000000
# 6 0.000000 0.000000 0.000000 0.000000 0.000000 0.021220
#
#
# Mechanical properties :
#
#
# Convention : Reuss Voigt Hill
#
# Bulk Modulus (GPa) = 51.61934 54.84792 53.23363
# Shear Modulus (GPa) = 20.53042 24.57710 22.55376
#
# Velocity S-wave (km/s) = 3.70069 4.04901 3.87876
# Velocity P-wave (km/s) = 7.25903 7.64502 7.45452
#
# Compressibility (1/GPa) = 0.01937258
#
# Stress axis : x y z
#
# Youngs Moduli (GPa) = 48.88702 48.88702 75.50591
#
# Poissons Ratio (x) = 0.32499 0.40559
# Poissons Ratio (y) = 0.32499 0.40559
# Poissons Ratio (z) = 0.26260 0.26260
#
# Static dielectric constant tensor:
#      x y z
#    x 2.778250 0.000000 0.000000 
#    y 0.000000 2.778250 0.000000 
#    z 0.000000 0.000000 3.559340 
# 
# 
# High freq. dielectric constant tensor:
#      x y z
#    x 1.549150 0.000000 0.000000 
#    y 0.000000 1.549150 0.000000 
#    z 0.000000 0.000000 1.583160 
# 
# From -- ./inp_files/6472.got.cif
#   From: 2010.03.12/outbox.cif.g09.slc.cpg/sg132_4_cif.got.tgz:6472.got - 2010.04.06 17:53:44.
