data_PCOD8316076
_publ_section_title
;
Structure prediction by ZEFSAII (Michael W. Deem and Ramdas Pophale) SiO2 
 PCOD8316076
Probable space group: P 42/M M C
;
_chemical_formula_sum "Si O2"
_cell_formula_units_Z 96
_cell_length_a 14.697710
_cell_length_b 14.697710
_cell_length_c 24.439377
_cell_angle_alpha 90.000000
_cell_angle_beta 90.000000
_cell_angle_gamma 90.000000
_cell_volume 5279.459699
_symmetry_space_group_name_H-M "P 42/M M C"
_symmetry_group_IT_number 131
_symmetry_cell_setting 'tetragonal'
loop_
_space_group_symop_operation_xyz
x,y,z
-x,-y,z
-y,x,1/2+z
y,-x,1/2+z
-x,y,-z
x,-y,-z
y,x,1/2-z
-y,-x,1/2-z
-x,-y,-z
x,y,-z
y,-x,1/2-z
-y,x,1/2-z
x,-y,z
-x,y,z
-y,-x,1/2+z
y,x,1/2+z
loop_
_atom_site_type_symbol
_atom_site_label
_atom_site_fract_x
_atom_site_fract_y
_atom_site_fract_z
Si Si1 0.892684 0.757873 0.657584
Si Si2 0.891971 0.600355 0.263590
Si Si3 0.602019 0.745050 0.562629
Si Si4 0.793010 0.679775 0.563289
Si Si5 0.099693 0.392548 0.855529
Si Si6 0.102381 0.500000 0.435566
Si Si7 0.104639 0.895362 0.250000
O O1 0.859024 0.668319 0.689776
O O2 0.836364 0.760082 0.600684
O O3 0.864792 0.843391 0.695080
O O4 0.000000 0.757119 0.644610
O O5 0.851534 0.500000 0.276393
O O6 0.860649 0.637826 0.203832
O O7 0.000000 0.595779 0.261598
O O8 0.598178 0.776534 0.500000
O O9 0.500000 0.709504 0.580200
O O10 0.682765 0.670744 0.570893
O O11 0.635437 0.831768 0.596803
O O12 0.816015 0.701402 0.500000
O O13 0.841210 0.587532 0.583545
O O14 0.089047 0.500000 0.853235
O O15 0.000000 0.349047 0.867380
O O16 0.092337 0.500000 0.500000
O O17 0.000000 0.500000 0.409205
O O18 0.000000 0.874664 0.237357
#
# Coordination Sequence:
#
# PCOD8316076 Si02
#       7
#    16  16  16  16  16   8   8
#     4  10  20  32  52  76  99 133 168 211 264 310
#     4   8  15  27  44  71 102 126 154 197 251 307
#     4   9  18  32  48  68  99 138 177 216 253 297
#     4  10  21  35  52  77 104 131 167 207 258 324
#     4   8  14  26  45  69  99 134 168 206 251 296
#     4   9  18  34  55  77 103 131 158 202 266 330
#     4   9  20  38  54  72 100 138 185 222 252 302
#
# _framework density 18.183678
#
# number of rings (size 3 to 8) (size 9 to 14) (size 15 to 20)
#    0.000    3.000    0.000    1.500    3.500    1.333 
#    0.000    2.083    0.000    4.000    0.000    2.333 
#    0.000    0.000    0.000    0.000    0.000    0.000 
#
# Total GULP energy -1189463.800908 kJ/mol
# GULP energy per Si atom -12390.247926 kJ/mol
# Density = 1.814229 g / cm^3
# Si number density = 18.183678 Si / 1000 Ang^3
#
#
#
# Elastic Constant Matrix: (Units=GPa)
#
#
# Indices 1 2 3 4 5 6 
#
# 1 81.5104 43.7635 42.1215 0.0000 0.0000 0.0000
# 2 43.7635 81.5113 42.1215 0.0000 0.0000 0.0000
# 3 42.1215 42.1215 91.9485 0.0000 0.0000 0.0000
# 4 0.0000 0.0000 0.0000 21.9485 0.0000 0.0000
# 5 0.0000 0.0000 0.0000 0.0000 21.9486 0.0000
# 6 0.0000 0.0000 0.0000 0.0000 0.0000 21.7462
#
#
#
# Elastic Compliance Matrix: (Units=1/GPa)
#
#
# Indices 1 2 3 4 5 6 
#
# 1 0.019014 -0.007478 -0.005285 0.000000 0.000000 0.000000
# 2 -0.007478 0.019014 -0.005285 0.000000 0.000000 0.000000
# 3 -0.005285 -0.005285 0.015718 0.000000 0.000000 0.000000
# 4 0.000000 0.000000 0.000000 0.045561 0.000000 0.000000
# 5 0.000000 0.000000 0.000000 0.000000 0.045561 0.000000
# 6 0.000000 0.000000 0.000000 0.000000 0.000000 0.045985
#
#
# Mechanical properties :
#
#
# Convention : Reuss Voigt Hill
#
# Bulk Modulus (GPa) = 56.65374 56.77594 56.71484
# Shear Modulus (GPa) = 21.47477 21.59291 21.53384
#
# Velocity S-wave (km/s) = 3.44028 3.44973 3.44501
# Velocity P-wave (km/s) = 6.85600 6.86723 6.86162
#
# Compressibility (1/GPa) = 0.01765109
#
# Stress axis : x y z
#
# Youngs Moduli (GPa) = 52.59212 52.59286 63.62313
#
# Poissons Ratio (x) = 0.39328 0.33624
# Poissons Ratio (y) = 0.39327 0.33623
# Poissons Ratio (z) = 0.27794 0.27794
#
# Static dielectric constant tensor:
#      x y z
#    x 3.440150 0.000000 0.000000 
#    y 0.000000 3.440120 0.000000 
#    z 0.000000 0.000000 3.540490 
# 
# 
# High freq. dielectric constant tensor:
#      x y z
#    x 1.681970 0.000000 0.000000 
#    y 0.000000 1.681970 0.000000 
#    z 0.000000 0.000000 1.711380 
# 
# From -- ./inp_files/12360.got.cif
#   From: 2010.03.12/outbox.cif.g09.slc.cpg/sg131_7_cif.got.tgz:12360.got - 2010.04.06 17:36:35.
