data_PCOD8316657
_publ_section_title
;
Structure prediction by ZEFSAII (Michael W. Deem and Ramdas Pophale) SiO2 
 PCOD8316657
Probable space group: P 42/M C M
;
_chemical_formula_sum "Si O2"
_cell_formula_units_Z 72
_cell_length_a 14.789763
_cell_length_b 14.789763
_cell_length_c 17.453356
_cell_angle_alpha 90.000000
_cell_angle_beta 90.000000
_cell_angle_gamma 90.000000
_cell_volume 3817.696295
_symmetry_space_group_name_H-M "P 42/M C M"
_symmetry_group_IT_number 132
_symmetry_cell_setting 'tetragonal'
loop_
_space_group_symop_operation_xyz
x,y,z
-y,x,1/2+z
-x,-y,z
y,-x,1/2+z
x,-y,1/2-z
-x,y,1/2-z
y,x,-z
-y,-x,-z
-x,-y,-z
y,-x,1/2-z
x,y,-z
-y,x,1/2-z
-x,y,1/2+z
x,-y,1/2+z
-y,-x,z
y,x,z
loop_
_atom_site_type_symbol
_atom_site_label
_atom_site_fract_x
_atom_site_fract_y
_atom_site_fract_z
Si Si1 0.409767 0.737900 0.217558
Si Si2 0.141748 0.439208 0.586874
Si Si3 0.072928 0.072928 0.409054
Si Si4 0.987157 0.730366 0.586758
Si Si5 0.399889 0.079376 0.188971
O O1 0.500000 0.690037 0.250000
O O2 0.326288 0.673713 0.229427
O O3 0.424907 0.761669 0.128103
O O4 0.390818 0.829039 0.264247
O O5 0.157947 0.471536 0.500000
O O6 0.092467 0.342871 0.589493
O O7 0.083170 0.515269 0.630562
O O8 0.073528 0.073528 0.500000
O O9 0.173532 0.047318 0.379906
O O10 0.000000 0.000000 0.377732
O O11 0.023468 0.742359 0.500000
O O12 0.067009 0.692805 0.640922
O O13 0.415221 0.000000 0.250000
#
# Coordination Sequence:
#
# PCOD8316657 Si02
#       5
#    16  16   8  16  16
#     4  10  23  39  59  84 114 150 190 234 288 344
#     4  10  21  34  57  89 118 144 184 234 291 351
#     4   9  20  38  54  74 108 154 202 234 263 316
#     4  10  20  32  55  81 111 153 189 231 280 330
#     4  11  21  35  56  84 119 150 178 231 298 349
#
# _framework density 18.859542999999999
#
# number of rings (size 3 to 8) (size 9 to 14) (size 15 to 20)
#    0.000    1.889    2.222    1.333    7.778    3.333 
#    0.000    0.000    0.000   16.000    0.000    6.222 
#    0.000    0.000    0.000    0.000    0.000    0.000 
#
# Total GULP energy -892505.280001 kJ/mol
# GULP energy per Si atom -12395.906667 kJ/mol
# Density = 1.881662 g / cm^3
# Si number density = 18.859543 Si / 1000 Ang^3
#
#
#
# Elastic Constant Matrix: (Units=GPa)
#
#
# Indices 1 2 3 4 5 6 
#
# 1 116.5937 72.4813 54.6572 0.0000 0.0000 0.0000
# 2 72.4813 116.5937 54.6572 0.0000 0.0000 0.0000
# 3 54.6572 54.6572 124.7626 0.0000 0.0000 0.0000
# 4 0.0000 0.0000 0.0000 14.0705 0.0000 0.0000
# 5 0.0000 0.0000 0.0000 0.0000 14.0705 0.0000
# 6 0.0000 0.0000 0.0000 0.0000 0.0000 46.8363
#
#
#
# Elastic Compliance Matrix: (Units=1/GPa)
#
#
# Indices 1 2 3 4 5 6 
#
# 1 0.014876 -0.007793 -0.003103 0.000000 0.000000 0.000000
# 2 -0.007793 0.014876 -0.003103 0.000000 0.000000 0.000000
# 3 -0.003103 -0.003103 0.010734 0.000000 0.000000 0.000000
# 4 0.000000 0.000000 0.000000 0.071071 0.000000 0.000000
# 5 0.000000 0.000000 0.000000 0.000000 0.071071 0.000000
# 6 0.000000 0.000000 0.000000 0.000000 0.000000 0.021351
#
#
# Mechanical properties :
#
#
# Convention : Reuss Voigt Hill
#
# Bulk Modulus (GPa) = 80.07711 80.17129 80.12420
# Shear Modulus (GPa) = 21.17394 26.73909 23.95652
#
# Velocity S-wave (km/s) = 3.35433 3.76946 3.56794
# Velocity P-wave (km/s) = 7.58643 7.84519 7.71690
#
# Compressibility (1/GPa) = 0.01248796
#
# Stress axis : x y z
#
# Youngs Moduli (GPa) = 67.22185 67.22185 93.16232
#
# Poissons Ratio (x) = 0.52388 0.28908
# Poissons Ratio (y) = 0.52388 0.28908
# Poissons Ratio (z) = 0.20859 0.20859
#
# Static dielectric constant tensor:
#      x y z
#    x 3.492660 0.000000 0.000000 
#    y 0.000000 3.492660 0.000000 
#    z 0.000000 0.000000 3.869540 
# 
# 
# High freq. dielectric constant tensor:
#      x y z
#    x 1.717900 0.000000 0.000000 
#    y 0.000000 1.717900 0.000000 
#    z 0.000000 0.000000 1.738690 
# 
# From -- ./inp_files/6093.got.cif
#   From: 2010.03.12/outbox.cif.g09.slc.cpg/sg132_4_cif.got.tgz:6093.got - 2010.04.06 17:53:44.
