data_PCOD8316023
_publ_section_title
;
Structure prediction by ZEFSAII (Michael W. Deem and Ramdas Pophale) SiO2 
 PCOD8316023
Probable space group: P 42/M M C
;
_chemical_formula_sum "Si O2"
_cell_formula_units_Z 34
_cell_length_a 7.772199
_cell_length_b 7.772199
_cell_length_c 26.844007
_cell_angle_alpha 90.000000
_cell_angle_beta 90.000000
_cell_angle_gamma 90.000000
_cell_volume 1621.568006
_symmetry_space_group_name_H-M "P 42/M M C"
_symmetry_group_IT_number 131
_symmetry_cell_setting 'tetragonal'
loop_
_space_group_symop_operation_xyz
x,y,z
-x,-y,z
-y,x,1/2+z
y,-x,1/2+z
-x,y,-z
x,-y,-z
y,x,1/2-z
-y,-x,1/2-z
-x,-y,-z
x,y,-z
y,-x,1/2-z
-y,x,1/2-z
x,-y,z
-x,y,z
-y,-x,1/2+z
y,x,1/2+z
loop_
_atom_site_type_symbol
_atom_site_label
_atom_site_fract_x
_atom_site_fract_y
_atom_site_fract_z
Si Si1 0.500000 0.500000 0.250000
Si Si2 0.704143 0.692946 0.000000
Si Si3 0.193404 0.701770 0.606367
Si Si4 0.189904 0.500000 0.825730
O O1 0.500000 0.328756 0.282405
O O2 0.769689 0.789029 0.049612
O O3 0.500000 0.691757 0.000000
O O4 0.777821 0.500000 0.000000
O O5 0.234564 0.500000 0.609049
O O6 0.329209 0.796478 0.641087
O O7 0.000000 0.742294 0.624899
O O8 0.000000 0.500000 0.801331
#
# Coordination Sequence:
#
# PCOD8316023 Si02
#       4
#     2   8  16   8
#     4  12  28  52  72  94 124 160 208 276 348 390
#     4   9  15  27  57  95 135 178 220 252 297 367
#     4  10  19  36  64  98 136 175 213 258 312 375
#     4  12  26  45  71  97 123 162 213 268 328 392
#
# _framework density 20.967361
#
# number of rings (size 3 to 8) (size 9 to 14) (size 15 to 20)
#    0.000    1.647    4.706    0.706    0.000    5.647 
#    0.000    2.353    0.000    2.824    0.000    0.000 
#    0.000    0.000    0.000    0.000    0.000    0.000 
#
# Total GULP energy -421574.213297 kJ/mol
# GULP energy per Si atom -12399.241568 kJ/mol
# Density = 2.091964 g / cm^3
# Si number density = 20.967361 Si / 1000 Ang^3
#
#
#
# Elastic Constant Matrix: (Units=GPa)
#
#
# Indices 1 2 3 4 5 6 
#
# 1 128.9222 41.9045 55.6722 0.0000 0.0000 0.0000
# 2 41.9045 128.9222 55.6722 0.0000 0.0000 0.0000
# 3 55.6722 55.6722 123.0265 0.0000 0.0000 0.0000
# 4 0.0000 0.0000 0.0000 6.1127 0.0000 0.0000
# 5 0.0000 0.0000 0.0000 0.0000 6.1127 0.0000
# 6 0.0000 0.0000 0.0000 0.0000 0.0000 11.6394
#
#
#
# Elastic Compliance Matrix: (Units=1/GPa)
#
#
# Indices 1 2 3 4 5 6 
#
# 1 0.009897 -0.001595 -0.003757 0.000000 0.000000 0.000000
# 2 -0.001595 0.009897 -0.003757 0.000000 0.000000 0.000000
# 3 -0.003757 -0.003757 0.011529 0.000000 0.000000 0.000000
# 4 0.000000 0.000000 0.000000 0.163595 0.000000 0.000000
# 5 0.000000 0.000000 0.000000 0.000000 0.163595 0.000000
# 6 0.000000 0.000000 0.000000 0.000000 0.000000 0.085915
#
#
# Mechanical properties :
#
#
# Convention : Reuss Voigt Hill
#
# Bulk Modulus (GPa) = 76.30340 76.37431 76.33886
# Shear Modulus (GPa) = 10.70631 19.94775 15.32703
#
# Velocity S-wave (km/s) = 2.26214 3.08778 2.70662
# Velocity P-wave (km/s) = 6.57978 7.01548 6.80112
#
# Compressibility (1/GPa) = 0.01310558
#
# Stress axis : x y z
#
# Youngs Moduli (GPa) = 101.03694 101.03694 86.73954
#
# Poissons Ratio (x) = 0.16111 0.32590
# Poissons Ratio (y) = 0.16111 0.32590
# Poissons Ratio (z) = 0.37962 0.37962
#
# Static dielectric constant tensor:
#      x y z
#    x 3.699040 0.000000 0.000000 
#    y 0.000000 3.699040 0.000000 
#    z 0.000000 0.000000 3.738300 
# 
# 
# High freq. dielectric constant tensor:
#      x y z
#    x 1.815890 0.000000 0.000000 
#    y 0.000000 1.815890 0.000000 
#    z 0.000000 0.000000 1.803270 
# 
# From -- ./inp_files/8674.got.cif
#   From: 2010.03.12/outbox.cif.g09.slc.cpg/sg131_5_cif.got.tgz:8674.got - 2010.04.06 17:36:35.
