data_PCOD8316291
_publ_section_title
;
Structure prediction by ZEFSAII (Michael W. Deem and Ramdas Pophale) SiO2 
 PCOD8316291
Probable space group: P 42/M M C
;
_chemical_formula_sum "Si O2"
_cell_formula_units_Z 64
_cell_length_a 13.563482
_cell_length_b 13.563482
_cell_length_c 14.177898
_cell_angle_alpha 90.000000
_cell_angle_beta 90.000000
_cell_angle_gamma 90.000000
_cell_volume 2608.280163
_symmetry_space_group_name_H-M "P 42/M M C"
_symmetry_group_IT_number 131
_symmetry_cell_setting 'tetragonal'
loop_
_space_group_symop_operation_xyz
x,y,z
-x,-y,z
-y,x,1/2+z
y,-x,1/2+z
-x,y,-z
x,-y,-z
y,x,1/2-z
-y,-x,1/2-z
-x,-y,-z
x,y,-z
y,-x,1/2-z
-y,x,1/2-z
x,-y,z
-x,y,z
-y,-x,1/2+z
y,x,1/2+z
loop_
_atom_site_type_symbol
_atom_site_label
_atom_site_fract_x
_atom_site_fract_y
_atom_site_fract_z
Si Si1 0.108866 0.780287 0.392419
Si Si2 0.616519 0.391449 0.894572
Si Si3 0.304054 0.113327 0.391119
Si Si4 0.612338 0.799575 0.783237
O O1 0.122393 0.746581 0.500000
O O2 0.189770 0.863018 0.366399
O O3 0.118691 0.681964 0.329954
O O4 0.000000 0.825325 0.374951
O O5 0.652003 0.500000 0.855615
O O6 0.500000 0.393159 0.900722
O O7 0.650729 0.306682 0.822239
O O8 0.658770 0.371817 0.000000
O O9 0.328446 0.133851 0.500000
O O10 0.374684 0.186307 0.330260
O O11 0.324596 0.000000 0.365182
O O12 0.500000 0.818642 0.813204
#
# Coordination Sequence:
#
# PCOD8316291 Si02
#       4
#    16  16  16  16
#     4  10  22  41  66  96 126 155 197 261 335 405
#     4   8  15  31  58  92 128 167 213 263 314 370
#     4  10  23  44  67  91 123 165 216 272 325 384
#     4  11  22  37  62  95 132 174 217 261 314 381
#
# _framework density 24.537241999999999
#
# number of rings (size 3 to 8) (size 9 to 14) (size 15 to 20)
#    0.000    2.250    0.000    3.000    0.000    4.500 
#    0.000   10.000    0.000    6.750    0.000    3.500 
#    0.000    0.000    0.000    0.000    0.000    0.000 
#
# Total GULP energy -793476.800659 kJ/mol
# GULP energy per Si atom -12398.075010 kJ/mol
# Density = 2.448139 g / cm^3
# Si number density = 24.537242 Si / 1000 Ang^3
#
#
#
# Elastic Constant Matrix: (Units=GPa)
#
#
# Indices 1 2 3 4 5 6 
#
# 1 129.0661 26.6346 41.0736 0.0000 0.0000 0.0000
# 2 26.6346 129.0661 41.0736 0.0000 0.0000 0.0000
# 3 41.0736 41.0736 119.6958 0.0000 0.0000 0.0000
# 4 0.0000 0.0000 0.0000 38.9319 0.0000 0.0000
# 5 0.0000 0.0000 0.0000 0.0000 38.9319 0.0000
# 6 0.0000 0.0000 0.0000 0.0000 0.0000 31.5174
#
#
#
# Elastic Compliance Matrix: (Units=1/GPa)
#
#
# Indices 1 2 3 4 5 6 
#
# 1 0.008803 -0.000960 -0.002691 0.000000 0.000000 0.000000
# 2 -0.000960 0.008803 -0.002691 0.000000 0.000000 0.000000
# 3 -0.002691 -0.002691 0.010201 0.000000 0.000000 0.000000
# 4 0.000000 0.000000 0.000000 0.025686 0.000000 0.000000
# 5 0.000000 0.000000 0.000000 0.000000 0.025686 0.000000
# 6 0.000000 0.000000 0.000000 0.000000 0.000000 0.031729
#
#
# Mechanical properties :
#
#
# Convention : Reuss Voigt Hill
#
# Bulk Modulus (GPa) = 66.12987 66.15461 66.14224
# Shear Modulus (GPa) = 38.87056 39.81263 39.34159
#
# Velocity S-wave (km/s) = 3.98445 4.03245 4.00852
# Velocity P-wave (km/s) = 6.94097 6.97856 6.95979
#
# Compressibility (1/GPa) = 0.01512176
#
# Stress axis : x y z
#
# Youngs Moduli (GPa) = 113.60388 113.60388 98.02551
#
# Poissons Ratio (x) = 0.10907 0.26380
# Poissons Ratio (y) = 0.10907 0.26380
# Poissons Ratio (z) = 0.30572 0.30572
#
# Static dielectric constant tensor:
#      x y z
#    x 4.407700 0.000000 0.000000 
#    y 0.000000 4.407700 0.000000 
#    z 0.000000 0.000000 4.732160 
# 
# 
# High freq. dielectric constant tensor:
#      x y z
#    x 1.968650 0.000000 0.000000 
#    y 0.000000 1.968650 0.000000 
#    z 0.000000 0.000000 1.995460 
# 
# From -- ./inp_files/5461.got.cif
#   From: 2010.03.12/outbox.cif.g09.slc.cpg/sg131_3_cif.got.tgz:5461.got - 2010.04.06 17:36:35.
