data_PCOD8316944
_publ_section_title
;
Structure prediction by ZEFSAII (Michael W. Deem and Ramdas Pophale) SiO2 
 PCOD8316944
Probable space group: P 42/N B C
;
_chemical_formula_sum "Si O2"
_cell_formula_units_Z 80
_cell_length_a 12.605068
_cell_length_b 12.605068
_cell_length_c 26.382949
_cell_angle_alpha 90.000000
_cell_angle_beta 90.000000
_cell_angle_gamma 90.000000
_cell_volume 4191.927122
_symmetry_space_group_name_H-M "P 42/N B C"
_symmetry_group_IT_number 133
_space_group.IT_coordinate_system_code '2'
_symmetry_cell_setting 'tetragonal'
loop_
_space_group_symop_operation_xyz
x,y,z
1/2-y,x,1/2+z
1/2-x,1/2-y,z
y,1/2-x,1/2+z
x,1/2-y,-z
1/2-x,y,-z
y,x,1/2-z
1/2-y,1/2-x,1/2-z
-x,-y,-z
1/2+y,-x,1/2-z
1/2+x,1/2+y,-z
-y,1/2+x,1/2-z
-x,1/2+y,z
1/2+x,-y,z
-y,-x,1/2+z
1/2+y,1/2+x,1/2+z
loop_
_atom_site_type_symbol
_atom_site_label
_atom_site_fract_x
_atom_site_fract_y
_atom_site_fract_z
Si Si1 0.354051 0.892278 0.748966
Si Si2 0.193116 0.359192 0.905908
Si Si3 0.465914 0.467583 0.168887
Si Si4 0.021793 0.403911 0.423853
Si Si5 0.641702 0.506134 0.517667
O O1 0.395817 0.772335 0.743659
O O2 0.386448 0.959474 0.699590
O O3 0.409366 0.944473 0.797261
O O4 0.250000 0.250000 0.890364
O O5 0.125064 0.399122 0.858465
O O6 0.282080 0.445097 0.921008
O O7 0.119334 0.341823 0.954590
O O8 0.539472 0.534002 0.130363
O O9 0.079729 0.475960 0.465540
O O10 0.901346 0.416201 0.443703
O O11 0.750000 0.455379 0.500000
#
# Coordination Sequence:
#
# PCOD8316944 Si02
#       5
#    16  16  16  16  16
#     4  10  22  42  63  82 118 162 193 248 316 367
#     4  11  21  35  61  90 120 160 199 248 301 359
#     4  10  23  39  59  91 118 150 207 251 301 359
#     4  10  21  34  58  88 123 154 199 250 294 355
#     4  10  20  36  56  86 121 164 201 239 299 354
#
# _framework density 19.084301
#
# number of rings (size 3 to 8) (size 9 to 14) (size 15 to 20)
#    0.000    1.800    2.000    1.800    2.800    0.000 
#    0.000    1.000    0.000   20.400    0.000    0.000 
#    0.000    0.000    0.000    0.000    0.000    0.000 
#
# Total GULP energy -991718.043419 kJ/mol
# GULP energy per Si atom -12396.475543 kJ/mol
# Density = 1.904086 g / cm^3
# Si number density = 19.084301 Si / 1000 Ang^3
#
#
#
# Elastic Constant Matrix: (Units=GPa)
#
#
# Indices 1 2 3 4 5 6 
#
# 1 104.3755 59.5951 40.3390 0.0000 0.0000 0.0000
# 2 59.5951 104.3755 40.3390 0.0000 0.0000 0.0000
# 3 40.3390 40.3390 116.2789 0.0000 0.0000 0.0000
# 4 0.0000 0.0000 0.0000 21.5662 0.0000 0.0000
# 5 0.0000 0.0000 0.0000 0.0000 21.5662 0.0000
# 6 0.0000 0.0000 0.0000 0.0000 0.0000 33.7014
#
#
#
# Elastic Compliance Matrix: (Units=1/GPa)
#
#
# Indices 1 2 3 4 5 6 
#
# 1 0.014843 -0.007489 -0.002551 0.000000 0.000000 0.000000
# 2 -0.007489 0.014843 -0.002551 0.000000 0.000000 0.000000
# 3 -0.002551 -0.002551 0.010370 0.000000 0.000000 0.000000
# 4 0.000000 0.000000 0.000000 0.046369 0.000000 0.000000
# 5 0.000000 0.000000 0.000000 0.000000 0.046369 0.000000
# 6 0.000000 0.000000 0.000000 0.000000 0.000000 0.029672
#
#
# Mechanical properties :
#
#
# Convention : Reuss Voigt Hill
#
# Bulk Modulus (GPa) = 67.23514 67.28623 67.26069
# Shear Modulus (GPa) = 25.95987 27.68389 26.82188
#
# Velocity S-wave (km/s) = 3.69219 3.81282 3.75299
# Velocity P-wave (km/s) = 7.31324 7.39712 7.35530
#
# Compressibility (1/GPa) = 0.01487317
#
# Stress axis : x y z
#
# Youngs Moduli (GPa) = 67.37390 67.37390 96.43109
#
# Poissons Ratio (x) = 0.50454 0.24601
# Poissons Ratio (y) = 0.50454 0.24601
# Poissons Ratio (z) = 0.17188 0.17188
#
# Static dielectric constant tensor:
#      x y z
#    x 3.666110 0.000000 0.000000 
#    y 0.000000 3.666110 0.000000 
#    z 0.000000 0.000000 3.667350 
# 
# 
# High freq. dielectric constant tensor:
#      x y z
#    x 1.742550 0.000000 0.000000 
#    y 0.000000 1.742550 0.000000 
#    z 0.000000 0.000000 1.755740 
# 
# From -- ./inp_files/7870.got.cif
#   From: 2010.03.12/outbox.cif.g09.slc.cpg/sg133_4_cif.got.tgz:7870.got - 2010.04.06 18:08:06.
