data_PCOD8316383
_publ_section_title
;
Structure prediction by ZEFSAII (Michael W. Deem and Ramdas Pophale) SiO2 
 PCOD8316383
Probable space group: P 42/M M C
;
_chemical_formula_sum "Si O2"
_cell_formula_units_Z 80
_cell_length_a 20.532949
_cell_length_b 20.532949
_cell_length_c 13.830209
_cell_angle_alpha 90.000000
_cell_angle_beta 90.000000
_cell_angle_gamma 90.000000
_cell_volume 5830.843701
_symmetry_space_group_name_H-M "P 42/M M C"
_symmetry_group_IT_number 131
_symmetry_cell_setting 'tetragonal'
loop_
_space_group_symop_operation_xyz
x,y,z
-x,-y,z
-y,x,1/2+z
y,-x,1/2+z
-x,y,-z
x,-y,-z
y,x,1/2-z
-y,-x,1/2-z
-x,-y,-z
x,y,-z
y,-x,1/2-z
-y,x,1/2-z
x,-y,z
-x,y,z
-y,-x,1/2+z
y,x,1/2+z
loop_
_atom_site_type_symbol
_atom_site_label
_atom_site_fract_x
_atom_site_fract_y
_atom_site_fract_z
Si Si1 0.573356 0.500000 0.115317
Si Si2 0.129570 0.423490 0.707737
Si Si3 0.000000 0.422098 0.610789
Si Si4 0.738706 0.426292 0.614283
Si Si5 0.576824 0.202782 0.391654
Si Si6 0.342972 0.380257 0.115179
O O1 0.500000 0.500000 0.156884
O O2 0.611537 0.562470 0.155002
O O3 0.571470 0.500000 0.000000
O O4 0.122221 0.500000 0.696447
O O5 0.190423 0.399731 0.643667
O O6 0.143067 0.404753 0.820158
O O7 0.062948 0.392422 0.666665
O O8 0.000000 0.500000 0.613242
O O9 0.000000 0.397572 0.500000
O O10 0.732889 0.427751 0.500000
O O11 0.727228 0.500000 0.654816
O O12 0.685722 0.375555 0.657067
O O13 0.600121 0.184411 0.500000
O O14 0.500000 0.216708 0.390622
O O15 0.611377 0.268096 0.350721
O O16 0.342265 0.380997 0.000000
#
# Coordination Sequence:
#
# PCOD8316383 Si02
#       6
#     8  16   8  16  16  16
#     4   9  14  20  32  50  68  91 129 168 198 229
#     4   9  17  27  40  56  69  88 110 139 182 235
#     4   9  16  28  45  61  75  85  98 126 175 238
#     4   9  16  25  36  53  74  93 119 157 197 232
#     4   9  16  27  39  51  69  95 125 152 178 215
#     4   9  15  23  35  50  69  97 129 159 192 225
#
# _framework density 13.720141
#
# number of rings (size 3 to 8) (size 9 to 14) (size 15 to 20)
#    0.000    3.000    1.000    1.200    0.000    5.600 
#    0.000    0.500    0.000    3.000    0.000    0.000 
#    0.000    0.000    0.000    0.000    0.000    0.200 
#
# Total GULP energy -991455.815924 kJ/mol
# GULP energy per Si atom -12393.197699 kJ/mol
# Density = 1.368891 g / cm^3
# Si number density = 13.720141 Si / 1000 Ang^3
#
#
#
# Elastic Constant Matrix: (Units=GPa)
#
#
# Indices 1 2 3 4 5 6 
#
# 1 81.8021 27.5732 29.6551 0.0000 0.0000 0.0000
# 2 27.5732 81.8021 29.6551 0.0000 0.0000 0.0000
# 3 29.6551 29.6551 50.7332 0.0000 0.0000 0.0000
# 4 0.0000 0.0000 0.0000 12.4464 0.0000 0.0000
# 5 0.0000 0.0000 0.0000 0.0000 12.4464 0.0000
# 6 0.0000 0.0000 0.0000 0.0000 0.0000 4.3669
#
#
#
# Elastic Compliance Matrix: (Units=1/GPa)
#
#
# Indices 1 2 3 4 5 6 
#
# 1 0.015913 -0.002527 -0.007824 0.000000 0.000000 0.000000
# 2 -0.002527 0.015913 -0.007824 0.000000 0.000000 0.000000
# 3 -0.007824 -0.007824 0.028858 0.000000 0.000000 0.000000
# 4 0.000000 0.000000 0.000000 0.080345 0.000000 0.000000
# 5 0.000000 0.000000 0.000000 0.000000 0.080345 0.000000
# 6 0.000000 0.000000 0.000000 0.000000 0.000000 0.228993
#
#
# Mechanical properties :
#
#
# Convention : Reuss Voigt Hill
#
# Bulk Modulus (GPa) = 41.09799 43.12270 42.11035
# Shear Modulus (GPa) = 10.10449 14.34886 12.22667
#
# Velocity S-wave (km/s) = 2.71674 3.23743 2.98845
# Velocity P-wave (km/s) = 6.31351 6.74337 6.53198
#
# Compressibility (1/GPa) = 0.02433209
#
# Stress axis : x y z
#
# Youngs Moduli (GPa) = 62.84158 62.84158 34.65231
#
# Poissons Ratio (x) = 0.15882 0.27113
# Poissons Ratio (y) = 0.15882 0.27113
# Poissons Ratio (z) = 0.49169 0.49169
#
# Static dielectric constant tensor:
#      x y z
#    x 2.597110 0.000000 0.000000 
#    y 0.000000 2.597110 0.000000 
#    z 0.000000 0.000000 2.859550 
# 
# 
# High freq. dielectric constant tensor:
#      x y z
#    x 1.478730 0.000000 0.000000 
#    y 0.000000 1.478730 0.000000 
#    z 0.000000 0.000000 1.542350 
# 
# From -- ./inp_files/6045.got.cif
#   From: 2010.03.12/outbox.cif.g09.slc.cpg/sg131_4_cif.got.tgz:6045.got - 2010.04.06 17:36:35.
