data_PCOD8316044
_publ_section_title
;
Structure prediction by ZEFSAII (Michael W. Deem and Ramdas Pophale) SiO2 
 PCOD8316044
Probable space group: P 42/M M C
;
_chemical_formula_sum "Si O2"
_cell_formula_units_Z 96
_cell_length_a 13.644479
_cell_length_b 13.644479
_cell_length_c 32.200344
_cell_angle_alpha 90.000000
_cell_angle_beta 90.000000
_cell_angle_gamma 90.000000
_cell_volume 5994.796234
_symmetry_space_group_name_H-M "P 42/M M C"
_symmetry_group_IT_number 131
_symmetry_cell_setting 'tetragonal'
loop_
_space_group_symop_operation_xyz
x,y,z
-x,-y,z
-y,x,1/2+z
y,-x,1/2+z
-x,y,-z
x,-y,-z
y,x,1/2-z
-y,-x,1/2-z
-x,-y,-z
x,y,-z
y,-x,1/2-z
-y,x,1/2-z
x,-y,z
-x,y,z
-y,-x,1/2+z
y,x,1/2+z
loop_
_atom_site_type_symbol
_atom_site_label
_atom_site_fract_x
_atom_site_fract_y
_atom_site_fract_z
Si Si1 0.732171 0.115310 0.752065
Si Si2 0.383402 0.699061 0.544924
Si Si3 0.615496 0.106891 0.582731
Si Si4 0.607711 0.115847 0.673497
Si Si5 0.390161 0.615040 0.370229
Si Si6 0.280953 0.383086 0.711743
O O1 0.843474 0.156527 0.750000
O O2 0.686264 0.145232 0.707818
O O3 0.666289 0.172827 0.785870
O O4 0.732088 0.000000 0.761910
O O5 0.342796 0.661136 0.500000
O O6 0.500000 0.688439 0.544887
O O7 0.351150 0.813362 0.548888
O O8 0.341783 0.639761 0.584660
O O9 0.500000 0.092223 0.581386
O O10 0.642579 0.153058 0.628062
O O11 0.665218 0.000000 0.574356
O O12 0.500000 0.157632 0.685795
O O13 0.600048 0.000000 0.669732
O O14 0.395172 0.500000 0.365582
O O15 0.500000 0.660119 0.367675
O O16 0.328213 0.656573 0.331366
O O17 0.348848 0.348848 0.750000
O O18 0.270586 0.500000 0.712189
#
# Coordination Sequence:
#
# PCOD8316044 Si02
#       6
#    16  16  16  16  16  16
#     4  10  21  33  46  66  90 120 156 191 227 270
#     4   9  17  26  38  57  82 117 155 186 218 259
#     4   8  14  23  37  57  81 110 141 175 215 258
#     4   8  14  26  43  62  84 112 145 177 212 259
#     4   9  18  31  44  60  87 120 154 190 222 260
#     4  10  20  31  47  70  94 122 152 188 232 276
#
# _framework density 16.01389
#
# number of rings (size 3 to 8) (size 9 to 14) (size 15 to 20)
#    0.000    3.000    0.000    2.000    4.667    2.667 
#    0.000    3.333    0.000    0.000    0.000    0.000 
#    0.000    0.667    0.000    3.667    0.000    9.500 
#
# Total GULP energy -1189267.948508 kJ/mol
# GULP energy per Si atom -12388.207797 kJ/mol
# Density = 1.597744 g / cm^3
# Si number density = 16.013890 Si / 1000 Ang^3
#
#
#
# Elastic Constant Matrix: (Units=GPa)
#
#
# Indices 1 2 3 4 5 6 
#
# 1 53.8560 22.3380 32.6786 0.0000 0.0000 0.0000
# 2 22.3380 53.8571 32.6787 0.0000 0.0000 0.0000
# 3 32.6786 32.6787 127.1021 0.0000 0.0000 0.0000
# 4 0.0000 0.0000 0.0000 12.7388 0.0000 0.0000
# 5 0.0000 0.0000 0.0000 0.0000 12.7388 0.0000
# 6 0.0000 0.0000 0.0000 0.0000 0.0000 16.0557
#
#
#
# Elastic Compliance Matrix: (Units=1/GPa)
#
#
# Indices 1 2 3 4 5 6 
#
# 1 0.024283 -0.007445 -0.004329 0.000000 0.000000 0.000000
# 2 -0.007445 0.024282 -0.004329 0.000000 0.000000 0.000000
# 3 -0.004329 -0.004329 0.010094 0.000000 0.000000 0.000000
# 4 0.000000 0.000000 0.000000 0.078501 0.000000 0.000000
# 5 0.000000 0.000000 0.000000 0.000000 0.078500 0.000000
# 6 0.000000 0.000000 0.000000 0.000000 0.000000 0.062283
#
#
# Mechanical properties :
#
#
# Convention : Reuss Voigt Hill
#
# Bulk Modulus (GPa) = 37.80322 45.57843 41.69082
# Shear Modulus (GPa) = 15.67563 18.11463 16.89513
#
# Velocity S-wave (km/s) = 3.13210 3.36695 3.25165
# Velocity P-wave (km/s) = 6.06117 6.60597 6.33942
#
# Compressibility (1/GPa) = 0.02645278
#
# Stress axis : x y z
#
# Youngs Moduli (GPa) = 41.18147 41.18238 99.07136
#
# Poissons Ratio (x) = 0.30660 0.42889
# Poissons Ratio (y) = 0.30659 0.42888
# Poissons Ratio (z) = 0.17828 0.17828
#
# Static dielectric constant tensor:
#      x y z
#    x 2.928980 0.000000 0.000000 
#    y 0.000000 2.928980 0.000000 
#    z 0.000000 0.000000 3.441260 
# 
# 
# High freq. dielectric constant tensor:
#      x y z
#    x 1.585330 0.000000 0.000000 
#    y 0.000000 1.585330 0.000000 
#    z 0.000000 0.000000 1.618660 
# 
# From -- ./inp_files/13691.got.cif
#   From: 2010.03.12/outbox.cif.g09.slc.cpg/sg131_7_cif.got.tgz:13691.got - 2010.04.06 17:36:35.
