data_PCOD8316445
_publ_section_title
;
Structure prediction by ZEFSAII (Michael W. Deem and Ramdas Pophale) SiO2 
 PCOD8316445
Probable space group: P 42/M C M
;
_chemical_formula_sum "Si O2"
_cell_formula_units_Z 96
_cell_length_a 19.351401
_cell_length_b 19.351401
_cell_length_c 17.978815
_cell_angle_alpha 90.000000
_cell_angle_beta 90.000000
_cell_angle_gamma 90.000000
_cell_volume 6732.647683
_symmetry_space_group_name_H-M "P 42/M C M"
_symmetry_group_IT_number 132
_symmetry_cell_setting 'tetragonal'
loop_
_space_group_symop_operation_xyz
x,y,z
-y,x,1/2+z
-x,-y,z
y,-x,1/2+z
x,-y,1/2-z
-x,y,1/2-z
y,x,-z
-y,-x,-z
-x,-y,-z
y,-x,1/2-z
x,y,-z
-y,x,1/2-z
-x,y,1/2+z
x,-y,1/2+z
-y,-x,z
y,x,z
loop_
_atom_site_type_symbol
_atom_site_label
_atom_site_fract_x
_atom_site_fract_y
_atom_site_fract_z
Si Si1 0.081723 0.505951 0.417477
Si Si2 0.644318 0.928928 0.843732
Si Si3 0.854243 0.744184 0.584981
Si Si4 0.141855 0.963609 0.088008
Si Si5 0.211562 0.100705 0.913248
Si Si6 0.911978 0.374718 0.172117
O O1 0.111721 0.491230 0.500000
O O2 0.103476 0.583247 0.393601
O O3 0.109549 0.450286 0.358018
O O4 0.000000 0.500000 0.418064
O O5 0.717324 0.897099 0.868075
O O6 0.626731 0.906849 0.760314
O O7 0.646944 0.011404 0.854310
O O8 0.868104 0.721754 0.500000
O O9 0.779233 0.779233 0.592874
O O10 0.913000 0.796799 0.612482
O O11 0.856671 0.677817 0.637534
O O12 0.068907 0.931094 0.118950
O O13 0.160293 0.040163 0.117579
O O14 0.135781 0.965675 0.000000
O O15 0.173497 0.173497 0.900666
O O16 0.228105 0.087687 0.000000
#
# Coordination Sequence:
#
# PCOD8316445 Si02
#       6
#    16  16  16  16  16  16
#     4   9  17  28  44  62  78  99 125 158 197 240
#     4  10  19  29  40  58  83 104 127 163 203 244
#     4   9  16  26  42  61  78  99 130 169 210 249
#     4   8  14  25  40  56  73  95 129 176 220 249
#     4  10  19  29  42  58  77 105 140 174 209 250
#     4  10  18  28  43  60  79 102 129 159 203 251
#
# _framework density 14.258877
#
# number of rings (size 3 to 8) (size 9 to 14) (size 15 to 20)
#    0.000    2.667    1.667    2.500    0.000    4.333 
#    0.000    1.667    0.000    0.000    0.000    0.000 
#    0.000    0.000    0.000    0.000    0.000    0.833 
#
# Total GULP energy -1189886.309961 kJ/mol
# GULP energy per Si atom -12394.649062 kJ/mol
# Density = 1.422642 g / cm^3
# Si number density = 14.258877 Si / 1000 Ang^3
#
#
#
# Elastic Constant Matrix: (Units=GPa)
#
#
# Indices 1 2 3 4 5 6 
#
# 1 73.0763 30.4732 34.2144 0.0000 0.0000 0.0000
# 2 30.4732 73.0763 34.2144 0.0000 0.0000 0.0000
# 3 34.2144 34.2144 68.3482 0.0000 0.0000 0.0000
# 4 0.0000 0.0000 0.0000 16.8951 0.0000 0.0000
# 5 0.0000 0.0000 0.0000 0.0000 16.8951 0.0000
# 6 0.0000 0.0000 0.0000 0.0000 0.0000 8.9607
#
#
#
# Elastic Compliance Matrix: (Units=1/GPa)
#
#
# Indices 1 2 3 4 5 6 
#
# 1 0.018952 -0.004521 -0.007224 0.000000 0.000000 0.000000
# 2 -0.004521 0.018952 -0.007224 0.000000 0.000000 0.000000
# 3 -0.007224 -0.007224 0.021864 0.000000 0.000000 0.000000
# 4 0.000000 0.000000 0.000000 0.059189 0.000000 0.000000
# 5 0.000000 0.000000 0.000000 0.000000 0.059189 0.000000
# 6 0.000000 0.000000 0.000000 0.000000 0.000000 0.111599
#
#
# Mechanical properties :
#
#
# Convention : Reuss Voigt Hill
#
# Bulk Modulus (GPa) = 45.80956 45.81165 45.81060
# Shear Modulus (GPa) = 14.92726 16.25675 15.59200
#
# Velocity S-wave (km/s) = 3.23905 3.38022 3.31039
# Velocity P-wave (km/s) = 6.79599 6.88715 6.84172
#
# Compressibility (1/GPa) = 0.02182951
#
# Stress axis : x y z
#
# Youngs Moduli (GPa) = 52.76548 52.76548 45.73825
#
# Poissons Ratio (x) = 0.23854 0.33042
# Poissons Ratio (y) = 0.23854 0.33042
# Poissons Ratio (z) = 0.38118 0.38118
#
# Static dielectric constant tensor:
#      x y z
#    x 2.716120 0.000000 0.000000 
#    y 0.000000 2.716120 0.000000 
#    z 0.000000 0.000000 2.708340 
# 
# 
# High freq. dielectric constant tensor:
#      x y z
#    x 1.514720 0.000000 0.000000 
#    y 0.000000 1.514720 0.000000 
#    z 0.000000 0.000000 1.539360 
# 
# From -- ./inp_files/6493.got.cif
#   From: 2010.03.12/outbox.cif.g09.slc.cpg/sg132_4_cif.got.tgz:6493.got - 2010.04.06 17:53:44.
