data_PCOD8316704
_publ_section_title
;
Structure prediction by ZEFSAII (Michael W. Deem and Ramdas Pophale) SiO2 
 PCOD8316704
Probable space group: P 42/M C M
;
_chemical_formula_sum "Si O2"
_cell_formula_units_Z 72
_cell_length_a 11.160963
_cell_length_b 11.160963
_cell_length_c 29.024886
_cell_angle_alpha 90.000000
_cell_angle_beta 90.000000
_cell_angle_gamma 90.000000
_cell_volume 3615.545734
_symmetry_space_group_name_H-M "P 42/M C M"
_symmetry_group_IT_number 132
_symmetry_cell_setting 'tetragonal'
loop_
_space_group_symop_operation_xyz
x,y,z
-y,x,1/2+z
-x,-y,z
y,-x,1/2+z
x,-y,1/2-z
-x,y,1/2-z
y,x,-z
-y,-x,-z
-x,-y,-z
y,-x,1/2-z
x,y,-z
-y,x,1/2-z
-x,y,1/2+z
x,-y,1/2+z
-y,-x,z
y,x,z
loop_
_atom_site_type_symbol
_atom_site_label
_atom_site_fract_x
_atom_site_fract_y
_atom_site_fract_z
Si Si1 0.253329 0.557366 0.797993
Si Si2 0.907960 0.907960 0.445603
Si Si3 0.718569 0.080958 0.449066
Si Si4 0.598795 0.099942 0.642267
Si Si5 0.755106 0.944572 0.701852
O O1 0.293121 0.500000 0.750000
O O2 0.364125 0.635876 0.817651
O O3 0.221106 0.451625 0.834206
O O4 0.138289 0.640120 0.788576
O O5 0.920831 0.920831 0.500000
O O6 0.949106 0.771351 0.433311
O O7 0.000000 0.000000 0.421174
O O8 0.657796 0.073830 0.500000
O O9 0.829263 0.170738 0.451527
O O10 0.623219 0.126239 0.411567
O O11 0.500000 0.000000 0.646572
O O12 0.720297 0.052174 0.666933
O O13 0.865420 0.865420 0.681335
O O14 0.797013 0.000000 0.750000
#
# Coordination Sequence:
#
# PCOD8316704 Si02
#       5
#    16   8  16  16  16
#     4  10  20  36  57  77 103 143 188 233 279 322
#     4   7  12  26  48  74 104 136 171 215 263 321
#     4   9  18  33  53  77 107 142 180 223 273 328
#     4  10  21  34  54  80 112 146 176 226 275 323
#     4  10  20  34  54  79 111 147 179 214 271 341
#
# _framework density 19.914007999999999
#
# number of rings (size 3 to 8) (size 9 to 14) (size 15 to 20)
#    0.000    2.556    2.222    1.333    1.556    2.667 
#    0.000    0.000    0.000    0.667    0.000    1.556 
#    0.000    0.000    0.000    0.000    0.000    0.000 
#
# Total GULP energy -892157.953987 kJ/mol
# GULP energy per Si atom -12391.082694 kJ/mol
# Density = 1.986868 g / cm^3
# Si number density = 19.914008 Si / 1000 Ang^3
#
#
#
# Elastic Constant Matrix: (Units=GPa)
#
#
# Indices 1 2 3 4 5 6 
#
# 1 66.2176 44.5544 45.2276 0.0000 0.0000 0.0000
# 2 44.5544 66.2176 45.2276 0.0000 0.0000 0.0000
# 3 45.2276 45.2276 133.3772 0.0000 0.0000 0.0000
# 4 0.0000 0.0000 0.0000 24.1238 0.0000 0.0000
# 5 0.0000 0.0000 0.0000 0.0000 24.1238 0.0000
# 6 0.0000 0.0000 0.0000 0.0000 0.0000 20.1466
#
#
#
# Elastic Compliance Matrix: (Units=1/GPa)
#
#
# Indices 1 2 3 4 5 6 
#
# 1 0.029323 -0.016838 -0.004233 0.000000 0.000000 0.000000
# 2 -0.016838 0.029323 -0.004233 0.000000 0.000000 0.000000
# 3 -0.004233 -0.004233 0.010369 0.000000 0.000000 0.000000
# 4 0.000000 0.000000 0.000000 0.041453 0.000000 0.000000
# 5 0.000000 0.000000 0.000000 0.000000 0.041453 0.000000
# 6 0.000000 0.000000 0.000000 0.000000 0.000000 0.049636
#
#
# Mechanical properties :
#
#
# Convention : Reuss Voigt Hill
#
# Bulk Modulus (GPa) = 54.33633 59.53686 56.93659
# Shear Modulus (GPa) = 19.35724 22.39903 20.87813
#
# Velocity S-wave (km/s) = 3.12114 3.35742 3.24144
# Velocity P-wave (km/s) = 6.35086 6.70758 6.53165
#
# Compressibility (1/GPa) = 0.01840389
#
# Stress axis : x y z
#
# Youngs Moduli (GPa) = 34.10308 34.10308 96.44481
#
# Poissons Ratio (x) = 0.57424 0.40829
# Poissons Ratio (y) = 0.57424 0.40829
# Poissons Ratio (z) = 0.14437 0.14437
#
# Static dielectric constant tensor:
#      x y z
#    x 3.594130 0.000000 0.000000 
#    y 0.000000 3.594130 0.000000 
#    z 0.000000 0.000000 3.813840 
# 
# 
# High freq. dielectric constant tensor:
#      x y z
#    x 1.755560 0.000000 0.000000 
#    y 0.000000 1.755560 0.000000 
#    z 0.000000 0.000000 1.765650 
# 
# From -- ./inp_files/9735.got.cif
#   From: 2010.03.12/outbox.cif.g09.slc.cpg/sg132_5_cif.got.tgz:9735.got - 2010.04.06 17:53:44.
