data_PCOD8316979
_publ_section_title
;
Structure prediction by ZEFSAII (Michael W. Deem and Ramdas Pophale) SiO2 
 PCOD8316979
Probable space group: P 42/N B C
;
_chemical_formula_sum "Si O2"
_cell_formula_units_Z 108
_cell_length_a 14.630191
_cell_length_b 14.630191
_cell_length_c 22.678059
_cell_angle_alpha 90.000000
_cell_angle_beta 90.000000
_cell_angle_gamma 90.000000
_cell_volume 4854.068187
_symmetry_space_group_name_H-M "P 42/N B C"
_symmetry_group_IT_number 133
_space_group.IT_coordinate_system_code '2'
_symmetry_cell_setting 'tetragonal'
loop_
_space_group_symop_operation_xyz
x,y,z
1/2-y,x,1/2+z
1/2-x,1/2-y,z
y,1/2-x,1/2+z
x,1/2-y,-z
1/2-x,y,-z
y,x,1/2-z
1/2-y,1/2-x,1/2-z
-x,-y,-z
1/2+y,-x,1/2-z
1/2+x,1/2+y,-z
-y,1/2+x,1/2-z
-x,1/2+y,z
1/2+x,-y,z
-y,-x,1/2+z
1/2+y,1/2+x,1/2+z
loop_
_atom_site_type_symbol
_atom_site_label
_atom_site_fract_x
_atom_site_fract_y
_atom_site_fract_z
Si Si1 0.801054 0.055669 0.818122
Si Si2 0.373222 0.312184 0.382133
Si Si3 0.320396 0.385395 0.627984
Si Si4 0.750000 0.250000 0.000000
Si Si5 0.750000 0.949232 0.000000
Si Si6 0.848662 0.147464 0.605366
Si Si7 0.010370 0.073242 0.550574
Si Si8 0.055304 0.707432 0.804193
O O1 0.735140 0.106471 0.863597
O O2 0.750291 0.031681 0.758301
O O3 0.880489 0.121157 0.796672
O O4 0.846065 0.965588 0.849395
O O5 0.350447 0.214980 0.351035
O O6 0.289610 0.383821 0.382571
O O7 0.384575 0.294360 0.451081
O O8 0.385105 0.421892 0.574192
O O9 0.335238 0.458650 0.678215
O O10 0.818364 0.193849 0.043314
O O11 0.672298 0.015437 0.975815
O O12 0.773963 0.100905 0.647571
O O13 0.927183 0.067554 0.597543
O O14 0.000000 0.000000 0.500000
#
# Coordination Sequence:
#
# PCOD8316979 Si02
#       8
#    16  16  16   4   8  16  16  16
#     4  12  24  48  74 100 143 195 233 305 363 445
#     4  10  24  48  73  96 143 189 246 292 376 432
#     4  10  25  46  68 106 134 188 244 303 350 440
#     4  12  26  40  72 100 150 178 230 290 362 440
#     4  10  21  43  69  97 142 188 227 289 365 427
#     4  12  25  44  67 109 140 188 234 290 368 440
#     4  11  26  43  71 105 148 188 235 295 364 440
#     4  12  27  44  73 103 143 184 247 297 364 430
#
# _framework density 22.249379999999999
#
# number of rings (size 3 to 8) (size 9 to 14) (size 15 to 20)
#    0.000    0.889    5.926    0.444    6.222    5.926 
#    0.000    2.963    0.000    0.000    0.000    0.000 
#    0.000    0.000    0.000    0.000    0.000    0.000 
#
# Total GULP energy -1338010.015225 kJ/mol
# GULP energy per Si atom -12388.981622 kJ/mol
# Density = 2.219874 g / cm^3
# Si number density = 22.249380 Si / 1000 Ang^3
#
#
#
# Elastic Constant Matrix: (Units=GPa)
#
#
# Indices 1 2 3 4 5 6 
#
# 1 72.8035 24.1460 33.4729 0.0000 0.0000 0.0000
# 2 24.1460 72.8035 33.4729 0.0000 0.0000 0.0000
# 3 33.4729 33.4729 123.9675 0.0000 0.0000 0.0000
# 4 0.0000 0.0000 0.0000 23.1896 0.0000 0.0000
# 5 0.0000 0.0000 0.0000 0.0000 23.1896 0.0000
# 6 0.0000 0.0000 0.0000 0.0000 0.0000 25.0075
#
#
#
# Elastic Compliance Matrix: (Units=1/GPa)
#
#
# Indices 1 2 3 4 5 6 
#
# 1 0.016615 -0.003937 -0.003423 0.000000 0.000000 0.000000
# 2 -0.003937 0.016615 -0.003423 0.000000 0.000000 0.000000
# 3 -0.003423 -0.003423 0.009915 0.000000 0.000000 0.000000
# 4 0.000000 0.000000 0.000000 0.043123 0.000000 0.000000
# 5 0.000000 0.000000 0.000000 0.000000 0.043123 0.000000
# 6 0.000000 0.000000 0.000000 0.000000 0.000000 0.039988
#
#
# Mechanical properties :
#
#
# Convention : Reuss Voigt Hill
#
# Bulk Modulus (GPa) = 46.34145 50.19534 48.26839
# Shear Modulus (GPa) = 25.23480 26.17619 25.70550
#
# Velocity S-wave (km/s) = 3.37141 3.43372 3.40271
# Velocity P-wave (km/s) = 6.00239 6.19112 6.09748
#
# Compressibility (1/GPa) = 0.02157895
#
# Stress axis : x y z
#
# Youngs Moduli (GPa) = 60.18588 60.18588 100.85379
#
# Poissons Ratio (x) = 0.23693 0.34526
# Poissons Ratio (y) = 0.23693 0.34526
# Poissons Ratio (z) = 0.20604 0.20604
#
# Static dielectric constant tensor:
#      x y z
#    x 3.983670 0.000000 0.000000 
#    y 0.000000 3.983670 0.000000 
#    z 0.000000 0.000000 4.064670 
# 
# 
# High freq. dielectric constant tensor:
#      x y z
#    x 1.883960 0.000000 0.000000 
#    y 0.000000 1.883960 0.000000 
#    z 0.000000 0.000000 1.871860 
# 
# From -- ./inp_files/7307.got.cif
#   From: 2010.03.12/outbox.cif.g09.slc.cpg/sg133_4_cif.got.tgz:7307.got - 2010.04.06 18:08:06.
