data_PCOD8317713
_publ_section_title
;
Structure prediction by ZEFSAII (Michael W. Deem and Ramdas Pophale) SiO2 
 PCOD8317713
Probable space group: P 42/M N M
;
_chemical_formula_sum "Si O2"
_cell_formula_units_Z 48
_cell_length_a 12.177970
_cell_length_b 12.177970
_cell_length_c 18.631923
_cell_angle_alpha 90.000000
_cell_angle_beta 90.000000
_cell_angle_gamma 90.000000
_cell_volume 2763.169207
_symmetry_space_group_name_H-M "P 42/M N M"
_symmetry_group_IT_number 136
_symmetry_cell_setting 'tetragonal'
loop_
_space_group_symop_operation_xyz
x,y,z
1/2-y,1/2+x,1/2+z
-x,-y,z
1/2+y,1/2-x,1/2+z
1/2+x,1/2-y,1/2-z
1/2-x,1/2+y,1/2-z
y,x,-z
-y,-x,-z
-x,-y,-z
1/2+y,1/2-x,1/2-z
x,y,-z
1/2-y,1/2+x,1/2-z
1/2-x,1/2+y,1/2+z
1/2+x,1/2-y,1/2+z
-y,-x,z
y,x,z
loop_
_atom_site_type_symbol
_atom_site_label
_atom_site_fract_x
_atom_site_fract_y
_atom_site_fract_z
Si Si1 0.870781 0.494657 0.171959
Si Si2 0.110330 0.708515 0.082240
Si Si3 0.726881 0.908321 0.182238
O O1 0.852480 0.414341 0.104575
O O2 0.798539 0.450882 0.237849
O O3 0.838355 0.620891 0.153791
O O4 0.000000 0.500000 0.191567
O O5 0.212893 0.787108 0.094884
O O6 0.010376 0.752099 0.130410
O O7 0.072033 0.707029 0.000000
O O8 0.833376 0.833376 0.183268
#
# Coordination Sequence:
#
# PCOD8317713 Si02
#       3
#    16  16  16
#     4  10  17  34  55  78 103 141 184 225 256 310
#     4  10  21  37  57  80 108 144 182 220 267 321
#     4  11  20  32  54  81 110 142 177 221 271 319
#
# _framework density 17.371357
#
# number of rings (size 3 to 8) (size 9 to 14) (size 15 to 20)
#    0.000    1.667    6.667    1.000    0.000    7.333 
#    0.000    1.667    0.000    3.000    0.000    2.333 
#    0.000    0.000    0.000    0.000    0.000    0.000 
#
# Total GULP energy -594801.004359 kJ/mol
# GULP energy per Si atom -12391.687591 kJ/mol
# Density = 1.733182 g / cm^3
# Si number density = 17.371357 Si / 1000 Ang^3
#
#
#
# Elastic Constant Matrix: (Units=GPa)
#
#
# Indices 1 2 3 4 5 6 
#
# 1 50.6269 19.0855 28.7797 0.0000 0.0000 0.0000
# 2 19.0855 50.6269 28.7797 0.0000 0.0000 0.0000
# 3 28.7797 28.7797 82.8355 0.0000 0.0000 0.0000
# 4 0.0000 0.0000 0.0000 19.8634 0.0000 0.0000
# 5 0.0000 0.0000 0.0000 0.0000 19.8634 0.0000
# 6 0.0000 0.0000 0.0000 0.0000 0.0000 28.3941
#
#
#
# Elastic Compliance Matrix: (Units=1/GPa)
#
#
# Indices 1 2 3 4 5 6 
#
# 1 0.025910 -0.005795 -0.006989 0.000000 0.000000 0.000000
# 2 -0.005795 0.025910 -0.006989 0.000000 0.000000 0.000000
# 3 -0.006989 -0.006989 0.016928 0.000000 0.000000 0.000000
# 4 0.000000 0.000000 0.000000 0.050344 0.000000 0.000000
# 5 0.000000 0.000000 0.000000 0.000000 0.050344 0.000000
# 6 0.000000 0.000000 0.000000 0.000000 0.000000 0.035219
#
#
# Mechanical properties :
#
#
# Convention : Reuss Voigt Hill
#
# Bulk Modulus (GPa) = 34.24215 37.48656 35.86436
# Shear Modulus (GPa) = 19.69031 20.78715 20.23873
#
# Velocity S-wave (km/s) = 3.37039 3.46299 3.41701
# Velocity P-wave (km/s) = 5.90768 6.13320 6.02150
#
# Compressibility (1/GPa) = 0.02920377
#
# Stress axis : x y z
#
# Youngs Moduli (GPa) = 38.59563 38.59563 59.07297
#
# Poissons Ratio (x) = 0.22365 0.41283
# Poissons Ratio (y) = 0.22365 0.41283
# Poissons Ratio (z) = 0.26973 0.26973
#
# Static dielectric constant tensor:
#      x y z
#    x 3.479900 0.000000 0.000000 
#    y 0.000000 3.479900 0.000000 
#    z 0.000000 0.000000 3.213010 
# 
# 
# High freq. dielectric constant tensor:
#      x y z
#    x 1.660890 0.000000 0.000000 
#    y 0.000000 1.660890 0.000000 
#    z 0.000000 0.000000 1.670220 
# 
# From -- ./inp_files/4472.got.cif
#   From: 2010.03.12/outbox.cif.g09.slc.cpg/sg136_3_cif.got.tgz:4472.got - 2010.04.06 18:39:43.
