data_PCOD8317229
_publ_section_title
;
Structure prediction by ZEFSAII (Michael W. Deem and Ramdas Pophale) SiO2 
 PCOD8317229
Probable space group: P 42/N N M
;
_chemical_formula_sum "Si O2"
_cell_formula_units_Z 96
_cell_length_a 22.208692
_cell_length_b 22.208692
_cell_length_c 11.433721
_cell_angle_alpha 90.000000
_cell_angle_beta 90.000000
_cell_angle_gamma 90.000000
_cell_volume 5639.408478
_symmetry_space_group_name_H-M "P 42/N N M"
_symmetry_group_IT_number 134
_space_group.IT_coordinate_system_code '2'
_symmetry_cell_setting 'tetragonal'
loop_
_space_group_symop_operation_xyz
x,y,z
1/2-y,x,1/2+z
1/2-x,1/2-y,z
y,1/2-x,1/2+z
x,1/2-y,1/2-z
1/2-x,y,1/2-z
y,x,-z
1/2-y,1/2-x,-z
-x,-y,-z
1/2+y,-x,1/2-z
1/2+x,1/2+y,-z
-y,1/2+x,1/2-z
-x,1/2+y,1/2+z
1/2+x,-y,1/2+z
-y,-x,z
1/2+y,1/2+x,z
loop_
_atom_site_type_symbol
_atom_site_label
_atom_site_fract_x
_atom_site_fract_y
_atom_site_fract_z
Si Si1 0.750000 0.987920 0.250000
Si Si2 0.402673 0.423513 0.258231
Si Si3 0.195526 0.340124 0.335485
Si Si4 0.505009 0.593480 0.049440
Si Si5 0.388990 0.251335 0.060938
Si Si6 0.614953 0.614953 0.500000
Si Si7 0.470806 0.627147 0.809216
O O1 0.732775 0.947749 0.363063
O O2 0.690848 0.030517 0.239446
O O3 0.362565 0.365288 0.230647
O O4 0.378263 0.479382 0.177728
O O5 0.395166 0.434812 0.397653
O O6 0.472927 0.412471 0.233558
O O7 0.250000 0.328221 0.250000
O O8 0.216245 0.388976 0.434083
O O9 0.173525 0.274745 0.381486
O O10 0.461568 0.538433 0.074999
O O11 0.569027 0.569027 0.000000
O O12 0.476296 0.637472 0.951207
O O13 0.390525 0.180219 0.055256
O O14 0.409683 0.590318 0.780694
#
# Coordination Sequence:
#
# PCOD8317229 Si02
#       7
#     8  16  16  16  16   8  16
#     4  12  20  38  59  75 112 136 174 218 276 324
#     4  11  19  34  49  71 101 135 176 226 265 310
#     4  11  22  36  50  66  97 142 193 229 263 292
#     4   8  16  31  53  75  93 122 170 218 256 302
#     4  11  23  36  47  70  98 143 184 226 261 309
#     4  12  22  35  43  66 106 140 180 214 265 319
#     4  10  20  35  59  82  99 130 174 220 268 321
#
# _framework density 17.023061999999999
#
# number of rings (size 3 to 8) (size 9 to 14) (size 15 to 20)
#    0.000    1.500    5.000    2.500    4.667    1.333 
#    3.000    1.667    0.000    0.250    0.000    0.000 
#    0.000    0.000    0.000    0.000    0.000    0.500 
#
# Total GULP energy -1189260.009607 kJ/mol
# GULP energy per Si atom -12388.125100 kJ/mol
# Density = 1.698432 g / cm^3
# Si number density = 17.023062 Si / 1000 Ang^3
#
#
#
# Elastic Constant Matrix: (Units=GPa)
#
#
# Indices 1 2 3 4 5 6 
#
# 1 54.5487 39.0150 31.2646 0.0000 0.0000 0.0000
# 2 39.0150 54.5487 31.2646 0.0000 0.0000 0.0000
# 3 31.2646 31.2646 118.1247 0.0000 0.0000 0.0000
# 4 0.0000 0.0000 0.0000 15.6475 0.0000 0.0000
# 5 0.0000 0.0000 0.0000 0.0000 15.6475 0.0000
# 6 0.0000 0.0000 0.0000 0.0000 0.0000 17.7126
#
#
#
# Elastic Compliance Matrix: (Units=1/GPa)
#
#
# Indices 1 2 3 4 5 6 
#
# 1 0.038680 -0.025696 -0.003437 0.000000 0.000000 0.000000
# 2 -0.025696 0.038680 -0.003437 0.000000 0.000000 0.000000
# 3 -0.003437 -0.003437 0.010285 0.000000 0.000000 0.000000
# 4 0.000000 0.000000 0.000000 0.063908 0.000000 0.000000
# 5 0.000000 0.000000 0.000000 0.000000 0.063908 0.000000
# 6 0.000000 0.000000 0.000000 0.000000 0.000000 0.056457
#
#
# Mechanical properties :
#
#
# Convention : Reuss Voigt Hill
#
# Bulk Modulus (GPa) = 44.42990 47.81227 46.12109
# Shear Modulus (GPa) = 14.51128 18.18005 16.34567
#
# Velocity S-wave (km/s) = 2.92284 3.27152 3.10208
# Velocity P-wave (km/s) = 6.12757 6.51293 6.32319
#
# Compressibility (1/GPa) = 0.02250737
#
# Stress axis : x y z
#
# Youngs Moduli (GPa) = 25.85282 25.85282 97.23032
#
# Poissons Ratio (x) = 0.66431 0.33415
# Poissons Ratio (y) = 0.66431 0.33415
# Poissons Ratio (z) = 0.08885 0.08885
#
# Static dielectric constant tensor:
#      x y z
#    x 3.006810 0.000000 0.000000 
#    y 0.000000 3.006810 0.000000 
#    z 0.000000 0.000000 3.798660 
# 
# 
# High freq. dielectric constant tensor:
#      x y z
#    x 1.619040 0.000000 0.000000 
#    y 0.000000 1.619040 0.000000 
#    z 0.000000 0.000000 1.671600 
# 
# From -- ./inp_files/5096.got.cif
#   From: 2010.03.12/outbox.cif.g09.slc.cpg/sg134_3_cif.got.tgz:5096.got - 2010.04.06 18:17:22.
