data_PCOD8317029
_publ_section_title
;
Structure prediction by ZEFSAII (Michael W. Deem and Ramdas Pophale) SiO2 
 PCOD8317029
Probable space group: P 42/N B C
;
_chemical_formula_sum "Si O2"
_cell_formula_units_Z 112
_cell_length_a 15.587988
_cell_length_b 15.587988
_cell_length_c 22.812764
_cell_angle_alpha 90.000000
_cell_angle_beta 90.000000
_cell_angle_gamma 90.000000
_cell_volume 5543.167899
_symmetry_space_group_name_H-M "P 42/N B C"
_symmetry_group_IT_number 133
_space_group.IT_coordinate_system_code '2'
_symmetry_cell_setting 'tetragonal'
loop_
_space_group_symop_operation_xyz
x,y,z
1/2-y,x,1/2+z
1/2-x,1/2-y,z
y,1/2-x,1/2+z
x,1/2-y,-z
1/2-x,y,-z
y,x,1/2-z
1/2-y,1/2-x,1/2-z
-x,-y,-z
1/2+y,-x,1/2-z
1/2+x,1/2+y,-z
-y,1/2+x,1/2-z
-x,1/2+y,z
1/2+x,-y,z
-y,-x,1/2+z
1/2+y,1/2+x,1/2+z
loop_
_atom_site_type_symbol
_atom_site_label
_atom_site_fract_x
_atom_site_fract_y
_atom_site_fract_z
Si Si1 0.836961 0.907444 0.693574
Si Si2 0.902243 0.925314 0.095500
Si Si3 0.386018 0.560098 0.377646
Si Si4 0.469160 0.351155 0.788274
Si Si5 0.839613 0.780386 0.594249
Si Si6 0.655369 0.942566 0.478673
Si Si7 0.832799 0.352127 0.769010
O O1 0.891716 0.891716 0.750000
O O2 0.749828 0.953816 0.712134
O O3 0.820887 0.818748 0.658973
O O4 0.897071 0.972074 0.657672
O O5 0.960441 0.880125 0.144582
O O6 0.802298 0.899935 0.096901
O O7 0.897718 0.025299 0.105739
O O8 0.951455 0.906236 0.034747
O O9 0.340946 0.529443 0.438740
O O10 0.338006 0.629670 0.335458
O O11 0.396880 0.396880 0.750000
O O12 0.562567 0.372326 0.761038
O O13 0.750000 0.750000 0.566728
O O14 0.878439 0.857419 0.555268
O O15 0.750000 0.923341 0.500000
O O16 0.859006 0.270701 0.728762
#
# Coordination Sequence:
#
# PCOD8317029 Si02
#       7
#    16  16  16  16  16  16  16
#     4  11  24  38  60  97 141 176 220 278 340 412
#     4  12  23  38  66  98 137 180 219 274 342 406
#     4  11  25  44  62  96 135 177 234 274 337 408
#     4  12  23  39  66 100 134 175 219 284 348 409
#     4  11  21  38  63 100 135 177 220 274 347 420
#     4  11  23  42  70  97 136 179 225 282 341 417
#     4  11  25  45  69  91 130 183 232 280 340 415
#
# _framework density 20.205051999999998
#
# number of rings (size 3 to 8) (size 9 to 14) (size 15 to 20)
#    0.000    0.714    5.714    2.571    2.000    0.000 
#    2.571    0.000    0.000    0.000    0.000    0.000 
#    0.000    0.000    0.000    0.000    0.000    0.000 
#
# Total GULP energy -1388216.702197 kJ/mol
# GULP energy per Si atom -12394.791984 kJ/mol
# Density = 2.015906 g / cm^3
# Si number density = 20.205052 Si / 1000 Ang^3
#
#
#
# Elastic Constant Matrix: (Units=GPa)
#
#
# Indices 1 2 3 4 5 6 
#
# 1 94.9706 28.8376 40.9767 0.0000 0.0000 0.0000
# 2 28.8376 94.9706 40.9767 0.0000 0.0000 0.0000
# 3 40.9767 40.9767 128.7958 0.0000 0.0000 0.0000
# 4 0.0000 0.0000 0.0000 31.5304 0.0000 0.0000
# 5 0.0000 0.0000 0.0000 0.0000 31.5304 0.0000
# 6 0.0000 0.0000 0.0000 0.0000 0.0000 27.5171
#
#
#
# Elastic Compliance Matrix: (Units=1/GPa)
#
#
# Indices 1 2 3 4 5 6 
#
# 1 0.012676 -0.002445 -0.003255 0.000000 0.000000 0.000000
# 2 -0.002445 0.012676 -0.003255 0.000000 0.000000 0.000000
# 3 -0.003255 -0.003255 0.009836 0.000000 0.000000 0.000000
# 4 0.000000 0.000000 0.000000 0.031715 0.000000 0.000000
# 5 0.000000 0.000000 0.000000 0.000000 0.031715 0.000000
# 6 0.000000 0.000000 0.000000 0.000000 0.000000 0.036341
#
#
# Mechanical properties :
#
#
# Convention : Reuss Voigt Hill
#
# Bulk Modulus (GPa) = 57.87675 60.03542 58.95609
# Shear Modulus (GPa) = 31.51987 31.97863 31.74925
#
# Velocity S-wave (km/s) = 3.95397 3.98264 3.96833
# Velocity P-wave (km/s) = 7.03932 7.13625 7.08795
#
# Compressibility (1/GPa) = 0.01727809
#
# Stress axis : x y z
#
# Youngs Moduli (GPa) = 78.88659 78.88659 101.67174
#
# Poissons Ratio (x) = 0.19285 0.33097
# Poissons Ratio (y) = 0.19285 0.33097
# Poissons Ratio (z) = 0.25680 0.25680
#
# Static dielectric constant tensor:
#      x y z
#    x 3.464660 0.000000 0.000000 
#    y 0.000000 3.464660 0.000000 
#    z 0.000000 0.000000 4.169770 
# 
# 
# High freq. dielectric constant tensor:
#      x y z
#    x 1.782930 0.000000 0.000000 
#    y 0.000000 1.782930 0.000000 
#    z 0.000000 0.000000 1.799000 
# 
# From -- ./inp_files/7236.got.cif
#   From: 2010.03.12/outbox.cif.g09.slc.cpg/sg133_4_cif.got.tgz:7236.got - 2010.04.06 18:08:06.
