data_PCOD8317171
_publ_section_title
;
Structure prediction by ZEFSAII (Michael W. Deem and Ramdas Pophale) SiO2 
 PCOD8317171
Probable space group: P 42/N N M
;
_chemical_formula_sum "Si O2"
_cell_formula_units_Z 72
_cell_length_a 11.573902
_cell_length_b 11.573902
_cell_length_c 27.243024
_cell_angle_alpha 90.000000
_cell_angle_beta 90.000000
_cell_angle_gamma 90.000000
_cell_volume 3649.344933
_symmetry_space_group_name_H-M "P 42/N N M"
_symmetry_group_IT_number 134
_space_group.IT_coordinate_system_code '2'
_symmetry_cell_setting 'tetragonal'
loop_
_space_group_symop_operation_xyz
x,y,z
1/2-y,x,1/2+z
1/2-x,1/2-y,z
y,1/2-x,1/2+z
x,1/2-y,1/2-z
1/2-x,y,1/2-z
y,x,-z
1/2-y,1/2-x,-z
-x,-y,-z
1/2+y,-x,1/2-z
1/2+x,1/2+y,-z
-y,1/2+x,1/2-z
-x,1/2+y,1/2+z
1/2+x,-y,1/2+z
-y,-x,z
1/2+y,1/2+x,z
loop_
_atom_site_type_symbol
_atom_site_label
_atom_site_fract_x
_atom_site_fract_y
_atom_site_fract_z
Si Si1 0.694159 0.488753 0.410870
Si Si2 0.622419 0.730128 0.399334
Si Si3 0.250000 0.560101 0.750000
Si Si4 0.496621 0.812871 0.490225
Si Si5 0.945931 0.626718 0.661928
O O1 0.630535 0.369466 0.398516
O O2 0.616476 0.593432 0.388110
O O3 0.711434 0.501555 0.469399
O O4 0.820109 0.490434 0.385928
O O5 0.750000 0.750000 0.423361
O O6 0.520342 0.759609 0.436786
O O7 0.612845 0.808853 0.349630
O O8 0.141976 0.641976 0.765520
O O9 0.286462 0.473432 0.793485
O O10 0.591664 0.908337 0.500000
O O11 0.369410 0.869410 0.489995
O O12 0.000635 0.500635 0.671684
#
# Coordination Sequence:
#
# PCOD8317171 Si02
#       5
#    16  16   8  16  16
#     4  11  23  35  51  77 109 145 182 225 273 321
#     4  10  20  33  51  73 104 143 179 215 262 319
#     4   9  18  32  53  84 118 142 167 219 282 330
#     4  11  20  32  51  74 101 138 182 224 264 317
#     4  10  19  34  57  80 105 139 177 218 270 328
#
# _framework density 19.729568
#
# number of rings (size 3 to 8) (size 9 to 14) (size 15 to 20)
#    0.000    1.667    4.444    2.667    0.000    4.444 
#    0.000    5.000    0.000    2.000    0.000    0.000 
#    0.000    0.000    0.000   33.778    0.000    0.000 
#
# Total GULP energy -892346.512041 kJ/mol
# GULP energy per Si atom -12393.701556 kJ/mol
# Density = 1.968466 g / cm^3
# Si number density = 19.729568 Si / 1000 Ang^3
#
#
#
# Elastic Constant Matrix: (Units=GPa)
#
#
# Indices 1 2 3 4 5 6 
#
# 1 62.8288 25.9337 21.5041 0.0000 0.0000 0.0000
# 2 25.9337 62.8289 21.5041 0.0000 0.0000 0.0000
# 3 21.5041 21.5041 90.8252 0.0000 0.0000 0.0000
# 4 0.0000 0.0000 0.0000 27.8116 0.0000 0.0000
# 5 0.0000 0.0000 0.0000 0.0000 27.8114 0.0000
# 6 0.0000 0.0000 0.0000 0.0000 0.0000 24.9959
#
#
#
# Elastic Compliance Matrix: (Units=1/GPa)
#
#
# Indices 1 2 3 4 5 6 
#
# 1 0.019915 -0.007189 -0.003013 0.000000 0.000000 0.000000
# 2 -0.007189 0.019915 -0.003013 0.000000 0.000000 0.000000
# 3 -0.003013 -0.003013 0.012437 0.000000 0.000000 0.000000
# 4 0.000000 0.000000 0.000000 0.035956 0.000000 0.000000
# 5 0.000000 0.000000 0.000000 0.000000 0.035956 0.000000
# 6 0.000000 0.000000 0.000000 0.000000 0.000000 0.040007
#
#
# Mechanical properties :
#
#
# Convention : Reuss Voigt Hill
#
# Bulk Modulus (GPa) = 38.70475 39.37407 39.03941
# Shear Modulus (GPa) = 25.09686 25.95985 25.52836
#
# Velocity S-wave (km/s) = 3.57044 3.63131 3.60100
# Velocity P-wave (km/s) = 6.05455 6.13042 6.09261
#
# Compressibility (1/GPa) = 0.02583662
#
# Stress axis : x y z
#
# Youngs Moduli (GPa) = 50.21375 50.21382 80.40580
#
# Poissons Ratio (x) = 0.36098 0.24227
# Poissons Ratio (y) = 0.36098 0.24227
# Poissons Ratio (z) = 0.15130 0.15130
#
# Static dielectric constant tensor:
#      x y z
#    x 3.566170 0.000000 0.000000 
#    y 0.000000 3.566170 0.000000 
#    z 0.000000 0.000000 3.454350 
# 
# 
# High freq. dielectric constant tensor:
#      x y z
#    x 1.754590 0.000000 0.000000 
#    y 0.000000 1.754590 0.000000 
#    z 0.000000 0.000000 1.741910 
# 
# From -- ./inp_files/10588.got.cif
#   From: 2010.03.12/outbox.cif.g09.slc.cpg/sg134_6_cif.got.tgz:10588.got - 2010.04.06 18:17:22.
