data_PCOD8317995
_publ_section_title
;
Structure prediction by ZEFSAII (Michael W. Deem and Ramdas Pophale) SiO2 
 PCOD8317995
Probable space group: P 42/M N M
;
_chemical_formula_sum "Si O2"
_cell_formula_units_Z 96
_cell_length_a 25.182135
_cell_length_b 25.182135
_cell_length_c 9.295007
_cell_angle_alpha 90.000000
_cell_angle_beta 90.000000
_cell_angle_gamma 90.000000
_cell_volume 5894.335025
_symmetry_space_group_name_H-M "P 42/M N M"
_symmetry_group_IT_number 136
_symmetry_cell_setting 'tetragonal'
loop_
_space_group_symop_operation_xyz
x,y,z
1/2-y,1/2+x,1/2+z
-x,-y,z
1/2+y,1/2-x,1/2+z
1/2+x,1/2-y,1/2-z
1/2-x,1/2+y,1/2-z
y,x,-z
-y,-x,-z
-x,-y,-z
1/2+y,1/2-x,1/2-z
x,y,-z
1/2-y,1/2+x,1/2-z
1/2-x,1/2+y,1/2+z
1/2+x,1/2-y,1/2+z
-y,-x,z
y,x,z
loop_
_atom_site_type_symbol
_atom_site_label
_atom_site_fract_x
_atom_site_fract_y
_atom_site_fract_z
Si Si1 0.253494 0.046710 0.162167
Si Si2 0.443872 0.358328 0.167722
Si Si3 0.446886 0.637180 0.334330
Si Si4 0.367393 0.061087 0.838658
Si Si5 0.359762 0.935883 0.833914
Si Si6 0.740623 0.057264 0.666346
O O1 0.197299 0.077038 0.180759
O O2 0.306417 0.082944 0.178917
O O3 0.255902 0.003615 0.286962
O O4 0.255811 0.020743 0.000000
O O5 0.400221 0.400221 0.220807
O O6 0.497924 0.369474 0.252254
O O7 0.419242 0.299500 0.196896
O O8 0.457060 0.364853 0.000000
O O9 0.458202 0.623914 0.500000
O O10 0.403217 0.596784 0.270089
O O11 0.405890 0.089177 0.727270
O O12 0.367439 0.998291 0.806076
O O13 0.388187 0.072097 0.000000
O O14 0.306102 0.914216 0.756686
O O15 0.354849 0.921815 0.000000
O O16 0.724989 0.061327 0.500000
#
# Coordination Sequence:
#
# PCOD8317995 Si02
#       6
#    16  16  16  16  16  16
#     4   8  15  29  46  64  88 117 151 188 222 259
#     4   9  18  31  46  66  92 121 152 186 225 268
#     4   9  17  29  46  68  93 121 153 188 225 266
#     4   9  18  31  46  65  89 118 150 182 219 263
#     4  10  20  32  47  68  93 119 146 180 222 264
#     4   9  16  28  47  66  85 114 152 188 220 260
#
# _framework density 16.286823999999999
#
# number of rings (size 3 to 8) (size 9 to 14) (size 15 to 20)
#    0.000    3.000    0.000    2.000    0.000    5.333 
#    0.000    3.333    0.000    1.000    0.000    4.667 
#    0.000    0.000    0.000    0.000    0.000    0.000 
#
# Total GULP energy -1189387.188512 kJ/mol
# GULP energy per Si atom -12389.449880 kJ/mol
# Density = 1.624975 g / cm^3
# Si number density = 16.286824 Si / 1000 Ang^3
#
#
#
# Elastic Constant Matrix: (Units=GPa)
#
#
# Indices 1 2 3 4 5 6 
#
# 1 87.3816 55.5459 49.8148 0.0000 0.0000 0.0000
# 2 55.5459 87.3816 49.8148 0.0000 0.0000 0.0000
# 3 49.8148 49.8148 83.0509 0.0000 0.0000 0.0000
# 4 0.0000 0.0000 0.0000 23.9564 0.0000 0.0000
# 5 0.0000 0.0000 0.0000 0.0000 23.9564 0.0000
# 6 0.0000 0.0000 0.0000 0.0000 0.0000 3.5995
#
#
#
# Elastic Compliance Matrix: (Units=1/GPa)
#
#
# Indices 1 2 3 4 5 6 
#
# 1 0.021718 -0.009694 -0.007212 0.000000 0.000000 0.000000
# 2 -0.009694 0.021718 -0.007212 0.000000 0.000000 0.000000
# 3 -0.007212 -0.007212 0.020692 0.000000 0.000000 0.000000
# 4 0.000000 0.000000 0.000000 0.041743 0.000000 0.000000
# 5 0.000000 0.000000 0.000000 0.000000 0.041743 0.000000
# 6 0.000000 0.000000 0.000000 0.000000 0.000000 0.277818
#
#
# Mechanical properties :
#
#
# Convention : Reuss Voigt Hill
#
# Bulk Modulus (GPa) = 62.92448 63.12944 63.02696
# Shear Modulus (GPa) = 10.43921 17.14502 13.79211
#
# Velocity S-wave (km/s) = 2.53447 3.24804 2.91319
# Velocity P-wave (km/s) = 6.87632 7.27403 7.07797
#
# Compressibility (1/GPa) = 0.01589207
#
# Stress axis : x y z
#
# Youngs Moduli (GPa) = 46.04573 46.04573 48.32675
#
# Poissons Ratio (x) = 0.44636 0.34853
# Poissons Ratio (y) = 0.44636 0.34853
# Poissons Ratio (z) = 0.33208 0.33208
#
# Static dielectric constant tensor:
#      x y z
#    x 3.107880 0.000000 0.000000 
#    y 0.000000 3.107880 0.000000 
#    z 0.000000 0.000000 3.124010 
# 
# 
# High freq. dielectric constant tensor:
#      x y z
#    x 1.608480 0.000000 0.000000 
#    y 0.000000 1.608480 0.000000 
#    z 0.000000 0.000000 1.635090 
# 
# From -- ./inp_files/2180.got.cif
#   From: 2010.03.12/outbox.cif.g09.slc.cpg/sg136_2_cif.got.tgz:2180.got - 2010.04.06 18:39:43.
