data_PCOD8317474
_publ_section_title
;
Structure prediction by ZEFSAII (Michael W. Deem and Ramdas Pophale) SiO2 
 PCOD8317474
Probable space group: P 42/M B C
;
_chemical_formula_sum "Si O2"
_cell_formula_units_Z 112
_cell_length_a 26.489744
_cell_length_b 26.489744
_cell_length_c 9.368324
_cell_angle_alpha 90.000000
_cell_angle_beta 90.000000
_cell_angle_gamma 90.000000
_cell_volume 6573.814193
_symmetry_space_group_name_H-M "P 42/M B C"
_symmetry_group_IT_number 135
_symmetry_cell_setting 'tetragonal'
loop_
_space_group_symop_operation_xyz
x,y,z
-y,x,1/2+z
-x,-y,z
y,-x,1/2+z
1/2+x,1/2-y,-z
1/2-x,1/2+y,-z
1/2+y,1/2+x,1/2-z
1/2-y,1/2-x,1/2-z
-x,-y,-z
y,-x,1/2-z
x,y,-z
-y,x,1/2-z
1/2-x,1/2+y,z
1/2+x,1/2-y,z
1/2-y,1/2-x,1/2+z
1/2+y,1/2+x,1/2+z
loop_
_atom_site_type_symbol
_atom_site_label
_atom_site_fract_x
_atom_site_fract_y
_atom_site_fract_z
Si Si1 0.540670 0.816335 0.835741
Si Si2 0.606800 0.680115 0.666588
Si Si3 0.703061 0.489194 0.664575
Si Si4 0.122136 0.445124 0.664689
Si Si5 0.100688 0.188098 0.830423
Si Si6 0.792865 0.362711 0.832114
Si Si7 0.705113 0.137270 0.332878
O O1 0.512233 0.763242 0.813082
O O2 0.502097 0.861384 0.795811
O O3 0.588242 0.821149 0.731168
O O4 0.558796 0.821012 0.000000
O O5 0.595796 0.674716 0.500000
O O6 0.553893 0.675108 0.746538
O O7 0.641831 0.634787 0.724234
O O8 0.634010 0.733273 0.699549
O O9 0.689008 0.481015 0.500000
O O10 0.682429 0.542945 0.722061
O O11 0.072091 0.427910 0.750000
O O12 0.108163 0.440893 0.500000
O O13 0.168941 0.409424 0.703829
O O14 0.124248 0.239854 0.771486
O O15 0.100914 0.191363 0.000000
O O16 0.813464 0.313464 0.750000
O O17 0.804378 0.358844 0.000000
O O18 0.686936 0.186936 0.250000
O O19 0.705937 0.149363 0.500000
#
# Coordination Sequence:
#
# PCOD8317474 Si02
#       7
#    16  16  16  16  16  16  16
#     4   9  16  29  49  70  91 121 162 201 234 275
#     4   9  19  33  49  72  98 124 156 196 238 277
#     4   9  16  30  51  70  90 121 161 198 231 277
#     4   9  16  26  42  66  95 123 153 189 231 277
#     4   9  16  30  51  69  93 130 161 187 232 286
#     4  10  20  33  49  70  96 127 160 196 236 277
#     4   9  16  27  42  65  95 126 156 184 222 276
#
# _framework density 17.037292999999998
#
# number of rings (size 3 to 8) (size 9 to 14) (size 15 to 20)
#    0.000    2.857    1.429    0.429    0.000    1.714 
#    0.000    2.143    0.000    0.857    0.000    6.000 
#    0.000    0.000    0.000    0.000    0.000    0.000 
#
# Total GULP energy -1388629.814422 kJ/mol
# GULP energy per Si atom -12398.480486 kJ/mol
# Density = 1.699852 g / cm^3
# Si number density = 17.037293 Si / 1000 Ang^3
#
#
#
# Elastic Constant Matrix: (Units=GPa)
#
#
# Indices 1 2 3 4 5 6 
#
# 1 88.5080 53.6469 38.1604 0.0000 0.0000 0.0000
# 2 53.6469 88.5073 38.1598 0.0000 0.0000 0.0000
# 3 38.1604 38.1598 53.6933 0.0000 0.0000 0.0000
# 4 0.0000 0.0000 0.0000 23.5207 0.0000 0.0000
# 5 0.0000 0.0000 0.0000 0.0000 23.5208 0.0000
# 6 0.0000 0.0000 0.0000 0.0000 0.0000 26.7075
#
#
#
# Elastic Compliance Matrix: (Units=1/GPa)
#
#
# Indices 1 2 3 4 5 6 
#
# 1 0.020030 -0.008655 -0.008084 0.000000 0.000000 0.000000
# 2 -0.008655 0.020030 -0.008084 0.000000 0.000000 0.000000
# 3 -0.008084 -0.008084 0.030115 0.000000 0.000000 0.000000
# 4 0.000000 0.000000 0.000000 0.042516 0.000000 0.000000
# 5 0.000000 0.000000 0.000000 0.000000 0.042516 0.000000
# 6 0.000000 0.000000 0.000000 0.000000 0.000000 0.037443
#
#
# Mechanical properties :
#
#
# Convention : Reuss Voigt Hill
#
# Bulk Modulus (GPa) = 48.71334 54.51587 51.61460
# Shear Modulus (GPa) = 20.06906 21.46590 20.76748
#
# Velocity S-wave (km/s) = 3.43585 3.55341 3.49512
# Velocity P-wave (km/s) = 6.66291 6.99307 6.82998
#
# Compressibility (1/GPa) = 0.02052826
#
# Stress axis : x y z
#
# Youngs Moduli (GPa) = 49.92450 49.92465 33.20581
#
# Poissons Ratio (x) = 0.43212 0.26845
# Poissons Ratio (y) = 0.43212 0.26843
# Poissons Ratio (z) = 0.40361 0.40359
#
# Static dielectric constant tensor:
#      x y z
#    x 3.184030 0.000000 0.000000 
#    y 0.000000 3.184040 0.000000 
#    z 0.000000 0.000000 3.040440 
# 
# 
# High freq. dielectric constant tensor:
#      x y z
#    x 1.645130 0.000000 0.000000 
#    y 0.000000 1.645130 0.000000 
#    z 0.000000 0.000000 1.641600 
# 
# From -- ./inp_files/2652.got.cif
#   From: 2010.03.12/outbox.cif.g09.slc.cpg/sg135_2_cif.got.tgz:2652.got - 2010.04.06 18:31:24.
