data_PCOD8317798
_publ_section_title
;
Structure prediction by ZEFSAII (Michael W. Deem and Ramdas Pophale) SiO2 
 PCOD8317798
Probable space group: P 42/M N M
;
_chemical_formula_sum "Si O2"
_cell_formula_units_Z 76
_cell_length_a 14.862779
_cell_length_b 14.862779
_cell_length_c 18.049842
_cell_angle_alpha 90.000000
_cell_angle_beta 90.000000
_cell_angle_gamma 90.000000
_cell_volume 3987.249800
_symmetry_space_group_name_H-M "P 42/M N M"
_symmetry_group_IT_number 136
_symmetry_cell_setting 'tetragonal'
loop_
_space_group_symop_operation_xyz
x,y,z
1/2-y,1/2+x,1/2+z
-x,-y,z
1/2+y,1/2-x,1/2+z
1/2+x,1/2-y,1/2-z
1/2-x,1/2+y,1/2-z
y,x,-z
-y,-x,-z
-x,-y,-z
1/2+y,1/2-x,1/2-z
x,y,-z
1/2-y,1/2+x,1/2-z
1/2-x,1/2+y,1/2+z
1/2+x,1/2-y,1/2+z
-y,-x,z
y,x,z
loop_
_atom_site_type_symbol
_atom_site_label
_atom_site_fract_x
_atom_site_fract_y
_atom_site_fract_z
Si Si1 0.380649 0.118795 0.826688
Si Si2 0.579980 0.167695 0.158688
Si Si3 0.500000 0.500000 0.249824
Si Si4 0.358628 0.641373 0.807183
Si Si5 0.761977 0.238024 0.710312
Si Si6 0.042159 0.708186 0.914947
Si Si7 0.869267 0.130734 0.163428
O O1 0.373612 0.108290 0.737920
O O2 0.480763 0.130275 0.856606
O O3 0.333433 0.214170 0.843064
O O4 0.329919 0.039436 0.867264
O O5 0.591231 0.275660 0.151202
O O6 0.642901 0.127286 0.094932
O O7 0.565522 0.434479 0.203492
O O8 0.436149 0.436149 0.296327
O O9 0.312847 0.687154 0.735033
O O10 0.808717 0.191284 0.781576
O O11 0.068596 0.806934 0.887489
O O12 0.013089 0.712940 0.000000
#
# Coordination Sequence:
#
# PCOD8317798 Si02
#       7
#    16  16   4   8   8  16   8
#     4  11  20  35  60  89 118 160 205 270 307 367
#     4  11  20  36  60  84 121 161 211 257 312 364
#     4  12  24  34  65 100 127 154 212 268 308 374
#     4  10  20  35  55  92 120 154 202 259 305 356
#     4  10  18  37  63  87 118 164 220 248 307 368
#     4  12  25  39  60  92 128 166 208 257 321 387
#     4  12  21  43  60  87 129 168 207 256 308 382
#
# _framework density 19.060758
#
# number of rings (size 3 to 8) (size 9 to 14) (size 15 to 20)
#    0.000    0.842    6.316    4.737    0.000    1.684 
#    0.000    2.632    0.000    0.000    0.000    2.947 
#    0.000    0.000    0.000    0.211    0.000    0.000 
#
# Total GULP energy -941966.341540 kJ/mol
# GULP energy per Si atom -12394.293968 kJ/mol
# Density = 1.901737 g / cm^3
# Si number density = 19.060758 Si / 1000 Ang^3
#
#
#
# Elastic Constant Matrix: (Units=GPa)
#
#
# Indices 1 2 3 4 5 6 
#
# 1 101.1730 20.0091 24.3987 0.0000 0.0000 0.0000
# 2 20.0091 101.1730 24.3987 0.0000 0.0000 0.0000
# 3 24.3987 24.3987 48.8823 0.0000 0.0000 0.0000
# 4 0.0000 0.0000 0.0000 10.6686 0.0000 0.0000
# 5 0.0000 0.0000 0.0000 0.0000 10.6686 0.0000
# 6 0.0000 0.0000 0.0000 0.0000 0.0000 53.8973
#
#
#
# Elastic Compliance Matrix: (Units=1/GPa)
#
#
# Indices 1 2 3 4 5 6 
#
# 1 0.011324 -0.000996 -0.005155 0.000000 0.000000 0.000000
# 2 -0.000996 0.011324 -0.005155 0.000000 0.000000 0.000000
# 3 -0.005155 -0.005155 0.025603 0.000000 0.000000 0.000000
# 4 0.000000 0.000000 0.000000 0.093733 0.000000 0.000000
# 5 0.000000 0.000000 0.000000 0.000000 0.093733 0.000000
# 6 0.000000 0.000000 0.000000 0.000000 0.000000 0.018554
#
#
# Mechanical properties :
#
#
# Convention : Reuss Voigt Hill
#
# Bulk Modulus (GPa) = 39.00282 43.20458 41.10370
# Shear Modulus (GPa) = 17.51740 27.20836 22.36288
#
# Velocity S-wave (km/s) = 3.03484 3.78227 3.42898
# Velocity P-wave (km/s) = 5.72600 6.46452 6.10644
#
# Compressibility (1/GPa) = 0.02563917
#
# Stress axis : x y z
#
# Youngs Moduli (GPa) = 88.30580 88.30580 39.05753
#
# Poissons Ratio (x) = 0.08799 0.20134
# Poissons Ratio (y) = 0.08799 0.20134
# Poissons Ratio (z) = 0.45521 0.45521
#
# Static dielectric constant tensor:
#      x y z
#    x 3.837990 0.000000 0.000000 
#    y 0.000000 3.837990 0.000000 
#    z 0.000000 0.000000 3.043370 
# 
# 
# High freq. dielectric constant tensor:
#      x y z
#    x 1.761150 0.000000 0.000000 
#    y 0.000000 1.761150 0.000000 
#    z 0.000000 0.000000 1.682930 
# 
# From -- ./inp_files/7311.got.cif
#   From: 2010.03.12/outbox.cif.g09.slc.cpg/sg136_4_cif.got.tgz:7311.got - 2010.04.06 18:39:43.
