data_PCOD8317160
_publ_section_title
;
Structure prediction by ZEFSAII (Michael W. Deem and Ramdas Pophale) SiO2 
 PCOD8317160
Probable space group: P 42/N N M
;
_chemical_formula_sum "Si O2"
_cell_formula_units_Z 80
_cell_length_a 24.052087
_cell_length_b 24.052087
_cell_length_c 7.700061
_cell_angle_alpha 90.000000
_cell_angle_beta 90.000000
_cell_angle_gamma 90.000000
_cell_volume 4454.507534
_symmetry_space_group_name_H-M "P 42/N N M"
_symmetry_group_IT_number 134
_space_group.IT_coordinate_system_code '2'
_symmetry_cell_setting 'tetragonal'
loop_
_space_group_symop_operation_xyz
x,y,z
1/2-y,x,1/2+z
1/2-x,1/2-y,z
y,1/2-x,1/2+z
x,1/2-y,1/2-z
1/2-x,y,1/2-z
y,x,-z
1/2-y,1/2-x,-z
-x,-y,-z
1/2+y,-x,1/2-z
1/2+x,1/2+y,-z
-y,1/2+x,1/2-z
-x,1/2+y,1/2+z
1/2+x,-y,1/2+z
-y,-x,z
1/2+y,1/2+x,z
loop_
_atom_site_type_symbol
_atom_site_label
_atom_site_fract_x
_atom_site_fract_y
_atom_site_fract_z
Si Si1 0.044166 0.289292 0.585066
Si Si2 0.448030 0.638499 0.617353
Si Si3 0.123503 0.376498 0.500000
Si Si4 0.250000 0.989089 0.750000
Si Si5 0.922075 0.557923 0.187265
Si Si6 0.383600 0.970167 0.266692
O O1 0.044662 0.250000 0.750000
O O2 0.107043 0.314381 0.563264
O O3 0.028840 0.254078 0.416621
O O4 0.998214 0.338780 0.604821
O O5 0.387845 0.612156 0.656697
O O6 0.450569 0.696273 0.721581
O O7 0.493566 0.594004 0.681029
O O8 0.455202 0.648452 0.411247
O O9 0.116070 0.416261 0.664885
O O10 0.986662 0.566070 0.233888
O O11 0.911947 0.588054 0.000000
O O12 0.414186 0.914186 0.341811
#
# Coordination Sequence:
#
# PCOD8317160 Si02
#       6
#    16  16   8   8  16  16
#     4  11  22  37  54  80 114 145 184 231 268 330
#     4  10  19  33  53  78 112 146 180 221 265 318
#     4  10  20  34  55  80 107 146 182 214 282 319
#     4  12  22  36  54  81 111 146 188 220 274 314
#     4   9  17  31  50  78 113 143 169 206 262 338
#     4   9  18  33  54  79 113 148 175 213 272 336
#
# _framework density 17.959336
#
# number of rings (size 3 to 8) (size 9 to 14) (size 15 to 20)
#    0.000    2.000    4.000    0.600    0.000    3.200 
#    0.000    2.500    0.000    0.300    0.000    2.100 
#    0.000    0.400    0.000    0.000    0.000    0.000 
#
# Total GULP energy -991169.496166 kJ/mol
# GULP energy per Si atom -12389.618702 kJ/mol
# Density = 1.791846 g / cm^3
# Si number density = 17.959336 Si / 1000 Ang^3
#
#
#
# Elastic Constant Matrix: (Units=GPa)
#
#
# Indices 1 2 3 4 5 6 
#
# 1 80.5154 42.4914 33.6851 0.0000 0.0000 0.0000
# 2 42.4914 80.5144 33.6850 0.0000 0.0000 0.0000
# 3 33.6851 33.6850 98.6975 0.0000 0.0000 0.0000
# 4 0.0000 0.0000 0.0000 19.6693 0.0000 0.0000
# 5 0.0000 0.0000 0.0000 0.0000 19.6694 0.0000
# 6 0.0000 0.0000 0.0000 0.0000 0.0000 20.5476
#
#
#
# Elastic Compliance Matrix: (Units=1/GPa)
#
#
# Indices 1 2 3 4 5 6 
#
# 1 0.018149 -0.008150 -0.003412 0.000000 0.000000 0.000000
# 2 -0.008150 0.018149 -0.003413 0.000000 0.000000 0.000000
# 3 -0.003412 -0.003413 0.012461 0.000000 0.000000 0.000000
# 4 0.000000 0.000000 0.000000 0.050841 0.000000 0.000000
# 5 0.000000 0.000000 0.000000 0.000000 0.050840 0.000000
# 6 0.000000 0.000000 0.000000 0.000000 0.000000 0.048667
#
#
# Mechanical properties :
#
#
# Convention : Reuss Voigt Hill
#
# Bulk Modulus (GPa) = 53.16704 53.27227 53.21965
# Shear Modulus (GPa) = 21.24689 21.96831 21.60760
#
# Velocity S-wave (km/s) = 3.44329 3.50126 3.47239
# Velocity P-wave (km/s) = 6.74364 6.78765 6.76568
#
# Compressibility (1/GPa) = 0.01880864
#
# Stress axis : x y z
#
# Youngs Moduli (GPa) = 55.09942 55.09877 80.24835
#
# Poissons Ratio (x) = 0.44908 0.27385
# Poissons Ratio (y) = 0.44908 0.27385
# Poissons Ratio (z) = 0.18803 0.18803
#
# Static dielectric constant tensor:
#      x y z
#    x 3.167120 0.000000 0.000000 
#    y 0.000000 3.167130 0.000000 
#    z 0.000000 0.000000 3.525400 
# 
# 
# High freq. dielectric constant tensor:
#      x y z
#    x 1.664390 0.000000 0.000000 
#    y 0.000000 1.664390 0.000000 
#    z 0.000000 0.000000 1.714490 
# 
# From -- ./inp_files/3134.got.cif
#   From: 2010.03.12/outbox.cif.g09.slc.cpg/sg134_2_cif.got.tgz:3134.got - 2010.04.06 18:17:22.
