data_PCOD8317799
_publ_section_title
;
Structure prediction by ZEFSAII (Michael W. Deem and Ramdas Pophale) SiO2 
 PCOD8317799
Probable space group: P 42/M N M
;
_chemical_formula_sum "Si O2"
_cell_formula_units_Z 96
_cell_length_a 23.236835
_cell_length_b 23.236835
_cell_length_c 9.175700
_cell_angle_alpha 90.000000
_cell_angle_beta 90.000000
_cell_angle_gamma 90.000000
_cell_volume 4954.423810
_symmetry_space_group_name_H-M "P 42/M N M"
_symmetry_group_IT_number 136
_symmetry_cell_setting 'tetragonal'
loop_
_space_group_symop_operation_xyz
x,y,z
1/2-y,1/2+x,1/2+z
-x,-y,z
1/2+y,1/2-x,1/2+z
1/2+x,1/2-y,1/2-z
1/2-x,1/2+y,1/2-z
y,x,-z
-y,-x,-z
-x,-y,-z
1/2+y,1/2-x,1/2-z
x,y,-z
1/2-y,1/2+x,1/2-z
1/2-x,1/2+y,1/2+z
1/2+x,1/2-y,1/2+z
-y,-x,z
y,x,z
loop_
_atom_site_type_symbol
_atom_site_label
_atom_site_fract_x
_atom_site_fract_y
_atom_site_fract_z
Si Si1 0.972513 0.428643 0.161819
Si Si2 0.072865 0.072865 0.171757
Si Si3 0.220724 0.604008 0.172447
Si Si4 0.620546 0.530327 0.164734
Si Si5 0.158426 0.158426 0.671348
Si Si6 0.889636 0.327040 0.837274
Si Si7 0.746900 0.024640 0.670263
O O1 0.926393 0.473645 0.228445
O O2 0.944586 0.367420 0.152561
O O3 0.991428 0.448550 0.000000
O O4 0.116782 0.116782 0.243670
O O5 0.008708 0.086323 0.222315
O O6 0.077775 0.077775 0.000000
O O7 0.276410 0.641934 0.216544
O O8 0.165068 0.639197 0.233318
O O9 0.224279 0.537744 0.232476
O O10 0.214836 0.599553 0.000000
O O11 0.594854 0.594854 0.176343
O O12 0.686553 0.529118 0.208729
O O13 0.613035 0.506317 0.000000
O O14 0.149054 0.149054 0.500000
O O15 0.915799 0.276824 0.738677
O O16 0.873477 0.304541 0.000000
O O17 0.733748 0.027612 0.500000
#
# Coordination Sequence:
#
# PCOD8317799 Si02
#       7
#    16   8  16  16   8  16  16
#     4  10  19  31  49  72 104 139 177 229 282 334
#     4  12  23  35  58  93 128 150 176 232 299 343
#     4   9  18  35  60  82 105 143 195 239 276 331
#     4  10  21  39  63  87 113 152 198 233 271 339
#     4  10  18  37  65  84 106 151 204 239 269 328
#     4  10  21  35  51  79 112 143 182 233 284 338
#     4  10  20  37  60  83 110 150 194 239 283 333
#
# _framework density 19.376622999999999
#
# number of rings (size 3 to 8) (size 9 to 14) (size 15 to 20)
#    0.000    2.000    1.667    3.000    0.000    4.667 
#    1.500    1.667    0.000    0.000    0.000    0.000 
#    0.000    0.000    0.000    0.000    0.000    0.000 
#
# Total GULP energy -1189532.935271 kJ/mol
# GULP energy per Si atom -12390.968076 kJ/mol
# Density = 1.933252 g / cm^3
# Si number density = 19.376623 Si / 1000 Ang^3
#
#
#
# Elastic Constant Matrix: (Units=GPa)
#
#
# Indices 1 2 3 4 5 6 
#
# 1 93.8973 63.1506 26.3539 0.0000 0.0000 0.0000
# 2 63.1506 93.8973 26.3539 0.0000 0.0000 0.0000
# 3 26.3539 26.3539 63.1689 0.0000 0.0000 0.0000
# 4 0.0000 0.0000 0.0000 23.2397 0.0000 0.0000
# 5 0.0000 0.0000 0.0000 0.0000 23.2397 0.0000
# 6 0.0000 0.0000 0.0000 0.0000 0.0000 39.2274
#
#
#
# Elastic Compliance Matrix: (Units=1/GPa)
#
#
# Indices 1 2 3 4 5 6 
#
# 1 0.019964 -0.012560 -0.003089 0.000000 0.000000 0.000000
# 2 -0.012560 0.019964 -0.003089 0.000000 0.000000 0.000000
# 3 -0.003089 -0.003089 0.018408 0.000000 0.000000 0.000000
# 4 0.000000 0.000000 0.000000 0.043030 0.000000 0.000000
# 5 0.000000 0.000000 0.000000 0.000000 0.043030 0.000000
# 6 0.000000 0.000000 0.000000 0.000000 0.000000 0.025492
#
#
# Mechanical properties :
#
#
# Convention : Reuss Voigt Hill
#
# Bulk Modulus (GPa) = 47.93776 53.63115 50.78446
# Shear Modulus (GPa) = 23.32990 26.14836 24.73913
#
# Velocity S-wave (km/s) = 3.47367 3.67751 3.57704
# Velocity P-wave (km/s) = 6.39392 6.76539 6.58227
#
# Compressibility (1/GPa) = 0.02086038
#
# Stress axis : x y z
#
# Youngs Moduli (GPa) = 50.09021 50.09021 54.32410
#
# Poissons Ratio (x) = 0.62912 0.16781
# Poissons Ratio (y) = 0.62912 0.16781
# Poissons Ratio (z) = 0.15473 0.15473
#
# Static dielectric constant tensor:
#      x y z
#    x 3.643680 0.000000 0.000000 
#    y 0.000000 3.643680 0.000000 
#    z 0.000000 0.000000 3.528100 
# 
# 
# High freq. dielectric constant tensor:
#      x y z
#    x 1.754520 0.000000 0.000000 
#    y 0.000000 1.754520 0.000000 
#    z 0.000000 0.000000 1.726920 
# 
# From -- ./inp_files/2033.got.cif
#   From: 2010.03.12/outbox.cif.g09.slc.cpg/sg136_2_cif.got.tgz:2033.got - 2010.04.06 18:39:43.
