data_PCOD8317391
_publ_section_title
;
Structure prediction by ZEFSAII (Michael W. Deem and Ramdas Pophale) SiO2 
 PCOD8317391
Probable space group: P 42/M B C
;
_chemical_formula_sum "Si O2"
_cell_formula_units_Z 56
_cell_length_a 17.463144
_cell_length_b 17.463144
_cell_length_c 9.880061
_cell_angle_alpha 90.000000
_cell_angle_beta 90.000000
_cell_angle_gamma 90.000000
_cell_volume 3013.037218
_symmetry_space_group_name_H-M "P 42/M B C"
_symmetry_group_IT_number 135
_symmetry_cell_setting 'tetragonal'
loop_
_space_group_symop_operation_xyz
x,y,z
-y,x,1/2+z
-x,-y,z
y,-x,1/2+z
1/2+x,1/2-y,-z
1/2-x,1/2+y,-z
1/2+y,1/2+x,1/2-z
1/2-y,1/2-x,1/2-z
-x,-y,-z
y,-x,1/2-z
x,y,-z
-y,x,1/2-z
1/2-x,1/2+y,z
1/2+x,1/2-y,z
1/2-y,1/2-x,1/2+z
1/2+y,1/2+x,1/2+z
loop_
_atom_site_type_symbol
_atom_site_label
_atom_site_fract_x
_atom_site_fract_y
_atom_site_fract_z
Si Si1 0.457748 0.726247 0.787456
Si Si2 0.679857 0.179857 0.750000
Si Si3 0.210467 0.083566 0.500000
Si Si4 0.744077 0.753027 0.500000
Si Si5 0.654785 0.542135 0.000000
Si Si6 0.625264 0.372441 0.000000
O O1 0.408290 0.805110 0.794312
O O2 0.538364 0.734398 0.863799
O O3 0.465916 0.707489 0.631007
O O4 0.412604 0.658828 0.863464
O O5 0.734598 0.202469 0.872928
O O6 0.266430 0.155979 0.500000
O O7 0.118874 0.102885 0.500000
O O8 0.660288 0.712815 0.500000
O O9 0.607785 0.462717 0.000000
#
# Coordination Sequence:
#
# PCOD8317391 Si02
#       6
#    16   8   8   8   8   8
#     4  10  21  34  55  79 111 154 190 228 285 340
#     4  10  18  38  56  80 109 153 198 236 284 334
#     4  11  22  36  54  86 118 144 193 245 292 336
#     4  10  20  36  59  79 109 145 198 252 268 337
#     4  12  20  34  52  82 114 148 182 232 279 351
#     4   9  22  37  53  77 113 154 191 222 290 345
#
# _framework density 18.585898
#
# number of rings (size 3 to 8) (size 9 to 14) (size 15 to 20)
#    0.000    1.714    2.857    2.571    4.000    2.286 
#    0.000    5.714    0.000    0.000    0.000    6.000 
#    0.000    0.000    0.000    0.000    0.000    0.000 
#
# Total GULP energy -693870.126208 kJ/mol
# GULP energy per Si atom -12390.537968 kJ/mol
# Density = 1.854360 g / cm^3
# Si number density = 18.585898 Si / 1000 Ang^3
#
#
#
# Elastic Constant Matrix: (Units=GPa)
#
#
# Indices 1 2 3 4 5 6 
#
# 1 76.6623 32.1116 24.2004 0.0000 0.0000 0.0000
# 2 32.1116 76.6623 24.2004 0.0000 0.0000 0.0000
# 3 24.2004 24.2004 149.4610 0.0000 0.0000 0.0000
# 4 0.0000 0.0000 0.0000 35.0768 0.0000 0.0000
# 5 0.0000 0.0000 0.0000 0.0000 35.0768 0.0000
# 6 0.0000 0.0000 0.0000 0.0000 0.0000 23.8218
#
#
#
# Elastic Compliance Matrix: (Units=1/GPa)
#
#
# Indices 1 2 3 4 5 6 
#
# 1 0.016177 -0.006270 -0.001604 0.000000 0.000000 0.000000
# 2 -0.006270 0.016177 -0.001604 0.000000 0.000000 0.000000
# 3 -0.001604 -0.001604 0.007210 0.000000 0.000000 0.000000
# 4 0.000000 0.000000 0.000000 0.028509 0.000000 0.000000
# 5 0.000000 0.000000 0.000000 0.000000 0.028509 0.000000
# 6 0.000000 0.000000 0.000000 0.000000 0.000000 0.041978
#
#
# Mechanical properties :
#
#
# Convention : Reuss Voigt Hill
#
# Bulk Modulus (GPa) = 48.52497 51.53449 50.02973
# Shear Modulus (GPa) = 30.41642 33.61329 32.01486
#
# Velocity S-wave (km/s) = 4.04980 4.25730 4.15485
# Velocity P-wave (km/s) = 6.93058 7.20792 7.07061
#
# Compressibility (1/GPa) = 0.02060795
#
# Stress axis : x y z
#
# Youngs Moduli (GPa) = 61.81712 61.81712 138.69266
#
# Poissons Ratio (x) = 0.38757 0.22248
# Poissons Ratio (y) = 0.38757 0.22248
# Poissons Ratio (z) = 0.09916 0.09916
#
# Static dielectric constant tensor:
#      x y z
#    x 3.342650 0.000000 0.000000 
#    y 0.000000 3.342650 0.000000 
#    z 0.000000 0.000000 3.789080 
# 
# 
# High freq. dielectric constant tensor:
#      x y z
#    x 1.696540 0.000000 0.000000 
#    y 0.000000 1.696540 0.000000 
#    z 0.000000 0.000000 1.751440 
# 
# From -- ./inp_files/807.got.cif
#   From: 2010.03.12/outbox.cif.g09.slc.cpg/sg135_1_cif.got.tgz:807.got - 2010.04.06 18:31:24.
