data_PCOD8317591
_publ_section_title
;
Structure prediction by ZEFSAII (Michael W. Deem and Ramdas Pophale) SiO2 
 PCOD8317591
Probable space group: P 42/M B C
;
_chemical_formula_sum "Si O2"
_cell_formula_units_Z 64
_cell_length_a 13.125113
_cell_length_b 13.125113
_cell_length_c 17.769479
_cell_angle_alpha 90.000000
_cell_angle_beta 90.000000
_cell_angle_gamma 90.000000
_cell_volume 3061.123115
_symmetry_space_group_name_H-M "P 42/M B C"
_symmetry_group_IT_number 135
_symmetry_cell_setting 'tetragonal'
loop_
_space_group_symop_operation_xyz
x,y,z
-y,x,1/2+z
-x,-y,z
y,-x,1/2+z
1/2+x,1/2-y,-z
1/2-x,1/2+y,-z
1/2+y,1/2+x,1/2-z
1/2-y,1/2-x,1/2-z
-x,-y,-z
y,-x,1/2-z
x,y,-z
-y,x,1/2-z
1/2-x,1/2+y,z
1/2+x,1/2-y,z
1/2-y,1/2-x,1/2+z
1/2+y,1/2+x,1/2+z
loop_
_atom_site_type_symbol
_atom_site_label
_atom_site_fract_x
_atom_site_fract_y
_atom_site_fract_z
Si Si1 0.220394 0.544906 0.169515
Si Si2 0.231843 0.575746 0.656002
Si Si3 0.891712 0.050991 0.915340
Si Si4 0.077539 0.408177 0.917249
O O1 0.237640 0.540928 0.258047
O O2 0.166499 0.650054 0.145130
O O3 0.326771 0.535836 0.126724
O O4 0.159883 0.442541 0.144532
O O5 0.341546 0.612412 0.628180
O O6 0.195335 0.477879 0.608572
O O7 0.851593 0.069608 0.000000
O O8 0.000000 0.000000 0.916499
O O9 0.000000 0.500000 0.923492
O O10 0.126444 0.388592 0.000000
#
# Coordination Sequence:
#
# PCOD8317591 Si02
#       4
#    16  16  16  16
#     4  10  22  40  64  92 125 167 216 263 316 383
#     4  10  22  40  64  94 126 165 211 268 320 380
#     4  11  26  43  62  91 127 168 210 259 322 387
#     4   9  17  34  62  92 123 160 206 263 318 369
#
# _framework density 20.907361000000002
#
# number of rings (size 3 to 8) (size 9 to 14) (size 15 to 20)
#    0.000    2.000    0.000    2.250    3.500    8.000 
#    4.500    2.500    0.000    0.000    0.000    0.000 
#    0.000    0.000    0.000    0.000    0.000    0.000 
#
# Total GULP energy -793444.569762 kJ/mol
# GULP energy per Si atom -12397.571403 kJ/mol
# Density = 2.085977 g / cm^3
# Si number density = 20.907361 Si / 1000 Ang^3
#
#
#
# Elastic Constant Matrix: (Units=GPa)
#
#
# Indices 1 2 3 4 5 6 
#
# 1 96.3732 31.2993 60.1674 0.0000 0.0000 0.0000
# 2 31.2993 96.3732 60.1674 0.0000 0.0000 0.0000
# 3 60.1674 60.1674 174.0254 0.0000 0.0000 0.0000
# 4 0.0000 0.0000 0.0000 20.0271 0.0000 0.0000
# 5 0.0000 0.0000 0.0000 0.0000 20.0271 0.0000
# 6 0.0000 0.0000 0.0000 0.0000 0.0000 29.8205
#
#
#
# Elastic Compliance Matrix: (Units=1/GPa)
#
#
# Indices 1 2 3 4 5 6 
#
# 1 0.013493 -0.001874 -0.004017 0.000000 0.000000 0.000000
# 2 -0.001874 0.013493 -0.004017 0.000000 0.000000 0.000000
# 3 -0.004017 -0.004017 0.008524 0.000000 0.000000 0.000000
# 4 0.000000 0.000000 0.000000 0.049932 0.000000 0.000000
# 5 0.000000 0.000000 0.000000 0.000000 0.049932 0.000000
# 6 0.000000 0.000000 0.000000 0.000000 0.000000 0.033534
#
#
# Mechanical properties :
#
#
# Convention : Reuss Voigt Hill
#
# Bulk Modulus (GPa) = 63.72171 74.44888 69.08529
# Shear Modulus (GPa) = 25.77900 28.31744 27.04822
#
# Velocity S-wave (km/s) = 3.51523 3.68424 3.60073
# Velocity P-wave (km/s) = 6.85712 7.33379 7.09946
#
# Compressibility (1/GPa) = 0.01569324
#
# Stress axis : x y z
#
# Youngs Moduli (GPa) = 74.11284 74.11284 117.31598
#
# Poissons Ratio (x) = 0.13890 0.47126
# Poissons Ratio (y) = 0.13890 0.47126
# Poissons Ratio (z) = 0.29771 0.29771
#
# Static dielectric constant tensor:
#      x y z
#    x 3.743390 0.000000 0.000000 
#    y 0.000000 3.743390 0.000000 
#    z 0.000000 0.000000 4.061070 
# 
# 
# High freq. dielectric constant tensor:
#      x y z
#    x 1.811460 0.000000 0.000000 
#    y 0.000000 1.811460 0.000000 
#    z 0.000000 0.000000 1.834840 
# 
# From -- ./inp_files/3144.got.cif
#   From: 2010.03.12/outbox.cif.g09.slc.cpg/sg135_2_cif.got.tgz:3144.got - 2010.04.06 18:31:24.
