data_PCOD8317470
_publ_section_title
;
Structure prediction by ZEFSAII (Michael W. Deem and Ramdas Pophale) SiO2 
 PCOD8317470
Probable space group: P 42/M B C
;
_chemical_formula_sum "Si O2"
_cell_formula_units_Z 96
_cell_length_a 25.007435
_cell_length_b 25.007435
_cell_length_c 9.056360
_cell_angle_alpha 90.000000
_cell_angle_beta 90.000000
_cell_angle_gamma 90.000000
_cell_volume 5663.592202
_symmetry_space_group_name_H-M "P 42/M B C"
_symmetry_group_IT_number 135
_symmetry_cell_setting 'tetragonal'
loop_
_space_group_symop_operation_xyz
x,y,z
-y,x,1/2+z
-x,-y,z
y,-x,1/2+z
1/2+x,1/2-y,-z
1/2-x,1/2+y,-z
1/2+y,1/2+x,1/2-z
1/2-y,1/2-x,1/2-z
-x,-y,-z
y,-x,1/2-z
x,y,-z
-y,x,1/2-z
1/2-x,1/2+y,z
1/2+x,1/2-y,z
1/2-y,1/2-x,1/2+z
1/2+y,1/2+x,1/2+z
loop_
_atom_site_type_symbol
_atom_site_label
_atom_site_fract_x
_atom_site_fract_y
_atom_site_fract_z
Si Si1 0.560555 0.364109 0.331423
Si Si2 0.060591 0.638700 0.167749
Si Si3 0.056959 0.254378 0.329478
Si Si4 0.435725 0.357652 0.671844
Si Si5 0.437214 0.858157 0.825489
Si Si6 0.553936 0.743970 0.171171
O O1 0.569788 0.382573 0.500000
O O2 0.584176 0.303902 0.309193
O O3 0.590126 0.403570 0.220312
O O4 0.497912 0.367099 0.292149
O O5 0.096522 0.596522 0.250000
O O6 0.084284 0.699002 0.187677
O O7 0.999166 0.636485 0.221963
O O8 0.062231 0.620651 0.000000
O O9 0.056666 0.271634 0.500000
O O10 0.085658 0.301360 0.235742
O O11 0.997183 0.247363 0.274177
O O12 0.426186 0.346454 0.500000
O O13 0.412935 0.306629 0.765657
O O14 0.406665 0.906665 0.750000
O O15 0.428925 0.859476 0.000000
O O16 0.538035 0.734916 0.000000
#
# Coordination Sequence:
#
# PCOD8317470 Si02
#       6
#    16  16  16  16  16  16
#     4   9  19  33  48  70  99 128 158 195 239 284
#     4   9  19  32  48  71  97 127 160 194 237 285
#     4   9  17  31  50  71  94 124 163 201 237 283
#     4  10  20  32  49  73  97 127 164 197 237 286
#     4  10  20  33  49  72  99 129 163 198 241 287
#     4   9  17  31  49  69  94 125 161 199 238 281
#
# _framework density 16.950372999999999
#
# number of rings (size 3 to 8) (size 9 to 14) (size 15 to 20)
#    0.000    2.667    0.000    4.000    0.000    8.667 
#    0.000    3.333    0.000    1.000    0.000    4.667 
#    0.000    0.000    0.000    0.000    0.000    0.000 
#
# Total GULP energy -1189711.810057 kJ/mol
# GULP energy per Si atom -12392.831355 kJ/mol
# Density = 1.691179 g / cm^3
# Si number density = 16.950373 Si / 1000 Ang^3
#
#
#
# Elastic Constant Matrix: (Units=GPa)
#
#
# Indices 1 2 3 4 5 6 
#
# 1 82.6468 51.9942 51.8564 0.0000 0.0000 0.0000
# 2 51.9942 82.6468 51.8564 0.0000 0.0000 0.0000
# 3 51.8564 51.8564 92.5981 0.0000 0.0000 0.0000
# 4 0.0000 0.0000 0.0000 32.0531 0.0000 0.0000
# 5 0.0000 0.0000 0.0000 0.0000 32.0531 0.0000
# 6 0.0000 0.0000 0.0000 0.0000 0.0000 0.5283
#
#
#
# Elastic Compliance Matrix: (Units=1/GPa)
#
#
# Indices 1 2 3 4 5 6 
#
# 1 0.022843 -0.009781 -0.007315 0.000000 0.000000 0.000000
# 2 -0.009781 0.022843 -0.007315 0.000000 0.000000 0.000000
# 3 -0.007315 -0.007315 0.018992 0.000000 0.000000 0.000000
# 4 0.000000 0.000000 0.000000 0.031198 0.000000 0.000000
# 5 0.000000 0.000000 0.000000 0.000000 0.031198 0.000000
# 6 0.000000 0.000000 0.000000 0.000000 0.000000 1.892880
#
#
# Mechanical properties :
#
#
# Convention : Reuss Voigt Hill
#
# Bulk Modulus (GPa) = 63.06580 63.25618 63.16099
# Shear Modulus (GPa) = 2.41073 19.73922 11.07497
#
# Velocity S-wave (km/s) = 1.19387 3.41622 2.55890
# Velocity P-wave (km/s) = 6.25998 7.27738 6.78777
#
# Compressibility (1/GPa) = 0.01585645
#
# Stress axis : x y z
#
# Youngs Moduli (GPa) = 43.77784 43.77784 52.65361
#
# Poissons Ratio (x) = 0.42819 0.38515
# Poissons Ratio (y) = 0.42819 0.38515
# Poissons Ratio (z) = 0.32022 0.32022
#
# Static dielectric constant tensor:
#      x y z
#    x 3.234070 0.000000 0.000000 
#    y 0.000000 3.234070 0.000000 
#    z 0.000000 0.000000 3.292280 
# 
# 
# High freq. dielectric constant tensor:
#      x y z
#    x 1.635090 0.000000 0.000000 
#    y 0.000000 1.635090 0.000000 
#    z 0.000000 0.000000 1.669240 
# 
# From -- ./inp_files/1279.got.cif
#   From: 2010.03.12/outbox.cif.g09.slc.cpg/sg135_1_cif.got.tgz:1279.got - 2010.04.06 18:31:24.
