data_PCOD8317144
_publ_section_title
;
Structure prediction by ZEFSAII (Michael W. Deem and Ramdas Pophale) SiO2 
 PCOD8317144
Probable space group: P 42/N N M
;
_chemical_formula_sum "Si O2"
_cell_formula_units_Z 96
_cell_length_a 18.598411
_cell_length_b 18.598411
_cell_length_c 15.697018
_cell_angle_alpha 90.000000
_cell_angle_beta 90.000000
_cell_angle_gamma 90.000000
_cell_volume 5429.612524
_symmetry_space_group_name_H-M "P 42/N N M"
_symmetry_group_IT_number 134
_space_group.IT_coordinate_system_code '2'
_symmetry_cell_setting 'tetragonal'
loop_
_space_group_symop_operation_xyz
x,y,z
1/2-y,x,1/2+z
1/2-x,1/2-y,z
y,1/2-x,1/2+z
x,1/2-y,1/2-z
1/2-x,y,1/2-z
y,x,-z
1/2-y,1/2-x,-z
-x,-y,-z
1/2+y,-x,1/2-z
1/2+x,1/2+y,-z
-y,1/2+x,1/2-z
-x,1/2+y,1/2+z
1/2+x,-y,1/2+z
-y,-x,z
1/2+y,1/2+x,z
loop_
_atom_site_type_symbol
_atom_site_label
_atom_site_fract_x
_atom_site_fract_y
_atom_site_fract_z
Si Si1 0.797752 0.082734 0.833418
Si Si2 0.247345 0.632561 0.511103
Si Si3 0.812107 0.579385 0.680335
Si Si4 0.692338 0.428406 0.323263
Si Si5 0.179269 0.215303 0.595201
Si Si6 0.087762 0.330041 0.216708
O O1 0.750000 0.095643 0.750000
O O2 0.863573 0.136428 0.829370
O O3 0.830044 0.003120 0.836345
O O4 0.751756 0.093492 0.919439
O O5 0.307171 0.692830 0.507641
O O6 0.169800 0.669800 0.528896
O O7 0.266028 0.576129 0.586003
O O8 0.750000 0.591040 0.750000
O O9 0.776765 0.617144 0.597463
O O10 0.887446 0.616105 0.707820
O O11 0.750000 0.413311 0.250000
O O12 0.630926 0.369074 0.316612
O O13 0.654842 0.506227 0.313178
O O14 0.250000 0.250000 0.640206
O O15 0.196461 0.196461 0.500000
O O16 0.156008 0.140888 0.638367
O O17 0.093945 0.250000 0.250000
#
# Coordination Sequence:
#
# PCOD8317144 Si02
#       6
#    16  16  16  16  16  16
#     4  10  20  34  54  80 111 147 180 220 269 324
#     4   9  18  33  54  78 103 136 183 232 269 311
#     4   9  19  33  51  76 107 138 179 218 263 319
#     4  10  21  35  55  78 104 140 182 226 273 322
#     4  10  19  31  54  80 101 134 173 219 264 313
#     4  10  19  34  53  76 105 139 174 222 267 318
#
# _framework density 17.680821000000002
#
# number of rings (size 3 to 8) (size 9 to 14) (size 15 to 20)
#    0.000    2.333    1.667    1.000    2.333    2.333 
#    0.000    0.000    0.000    0.500    0.000    8.167 
#    0.000    0.000    0.000    0.000    0.000    0.000 
#
# Total GULP energy -1190033.576936 kJ/mol
# GULP energy per Si atom -12396.183093 kJ/mol
# Density = 1.764058 g / cm^3
# Si number density = 17.680821 Si / 1000 Ang^3
#
#
#
# Elastic Constant Matrix: (Units=GPa)
#
#
# Indices 1 2 3 4 5 6 
#
# 1 103.1092 45.4907 50.7140 0.0000 0.0000 0.0000
# 2 45.4907 103.1092 50.7140 0.0000 0.0000 0.0000
# 3 50.7140 50.7140 121.0273 0.0000 0.0000 0.0000
# 4 0.0000 0.0000 0.0000 22.0230 0.0000 0.0000
# 5 0.0000 0.0000 0.0000 0.0000 22.0230 0.0000
# 6 0.0000 0.0000 0.0000 0.0000 0.0000 14.3971
#
#
#
# Elastic Compliance Matrix: (Units=1/GPa)
#
#
# Indices 1 2 3 4 5 6 
#
# 1 0.013390 -0.003965 -0.003949 0.000000 0.000000 0.000000
# 2 -0.003965 0.013390 -0.003949 0.000000 0.000000 0.000000
# 3 -0.003949 -0.003949 0.011572 0.000000 0.000000 0.000000
# 4 0.000000 0.000000 0.000000 0.045407 0.000000 0.000000
# 5 0.000000 0.000000 0.000000 0.000000 0.045407 0.000000
# 6 0.000000 0.000000 0.000000 0.000000 0.000000 0.069458
#
#
# Mechanical properties :
#
#
# Convention : Reuss Voigt Hill
#
# Bulk Modulus (GPa) = 68.37550 69.00919 68.69235
# Shear Modulus (GPa) = 22.00425 23.71042 22.85733
#
# Velocity S-wave (km/s) = 3.53161 3.66597 3.59942
# Velocity P-wave (km/s) = 7.44216 7.55211 7.49734
#
# Compressibility (1/GPa) = 0.01462512
#
# Stress axis : x y z
#
# Youngs Moduli (GPa) = 74.68055 74.68055 86.41212
#
# Poissons Ratio (x) = 0.29612 0.34128
# Poissons Ratio (y) = 0.29612 0.34128
# Poissons Ratio (z) = 0.29495 0.29495
#
# Static dielectric constant tensor:
#      x y z
#    x 3.377760 0.000000 0.000000 
#    y 0.000000 3.377760 0.000000 
#    z 0.000000 0.000000 3.382770 
# 
# 
# High freq. dielectric constant tensor:
#      x y z
#    x 1.678340 0.000000 0.000000 
#    y 0.000000 1.678340 0.000000 
#    z 0.000000 0.000000 1.684830 
# 
# From -- ./inp_files/7912.got.cif
#   From: 2010.03.12/outbox.cif.g09.slc.cpg/sg134_4_cif.got.tgz:7912.got - 2010.04.06 18:17:22.
