data_PCOD8317653
_publ_section_title
;
Structure prediction by ZEFSAII (Michael W. Deem and Ramdas Pophale) SiO2 
 PCOD8317653
Probable space group: P 42/M B C
;
_chemical_formula_sum "Si O2"
_cell_formula_units_Z 48
_cell_length_a 9.235509
_cell_length_b 9.235509
_cell_length_c 25.584023
_cell_angle_alpha 90.000000
_cell_angle_beta 90.000000
_cell_angle_gamma 90.000000
_cell_volume 2182.179686
_symmetry_space_group_name_H-M "P 42/M B C"
_symmetry_group_IT_number 135
_symmetry_cell_setting 'tetragonal'
loop_
_space_group_symop_operation_xyz
x,y,z
-y,x,1/2+z
-x,-y,z
y,-x,1/2+z
1/2+x,1/2-y,-z
1/2-x,1/2+y,-z
1/2+y,1/2+x,1/2-z
1/2-y,1/2-x,1/2-z
-x,-y,-z
y,-x,1/2-z
x,y,-z
-y,x,1/2-z
1/2-x,1/2+y,z
1/2+x,1/2-y,z
1/2-y,1/2-x,1/2+z
1/2+y,1/2+x,1/2+z
loop_
_atom_site_type_symbol
_atom_site_label
_atom_site_fract_x
_atom_site_fract_y
_atom_site_fract_z
Si Si1 0.145993 0.917747 0.112277
Si Si2 0.893936 0.372788 0.439470
Si Si3 0.079116 0.209293 0.270837
O O1 0.121936 0.754636 0.092623
O O2 0.229789 0.916718 0.166874
O O3 0.226854 0.015486 0.069355
O O4 0.000000 0.000000 0.124769
O O5 0.852647 0.387447 0.500000
O O6 0.000000 0.500000 0.420665
O O7 0.138564 0.361437 0.250000
O O8 0.919356 0.184591 0.248397
#
# Coordination Sequence:
#
# PCOD8317653 Si02
#       3
#    16  16  16
#     4  12  24  44  70  97 137 179 224 282 342 408
#     4  11  26  44  68 101 134 176 230 281 343 409
#     4  11  24  44  65  99 135 173 223 272 330 402
#
# _framework density 21.996352999999999
#
# number of rings (size 3 to 8) (size 9 to 14) (size 15 to 20)
#    0.000    0.667    3.333    5.000    4.667    6.000 
#    0.000    0.000    0.000    0.000    0.000    0.000 
#    0.000    0.000    0.000    0.000    0.000    0.000 
#
# Total GULP energy -595391.024479 kJ/mol
# GULP energy per Si atom -12403.979677 kJ/mol
# Density = 2.194629 g / cm^3
# Si number density = 21.996353 Si / 1000 Ang^3
#
#
#
# Elastic Constant Matrix: (Units=GPa)
#
#
# Indices 1 2 3 4 5 6 
#
# 1 81.9823 17.0828 25.8021 0.0000 0.0000 0.0000
# 2 17.0828 81.9794 25.8022 0.0000 0.0000 0.0000
# 3 25.8021 25.8022 86.1993 0.0000 0.0000 0.0000
# 4 0.0000 0.0000 0.0000 7.6602 0.0000 0.0000
# 5 0.0000 0.0000 0.0000 0.0000 7.6611 0.0000
# 6 0.0000 0.0000 0.0000 0.0000 0.0000 45.7643
#
#
#
# Elastic Compliance Matrix: (Units=1/GPa)
#
#
# Indices 1 2 3 4 5 6 
#
# 1 0.013684 -0.001725 -0.003580 0.000000 0.000000 0.000000
# 2 -0.001725 0.013684 -0.003580 0.000000 0.000000 0.000000
# 3 -0.003580 -0.003580 0.013744 0.000000 0.000000 0.000000
# 4 0.000000 0.000000 0.000000 0.130545 0.000000 0.000000
# 5 0.000000 0.000000 0.000000 0.000000 0.130529 0.000000
# 6 0.000000 0.000000 0.000000 0.000000 0.000000 0.021851
#
#
# Mechanical properties :
#
#
# Convention : Reuss Voigt Hill
#
# Bulk Modulus (GPa) = 42.83838 43.05946 42.94892
# Shear Modulus (GPa) = 14.30258 24.31538 19.30898
#
# Velocity S-wave (km/s) = 2.55272 3.32840 2.96603
# Velocity P-wave (km/s) = 5.31093 5.86424 5.59443
#
# Compressibility (1/GPa) = 0.02334355
#
# Stress axis : x y z
#
# Youngs Moduli (GPa) = 73.07924 73.07638 72.75849
#
# Poissons Ratio (x) = 0.12604 0.26045
# Poissons Ratio (y) = 0.12604 0.26047
# Poissons Ratio (z) = 0.26160 0.26160
#
# Static dielectric constant tensor:
#      x y z
#    x 3.926940 0.000000 0.000000 
#    y 0.000000 3.926950 0.000000 
#    z 0.000000 0.000000 3.926260 
# 
# 
# High freq. dielectric constant tensor:
#      x y z
#    x 1.871170 0.000000 0.000000 
#    y 0.000000 1.871170 0.000000 
#    z 0.000000 0.000000 1.877760 
# 
# From -- ./inp_files/6569.got.cif
#   From: 2010.03.12/outbox.cif.g09.slc.cpg/sg135_4_cif.got.tgz:6569.got - 2010.04.06 18:31:24.
