data_PCOD8317439
_publ_section_title
;
Structure prediction by ZEFSAII (Michael W. Deem and Ramdas Pophale) SiO2 
 PCOD8317439
Probable space group: P 42/M B C
;
_chemical_formula_sum "Si O2"
_cell_formula_units_Z 72
_cell_length_a 20.636050
_cell_length_b 20.636050
_cell_length_c 8.921994
_cell_angle_alpha 90.000000
_cell_angle_beta 90.000000
_cell_angle_gamma 90.000000
_cell_volume 3799.400450
_symmetry_space_group_name_H-M "P 42/M B C"
_symmetry_group_IT_number 135
_symmetry_cell_setting 'tetragonal'
loop_
_space_group_symop_operation_xyz
x,y,z
-y,x,1/2+z
-x,-y,z
y,-x,1/2+z
1/2+x,1/2-y,-z
1/2-x,1/2+y,-z
1/2+y,1/2+x,1/2-z
1/2-y,1/2-x,1/2-z
-x,-y,-z
y,-x,1/2-z
x,y,-z
-y,x,1/2-z
1/2-x,1/2+y,z
1/2+x,1/2-y,z
1/2-y,1/2-x,1/2+z
1/2+y,1/2+x,1/2+z
loop_
_atom_site_type_symbol
_atom_site_label
_atom_site_fract_x
_atom_site_fract_y
_atom_site_fract_z
Si Si1 0.740351 0.047032 0.820740
Si Si2 0.743727 0.404716 0.165456
Si Si3 0.677582 0.277221 0.819791
Si Si4 0.975527 0.610248 0.834636
Si Si5 0.384856 0.115145 0.750000
O O1 0.779218 0.103835 0.738090
O O2 0.666235 0.053213 0.770742
O O3 0.767067 0.976419 0.762519
O O4 0.745287 0.053318 0.000000
O O5 0.707067 0.344959 0.245433
O O6 0.819701 0.387484 0.153048
O O7 0.714789 0.408792 0.000000
O O8 0.717024 0.217024 0.750000
O O9 0.680835 0.272287 0.000000
O O10 0.955824 0.544177 0.750000
O O11 0.052774 0.613329 0.857454
O O12 0.944314 0.614743 0.000000
#
# Coordination Sequence:
#
# PCOD8317439 Si02
#       5
#    16  16  16  16   8
#     4  10  21  38  56  78 109 144 182 228 278 328
#     4   9  19  35  55  78 108 141 176 224 276 325
#     4  11  21  36  58  85 112 143 183 228 277 331
#     4  11  22  34  51  74 106 147 188 225 268 321
#     4  10  19  34  52  76 106 140 180 225 270 322
#
# _framework density 18.95036
#
# number of rings (size 3 to 8) (size 9 to 14) (size 15 to 20)
#    0.000    1.778    1.111    3.667    0.000    3.556 
#    0.000    3.333    0.000    0.667    0.000    4.667 
#    0.000    0.000    0.000    0.000    0.000    0.000 
#
# Total GULP energy -892119.970876 kJ/mol
# GULP energy per Si atom -12390.555151 kJ/mol
# Density = 1.890723 g / cm^3
# Si number density = 18.950360 Si / 1000 Ang^3
#
#
#
# Elastic Constant Matrix: (Units=GPa)
#
#
# Indices 1 2 3 4 5 6 
#
# 1 118.2938 67.7603 29.5471 0.0000 0.0000 0.0000
# 2 67.7603 118.2955 29.5468 0.0000 0.0000 0.0000
# 3 29.5471 29.5468 87.3675 0.0000 0.0000 0.0000
# 4 0.0000 0.0000 0.0000 19.9883 0.0000 0.0000
# 5 0.0000 0.0000 0.0000 0.0000 19.9881 0.0000
# 6 0.0000 0.0000 0.0000 0.0000 0.0000 33.5626
#
#
#
# Elastic Compliance Matrix: (Units=1/GPa)
#
#
# Indices 1 2 3 4 5 6 
#
# 1 0.012905 -0.006883 -0.002037 0.000000 0.000000 0.000000
# 2 -0.006883 0.012905 -0.002036 0.000000 0.000000 0.000000
# 3 -0.002037 -0.002036 0.012823 0.000000 0.000000 0.000000
# 4 0.000000 0.000000 0.000000 0.050029 0.000000 0.000000
# 5 0.000000 0.000000 0.000000 0.000000 0.050030 0.000000
# 6 0.000000 0.000000 0.000000 0.000000 0.000000 0.029795
#
#
# Mechanical properties :
#
#
# Convention : Reuss Voigt Hill
#
# Bulk Modulus (GPa) = 59.80621 64.18503 61.99562
# Shear Modulus (GPa) = 25.51362 27.84798 26.68080
#
# Velocity S-wave (km/s) = 3.67323 3.83759 3.75631
# Velocity P-wave (km/s) = 7.04401 7.31982 7.18324
#
# Compressibility (1/GPa) = 0.01672067
#
# Stress axis : x y z
#
# Youngs Moduli (GPa) = 77.48851 77.48984 77.98298
#
# Poissons Ratio (x) = 0.53340 0.15881
# Poissons Ratio (y) = 0.53339 0.15880
# Poissons Ratio (z) = 0.15781 0.15780
#
# Static dielectric constant tensor:
#      x y z
#    x 3.552270 0.000000 0.000000 
#    y 0.000000 3.552270 0.000000 
#    z 0.000000 0.000000 3.250900 
# 
# 
# High freq. dielectric constant tensor:
#      x y z
#    x 1.727500 0.000000 0.000000 
#    y 0.000000 1.727500 0.000000 
#    z 0.000000 0.000000 1.727380 
# 
# From -- ./inp_files/1019.got.cif
#   From: 2010.03.12/outbox.cif.g09.slc.cpg/sg135_1_cif.got.tgz:1019.got - 2010.04.06 18:31:24.
