data_PCOD8317116
_publ_section_title
;
Structure prediction by ZEFSAII (Michael W. Deem and Ramdas Pophale) SiO2 
 PCOD8317116
Probable space group: P 42/N N M
;
_chemical_formula_sum "Si O2"
_cell_formula_units_Z 112
_cell_length_a 15.357283
_cell_length_b 15.357283
_cell_length_c 25.589213
_cell_angle_alpha 90.000000
_cell_angle_beta 90.000000
_cell_angle_gamma 90.000000
_cell_volume 6035.117141
_symmetry_space_group_name_H-M "P 42/N N M"
_symmetry_group_IT_number 134
_space_group.IT_coordinate_system_code '2'
_symmetry_cell_setting 'tetragonal'
loop_
_space_group_symop_operation_xyz
x,y,z
1/2-y,x,1/2+z
1/2-x,1/2-y,z
y,1/2-x,1/2+z
x,1/2-y,1/2-z
1/2-x,y,1/2-z
y,x,-z
1/2-y,1/2-x,-z
-x,-y,-z
1/2+y,-x,1/2-z
1/2+x,1/2+y,-z
-y,1/2+x,1/2-z
-x,1/2+y,1/2+z
1/2+x,-y,1/2+z
-y,-x,z
1/2+y,1/2+x,z
loop_
_atom_site_type_symbol
_atom_site_label
_atom_site_fract_x
_atom_site_fract_y
_atom_site_fract_z
Si Si1 0.968945 0.330314 0.788417
Si Si2 0.790228 0.427853 0.303960
Si Si3 0.187948 0.322523 0.359298
Si Si4 0.825243 0.940038 0.605336
Si Si5 0.858317 0.998740 0.498059
Si Si6 0.931533 0.568859 0.291562
Si Si7 0.703057 0.964262 0.108819
O O1 0.955754 0.250000 0.750000
O O2 0.875700 0.375700 0.794412
O O3 0.001693 0.301919 0.844953
O O4 0.039939 0.397449 0.765095
O O5 0.750000 0.392220 0.250000
O O6 0.850299 0.350299 0.327966
O O7 0.847498 0.509132 0.285141
O O8 0.719828 0.459856 0.347654
O O9 0.250000 0.250000 0.329646
O O10 0.251401 0.366078 0.402191
O O11 0.154419 0.401581 0.323186
O O12 0.105937 0.279502 0.387151
O O13 0.817239 0.005299 0.555880
O O14 0.920031 0.893061 0.613854
O O15 0.904962 0.904962 0.500000
O O16 0.789746 0.003107 0.450077
O O17 0.924216 0.075785 0.487553
O O18 0.012368 0.512368 0.316801
#
# Coordination Sequence:
#
# PCOD8317116 Si02
#       7
#    16  16  16  16  16  16  16
#     4  11  21  33  51  74 102 138 176 215 259 311
#     4  10  20  34  52  75 105 139 176 215 261 319
#     4   9  17  30  50  79 106 132 168 219 269 311
#     4  10  18  32  52  78 107 134 174 216 269 318
#     4   9  18  32  51  75 103 136 172 214 260 318
#     4   9  18  33  50  72 105 142 173 208 261 325
#     4   9  19  33  52  78 106 136 171 215 270 315
#
# _framework density 18.558049
#
# number of rings (size 3 to 8) (size 9 to 14) (size 15 to 20)
#    0.000    2.429    1.429    1.286    0.000    2.000 
#    0.000    5.000    0.000    1.714    0.000    4.000 
#    0.000    0.000    0.000    0.000    0.000    0.000 
#
# Total GULP energy -1387542.699740 kJ/mol
# GULP energy per Si atom -12388.774105 kJ/mol
# Density = 1.851581 g / cm^3
# Si number density = 18.558049 Si / 1000 Ang^3
#
#
#
# Elastic Constant Matrix: (Units=GPa)
#
#
# Indices 1 2 3 4 5 6 
#
# 1 59.4691 27.3461 43.1615 0.0000 0.0000 0.0000
# 2 27.3461 59.4691 43.1615 0.0000 0.0000 0.0000
# 3 43.1615 43.1615 142.4444 0.0000 0.0000 0.0000
# 4 0.0000 0.0000 0.0000 20.8769 0.0000 0.0000
# 5 0.0000 0.0000 0.0000 0.0000 20.8769 0.0000
# 6 0.0000 0.0000 0.0000 0.0000 0.0000 25.7650
#
#
#
# Elastic Compliance Matrix: (Units=1/GPa)
#
#
# Indices 1 2 3 4 5 6 
#
# 1 0.023808 -0.007322 -0.004995 0.000000 0.000000 0.000000
# 2 -0.007322 0.023808 -0.004995 0.000000 0.000000 0.000000
# 3 -0.004995 -0.004995 0.010047 0.000000 0.000000 0.000000
# 4 0.000000 0.000000 0.000000 0.047900 0.000000 0.000000
# 5 0.000000 0.000000 0.000000 0.000000 0.047900 0.000000
# 6 0.000000 0.000000 0.000000 0.000000 0.000000 0.038812
#
#
# Mechanical properties :
#
#
# Convention : Reuss Voigt Hill
#
# Bulk Modulus (GPa) = 43.40697 54.30233 48.85465
# Shear Modulus (GPa) = 21.31466 23.35134 22.33300
#
# Velocity S-wave (km/s) = 3.39269 3.55108 3.47279
# Velocity P-wave (km/s) = 6.22798 6.79249 6.51635
#
# Compressibility (1/GPa) = 0.02303777
#
# Stress axis : x y z
#
# Youngs Moduli (GPa) = 42.00268 42.00268 99.52751
#
# Poissons Ratio (x) = 0.30756 0.49717
# Poissons Ratio (y) = 0.30756 0.49717
# Poissons Ratio (z) = 0.20981 0.20981
#
# Static dielectric constant tensor:
#      x y z
#    x 3.403570 0.000000 0.000000 
#    y 0.000000 3.403570 0.000000 
#    z 0.000000 0.000000 3.423280 
# 
# 
# High freq. dielectric constant tensor:
#      x y z
#    x 1.709920 0.000000 0.000000 
#    y 0.000000 1.709920 0.000000 
#    z 0.000000 0.000000 1.701260 
# 
# From -- ./inp_files/10861.got.cif
#   From: 2010.03.12/outbox.cif.g09.slc.cpg/sg134_6_cif.got.tgz:10861.got - 2010.04.06 18:17:22.
