data_PCOD8317462
_publ_section_title
;
Structure prediction by ZEFSAII (Michael W. Deem and Ramdas Pophale) SiO2 
 PCOD8317462
Probable space group: P 42/M B C
;
_chemical_formula_sum "Si O2"
_cell_formula_units_Z 64
_cell_length_a 13.070842
_cell_length_b 13.070842
_cell_length_c 18.090390
_cell_angle_alpha 90.000000
_cell_angle_beta 90.000000
_cell_angle_gamma 90.000000
_cell_volume 3090.687243
_symmetry_space_group_name_H-M "P 42/M B C"
_symmetry_group_IT_number 135
_symmetry_cell_setting 'tetragonal'
loop_
_space_group_symop_operation_xyz
x,y,z
-y,x,1/2+z
-x,-y,z
y,-x,1/2+z
1/2+x,1/2-y,-z
1/2-x,1/2+y,-z
1/2+y,1/2+x,1/2-z
1/2-y,1/2-x,1/2-z
-x,-y,-z
y,-x,1/2-z
x,y,-z
-y,x,1/2-z
1/2-x,1/2+y,z
1/2+x,1/2-y,z
1/2-y,1/2-x,1/2+z
1/2+y,1/2+x,1/2+z
loop_
_atom_site_type_symbol
_atom_site_label
_atom_site_fract_x
_atom_site_fract_y
_atom_site_fract_z
Si Si1 0.821291 0.321291 0.750000
Si Si2 0.683392 0.638708 0.000000
Si Si3 0.896777 0.176171 0.500000
Si Si4 0.184676 0.254007 0.122030
Si Si5 0.882686 0.499787 0.656252
Si Si6 0.661327 0.912466 0.500000
O O1 0.810168 0.239056 0.685842
O O2 0.813226 0.430104 0.709238
O O3 0.745180 0.669164 0.073864
O O4 0.650284 0.518546 0.000000
O O5 0.584324 0.713695 0.000000
O O6 0.835284 0.132744 0.571471
O O7 0.882206 0.298026 0.500000
O O8 0.108869 0.330130 0.163346
O O9 0.882282 0.468121 0.570975
O O10 0.000000 0.500000 0.683643
#
# Coordination Sequence:
#
# PCOD8317462 Si02
#       6
#     8   8   8  16  16   8
#     4  12  25  42  59  98 140 158 212 262 327 396
#     4  10  19  40  70  89 128 173 212 276 327 377
#     4  10  19  41  65  94 124 175 214 272 333 371
#     4  10  24  40  64  94 135 165 216 277 320 381
#     4  12  24  42  70  98 121 175 222 264 324 387
#     4  10  19  41  64  97 128 154 229 282 302 382
#
# _framework density 20.707369
#
# number of rings (size 3 to 8) (size 9 to 14) (size 15 to 20)
#    0.000    1.500    5.000    3.750    3.500    0.000 
#    0.000    2.500    0.000    0.000    0.000    0.000 
#    0.000    0.000    0.000    0.000    0.000    0.000 
#
# Total GULP energy -793050.508089 kJ/mol
# GULP energy per Si atom -12391.414189 kJ/mol
# Density = 2.066024 g / cm^3
# Si number density = 20.707369 Si / 1000 Ang^3
#
#
#
# Elastic Constant Matrix: (Units=GPa)
#
#
# Indices 1 2 3 4 5 6 
#
# 1 112.8559 35.1355 38.8796 0.0000 0.0000 0.0000
# 2 35.1355 112.8559 38.8796 0.0000 0.0000 0.0000
# 3 38.8796 38.8796 135.4527 0.0000 0.0000 0.0000
# 4 0.0000 0.0000 0.0000 -16.1290 0.0000 0.0000
# 5 0.0000 0.0000 0.0000 0.0000 -16.1290 0.0000
# 6 0.0000 0.0000 0.0000 0.0000 0.0000 34.3241
#
#
#
# Elastic Compliance Matrix: (Units=1/GPa)
#
#
# Indices 1 2 3 4 5 6 
#
# 1 0.010412 -0.002455 -0.002284 0.000000 0.000000 0.000000
# 2 -0.002455 0.010412 -0.002284 0.000000 0.000000 0.000000
# 3 -0.002284 -0.002284 0.008694 0.000000 0.000000 0.000000
# 4 0.000000 0.000000 0.000000 -0.062000 0.000000 0.000000
# 5 0.000000 0.000000 0.000000 0.000000 -0.062000 0.000000
# 6 0.000000 0.000000 0.000000 0.000000 0.000000 0.029134
#
#
# Mechanical properties :
#
#
# Convention : Reuss Voigt Hill
#
# Bulk Modulus (GPa) = 64.63168 65.21710 64.92439
# Shear Modulus (GPa) = -108.35321 16.96453 -45.69434
#
# Velocity S-wave (km/s) = -7.24151 2.86536 -4.70262
# Velocity P-wave (km/s) = 6.21608 6.51997 1.39111
#
# Compressibility (1/GPa) = 0.01547229
#
# Stress axis : x y z
#
# Youngs Moduli (GPa) = 96.04367 96.04367 115.02427
#
# Poissons Ratio (x) = 0.23576 0.26271
# Poissons Ratio (y) = 0.23576 0.26271
# Poissons Ratio (z) = 0.21936 0.21936
#
# Static dielectric constant tensor:
#      x y z
#    x 3.756510 0.000000 0.000000 
#    y 0.000000 3.756510 0.000000 
#    z 0.000000 0.000000 3.988410 
# 
# 
# High freq. dielectric constant tensor:
#      x y z
#    x 1.796850 0.000000 0.000000 
#    y 0.000000 1.796850 0.000000 
#    z 0.000000 0.000000 1.831840 
# 
# From -- ./inp_files/4234.got.cif
#   From: 2010.03.12/outbox.cif.g09.slc.cpg/sg135_3_cif.got.tgz:4234.got - 2010.04.06 18:31:24.
