data_PCOD8317071
_publ_section_title
;
Structure prediction by ZEFSAII (Michael W. Deem and Ramdas Pophale) SiO2 
 PCOD8317071
Probable space group: P 42/N N M
;
_chemical_formula_sum "Si O2"
_cell_formula_units_Z 44
_cell_length_a 12.329653
_cell_length_b 12.329653
_cell_length_c 17.099668
_cell_angle_alpha 90.000000
_cell_angle_beta 90.000000
_cell_angle_gamma 90.000000
_cell_volume 2599.497396
_symmetry_space_group_name_H-M "P 42/N N M"
_symmetry_group_IT_number 134
_space_group.IT_coordinate_system_code '2'
_symmetry_cell_setting 'tetragonal'
loop_
_space_group_symop_operation_xyz
x,y,z
1/2-y,x,1/2+z
1/2-x,1/2-y,z
y,1/2-x,1/2+z
x,1/2-y,1/2-z
1/2-x,y,1/2-z
y,x,-z
1/2-y,1/2-x,-z
-x,-y,-z
1/2+y,-x,1/2-z
1/2+x,1/2+y,-z
-y,1/2+x,1/2-z
-x,1/2+y,1/2+z
1/2+x,-y,1/2+z
-y,-x,z
1/2+y,1/2+x,z
loop_
_atom_site_type_symbol
_atom_site_label
_atom_site_fract_x
_atom_site_fract_y
_atom_site_fract_z
Si Si1 0.961646 0.787784 0.401971
Si Si2 0.162005 0.662005 0.992863
Si Si3 0.250000 0.250000 0.500000
Si Si4 0.476615 0.523386 0.591372
Si Si5 0.250000 0.928705 0.250000
O O1 0.855739 0.742411 0.445092
O O2 0.064889 0.782033 0.459177
O O3 0.994292 0.721574 0.324037
O O4 0.935868 0.910599 0.371964
O O5 0.250000 0.750000 0.970590
O O6 0.116006 0.616006 0.909416
O O7 0.500000 0.500000 0.500000
O O8 0.353665 0.853665 0.229614
#
# Coordination Sequence:
#
# PCOD8317071 Si02
#       5
#    16   8   4   8   8
#     4  10  19  32  54  79 108 142 176 221 274 322
#     4  10  16  32  54  80 106 136 184 226 265 314
#     4  12  20  36  54  76 116 148 182 204 264 344
#     4   8  14  32  50  74 102 142 172 212 273 316
#     4  11  20  33  56  84 108 133 175 234 280 312
#
# _framework density 16.926348000000001
#
# number of rings (size 3 to 8) (size 9 to 14) (size 15 to 20)
#    0.000    2.364    9.091    1.091    0.000    0.727 
#    0.000    3.636    0.000    0.000    0.000    0.000 
#    0.000    0.000    0.000    0.000    0.000    0.000 
#
# Total GULP energy -545090.716639 kJ/mol
# GULP energy per Si atom -12388.425378 kJ/mol
# Density = 1.688782 g / cm^3
# Si number density = 16.926348 Si / 1000 Ang^3
#
#
#
# Elastic Constant Matrix: (Units=GPa)
#
#
# Indices 1 2 3 4 5 6 
#
# 1 84.1941 52.4705 27.8335 0.0000 0.0000 0.0000
# 2 52.4705 84.1941 27.8335 0.0000 0.0000 0.0000
# 3 27.8335 27.8335 55.4735 0.0000 0.0000 0.0000
# 4 0.0000 0.0000 0.0000 14.6425 0.0000 0.0000
# 5 0.0000 0.0000 0.0000 0.0000 14.6425 0.0000
# 6 0.0000 0.0000 0.0000 0.0000 0.0000 37.0520
#
#
#
# Elastic Compliance Matrix: (Units=1/GPa)
#
#
# Indices 1 2 3 4 5 6 
#
# 1 0.020360 -0.011163 -0.004614 0.000000 0.000000 0.000000
# 2 -0.011163 0.020360 -0.004614 0.000000 0.000000 0.000000
# 3 -0.004614 -0.004614 0.022657 0.000000 0.000000 0.000000
# 4 0.000000 0.000000 0.000000 0.068294 0.000000 0.000000
# 5 0.000000 0.000000 0.000000 0.000000 0.068294 0.000000
# 6 0.000000 0.000000 0.000000 0.000000 0.000000 0.026989
#
#
# Mechanical properties :
#
#
# Convention : Reuss Voigt Hill
#
# Bulk Modulus (GPa) = 44.26153 48.90408 46.58280
# Shear Modulus (GPa) = 18.16410 20.98234 19.57322
#
# Velocity S-wave (km/s) = 3.27941 3.52465 3.40424
# Velocity P-wave (km/s) = 6.36755 6.74679 6.55991
#
# Compressibility (1/GPa) = 0.02259298
#
# Stress axis : x y z
#
# Youngs Moduli (GPa) = 49.11709 49.11709 44.13619
#
# Poissons Ratio (x) = 0.54828 0.20366
# Poissons Ratio (y) = 0.54828 0.20366
# Poissons Ratio (z) = 0.22665 0.22665
#
# Static dielectric constant tensor:
#      x y z
#    x 3.376470 0.000000 0.000000 
#    y 0.000000 3.376470 0.000000 
#    z 0.000000 0.000000 2.990830 
# 
# 
# High freq. dielectric constant tensor:
#      x y z
#    x 1.641860 0.000000 0.000000 
#    y 0.000000 1.641860 0.000000 
#    z 0.000000 0.000000 1.620510 
# 
# From -- ./inp_files/7288.got.cif
#   From: 2010.03.12/outbox.cif.g09.slc.cpg/sg134_4_cif.got.tgz:7288.got - 2010.04.06 18:17:22.
