data_PCOD8317385
_publ_section_title
;
Structure prediction by ZEFSAII (Michael W. Deem and Ramdas Pophale) SiO2 
 PCOD8317385
Probable space group: P 42/M B C
;
_chemical_formula_sum "Si O2"
_cell_formula_units_Z 128
_cell_length_a 21.262575
_cell_length_b 21.262575
_cell_length_c 17.079936
_cell_angle_alpha 90.000000
_cell_angle_beta 90.000000
_cell_angle_gamma 90.000000
_cell_volume 7721.789459
_symmetry_space_group_name_H-M "P 42/M B C"
_symmetry_group_IT_number 135
_symmetry_cell_setting 'tetragonal'
loop_
_space_group_symop_operation_xyz
x,y,z
-y,x,1/2+z
-x,-y,z
y,-x,1/2+z
1/2+x,1/2-y,-z
1/2-x,1/2+y,-z
1/2+y,1/2+x,1/2-z
1/2-y,1/2-x,1/2-z
-x,-y,-z
y,-x,1/2-z
x,y,-z
-y,x,1/2-z
1/2-x,1/2+y,z
1/2+x,1/2-y,z
1/2-y,1/2-x,1/2+z
1/2+y,1/2+x,1/2+z
loop_
_atom_site_type_symbol
_atom_site_label
_atom_site_fract_x
_atom_site_fract_y
_atom_site_fract_z
Si Si1 0.857976 0.258959 0.219688
Si Si2 0.769135 0.573131 0.914776
Si Si3 0.919493 0.585582 0.587126
Si Si4 0.945040 0.700498 0.820939
Si Si5 0.205859 0.532390 0.179961
Si Si6 0.740263 0.657726 0.226873
Si Si7 0.950842 0.432002 0.659074
Si Si8 0.183448 0.558589 0.590668
O O1 0.807098 0.307098 0.250000
O O2 0.914429 0.251824 0.280958
O O3 0.828233 0.189295 0.217728
O O4 0.882545 0.286583 0.136894
O O5 0.842900 0.560580 0.923002
O O6 0.747789 0.505111 0.879687
O O7 0.752875 0.631031 0.859379
O O8 0.738420 0.585522 0.000000
O O9 0.903478 0.557869 0.500000
O O10 0.860134 0.589970 0.644903
O O11 0.979686 0.548031 0.624729
O O12 0.895844 0.755498 0.795126
O O13 0.982313 0.679403 0.743399
O O14 0.996098 0.723954 0.886033
O O15 0.142332 0.561922 0.144034
O O16 0.791197 0.708804 0.250000
O O17 0.949288 0.449288 0.750000
O O18 0.889415 0.461511 0.614305
O O19 0.188723 0.574873 0.500000
#
# Coordination Sequence:
#
# PCOD8317385 Si02
#       8
#    16  16  16  16  16  16  16  16
#     4  10  18  34  50  70  93 124 166 206 238 287
#     4   9  18  30  48  70  94 124 157 200 244 280
#     4  10  20  31  44  65  95 127 169 212 240 276
#     4  10  19  33  48  66  91 129 165 202 245 282
#     4   9  17  32  49  65  92 124 162 203 240 277
#     4  10  19  31  53  70  92 125 165 204 243 285
#     4  11  18  32  44  64  93 130 174 207 236 272
#     4  11  21  33  49  68  97 131 161 203 248 281
#
# _framework density 16.576467999999998
#
# number of rings (size 3 to 8) (size 9 to 14) (size 15 to 20)
#    0.000    2.000    5.000    0.750    0.000    1.500 
#    2.250    1.250    0.000    1.500    0.000    0.000 
#    0.000   40.500    0.000   20.250    0.000    0.000 
#
# Total GULP energy -1585825.778599 kJ/mol
# GULP energy per Si atom -12389.263895 kJ/mol
# Density = 1.653874 g / cm^3
# Si number density = 16.576468 Si / 1000 Ang^3
#
#
#
# Elastic Constant Matrix: (Units=GPa)
#
#
# Indices 1 2 3 4 5 6 
#
# 1 55.4515 32.9282 40.7613 0.0000 0.0000 0.0000
# 2 32.9282 55.4521 40.7609 0.0000 0.0000 0.0000
# 3 40.7613 40.7609 120.1499 0.0000 0.0000 0.0000
# 4 0.0000 0.0000 0.0000 11.7329 0.0000 0.0000
# 5 0.0000 0.0000 0.0000 0.0000 11.7332 0.0000
# 6 0.0000 0.0000 0.0000 0.0000 0.0000 27.3356
#
#
#
# Elastic Compliance Matrix: (Units=1/GPa)
#
#
# Indices 1 2 3 4 5 6 
#
# 1 0.030433 -0.013965 -0.005587 0.000000 0.000000 0.000000
# 2 -0.013965 0.030433 -0.005587 0.000000 0.000000 0.000000
# 3 -0.005587 -0.005587 0.012114 0.000000 0.000000 0.000000
# 4 0.000000 0.000000 0.000000 0.085231 0.000000 0.000000
# 5 0.000000 0.000000 0.000000 0.000000 0.085228 0.000000
# 6 0.000000 0.000000 0.000000 0.000000 0.000000 0.036582
#
#
# Mechanical properties :
#
#
# Convention : Reuss Voigt Hill
#
# Bulk Modulus (GPa) = 44.04802 51.10603 47.57702
# Shear Modulus (GPa) = 14.79879 17.93387 16.36633
#
# Velocity S-wave (km/s) = 2.99115 3.29277 3.14558
# Velocity P-wave (km/s) = 6.20964 6.73453 6.47740
#
# Compressibility (1/GPa) = 0.02270250
#
# Stress axis : x y z
#
# Youngs Moduli (GPa) = 32.85874 32.85943 82.55156
#
# Poissons Ratio (x) = 0.45888 0.46122
# Poissons Ratio (y) = 0.45887 0.46119
# Poissons Ratio (z) = 0.18358 0.18357
#
# Static dielectric constant tensor:
#      x y z
#    x 3.094260 0.000000 0.000000 
#    y 0.000000 3.094260 0.000000 
#    z 0.000000 0.000000 3.453430 
# 
# 
# High freq. dielectric constant tensor:
#      x y z
#    x 1.608270 0.000000 0.000000 
#    y 0.000000 1.608270 0.000000 
#    z 0.000000 0.000000 1.645360 
# 
# From -- ./inp_files/4761.got.cif
#   From: 2010.03.12/outbox.cif.g09.slc.cpg/sg135_3_cif.got.tgz:4761.got - 2010.04.06 18:31:24.
