data_PCOD8317822
_publ_section_title
;
Structure prediction by ZEFSAII (Michael W. Deem and Ramdas Pophale) SiO2 
 PCOD8317822
Probable space group: P 42/M N M
;
_chemical_formula_sum "Si O2"
_cell_formula_units_Z 72
_cell_length_a 22.791470
_cell_length_b 22.791470
_cell_length_c 9.062633
_cell_angle_alpha 90.000000
_cell_angle_beta 90.000000
_cell_angle_gamma 90.000000
_cell_volume 4707.594724
_symmetry_space_group_name_H-M "P 42/M N M"
_symmetry_group_IT_number 136
_symmetry_cell_setting 'tetragonal'
loop_
_space_group_symop_operation_xyz
x,y,z
1/2-y,1/2+x,1/2+z
-x,-y,z
1/2+y,1/2-x,1/2+z
1/2+x,1/2-y,1/2-z
1/2-x,1/2+y,1/2-z
y,x,-z
-y,-x,-z
-x,-y,-z
1/2+y,1/2-x,1/2-z
x,y,-z
1/2-y,1/2+x,1/2-z
1/2-x,1/2+y,1/2+z
1/2+x,1/2-y,1/2+z
-y,-x,z
y,x,z
loop_
_atom_site_type_symbol
_atom_site_label
_atom_site_fract_x
_atom_site_fract_y
_atom_site_fract_z
Si Si1 0.546411 0.546411 0.675352
Si Si2 0.627842 0.724728 0.171780
Si Si3 0.198792 0.102975 0.673012
Si Si4 0.694204 0.207529 0.162635
Si Si5 0.017791 0.823715 0.175181
O O1 0.500000 0.500000 0.741147
O O2 0.545113 0.545113 0.500000
O O3 0.610504 0.529199 0.734056
O O4 0.670142 0.670142 0.210227
O O5 0.657820 0.785856 0.222014
O O6 0.567497 0.718397 0.259503
O O7 0.614149 0.728603 0.000000
O O8 0.195664 0.087949 0.500000
O O9 0.144285 0.144285 0.718458
O O10 0.260854 0.134016 0.712301
O O11 0.197487 0.044883 0.769634
O O12 0.742316 0.257685 0.152692
O O13 0.686809 0.178993 0.000000
O O14 0.020268 0.820395 0.000000
#
# Coordination Sequence:
#
# PCOD8317822 Si02
#       5
#     8  16  16  16  16
#     4   9  18  30  41  57  83 119 161 197 223 252
#     4  10  19  30  45  65  89 114 147 191 233 272
#     4   9  18  32  47  65  90 119 150 188 231 273
#     4   8  15  29  48  65  84 112 145 181 228 280
#     4  11  20  30  45  63  89 122 157 193 226 268
#
# _framework density 15.294435999999999
#
# number of rings (size 3 to 8) (size 9 to 14) (size 15 to 20)
#    0.000    2.556    1.111    3.333    0.000    3.111 
#    0.000    2.222    0.000    2.667    0.000    0.000 
#    0.000    0.889    0.000    9.333    0.000    4.000 
#
# Total GULP energy -892689.720178 kJ/mol
# GULP energy per Si atom -12398.468336 kJ/mol
# Density = 1.525962 g / cm^3
# Si number density = 15.294436 Si / 1000 Ang^3
#
#
#
# Elastic Constant Matrix: (Units=GPa)
#
#
# Indices 1 2 3 4 5 6 
#
# 1 77.2226 62.1410 45.2333 0.0000 0.0000 0.0000
# 2 62.1410 77.2226 45.2333 0.0000 0.0000 0.0000
# 3 45.2333 45.2333 72.9590 0.0000 0.0000 0.0000
# 4 0.0000 0.0000 0.0000 24.3800 0.0000 0.0000
# 5 0.0000 0.0000 0.0000 0.0000 24.3800 0.0000
# 6 0.0000 0.0000 0.0000 0.0000 0.0000 25.6061
#
#
#
# Elastic Compliance Matrix: (Units=1/GPa)
#
#
# Indices 1 2 3 4 5 6 
#
# 1 0.039157 -0.027149 -0.007445 0.000000 0.000000 0.000000
# 2 -0.027149 0.039157 -0.007445 0.000000 0.000000 0.000000
# 3 -0.007445 -0.007445 0.022938 0.000000 0.000000 0.000000
# 4 0.000000 0.000000 0.000000 0.041017 0.000000 0.000000
# 5 0.000000 0.000000 0.000000 0.000000 0.041017 0.000000
# 6 0.000000 0.000000 0.000000 0.000000 0.000000 0.039053
#
#
# Mechanical properties :
#
#
# Convention : Reuss Voigt Hill
#
# Bulk Modulus (GPa) = 58.22538 59.17992 58.70265
# Shear Modulus (GPa) = 16.01840 19.85970 17.93905
#
# Velocity S-wave (km/s) = 3.23977 3.60737 3.42850
# Velocity P-wave (km/s) = 7.22129 7.49190 7.35784
#
# Compressibility (1/GPa) = 0.01717464
#
# Stress axis : x y z
#
# Youngs Moduli (GPa) = 25.53825 25.53825 43.59631
#
# Poissons Ratio (x) = 0.69333 0.32457
# Poissons Ratio (y) = 0.69333 0.32457
# Poissons Ratio (z) = 0.19013 0.19013
#
# Static dielectric constant tensor:
#      x y z
#    x 2.885710 0.000000 0.000000 
#    y 0.000000 2.885710 0.000000 
#    z 0.000000 0.000000 2.874550 
# 
# 
# High freq. dielectric constant tensor:
#      x y z
#    x 1.565980 0.000000 0.000000 
#    y 0.000000 1.565980 0.000000 
#    z 0.000000 0.000000 1.586390 
# 
# From -- ./inp_files/1566.got.cif
#   From: 2010.03.12/outbox.cif.g09.slc.cpg/sg136_1_cif.got.tgz:1566.got - 2010.04.06 18:39:43.
