data_PCOD8317321
_publ_section_title
;
Structure prediction by ZEFSAII (Michael W. Deem and Ramdas Pophale) SiO2 
 PCOD8317321
Probable space group: P 42/N N M
;
_chemical_formula_sum "Si O2"
_cell_formula_units_Z 96
_cell_length_a 15.877348
_cell_length_b 15.877348
_cell_length_c 18.804699
_cell_angle_alpha 90.000000
_cell_angle_beta 90.000000
_cell_angle_gamma 90.000000
_cell_volume 4740.479947
_symmetry_space_group_name_H-M "P 42/N N M"
_symmetry_group_IT_number 134
_space_group.IT_coordinate_system_code '2'
_symmetry_cell_setting 'tetragonal'
loop_
_space_group_symop_operation_xyz
x,y,z
1/2-y,x,1/2+z
1/2-x,1/2-y,z
y,1/2-x,1/2+z
x,1/2-y,1/2-z
1/2-x,y,1/2-z
y,x,-z
1/2-y,1/2-x,-z
-x,-y,-z
1/2+y,-x,1/2-z
1/2+x,1/2+y,-z
-y,1/2+x,1/2-z
-x,1/2+y,1/2+z
1/2+x,-y,1/2+z
-y,-x,z
1/2+y,1/2+x,z
loop_
_atom_site_type_symbol
_atom_site_label
_atom_site_fract_x
_atom_site_fract_y
_atom_site_fract_z
Si Si1 0.246358 0.616479 0.038079
Si Si2 0.253089 0.614505 0.881597
Si Si3 0.613906 0.522511 0.707245
Si Si4 0.204267 0.021330 0.146332
Si Si5 0.553696 0.707023 0.680252
Si Si6 0.198133 0.172609 0.916682
O O1 0.304404 0.695597 0.023625
O O2 0.155541 0.655541 0.065443
O O3 0.295759 0.555686 0.091616
O O4 0.236352 0.574111 0.960348
O O5 0.348371 0.651630 0.873121
O O6 0.188920 0.688920 0.866819
O O7 0.234467 0.543372 0.823476
O O8 0.555508 0.444493 0.682833
O O9 0.644027 0.502229 0.787306
O O10 0.697468 0.533200 0.661485
O O11 0.561513 0.607156 0.692377
O O12 0.165062 0.105442 0.114664
O O13 0.595325 0.750000 0.750000
O O14 0.594184 0.744286 0.607550
O O15 0.250000 0.250000 0.883837
O O16 0.184987 0.184987 0.000000
#
# Coordination Sequence:
#
# PCOD8317321 Si02
#       6
#    16  16  16  16  16  16
#     4   9  18  36  62  88 118 158 202 251 308 364
#     4   9  20  39  61  87 120 159 203 253 309 365
#     4  11  24  38  59  90 122 160 199 244 299 360
#     4  11  21  39  61  85 125 157 199 248 298 363
#     4  12  23  40  62  86 123 162 202 250 302 362
#     4  11  23  40  63  89 117 156 204 247 301 360
#
# _framework density 20.251114000000001
#
# number of rings (size 3 to 8) (size 9 to 14) (size 15 to 20)
#    0.000    1.500    3.333    3.500    0.000    1.667 
#    0.000    0.833    0.000   11.500    0.000    0.000 
#    0.000    0.000    0.000    0.000    0.000    0.000 
#
# Total GULP energy -1189455.264291 kJ/mol
# GULP energy per Si atom -12390.159003 kJ/mol
# Density = 2.020502 g / cm^3
# Si number density = 20.251114 Si / 1000 Ang^3
#
#
#
# Elastic Constant Matrix: (Units=GPa)
#
#
# Indices 1 2 3 4 5 6 
#
# 1 188.1491 -65.4816 23.3933 0.0000 0.0000 0.0000
# 2 -65.4816 188.1491 23.3933 0.0000 0.0000 0.0000
# 3 23.3933 23.3933 68.2513 0.0000 0.0000 0.0000
# 4 0.0000 0.0000 0.0000 23.4434 0.0000 0.0000
# 5 0.0000 0.0000 0.0000 0.0000 23.4434 0.0000
# 6 0.0000 0.0000 0.0000 0.0000 0.0000 27.6866
#
#
#
# Elastic Compliance Matrix: (Units=1/GPa)
#
#
# Indices 1 2 3 4 5 6 
#
# 1 0.006660 0.002718 -0.003214 0.000000 0.000000 0.000000
# 2 0.002718 0.006660 -0.003214 0.000000 0.000000 0.000000
# 3 -0.003214 -0.003214 0.016855 0.000000 0.000000 0.000000
# 4 0.000000 0.000000 0.000000 0.042656 0.000000 0.000000
# 5 0.000000 0.000000 0.000000 0.000000 0.042656 0.000000
# 6 0.000000 0.000000 0.000000 0.000000 0.000000 0.036119
#
#
# Mechanical properties :
#
#
# Convention : Reuss Voigt Hill
#
# Bulk Modulus (GPa) = 43.94843 45.23994 44.59418
# Shear Modulus (GPa) = 30.00966 45.79767 37.90366
#
# Velocity S-wave (km/s) = 3.85369 4.76067 4.33099
# Velocity P-wave (km/s) = 6.44594 7.25304 6.86137
#
# Compressibility (1/GPa) = 0.02275394
#
# Stress axis : x y z
#
# Youngs Moduli (GPa) = 150.14056 150.14056 59.32889
#
# Poissons Ratio (x) = -0.40803 0.19070
# Poissons Ratio (y) = -0.40803 0.19070
# Poissons Ratio (z) = 0.48261 0.48261
#
# Static dielectric constant tensor:
#      x y z
#    x 3.686780 0.000000 0.000000 
#    y 0.000000 3.686780 0.000000 
#    z 0.000000 0.000000 3.868290 
# 
# 
# High freq. dielectric constant tensor:
#      x y z
#    x 1.790330 0.000000 0.000000 
#    y 0.000000 1.790330 0.000000 
#    z 0.000000 0.000000 1.791060 
# 
# From -- ./inp_files/9143.got.cif
#   From: 2010.03.12/outbox.cif.g09.slc.cpg/sg134_5_cif.got.tgz:9143.got - 2010.04.06 18:17:22.
