data_PCOD8317403
_publ_section_title
;
Structure prediction by ZEFSAII (Michael W. Deem and Ramdas Pophale) SiO2 
 PCOD8317403
Probable space group: P 42/M B C
;
_chemical_formula_sum "Si O2"
_cell_formula_units_Z 96
_cell_length_a 25.526606
_cell_length_b 25.526606
_cell_length_c 8.637018
_cell_angle_alpha 90.000000
_cell_angle_beta 90.000000
_cell_angle_gamma 90.000000
_cell_volume 5627.946690
_symmetry_space_group_name_H-M "P 42/M B C"
_symmetry_group_IT_number 135
_symmetry_cell_setting 'tetragonal'
loop_
_space_group_symop_operation_xyz
x,y,z
-y,x,1/2+z
-x,-y,z
y,-x,1/2+z
1/2+x,1/2-y,-z
1/2-x,1/2+y,-z
1/2+y,1/2+x,1/2-z
1/2-y,1/2-x,1/2-z
-x,-y,-z
y,-x,1/2-z
x,y,-z
-y,x,1/2-z
1/2-x,1/2+y,z
1/2+x,1/2-y,z
1/2-y,1/2-x,1/2+z
1/2+y,1/2+x,1/2+z
loop_
_atom_site_type_symbol
_atom_site_label
_atom_site_fract_x
_atom_site_fract_y
_atom_site_fract_z
Si Si1 0.857699 0.944172 0.317047
Si Si2 0.635876 0.054425 0.185635
Si Si3 0.641222 0.940232 0.317024
Si Si4 0.438800 0.249307 0.328830
Si Si5 0.562755 0.248029 0.668843
Si Si6 0.639968 0.557360 0.184955
O O1 0.854436 0.947774 0.500000
O O2 0.802819 0.921582 0.254786
O O3 0.902540 0.904251 0.260938
O O4 0.873719 0.000558 0.251381
O O5 0.590357 0.090357 0.250000
O O6 0.692406 0.076670 0.250613
O O7 0.626227 0.996113 0.245106
O O8 0.636201 0.053815 0.000000
O O9 0.601033 0.898968 0.250000
O O10 0.636435 0.943724 0.500000
O O11 0.699415 0.920908 0.271364
O O12 0.412993 0.246568 0.500000
O O13 0.500586 0.248870 0.346926
O O14 0.589470 0.247616 0.500000
O O15 0.577878 0.303087 0.752129
O O16 0.644014 0.552581 0.000000
#
# Coordination Sequence:
#
# PCOD8317403 Si02
#       6
#    16  16  16  16  16  16
#     4  10  19  30  48  73  97 127 168 206 244 295
#     4  10  19  32  50  73  99 129 163 201 247 294
#     4  11  21  34  52  75 101 129 163 200 240 290
#     4   9  17  32  51  70  95 127 162 201 244 288
#     4   7  13  28  48  65  86 121 161 197 236 283
#     4   9  18  32  48  68  97 131 164 203 251 296
#
# _framework density 17.057729999999999
#
# number of rings (size 3 to 8) (size 9 to 14) (size 15 to 20)
#    0.000    2.667    0.000    5.000    0.000    2.000 
#    0.000    4.167    0.000    1.000    0.000    2.333 
#    0.000    0.000    0.000    0.000    0.000    0.000 
#
# Total GULP energy -1189401.925477 kJ/mol
# GULP energy per Si atom -12389.603390 kJ/mol
# Density = 1.701891 g / cm^3
# Si number density = 17.057730 Si / 1000 Ang^3
#
#
#
# Elastic Constant Matrix: (Units=GPa)
#
#
# Indices 1 2 3 4 5 6 
#
# 1 121.5913 79.1176 40.3158 0.0000 0.0000 0.0000
# 2 79.1176 121.5940 40.3174 0.0000 0.0000 0.0000
# 3 40.3158 40.3174 79.7691 0.0000 0.0000 0.0000
# 4 0.0000 0.0000 0.0000 23.1053 0.0000 0.0000
# 5 0.0000 0.0000 0.0000 0.0000 23.1055 0.0000
# 6 0.0000 0.0000 0.0000 0.0000 0.0000 -1.7872
#
#
#
# Elastic Compliance Matrix: (Units=1/GPa)
#
#
# Indices 1 2 3 4 5 6 
#
# 1 0.014898 -0.008646 -0.003160 0.000000 0.000000 0.000000
# 2 -0.008646 0.014897 -0.003160 0.000000 0.000000 0.000000
# 3 -0.003160 -0.003160 0.015730 0.000000 0.000000 0.000000
# 4 0.000000 0.000000 0.000000 0.043280 0.000000 0.000000
# 5 0.000000 0.000000 0.000000 0.000000 0.043280 0.000000
# 6 0.000000 0.000000 0.000000 0.000000 0.000000 -0.559529
#
#
# Mechanical properties :
#
#
# Convention : Reuss Voigt Hill
#
# Bulk Modulus (GPa) = 64.12447 71.38400 67.75423
# Shear Modulus (GPa) = -12.74485 19.76495 3.51005
#
# Velocity S-wave (km/s) = -2.73639 3.40767 1.43604
# Velocity P-wave (km/s) = 5.26217 7.57775 6.52353
#
# Compressibility (1/GPa) = 0.01559467
#
# Stress axis : x y z
#
# Youngs Moduli (GPa) = 67.12519 67.12587 63.57229
#
# Poissons Ratio (x) = 0.58036 0.20086
# Poissons Ratio (y) = 0.58035 0.20088
# Poissons Ratio (z) = 0.21208 0.21211
#
# Static dielectric constant tensor:
#      x y z
#    x 3.345610 0.000000 0.000000 
#    y 0.000000 3.345600 0.000000 
#    z 0.000000 0.000000 3.191440 
# 
# 
# High freq. dielectric constant tensor:
#      x y z
#    x 1.646760 0.000000 0.000000 
#    y 0.000000 1.646760 0.000000 
#    z 0.000000 0.000000 1.655490 
# 
# From -- ./inp_files/1340.got.cif
#   From: 2010.03.12/outbox.cif.g09.slc.cpg/sg135_1_cif.got.tgz:1340.got - 2010.04.06 18:31:24.
