data_PCOD8317593
_publ_section_title
;
Structure prediction by ZEFSAII (Michael W. Deem and Ramdas Pophale) SiO2 
 PCOD8317593
Probable space group: P 42/M B C
;
_chemical_formula_sum "Si O2"
_cell_formula_units_Z 56
_cell_length_a 16.771252
_cell_length_b 16.771252
_cell_length_c 9.360548
_cell_angle_alpha 90.000000
_cell_angle_beta 90.000000
_cell_angle_gamma 90.000000
_cell_volume 2632.887143
_symmetry_space_group_name_H-M "P 42/M B C"
_symmetry_group_IT_number 135
_symmetry_cell_setting 'tetragonal'
loop_
_space_group_symop_operation_xyz
x,y,z
-y,x,1/2+z
-x,-y,z
y,-x,1/2+z
1/2+x,1/2-y,-z
1/2-x,1/2+y,-z
1/2+y,1/2+x,1/2-z
1/2-y,1/2-x,1/2-z
-x,-y,-z
y,-x,1/2-z
x,y,-z
-y,x,1/2-z
1/2-x,1/2+y,z
1/2+x,1/2-y,z
1/2-y,1/2-x,1/2+z
1/2+y,1/2+x,1/2+z
loop_
_atom_site_type_symbol
_atom_site_label
_atom_site_fract_x
_atom_site_fract_y
_atom_site_fract_z
Si Si1 0.183207 0.886025 0.842313
Si Si2 0.028835 0.631182 0.160432
Si Si3 0.144177 0.355824 0.250000
Si Si4 0.216473 0.065759 0.165467
O O1 0.275370 0.858529 0.842104
O O2 0.133411 0.843578 0.719185
O O3 0.175390 0.980145 0.814098
O O4 0.149336 0.865265 0.000000
O O5 0.052082 0.552082 0.250000
O O6 0.071471 0.703886 0.241667
O O7 0.933584 0.641524 0.149190
O O8 0.062630 0.625208 0.000000
O O9 0.237094 0.081817 0.000000
#
# Coordination Sequence:
#
# PCOD8317593 Si02
#       4
#    16  16   8  16
#     4  10  22  41  63  89 122 159 204 254 307 364
#     4  11  23  40  63  91 126 165 206 253 306 364
#     4  10  23  40  64  92 122 161 206 254 304 364
#     4  10  23  41  62  91 124 162 208 254 305 366
#
# _framework density 21.269424999999998
#
# number of rings (size 3 to 8) (size 9 to 14) (size 15 to 20)
#    0.000    1.714    0.000    3.000    2.000   12.000 
#    0.000    2.857    0.000    0.000    0.000    0.000 
#    0.000    0.000    0.000    0.000    0.000    0.000 
#
# Total GULP energy -694450.262112 kJ/mol
# GULP energy per Si atom -12400.897538 kJ/mol
# Density = 2.122101 g / cm^3
# Si number density = 21.269425 Si / 1000 Ang^3
#
#
#
# Elastic Constant Matrix: (Units=GPa)
#
#
# Indices 1 2 3 4 5 6 
#
# 1 92.0162 61.4246 55.2859 0.0000 0.0000 0.0000
# 2 61.4246 92.0165 55.2862 0.0000 0.0000 0.0000
# 3 55.2859 55.2862 175.5328 0.0000 0.0000 0.0000
# 4 0.0000 0.0000 0.0000 24.9799 0.0000 0.0000
# 5 0.0000 0.0000 0.0000 0.0000 24.9802 0.0000
# 6 0.0000 0.0000 0.0000 0.0000 0.0000 35.3049
#
#
#
# Elastic Compliance Matrix: (Units=1/GPa)
#
#
# Indices 1 2 3 4 5 6 
#
# 1 0.020560 -0.012129 -0.002655 0.000000 0.000000 0.000000
# 2 -0.012129 0.020560 -0.002655 0.000000 0.000000 0.000000
# 3 -0.002655 -0.002655 0.007370 0.000000 0.000000 0.000000
# 4 0.000000 0.000000 0.000000 0.040032 0.000000 0.000000
# 5 0.000000 0.000000 0.000000 0.000000 0.040032 0.000000
# 6 0.000000 0.000000 0.000000 0.000000 0.000000 0.028325
#
#
# Mechanical properties :
#
#
# Convention : Reuss Voigt Hill
#
# Bulk Modulus (GPa) = 73.47774 78.17322 75.82548
# Shear Modulus (GPa) = 25.47213 29.55759 27.51486
#
# Velocity S-wave (km/s) = 3.46438 3.73188 3.60062
# Velocity P-wave (km/s) = 7.11504 7.44331 7.28102
#
# Compressibility (1/GPa) = 0.01360956
#
# Stress axis : x y z
#
# Youngs Moduli (GPa) = 48.63908 48.63917 135.69271
#
# Poissons Ratio (x) = 0.58994 0.36031
# Poissons Ratio (y) = 0.58994 0.36031
# Poissons Ratio (z) = 0.12915 0.12915
#
# Static dielectric constant tensor:
#      x y z
#    x 3.789660 0.000000 0.000000 
#    y 0.000000 3.789660 0.000000 
#    z 0.000000 0.000000 3.725860 
# 
# 
# High freq. dielectric constant tensor:
#      x y z
#    x 1.832970 0.000000 0.000000 
#    y 0.000000 1.832970 0.000000 
#    z 0.000000 0.000000 1.838610 
# 
# From -- ./inp_files/672.got.cif
#   From: 2010.03.12/outbox.cif.g09.slc.cpg/sg135_1_cif.got.tgz:672.got - 2010.04.06 18:31:24.
