data_PCOD8317664
_publ_section_title
;
Structure prediction by ZEFSAII (Michael W. Deem and Ramdas Pophale) SiO2 
 PCOD8317664
Probable space group: P 42/M B C
;
_chemical_formula_sum "Si O2"
_cell_formula_units_Z 64
_cell_length_a 10.947193
_cell_length_b 10.947193
_cell_length_c 21.805448
_cell_angle_alpha 90.000000
_cell_angle_beta 90.000000
_cell_angle_gamma 90.000000
_cell_volume 2613.187448
_symmetry_space_group_name_H-M "P 42/M B C"
_symmetry_group_IT_number 135
_symmetry_cell_setting 'tetragonal'
loop_
_space_group_symop_operation_xyz
x,y,z
-y,x,1/2+z
-x,-y,z
y,-x,1/2+z
1/2+x,1/2-y,-z
1/2-x,1/2+y,-z
1/2+y,1/2+x,1/2-z
1/2-y,1/2-x,1/2-z
-x,-y,-z
y,-x,1/2-z
x,y,-z
-y,x,1/2-z
1/2-x,1/2+y,z
1/2+x,1/2-y,z
1/2-y,1/2-x,1/2+z
1/2+y,1/2+x,1/2+z
loop_
_atom_site_type_symbol
_atom_site_label
_atom_site_fract_x
_atom_site_fract_y
_atom_site_fract_z
Si Si1 0.454781 0.874439 0.611055
Si Si2 0.612953 0.592281 0.933029
Si Si3 0.791519 0.042321 0.336988
Si Si4 0.255436 0.082933 0.214627
O O1 0.467719 0.748335 0.572874
O O2 0.313831 0.883683 0.629000
O O3 0.539448 0.867573 0.671898
O O4 0.500000 0.000000 0.576753
O O5 0.500000 0.500000 0.933054
O O6 0.581356 0.682181 0.876162
O O7 0.612003 0.658606 0.000000
O O8 0.904729 0.137674 0.330444
O O9 0.766219 0.018071 0.265930
O O10 0.292344 0.207657 0.250000
#
# Coordination Sequence:
#
# PCOD8317664 Si02
#       4
#    16  16  16  16
#     4  12  26  46  72 110 152 194 249 313 387 466
#     4  11  26  50  75 102 143 196 257 318 371 447
#     4  12  25  42  71 107 146 196 244 304 382 455
#     4  12  23  41  68 110 151 192 238 304 387 469
#
# _framework density 24.491164000000001
#
# number of rings (size 3 to 8) (size 9 to 14) (size 15 to 20)
#    0.000    0.250    5.000    5.250    0.000    1.500 
#    0.000    2.500    0.000    0.000    0.000    0.000 
#    0.000    0.000    0.000    0.000    0.000    0.000 
#
# Total GULP energy -792951.533448 kJ/mol
# GULP energy per Si atom -12389.867710 kJ/mol
# Density = 2.443542 g / cm^3
# Si number density = 24.491164 Si / 1000 Ang^3
#
#
#
# Elastic Constant Matrix: (Units=GPa)
#
#
# Indices 1 2 3 4 5 6 
#
# 1 123.9185 23.5929 33.1719 0.0000 0.0000 0.0000
# 2 23.5929 123.9179 33.1720 0.0000 0.0000 0.0000
# 3 33.1719 33.1720 109.6823 0.0000 0.0000 0.0000
# 4 0.0000 0.0000 0.0000 6.1497 0.0000 0.0000
# 5 0.0000 0.0000 0.0000 0.0000 6.1499 0.0000
# 6 0.0000 0.0000 0.0000 0.0000 0.0000 43.6019
#
#
#
# Elastic Compliance Matrix: (Units=1/GPa)
#
#
# Indices 1 2 3 4 5 6 
#
# 1 0.008907 -0.001061 -0.002373 0.000000 0.000000 0.000000
# 2 -0.001061 0.008907 -0.002373 0.000000 0.000000 0.000000
# 3 -0.002373 -0.002373 0.010553 0.000000 0.000000 0.000000
# 4 0.000000 0.000000 0.000000 0.162609 0.000000 0.000000
# 5 0.000000 0.000000 0.000000 0.000000 0.162604 0.000000
# 6 0.000000 0.000000 0.000000 0.000000 0.000000 0.022935
#
#
# Mechanical properties :
#
#
# Convention : Reuss Voigt Hill
#
# Bulk Modulus (GPa) = 59.68969 59.71027 59.69998
# Shear Modulus (GPa) = 12.69961 29.01909 20.85935
#
# Velocity S-wave (km/s) = 2.27961 3.44594 2.92157
# Velocity P-wave (km/s) = 5.59944 6.34555 5.98413
#
# Compressibility (1/GPa) = 0.01675331
#
# Stress axis : x y z
#
# Youngs Moduli (GPa) = 112.27141 112.27074 94.76304
#
# Poissons Ratio (x) = 0.11907 0.22488
# Poissons Ratio (y) = 0.11907 0.22488
# Poissons Ratio (z) = 0.26642 0.26643
#
# Static dielectric constant tensor:
#      x y z
#    x 4.378010 0.000000 0.000000 
#    y 0.000000 4.378000 0.000000 
#    z 0.000000 0.000000 4.554920 
# 
# 
# High freq. dielectric constant tensor:
#      x y z
#    x 1.973530 0.000000 0.000000 
#    y 0.000000 1.973530 0.000000 
#    z 0.000000 0.000000 1.964080 
# 
# From -- ./inp_files/5041.got.cif
#   From: 2010.03.12/outbox.cif.g09.slc.cpg/sg135_3_cif.got.tgz:5041.got - 2010.04.06 18:31:24.
