data_PCOD8317192
_publ_section_title
;
Structure prediction by ZEFSAII (Michael W. Deem and Ramdas Pophale) SiO2 
 PCOD8317192
Probable space group: P 42/N N M
;
_chemical_formula_sum "Si O2"
_cell_formula_units_Z 64
_cell_length_a 11.365391
_cell_length_b 11.365391
_cell_length_c 29.429706
_cell_angle_alpha 90.000000
_cell_angle_beta 90.000000
_cell_angle_gamma 90.000000
_cell_volume 3801.497297
_symmetry_space_group_name_H-M "P 42/N N M"
_symmetry_group_IT_number 134
_space_group.IT_coordinate_system_code '2'
_symmetry_cell_setting 'tetragonal'
loop_
_space_group_symop_operation_xyz
x,y,z
1/2-y,x,1/2+z
1/2-x,1/2-y,z
y,1/2-x,1/2+z
x,1/2-y,1/2-z
1/2-x,y,1/2-z
y,x,-z
1/2-y,1/2-x,-z
-x,-y,-z
1/2+y,-x,1/2-z
1/2+x,1/2+y,-z
-y,1/2+x,1/2-z
-x,1/2+y,1/2+z
1/2+x,-y,1/2+z
-y,-x,z
1/2+y,1/2+x,z
loop_
_atom_site_type_symbol
_atom_site_label
_atom_site_fract_x
_atom_site_fract_y
_atom_site_fract_z
Si Si1 0.878639 0.121362 0.002189
Si Si2 0.441961 0.751023 0.801971
Si Si3 0.982995 0.482995 0.579871
Si Si4 0.519700 0.663080 0.532406
Si Si5 0.882931 0.710872 0.619868
O O1 0.952023 0.047978 0.038704
O O2 0.897708 0.102293 0.948215
O O3 0.917864 0.256107 0.009791
O O4 0.485167 0.750000 0.750000
O O5 0.361621 0.638379 0.812757
O O6 0.368504 0.868504 0.811969
O O7 0.554169 0.749704 0.834028
O O8 0.071765 0.405710 0.610967
O O9 0.632190 0.632190 0.500000
O O10 0.460095 0.539906 0.545731
O O11 0.566393 0.720084 0.577640
O O12 0.750000 0.750000 0.626611
#
# Coordination Sequence:
#
# PCOD8317192 Si02
#       5
#     8  16   8  16  16
#     4   9  17  30  46  64  91 131 172 214 259 291
#     4   9  18  34  55  77 103 132 166 217 272 319
#     4   9  18  30  44  68  98 130 172 210 251 312
#     4  10  20  32  46  68  97 133 177 219 254 306
#     4  11  20  31  50  74 103 138 171 214 264 319
#
# _framework density 16.835473
#
# number of rings (size 3 to 8) (size 9 to 14) (size 15 to 20)
#    0.000    2.250    1.250    3.375    0.000    3.000 
#    0.000    0.000    0.000    0.000    0.000    0.000 
#    0.000    0.000    4.500    0.000    0.000    0.000 
#
# Total GULP energy -793022.039420 kJ/mol
# GULP energy per Si atom -12390.969366 kJ/mol
# Density = 1.679715 g / cm^3
# Si number density = 16.835473 Si / 1000 Ang^3
#
#
#
# Elastic Constant Matrix: (Units=GPa)
#
#
# Indices 1 2 3 4 5 6 
#
# 1 120.4734 23.6003 57.2842 0.0000 0.0000 0.0000
# 2 23.6003 120.4734 57.2842 0.0000 0.0000 0.0000
# 3 57.2842 57.2842 107.3054 0.0000 0.0000 0.0000
# 4 0.0000 0.0000 0.0000 19.7298 0.0000 0.0000
# 5 0.0000 0.0000 0.0000 0.0000 19.7298 0.0000
# 6 0.0000 0.0000 0.0000 0.0000 0.0000 31.1795
#
#
#
# Elastic Compliance Matrix: (Units=1/GPa)
#
#
# Indices 1 2 3 4 5 6 
#
# 1 0.011192 0.000869 -0.006439 0.000000 0.000000 0.000000
# 2 0.000869 0.011192 -0.006439 0.000000 0.000000 0.000000
# 3 -0.006439 -0.006439 0.016194 0.000000 0.000000 0.000000
# 4 0.000000 0.000000 0.000000 0.050685 0.000000 0.000000
# 5 0.000000 0.000000 0.000000 0.000000 0.050685 0.000000
# 6 0.000000 0.000000 0.000000 0.000000 0.000000 0.032072
#
#
# Mechanical properties :
#
#
# Convention : Reuss Voigt Hill
#
# Bulk Modulus (GPa) = 68.67686 69.39886 69.03786
# Shear Modulus (GPa) = 24.88930 28.13337 26.51133
#
# Velocity S-wave (km/s) = 3.84915 4.09232 3.97259
# Velocity P-wave (km/s) = 7.78692 7.97751 7.88279
#
# Compressibility (1/GPa) = 0.01456095
#
# Stress axis : x y z
#
# Youngs Moduli (GPa) = 89.35057 89.35057 61.75258
#
# Poissons Ratio (x) = -0.07765 0.39760
# Poissons Ratio (y) = -0.07765 0.39760
# Poissons Ratio (z) = 0.57530 0.57530
#
# Static dielectric constant tensor:
#      x y z
#    x 3.196650 0.000000 0.000000 
#    y 0.000000 3.196650 0.000000 
#    z 0.000000 0.000000 3.029120 
# 
# 
# High freq. dielectric constant tensor:
#      x y z
#    x 1.642070 0.000000 0.000000 
#    y 0.000000 1.642070 0.000000 
#    z 0.000000 0.000000 1.641310 
# 
# From -- ./inp_files/9834.got.cif
#   From: 2010.03.12/outbox.cif.g09.slc.cpg/sg134_5_cif.got.tgz:9834.got - 2010.04.06 18:17:22.
