data_PCOD8317909
_publ_section_title
;
Structure prediction by ZEFSAII (Michael W. Deem and Ramdas Pophale) SiO2 
 PCOD8317909
Probable space group: P 42/M N M
;
_chemical_formula_sum "Si O2"
_cell_formula_units_Z 112
_cell_length_a 13.681068
_cell_length_b 13.681068
_cell_length_c 32.554350
_cell_angle_alpha 90.000000
_cell_angle_beta 90.000000
_cell_angle_gamma 90.000000
_cell_volume 6093.250480
_symmetry_space_group_name_H-M "P 42/M N M"
_symmetry_group_IT_number 136
_symmetry_cell_setting 'tetragonal'
loop_
_space_group_symop_operation_xyz
x,y,z
1/2-y,1/2+x,1/2+z
-x,-y,z
1/2+y,1/2-x,1/2+z
1/2+x,1/2-y,1/2-z
1/2-x,1/2+y,1/2-z
y,x,-z
-y,-x,-z
-x,-y,-z
1/2+y,1/2-x,1/2-z
x,y,-z
1/2-y,1/2+x,1/2-z
1/2-x,1/2+y,1/2+z
1/2+x,1/2-y,1/2+z
-y,-x,z
y,x,z
loop_
_atom_site_type_symbol
_atom_site_label
_atom_site_fract_x
_atom_site_fract_y
_atom_site_fract_z
Si Si1 0.780451 0.625572 0.327065
Si Si2 0.502851 0.889288 0.952757
Si Si3 0.143537 0.300751 0.913882
Si Si4 0.141130 0.432990 0.756140
Si Si5 0.656610 0.501004 0.618525
Si Si6 0.243823 0.404316 0.158083
Si Si7 0.402535 0.763670 0.886144
O O1 0.724144 0.724144 0.335540
O O2 0.798371 0.621024 0.278874
O O3 0.716796 0.532923 0.341398
O O4 0.874040 0.645106 0.356098
O O5 0.616007 0.859075 0.948164
O O6 0.429765 0.815981 0.929092
O O7 0.500000 0.000000 0.935506
O O8 0.471004 0.884269 0.000000
O O9 0.234588 0.234588 0.926462
O O10 0.044044 0.234573 0.913870
O O11 0.161293 0.348682 0.868812
O O12 0.123632 0.540206 0.737768
O O13 0.198365 0.435248 0.798581
O O14 0.584142 0.415859 0.633488
O O15 0.592896 0.592896 0.600021
O O16 0.336611 0.336611 0.166452
O O17 0.282859 0.500309 0.134160
O O18 0.320903 0.679098 0.893556
#
# Coordination Sequence:
#
# PCOD8317909 Si02
#       7
#    16  16  16  16  16  16  16
#     4  10  19  33  51  73 104 139 176 221 271 322
#     4  10  21  36  57  85 113 143 181 230 282 337
#     4   9  18  33  54  77 104 142 181 221 274 333
#     4  11  21  32  49  76 106 139 184 229 269 323
#     4   9  17  30  50  76 103 134 175 219 267 326
#     4  10  20  36  54  75 106 145 187 232 279 331
#     4  10  21  38  59  82 109 146 187 230 282 335
#
# _framework density 18.380993
#
# number of rings (size 3 to 8) (size 9 to 14) (size 15 to 20)
#    0.000    2.143    1.429    2.143    0.000    2.000 
#    0.000    1.429    0.000    3.000    0.000    6.000 
#    0.000    0.000    0.000    0.000    0.000    0.000 
#
# Total GULP energy -1388000.166013 kJ/mol
# GULP energy per Si atom -12392.858625 kJ/mol
# Density = 1.833916 g / cm^3
# Si number density = 18.380993 Si / 1000 Ang^3
#
#
#
# Elastic Constant Matrix: (Units=GPa)
#
#
# Indices 1 2 3 4 5 6 
#
# 1 91.9136 41.8235 32.0426 0.0000 0.0000 0.0000
# 2 41.8235 91.9136 32.0426 0.0000 0.0000 0.0000
# 3 32.0426 32.0426 79.1332 0.0000 0.0000 0.0000
# 4 0.0000 0.0000 0.0000 23.7938 0.0000 0.0000
# 5 0.0000 0.0000 0.0000 0.0000 23.7938 0.0000
# 6 0.0000 0.0000 0.0000 0.0000 0.0000 -2.8313
#
#
#
# Elastic Compliance Matrix: (Units=1/GPa)
#
#
# Indices 1 2 3 4 5 6 
#
# 1 0.014621 -0.005343 -0.003757 0.000000 0.000000 0.000000
# 2 -0.005343 0.014621 -0.003757 0.000000 0.000000 0.000000
# 3 -0.003757 -0.003757 0.015679 0.000000 0.000000 0.000000
# 4 0.000000 0.000000 0.000000 0.042028 0.000000 0.000000
# 5 0.000000 0.000000 0.000000 0.000000 0.042028 0.000000
# 6 0.000000 0.000000 0.000000 0.000000 0.000000 -0.353189
#
#
# Mechanical properties :
#
#
# Convention : Reuss Voigt Hill
#
# Bulk Modulus (GPa) = 52.06270 52.75312 52.40791
# Shear Modulus (GPa) = -26.02850 19.42135 -3.30358
#
# Velocity S-wave (km/s) = -3.76713 3.25406 -1.34208
# Velocity P-wave (km/s) = 3.07636 6.54834 5.11589
#
# Compressibility (1/GPa) = 0.01920761
#
# Stress axis : x y z
#
# Youngs Moduli (GPa) = 68.39592 68.39592 63.77879
#
# Poissons Ratio (x) = 0.36546 0.23959
# Poissons Ratio (y) = 0.36546 0.23959
# Poissons Ratio (z) = 0.25694 0.25694
#
# Static dielectric constant tensor:
#      x y z
#    x 3.492310 0.000000 0.000000 
#    y 0.000000 3.492310 0.000000 
#    z 0.000000 0.000000 3.061920 
# 
# 
# High freq. dielectric constant tensor:
#      x y z
#    x 1.719730 0.000000 0.000000 
#    y 0.000000 1.719730 0.000000 
#    z 0.000000 0.000000 1.688230 
# 
# From -- ./inp_files/9154.got.cif
#   From: 2010.03.12/outbox.cif.g09.slc.cpg/sg136_5_cif.got.tgz:9154.got - 2010.04.06 18:39:43.
