data_PCOD8317578
_publ_section_title
;
Structure prediction by ZEFSAII (Michael W. Deem and Ramdas Pophale) SiO2 
 PCOD8317578
Probable space group: P 42/M B C
;
_chemical_formula_sum "Si O2"
_cell_formula_units_Z 112
_cell_length_a 14.105741
_cell_length_b 14.105741
_cell_length_c 27.253705
_cell_angle_alpha 90.000000
_cell_angle_beta 90.000000
_cell_angle_gamma 90.000000
_cell_volume 5422.722261
_symmetry_space_group_name_H-M "P 42/M B C"
_symmetry_group_IT_number 135
_symmetry_cell_setting 'tetragonal'
loop_
_space_group_symop_operation_xyz
x,y,z
-y,x,1/2+z
-x,-y,z
y,-x,1/2+z
1/2+x,1/2-y,-z
1/2-x,1/2+y,-z
1/2+y,1/2+x,1/2-z
1/2-y,1/2-x,1/2-z
-x,-y,-z
y,-x,1/2-z
x,y,-z
-y,x,1/2-z
1/2-x,1/2+y,z
1/2+x,1/2-y,z
1/2-y,1/2-x,1/2+z
1/2+y,1/2+x,1/2+z
loop_
_atom_site_type_symbol
_atom_site_label
_atom_site_fract_x
_atom_site_fract_y
_atom_site_fract_z
Si Si1 0.894171 0.292915 0.294112
Si Si2 0.783631 0.387607 0.904237
Si Si3 0.112388 0.283633 0.404237
Si Si4 0.602666 0.602662 0.749999
Si Si5 0.718917 0.391638 0.556749
Si Si6 0.105821 0.292920 0.294112
Si Si7 0.891640 0.781079 0.056750
O O1 0.830853 0.330853 0.250000
O O2 0.862305 0.318896 0.348906
O O3 0.886723 0.179089 0.293031
O O4 0.999995 0.330190 0.284325
O O5 0.791223 0.499998 0.914936
O O6 0.855139 0.327765 0.938175
O O7 0.675619 0.352929 0.912975
O O8 0.147068 0.175621 0.412975
O O9 0.137687 0.318898 0.348906
O O10 0.172232 0.355142 0.438174
O O11 0.613552 0.499997 0.724154
O O12 0.679095 0.613276 0.793028
O O13 0.690391 0.385444 0.500000
O O14 0.710546 0.499999 0.575644
O O15 0.169135 0.330866 0.250000
O O16 0.885446 0.809603 0.000000
#
# Coordination Sequence:
#
# PCOD8317578 Si02
#       7
#    16  16  16  16  16  16  16
#     4  10  22  37  56  83 116 155 194 237 288 340
#     4  10  22  40  62  89 119 156 203 246 290 353
#     4  10  22  40  62  89 119 156 203 246 290 353
#     4   9  19  34  52  78 111 147 188 230 278 339
#     4  10  23  41  61  90 124 155 193 247 308 363
#     4  10  22  37  56  83 116 155 194 237 288 340
#     4  10  23  41  61  90 124 155 193 247 308 363
#
# _framework density 20.653834
#
# number of rings (size 3 to 8) (size 9 to 14) (size 15 to 20)
#    0.000    2.143    0.000    2.143    8.000    6.000 
#    0.000    8.571    0.000    0.000    0.000    0.000 
#    0.000    0.000    0.000    0.000    0.000    0.000 
#
# Total GULP energy -1387867.361386 kJ/mol
# GULP energy per Si atom -12391.672870 kJ/mol
# Density = 2.060682 g / cm^3
# Si number density = 20.653834 Si / 1000 Ang^3
#
#
#
# Elastic Constant Matrix: (Units=GPa)
#
#
# Indices 1 2 3 4 5 6 
#
# 1 102.6892 22.7903 30.6619 0.0000 0.0000 0.0000
# 2 22.7903 102.6893 30.6626 0.0000 0.0000 0.0000
# 3 30.6619 30.6626 84.2279 0.0000 0.0000 0.0000
# 4 0.0000 0.0000 0.0000 24.9385 0.0000 0.0000
# 5 0.0000 0.0000 0.0000 0.0000 24.9384 0.0000
# 6 0.0000 0.0000 0.0000 0.0000 0.0000 20.9206
#
#
#
# Elastic Compliance Matrix: (Units=1/GPa)
#
#
# Indices 1 2 3 4 5 6 
#
# 1 0.011105 -0.001411 -0.003529 0.000000 0.000000 0.000000
# 2 -0.001411 0.011105 -0.003529 0.000000 0.000000 0.000000
# 3 -0.003529 -0.003529 0.014442 0.000000 0.000000 0.000000
# 4 0.000000 0.000000 0.000000 0.040099 0.000000 0.000000
# 5 0.000000 0.000000 0.000000 0.000000 0.040099 0.000000
# 6 0.000000 0.000000 0.000000 0.000000 0.000000 0.047800
#
#
# Mechanical properties :
#
#
# Convention : Reuss Voigt Hill
#
# Bulk Modulus (GPa) = 50.72517 50.87065 50.79791
# Shear Modulus (GPa) = 26.57336 27.85895 27.21615
#
# Velocity S-wave (km/s) = 3.59082 3.67666 3.63399
# Velocity P-wave (km/s) = 6.46568 6.53508 6.50047
#
# Compressibility (1/GPa) = 0.01971408
#
# Stress axis : x y z
#
# Youngs Moduli (GPa) = 90.04992 90.04959 69.24263
#
# Poissons Ratio (x) = 0.12704 0.24436
# Poissons Ratio (y) = 0.12704 0.24436
# Poissons Ratio (z) = 0.31779 0.31779
#
# Static dielectric constant tensor:
#      x y z
#    x 3.872710 0.000000 0.000000 
#    y 0.000000 3.872710 0.000000 
#    z 0.000000 0.000000 3.557840 
# 
# 
# High freq. dielectric constant tensor:
#      x y z
#    x 1.810080 0.000000 0.000000 
#    y 0.000000 1.810080 0.000000 
#    z 0.000000 0.000000 1.796920 
# 
# From -- ./inp_files/6149.got.cif
#   From: 2010.03.12/outbox.cif.g09.slc.cpg/sg135_4_cif.got.tgz:6149.got - 2010.04.06 18:31:24.
