data_PCOD8317858
_publ_section_title
;
Structure prediction by ZEFSAII (Michael W. Deem and Ramdas Pophale) SiO2 
 PCOD8317858
Probable space group: P 42/M N M
;
_chemical_formula_sum "Si O2"
_cell_formula_units_Z 96
_cell_length_a 24.473100
_cell_length_b 24.473100
_cell_length_c 9.264233
_cell_angle_alpha 90.000000
_cell_angle_beta 90.000000
_cell_angle_gamma 90.000000
_cell_volume 5548.651376
_symmetry_space_group_name_H-M "P 42/M N M"
_symmetry_group_IT_number 136
_symmetry_cell_setting 'tetragonal'
loop_
_space_group_symop_operation_xyz
x,y,z
1/2-y,1/2+x,1/2+z
-x,-y,z
1/2+y,1/2-x,1/2+z
1/2+x,1/2-y,1/2-z
1/2-x,1/2+y,1/2-z
y,x,-z
-y,-x,-z
-x,-y,-z
1/2+y,1/2-x,1/2-z
x,y,-z
1/2-y,1/2+x,1/2-z
1/2-x,1/2+y,1/2+z
1/2+x,1/2-y,1/2+z
-y,-x,z
y,x,z
loop_
_atom_site_type_symbol
_atom_site_label
_atom_site_fract_x
_atom_site_fract_y
_atom_site_fract_z
Si Si1 0.701256 0.701256 0.328741
Si Si2 0.776004 0.529554 0.663481
Si Si3 0.168234 0.977728 0.663975
Si Si4 0.187019 0.098609 0.663234
Si Si5 0.387360 0.387360 0.670856
Si Si6 0.851074 0.315189 0.833971
Si Si7 0.295886 0.090774 0.166124
O O1 0.700433 0.700433 0.500000
O O2 0.657036 0.657036 0.273716
O O3 0.761632 0.682237 0.274036
O O4 0.751289 0.528957 0.500000
O O5 0.729280 0.532796 0.781901
O O6 0.811620 0.583685 0.684661
O O7 0.810952 0.473694 0.688091
O O8 0.163516 0.956391 0.500000
O O9 0.126507 0.946519 0.766769
O O10 0.154421 0.041723 0.674802
O O11 0.209762 0.106068 0.500000
O O12 0.146241 0.146241 0.706232
O O13 0.235369 0.101537 0.776792
O O14 0.390028 0.390028 0.500000
O O15 0.837236 0.370235 0.749602
O O16 0.834734 0.322843 0.000000
O O17 0.298093 0.107437 0.000000
#
# Coordination Sequence:
#
# PCOD8317858 Si02
#       7
#     8  16  16  16   8  16  16
#     4   9  18  31  51  74  98 133 174 201 235 300
#     4   9  18  35  55  72  99 138 174 203 249 313
#     4  10  19  31  50  76  99 125 171 222 259 293
#     4   9  19  36  54  70  96 138 178 209 249 308
#     4  11  19  33  52  72 101 138 170 204 259 317
#     4  10  19  34  54  76 102 138 174 203 243 307
#     4  10  21  34  51  80 108 131 164 214 261 297
#
# _framework density 17.301503
#
# number of rings (size 3 to 8) (size 9 to 14) (size 15 to 20)
#    0.000    2.333    1.667    1.250    1.167    2.333 
#    0.000    0.417    0.000    3.000    0.000    3.500 
#    0.000    0.000    0.000    0.000    0.000    0.000 
#
# Total GULP energy -1190038.308520 kJ/mol
# GULP energy per Si atom -12396.232380 kJ/mol
# Density = 1.726212 g / cm^3
# Si number density = 17.301503 Si / 1000 Ang^3
#
#
#
# Elastic Constant Matrix: (Units=GPa)
#
#
# Indices 1 2 3 4 5 6 
#
# 1 89.7798 54.4269 41.0731 0.0000 0.0000 0.0000
# 2 54.4269 89.7798 41.0731 0.0000 0.0000 0.0000
# 3 41.0731 41.0731 81.2948 0.0000 0.0000 0.0000
# 4 0.0000 0.0000 0.0000 27.3844 0.0000 0.0000
# 5 0.0000 0.0000 0.0000 0.0000 27.3844 0.0000
# 6 0.0000 0.0000 0.0000 0.0000 0.0000 23.7201
#
#
#
# Elastic Compliance Matrix: (Units=1/GPa)
#
#
# Indices 1 2 3 4 5 6 
#
# 1 0.019012 -0.009275 -0.004919 0.000000 0.000000 0.000000
# 2 -0.009275 0.019012 -0.004919 0.000000 0.000000 0.000000
# 3 -0.004919 -0.004919 0.017272 0.000000 0.000000 0.000000
# 4 0.000000 0.000000 0.000000 0.036517 0.000000 0.000000
# 5 0.000000 0.000000 0.000000 0.000000 0.036517 0.000000
# 6 0.000000 0.000000 0.000000 0.000000 0.000000 0.042158
#
#
# Mechanical properties :
#
#
# Convention : Reuss Voigt Hill
#
# Bulk Modulus (GPa) = 58.58968 59.33342 58.96155
# Shear Modulus (GPa) = 23.32049 23.98319 23.65184
#
# Velocity S-wave (km/s) = 3.67534 3.72720 3.70136
# Velocity P-wave (km/s) = 7.20752 7.27261 7.24014
#
# Compressibility (1/GPa) = 0.01706785
#
# Stress axis : x y z
#
# Youngs Moduli (GPa) = 52.59973 52.59973 57.89781
#
# Poissons Ratio (x) = 0.48785 0.28482
# Poissons Ratio (y) = 0.48785 0.28482
# Poissons Ratio (z) = 0.25876 0.25876
#
# Static dielectric constant tensor:
#      x y z
#    x 3.234020 0.000000 0.000000 
#    y 0.000000 3.234020 0.000000 
#    z 0.000000 0.000000 3.253120 
# 
# 
# High freq. dielectric constant tensor:
#      x y z
#    x 1.657010 0.000000 0.000000 
#    y 0.000000 1.657010 0.000000 
#    z 0.000000 0.000000 1.669010 
# 
# From -- ./inp_files/2095.got.cif
#   From: 2010.03.12/outbox.cif.g09.slc.cpg/sg136_2_cif.got.tgz:2095.got - 2010.04.06 18:39:43.
