data_PCOD8317378
_publ_section_title
;
Structure prediction by ZEFSAII (Michael W. Deem and Ramdas Pophale) SiO2 
 PCOD8317378
Probable space group: P 42/M B C
;
_chemical_formula_sum "Si O2"
_cell_formula_units_Z 104
_cell_length_a 14.672262
_cell_length_b 14.672262
_cell_length_c 23.803734
_cell_angle_alpha 90.000000
_cell_angle_beta 90.000000
_cell_angle_gamma 90.000000
_cell_volume 5124.355316
_symmetry_space_group_name_H-M "P 42/M B C"
_symmetry_group_IT_number 135
_symmetry_cell_setting 'tetragonal'
loop_
_space_group_symop_operation_xyz
x,y,z
-y,x,1/2+z
-x,-y,z
y,-x,1/2+z
1/2+x,1/2-y,-z
1/2-x,1/2+y,-z
1/2+y,1/2+x,1/2-z
1/2-y,1/2-x,1/2-z
-x,-y,-z
y,-x,1/2-z
x,y,-z
-y,x,1/2-z
1/2-x,1/2+y,z
1/2+x,1/2-y,z
1/2-y,1/2-x,1/2+z
1/2+y,1/2+x,1/2+z
loop_
_atom_site_type_symbol
_atom_site_label
_atom_site_fract_x
_atom_site_fract_y
_atom_site_fract_z
Si Si1 0.803202 0.843983 0.936812
Si Si2 0.394992 0.999998 0.370350
Si Si3 0.698464 0.900821 0.832229
Si Si4 0.717536 0.500002 0.565490
Si Si5 0.750001 0.750000 0.250000
Si Si6 0.698469 0.099176 0.167772
Si Si7 0.656014 0.303207 0.436812
O O1 0.746515 0.905377 0.893459
O O2 0.906757 0.830620 0.912843
O O3 0.750000 0.749998 0.939250
O O4 0.804560 0.887053 0.000000
O O5 0.325198 0.999998 0.421896
O O6 0.374032 0.908635 0.334750
O O7 0.500000 0.000000 0.392121
O O8 0.374031 0.091359 0.334749
O O9 0.753029 0.836419 0.790455
O O10 0.705613 0.999998 0.805266
O O11 0.708843 0.500003 0.500000
O O12 0.669380 0.406762 0.587157
O O13 0.836425 0.753031 0.290451
O O14 0.746523 0.094619 0.106542
O O15 0.612944 0.304565 0.500000
#
# Coordination Sequence:
#
# PCOD8317378 Si02
#       7
#    16  16  16  16   8  16  16
#     4  10  19  36  60  88 122 162 203 246 300 359
#     4  10  20  35  56  89 123 148 193 249 307 366
#     4  11  24  41  64  93 120 158 201 250 309 366
#     4  10  18  31  57  88 122 165 205 241 291 358
#     4  12  24  44  64  86 116 160 200 248 302 360
#     4  11  24  41  64  93 120 158 201 250 309 366
#     4  10  19  36  60  88 122 162 203 246 300 359
#
# _framework density 20.295235999999999
#
# number of rings (size 3 to 8) (size 9 to 14) (size 15 to 20)
#    0.000    1.538    4.615    0.000    2.154    0.923 
#    2.769    3.846    0.000    2.769    0.000    0.000 
#    0.000    0.000    0.000    0.000    0.000    0.000 
#
# Total GULP energy -1288769.078257 kJ/mol
# GULP energy per Si atom -12392.010368 kJ/mol
# Density = 2.024904 g / cm^3
# Si number density = 20.295236 Si / 1000 Ang^3
#
#
#
# Elastic Constant Matrix: (Units=GPa)
#
#
# Indices 1 2 3 4 5 6 
#
# 1 115.9595 49.5295 43.3402 0.0000 0.0000 0.0000
# 2 49.5295 115.9595 43.3402 0.0000 0.0000 0.0000
# 3 43.3402 43.3402 83.3766 0.0000 0.0000 0.0000
# 4 0.0000 0.0000 0.0000 -16.2696 0.0000 0.0000
# 5 0.0000 0.0000 0.0000 0.0000 -16.2696 0.0000
# 6 0.0000 0.0000 0.0000 0.0000 0.0000 19.9401
#
#
#
# Elastic Compliance Matrix: (Units=1/GPa)
#
#
# Indices 1 2 3 4 5 6 
#
# 1 0.011678 -0.003375 -0.004316 0.000000 0.000000 0.000000
# 2 -0.003375 0.011678 -0.004316 0.000000 0.000000 0.000000
# 3 -0.004316 -0.004316 0.016481 0.000000 0.000000 0.000000
# 4 0.000000 0.000000 0.000000 -0.061464 0.000000 0.000000
# 5 0.000000 0.000000 0.000000 0.000000 -0.061464 0.000000
# 6 0.000000 0.000000 0.000000 0.000000 0.000000 0.050150
#
#
# Mechanical properties :
#
#
# Convention : Reuss Voigt Hill
#
# Bulk Modulus (GPa) = 63.19910 65.30170 64.25040
# Shear Modulus (GPa) = -1369.35068 9.41924 -679.96572
#
# Velocity S-wave (km/s) = -26.00346 2.15666 -18.32388
# Velocity P-wave (km/s) = 29.50197 6.20059 20.39508
#
# Compressibility (1/GPa) = 0.01582301
#
# Stress axis : x y z
#
# Youngs Moduli (GPa) = 85.62777 85.62777 60.67578
#
# Poissons Ratio (x) = 0.28899 0.26189
# Poissons Ratio (y) = 0.28899 0.26189
# Poissons Ratio (z) = 0.36959 0.36959
#
# Static dielectric constant tensor:
#      x y z
#    x 4.044130 0.000000 0.000000 
#    y 0.000000 4.044130 0.000000 
#    z 0.000000 0.000000 3.655240 
# 
# 
# High freq. dielectric constant tensor:
#      x y z
#    x 1.792980 0.000000 0.000000 
#    y 0.000000 1.792980 0.000000 
#    z 0.000000 0.000000 1.774320 
# 
# From -- ./inp_files/6092.got.cif
#   From: 2010.03.12/outbox.cif.g09.slc.cpg/sg135_4_cif.got.tgz:6092.got - 2010.04.06 18:31:24.
