data_PCOD8317991
_publ_section_title
;
Structure prediction by ZEFSAII (Michael W. Deem and Ramdas Pophale) SiO2 
 PCOD8317991
Probable space group: P 42/M N M
;
_chemical_formula_sum "Si O2"
_cell_formula_units_Z 96
_cell_length_a 24.940593
_cell_length_b 24.940593
_cell_length_c 9.000393
_cell_angle_alpha 90.000000
_cell_angle_beta 90.000000
_cell_angle_gamma 90.000000
_cell_volume 5598.543072
_symmetry_space_group_name_H-M "P 42/M N M"
_symmetry_group_IT_number 136
_symmetry_cell_setting 'tetragonal'
loop_
_space_group_symop_operation_xyz
x,y,z
1/2-y,1/2+x,1/2+z
-x,-y,z
1/2+y,1/2-x,1/2+z
1/2+x,1/2-y,1/2-z
1/2-x,1/2+y,1/2-z
y,x,-z
-y,-x,-z
-x,-y,-z
1/2+y,1/2-x,1/2-z
x,y,-z
1/2-y,1/2+x,1/2-z
1/2-x,1/2+y,1/2+z
1/2+x,1/2-y,1/2+z
-y,-x,z
y,x,z
loop_
_atom_site_type_symbol
_atom_site_label
_atom_site_fract_x
_atom_site_fract_y
_atom_site_fract_z
Si Si1 0.948359 0.363052 0.167485
Si Si2 0.737458 0.650300 0.324633
Si Si3 0.065499 0.256183 0.834480
Si Si4 0.324120 0.765483 0.169412
Si Si5 0.561613 0.118308 0.340300
Si Si6 0.745899 0.041091 0.675158
O O1 0.897896 0.400323 0.206027
O O2 0.951639 0.316278 0.287165
O O3 0.000399 0.401724 0.181351
O O4 0.940559 0.340306 0.000000
O O5 0.738477 0.640181 0.500000
O O6 0.688834 0.688834 0.279276
O O7 0.794129 0.679310 0.277499
O O8 0.726048 0.594173 0.242146
O O9 0.123635 0.248518 0.761522
O O10 0.054005 0.318516 0.844158
O O11 0.014922 0.230797 0.743900
O O12 0.066621 0.230761 0.000000
O O13 0.282458 0.717543 0.186259
O O14 0.342415 0.772644 0.000000
O O15 0.584215 0.097872 0.500000
O O16 0.755227 0.039031 0.500000
#
# Coordination Sequence:
#
# PCOD8317991 Si02
#       6
#    16  16  16  16  16  16
#     4  10  20  32  45  60  80 109 146 188 232 278
#     4   9  18  33  52  73  99 130 160 193 237 288
#     4  10  20  33  48  67  92 122 157 194 232 278
#     4   9  18  32  50  73 100 129 160 195 239 289
#     4   9  19  32  43  59  81 107 144 189 234 276
#     4  11  21  32  48  68  92 122 155 193 234 277
#
# _framework density 17.147317000000001
#
# number of rings (size 3 to 8) (size 9 to 14) (size 15 to 20)
#    0.000    2.333    0.000    5.500    0.000    8.333 
#    0.000    3.333    0.000    0.000    0.000    0.000 
#    0.000    0.667    0.000    7.000    0.000    3.000 
#
# Total GULP energy -1189471.512622 kJ/mol
# GULP energy per Si atom -12390.328256 kJ/mol
# Density = 1.710829 g / cm^3
# Si number density = 17.147317 Si / 1000 Ang^3
#
#
#
# Elastic Constant Matrix: (Units=GPa)
#
#
# Indices 1 2 3 4 5 6 
#
# 1 53.3291 -7.3757 20.8610 0.0000 0.0000 0.0000
# 2 -7.3757 53.3291 20.8610 0.0000 0.0000 0.0000
# 3 20.8610 20.8610 88.9950 0.0000 0.0000 0.0000
# 4 0.0000 0.0000 0.0000 24.2172 0.0000 0.0000
# 5 0.0000 0.0000 0.0000 0.0000 24.2172 0.0000
# 6 0.0000 0.0000 0.0000 0.0000 0.0000 16.9915
#
#
#
# Elastic Compliance Matrix: (Units=1/GPa)
#
#
# Indices 1 2 3 4 5 6 
#
# 1 0.022059 0.005586 -0.006480 0.000000 0.000000 0.000000
# 2 0.005586 0.022059 -0.006480 0.000000 0.000000 0.000000
# 3 -0.006480 -0.006480 0.014275 0.000000 0.000000 0.000000
# 4 0.000000 0.000000 0.000000 0.041293 0.000000 0.000000
# 5 0.000000 0.000000 0.000000 0.000000 0.041293 0.000000
# 6 0.000000 0.000000 0.000000 0.000000 0.000000 0.058853
#
#
# Mechanical properties :
#
#
# Convention : Reuss Voigt Hill
#
# Bulk Modulus (GPa) = 22.91299 29.37177 26.14238
# Shear Modulus (GPa) = 21.82188 23.83898 22.83043
#
# Velocity S-wave (km/s) = 3.57124 3.73264 3.65283
# Velocity P-wave (km/s) = 5.51330 5.97855 5.75063
#
# Compressibility (1/GPa) = 0.04364337
#
# Stress axis : x y z
#
# Youngs Moduli (GPa) = 45.33325 45.33325 70.05490
#
# Poissons Ratio (x) = -0.25322 0.45396
# Poissons Ratio (y) = -0.25322 0.45396
# Poissons Ratio (z) = 0.29376 0.29376
#
# Static dielectric constant tensor:
#      x y z
#    x 3.121130 0.000000 0.000000 
#    y 0.000000 3.121130 0.000000 
#    z 0.000000 0.000000 3.291810 
# 
# 
# High freq. dielectric constant tensor:
#      x y z
#    x 1.637090 0.000000 0.000000 
#    y 0.000000 1.637090 0.000000 
#    z 0.000000 0.000000 1.667700 
# 
# From -- ./inp_files/2002.got.cif
#   From: 2010.03.12/outbox.cif.g09.slc.cpg/sg136_2_cif.got.tgz:2002.got - 2010.04.06 18:39:43.
