data_PCOD8317706
_publ_section_title
;
Structure prediction by ZEFSAII (Michael W. Deem and Ramdas Pophale) SiO2 
 PCOD8317706
Probable space group: P 42/M N M
;
_chemical_formula_sum "Si O2"
_cell_formula_units_Z 128
_cell_length_a 20.816330
_cell_length_b 20.816330
_cell_length_c 17.384076
_cell_angle_alpha 90.000000
_cell_angle_beta 90.000000
_cell_angle_gamma 90.000000
_cell_volume 7532.860766
_symmetry_space_group_name_H-M "P 42/M N M"
_symmetry_group_IT_number 136
_symmetry_cell_setting 'tetragonal'
loop_
_space_group_symop_operation_xyz
x,y,z
1/2-y,1/2+x,1/2+z
-x,-y,z
1/2+y,1/2-x,1/2+z
1/2+x,1/2-y,1/2-z
1/2-x,1/2+y,1/2-z
y,x,-z
-y,-x,-z
-x,-y,-z
1/2+y,1/2-x,1/2-z
x,y,-z
1/2-y,1/2+x,1/2-z
1/2-x,1/2+y,1/2+z
1/2+x,1/2-y,1/2+z
-y,-x,z
y,x,z
loop_
_atom_site_type_symbol
_atom_site_label
_atom_site_fract_x
_atom_site_fract_y
_atom_site_fract_z
Si Si1 0.907820 0.506132 0.286438
Si Si2 0.075207 0.675328 0.410828
Si Si3 0.588278 0.959788 0.585841
Si Si4 0.851183 0.689331 0.589048
Si Si5 0.203017 0.695932 0.332350
Si Si6 0.241424 0.860460 0.815825
Si Si7 0.519182 0.763765 0.766902
Si Si8 0.717324 0.382629 0.221533
O O1 0.938262 0.436723 0.269230
O O2 0.932716 0.526107 0.370455
O O3 0.832346 0.501814 0.271905
O O4 0.066478 0.697018 0.500000
O O5 0.151418 0.666516 0.392919
O O6 0.049581 0.729637 0.352231
O O7 0.033192 0.610357 0.396018
O O8 0.564852 0.951945 0.500000
O O9 0.650008 0.916177 0.604839
O O10 0.845385 0.710267 0.500000
O O11 0.789280 0.646203 0.611445
O O12 0.853938 0.750988 0.643895
O O13 0.248436 0.751565 0.370392
O O14 0.167952 0.724546 0.258696
O O15 0.246641 0.638669 0.299685
O O16 0.174664 0.825337 0.835145
O O17 0.228123 0.934465 0.794233
O O18 0.459128 0.716928 0.777656
O O19 0.644718 0.355283 0.222957
#
# Coordination Sequence:
#
# PCOD8317706 Si02
#       8
#    16  16  16  16  16  16  16  16
#     4  11  21  31  48  68  88 136 178 200 232 290
#     4  10  19  29  47  70  96 130 164 205 252 289
#     4  10  19  32  46  70 105 135 165 206 246 291
#     4  10  17  29  49  76 106 132 156 196 252 306
#     4   8  17  31  48  68  92 124 171 216 245 282
#     4   9  18  31  48  71  96 127 162 197 242 288
#     4  11  20  33  52  68  99 127 165 210 243 297
#     4  10  20  33  52  75  95 126 166 206 254 301
#
# _framework density 16.992215999999999
#
# number of rings (size 3 to 8) (size 9 to 14) (size 15 to 20)
#    0.000    2.125    3.750    1.125    3.500    1.250 
#    0.000    1.875    0.000    1.125    0.000    0.000 
#    0.000    0.000    0.000    8.500    0.000    0.000 
#
# Total GULP energy -1586014.853480 kJ/mol
# GULP energy per Si atom -12390.741043 kJ/mol
# Density = 1.695354 g / cm^3
# Si number density = 16.992216 Si / 1000 Ang^3
#
#
#
# Elastic Constant Matrix: (Units=GPa)
#
#
# Indices 1 2 3 4 5 6 
#
# 1 60.4879 25.5436 25.5071 0.0000 0.0000 0.0000
# 2 25.5436 60.4879 25.5071 0.0000 0.0000 0.0000
# 3 25.5071 25.5071 69.9165 0.0000 0.0000 0.0000
# 4 0.0000 0.0000 0.0000 16.5718 0.0000 0.0000
# 5 0.0000 0.0000 0.0000 0.0000 16.5718 0.0000
# 6 0.0000 0.0000 0.0000 0.0000 0.0000 14.6843
#
#
#
# Elastic Compliance Matrix: (Units=1/GPa)
#
#
# Indices 1 2 3 4 5 6 
#
# 1 0.021725 -0.006892 -0.005411 0.000000 0.000000 0.000000
# 2 -0.006892 0.021725 -0.005411 0.000000 0.000000 0.000000
# 3 -0.005411 -0.005411 0.018251 0.000000 0.000000 0.000000
# 4 0.000000 0.000000 0.000000 0.060343 0.000000 0.000000
# 5 0.000000 0.000000 0.000000 0.000000 0.060343 0.000000
# 6 0.000000 0.000000 0.000000 0.000000 0.000000 0.068100
#
#
# Mechanical properties :
#
#
# Convention : Reuss Voigt Hill
#
# Bulk Modulus (GPa) = 38.06482 38.22312 38.14397
# Shear Modulus (GPa) = 16.96794 17.18789 17.07791
#
# Velocity S-wave (km/s) = 3.16345 3.18388 3.17368
# Velocity P-wave (km/s) = 5.98274 6.00495 5.99386
#
# Compressibility (1/GPa) = 0.02627098
#
# Stress axis : x y z
#
# Youngs Moduli (GPa) = 46.03067 46.03067 54.79153
#
# Poissons Ratio (x) = 0.31726 0.29649
# Poissons Ratio (y) = 0.31726 0.29649
# Poissons Ratio (z) = 0.24908 0.24908
#
# Static dielectric constant tensor:
#      x y z
#    x 3.136860 0.000000 0.000000 
#    y 0.000000 3.136860 0.000000 
#    z 0.000000 0.000000 3.261170 
# 
# 
# High freq. dielectric constant tensor:
#      x y z
#    x 1.629480 0.000000 0.000000 
#    y 0.000000 1.629480 0.000000 
#    z 0.000000 0.000000 1.653690 
# 
# From -- ./inp_files/6660.got.cif
#   From: 2010.03.12/outbox.cif.g09.slc.cpg/sg136_4_cif.got.tgz:6660.got - 2010.04.06 18:39:43.
