data_PCOD8317625
_publ_section_title
;
Structure prediction by ZEFSAII (Michael W. Deem and Ramdas Pophale) SiO2 
 PCOD8317625
Probable space group: P 42/M B C
;
_chemical_formula_sum "Si O2"
_cell_formula_units_Z 64
_cell_length_a 19.406440
_cell_length_b 19.406440
_cell_length_c 8.342692
_cell_angle_alpha 90.000000
_cell_angle_beta 90.000000
_cell_angle_gamma 90.000000
_cell_volume 3141.940512
_symmetry_space_group_name_H-M "P 42/M B C"
_symmetry_group_IT_number 135
_symmetry_cell_setting 'tetragonal'
loop_
_space_group_symop_operation_xyz
x,y,z
-y,x,1/2+z
-x,-y,z
y,-x,1/2+z
1/2+x,1/2-y,-z
1/2-x,1/2+y,-z
1/2+y,1/2+x,1/2-z
1/2-y,1/2-x,1/2-z
-x,-y,-z
y,-x,1/2-z
x,y,-z
-y,x,1/2-z
1/2-x,1/2+y,z
1/2+x,1/2-y,z
1/2-y,1/2-x,1/2+z
1/2+y,1/2+x,1/2+z
loop_
_atom_site_type_symbol
_atom_site_label
_atom_site_fract_x
_atom_site_fract_y
_atom_site_fract_z
Si Si1 0.598562 0.525372 0.184444
Si Si2 0.762512 0.983340 0.686565
Si Si3 0.275966 0.669119 0.187646
Si Si4 0.118292 0.272505 0.311561
O O1 0.574007 0.446525 0.201928
O O2 0.674395 0.529553 0.250721
O O3 0.593303 0.549006 0.000000
O O4 0.764072 0.966300 0.500000
O O5 0.707620 0.043225 0.731524
O O6 0.759998 0.911369 0.778955
O O7 0.209424 0.709424 0.250000
O O8 0.346206 0.697841 0.268763
O O9 0.283774 0.680617 0.000000
O O10 0.169631 0.330370 0.250000
O O11 0.108622 0.276172 0.500000
#
# Coordination Sequence:
#
# PCOD8317625 Si02
#       4
#    16  16  16  16
#     4  11  21  34  49  72 105 143 181 222 269 327
#     4  12  23  37  56  81 110 146 187 232 279 332
#     4  11  22  39  60  86 116 151 190 235 284 338
#     4  11  22  39  60  86 116 151 190 235 284 338
#
# _framework density 20.369579000000002
#
# number of rings (size 3 to 8) (size 9 to 14) (size 15 to 20)
#    0.000    0.750    0.000   12.750    0.000    0.000 
#    0.000    0.000    0.000    0.750    0.000    5.250 
#    0.000    0.000    0.000    0.000    0.000    0.000 
#
# Total GULP energy -793180.876874 kJ/mol
# GULP energy per Si atom -12393.451201 kJ/mol
# Density = 2.032322 g / cm^3
# Si number density = 20.369579 Si / 1000 Ang^3
#
#
#
# Elastic Constant Matrix: (Units=GPa)
#
#
# Indices 1 2 3 4 5 6 
#
# 1 76.6517 18.5919 6.9504 0.0000 0.0000 0.0000
# 2 18.5919 76.6541 6.9495 0.0000 0.0000 0.0000
# 3 6.9504 6.9495 127.1768 0.0000 0.0000 0.0000
# 4 0.0000 0.0000 0.0000 33.0190 0.0000 0.0000
# 5 0.0000 0.0000 0.0000 0.0000 33.0191 0.0000
# 6 0.0000 0.0000 0.0000 0.0000 0.0000 4.7245
#
#
#
# Elastic Compliance Matrix: (Units=1/GPa)
#
#
# Indices 1 2 3 4 5 6 
#
# 1 0.013904 -0.003320 -0.000578 0.000000 0.000000 0.000000
# 2 -0.003320 0.013903 -0.000578 0.000000 0.000000 0.000000
# 3 -0.000578 -0.000578 0.007926 0.000000 0.000000 0.000000
# 4 0.000000 0.000000 0.000000 0.030286 0.000000 0.000000
# 5 0.000000 0.000000 0.000000 0.000000 0.030286 0.000000
# 6 0.000000 0.000000 0.000000 0.000000 0.000000 0.211662
#
#
# Mechanical properties :
#
#
# Convention : Reuss Voigt Hill
#
# Bulk Modulus (GPa) = 37.34114 38.38514 37.86314
# Shear Modulus (GPa) = 15.34469 30.68524 23.01496
#
# Velocity S-wave (km/s) = 2.74763 3.88548 3.36500
# Velocity P-wave (km/s) = 5.33269 6.24616 5.80741
#
# Compressibility (1/GPa) = 0.02678011
#
# Stress axis : x y z
#
# Youngs Moduli (GPa) = 71.92336 71.92574 126.16255
#
# Poissons Ratio (x) = 0.23878 0.07298
# Poissons Ratio (y) = 0.23877 0.07296
# Poissons Ratio (z) = 0.04160 0.04159
#
# Static dielectric constant tensor:
#      x y z
#    x 3.750620 0.000000 0.000000 
#    y 0.000000 3.750610 0.000000 
#    z 0.000000 0.000000 3.909550 
# 
# 
# High freq. dielectric constant tensor:
#      x y z
#    x 1.788020 0.000000 0.000000 
#    y 0.000000 1.788020 0.000000 
#    z 0.000000 0.000000 1.813160 
# 
# From -- ./inp_files/942.got.cif
#   From: 2010.03.12/outbox.cif.g09.slc.cpg/sg135_1_cif.got.tgz:942.got - 2010.04.06 18:31:24.
