data_PCOD8317513
_publ_section_title
;
Structure prediction by ZEFSAII (Michael W. Deem and Ramdas Pophale) SiO2 
 PCOD8317513
Probable space group: P 42/M B C
;
_chemical_formula_sum "Si O2"
_cell_formula_units_Z 112
_cell_length_a 14.238654
_cell_length_b 14.238654
_cell_length_c 26.736750
_cell_angle_alpha 90.000000
_cell_angle_beta 90.000000
_cell_angle_gamma 90.000000
_cell_volume 5420.589117
_symmetry_space_group_name_H-M "P 42/M B C"
_symmetry_group_IT_number 135
_symmetry_cell_setting 'tetragonal'
loop_
_space_group_symop_operation_xyz
x,y,z
-y,x,1/2+z
-x,-y,z
y,-x,1/2+z
1/2+x,1/2-y,-z
1/2-x,1/2+y,-z
1/2+y,1/2+x,1/2-z
1/2-y,1/2-x,1/2-z
-x,-y,-z
y,-x,1/2-z
x,y,-z
-y,x,1/2-z
1/2-x,1/2+y,z
1/2+x,1/2-y,z
1/2-y,1/2-x,1/2+z
1/2+y,1/2+x,1/2+z
loop_
_atom_site_type_symbol
_atom_site_label
_atom_site_fract_x
_atom_site_fract_y
_atom_site_fract_z
Si Si1 0.620144 0.735536 0.231064
Si Si2 0.399823 0.757176 0.776010
Si Si3 0.544775 0.092863 0.943833
Si Si4 0.959851 0.753951 0.556143
Si Si5 0.251131 0.674724 0.942008
Si Si6 0.065236 0.232390 0.887302
Si Si7 0.320189 0.633577 0.381271
O O1 0.669425 0.830576 0.250000
O O2 0.657035 0.647479 0.263389
O O3 0.509428 0.752268 0.239011
O O4 0.655781 0.709935 0.175382
O O5 0.344676 0.844676 0.750000
O O6 0.390419 0.767603 0.835441
O O7 0.510774 0.179426 0.911305
O O8 0.500000 0.000000 0.919356
O O9 0.657416 0.097204 0.942943
O O10 0.504772 0.102871 0.000000
O O11 0.952237 0.799021 0.500000
O O12 0.066619 0.727419 0.568614
O O13 0.917584 0.820218 0.599584
O O14 0.355951 0.690432 0.922464
O O15 0.172364 0.737489 0.916216
O O16 0.249559 0.700577 0.000000
O O17 0.978645 0.160007 0.882855
#
# Coordination Sequence:
#
# PCOD8317513 Si02
#       7
#    16  16  16  16  16  16  16
#     4  10  23  42  65  91 121 163 208 263 326 377
#     4  10  23  44  63  91 126 158 210 265 318 382
#     4  10  20  37  59  88 122 158 204 247 294 360
#     4  10  22  37  58  89 123 164 204 245 304 362
#     4  11  22  38  61  90 125 166 207 249 303 366
#     4  11  23  40  60  91 122 160 207 252 313 367
#     4  11  23  40  61  88 124 161 204 258 310 372
#
# _framework density 20.661961000000002
#
# number of rings (size 3 to 8) (size 9 to 14) (size 15 to 20)
#    0.000    1.571    1.429    3.429    0.000    6.857 
#    5.143    4.286    0.000    0.000    0.000    0.000 
#    0.000    0.000    0.000    0.000    0.000    0.000 
#
# Total GULP energy -1388423.667205 kJ/mol
# GULP energy per Si atom -12396.639886 kJ/mol
# Density = 2.061493 g / cm^3
# Si number density = 20.661961 Si / 1000 Ang^3
#
#
#
# Elastic Constant Matrix: (Units=GPa)
#
#
# Indices 1 2 3 4 5 6 
#
# 1 78.5171 19.1478 25.3614 0.0000 0.0000 0.0000
# 2 19.1478 78.5166 25.3632 0.0000 0.0000 0.0000
# 3 25.3614 25.3632 91.5752 0.0000 0.0000 0.0000
# 4 0.0000 0.0000 0.0000 26.6467 0.0000 0.0000
# 5 0.0000 0.0000 0.0000 0.0000 26.6468 0.0000
# 6 0.0000 0.0000 0.0000 0.0000 0.0000 32.4162
#
#
#
# Elastic Compliance Matrix: (Units=1/GPa)
#
#
# Indices 1 2 3 4 5 6 
#
# 1 0.014401 -0.002442 -0.003312 0.000000 0.000000 0.000000
# 2 -0.002442 0.014402 -0.003312 0.000000 0.000000 0.000000
# 3 -0.003312 -0.003312 0.012755 0.000000 0.000000 0.000000
# 4 0.000000 0.000000 0.000000 0.037528 0.000000 0.000000
# 5 0.000000 0.000000 0.000000 0.000000 0.037528 0.000000
# 6 0.000000 0.000000 0.000000 0.000000 0.000000 0.030849
#
#
# Mechanical properties :
#
#
# Convention : Reuss Voigt Hill
#
# Bulk Modulus (GPa) = 42.69021 43.15041 42.92031
# Shear Modulus (GPa) = 28.83438 29.05772 28.94605
#
# Velocity S-wave (km/s) = 3.73973 3.75419 3.74697
# Velocity P-wave (km/s) = 6.27324 6.30248 6.28788
#
# Compressibility (1/GPa) = 0.02342457
#
# Stress axis : x y z
#
# Youngs Moduli (GPa) = 69.43747 69.43603 78.40268
#
# Poissons Ratio (x) = 0.16958 0.25967
# Poissons Ratio (y) = 0.16958 0.25970
# Poissons Ratio (z) = 0.22998 0.23000
#
# Static dielectric constant tensor:
#      x y z
#    x 3.709830 0.000000 0.000000 
#    y 0.000000 3.709830 0.000000 
#    z 0.000000 0.000000 3.856850 
# 
# 
# High freq. dielectric constant tensor:
#      x y z
#    x 1.810740 0.000000 0.000000 
#    y 0.000000 1.810740 0.000000 
#    z 0.000000 0.000000 1.811600 
# 
# From -- ./inp_files/6510.got.cif
#   From: 2010.03.12/outbox.cif.g09.slc.cpg/sg135_4_cif.got.tgz:6510.got - 2010.04.06 18:31:24.
