data_PCOD8317407
_publ_section_title
;
Structure prediction by ZEFSAII (Michael W. Deem and Ramdas Pophale) SiO2 
 PCOD8317407
Probable space group: P 42/M B C
;
_chemical_formula_sum "Si O2"
_cell_formula_units_Z 96
_cell_length_a 25.211999
_cell_length_b 25.211999
_cell_length_c 8.876013
_cell_angle_alpha 90.000000
_cell_angle_beta 90.000000
_cell_angle_gamma 90.000000
_cell_volume 5641.992339
_symmetry_space_group_name_H-M "P 42/M B C"
_symmetry_group_IT_number 135
_symmetry_cell_setting 'tetragonal'
loop_
_space_group_symop_operation_xyz
x,y,z
-y,x,1/2+z
-x,-y,z
y,-x,1/2+z
1/2+x,1/2-y,-z
1/2-x,1/2+y,-z
1/2+y,1/2+x,1/2-z
1/2-y,1/2-x,1/2-z
-x,-y,-z
y,-x,1/2-z
x,y,-z
-y,x,1/2-z
1/2-x,1/2+y,z
1/2+x,1/2-y,z
1/2-y,1/2-x,1/2+z
1/2+y,1/2+x,1/2+z
loop_
_atom_site_type_symbol
_atom_site_label
_atom_site_fract_x
_atom_site_fract_y
_atom_site_fract_z
Si Si1 0.893376 0.686576 0.321173
Si Si2 0.500585 0.814723 0.830260
Si Si3 0.112150 0.803649 0.179371
Si Si4 0.891065 0.310224 0.320629
Si Si5 0.307984 0.392428 0.823628
Si Si6 0.188729 0.996473 0.665882
O O1 0.844991 0.655010 0.250000
O O2 0.893728 0.680434 0.500000
O O3 0.884977 0.747511 0.270083
O O4 0.948553 0.663749 0.255786
O O5 0.552851 0.832620 0.740084
O O6 0.498832 0.751865 0.834376
O O7 0.502040 0.838041 0.000000
O O8 0.120212 0.749686 0.269861
O O9 0.156834 0.844133 0.239147
O O10 0.054867 0.830149 0.219228
O O11 0.115473 0.792025 0.000000
O O12 0.844882 0.344882 0.250000
O O13 0.890477 0.313854 0.500000
O O14 0.331615 0.449068 0.771259
O O15 0.312156 0.392472 0.000000
O O16 0.166759 0.983993 0.500000
#
# Coordination Sequence:
#
# PCOD8317407 Si02
#       6
#    16  16  16  16  16  16
#     4  10  19  31  48  72  99 129 162 199 240 286
#     4   9  17  32  51  70  93 124 161 201 238 279
#     4   9  18  33  49  69  97 129 160 197 242 287
#     4  11  21  33  50  73  99 128 160 196 236 284
#     4   9  18  31  48  69  96 126 160 199 241 286
#     4   8  15  28  47  67  90 120 158 198 238 282
#
# _framework density 17.015266
#
# number of rings (size 3 to 8) (size 9 to 14) (size 15 to 20)
#    0.000    2.667    0.000    3.500    0.000    6.000 
#    0.000    1.667    0.000    1.000    0.000    7.000 
#    0.000    0.000    0.000    0.000    0.000    0.000 
#
# Total GULP energy -1190022.700402 kJ/mol
# GULP energy per Si atom -12396.069796 kJ/mol
# Density = 1.697654 g / cm^3
# Si number density = 17.015266 Si / 1000 Ang^3
#
#
#
# Elastic Constant Matrix: (Units=GPa)
#
#
# Indices 1 2 3 4 5 6 
#
# 1 92.0121 58.3022 43.5939 0.0000 0.0000 0.0000
# 2 58.3022 92.0092 43.5947 0.0000 0.0000 0.0000
# 3 43.5939 43.5947 82.6952 0.0000 0.0000 0.0000
# 4 0.0000 0.0000 0.0000 25.8399 0.0000 0.0000
# 5 0.0000 0.0000 0.0000 0.0000 25.8401 0.0000
# 6 0.0000 0.0000 0.0000 0.0000 0.0000 2.7740
#
#
#
# Elastic Compliance Matrix: (Units=1/GPa)
#
#
# Indices 1 2 3 4 5 6 
#
# 1 0.019624 -0.010041 -0.005052 0.000000 0.000000 0.000000
# 2 -0.010041 0.019625 -0.005052 0.000000 0.000000 0.000000
# 3 -0.005052 -0.005052 0.017419 0.000000 0.000000 0.000000
# 4 0.000000 0.000000 0.000000 0.038700 0.000000 0.000000
# 5 0.000000 0.000000 0.000000 0.000000 0.038699 0.000000
# 6 0.000000 0.000000 0.000000 0.000000 0.000000 0.360485
#
#
# Mechanical properties :
#
#
# Convention : Reuss Voigt Hill
#
# Bulk Modulus (GPa) = 61.05897 61.96644 61.51271
# Shear Modulus (GPa) = 9.25408 18.97253 14.11331
#
# Velocity S-wave (km/s) = 2.33463 3.34283 2.88314
# Velocity P-wave (km/s) = 6.57496 7.16914 6.87847
#
# Compressibility (1/GPa) = 0.01637761
#
# Stress axis : x y z
#
# Youngs Moduli (GPa) = 50.95769 50.95495 57.40845
#
# Poissons Ratio (x) = 0.51166 0.29000
# Poissons Ratio (y) = 0.51169 0.29005
# Poissons Ratio (z) = 0.25741 0.25744
#
# Static dielectric constant tensor:
#      x y z
#    x 3.285180 0.000000 0.000000 
#    y 0.000000 3.285180 0.000000 
#    z 0.000000 0.000000 3.264010 
# 
# 
# High freq. dielectric constant tensor:
#      x y z
#    x 1.641030 0.000000 0.000000 
#    y 0.000000 1.641030 0.000000 
#    z 0.000000 0.000000 1.661940 
# 
# From -- ./inp_files/1218.got.cif
#   From: 2010.03.12/outbox.cif.g09.slc.cpg/sg135_1_cif.got.tgz:1218.got - 2010.04.06 18:31:24.
