data_PCOD8317763
_publ_section_title
;
Structure prediction by ZEFSAII (Michael W. Deem and Ramdas Pophale) SiO2 
 PCOD8317763
Probable space group: P 42/M N M
;
_chemical_formula_sum "Si O2"
_cell_formula_units_Z 112
_cell_length_a 23.902030
_cell_length_b 23.902030
_cell_length_c 12.041396
_cell_angle_alpha 90.000000
_cell_angle_beta 90.000000
_cell_angle_gamma 90.000000
_cell_volume 6879.334284
_symmetry_space_group_name_H-M "P 42/M N M"
_symmetry_group_IT_number 136
_symmetry_cell_setting 'tetragonal'
loop_
_space_group_symop_operation_xyz
x,y,z
1/2-y,1/2+x,1/2+z
-x,-y,z
1/2+y,1/2-x,1/2+z
1/2+x,1/2-y,1/2-z
1/2-x,1/2+y,1/2-z
y,x,-z
-y,-x,-z
-x,-y,-z
1/2+y,1/2-x,1/2-z
x,y,-z
1/2-y,1/2+x,1/2-z
1/2-x,1/2+y,1/2+z
1/2+x,1/2-y,1/2+z
-y,-x,z
y,x,z
loop_
_atom_site_type_symbol
_atom_site_label
_atom_site_fract_x
_atom_site_fract_y
_atom_site_fract_z
Si Si1 0.672115 0.234471 0.743812
Si Si2 0.620510 0.806758 0.624516
Si Si3 0.777117 0.311977 0.500000
Si Si4 0.946162 0.262680 0.685966
Si Si5 0.609951 0.927328 0.325640
Si Si6 0.608394 0.048644 0.619278
Si Si7 0.567020 0.238678 0.133362
Si Si8 0.128996 0.781332 0.500000
O O1 0.725846 0.274155 0.742190
O O2 0.690436 0.178510 0.808645
O O3 0.653417 0.218859 0.616425
O O4 0.621327 0.266698 0.808139
O O5 0.630238 0.783736 0.500000
O O6 0.578088 0.764842 0.688588
O O7 0.592620 0.869035 0.615327
O O8 0.716797 0.283204 0.500000
O O9 0.826085 0.267309 0.500000
O O10 0.947123 0.325421 0.638899
O O11 0.907998 0.223063 0.610644
O O12 0.008679 0.236107 0.679104
O O13 0.585012 0.928175 0.202310
O O14 0.676255 0.929413 0.320868
O O15 0.588400 0.983671 0.383891
O O16 0.595431 0.074963 0.500000
O O17 0.570863 0.242377 0.000000
O O18 0.158168 0.841833 0.500000
#
# Coordination Sequence:
#
# PCOD8317763 Si02
#       8
#    16  16   8  16  16  16  16   8
#     4  10  19  31  48  72  98 128 162 198 242 287
#     4  10  19  30  46  66  92 122 157 198 242 292
#     4   9  18  30  46  72 102 124 153 198 240 282
#     4  10  18  32  49  67  93 123 155 192 236 285
#     4   9  18  30  43  60  77 109 154 191 239 278
#     4  10  18  31  46  57  79 112 149 193 238 276
#     4  10  19  33  49  65  91 125 156 190 232 289
#     4  11  18  30  54  78  95 122 160 199 238 285
#
# _framework density 16.280645
#
# number of rings (size 3 to 8) (size 9 to 14) (size 15 to 20)
#    0.000    2.143    2.857    3.429    0.000    1.429 
#    1.286    7.857    0.000    0.000    0.000    0.000 
#    0.000    1.143    0.000    0.000    0.000    4.000 
#
# Total GULP energy -1387598.504937 kJ/mol
# GULP energy per Si atom -12389.272366 kJ/mol
# Density = 1.624359 g / cm^3
# Si number density = 16.280645 Si / 1000 Ang^3
#
#
#
# Elastic Constant Matrix: (Units=GPa)
#
#
# Indices 1 2 3 4 5 6 
#
# 1 36.6487 15.2706 38.8776 0.0000 0.0000 0.0000
# 2 15.2706 36.6490 38.8774 0.0000 0.0000 0.0000
# 3 38.8776 38.8774 145.7185 0.0000 0.0000 0.0000
# 4 0.0000 0.0000 0.0000 18.3342 0.0000 0.0000
# 5 0.0000 0.0000 0.0000 0.0000 18.3344 0.0000
# 6 0.0000 0.0000 0.0000 0.0000 0.0000 8.6868
#
#
#
# Elastic Compliance Matrix: (Units=1/GPa)
#
#
# Indices 1 2 3 4 5 6 
#
# 1 0.039427 -0.007349 -0.008558 0.000000 0.000000 0.000000
# 2 -0.007349 0.039427 -0.008558 0.000000 0.000000 0.000000
# 3 -0.008558 -0.008558 0.011429 0.000000 0.000000 0.000000
# 4 0.000000 0.000000 0.000000 0.054543 0.000000 0.000000
# 5 0.000000 0.000000 0.000000 0.000000 0.054542 0.000000
# 6 0.000000 0.000000 0.000000 0.000000 0.000000 0.115117
#
#
# Mechanical properties :
#
#
# Convention : Reuss Voigt Hill
#
# Bulk Modulus (GPa) = 24.18307 45.00750 34.59528
# Shear Modulus (GPa) = 13.25552 17.47046 15.36299
#
# Velocity S-wave (km/s) = 2.85650 3.27935 3.07520
# Velocity P-wave (km/s) = 5.07598 6.48410 5.82276
#
# Compressibility (1/GPa) = 0.04135124
#
# Stress axis : x y z
#
# Youngs Moduli (GPa) = 25.36316 25.36355 87.49524
#
# Poissons Ratio (x) = 0.18641 0.74881
# Poissons Ratio (y) = 0.18641 0.74879
# Poissons Ratio (z) = 0.21707 0.21706
#
# Static dielectric constant tensor:
#      x y z
#    x 3.088740 0.000000 0.000000 
#    y 0.000000 3.088750 0.000000 
#    z 0.000000 0.000000 3.351100 
# 
# 
# High freq. dielectric constant tensor:
#      x y z
#    x 1.590050 0.000000 0.000000 
#    y 0.000000 1.590060 0.000000 
#    z 0.000000 0.000000 1.640960 
# 
# From -- ./inp_files/4054.got.cif
#   From: 2010.03.12/outbox.cif.g09.slc.cpg/sg136_3_cif.got.tgz:4054.got - 2010.04.06 18:39:43.
