data_PCOD8317536
_publ_section_title
;
Structure prediction by ZEFSAII (Michael W. Deem and Ramdas Pophale) SiO2 
 PCOD8317536
Probable space group: P 42/M B C
;
_chemical_formula_sum "Si O2"
_cell_formula_units_Z 76
_cell_length_a 14.224650
_cell_length_b 14.224650
_cell_length_c 18.567278
_cell_angle_alpha 90.000000
_cell_angle_beta 90.000000
_cell_angle_gamma 90.000000
_cell_volume 3756.915426
_symmetry_space_group_name_H-M "P 42/M B C"
_symmetry_group_IT_number 135
_symmetry_cell_setting 'tetragonal'
loop_
_space_group_symop_operation_xyz
x,y,z
-y,x,1/2+z
-x,-y,z
y,-x,1/2+z
1/2+x,1/2-y,-z
1/2-x,1/2+y,-z
1/2+y,1/2+x,1/2-z
1/2-y,1/2-x,1/2-z
-x,-y,-z
y,-x,1/2-z
x,y,-z
-y,x,1/2-z
1/2-x,1/2+y,z
1/2+x,1/2-y,z
1/2-y,1/2-x,1/2+z
1/2+y,1/2+x,1/2+z
loop_
_atom_site_type_symbol
_atom_site_label
_atom_site_fract_x
_atom_site_fract_y
_atom_site_fract_z
Si Si1 0.057413 0.594303 0.500000
Si Si2 0.669128 0.376799 0.779219
Si Si3 0.993800 0.739655 0.385329
Si Si4 0.895069 0.036324 0.000000
Si Si5 0.000000 0.000000 0.750000
Si Si6 0.644696 0.745729 0.000000
Si Si7 0.760127 0.211569 0.854280
O O1 0.168475 0.570585 0.500000
O O2 0.000000 0.500000 0.500000
O O3 0.035776 0.653703 0.429043
O O4 0.745773 0.448874 0.811464
O O5 0.563800 0.421008 0.790758
O O6 0.679335 0.278231 0.821459
O O7 0.695416 0.353013 0.696278
O O8 0.996386 0.837873 0.429635
O O9 0.888185 0.710558 0.366224
O O10 0.909548 0.148129 0.000000
O O11 0.000000 0.000000 0.000000
O O12 0.710305 0.756223 0.929994
#
# Coordination Sequence:
#
# PCOD8317536 Si02
#       7
#     8  16  16   8   4   8  16
#     4  11  23  45  63  90 126 178 235 275 318 397
#     4  11  22  39  67  98 135 170 222 271 342 409
#     4  10  21  42  63  91 133 170 216 278 329 400
#     4   9  21  37  61  96 131 163 213 269 344 408
#     4  12  24  40  68 106 144 172 216 286 352 400
#     4  10  20  42  66  87 130 172 223 269 337 398
#     4  10  22  42  67  95 130 181 213 273 345 409
#
# _framework density 20.229361999999998
#
# number of rings (size 3 to 8) (size 9 to 14) (size 15 to 20)
#    0.000    1.684    4.211    0.632    1.474    0.000 
#    7.579    0.000    0.000    1.263    0.000    0.000 
#    0.000    0.000    0.000    0.000    0.000    0.000 
#
# Total GULP energy -941918.460403 kJ/mol
# GULP energy per Si atom -12393.663953 kJ/mol
# Density = 2.018332 g / cm^3
# Si number density = 20.229362 Si / 1000 Ang^3
#
#
#
# Elastic Constant Matrix: (Units=GPa)
#
#
# Indices 1 2 3 4 5 6 
#
# 1 124.7351 52.1080 33.7873 0.0000 0.0000 0.0000
# 2 52.1080 124.7351 33.7873 0.0000 0.0000 0.0000
# 3 33.7873 33.7873 113.5302 0.0000 0.0000 0.0000
# 4 0.0000 0.0000 0.0000 15.4003 0.0000 0.0000
# 5 0.0000 0.0000 0.0000 0.0000 15.4003 0.0000
# 6 0.0000 0.0000 0.0000 0.0000 0.0000 44.2267
#
#
#
# Elastic Compliance Matrix: (Units=1/GPa)
#
#
# Indices 1 2 3 4 5 6 
#
# 1 0.010075 -0.003694 -0.001899 0.000000 0.000000 0.000000
# 2 -0.003694 0.010075 -0.001899 0.000000 0.000000 0.000000
# 3 -0.001899 -0.001899 0.009938 0.000000 0.000000 0.000000
# 4 0.000000 0.000000 0.000000 0.064934 0.000000 0.000000
# 5 0.000000 0.000000 0.000000 0.000000 0.064934 0.000000
# 6 0.000000 0.000000 0.000000 0.000000 0.000000 0.022611
#
#
# Mechanical properties :
#
#
# Convention : Reuss Voigt Hill
#
# Bulk Modulus (GPa) = 66.20870 66.92953 66.56912
# Shear Modulus (GPa) = 24.68100 31.22663 27.95381
#
# Velocity S-wave (km/s) = 3.49672 3.93317 3.72135
# Velocity P-wave (km/s) = 7.00734 7.33373 7.17239
#
# Compressibility (1/GPa) = 0.01510375
#
# Stress axis : x y z
#
# Youngs Moduli (GPa) = 99.25924 99.25924 100.61950
#
# Poissons Ratio (x) = 0.36670 0.19106
# Poissons Ratio (y) = 0.36670 0.19106
# Poissons Ratio (z) = 0.18848 0.18848
#
# Static dielectric constant tensor:
#      x y z
#    x 3.691100 0.000000 0.000000 
#    y 0.000000 3.691100 0.000000 
#    z 0.000000 0.000000 3.888020 
# 
# 
# High freq. dielectric constant tensor:
#      x y z
#    x 1.782080 0.000000 0.000000 
#    y 0.000000 1.782080 0.000000 
#    z 0.000000 0.000000 1.795900 
# 
# From -- ./inp_files/5265.got.cif
#   From: 2010.03.12/outbox.cif.g09.slc.cpg/sg135_3_cif.got.tgz:5265.got - 2010.04.06 18:31:24.
