data_PCOD8317030
_publ_section_title
;
Structure prediction by ZEFSAII (Michael W. Deem and Ramdas Pophale) SiO2 
 PCOD8317030
Probable space group: P 42/N B C
;
_chemical_formula_sum "Si O2"
_cell_formula_units_Z 112
_cell_length_a 14.686886
_cell_length_b 14.686886
_cell_length_c 23.442554
_cell_angle_alpha 90.000000
_cell_angle_beta 90.000000
_cell_angle_gamma 90.000000
_cell_volume 5056.667211
_symmetry_space_group_name_H-M "P 42/N B C"
_symmetry_group_IT_number 133
_space_group.IT_coordinate_system_code '2'
_symmetry_cell_setting 'tetragonal'
loop_
_space_group_symop_operation_xyz
x,y,z
1/2-y,x,1/2+z
1/2-x,1/2-y,z
y,1/2-x,1/2+z
x,1/2-y,-z
1/2-x,y,-z
y,x,1/2-z
1/2-y,1/2-x,1/2-z
-x,-y,-z
1/2+y,-x,1/2-z
1/2+x,1/2+y,-z
-y,1/2+x,1/2-z
-x,1/2+y,z
1/2+x,-y,z
-y,-x,1/2+z
1/2+y,1/2+x,1/2+z
loop_
_atom_site_type_symbol
_atom_site_label
_atom_site_fract_x
_atom_site_fract_y
_atom_site_fract_z
Si Si1 0.095847 0.791385 0.941622
Si Si2 0.276162 0.343579 0.687888
Si Si3 0.207746 0.967263 0.942983
Si Si4 0.863290 0.992596 0.663238
Si Si5 0.882002 0.133296 0.382225
Si Si6 0.442201 0.053895 0.371769
Si Si7 0.869551 0.322032 0.742733
O O1 0.164112 0.870988 0.960258
O O2 0.016013 0.827841 0.900384
O O3 0.156053 0.717593 0.906719
O O4 0.053981 0.750000 0.000000
O O5 0.250000 0.250000 0.654176
O O6 0.310990 0.310990 0.750000
O O7 0.177686 0.395146 0.682179
O O8 0.358962 0.404816 0.664474
O O9 0.289535 0.954684 0.898037
O O10 0.131692 0.031172 0.916204
O O11 0.250000 0.012191 0.000000
O O12 0.819759 0.051080 0.712740
O O13 0.972235 0.013130 0.665281
O O14 0.884740 0.119339 0.313970
O O15 0.907590 0.033636 0.407490
O O16 0.856797 0.217981 0.722055
#
# Coordination Sequence:
#
# PCOD8317030 Si02
#       7
#    16  16  16  16  16  16  16
#     4  11  21  43  68  99 138 180 230 300 365 428
#     4  11  27  49  71 101 149 194 239 295 364 445
#     4  11  25  42  69 100 137 178 237 300 364 429
#     4  11  25  46  68 107 136 192 244 295 362 430
#     4  12  24  40  66  99 137 182 232 290 365 419
#     4  11  27  45  71 102 140 185 244 294 354 448
#     4  11  22  36  64 102 142 171 226 298 356 428
#
# _framework density 22.148976999999999
#
# number of rings (size 3 to 8) (size 9 to 14) (size 15 to 20)
#    0.000    0.857    4.286    2.143   10.000    1.714 
#    0.000    0.000    0.000    0.000    0.000    0.000 
#    0.000    0.000    0.000    0.000    0.000    0.000 
#
# Total GULP energy -1387507.365725 kJ/mol
# GULP energy per Si atom -12388.458623 kJ/mol
# Density = 2.209857 g / cm^3
# Si number density = 22.148977 Si / 1000 Ang^3
#
#
#
# Elastic Constant Matrix: (Units=GPa)
#
#
# Indices 1 2 3 4 5 6 
#
# 1 114.8962 37.3662 15.4473 0.0000 0.0000 0.0000
# 2 37.3662 114.8962 15.4473 0.0000 0.0000 0.0000
# 3 15.4473 15.4473 82.2237 0.0000 0.0000 0.0000
# 4 0.0000 0.0000 0.0000 17.4910 0.0000 0.0000
# 5 0.0000 0.0000 0.0000 0.0000 17.4910 0.0000
# 6 0.0000 0.0000 0.0000 0.0000 0.0000 32.7975
#
#
#
# Elastic Compliance Matrix: (Units=1/GPa)
#
#
# Indices 1 2 3 4 5 6 
#
# 1 0.009863 -0.003035 -0.001283 0.000000 0.000000 0.000000
# 2 -0.003035 0.009863 -0.001283 0.000000 0.000000 0.000000
# 3 -0.001283 -0.001283 0.012644 0.000000 0.000000 0.000000
# 4 0.000000 0.000000 0.000000 0.057172 0.000000 0.000000
# 5 0.000000 0.000000 0.000000 0.000000 0.057172 0.000000
# 6 0.000000 0.000000 0.000000 0.000000 0.000000 0.030490
#
#
# Mechanical properties :
#
#
# Convention : Reuss Voigt Hill
#
# Bulk Modulus (GPa) = 47.23960 49.83755 48.53857
# Shear Modulus (GPa) = 25.58042 29.80628 27.69335
#
# Velocity S-wave (km/s) = 3.40211 3.67238 3.53983
# Velocity P-wave (km/s) = 6.06687 6.36646 6.21847
#
# Compressibility (1/GPa) = 0.02116868
#
# Stress axis : x y z
#
# Youngs Moduli (GPa) = 101.38849 101.38849 79.08938
#
# Poissons Ratio (x) = 0.30773 0.10145
# Poissons Ratio (y) = 0.30773 0.10145
# Poissons Ratio (z) = 0.13006 0.13006
#
# Static dielectric constant tensor:
#      x y z
#    x 4.271260 0.000000 0.000000 
#    y 0.000000 4.271260 0.000000 
#    z 0.000000 0.000000 3.781840 
# 
# 
# High freq. dielectric constant tensor:
#      x y z
#    x 1.875710 0.000000 0.000000 
#    y 0.000000 1.875710 0.000000 
#    z 0.000000 0.000000 1.857050 
# 
# From -- ./inp_files/7260.got.cif
#   From: 2010.03.12/outbox.cif.g09.slc.cpg/sg133_4_cif.got.tgz:7260.got - 2010.04.06 18:08:06.
