data_PCOD8317400
_publ_section_title
;
Structure prediction by ZEFSAII (Michael W. Deem and Ramdas Pophale) SiO2 
 PCOD8317400
Probable space group: P 42/M B C
;
_chemical_formula_sum "Si O2"
_cell_formula_units_Z 96
_cell_length_a 23.662475
_cell_length_b 23.662475
_cell_length_c 8.985259
_cell_angle_alpha 90.000000
_cell_angle_beta 90.000000
_cell_angle_gamma 90.000000
_cell_volume 5030.960835
_symmetry_space_group_name_H-M "P 42/M B C"
_symmetry_group_IT_number 135
_symmetry_cell_setting 'tetragonal'
loop_
_space_group_symop_operation_xyz
x,y,z
-y,x,1/2+z
-x,-y,z
y,-x,1/2+z
1/2+x,1/2-y,-z
1/2-x,1/2+y,-z
1/2+y,1/2+x,1/2-z
1/2-y,1/2-x,1/2-z
-x,-y,-z
y,-x,1/2-z
x,y,-z
-y,x,1/2-z
1/2-x,1/2+y,z
1/2+x,1/2-y,z
1/2-y,1/2-x,1/2+z
1/2+y,1/2+x,1/2+z
loop_
_atom_site_type_symbol
_atom_site_label
_atom_site_fract_x
_atom_site_fract_y
_atom_site_fract_z
Si Si1 0.357583 0.939867 0.827787
Si Si2 0.654792 0.929944 0.827205
Si Si3 0.640002 0.642590 0.665691
Si Si4 0.728246 0.441920 0.324455
Si Si5 0.460543 0.564746 0.163759
Si Si6 0.740783 0.570417 0.675738
O O1 0.410299 0.910299 0.750000
O O2 0.299462 0.918407 0.757111
O O3 0.365714 0.006326 0.802329
O O4 0.356749 0.923690 0.000000
O O5 0.609761 0.890240 0.750000
O O6 0.715242 0.919646 0.752581
O O7 0.659794 0.914461 0.000000
O O8 0.640703 0.670385 0.500000
O O9 0.601429 0.679055 0.774992
O O10 0.618021 0.578916 0.653894
O O11 0.702625 0.625265 0.723750
O O12 0.734669 0.436068 0.500000
O O13 0.716377 0.507609 0.279102
O O14 0.511446 0.576007 0.277812
O O15 0.485422 0.551801 0.000000
O O16 0.750839 0.571152 0.500000
#
# Coordination Sequence:
#
# PCOD8317400 Si02
#       6
#    16  16  16  16  16  16
#     4  10  21  37  59  86 114 143 175 214 262 317
#     4  10  21  38  60  86 115 145 177 214 261 317
#     4  10  20  33  50  73 102 139 183 228 271 320
#     4  10  20  35  56  80 108 144 184 227 275 323
#     4  10  19  30  44  65  95 130 171 222 279 330
#     4   9  19  36  55  76 107 145 183 225 273 322
#
# _framework density 19.081842000000002
#
# number of rings (size 3 to 8) (size 9 to 14) (size 15 to 20)
#    0.000    2.167    0.000    3.500    0.000    6.333 
#    0.000    2.500    0.000    4.000    0.000    0.000 
#    0.000    0.000    0.000    0.000    0.000    0.000 
#
# Total GULP energy -1189689.063471 kJ/mol
# GULP energy per Si atom -12392.594411 kJ/mol
# Density = 1.903841 g / cm^3
# Si number density = 19.081842 Si / 1000 Ang^3
#
#
#
# Elastic Constant Matrix: (Units=GPa)
#
#
# Indices 1 2 3 4 5 6 
#
# 1 69.4008 45.8346 35.9562 0.0000 0.0000 0.0000
# 2 45.8346 69.3996 35.9566 0.0000 0.0000 0.0000
# 3 35.9562 35.9566 91.8353 0.0000 0.0000 0.0000
# 4 0.0000 0.0000 0.0000 30.3651 0.0000 0.0000
# 5 0.0000 0.0000 0.0000 0.0000 30.3653 0.0000
# 6 0.0000 0.0000 0.0000 0.0000 0.0000 34.5904
#
#
#
# Elastic Compliance Matrix: (Units=1/GPa)
#
#
# Indices 1 2 3 4 5 6 
#
# 1 0.026959 -0.015475 -0.004496 0.000000 0.000000 0.000000
# 2 -0.015475 0.026960 -0.004497 0.000000 0.000000 0.000000
# 3 -0.004496 -0.004497 0.014410 0.000000 0.000000 0.000000
# 4 0.000000 0.000000 0.000000 0.032933 0.000000 0.000000
# 5 0.000000 0.000000 0.000000 0.000000 0.032932 0.000000
# 6 0.000000 0.000000 0.000000 0.000000 0.000000 0.028910
#
#
# Mechanical properties :
#
#
# Convention : Reuss Voigt Hill
#
# Bulk Modulus (GPa) = 51.56635 51.79229 51.67932
# Shear Modulus (GPa) = 22.88296 26.59006 24.73651
#
# Velocity S-wave (km/s) = 3.46670 3.73698 3.60437
# Velocity P-wave (km/s) = 6.56555 6.76913 6.66812
#
# Compressibility (1/GPa) = 0.01939249
#
# Stress axis : x y z
#
# Youngs Moduli (GPa) = 37.09349 37.09246 69.39662
#
# Poissons Ratio (x) = 0.57402 0.31201
# Poissons Ratio (y) = 0.57404 0.31204
# Poissons Ratio (z) = 0.16677 0.16679
#
# Static dielectric constant tensor:
#      x y z
#    x 3.445500 0.000000 0.000000 
#    y 0.000000 3.445500 0.000000 
#    z 0.000000 0.000000 3.620830 
# 
# 
# High freq. dielectric constant tensor:
#      x y z
#    x 1.734180 0.000000 0.000000 
#    y 0.000000 1.734180 0.000000 
#    z 0.000000 0.000000 1.749510 
# 
# From -- ./inp_files/1246.got.cif
#   From: 2010.03.12/outbox.cif.g09.slc.cpg/sg135_1_cif.got.tgz:1246.got - 2010.04.06 18:31:24.
