data_PCOD8317221
_publ_section_title
;
Structure prediction by ZEFSAII (Michael W. Deem and Ramdas Pophale) SiO2 
 PCOD8317221
Probable space group: P 42/N N M
;
_chemical_formula_sum "Si O2"
_cell_formula_units_Z 88
_cell_length_a 15.676567
_cell_length_b 15.676567
_cell_length_c 18.630330
_cell_angle_alpha 90.000000
_cell_angle_beta 90.000000
_cell_angle_gamma 90.000000
_cell_volume 4578.492146
_symmetry_space_group_name_H-M "P 42/N N M"
_symmetry_group_IT_number 134
_space_group.IT_coordinate_system_code '2'
_symmetry_cell_setting 'tetragonal'
loop_
_space_group_symop_operation_xyz
x,y,z
1/2-y,x,1/2+z
1/2-x,1/2-y,z
y,1/2-x,1/2+z
x,1/2-y,1/2-z
1/2-x,y,1/2-z
y,x,-z
1/2-y,1/2-x,-z
-x,-y,-z
1/2+y,-x,1/2-z
1/2+x,1/2+y,-z
-y,1/2+x,1/2-z
-x,1/2+y,1/2+z
1/2+x,-y,1/2+z
-y,-x,z
1/2+y,1/2+x,z
loop_
_atom_site_type_symbol
_atom_site_label
_atom_site_fract_x
_atom_site_fract_y
_atom_site_fract_z
Si Si1 0.561431 0.806385 0.961596
Si Si2 0.682852 0.317149 0.612879
Si Si3 0.192119 0.555008 0.442979
Si Si4 0.538066 0.038066 0.069907
Si Si5 0.774841 0.652597 0.328487
Si Si6 0.058445 0.941556 0.305065
Si Si7 0.330671 0.040592 0.299005
O O1 0.481342 0.861276 0.932312
O O2 0.600945 0.769952 0.890245
O O3 0.633714 0.866287 0.000000
O O4 0.525543 0.726468 0.009668
O O5 0.750000 0.250000 0.650432
O O6 0.622234 0.268221 0.557549
O O7 0.629041 0.370960 0.671473
O O8 0.102986 0.602986 0.468858
O O9 0.182962 0.530344 0.359388
O O10 0.487994 0.987994 0.130913
O O11 0.500000 0.000000 0.000000
O O12 0.750000 0.750000 0.336962
O O13 0.750000 0.617007 0.250000
O O14 0.875154 0.640007 0.340322
O O15 0.985656 0.901187 0.257327
O O16 0.250000 0.061707 0.250000
#
# Coordination Sequence:
#
# PCOD8317221 Si02
#       7
#    16   8  16   8  16   8  16
#     4  11  23  41  67  92 123 161 214 262 315 382
#     4  10  20  34  58  86 124 162 206 249 310 379
#     4  11  23  40  58  92 128 169 204 256 321 384
#     4  10  22  36  65  91 113 155 204 274 316 353
#     4  11  23  40  62  89 119 162 210 256 306 365
#     4  12  22  38  58  90 129 157 209 265 312 376
#     4  12  23  37  60  88 129 168 204 252 313 378
#
# _framework density 19.220302
#
# number of rings (size 3 to 8) (size 9 to 14) (size 15 to 20)
#    0.000    0.909    4.545    4.909    0.000    2.545 
#    3.273    0.909    0.000    0.000    0.000    0.000 
#    0.000    0.000    0.000    0.000    0.000    0.000 
#
# Total GULP energy -1090386.857610 kJ/mol
# GULP energy per Si atom -12390.759746 kJ/mol
# Density = 1.917656 g / cm^3
# Si number density = 19.220302 Si / 1000 Ang^3
#
#
#
# Elastic Constant Matrix: (Units=GPa)
#
#
# Indices 1 2 3 4 5 6 
#
# 1 90.2034 31.7744 48.3111 0.0000 0.0000 0.0000
# 2 31.7744 90.2013 48.3088 0.0000 0.0000 0.0000
# 3 48.3111 48.3088 127.1558 0.0000 0.0000 0.0000
# 4 0.0000 0.0000 0.0000 28.7645 0.0000 0.0000
# 5 0.0000 0.0000 0.0000 0.0000 28.7634 0.0000
# 6 0.0000 0.0000 0.0000 0.0000 0.0000 36.4784
#
#
#
# Elastic Compliance Matrix: (Units=1/GPa)
#
#
# Indices 1 2 3 4 5 6 
#
# 1 0.014421 -0.002694 -0.004456 0.000000 0.000000 0.000000
# 2 -0.002694 0.014421 -0.004456 0.000000 0.000000 0.000000
# 3 -0.004456 -0.004456 0.011250 0.000000 0.000000 0.000000
# 4 0.000000 0.000000 0.000000 0.034765 0.000000 0.000000
# 5 0.000000 0.000000 0.000000 0.000000 0.034766 0.000000
# 6 0.000000 0.000000 0.000000 0.000000 0.000000 0.027414
#
#
# Mechanical properties :
#
#
# Convention : Reuss Voigt Hill
#
# Bulk Modulus (GPa) = 59.23209 62.70545 60.96877
# Shear Modulus (GPa) = 30.14311 30.74568 30.44440
#
# Velocity S-wave (km/s) = 3.96447 4.00390 3.98423
# Velocity P-wave (km/s) = 7.20003 7.35325 7.27704
#
# Compressibility (1/GPa) = 0.01688274
#
# Stress axis : x y z
#
# Youngs Moduli (GPa) = 69.34158 69.34130 88.88874
#
# Poissons Ratio (x) = 0.18678 0.39607
# Poissons Ratio (y) = 0.18679 0.39605
# Poissons Ratio (z) = 0.30897 0.30895
#
# Static dielectric constant tensor:
#      x y z
#    x 3.447970 0.000000 0.000000 
#    y 0.000000 3.447960 0.000000 
#    z 0.000000 0.000000 3.444430 
# 
# 
# High freq. dielectric constant tensor:
#      x y z
#    x 1.748040 0.000000 0.000000 
#    y 0.000000 1.748040 0.000000 
#    z 0.000000 0.000000 1.741360 
# 
# From -- ./inp_files/9082.got.cif
#   From: 2010.03.12/outbox.cif.g09.slc.cpg/sg134_5_cif.got.tgz:9082.got - 2010.04.06 18:17:22.
