data_PCOD8317941
_publ_section_title
;
Structure prediction by ZEFSAII (Michael W. Deem and Ramdas Pophale) SiO2 
 PCOD8317941
Probable space group: P 42/M N M
;
_chemical_formula_sum "Si O2"
_cell_formula_units_Z 128
_cell_length_a 20.672495
_cell_length_b 20.672495
_cell_length_c 15.489965
_cell_angle_alpha 90.000000
_cell_angle_beta 90.000000
_cell_angle_gamma 90.000000
_cell_volume 6619.668290
_symmetry_space_group_name_H-M "P 42/M N M"
_symmetry_group_IT_number 136
_symmetry_cell_setting 'tetragonal'
loop_
_space_group_symop_operation_xyz
x,y,z
1/2-y,1/2+x,1/2+z
-x,-y,z
1/2+y,1/2-x,1/2+z
1/2+x,1/2-y,1/2-z
1/2-x,1/2+y,1/2-z
y,x,-z
-y,-x,-z
-x,-y,-z
1/2+y,1/2-x,1/2-z
x,y,-z
1/2-y,1/2+x,1/2-z
1/2-x,1/2+y,1/2+z
1/2+x,1/2-y,1/2+z
-y,-x,z
y,x,z
loop_
_atom_site_type_symbol
_atom_site_label
_atom_site_fract_x
_atom_site_fract_y
_atom_site_fract_z
Si Si1 0.783189 0.615472 0.906572
Si Si2 0.350499 0.249848 0.283567
Si Si3 0.398773 0.500915 0.397692
Si Si4 0.191457 0.535396 0.097693
Si Si5 0.143075 0.245339 0.294263
Si Si6 0.243414 0.971893 0.901733
Si Si7 0.688075 0.901626 0.141898
Si Si8 0.412327 0.049717 0.728669
O O1 0.747792 0.641158 0.820873
O O2 0.791520 0.539391 0.892592
O O3 0.849974 0.655955 0.922158
O O4 0.746641 0.625751 0.000000
O O5 0.319436 0.319436 0.308897
O O6 0.301973 0.194265 0.314112
O O7 0.416135 0.235305 0.335724
O O8 0.400244 0.503248 0.500000
O O9 0.434600 0.565401 0.361425
O O10 0.437449 0.437449 0.364867
O O11 0.325110 0.498204 0.365932
O O12 0.244568 0.578720 0.148071
O O13 0.118481 0.542872 0.133928
O O14 0.190698 0.559470 0.000000
O O15 0.175583 0.175583 0.314135
O O16 0.124734 0.248169 0.192081
O O17 0.295148 0.030441 0.903057
O O18 0.238124 0.945089 0.000000
O O19 0.634719 0.905777 0.216936
O O20 0.481722 0.082844 0.720629
#
# Coordination Sequence:
#
# PCOD8317941 Si02
#       8
#    16  16  16  16  16  16  16  16
#     4  10  20  38  58  79 107 141 187 238 283 331
#     4  10  21  37  56  79 107 144 185 225 271 329
#     4   8  15  30  50  71 101 140 175 208 254 317
#     4  10  20  34  54  79 107 142 184 234 287 334
#     4   9  20  36  54  75 104 145 186 226 278 332
#     4  11  22  33  51  82 114 144 176 219 274 331
#     4  10  20  34  55  77 109 142 184 225 278 336
#     4  10  19  34  53  71 100 142 184 230 276 326
#
# _framework density 19.336316
#
# number of rings (size 3 to 8) (size 9 to 14) (size 15 to 20)
#    0.000    2.250    1.250    2.625    3.500    2.250 
#    0.000    3.125    0.000    2.250    0.000    0.000 
#    0.000    0.000    0.000    9.125    0.000    0.125 
#
# Total GULP energy -1585913.728512 kJ/mol
# GULP energy per Si atom -12389.951004 kJ/mol
# Density = 1.929231 g / cm^3
# Si number density = 19.336316 Si / 1000 Ang^3
#
#
#
# Elastic Constant Matrix: (Units=GPa)
#
#
# Indices 1 2 3 4 5 6 
#
# 1 69.5856 21.5593 18.6522 0.0000 0.0000 0.0000
# 2 21.5593 69.5856 18.6522 0.0000 0.0000 0.0000
# 3 18.6522 18.6522 79.0389 0.0000 0.0000 0.0000
# 4 0.0000 0.0000 0.0000 17.7089 0.0000 0.0000
# 5 0.0000 0.0000 0.0000 0.0000 17.7089 0.0000
# 6 0.0000 0.0000 0.0000 0.0000 0.0000 29.0374
#
#
#
# Elastic Compliance Matrix: (Units=1/GPa)
#
#
# Indices 1 2 3 4 5 6 
#
# 1 0.016483 -0.004339 -0.002866 0.000000 0.000000 0.000000
# 2 -0.004339 0.016483 -0.002866 0.000000 0.000000 0.000000
# 3 -0.002866 -0.002866 0.014005 0.000000 0.000000 0.000000
# 4 0.000000 0.000000 0.000000 0.056469 0.000000 0.000000
# 5 0.000000 0.000000 0.000000 0.000000 0.056469 0.000000
# 6 0.000000 0.000000 0.000000 0.000000 0.000000 0.034438
#
#
# Mechanical properties :
#
#
# Convention : Reuss Voigt Hill
#
# Bulk Modulus (GPa) = 37.27184 37.32638 37.29911
# Shear Modulus (GPa) = 22.37822 23.51414 22.94618
#
# Velocity S-wave (km/s) = 3.40562 3.49099 3.44857
# Velocity P-wave (km/s) = 5.89761 5.96616 5.93198
#
# Compressibility (1/GPa) = 0.02682991
#
# Stress axis : x y z
#
# Youngs Moduli (GPa) = 60.66771 60.66771 71.40480
#
# Poissons Ratio (x) = 0.26322 0.20464
# Poissons Ratio (y) = 0.26322 0.20464
# Poissons Ratio (z) = 0.17387 0.17387
#
# Static dielectric constant tensor:
#      x y z
#    x 3.623850 0.000000 0.000000 
#    y 0.000000 3.623850 0.000000 
#    z 0.000000 0.000000 3.407020 
# 
# 
# High freq. dielectric constant tensor:
#      x y z
#    x 1.746650 0.000000 0.000000 
#    y 0.000000 1.746650 0.000000 
#    z 0.000000 0.000000 1.734210 
# 
# From -- ./inp_files/6644.got.cif
#   From: 2010.03.12/outbox.cif.g09.slc.cpg/sg136_4_cif.got.tgz:6644.got - 2010.04.06 18:39:43.
