data_PCOD8317575
_publ_section_title
;
Structure prediction by ZEFSAII (Michael W. Deem and Ramdas Pophale) SiO2 
 PCOD8317575
Probable space group: P 42/M B C
;
_chemical_formula_sum "Si O2"
_cell_formula_units_Z 56
_cell_length_a 13.698007
_cell_length_b 13.698007
_cell_length_c 12.413018
_cell_angle_alpha 90.000000
_cell_angle_beta 90.000000
_cell_angle_gamma 90.000000
_cell_volume 2329.121545
_symmetry_space_group_name_H-M "P 42/M B C"
_symmetry_group_IT_number 135
_symmetry_cell_setting 'tetragonal'
loop_
_space_group_symop_operation_xyz
x,y,z
-y,x,1/2+z
-x,-y,z
y,-x,1/2+z
1/2+x,1/2-y,-z
1/2-x,1/2+y,-z
1/2+y,1/2+x,1/2-z
1/2-y,1/2-x,1/2-z
-x,-y,-z
y,-x,1/2-z
x,y,-z
-y,x,1/2-z
1/2-x,1/2+y,z
1/2+x,1/2-y,z
1/2-y,1/2-x,1/2+z
1/2+y,1/2+x,1/2+z
loop_
_atom_site_type_symbol
_atom_site_label
_atom_site_fract_x
_atom_site_fract_y
_atom_site_fract_z
Si Si1 0.149031 0.433402 0.500000
Si Si2 0.674234 0.849944 0.500000
Si Si3 0.868291 0.151400 0.155884
Si Si4 0.022352 0.250341 0.500000
Si Si5 0.665647 0.588223 0.616269
O O1 0.117705 0.546788 0.500000
O O2 0.058312 0.362200 0.500000
O O3 0.216517 0.414495 0.605567
O O4 0.745441 0.837076 0.603528
O O5 0.595460 0.763168 0.500000
O O6 0.804813 0.061593 0.106982
O O7 0.857454 0.159253 0.284756
O O8 0.979890 0.124648 0.133627
O O9 0.620015 0.624103 0.500000
#
# Coordination Sequence:
#
# PCOD8317575 Si02
#       5
#     8   8  16   8  16
#     4   8  19  40  67  99 140 185 231 304 366 430
#     4   9  20  43  70 105 144 180 254 300 371 448
#     4  10  21  44  68 101 147 188 245 302 373 432
#     4  11  20  41  71 111 134 193 242 307 374 436
#     4   9  20  45  66  98 147 184 245 297 365 449
#
# _framework density 24.043400999999999
#
# number of rings (size 3 to 8) (size 9 to 14) (size 15 to 20)
#    0.857    1.714    2.857    0.429    0.000    1.714 
#   20.571    5.714    0.000    6.857    0.000    0.000 
#    0.000    3.143    0.000    0.000    0.000    0.000 
#
# Total GULP energy -693792.498171 kJ/mol
# GULP energy per Si atom -12389.151753 kJ/mol
# Density = 2.398868 g / cm^3
# Si number density = 24.043401 Si / 1000 Ang^3
#
#
#
# Elastic Constant Matrix: (Units=GPa)
#
#
# Indices 1 2 3 4 5 6 
#
# 1 117.5388 63.4412 59.7090 0.0000 0.0000 0.0000
# 2 63.4412 117.5388 59.7090 0.0000 0.0000 0.0000
# 3 59.7090 59.7090 203.4106 0.0000 0.0000 0.0000
# 4 0.0000 0.0000 0.0000 11.1951 0.0000 0.0000
# 5 0.0000 0.0000 0.0000 0.0000 11.1951 0.0000
# 6 0.0000 0.0000 0.0000 0.0000 0.0000 4.2287
#
#
#
# Elastic Compliance Matrix: (Units=1/GPa)
#
#
# Indices 1 2 3 4 5 6 
#
# 1 0.012669 -0.005816 -0.002012 0.000000 0.000000 0.000000
# 2 -0.005816 0.012669 -0.002012 0.000000 0.000000 0.000000
# 3 -0.002012 -0.002012 0.006097 0.000000 0.000000 0.000000
# 4 0.000000 0.000000 0.000000 0.089324 0.000000 0.000000
# 5 0.000000 0.000000 0.000000 0.000000 0.089324 0.000000
# 6 0.000000 0.000000 0.000000 0.000000 0.000000 0.236479
#
#
# Mechanical properties :
#
#
# Convention : Reuss Voigt Hill
#
# Bulk Modulus (GPa) = 85.05985 89.35631 87.20808
# Shear Modulus (GPa) = 10.63467 22.36574 16.50020
#
# Velocity S-wave (km/s) = 2.10540 3.05327 2.62251
# Velocity P-wave (km/s) = 6.43154 7.04806 6.74685
#
# Compressibility (1/GPa) = 0.01175643
#
# Stress axis : x y z
#
# Youngs Moduli (GPa) = 78.93323 78.93323 164.01219
#
# Poissons Ratio (x) = 0.45909 0.32992
# Poissons Ratio (y) = 0.45909 0.32992
# Poissons Ratio (z) = 0.15878 0.15878
#
# Static dielectric constant tensor:
#      x y z
#    x 4.157130 0.000000 0.000000 
#    y 0.000000 4.157130 0.000000 
#    z 0.000000 0.000000 4.395770 
# 
# 
# High freq. dielectric constant tensor:
#      x y z
#    x 1.956920 0.000000 0.000000 
#    y 0.000000 1.956920 0.000000 
#    z 0.000000 0.000000 1.938630 
# 
# From -- ./inp_files/2095.got.cif
#   From: 2010.03.12/outbox.cif.g09.slc.cpg/sg135_2_cif.got.tgz:2095.got - 2010.04.06 18:31:24.
