data_PCOD8317569
_publ_section_title
;
Structure prediction by ZEFSAII (Michael W. Deem and Ramdas Pophale) SiO2 
 PCOD8317569
Probable space group: P 42/M B C
;
_chemical_formula_sum "Si O2"
_cell_formula_units_Z 112
_cell_length_a 14.309577
_cell_length_b 14.309577
_cell_length_c 23.410044
_cell_angle_alpha 90.000000
_cell_angle_beta 90.000000
_cell_angle_gamma 90.000000
_cell_volume 4793.534107
_symmetry_space_group_name_H-M "P 42/M B C"
_symmetry_group_IT_number 135
_symmetry_cell_setting 'tetragonal'
loop_
_space_group_symop_operation_xyz
x,y,z
-y,x,1/2+z
-x,-y,z
y,-x,1/2+z
1/2+x,1/2-y,-z
1/2-x,1/2+y,-z
1/2+y,1/2+x,1/2-z
1/2-y,1/2-x,1/2-z
-x,-y,-z
y,-x,1/2-z
x,y,-z
-y,x,1/2-z
1/2-x,1/2+y,z
1/2+x,1/2-y,z
1/2-y,1/2-x,1/2+z
1/2+y,1/2+x,1/2+z
loop_
_atom_site_type_symbol
_atom_site_label
_atom_site_fract_x
_atom_site_fract_y
_atom_site_fract_z
Si Si1 0.129736 0.335144 0.064005
Si Si2 0.473129 0.286521 0.180154
Si Si3 0.296780 0.361207 0.238991
Si Si4 0.268003 0.652979 0.065909
Si Si5 0.067187 0.741448 0.936720
Si Si6 0.436859 0.077719 0.815765
Si Si7 0.011753 0.268306 0.363165
O O1 0.168361 0.237258 0.090380
O O2 0.167776 0.421334 0.099296
O O3 0.017720 0.332622 0.063243
O O4 0.170212 0.345946 0.000000
O O5 0.391624 0.305701 0.226061
O O6 0.573365 0.317711 0.205668
O O7 0.448891 0.319914 0.114443
O O8 0.480877 0.176487 0.169023
O O9 0.209504 0.290497 0.250000
O O10 0.283765 0.427582 0.184311
O O11 0.159475 0.680750 0.075468
O O12 0.296385 0.555314 0.097461
O O13 0.291020 0.635959 0.000000
O O14 0.073300 0.790169 0.000000
O O15 0.442387 0.057614 0.750000
O O16 0.500000 0.000000 0.847535
O O17 0.329603 0.067476 0.832589
#
# Coordination Sequence:
#
# PCOD8317569 Si02
#       7
#    16  16  16  16  16  16  16
#     4  10  22  40  62  97 140 175 223 287 350 416
#     4  12  25  46  67 101 144 181 237 288 352 436
#     4  12  28  45  70 101 139 191 232 298 364 424
#     4  10  22  40  63  95 136 180 229 286 344 410
#     4  10  21  40  68  97 132 179 221 282 355 409
#     4  11  21  37  62  95 132 170 224 287 336 409
#     4  12  23  36  66  97 131 180 232 279 350 421
#
# _framework density 23.364809000000001
#
# number of rings (size 3 to 8) (size 9 to 14) (size 15 to 20)
#    0.000    1.000    2.857    4.286    0.000    1.429 
#    0.000    2.857    0.000    2.571    0.000   16.000 
#    0.000    0.000    0.000    0.000    0.000    0.000 
#
# Total GULP energy -1387679.929924 kJ/mol
# GULP energy per Si atom -12389.999374 kJ/mol
# Density = 2.331163 g / cm^3
# Si number density = 23.364809 Si / 1000 Ang^3
#
#
#
# Elastic Constant Matrix: (Units=GPa)
#
#
# Indices 1 2 3 4 5 6 
#
# 1 65.1758 22.2764 30.5265 0.0000 0.0000 0.0000
# 2 22.2764 65.1754 30.5264 0.0000 0.0000 0.0000
# 3 30.5265 30.5264 126.3953 0.0000 0.0000 0.0000
# 4 0.0000 0.0000 0.0000 24.1701 0.0000 0.0000
# 5 0.0000 0.0000 0.0000 0.0000 24.1700 0.0000
# 6 0.0000 0.0000 0.0000 0.0000 0.0000 28.4206
#
#
#
# Elastic Compliance Matrix: (Units=1/GPa)
#
#
# Indices 1 2 3 4 5 6 
#
# 1 0.018532 -0.004778 -0.003322 0.000000 0.000000 0.000000
# 2 -0.004778 0.018532 -0.003322 0.000000 0.000000 0.000000
# 3 -0.003322 -0.003322 0.009516 0.000000 0.000000 0.000000
# 4 0.000000 0.000000 0.000000 0.041373 0.000000 0.000000
# 5 0.000000 0.000000 0.000000 0.000000 0.041374 0.000000
# 6 0.000000 0.000000 0.000000 0.000000 0.000000 0.035186
#
#
# Mechanical properties :
#
#
# Convention : Reuss Voigt Hill
#
# Bulk Modulus (GPa) = 42.12856 47.04500 44.58678
# Shear Modulus (GPa) = 25.60566 26.91329 26.25948
#
# Velocity S-wave (km/s) = 3.31404 3.39761 3.35608
# Velocity P-wave (km/s) = 5.71959 5.96409 5.84312
#
# Compressibility (1/GPa) = 0.02373687
#
# Stress axis : x y z
#
# Youngs Moduli (GPa) = 53.96034 53.96003 105.08385
#
# Poissons Ratio (x) = 0.25784 0.34907
# Poissons Ratio (y) = 0.25784 0.34907
# Poissons Ratio (z) = 0.17924 0.17924
#
# Static dielectric constant tensor:
#      x y z
#    x 4.134270 0.000000 0.000000 
#    y 0.000000 4.134280 0.000000 
#    z 0.000000 0.000000 4.781660 
# 
# 
# High freq. dielectric constant tensor:
#      x y z
#    x 1.902730 0.000000 0.000000 
#    y 0.000000 1.902730 0.000000 
#    z 0.000000 0.000000 1.955010 
# 
# From -- ./inp_files/6117.got.cif
#   From: 2010.03.12/outbox.cif.g09.slc.cpg/sg135_4_cif.got.tgz:6117.got - 2010.04.06 18:31:24.
