data_PCOD8317774
_publ_section_title
;
Structure prediction by ZEFSAII (Michael W. Deem and Ramdas Pophale) SiO2 
 PCOD8317774
Probable space group: P 42/M N M
;
_chemical_formula_sum "Si O2"
_cell_formula_units_Z 112
_cell_length_a 24.134861
_cell_length_b 24.134861
_cell_length_c 11.419973
_cell_angle_alpha 90.000000
_cell_angle_beta 90.000000
_cell_angle_gamma 90.000000
_cell_volume 6652.037380
_symmetry_space_group_name_H-M "P 42/M N M"
_symmetry_group_IT_number 136
_symmetry_cell_setting 'tetragonal'
loop_
_space_group_symop_operation_xyz
x,y,z
1/2-y,1/2+x,1/2+z
-x,-y,z
1/2+y,1/2-x,1/2+z
1/2+x,1/2-y,1/2-z
1/2-x,1/2+y,1/2-z
y,x,-z
-y,-x,-z
-x,-y,-z
1/2+y,1/2-x,1/2-z
x,y,-z
1/2-y,1/2+x,1/2-z
1/2-x,1/2+y,1/2+z
1/2+x,1/2-y,1/2+z
-y,-x,z
y,x,z
loop_
_atom_site_type_symbol
_atom_site_label
_atom_site_fract_x
_atom_site_fract_y
_atom_site_fract_z
Si Si1 0.827648 0.680222 0.865604
Si Si2 0.711953 0.195799 0.000000
Si Si3 0.870852 0.565921 0.779019
Si Si4 0.762471 0.419789 0.224167
Si Si5 0.764676 0.531234 0.358830
Si Si6 0.952796 0.620958 0.372815
Si Si7 0.714672 0.377923 0.000000
Si Si8 0.354241 0.265277 0.288834
O O1 0.855012 0.620482 0.849804
O O2 0.862330 0.728093 0.796741
O O3 0.763378 0.671995 0.826433
O O4 0.827811 0.698429 0.000000
O O5 0.654153 0.226821 0.000000
O O6 0.718126 0.157374 0.113172
O O7 0.761140 0.238861 0.000000
O O8 0.826820 0.545223 0.681860
O O9 0.881087 0.519009 0.874374
O O10 0.928824 0.575828 0.715146
O O11 0.745685 0.470906 0.309890
O O12 0.818076 0.433150 0.157221
O O13 0.715182 0.412613 0.122396
O O14 0.759492 0.531038 0.500000
O O15 0.725762 0.579135 0.297527
O O16 0.930084 0.605971 0.500000
O O17 0.661228 0.338773 0.000000
O O18 0.324405 0.324405 0.309498
#
# Coordination Sequence:
#
# PCOD8317774 Si02
#       8
#    16   8  16  16  16  16   8  16
#     4  10  19  31  46  66  99 134 168 207 253 306
#     4   9  16  28  50  76 100 122 161 208 242 280
#     4   9  20  30  45  66  83 122 170 210 254 291
#     4  10  20  32  50  73  94 128 164 202 251 300
#     4  10  19  32  49  71  99 129 163 202 246 303
#     4  10  18  32  47  60  87 118 159 209 251 291
#     4  11  20  34  56  78  99 124 168 215 250 299
#     4  10  19  31  50  76 102 134 170 205 249 297
#
# _framework density 16.836946999999999
#
# number of rings (size 3 to 8) (size 9 to 14) (size 15 to 20)
#    0.000    2.143    2.857    1.286    0.000    0.571 
#    1.286    2.857    0.000    1.286    0.000    0.000 
#    0.000    1.143    0.000    1.286    0.000    0.000 
#
# Total GULP energy -1387812.015366 kJ/mol
# GULP energy per Si atom -12391.178709 kJ/mol
# Density = 1.679863 g / cm^3
# Si number density = 16.836947 Si / 1000 Ang^3
#
#
#
# Elastic Constant Matrix: (Units=GPa)
#
#
# Indices 1 2 3 4 5 6 
#
# 1 54.7449 26.4012 23.8607 0.0000 0.0000 0.0000
# 2 26.4012 54.7449 23.8609 0.0000 0.0000 0.0000
# 3 23.8607 23.8609 103.1442 0.0000 0.0000 0.0000
# 4 0.0000 0.0000 0.0000 17.9965 0.0000 0.0000
# 5 0.0000 0.0000 0.0000 0.0000 17.9967 0.0000
# 6 0.0000 0.0000 0.0000 0.0000 0.0000 16.0694
#
#
#
# Elastic Compliance Matrix: (Units=1/GPa)
#
#
# Indices 1 2 3 4 5 6 
#
# 1 0.024773 -0.010509 -0.003300 0.000000 0.000000 0.000000
# 2 -0.010509 0.024773 -0.003300 0.000000 0.000000 0.000000
# 3 -0.003300 -0.003300 0.011222 0.000000 0.000000 0.000000
# 4 0.000000 0.000000 0.000000 0.055566 0.000000 0.000000
# 5 0.000000 0.000000 0.000000 0.000000 0.055566 0.000000
# 6 0.000000 0.000000 0.000000 0.000000 0.000000 0.062230
#
#
# Mechanical properties :
#
#
# Convention : Reuss Voigt Hill
#
# Bulk Modulus (GPa) = 37.66355 40.09773 38.88064
# Shear Modulus (GPa) = 18.03778 19.64659 18.84219
#
# Velocity S-wave (km/s) = 3.27666 3.41966 3.34892
# Velocity P-wave (km/s) = 6.06081 6.28165 6.17222
#
# Compressibility (1/GPa) = 0.02655087
#
# Stress axis : x y z
#
# Youngs Moduli (GPa) = 40.36712 40.36710 89.11177
#
# Poissons Ratio (x) = 0.42420 0.29405
# Poissons Ratio (y) = 0.42420 0.29405
# Poissons Ratio (z) = 0.13320 0.13320
#
# Static dielectric constant tensor:
#      x y z
#    x 3.011730 0.000000 0.000000 
#    y 0.000000 3.011730 0.000000 
#    z 0.000000 0.000000 3.254480 
# 
# 
# High freq. dielectric constant tensor:
#      x y z
#    x 1.619210 0.000000 0.000000 
#    y 0.000000 1.619210 0.000000 
#    z 0.000000 0.000000 1.658710 
# 
# From -- ./inp_files/4047.got.cif
#   From: 2010.03.12/outbox.cif.g09.slc.cpg/sg136_3_cif.got.tgz:4047.got - 2010.04.06 18:39:43.
