data_PCOD8317227
_publ_section_title
;
Structure prediction by ZEFSAII (Michael W. Deem and Ramdas Pophale) SiO2 
 PCOD8317227
Probable space group: P 42/N N M
;
_chemical_formula_sum "Si O2"
_cell_formula_units_Z 112
_cell_length_a 13.571212
_cell_length_b 13.571212
_cell_length_c 33.473746
_cell_angle_alpha 90.000000
_cell_angle_beta 90.000000
_cell_angle_gamma 90.000000
_cell_volume 6165.120734
_symmetry_space_group_name_H-M "P 42/N N M"
_symmetry_group_IT_number 134
_space_group.IT_coordinate_system_code '2'
_symmetry_cell_setting 'tetragonal'
loop_
_space_group_symop_operation_xyz
x,y,z
1/2-y,x,1/2+z
1/2-x,1/2-y,z
y,1/2-x,1/2+z
x,1/2-y,1/2-z
1/2-x,y,1/2-z
y,x,-z
1/2-y,1/2-x,-z
-x,-y,-z
1/2+y,-x,1/2-z
1/2+x,1/2+y,-z
-y,1/2+x,1/2-z
-x,1/2+y,1/2+z
1/2+x,-y,1/2+z
-y,-x,z
1/2+y,1/2+x,z
loop_
_atom_site_type_symbol
_atom_site_label
_atom_site_fract_x
_atom_site_fract_y
_atom_site_fract_z
Si Si1 0.997156 0.839824 0.779830
Si Si2 0.017913 0.354833 0.765223
Si Si3 0.287467 0.097736 0.152035
Si Si4 0.528792 0.864373 0.558418
Si Si5 0.780152 0.906763 0.140041
Si Si6 0.747585 0.408190 0.899700
Si Si7 0.173315 0.988741 0.025176
O O1 0.012520 0.750000 0.750000
O O2 0.904477 0.907872 0.766637
O O3 0.982624 0.792175 0.823535
O O4 0.095896 0.904105 0.780283
O O5 0.976354 0.250000 0.750000
O O6 0.079823 0.331568 0.804481
O O7 0.925287 0.425287 0.774239
O O8 0.182096 0.148750 0.152306
O O9 0.368382 0.169371 0.132325
O O10 0.273839 0.996286 0.129110
O O11 0.538376 0.805049 0.599102
O O12 0.508730 0.790479 0.520391
O O13 0.442206 0.942206 0.565151
O O14 0.633858 0.915010 0.548532
O O15 0.637459 0.362542 0.891690
O O16 0.825353 0.325353 0.890740
O O17 0.755981 0.440395 0.946429
O O18 0.079162 0.920839 0.019090
#
# Coordination Sequence:
#
# PCOD8317227 Si02
#       7
#    16  16  16  16  16  16  16
#     4  11  23  40  63  86 109 147 194 242 289 337
#     4  11  23  39  59  82 114 154 190 232 284 340
#     4  11  22  35  54  81 118 151 189 230 279 337
#     4   9  16  30  54  82 112 142 183 244 291 324
#     4  11  21  34  58  85 113 151 189 235 288 340
#     4  10  20  35  57  82 113 154 192 227 273 340
#     4   8  15  29  52  80 111 147 185 231 284 331
#
# _framework density 18.166716999999998
#
# number of rings (size 3 to 8) (size 9 to 14) (size 15 to 20)
#    0.000    1.857    4.286    1.714    0.000    1.714 
#    0.000    0.714    0.000    3.429    0.000    2.000 
#    0.000    0.000    0.000    0.000    0.000    0.000 
#
# Total GULP energy -1387928.529261 kJ/mol
# GULP energy per Si atom -12392.219011 kJ/mol
# Density = 1.812537 g / cm^3
# Si number density = 18.166717 Si / 1000 Ang^3
#
#
#
# Elastic Constant Matrix: (Units=GPa)
#
#
# Indices 1 2 3 4 5 6 
#
# 1 62.0595 16.2672 21.6043 0.0000 0.0000 0.0000
# 2 16.2672 62.0595 21.6043 0.0000 0.0000 0.0000
# 3 21.6043 21.6043 120.4509 0.0000 0.0000 0.0000
# 4 0.0000 0.0000 0.0000 12.9521 0.0000 0.0000
# 5 0.0000 0.0000 0.0000 0.0000 12.9521 0.0000
# 6 0.0000 0.0000 0.0000 0.0000 0.0000 17.5400
#
#
#
# Elastic Compliance Matrix: (Units=1/GPa)
#
#
# Indices 1 2 3 4 5 6 
#
# 1 0.018003 -0.003834 -0.002541 0.000000 0.000000 0.000000
# 2 -0.003834 0.018003 -0.002541 0.000000 0.000000 0.000000
# 3 -0.002541 -0.002541 0.009214 0.000000 0.000000 0.000000
# 4 0.000000 0.000000 0.000000 0.077208 0.000000 0.000000
# 5 0.000000 0.000000 0.000000 0.000000 0.077208 0.000000
# 6 0.000000 0.000000 0.000000 0.000000 0.000000 0.057012
#
#
# Mechanical properties :
#
#
# Convention : Reuss Voigt Hill
#
# Bulk Modulus (GPa) = 36.51465 40.39125 38.45295
# Shear Modulus (GPa) = 17.62974 21.02843 19.32909
#
# Velocity S-wave (km/s) = 3.11857 3.40593 3.26541
# Velocity P-wave (km/s) = 5.75419 6.14403 5.95230
#
# Compressibility (1/GPa) = 0.02738627
#
# Stress axis : x y z
#
# Youngs Moduli (GPa) = 55.54517 55.54517 108.53296
#
# Poissons Ratio (x) = 0.21298 0.27582
# Poissons Ratio (y) = 0.21298 0.27582
# Poissons Ratio (z) = 0.14116 0.14116
#
# Static dielectric constant tensor:
#      x y z
#    x 3.300400 0.000000 0.000000 
#    y 0.000000 3.300400 0.000000 
#    z 0.000000 0.000000 3.615490 
# 
# 
# High freq. dielectric constant tensor:
#      x y z
#    x 1.686270 0.000000 0.000000 
#    y 0.000000 1.686270 0.000000 
#    z 0.000000 0.000000 1.717160 
# 
# From -- ./inp_files/11695.got.cif
#   From: 2010.03.12/outbox.cif.g09.slc.cpg/sg134_6_cif.got.tgz:11695.got - 2010.04.06 18:17:22.
