data_PCOD8317839
_publ_section_title
;
Structure prediction by ZEFSAII (Michael W. Deem and Ramdas Pophale) SiO2 
 PCOD8317839
Probable space group: P 42/M N M
;
_chemical_formula_sum "Si O2"
_cell_formula_units_Z 112
_cell_length_a 19.266368
_cell_length_b 19.266368
_cell_length_c 17.947146
_cell_angle_alpha 90.000000
_cell_angle_beta 90.000000
_cell_angle_gamma 90.000000
_cell_volume 6661.853815
_symmetry_space_group_name_H-M "P 42/M N M"
_symmetry_group_IT_number 136
_symmetry_cell_setting 'tetragonal'
loop_
_space_group_symop_operation_xyz
x,y,z
1/2-y,1/2+x,1/2+z
-x,-y,z
1/2+y,1/2-x,1/2+z
1/2+x,1/2-y,1/2-z
1/2-x,1/2+y,1/2-z
y,x,-z
-y,-x,-z
-x,-y,-z
1/2+y,1/2-x,1/2-z
x,y,-z
1/2-y,1/2+x,1/2-z
1/2-x,1/2+y,1/2+z
1/2+x,1/2-y,1/2+z
-y,-x,z
y,x,z
loop_
_atom_site_type_symbol
_atom_site_label
_atom_site_fract_x
_atom_site_fract_y
_atom_site_fract_z
Si Si1 0.298178 0.186952 0.586336
Si Si2 0.807659 0.696423 0.088317
Si Si3 0.750707 0.055110 0.417138
Si Si4 0.098938 0.496739 0.917052
Si Si5 0.869775 0.582645 0.678532
Si Si6 0.862761 0.427712 0.331031
Si Si7 0.683914 0.422801 0.089090
O O1 0.317717 0.175047 0.500000
O O2 0.261667 0.261667 0.597158
O O3 0.368279 0.184497 0.635017
O O4 0.246603 0.126793 0.615628
O O5 0.766853 0.766853 0.107016
O O6 0.763312 0.630011 0.120797
O O7 0.882323 0.698115 0.129162
O O8 0.819430 0.686871 0.000000
O O9 0.777191 0.071862 0.500000
O O10 0.681561 0.009139 0.417913
O O11 0.806695 0.001974 0.378889
O O12 0.074934 0.558700 0.865070
O O13 0.064613 0.426283 0.888006
O O14 0.071034 0.510872 0.000000
O O15 0.885253 0.613383 0.759101
O O16 0.836155 0.505494 0.687646
O O17 0.610678 0.389323 0.116300
O O18 0.685939 0.424970 0.000000
#
# Coordination Sequence:
#
# PCOD8317839 Si02
#       7
#    16  16  16  16  16  16  16
#     4   9  18  31  48  70  96 130 171 210 251 302
#     4   9  19  36  54  68  88 123 172 224 260 299
#     4   8  13  24  43  66  85 113 158 198 239 286
#     4  10  19  31  47  66  92 131 172 204 238 289
#     4  12  21  32  47  69 105 139 162 205 254 302
#     4  11  23  33  46  70 102 134 168 207 256 302
#     4   8  12  20  36  60  89 117 149 191 234 286
#
# _framework density 16.812138000000001
#
# number of rings (size 3 to 8) (size 9 to 14) (size 15 to 20)
#    0.000    2.429    2.857    3.000    0.000    3.429 
#    0.000    0.000    0.000    0.429    0.000    3.000 
#    0.000    0.571    0.000    3.143    0.000    0.571 
#
# Total GULP energy -1387580.862020 kJ/mol
# GULP energy per Si atom -12389.114839 kJ/mol
# Density = 1.677387 g / cm^3
# Si number density = 16.812138 Si / 1000 Ang^3
#
#
#
# Elastic Constant Matrix: (Units=GPa)
#
#
# Indices 1 2 3 4 5 6 
#
# 1 54.7150 31.2587 21.7226 0.0000 0.0000 0.0000
# 2 31.2587 54.7150 21.7226 0.0000 0.0000 0.0000
# 3 21.7226 21.7226 55.9259 0.0000 0.0000 0.0000
# 4 0.0000 0.0000 0.0000 18.0323 0.0000 0.0000
# 5 0.0000 0.0000 0.0000 0.0000 18.0323 0.0000
# 6 0.0000 0.0000 0.0000 0.0000 0.0000 19.1342
#
#
#
# Elastic Compliance Matrix: (Units=1/GPa)
#
#
# Indices 1 2 3 4 5 6 
#
# 1 0.028552 -0.014080 -0.005621 0.000000 0.000000 0.000000
# 2 -0.014080 0.028552 -0.005621 0.000000 0.000000 0.000000
# 3 -0.005621 -0.005621 0.022248 0.000000 0.000000 0.000000
# 4 0.000000 0.000000 0.000000 0.055456 0.000000 0.000000
# 5 0.000000 0.000000 0.000000 0.000000 0.055456 0.000000
# 6 0.000000 0.000000 0.000000 0.000000 0.000000 0.052263
#
#
# Mechanical properties :
#
#
# Convention : Reuss Voigt Hill
#
# Bulk Modulus (GPa) = 34.83491 34.97375 34.90433
# Shear Modulus (GPa) = 16.51576 17.08320 16.79948
#
# Velocity S-wave (km/s) = 3.13768 3.19113 3.16452
# Velocity P-wave (km/s) = 5.82167 5.86733 5.84454
#
# Compressibility (1/GPa) = 0.02870683
#
# Stress axis : x y z
#
# Youngs Moduli (GPa) = 35.02351 35.02351 44.94879
#
# Poissons Ratio (x) = 0.49314 0.25267
# Poissons Ratio (y) = 0.49314 0.25267
# Poissons Ratio (z) = 0.19687 0.19687
#
# Static dielectric constant tensor:
#      x y z
#    x 3.133270 0.000000 0.000000 
#    y 0.000000 3.133270 0.000000 
#    z 0.000000 0.000000 3.002940 
# 
# 
# High freq. dielectric constant tensor:
#      x y z
#    x 1.624430 0.000000 0.000000 
#    y 0.000000 1.624430 0.000000 
#    z 0.000000 0.000000 1.623070 
# 
# From -- ./inp_files/6591.got.cif
#   From: 2010.03.12/outbox.cif.g09.slc.cpg/sg136_4_cif.got.tgz:6591.got - 2010.04.06 18:39:43.
