data_PCOD8317590
_publ_section_title
;
Structure prediction by ZEFSAII (Michael W. Deem and Ramdas Pophale) SiO2 
 PCOD8317590
Probable space group: P 42/M B C
;
_chemical_formula_sum "Si O2"
_cell_formula_units_Z 72
_cell_length_a 19.463254
_cell_length_b 19.463254
_cell_length_c 8.980608
_cell_angle_alpha 90.000000
_cell_angle_beta 90.000000
_cell_angle_gamma 90.000000
_cell_volume 3402.018263
_symmetry_space_group_name_H-M "P 42/M B C"
_symmetry_group_IT_number 135
_symmetry_cell_setting 'tetragonal'
loop_
_space_group_symop_operation_xyz
x,y,z
-y,x,1/2+z
-x,-y,z
y,-x,1/2+z
1/2+x,1/2-y,-z
1/2-x,1/2+y,-z
1/2+y,1/2+x,1/2-z
1/2-y,1/2-x,1/2-z
-x,-y,-z
y,-x,1/2-z
x,y,-z
-y,x,1/2-z
1/2-x,1/2+y,z
1/2+x,1/2-y,z
1/2-y,1/2-x,1/2+z
1/2+y,1/2+x,1/2+z
loop_
_atom_site_type_symbol
_atom_site_label
_atom_site_fract_x
_atom_site_fract_y
_atom_site_fract_z
Si Si1 0.651003 0.294232 0.836005
Si Si2 0.801291 0.301291 0.250000
Si Si3 0.650967 0.940842 0.333923
Si Si4 0.675433 0.076534 0.176342
Si Si5 0.072832 0.931776 0.324643
O O1 0.733094 0.300090 0.849790
O O2 0.626784 0.238271 0.716549
O O3 0.621669 0.367542 0.787387
O O4 0.623102 0.273289 0.000000
O O5 0.872595 0.300722 0.155602
O O6 0.579792 0.920209 0.250000
O O7 0.634902 0.967161 0.500000
O O8 0.688934 0.000465 0.240690
O O9 0.605856 0.105856 0.250000
O O10 0.667730 0.073464 0.000000
O O11 0.057612 0.937458 0.500000
O O12 0.005673 0.904858 0.239146
#
# Coordination Sequence:
#
# PCOD8317590 Si02
#       5
#    16   8  16  16  16
#     4  11  24  43  66  96 132 172 219 271 325 389
#     4  10  24  42  73  96 133 168 218 266 330 378
#     4  10  23  43  69  99 132 169 216 268 323 388
#     4  12  26  44  68  97 133 174 220 271 327 391
#     4  10  22  40  63  93 130 171 218 269 323 390
#
# _framework density 21.163906999999998
#
# number of rings (size 3 to 8) (size 9 to 14) (size 15 to 20)
#    0.667    0.667    1.111    4.667    3.111    3.111 
#    0.000    2.222    0.000    0.000    0.000    0.000 
#    0.000    0.000    0.000    0.000    0.000    0.000 
#
# Total GULP energy -892575.166182 kJ/mol
# GULP energy per Si atom -12396.877308 kJ/mol
# Density = 2.111574 g / cm^3
# Si number density = 21.163907 Si / 1000 Ang^3
#
#
#
# Elastic Constant Matrix: (Units=GPa)
#
#
# Indices 1 2 3 4 5 6 
#
# 1 115.1193 60.6994 44.8016 0.0000 0.0000 0.0000
# 2 60.6994 115.1188 44.8014 0.0000 0.0000 0.0000
# 3 44.8016 44.8014 153.9937 0.0000 0.0000 0.0000
# 4 0.0000 0.0000 0.0000 29.8485 0.0000 0.0000
# 5 0.0000 0.0000 0.0000 0.0000 29.8487 0.0000
# 6 0.0000 0.0000 0.0000 0.0000 0.0000 34.1332
#
#
#
# Elastic Compliance Matrix: (Units=1/GPa)
#
#
# Indices 1 2 3 4 5 6 
#
# 1 0.012527 -0.005849 -0.001943 0.000000 0.000000 0.000000
# 2 -0.005849 0.012527 -0.001943 0.000000 0.000000 0.000000
# 3 -0.001943 -0.001943 0.007624 0.000000 0.000000 0.000000
# 4 0.000000 0.000000 0.000000 0.033503 0.000000 0.000000
# 5 0.000000 0.000000 0.000000 0.000000 0.033502 0.000000
# 6 0.000000 0.000000 0.000000 0.000000 0.000000 0.029297
#
#
# Mechanical properties :
#
#
# Convention : Reuss Voigt Hill
#
# Bulk Modulus (GPa) = 75.70778 76.09293 75.90036
# Shear Modulus (GPa) = 32.71151 34.36138 33.53645
#
# Velocity S-wave (km/s) = 3.93571 4.03374 3.98503
# Velocity P-wave (km/s) = 7.51684 7.59782 7.55744
#
# Compressibility (1/GPa) = 0.01320868
#
# Stress axis : x y z
#
# Youngs Moduli (GPa) = 79.82933 79.82903 131.16140
#
# Poissons Ratio (x) = 0.46692 0.25482
# Poissons Ratio (y) = 0.46692 0.25482
# Poissons Ratio (z) = 0.15509 0.15509
#
# Static dielectric constant tensor:
#      x y z
#    x 3.758370 0.000000 0.000000 
#    y 0.000000 3.758380 0.000000 
#    z 0.000000 0.000000 3.683520 
# 
# 
# High freq. dielectric constant tensor:
#      x y z
#    x 1.827310 0.000000 0.000000 
#    y 0.000000 1.827310 0.000000 
#    z 0.000000 0.000000 1.833980 
# 
# From -- ./inp_files/1051.got.cif
#   From: 2010.03.12/outbox.cif.g09.slc.cpg/sg135_1_cif.got.tgz:1051.got - 2010.04.06 18:31:24.
