data_PCOD8317622
_publ_section_title
;
Structure prediction by ZEFSAII (Michael W. Deem and Ramdas Pophale) SiO2 
 PCOD8317622
Probable space group: P 42/M B C
;
_chemical_formula_sum "Si O2"
_cell_formula_units_Z 96
_cell_length_a 14.463196
_cell_length_b 14.463196
_cell_length_c 21.504925
_cell_angle_alpha 90.000000
_cell_angle_beta 90.000000
_cell_angle_gamma 90.000000
_cell_volume 4498.487060
_symmetry_space_group_name_H-M "P 42/M B C"
_symmetry_group_IT_number 135
_symmetry_cell_setting 'tetragonal'
loop_
_space_group_symop_operation_xyz
x,y,z
-y,x,1/2+z
-x,-y,z
y,-x,1/2+z
1/2+x,1/2-y,-z
1/2-x,1/2+y,-z
1/2+y,1/2+x,1/2-z
1/2-y,1/2-x,1/2-z
-x,-y,-z
y,-x,1/2-z
x,y,-z
-y,x,1/2-z
1/2-x,1/2+y,z
1/2+x,1/2-y,z
1/2-y,1/2-x,1/2+z
1/2+y,1/2+x,1/2+z
loop_
_atom_site_type_symbol
_atom_site_label
_atom_site_fract_x
_atom_site_fract_y
_atom_site_fract_z
Si Si1 0.503713 0.768101 0.892503
Si Si2 0.535384 0.733550 0.637292
Si Si3 0.276284 0.303339 0.428685
Si Si4 0.653862 0.001652 0.256139
Si Si5 0.584892 0.949826 0.930447
Si Si6 0.871923 0.853199 0.572776
O O1 0.403051 0.771396 0.923219
O O2 0.499323 0.793430 0.820828
O O3 0.572378 0.839803 0.927326
O O4 0.548609 0.668518 0.904885
O O5 0.640183 0.702851 0.621304
O O6 0.515851 0.761164 0.708539
O O7 0.510765 0.824835 0.599859
O O8 0.464884 0.655905 0.613410
O O9 0.311725 0.287732 0.500000
O O10 0.199532 0.228368 0.410747
O O11 0.582872 0.917129 0.250000
O O12 0.599524 0.099524 0.250000
O O13 0.500000 0.000000 0.894500
O O14 0.588856 0.986418 0.000000
O O15 0.896865 0.855155 0.500000
#
# Coordination Sequence:
#
# PCOD8317622 Si02
#       6
#    16  16  16  16  16  16
#     4  12  24  40  63  94 131 174 221 267 335 396
#     4  12  24  40  63  94 131 174 221 267 335 396
#     4  11  23  41  65  95 132 173 222 280 340 399
#     4  11  22  40  66  95 130 171 223 280 335 389
#     4  11  20  35  61  91 121 157 215 280 330 370
#     4  11  23  41  65  95 132 173 222 280 340 399
#
# _framework density 21.340508
#
# number of rings (size 3 to 8) (size 9 to 14) (size 15 to 20)
#    0.000    0.667    3.333    6.000    0.000    4.667 
#    0.000    5.000    0.000    2.000    0.000    0.000 
#    0.000    0.000    0.000    0.000    0.000    0.000 
#
# Total GULP energy -1190510.330297 kJ/mol
# GULP energy per Si atom -12401.149274 kJ/mol
# Density = 2.129194 g / cm^3
# Si number density = 21.340508 Si / 1000 Ang^3
#
#
#
# Elastic Constant Matrix: (Units=GPa)
#
#
# Indices 1 2 3 4 5 6 
#
# 1 48.6868 -12.3314 12.6252 0.0000 0.0000 0.0000
# 2 -12.3314 48.6870 12.6255 0.0000 0.0000 0.0000
# 3 12.6252 12.6255 98.7859 0.0000 0.0000 0.0000
# 4 0.0000 0.0000 0.0000 13.0592 0.0000 0.0000
# 5 0.0000 0.0000 0.0000 0.0000 13.0594 0.0000
# 6 0.0000 0.0000 0.0000 0.0000 0.0000 42.2908
#
#
#
# Elastic Compliance Matrix: (Units=1/GPa)
#
#
# Indices 1 2 3 4 5 6 
#
# 1 0.023287 0.006899 -0.003858 0.000000 0.000000 0.000000
# 2 0.006899 0.023287 -0.003858 0.000000 0.000000 0.000000
# 3 -0.003858 -0.003858 0.011109 0.000000 0.000000 0.000000
# 4 0.000000 0.000000 0.000000 0.076574 0.000000 0.000000
# 5 0.000000 0.000000 0.000000 0.000000 0.076573 0.000000
# 6 0.000000 0.000000 0.000000 0.000000 0.000000 0.023646
#
#
# Mechanical properties :
#
#
# Convention : Reuss Voigt Hill
#
# Bulk Modulus (GPa) = 17.84158 24.66645 21.25402
# Shear Modulus (GPa) = 19.62370 25.89790 22.76080
#
# Velocity S-wave (km/s) = 3.03570 3.48739 3.26936
# Velocity P-wave (km/s) = 4.54597 5.27252 4.92267
#
# Compressibility (1/GPa) = 0.05604884
#
# Stress axis : x y z
#
# Youngs Moduli (GPa) = 42.94220 42.94227 90.01697
#
# Poissons Ratio (x) = -0.29624 0.34727
# Poissons Ratio (y) = -0.29624 0.34728
# Poissons Ratio (z) = 0.16566 0.16567
#
# Static dielectric constant tensor:
#      x y z
#    x 3.838230 0.000000 0.000000 
#    y 0.000000 3.838230 0.000000 
#    z 0.000000 0.000000 3.910320 
# 
# 
# High freq. dielectric constant tensor:
#      x y z
#    x 1.833850 0.000000 0.000000 
#    y 0.000000 1.833850 0.000000 
#    z 0.000000 0.000000 1.836490 
# 
# From -- ./inp_files/5473.got.cif
#   From: 2010.03.12/outbox.cif.g09.slc.cpg/sg135_3_cif.got.tgz:5473.got - 2010.04.06 18:31:24.
