data_PCOD8317081
_publ_section_title
;
Structure prediction by ZEFSAII (Michael W. Deem and Ramdas Pophale) SiO2 
 PCOD8317081
Probable space group: P 42/N N M
;
_chemical_formula_sum "Si O2"
_cell_formula_units_Z 88
_cell_length_a 18.228099
_cell_length_b 18.228099
_cell_length_c 13.944615
_cell_angle_alpha 90.000000
_cell_angle_beta 90.000000
_cell_angle_gamma 90.000000
_cell_volume 4633.287885
_symmetry_space_group_name_H-M "P 42/N N M"
_symmetry_group_IT_number 134
_space_group.IT_coordinate_system_code '2'
_symmetry_cell_setting 'tetragonal'
loop_
_space_group_symop_operation_xyz
x,y,z
1/2-y,x,1/2+z
1/2-x,1/2-y,z
y,1/2-x,1/2+z
x,1/2-y,1/2-z
1/2-x,y,1/2-z
y,x,-z
1/2-y,1/2-x,-z
-x,-y,-z
1/2+y,-x,1/2-z
1/2+x,1/2+y,-z
-y,1/2+x,1/2-z
-x,1/2+y,1/2+z
1/2+x,-y,1/2+z
-y,-x,z
1/2+y,1/2+x,z
loop_
_atom_site_type_symbol
_atom_site_label
_atom_site_fract_x
_atom_site_fract_y
_atom_site_fract_z
Si Si1 0.605611 0.992035 0.739677
Si Si2 0.368528 0.513045 0.791205
Si Si3 0.498062 0.385978 0.534392
Si Si4 0.188000 0.193365 0.386364
Si Si5 0.750000 0.927562 0.750000
Si Si6 0.523135 0.774209 0.883546
O O1 0.555052 0.923658 0.712956
O O2 0.687439 0.977993 0.698263
O O3 0.566843 0.066843 0.700241
O O4 0.616425 0.000816 0.852683
O O5 0.411868 0.588133 0.810501
O O6 0.324505 0.520478 0.692078
O O7 0.310699 0.501200 0.877863
O O8 0.421752 0.421752 0.500000
O O9 0.565862 0.434139 0.493691
O O10 0.497918 0.304484 0.488828
O O11 0.250000 0.250000 0.353044
O O12 0.185166 0.185166 0.500000
O O13 0.208164 0.117666 0.333155
O O14 0.108832 0.222164 0.353899
#
# Coordination Sequence:
#
# PCOD8317081 Si02
#       6
#    16  16  16  16   8  16
#     4  10  20  33  53  81 107 141 187 233 285 341
#     4  10  20  32  48  76 109 145 184 225 276 343
#     4  10  17  30  54  80 106 133 181 239 281 326
#     4  11  23  33  49  82 116 148 185 226 290 360
#     4  12  19  34  58  77 118 146 180 236 292 345
#     4  11  19  32  52  76 107 146 184 230 284 341
#
# _framework density 18.992992999999998
#
# number of rings (size 3 to 8) (size 9 to 14) (size 15 to 20)
#    0.000    1.455    3.636    3.545    2.545    0.000 
#    0.000    0.000    0.000   13.909    0.000   15.273 
#    0.000    0.000    0.000    0.000    0.000    0.000 
#
# Total GULP energy -1090807.190066 kJ/mol
# GULP energy per Si atom -12395.536251 kJ/mol
# Density = 1.894976 g / cm^3
# Si number density = 18.992993 Si / 1000 Ang^3
#
#
#
# Elastic Constant Matrix: (Units=GPa)
#
#
# Indices 1 2 3 4 5 6 
#
# 1 123.9635 85.7868 19.9579 0.0000 0.0000 0.0000
# 2 85.7868 123.9635 19.9579 0.0000 0.0000 0.0000
# 3 19.9579 19.9579 44.2444 0.0000 0.0000 0.0000
# 4 0.0000 0.0000 0.0000 35.8051 0.0000 0.0000
# 5 0.0000 0.0000 0.0000 0.0000 35.8051 0.0000
# 6 0.0000 0.0000 0.0000 0.0000 0.0000 37.5573
#
#
#
# Elastic Compliance Matrix: (Units=1/GPa)
#
#
# Indices 1 2 3 4 5 6 
#
# 1 0.015705 -0.010489 -0.002353 0.000000 0.000000 0.000000
# 2 -0.010489 0.015705 -0.002353 0.000000 0.000000 0.000000
# 3 -0.002353 -0.002353 0.024724 0.000000 0.000000 0.000000
# 4 0.000000 0.000000 0.000000 0.027929 0.000000 0.000000
# 5 0.000000 0.000000 0.000000 0.000000 0.027929 0.000000
# 6 0.000000 0.000000 0.000000 0.000000 0.000000 0.026626
#
#
# Mechanical properties :
#
#
# Convention : Reuss Voigt Hill
#
# Bulk Modulus (GPa) = 38.84316 60.39740 49.62028
# Shear Modulus (GPa) = 28.15510 32.93139 30.54325
#
# Velocity S-wave (km/s) = 3.85436 4.16849 4.01450
# Velocity P-wave (km/s) = 6.34853 7.41871 6.90439
#
# Compressibility (1/GPa) = 0.02574456
#
# Stress axis : x y z
#
# Youngs Moduli (GPa) = 63.67552 63.67552 40.44631
#
# Poissons Ratio (x) = 0.66792 0.09515
# Poissons Ratio (y) = 0.66792 0.09515
# Poissons Ratio (z) = 0.14980 0.14980
#
# Static dielectric constant tensor:
#      x y z
#    x 3.793940 0.000000 0.000000 
#    y 0.000000 3.793940 0.000000 
#    z 0.000000 0.000000 3.204490 
# 
# 
# High freq. dielectric constant tensor:
#      x y z
#    x 1.731190 0.000000 0.000000 
#    y 0.000000 1.731190 0.000000 
#    z 0.000000 0.000000 1.717110 
# 
# From -- ./inp_files/6504.got.cif
#   From: 2010.03.12/outbox.cif.g09.slc.cpg/sg134_4_cif.got.tgz:6504.got - 2010.04.06 18:17:22.
