data_PCOD8317683
_publ_section_title
;
Structure prediction by ZEFSAII (Michael W. Deem and Ramdas Pophale) SiO2 
 PCOD8317683
Probable space group: P 42/M N M
;
_chemical_formula_sum "Si O2"
_cell_formula_units_Z 96
_cell_length_a 25.121293
_cell_length_b 25.121293
_cell_length_c 9.007041
_cell_angle_alpha 90.000000
_cell_angle_beta 90.000000
_cell_angle_gamma 90.000000
_cell_volume 5684.157688
_symmetry_space_group_name_H-M "P 42/M N M"
_symmetry_group_IT_number 136
_symmetry_cell_setting 'tetragonal'
loop_
_space_group_symop_operation_xyz
x,y,z
1/2-y,1/2+x,1/2+z
-x,-y,z
1/2+y,1/2-x,1/2+z
1/2+x,1/2-y,1/2-z
1/2-x,1/2+y,1/2-z
y,x,-z
-y,-x,-z
-x,-y,-z
1/2+y,1/2-x,1/2-z
x,y,-z
1/2-y,1/2+x,1/2-z
1/2-x,1/2+y,1/2+z
1/2+x,1/2-y,1/2+z
-y,-x,z
y,x,z
loop_
_atom_site_type_symbol
_atom_site_label
_atom_site_fract_x
_atom_site_fract_y
_atom_site_fract_z
Si Si1 0.424803 0.424803 0.323065
Si Si2 0.084003 0.626837 0.326610
Si Si3 0.469459 0.616686 0.826305
Si Si4 0.265880 0.515502 0.824086
Si Si5 0.656030 0.656030 0.824995
Si Si6 0.150791 0.537135 0.173652
Si Si7 0.599861 0.758547 0.824879
O O1 0.424939 0.424939 0.500000
O O2 0.409932 0.483216 0.265439
O O3 0.382419 0.382419 0.264729
O O4 0.092787 0.618954 0.500000
O O5 0.110781 0.577631 0.247801
O O6 0.111667 0.681703 0.267500
O O7 0.021761 0.630185 0.286720
O O8 0.415266 0.584735 0.795185
O O9 0.458770 0.677898 0.773219
O O10 0.485234 0.615061 0.000000
O O11 0.212066 0.545502 0.767853
O O12 0.264439 0.455431 0.760009
O O13 0.262988 0.514280 0.000000
O O14 0.646127 0.717422 0.780071
O O15 0.645957 0.645957 0.000000
O O16 0.148507 0.547221 0.000000
O O17 0.592902 0.762799 0.000000
#
# Coordination Sequence:
#
# PCOD8317683 Si02
#       7
#     8  16  16  16   8  16  16
#     4  12  23  31  42  69 108 136 152 192 258 306
#     4   9  18  32  49  73 100 125 158 196 235 287
#     4  10  19  32  52  72  89 122 174 214 235 276
#     4   8  14  28  49  71  91 115 157 204 238 271
#     4  10  16  29  55  74  88 121 170 212 242 273
#     4   9  18  32  51  72  98 129 156 192 242 290
#     4   8  14  26  49  73  90 114 155 204 240 270
#
# _framework density 16.889044999999999
#
# number of rings (size 3 to 8) (size 9 to 14) (size 15 to 20)
#    0.000    2.833    1.667    3.000    0.000    2.333 
#    0.000    3.333    1.833    0.000    0.000    0.000 
#    0.000    0.000    0.000    0.000    0.000    0.000 
#
# Total GULP energy -1189431.317062 kJ/mol
# GULP energy per Si atom -12389.909553 kJ/mol
# Density = 1.685060 g / cm^3
# Si number density = 16.889045 Si / 1000 Ang^3
#
#
#
# Elastic Constant Matrix: (Units=GPa)
#
#
# Indices 1 2 3 4 5 6 
#
# 1 172.9380 45.9424 41.8281 0.0000 0.0000 0.0000
# 2 45.9424 172.9380 41.8281 0.0000 0.0000 0.0000
# 3 41.8281 41.8281 39.0294 0.0000 0.0000 0.0000
# 4 0.0000 0.0000 0.0000 12.4169 0.0000 0.0000
# 5 0.0000 0.0000 0.0000 0.0000 12.4169 0.0000
# 6 0.0000 0.0000 0.0000 0.0000 0.0000 22.3873
#
#
#
# Elastic Compliance Matrix: (Units=1/GPa)
#
#
# Indices 1 2 3 4 5 6 
#
# 1 0.007806 -0.000068 -0.008293 0.000000 0.000000 0.000000
# 2 -0.000068 0.007806 -0.008293 0.000000 0.000000 0.000000
# 3 -0.008293 -0.008293 0.043398 0.000000 0.000000 0.000000
# 4 0.000000 0.000000 0.000000 0.080535 0.000000 0.000000
# 5 0.000000 0.000000 0.000000 0.000000 0.080535 0.000000
# 6 0.000000 0.000000 0.000000 0.000000 0.000000 0.044668
#
#
# Mechanical properties :
#
#
# Convention : Reuss Voigt Hill
#
# Bulk Modulus (GPa) = 38.90856 71.56699 55.23777
# Shear Modulus (GPa) = 16.30655 26.46468 21.38562
#
# Velocity S-wave (km/s) = 3.11064 3.96280 3.56229
# Velocity P-wave (km/s) = 5.99910 7.96273 7.04962
#
# Compressibility (1/GPa) = 0.02570128
#
# Stress axis : x y z
#
# Youngs Moduli (GPa) = 128.10076 128.10076 23.04267
#
# Poissons Ratio (x) = 0.00870 0.19110
# Poissons Ratio (y) = 0.00870 0.19110
# Poissons Ratio (z) = 1.06238 1.06238
#
# Static dielectric constant tensor:
#      x y z
#    x 3.383240 0.000000 0.000000 
#    y 0.000000 3.383240 0.000000 
#    z 0.000000 0.000000 2.803020 
# 
# 
# High freq. dielectric constant tensor:
#      x y z
#    x 1.648690 0.000000 0.000000 
#    y 0.000000 1.648690 0.000000 
#    z 0.000000 0.000000 1.612520 
# 
# From -- ./inp_files/2073.got.cif
#   From: 2010.03.12/outbox.cif.g09.slc.cpg/sg136_2_cif.got.tgz:2073.got - 2010.04.06 18:39:43.
