data_PCOD8317039
_publ_section_title
;
Structure prediction by ZEFSAII (Michael W. Deem and Ramdas Pophale) SiO2 
 PCOD8317039
Probable space group: P 42/N B C
;
_chemical_formula_sum "Si O2"
_cell_formula_units_Z 112
_cell_length_a 14.427966
_cell_length_b 14.427966
_cell_length_c 25.232289
_cell_angle_alpha 90.000000
_cell_angle_beta 90.000000
_cell_angle_gamma 90.000000
_cell_volume 5252.509792
_symmetry_space_group_name_H-M "P 42/N B C"
_symmetry_group_IT_number 133
_space_group.IT_coordinate_system_code '2'
_symmetry_cell_setting 'tetragonal'
loop_
_space_group_symop_operation_xyz
x,y,z
1/2-y,x,1/2+z
1/2-x,1/2-y,z
y,1/2-x,1/2+z
x,1/2-y,-z
1/2-x,y,-z
y,x,1/2-z
1/2-y,1/2-x,1/2-z
-x,-y,-z
1/2+y,-x,1/2-z
1/2+x,1/2+y,-z
-y,1/2+x,1/2-z
-x,1/2+y,z
1/2+x,-y,z
-y,-x,1/2+z
1/2+y,1/2+x,1/2+z
loop_
_atom_site_type_symbol
_atom_site_label
_atom_site_fract_x
_atom_site_fract_y
_atom_site_fract_z
Si Si1 0.498221 0.924705 0.393927
Si Si2 0.208662 0.968042 0.621842
Si Si3 0.098569 0.600297 0.094032
Si Si4 0.723778 0.399619 0.259398
Si Si5 0.471755 0.353367 0.506535
Si Si6 0.168102 0.322271 0.094899
Si Si7 0.509083 0.763356 0.658450
O O1 0.390125 0.946067 0.404523
O O2 0.547219 0.895323 0.448938
O O3 0.510268 0.846647 0.349774
O O4 0.552979 0.014796 0.372208
O O5 0.288723 0.909786 0.591933
O O6 0.206402 0.940370 0.683009
O O7 0.231902 0.076634 0.614150
O O8 0.091087 0.554603 0.035619
O O9 0.195427 0.572874 0.121402
O O10 0.825026 0.354339 0.255481
O O11 0.715478 0.486272 0.219393
O O12 0.509215 0.250000 0.500000
O O13 0.376916 0.353080 0.540458
O O14 0.250000 0.250000 0.084375
O O15 0.193788 0.392555 0.142332
#
# Coordination Sequence:
#
# PCOD8317039 Si02
#       7
#    16  16  16  16  16  16  16
#     4  12  23  45  68  97 142 182 230 287 340 414
#     4  12  25  42  72 105 131 185 234 280 357 415
#     4  11  24  43  64 100 141 174 225 288 342 406
#     4  11  23  41  70 102 134 179 227 281 356 423
#     4  11  23  45  68  94 136 186 225 279 347 401
#     4  11  25  48  69 100 143 183 230 285 346 429
#     4  11  22  45  69  97 140 176 225 295 336 408
#
# _framework density 21.323139999999999
#
# number of rings (size 3 to 8) (size 9 to 14) (size 15 to 20)
#    0.000    0.714    8.571    1.286    0.000    2.000 
#    0.000    5.714    0.000    0.000    0.000    0.000 
#    0.000    0.000    0.000    0.000    0.000    0.000 
#
# Total GULP energy -1389098.194260 kJ/mol
# GULP energy per Si atom -12402.662449 kJ/mol
# Density = 2.127461 g / cm^3
# Si number density = 21.323140 Si / 1000 Ang^3
#
#
#
# Elastic Constant Matrix: (Units=GPa)
#
#
# Indices 1 2 3 4 5 6 
#
# 1 94.7586 6.3359 20.9353 0.0000 0.0000 0.0000
# 2 6.3359 94.7586 20.9353 0.0000 0.0000 0.0000
# 3 20.9353 20.9353 99.4761 0.0000 0.0000 0.0000
# 4 0.0000 0.0000 0.0000 24.9651 0.0000 0.0000
# 5 0.0000 0.0000 0.0000 0.0000 24.9651 0.0000
# 6 0.0000 0.0000 0.0000 0.0000 0.0000 27.5903
#
#
#
# Elastic Compliance Matrix: (Units=1/GPa)
#
#
# Indices 1 2 3 4 5 6 
#
# 1 0.011073 -0.000237 -0.002281 0.000000 0.000000 0.000000
# 2 -0.000237 0.011073 -0.002281 0.000000 0.000000 0.000000
# 3 -0.002281 -0.002281 0.011013 0.000000 0.000000 0.000000
# 4 0.000000 0.000000 0.000000 0.040056 0.000000 0.000000
# 5 0.000000 0.000000 0.000000 0.000000 0.040056 0.000000
# 6 0.000000 0.000000 0.000000 0.000000 0.000000 0.036245
#
#
# Mechanical properties :
#
#
# Convention : Reuss Voigt Hill
#
# Bulk Modulus (GPa) = 42.43957 42.82292 42.63124
# Shear Modulus (GPa) = 29.94652 31.55654 30.75153
#
# Velocity S-wave (km/s) = 3.75162 3.85115 3.80171
# Velocity P-wave (km/s) = 6.22193 6.31677 6.26953
#
# Compressibility (1/GPa) = 0.02356292
#
# Stress axis : x y z
#
# Youngs Moduli (GPa) = 90.31138 90.31138 90.80530
#
# Poissons Ratio (x) = 0.02136 0.20709
# Poissons Ratio (y) = 0.02136 0.20709
# Poissons Ratio (z) = 0.20596 0.20596
#
# Static dielectric constant tensor:
#      x y z
#    x 3.998940 0.000000 0.000000 
#    y 0.000000 3.998940 0.000000 
#    z 0.000000 0.000000 3.728110 
# 
# 
# High freq. dielectric constant tensor:
#      x y z
#    x 1.842440 0.000000 0.000000 
#    y 0.000000 1.842440 0.000000 
#    z 0.000000 0.000000 1.818830 
# 
# From -- ./inp_files/7675.got.cif
#   From: 2010.03.12/outbox.cif.g09.slc.cpg/sg133_4_cif.got.tgz:7675.got - 2010.04.06 18:08:06.
