data_PCOD8317027
_publ_section_title
;
Structure prediction by ZEFSAII (Michael W. Deem and Ramdas Pophale) SiO2 
 PCOD8317027
Probable space group: P 42/N B C
;
_chemical_formula_sum "Si O2"
_cell_formula_units_Z 96
_cell_length_a 14.404092
_cell_length_b 14.404092
_cell_length_c 21.447292
_cell_angle_alpha 90.000000
_cell_angle_beta 90.000000
_cell_angle_gamma 90.000000
_cell_volume 4449.838383
_symmetry_space_group_name_H-M "P 42/N B C"
_symmetry_group_IT_number 133
_space_group.IT_coordinate_system_code '2'
_symmetry_cell_setting 'tetragonal'
loop_
_space_group_symop_operation_xyz
x,y,z
1/2-y,x,1/2+z
1/2-x,1/2-y,z
y,1/2-x,1/2+z
x,1/2-y,-z
1/2-x,y,-z
y,x,1/2-z
1/2-y,1/2-x,1/2-z
-x,-y,-z
1/2+y,-x,1/2-z
1/2+x,1/2+y,-z
-y,1/2+x,1/2-z
-x,1/2+y,z
1/2+x,-y,z
-y,-x,1/2+z
1/2+y,1/2+x,1/2+z
loop_
_atom_site_type_symbol
_atom_site_label
_atom_site_fract_x
_atom_site_fract_y
_atom_site_fract_z
Si Si1 0.141661 0.038465 0.991711
Si Si2 0.670041 0.818853 0.617123
Si Si3 0.758954 0.004580 0.334995
Si Si4 0.975796 0.461839 0.184677
Si Si5 0.197172 0.073166 0.214811
Si Si6 0.982659 0.414854 0.919116
O O1 0.134811 0.120738 0.941670
O O2 0.091566 0.940730 0.973121
O O3 0.250000 0.015263 0.000000
O O4 0.087999 0.078947 0.052864
O O5 0.750000 0.750000 0.593086
O O6 0.721584 0.896548 0.656325
O O7 0.593808 0.775232 0.663942
O O8 0.720865 0.009130 0.264245
O O9 0.857986 0.057974 0.334341
O O10 0.686028 0.039371 0.387692
O O11 0.891534 0.533404 0.179214
O O12 0.032065 0.467936 0.250000
O O13 0.040696 0.503645 0.130679
O O14 0.168323 0.168323 0.250000
#
# Coordination Sequence:
#
# PCOD8317027 Si02
#       6
#    16  16  16  16  16  16
#     4  11  25  44  67  94 141 187 226 281 346 403
#     4  12  22  37  66 105 134 165 225 288 349 402
#     4  12  23  37  68 100 131 179 227 277 343 417
#     4  11  21  42  65  98 135 181 213 282 358 408
#     4  11  21  36  62  97 146 167 213 280 355 410
#     4  11  24  46  64  99 137 180 227 285 337 410
#
# _framework density 21.573816999999998
#
# number of rings (size 3 to 8) (size 9 to 14) (size 15 to 20)
#    0.000    0.667    6.667    3.500    0.000    2.333 
#    0.000    0.000    0.000   11.500    0.000    0.000 
#    0.000    0.000    0.000    0.000    0.000    0.000 
#
# Total GULP energy -1189580.125731 kJ/mol
# GULP energy per Si atom -12391.459643 kJ/mol
# Density = 2.152471 g / cm^3
# Si number density = 21.573817 Si / 1000 Ang^3
#
#
#
# Elastic Constant Matrix: (Units=GPa)
#
#
# Indices 1 2 3 4 5 6 
#
# 1 76.4879 13.2224 30.0643 0.0000 0.0000 0.0000
# 2 13.2224 76.4879 30.0643 0.0000 0.0000 0.0000
# 3 30.0643 30.0643 104.5878 0.0000 0.0000 0.0000
# 4 0.0000 0.0000 0.0000 31.4644 0.0000 0.0000
# 5 0.0000 0.0000 0.0000 0.0000 31.4643 0.0000
# 6 0.0000 0.0000 0.0000 0.0000 0.0000 29.0123
#
#
#
# Elastic Compliance Matrix: (Units=1/GPa)
#
#
# Indices 1 2 3 4 5 6 
#
# 1 0.014807 -0.001000 -0.003969 0.000000 0.000000 0.000000
# 2 -0.001000 0.014807 -0.003969 0.000000 0.000000 0.000000
# 3 -0.003969 -0.003969 0.011843 0.000000 0.000000 0.000000
# 4 0.000000 0.000000 0.000000 0.031782 0.000000 0.000000
# 5 0.000000 0.000000 0.000000 0.000000 0.031782 0.000000
# 6 0.000000 0.000000 0.000000 0.000000 0.000000 0.034468
#
#
# Mechanical properties :
#
#
# Convention : Reuss Voigt Hill
#
# Bulk Modulus (GPa) = 42.40572 44.91839 43.66206
# Shear Modulus (GPa) = 30.26186 30.66903 30.46545
#
# Velocity S-wave (km/s) = 3.74934 3.77448 3.76193
# Velocity P-wave (km/s) = 6.20018 6.31361 6.25715
#
# Compressibility (1/GPa) = 0.02358172
#
# Stress axis : x y z
#
# Youngs Moduli (GPa) = 67.53651 67.53660 84.43715
#
# Poissons Ratio (x) = 0.06751 0.33513
# Poissons Ratio (y) = 0.06751 0.33513
# Poissons Ratio (z) = 0.26805 0.26805
#
# Static dielectric constant tensor:
#      x y z
#    x 3.689590 0.000000 0.000000 
#    y 0.000000 3.691140 0.000000 
#    z 0.000000 0.000000 4.115330 
# 
# 
# High freq. dielectric constant tensor:
#      x y z
#    x 1.828930 0.000000 0.000000 
#    y 0.000000 1.828930 0.000000 
#    z 0.000000 0.000000 1.866220 
# 
# From -- ./inp_files/6526.got.cif
#   From: 2010.03.12/outbox.cif.g09.slc.cpg/sg133_4_cif.got.tgz:6526.got - 2010.04.06 18:08:06.
