data_PCOD8317354
_publ_section_title
;
Structure prediction by ZEFSAII (Michael W. Deem and Ramdas Pophale) SiO2 
 PCOD8317354
Probable space group: P 42/M B C
;
_chemical_formula_sum "Si O2"
_cell_formula_units_Z 104
_cell_length_a 22.698994
_cell_length_b 22.698994
_cell_length_c 13.831259
_cell_angle_alpha 90.000000
_cell_angle_beta 90.000000
_cell_angle_gamma 90.000000
_cell_volume 7126.477757
_symmetry_space_group_name_H-M "P 42/M B C"
_symmetry_group_IT_number 135
_symmetry_cell_setting 'tetragonal'
loop_
_space_group_symop_operation_xyz
x,y,z
-y,x,1/2+z
-x,-y,z
y,-x,1/2+z
1/2+x,1/2-y,-z
1/2-x,1/2+y,-z
1/2+y,1/2+x,1/2-z
1/2-y,1/2-x,1/2-z
-x,-y,-z
y,-x,1/2-z
x,y,-z
-y,x,1/2-z
1/2-x,1/2+y,z
1/2+x,1/2-y,z
1/2-y,1/2-x,1/2+z
1/2+y,1/2+x,1/2+z
loop_
_atom_site_type_symbol
_atom_site_label
_atom_site_fract_x
_atom_site_fract_y
_atom_site_fract_z
Si Si1 0.335783 0.164218 0.250000
Si Si2 0.316988 0.496309 0.887105
Si Si3 0.910474 0.278776 0.607646
Si Si4 0.695910 0.687088 0.606621
Si Si5 0.201995 0.761750 0.889769
Si Si6 0.336854 0.377011 0.205716
Si Si7 0.581731 0.456856 0.765093
O O1 0.331217 0.104556 0.184543
O O2 0.279045 0.163436 0.319742
O O3 0.258479 0.532842 0.861288
O O4 0.307031 0.437418 0.826553
O O5 0.377758 0.529585 0.858179
O O6 0.322021 0.483078 0.000000
O O7 0.918670 0.305645 0.500000
O O8 0.856397 0.233994 0.609194
O O9 0.699614 0.657329 0.500000
O O10 0.753601 0.727373 0.628711
O O11 0.686333 0.636691 0.685955
O O12 0.183714 0.828410 0.869974
O O13 0.186796 0.745163 0.000000
O O14 0.408105 0.383764 0.201402
O O15 0.517629 0.429459 0.795319
#
# Coordination Sequence:
#
# PCOD8317354 Si02
#       7
#     8  16  16  16  16  16  16
#     4  10  14  26  44  58  76 102 131 171 198 238
#     4  10  19  29  42  58  80 109 138 174 214 255
#     4   9  16  27  42  61  77 101 137 163 201 254
#     4   9  16  27  44  59  75 103 136 164 200 257
#     4  10  17  25  39  62  82  99 127 166 212 255
#     4  11  17  28  42  60  81 105 136 178 215 241
#     4   9  18  30  41  52  72 106 149 184 212 241
#
# _framework density 14.593465
#
# number of rings (size 3 to 8) (size 9 to 14) (size 15 to 20)
#    0.000    2.308    4.615    1.846    0.000    0.000 
#    0.000    6.923    0.000   10.154    0.000    0.000 
#    0.000    0.000    0.000    2.769    0.000   28.308 
#
# Total GULP energy -1288541.555290 kJ/mol
# GULP energy per Si atom -12389.822647 kJ/mol
# Density = 1.456025 g / cm^3
# Si number density = 14.593465 Si / 1000 Ang^3
#
#
#
# Elastic Constant Matrix: (Units=GPa)
#
#
# Indices 1 2 3 4 5 6 
#
# 1 40.7788 19.1153 11.8755 0.0000 0.0000 0.0000
# 2 19.1153 40.7790 11.8754 0.0000 0.0000 0.0000
# 3 11.8755 11.8754 63.8743 0.0000 0.0000 0.0000
# 4 0.0000 0.0000 0.0000 20.4576 0.0000 0.0000
# 5 0.0000 0.0000 0.0000 0.0000 20.4577 0.0000
# 6 0.0000 0.0000 0.0000 0.0000 0.0000 23.1394
#
#
#
# Elastic Compliance Matrix: (Units=1/GPa)
#
#
# Indices 1 2 3 4 5 6 
#
# 1 0.032093 -0.014068 -0.003351 0.000000 0.000000 0.000000
# 2 -0.014068 0.032093 -0.003351 0.000000 0.000000 0.000000
# 3 -0.003351 -0.003351 0.016902 0.000000 0.000000 0.000000
# 4 0.000000 0.000000 0.000000 0.048882 0.000000 0.000000
# 5 0.000000 0.000000 0.000000 0.000000 0.048881 0.000000
# 6 0.000000 0.000000 0.000000 0.000000 0.000000 0.043216
#
#
# Mechanical properties :
#
#
# Convention : Reuss Voigt Hill
#
# Bulk Modulus (GPa) = 25.28629 25.68493 25.48561
# Shear Modulus (GPa) = 18.06430 19.64867 18.85648
#
# Velocity S-wave (km/s) = 3.52210 3.67332 3.59850
# Velocity P-wave (km/s) = 5.82280 5.96905 5.89638
#
# Compressibility (1/GPa) = 0.03954712
#
# Stress axis : x y z
#
# Youngs Moduli (GPa) = 31.15965 31.15980 59.16510
#
# Poissons Ratio (x) = 0.43835 0.19828
# Poissons Ratio (y) = 0.43834 0.19827
# Poissons Ratio (z) = 0.10442 0.10442
#
# Static dielectric constant tensor:
#      x y z
#    x 2.854340 0.000000 0.000000 
#    y 0.000000 2.854340 0.000000 
#    z 0.000000 0.000000 3.132360 
# 
# 
# High freq. dielectric constant tensor:
#      x y z
#    x 1.531320 0.000000 0.000000 
#    y 0.000000 1.531320 0.000000 
#    z 0.000000 0.000000 1.563980 
# 
# From -- ./inp_files/3753.got.cif
#   From: 2010.03.12/outbox.cif.g09.slc.cpg/sg135_2_cif.got.tgz:3753.got - 2010.04.06 18:31:24.
