data_PCOD8317642
_publ_section_title
;
Structure prediction by ZEFSAII (Michael W. Deem and Ramdas Pophale) SiO2 
 PCOD8317642
Probable space group: P 42/M B C
;
_chemical_formula_sum "Si O2"
_cell_formula_units_Z 112
_cell_length_a 14.868727
_cell_length_b 14.868727
_cell_length_c 27.194602
_cell_angle_alpha 90.000000
_cell_angle_beta 90.000000
_cell_angle_gamma 90.000000
_cell_volume 6012.156574
_symmetry_space_group_name_H-M "P 42/M B C"
_symmetry_group_IT_number 135
_symmetry_cell_setting 'tetragonal'
loop_
_space_group_symop_operation_xyz
x,y,z
-y,x,1/2+z
-x,-y,z
y,-x,1/2+z
1/2+x,1/2-y,-z
1/2-x,1/2+y,-z
1/2+y,1/2+x,1/2-z
1/2-y,1/2-x,1/2-z
-x,-y,-z
y,-x,1/2-z
x,y,-z
-y,x,1/2-z
1/2-x,1/2+y,z
1/2+x,1/2-y,z
1/2-y,1/2-x,1/2+z
1/2+y,1/2+x,1/2+z
loop_
_atom_site_type_symbol
_atom_site_label
_atom_site_fract_x
_atom_site_fract_y
_atom_site_fract_z
Si Si1 0.022977 0.146363 0.304889
Si Si2 0.354164 0.483007 0.694426
Si Si3 0.067836 0.418460 0.943765
Si Si4 0.360211 0.339165 0.942696
Si Si5 0.245834 0.487206 0.899203
Si Si6 0.230956 0.179647 0.942059
Si Si7 0.232515 0.961650 0.596842
O O1 0.025388 0.185130 0.249466
O O2 0.021322 0.231206 0.341456
O O3 0.935343 0.086111 0.313114
O O4 0.110625 0.084677 0.314593
O O5 0.275353 0.456950 0.656167
O O6 0.152813 0.437045 0.909559
O O7 0.016454 0.333406 0.920610
O O8 0.000000 0.500000 0.942853
O O9 0.099068 0.398609 0.000000
O O10 0.324031 0.438220 0.930005
O O11 0.292676 0.261767 0.922829
O O12 0.458318 0.332419 0.919454
O O13 0.370758 0.328050 0.000000
O O14 0.236308 0.590076 0.915041
O O15 0.128716 0.199811 0.928900
O O16 0.241478 0.165074 0.000000
#
# Coordination Sequence:
#
# PCOD8317642 Si02
#       7
#    16  16  16  16  16  16  16
#     4   9  18  35  58  86 118 151 189 237 300 366
#     4   9  18  35  58  86 118 151 189 237 300 366
#     4  11  24  42  61  83 119 172 211 226 276 367
#     4  11  23  37  55  84 121 157 194 242 296 354
#     4  12  21  37  61  86 118 152 198 250 294 350
#     4  11  23  37  55  84 121 157 194 242 296 354
#     4  12  21  37  61  86 118 152 198 250 294 350
#
# _framework density 18.628921999999999
#
# number of rings (size 3 to 8) (size 9 to 14) (size 15 to 20)
#    0.000    1.286    4.286    4.286    0.000    2.857 
#    0.000    2.143    0.000    6.000    0.000    0.000 
#    0.000    0.000    0.000    0.000    0.000    0.000 
#
# Total GULP energy -1389083.431268 kJ/mol
# GULP energy per Si atom -12402.530636 kJ/mol
# Density = 1.858652 g / cm^3
# Si number density = 18.628922 Si / 1000 Ang^3
#
#
#
# Elastic Constant Matrix: (Units=GPa)
#
#
# Indices 1 2 3 4 5 6 
#
# 1 58.3050 -12.7577 27.2268 0.0000 0.0000 0.0000
# 2 -12.7577 58.3050 27.2268 0.0000 0.0000 0.0000
# 3 27.2268 27.2268 123.4796 0.0000 0.0000 0.0000
# 4 0.0000 0.0000 0.0000 24.9677 0.0000 0.0000
# 5 0.0000 0.0000 0.0000 0.0000 24.9677 0.0000
# 6 0.0000 0.0000 0.0000 0.0000 0.0000 20.6170
#
#
#
# Elastic Compliance Matrix: (Units=1/GPa)
#
#
# Indices 1 2 3 4 5 6 
#
# 1 0.021943 0.007871 -0.006574 0.000000 0.000000 0.000000
# 2 0.007871 0.021943 -0.006574 0.000000 0.000000 0.000000
# 3 -0.006574 -0.006574 0.010998 0.000000 0.000000 0.000000
# 4 0.000000 0.000000 0.000000 0.040052 0.000000 0.000000
# 5 0.000000 0.000000 0.000000 0.000000 0.040052 0.000000
# 6 0.000000 0.000000 0.000000 0.000000 0.000000 0.048504
#
#
# Mechanical properties :
#
#
# Convention : Reuss Voigt Hill
#
# Bulk Modulus (GPa) = 22.55765 35.94240 29.25002
# Shear Modulus (GPa) = 23.94380 27.33669 25.64025
#
# Velocity S-wave (km/s) = 3.58900 3.83486 3.71397
# Velocity P-wave (km/s) = 5.41385 6.24051 5.84182
#
# Compressibility (1/GPa) = 0.04433086
#
# Stress axis : x y z
#
# Youngs Moduli (GPa) = 45.57180 45.57180 90.92880
#
# Poissons Ratio (x) = -0.35871 0.59777
# Poissons Ratio (y) = -0.35871 0.59777
# Poissons Ratio (z) = 0.29959 0.29959
#
# Static dielectric constant tensor:
#      x y z
#    x 3.490790 0.000000 0.000000 
#    y 0.000000 3.490790 0.000000 
#    z 0.000000 0.000000 3.551930 
# 
# 
# High freq. dielectric constant tensor:
#      x y z
#    x 1.717640 0.000000 0.000000 
#    y 0.000000 1.717640 0.000000 
#    z 0.000000 0.000000 1.722570 
# 
# From -- ./inp_files/6161.got.cif
#   From: 2010.03.12/outbox.cif.g09.slc.cpg/sg135_4_cif.got.tgz:6161.got - 2010.04.06 18:31:24.
