data_PCOD8317530
_publ_section_title
;
Structure prediction by ZEFSAII (Michael W. Deem and Ramdas Pophale) SiO2 
 PCOD8317530
Probable space group: P 42/M B C
;
_chemical_formula_sum "Si O2"
_cell_formula_units_Z 120
_cell_length_a 20.500942
_cell_length_b 20.500942
_cell_length_c 14.128450
_cell_angle_alpha 90.000000
_cell_angle_beta 90.000000
_cell_angle_gamma 90.000000
_cell_volume 5938.026794
_symmetry_space_group_name_H-M "P 42/M B C"
_symmetry_group_IT_number 135
_symmetry_cell_setting 'tetragonal'
loop_
_space_group_symop_operation_xyz
x,y,z
-y,x,1/2+z
-x,-y,z
y,-x,1/2+z
1/2+x,1/2-y,-z
1/2-x,1/2+y,-z
1/2+y,1/2+x,1/2-z
1/2-y,1/2-x,1/2-z
-x,-y,-z
y,-x,1/2-z
x,y,-z
-y,x,1/2-z
1/2-x,1/2+y,z
1/2+x,1/2-y,z
1/2-y,1/2-x,1/2+z
1/2+y,1/2+x,1/2+z
loop_
_atom_site_type_symbol
_atom_site_label
_atom_site_fract_x
_atom_site_fract_y
_atom_site_fract_z
Si Si1 0.567790 0.536481 0.605092
Si Si2 0.917982 0.611041 0.612792
Si Si3 0.859460 0.998802 0.783099
Si Si4 0.724565 0.775436 0.750000
Si Si5 0.418951 0.252473 0.788205
Si Si6 0.013851 0.621206 0.773676
Si Si7 0.361356 0.371064 0.104822
Si Si8 0.817800 0.720768 0.603986
O O1 0.500000 0.500000 0.600335
O O2 0.598819 0.543263 0.500000
O O3 0.554869 0.606812 0.650397
O O4 0.615021 0.495437 0.673984
O O5 0.933049 0.612348 0.500000
O O6 0.902807 0.537739 0.647651
O O7 0.857395 0.657742 0.640370
O O8 0.979512 0.637768 0.672973
O O9 0.873165 0.071111 0.821058
O O10 0.785037 0.973796 0.779845
O O11 0.648249 0.763316 0.735755
O O12 0.753261 0.736546 0.661551
O O13 0.450680 0.184145 0.820647
O O14 0.398598 0.303527 0.870674
O O15 0.065268 0.565268 0.750000
O O16 0.283713 0.363969 0.104736
O O17 0.385778 0.392405 0.000000
O O18 0.792045 0.704826 0.500000
#
# Coordination Sequence:
#
# PCOD8317530 Si02
#       8
#    16  16  16   8  16  16  16  16
#     4  11  21  36  56  83 122 160 200 251 303 362
#     4  10  21  40  65  95 126 159 204 259 312 370
#     4  12  20  38  58  89 121 163 209 254 309 372
#     4  10  20  40  62  85 123 168 196 262 320 366
#     4  11  23  39  64  87 125 164 211 257 316 379
#     4  11  23  40  62  92 125 162 206 252 313 382
#     4  10  21  38  63  90 123 166 211 255 310 380
#     4   9  19  37  63  91 118 156 206 252 311 371
#
# _framework density 20.208734
#
# number of rings (size 3 to 8) (size 9 to 14) (size 15 to 20)
#    0.000    1.467    3.333    2.800    0.000    4.267 
#    0.000    2.667    0.000    0.000    0.000    0.000 
#    0.000    0.000    0.000    0.000    0.000    0.000 
#
# Total GULP energy -1486898.707313 kJ/mol
# GULP energy per Si atom -12390.822561 kJ/mol
# Density = 2.016274 g / cm^3
# Si number density = 20.208734 Si / 1000 Ang^3
#
#
#
# Elastic Constant Matrix: (Units=GPa)
#
#
# Indices 1 2 3 4 5 6 
#
# 1 108.9130 39.5641 38.5757 0.0000 0.0000 0.0000
# 2 39.5641 108.9137 38.5757 0.0000 0.0000 0.0000
# 3 38.5757 38.5757 128.5322 0.0000 0.0000 0.0000
# 4 0.0000 0.0000 0.0000 19.1052 0.0000 0.0000
# 5 0.0000 0.0000 0.0000 0.0000 19.1050 0.0000
# 6 0.0000 0.0000 0.0000 0.0000 0.0000 40.0184
#
#
#
# Elastic Compliance Matrix: (Units=1/GPa)
#
#
# Indices 1 2 3 4 5 6 
#
# 1 0.011200 -0.003220 -0.002395 0.000000 0.000000 0.000000
# 2 -0.003220 0.011200 -0.002395 0.000000 0.000000 0.000000
# 3 -0.002395 -0.002395 0.009218 0.000000 0.000000 0.000000
# 4 0.000000 0.000000 0.000000 0.052342 0.000000 0.000000
# 5 0.000000 0.000000 0.000000 0.000000 0.052342 0.000000
# 6 0.000000 0.000000 0.000000 0.000000 0.000000 0.024989
#
#
# Mechanical properties :
#
#
# Convention : Reuss Voigt Hill
#
# Bulk Modulus (GPa) = 64.11409 64.42110 64.26760
# Shear Modulus (GPa) = 27.39607 30.95530 29.17568
#
# Velocity S-wave (km/s) = 3.68592 3.91804 3.80375
# Velocity P-wave (km/s) = 7.06466 7.23983 7.15278
#
# Compressibility (1/GPa) = 0.01559720
#
# Stress axis : x y z
#
# Youngs Moduli (GPa) = 89.28857 89.28927 108.48764
#
# Poissons Ratio (x) = 0.28753 0.25981
# Poissons Ratio (y) = 0.28753 0.25981
# Poissons Ratio (z) = 0.21383 0.21383
#
# Static dielectric constant tensor:
#      x y z
#    x 3.759070 0.000000 0.000000 
#    y 0.000000 3.759050 0.000000 
#    z 0.000000 0.000000 4.121960 
# 
# 
# High freq. dielectric constant tensor:
#      x y z
#    x 1.792870 0.000000 0.000000 
#    y 0.000000 1.792870 0.000000 
#    z 0.000000 0.000000 1.780000 
# 
# From -- ./inp_files/3721.got.cif
#   From: 2010.03.12/outbox.cif.g09.slc.cpg/sg135_2_cif.got.tgz:3721.got - 2010.04.06 18:31:24.
