data_PCOD8317282
_publ_section_title
;
Structure prediction by ZEFSAII (Michael W. Deem and Ramdas Pophale) SiO2 
 PCOD8317282
Probable space group: P 42/N N M
;
_chemical_formula_sum "Si O2"
_cell_formula_units_Z 56
_cell_length_a 16.900055
_cell_length_b 16.900055
_cell_length_c 9.183330
_cell_angle_alpha 90.000000
_cell_angle_beta 90.000000
_cell_angle_gamma 90.000000
_cell_volume 2622.867953
_symmetry_space_group_name_H-M "P 42/N N M"
_symmetry_group_IT_number 134
_space_group.IT_coordinate_system_code '2'
_symmetry_cell_setting 'tetragonal'
loop_
_space_group_symop_operation_xyz
x,y,z
1/2-y,x,1/2+z
1/2-x,1/2-y,z
y,1/2-x,1/2+z
x,1/2-y,1/2-z
1/2-x,y,1/2-z
y,x,-z
1/2-y,1/2-x,-z
-x,-y,-z
1/2+y,-x,1/2-z
1/2+x,1/2+y,-z
-y,1/2+x,1/2-z
-x,1/2+y,1/2+z
1/2+x,-y,1/2+z
-y,-x,z
1/2+y,1/2+x,z
loop_
_atom_site_type_symbol
_atom_site_label
_atom_site_fract_x
_atom_site_fract_y
_atom_site_fract_z
Si Si1 0.483701 0.744368 0.511613
Si Si2 0.630791 0.688430 0.141699
Si Si3 0.492835 0.124195 0.260822
Si Si4 0.874084 0.250000 0.750000
O O1 0.551506 0.767409 0.400228
O O2 0.467105 0.817974 0.620074
O O3 0.502316 0.665047 0.602877
O O4 0.415223 0.724008 0.399709
O O5 0.674518 0.750000 0.250000
O O6 0.612309 0.600299 0.203861
O O7 0.685100 0.685100 0.000000
O O8 0.540508 0.040508 0.261646
O O9 0.824025 0.175976 0.802679
#
# Coordination Sequence:
#
# PCOD8317282 Si02
#       4
#    16  16  16   8
#     4  10  21  41  62  93 134 158 211 276 315 381
#     4  10  22  43  65  92 127 166 215 270 328 380
#     4  10  22  41  68  94 124 175 219 261 322 389
#     4  11  22  36  60  92 129 170 204 256 333 392
#
# _framework density 21.350674999999999
#
# number of rings (size 3 to 8) (size 9 to 14) (size 15 to 20)
#    0.000    1.857    1.429    1.714    0.000    7.429 
#    0.000   22.857    0.000    6.857    0.000    0.000 
#    0.000    0.000    0.000    0.000    0.000    0.000 
#
# Total GULP energy -693759.987215 kJ/mol
# GULP energy per Si atom -12388.571200 kJ/mol
# Density = 2.130208 g / cm^3
# Si number density = 21.350675 Si / 1000 Ang^3
#
#
#
# Elastic Constant Matrix: (Units=GPa)
#
#
# Indices 1 2 3 4 5 6 
#
# 1 108.9910 51.7545 65.9933 0.0000 0.0000 0.0000
# 2 51.7545 108.9910 65.9933 0.0000 0.0000 0.0000
# 3 65.9933 65.9933 160.1900 0.0000 0.0000 0.0000
# 4 0.0000 0.0000 0.0000 48.8960 0.0000 0.0000
# 5 0.0000 0.0000 0.0000 0.0000 48.8960 0.0000
# 6 0.0000 0.0000 0.0000 0.0000 0.0000 54.8539
#
#
#
# Elastic Compliance Matrix: (Units=1/GPa)
#
#
# Indices 1 2 3 4 5 6 
#
# 1 0.013436 -0.004035 -0.003873 0.000000 0.000000 0.000000
# 2 -0.004035 0.013436 -0.003873 0.000000 0.000000 0.000000
# 3 -0.003873 -0.003873 0.009434 0.000000 0.000000 0.000000
# 4 0.000000 0.000000 0.000000 0.020452 0.000000 0.000000
# 5 0.000000 0.000000 0.000000 0.000000 0.020452 0.000000
# 6 0.000000 0.000000 0.000000 0.000000 0.000000 0.018230
#
#
# Mechanical properties :
#
#
# Convention : Reuss Voigt Hill
#
# Bulk Modulus (GPa) = 78.46841 82.85050 80.65946
# Shear Modulus (GPa) = 40.56813 43.49126 42.02969
#
# Velocity S-wave (km/s) = 4.36373 4.51821 4.44164
# Velocity P-wave (km/s) = 7.88806 8.13067 8.01028
#
# Compressibility (1/GPa) = 0.01274398
#
# Stress axis : x y z
#
# Youngs Moduli (GPa) = 74.42579 74.42579 106.00352
#
# Poissons Ratio (x) = 0.30032 0.41055
# Poissons Ratio (y) = 0.30032 0.41055
# Poissons Ratio (z) = 0.28825 0.28825
#
# Static dielectric constant tensor:
#      x y z
#    x 4.314330 0.000000 0.000000 
#    y 0.000000 4.314330 0.000000 
#    z 0.000000 0.000000 4.008280 
# 
# 
# High freq. dielectric constant tensor:
#      x y z
#    x 1.830160 0.000000 0.000000 
#    y 0.000000 1.830160 0.000000 
#    z 0.000000 0.000000 1.864130 
# 
# From -- ./inp_files/2355.got.cif
#   From: 2010.03.12/outbox.cif.g09.slc.cpg/sg134_2_cif.got.tgz:2355.got - 2010.04.06 18:17:22.
