data_PCOD8317640
_publ_section_title
;
Structure prediction by ZEFSAII (Michael W. Deem and Ramdas Pophale) SiO2 
 PCOD8317640
Probable space group: P 42/M B C
;
_chemical_formula_sum "Si O2"
_cell_formula_units_Z 112
_cell_length_a 14.431151
_cell_length_b 14.431151
_cell_length_c 24.972700
_cell_angle_alpha 90.000000
_cell_angle_beta 90.000000
_cell_angle_gamma 90.000000
_cell_volume 5200.767533
_symmetry_space_group_name_H-M "P 42/M B C"
_symmetry_group_IT_number 135
_symmetry_cell_setting 'tetragonal'
loop_
_space_group_symop_operation_xyz
x,y,z
-y,x,1/2+z
-x,-y,z
y,-x,1/2+z
1/2+x,1/2-y,-z
1/2-x,1/2+y,-z
1/2+y,1/2+x,1/2-z
1/2-y,1/2-x,1/2-z
-x,-y,-z
y,-x,1/2-z
x,y,-z
-y,x,1/2-z
1/2-x,1/2+y,z
1/2+x,1/2-y,z
1/2-y,1/2-x,1/2+z
1/2+y,1/2+x,1/2+z
loop_
_atom_site_type_symbol
_atom_site_label
_atom_site_fract_x
_atom_site_fract_y
_atom_site_fract_z
Si Si1 0.142294 0.958969 0.243922
Si Si2 0.851407 0.859181 0.940524
Si Si3 0.162354 0.271437 0.804514
Si Si4 0.280186 0.472808 0.874686
Si Si5 0.080989 0.435005 0.130316
Si Si6 0.796228 0.236518 0.101348
Si Si7 0.507305 0.783788 0.062955
O O1 0.199651 0.919957 0.294130
O O2 0.199288 0.965141 0.188634
O O3 0.057167 0.890240 0.233767
O O4 0.764684 0.787799 0.943931
O O5 0.941341 0.802039 0.921250
O O6 0.840546 0.946276 0.900929
O O7 0.866413 0.899147 0.000000
O O8 0.216418 0.283583 0.750000
O O9 0.114198 0.365312 0.823805
O O10 0.240944 0.233193 0.844754
O O11 0.171404 0.496435 0.884652
O O12 0.299580 0.374810 0.904229
O O13 0.000000 0.500000 0.153252
O O14 0.043747 0.379366 0.078503
O O15 0.900118 0.274982 0.098359
O O16 0.530129 0.784813 0.000000
#
# Coordination Sequence:
#
# PCOD8317640 Si02
#       7
#    16  16  16  16  16  16  16
#     4  11  25  42  69 100 135 186 230 286 353 427
#     4  11  24  44  71 100 137 183 235 296 357 430
#     4  11  22  45  65  98 143 178 234 286 353 420
#     4  11  24  45  67 103 139 181 238 288 356 424
#     4  11  24  43  71 100 141 185 233 296 347 431
#     4  11  23  43  70  97 144 182 230 297 352 427
#     4  11  25  44  70 104 141 185 238 298 364 426
#
# _framework density 21.535283
#
# number of rings (size 3 to 8) (size 9 to 14) (size 15 to 20)
#    0.000    1.000    5.714    2.143    2.000    4.000 
#    0.000    1.429    0.000    0.000    0.000    0.000 
#    0.000    0.000    0.000    0.000    0.000    0.000 
#
# Total GULP energy -1388560.516822 kJ/mol
# GULP energy per Si atom -12397.861757 kJ/mol
# Density = 2.148627 g / cm^3
# Si number density = 21.535283 Si / 1000 Ang^3
#
#
#
# Elastic Constant Matrix: (Units=GPa)
#
#
# Indices 1 2 3 4 5 6 
#
# 1 115.3541 37.7844 51.1396 0.0000 0.0000 0.0000
# 2 37.7844 115.3541 51.1397 0.0000 0.0000 0.0000
# 3 51.1396 51.1397 88.5852 0.0000 0.0000 0.0000
# 4 0.0000 0.0000 0.0000 34.5081 0.0000 0.0000
# 5 0.0000 0.0000 0.0000 0.0000 34.5080 0.0000
# 6 0.0000 0.0000 0.0000 0.0000 0.0000 36.8356
#
#
#
# Elastic Compliance Matrix: (Units=1/GPa)
#
#
# Indices 1 2 3 4 5 6 
#
# 1 0.011760 -0.001132 -0.006135 0.000000 0.000000 0.000000
# 2 -0.001132 0.011760 -0.006135 0.000000 0.000000 0.000000
# 3 -0.006135 -0.006135 0.018372 0.000000 0.000000 0.000000
# 4 0.000000 0.000000 0.000000 0.028979 0.000000 0.000000
# 5 0.000000 0.000000 0.000000 0.000000 0.028979 0.000000
# 6 0.000000 0.000000 0.000000 0.000000 0.000000 0.027148
#
#
# Mechanical properties :
#
#
# Convention : Reuss Voigt Hill
#
# Bulk Modulus (GPa) = 66.28437 66.60233 66.44335
# Shear Modulus (GPa) = 31.48001 33.11897 32.29949
#
# Velocity S-wave (km/s) = 3.82748 3.92585 3.87698
# Velocity P-wave (km/s) = 7.09782 7.17941 7.13873
#
# Compressibility (1/GPa) = 0.01508651
#
# Stress axis : x y z
#
# Youngs Moduli (GPa) = 85.03629 85.03628 54.42967
#
# Poissons Ratio (x) = 0.09626 0.33394
# Poissons Ratio (y) = 0.09626 0.33394
# Poissons Ratio (z) = 0.52172 0.52173
#
# Static dielectric constant tensor:
#      x y z
#    x 4.046370 0.000000 0.000000 
#    y 0.000000 4.046370 0.000000 
#    z 0.000000 0.000000 3.818650 
# 
# 
# High freq. dielectric constant tensor:
#      x y z
#    x 1.853110 0.000000 0.000000 
#    y 0.000000 1.853110 0.000000 
#    z 0.000000 0.000000 1.837500 
# 
# From -- ./inp_files/6538.got.cif
#   From: 2010.03.12/outbox.cif.g09.slc.cpg/sg135_4_cif.got.tgz:6538.got - 2010.04.06 18:31:24.
