data_PCOD8317114
_publ_section_title
;
Structure prediction by ZEFSAII (Michael W. Deem and Ramdas Pophale) SiO2 
 PCOD8317114
Probable space group: P 42/N N M
;
_chemical_formula_sum "Si O2"
_cell_formula_units_Z 96
_cell_length_a 14.846572
_cell_length_b 14.846572
_cell_length_c 25.357365
_cell_angle_alpha 90.000000
_cell_angle_beta 90.000000
_cell_angle_gamma 90.000000
_cell_volume 5589.288147
_symmetry_space_group_name_H-M "P 42/N N M"
_symmetry_group_IT_number 134
_space_group.IT_coordinate_system_code '2'
_symmetry_cell_setting 'tetragonal'
loop_
_space_group_symop_operation_xyz
x,y,z
1/2-y,x,1/2+z
1/2-x,1/2-y,z
y,1/2-x,1/2+z
x,1/2-y,1/2-z
1/2-x,y,1/2-z
y,x,-z
1/2-y,1/2-x,-z
-x,-y,-z
1/2+y,-x,1/2-z
1/2+x,1/2+y,-z
-y,1/2+x,1/2-z
-x,1/2+y,1/2+z
1/2+x,-y,1/2+z
-y,-x,z
1/2+y,1/2+x,z
loop_
_atom_site_type_symbol
_atom_site_label
_atom_site_fract_x
_atom_site_fract_y
_atom_site_fract_z
Si Si1 0.677833 0.177833 0.550690
Si Si2 0.235184 0.144047 0.307311
Si Si3 0.166925 0.318821 0.589797
Si Si4 0.821269 0.178732 0.074298
Si Si5 0.920349 0.563653 0.872603
Si Si6 0.231824 0.499274 0.927749
Si Si7 0.496939 0.267484 0.548334
O O1 0.750000 0.250000 0.571003
O O2 0.673303 0.173303 0.488223
O O3 0.580003 0.209038 0.572079
O O4 0.250000 0.250000 0.300509
O O5 0.250000 0.097728 0.250000
O O6 0.307260 0.117094 0.352900
O O7 0.136195 0.112184 0.326265
O O8 0.250000 0.250000 0.586113
O O9 0.199800 0.417844 0.579505
O O10 0.092783 0.293832 0.546187
O O11 0.750000 0.250000 0.094868
O O12 0.917355 0.211930 0.096327
O O13 0.984727 0.639244 0.897244
O O14 0.855967 0.520341 0.916896
O O15 0.984208 0.484208 0.849820
O O16 0.203816 0.517032 0.988378
#
# Coordination Sequence:
#
# PCOD8317114 Si02
#       7
#     8  16  16   8  16  16  16
#     4   9  18  33  45  63  99 146 187 209 245 309
#     4   9  17  35  59  75  97 133 169 215 281 324
#     4  10  18  32  50  81 103 131 172 225 271 315
#     4   9  20  33  45  63 101 152 183 205 247 303
#     4  11  21  32  53  85 107 132 182 227 262 312
#     4  11  19  32  49  75 109 148 177 216 257 311
#     4  10  20  30  50  73 109 146 177 212 265 313
#
# _framework density 17.175711
#
# number of rings (size 3 to 8) (size 9 to 14) (size 15 to 20)
#    0.000    2.000    5.000    2.000    0.000    4.000 
#    0.000    2.500    9.167    0.000    0.000    0.000 
#    0.000    0.000    0.000    0.000    0.000    0.000 
#
# Total GULP energy -1189571.654344 kJ/mol
# GULP energy per Si atom -12391.371399 kJ/mol
# Density = 1.713662 g / cm^3
# Si number density = 17.175711 Si / 1000 Ang^3
#
#
#
# Elastic Constant Matrix: (Units=GPa)
#
#
# Indices 1 2 3 4 5 6 
#
# 1 120.8272 65.2850 25.3608 0.0000 0.0000 0.0000
# 2 65.2850 120.8272 25.3608 0.0000 0.0000 0.0000
# 3 25.3608 25.3608 64.4825 0.0000 0.0000 0.0000
# 4 0.0000 0.0000 0.0000 0.6356 0.0000 0.0000
# 5 0.0000 0.0000 0.0000 0.0000 0.6356 0.0000
# 6 0.0000 0.0000 0.0000 0.0000 0.0000 42.2291
#
#
#
# Elastic Compliance Matrix: (Units=1/GPa)
#
#
# Indices 1 2 3 4 5 6 
#
# 1 0.012011 -0.005993 -0.002367 0.000000 0.000000 0.000000
# 2 -0.005993 0.012011 -0.002367 0.000000 0.000000 0.000000
# 3 -0.002367 -0.002367 0.017370 0.000000 0.000000 0.000000
# 4 0.000000 0.000000 0.000000 1.573387 0.000000 0.000000
# 5 0.000000 0.000000 0.000000 0.000000 1.573387 0.000000
# 6 0.000000 0.000000 0.000000 0.000000 0.000000 0.023680
#
#
# Mechanical properties :
#
#
# Convention : Reuss Voigt Hill
#
# Bulk Modulus (GPa) = 50.15417 59.79445 54.97431
# Shear Modulus (GPa) = 1.54324 21.37541 11.45932
#
# Velocity S-wave (km/s) = 0.94892 3.53159 2.58579
# Velocity P-wave (km/s) = 5.51948 7.17764 6.40247
#
# Compressibility (1/GPa) = 0.01993852
#
# Stress axis : x y z
#
# Youngs Moduli (GPa) = 83.25532 83.25532 57.57087
#
# Poissons Ratio (x) = 0.49896 0.13627
# Poissons Ratio (y) = 0.49896 0.13627
# Poissons Ratio (z) = 0.19706 0.19706
#
# Static dielectric constant tensor:
#      x y z
#    x 3.499580 0.000000 0.000000 
#    y 0.000000 3.499580 0.000000 
#    z 0.000000 0.000000 3.273630 
# 
# 
# High freq. dielectric constant tensor:
#      x y z
#    x 1.663970 0.000000 0.000000 
#    y 0.000000 1.663970 0.000000 
#    z 0.000000 0.000000 1.625760 
# 
# From -- ./inp_files/10775.got.cif
#   From: 2010.03.12/outbox.cif.g09.slc.cpg/sg134_6_cif.got.tgz:10775.got - 2010.04.06 18:17:22.
