data_PCOD8317804
_publ_section_title
;
Structure prediction by ZEFSAII (Michael W. Deem and Ramdas Pophale) SiO2 
 PCOD8317804
Probable space group: P 42/M N M
;
_chemical_formula_sum "Si O2"
_cell_formula_units_Z 96
_cell_length_a 22.657123
_cell_length_b 22.657123
_cell_length_c 12.841566
_cell_angle_alpha 90.000000
_cell_angle_beta 90.000000
_cell_angle_gamma 90.000000
_cell_volume 6592.156557
_symmetry_space_group_name_H-M "P 42/M N M"
_symmetry_group_IT_number 136
_symmetry_cell_setting 'tetragonal'
loop_
_space_group_symop_operation_xyz
x,y,z
1/2-y,1/2+x,1/2+z
-x,-y,z
1/2+y,1/2-x,1/2+z
1/2+x,1/2-y,1/2-z
1/2-x,1/2+y,1/2-z
y,x,-z
-y,-x,-z
-x,-y,-z
1/2+y,1/2-x,1/2-z
x,y,-z
1/2-y,1/2+x,1/2-z
1/2-x,1/2+y,1/2+z
1/2+x,1/2-y,1/2+z
-y,-x,z
y,x,z
loop_
_atom_site_type_symbol
_atom_site_label
_atom_site_fract_x
_atom_site_fract_y
_atom_site_fract_z
Si Si1 0.500599 0.595173 0.301518
Si Si2 0.685984 0.784430 0.701291
Si Si3 0.139437 0.760930 0.000000
Si Si4 0.874066 0.223049 0.380713
Si Si5 0.630636 0.273933 0.880822
Si Si6 0.680522 0.496125 0.118902
Si Si7 0.855027 0.045353 0.000000
O O1 0.449361 0.550640 0.332687
O O2 0.562501 0.562501 0.286024
O O3 0.485777 0.625156 0.192508
O O4 0.505353 0.641702 0.396184
O O5 0.732793 0.732793 0.690989
O O6 0.642012 0.779455 0.603090
O O7 0.649984 0.776622 0.809052
O O8 0.721560 0.846236 0.695072
O O9 0.190699 0.809302 0.000000
O O10 0.076273 0.792082 0.000000
O O11 0.866567 0.243220 0.500000
O O12 0.837450 0.162551 0.359430
O O13 0.942715 0.213142 0.352605
O O14 0.663920 0.336081 0.854906
O O15 0.560330 0.277273 0.864400
O O16 0.645482 0.256422 0.000000
O O17 0.657585 0.498494 0.000000
O O18 0.909627 0.090374 0.000000
#
# Coordination Sequence:
#
# PCOD8317804 Si02
#       7
#    16  16   8  16  16  16   8
#     4  10  19  29  40  54  77 114 156 187 209 237
#     4   9  15  25  42  62  81 102 134 176 215 254
#     4   9  14  21  38  61  76  90 122 172 224 253
#     4   9  17  28  42  61  85 112 141 172 209 252
#     4   9  16  27  42  61  85 111 140 172 210 255
#     4  10  19  29  42  61  86 113 140 176 217 253
#     4   9  17  28  41  56  76 104 141 185 221 244
#
# _framework density 14.562761
#
# number of rings (size 3 to 8) (size 9 to 14) (size 15 to 20)
#    0.000    2.667    0.833    2.250    0.000    5.667 
#    0.000    0.833    1.833    0.000    0.000    0.000 
#    0.000    0.667    0.000    6.000    0.000    0.000 
#
# Total GULP energy -1189930.118873 kJ/mol
# GULP energy per Si atom -12395.105405 kJ/mol
# Density = 1.452962 g / cm^3
# Si number density = 14.562761 Si / 1000 Ang^3
#
#
#
# Elastic Constant Matrix: (Units=GPa)
#
#
# Indices 1 2 3 4 5 6 
#
# 1 59.4944 38.5630 38.5643 0.0000 0.0000 0.0000
# 2 38.5630 59.4944 38.5643 0.0000 0.0000 0.0000
# 3 38.5643 38.5643 85.8261 0.0000 0.0000 0.0000
# 4 0.0000 0.0000 0.0000 18.1848 0.0000 0.0000
# 5 0.0000 0.0000 0.0000 0.0000 18.1848 0.0000
# 6 0.0000 0.0000 0.0000 0.0000 0.0000 14.4589
#
#
#
# Elastic Compliance Matrix: (Units=1/GPa)
#
#
# Indices 1 2 3 4 5 6 
#
# 1 0.031774 -0.016001 -0.007087 0.000000 0.000000 0.000000
# 2 -0.016001 0.031774 -0.007087 0.000000 0.000000 0.000000
# 3 -0.007087 -0.007087 0.018020 0.000000 0.000000 0.000000
# 4 0.000000 0.000000 0.000000 0.054991 0.000000 0.000000
# 5 0.000000 0.000000 0.000000 0.000000 0.054991 0.000000
# 6 0.000000 0.000000 0.000000 0.000000 0.000000 0.069161
#
#
# Mechanical properties :
#
#
# Convention : Reuss Voigt Hill
#
# Bulk Modulus (GPa) = 47.13176 48.46647 47.79912
# Shear Modulus (GPa) = 15.23764 16.10726 15.67245
#
# Velocity S-wave (km/s) = 3.23823 3.32935 3.28411
# Velocity P-wave (km/s) = 6.81296 6.93778 6.87565
#
# Compressibility (1/GPa) = 0.02121711
#
# Stress axis : x y z
#
# Youngs Moduli (GPa) = 31.47240 31.47242 55.49264
#
# Poissons Ratio (x) = 0.50360 0.39328
# Poissons Ratio (y) = 0.50360 0.39328
# Poissons Ratio (z) = 0.22305 0.22305
#
# Static dielectric constant tensor:
#      x y z
#    x 2.654760 0.000000 0.000000 
#    y 0.000000 2.654760 0.000000 
#    z 0.000000 0.000000 2.991760 
# 
# 
# High freq. dielectric constant tensor:
#      x y z
#    x 1.523730 0.000000 0.000000 
#    y 0.000000 1.523730 0.000000 
#    z 0.000000 0.000000 1.566750 
# 
# From -- ./inp_files/3941.got.cif
#   From: 2010.03.12/outbox.cif.g09.slc.cpg/sg136_2_cif.got.tgz:3941.got - 2010.04.06 18:39:43.
