data_PCOD8317554
_publ_section_title
;
Structure prediction by ZEFSAII (Michael W. Deem and Ramdas Pophale) SiO2 
 PCOD8317554
Probable space group: P 42/M B C
;
_chemical_formula_sum "Si O2"
_cell_formula_units_Z 88
_cell_length_a 13.676549
_cell_length_b 13.676549
_cell_length_c 21.713228
_cell_angle_alpha 90.000000
_cell_angle_beta 90.000000
_cell_angle_gamma 90.000000
_cell_volume 4061.415709
_symmetry_space_group_name_H-M "P 42/M B C"
_symmetry_group_IT_number 135
_symmetry_cell_setting 'tetragonal'
loop_
_space_group_symop_operation_xyz
x,y,z
-y,x,1/2+z
-x,-y,z
y,-x,1/2+z
1/2+x,1/2-y,-z
1/2-x,1/2+y,-z
1/2+y,1/2+x,1/2-z
1/2-y,1/2-x,1/2-z
-x,-y,-z
y,-x,1/2-z
x,y,-z
-y,x,1/2-z
1/2-x,1/2+y,z
1/2+x,1/2-y,z
1/2-y,1/2-x,1/2+z
1/2+y,1/2+x,1/2+z
loop_
_atom_site_type_symbol
_atom_site_label
_atom_site_fract_x
_atom_site_fract_y
_atom_site_fract_z
Si Si1 0.218554 0.853713 0.633086
Si Si2 0.721586 0.868269 0.500000
Si Si3 0.593547 0.228565 0.000000
Si Si4 0.974553 0.846245 0.238239
Si Si5 0.257215 0.923748 0.000000
Si Si6 0.844601 0.571800 0.191981
Si Si7 0.425840 0.201499 0.600576
O O1 0.217481 0.863643 0.559573
O O2 0.186374 0.952290 0.667973
O O3 0.324935 0.824414 0.658642
O O4 0.134996 0.773012 0.645854
O O5 0.824251 0.808581 0.500000
O O6 0.655180 0.852622 0.559962
O O7 0.747543 0.980254 0.500000
O O8 0.629500 0.115107 0.000000
O O9 0.968720 0.757641 0.284736
O O10 0.080362 0.892505 0.236917
O O11 0.240447 0.992546 0.059644
O O12 0.918779 0.581222 0.250000
O O13 0.876619 0.487351 0.142974
#
# Coordination Sequence:
#
# PCOD8317554 Si02
#       7
#    16   8   8  16   8  16  16
#     4  11  22  41  64  93 132 172 211 269 325 383
#     4  11  25  40  69  93 124 181 212 257 348 389
#     4  12  23  43  64  97 131 161 220 268 321 395
#     4  10  21  38  63  95 125 165 216 264 324 383
#     4  11  22  42  62  94 131 166 214 272 315 396
#     4  10  21  38  64  90 130 170 214 274 320 381
#     4  11  20  40  68  88 132 172 214 262 333 387
#
# _framework density 21.667321999999999
#
# number of rings (size 3 to 8) (size 9 to 14) (size 15 to 20)
#    0.000    1.273    5.455    0.545    0.000    4.364 
#    0.000    0.909    0.000    5.455    0.000    0.000 
#    0.000    0.000    0.000    0.000    0.000    0.000 
#
# Total GULP energy -1090378.755186 kJ/mol
# GULP energy per Si atom -12390.667673 kJ/mol
# Density = 2.161801 g / cm^3
# Si number density = 21.667322 Si / 1000 Ang^3
#
#
#
# Elastic Constant Matrix: (Units=GPa)
#
#
# Indices 1 2 3 4 5 6 
#
# 1 60.4072 -2.5848 6.6291 0.0000 0.0000 0.0000
# 2 -2.5848 60.4073 6.6287 0.0000 0.0000 0.0000
# 3 6.6291 6.6287 101.3326 0.0000 0.0000 0.0000
# 4 0.0000 0.0000 0.0000 -81.0726 0.0000 0.0000
# 5 0.0000 0.0000 0.0000 0.0000 -81.0745 0.0000
# 6 0.0000 0.0000 0.0000 0.0000 0.0000 13.9464
#
#
#
# Elastic Compliance Matrix: (Units=1/GPa)
#
#
# Indices 1 2 3 4 5 6 
#
# 1 0.016716 0.000841 -0.001149 0.000000 0.000000 0.000000
# 2 0.000841 0.016716 -0.001149 0.000000 0.000000 0.000000
# 3 -0.001149 -0.001149 0.010019 0.000000 0.000000 0.000000
# 4 0.000000 0.000000 0.000000 -0.012335 0.000000 0.000000
# 5 0.000000 0.000000 0.000000 0.000000 -0.012334 0.000000
# 6 0.000000 0.000000 0.000000 0.000000 0.000000 0.071703
#
#
# Mechanical properties :
#
#
# Convention : Reuss Voigt Hill
#
# Bulk Modulus (GPa) = 24.66709 27.05477 25.86093
# Shear Modulus (GPa) = 46.76808 -15.54187 15.61311
#
# Velocity S-wave (km/s) = 4.65096 -2.68114 2.68728
# Velocity P-wave (km/s) = 6.34438 1.71139 4.64650
#
# Compressibility (1/GPa) = 0.04053984
#
# Stress axis : x y z
#
# Youngs Moduli (GPa) = 59.82159 59.82175 99.81266
#
# Poissons Ratio (x) = -0.05033 0.11465
# Poissons Ratio (y) = -0.05033 0.11464
# Poissons Ratio (z) = 0.06871 0.06871
#
# Static dielectric constant tensor:
#      x y z
#    x 3.872870 0.000000 0.000000 
#    y 0.000000 3.872870 0.000000 
#    z 0.000000 0.000000 4.260470 
# 
# 
# High freq. dielectric constant tensor:
#      x y z
#    x 1.842630 0.000000 0.000000 
#    y 0.000000 1.842630 0.000000 
#    z 0.000000 0.000000 1.867730 
# 
# From -- ./inp_files/5380.got.cif
#   From: 2010.03.12/outbox.cif.g09.slc.cpg/sg135_3_cif.got.tgz:5380.got - 2010.04.06 18:31:24.
