data_PCOD8317649
_publ_section_title
;
Structure prediction by ZEFSAII (Michael W. Deem and Ramdas Pophale) SiO2 
 PCOD8317649
Probable space group: P 42/M B C
;
_chemical_formula_sum "Si O2"
_cell_formula_units_Z 48
_cell_length_a 8.913138
_cell_length_b 8.913138
_cell_length_c 24.475874
_cell_angle_alpha 90.000000
_cell_angle_beta 90.000000
_cell_angle_gamma 90.000000
_cell_volume 1944.462044
_symmetry_space_group_name_H-M "P 42/M B C"
_symmetry_group_IT_number 135
_symmetry_cell_setting 'tetragonal'
loop_
_space_group_symop_operation_xyz
x,y,z
-y,x,1/2+z
-x,-y,z
y,-x,1/2+z
1/2+x,1/2-y,-z
1/2-x,1/2+y,-z
1/2+y,1/2+x,1/2-z
1/2-y,1/2-x,1/2-z
-x,-y,-z
y,-x,1/2-z
x,y,-z
-y,x,1/2-z
1/2-x,1/2+y,z
1/2+x,1/2-y,z
1/2-y,1/2-x,1/2+z
1/2+y,1/2+x,1/2+z
loop_
_atom_site_type_symbol
_atom_site_label
_atom_site_fract_x
_atom_site_fract_y
_atom_site_fract_z
Si Si1 0.053050 0.713647 0.062506
Si Si2 0.726610 0.058468 0.895772
Si Si3 0.279211 0.443617 0.228920
O O1 0.182447 0.588870 0.070494
O O2 0.121953 0.874055 0.078272
O O3 0.910310 0.678325 0.100919
O O4 0.998775 0.712661 0.000000
O O5 0.760948 0.012066 0.833938
O O6 0.122148 0.377853 0.250000
O O7 0.319075 0.590113 0.264279
#
# Coordination Sequence:
#
# PCOD8317649 Si02
#       3
#    16  16  16
#     4  11  23  42  66  98 132 171 215 263 321 388
#     4  11  23  41  64  92 130 171 213 267 320 379
#     4  11  24  42  63  92 125 165 214 263 317 381
#
# _framework density 24.685493000000001
#
# number of rings (size 3 to 8) (size 9 to 14) (size 15 to 20)
#    0.000    1.000    0.000    8.000    0.000    7.333 
#    0.000    3.333    0.000    0.000    0.000    0.000 
#    0.000    0.000    0.000    0.000    0.000    0.000 
#
# Total GULP energy -595524.023998 kJ/mol
# GULP energy per Si atom -12406.750500 kJ/mol
# Density = 2.462931 g / cm^3
# Si number density = 24.685493 Si / 1000 Ang^3
#
#
#
# Elastic Constant Matrix: (Units=GPa)
#
#
# Indices 1 2 3 4 5 6 
#
# 1 35.2331 17.5890 10.8193 0.0000 0.0000 0.0000
# 2 17.5890 35.2312 10.8200 0.0000 0.0000 0.0000
# 3 10.8193 10.8200 127.3211 0.0000 0.0000 0.0000
# 4 0.0000 0.0000 0.0000 32.7431 0.0000 0.0000
# 5 0.0000 0.0000 0.0000 0.0000 32.7433 0.0000
# 6 0.0000 0.0000 0.0000 0.0000 0.0000 60.9453
#
#
#
# Elastic Compliance Matrix: (Units=1/GPa)
#
#
# Indices 1 2 3 4 5 6 
#
# 1 0.038146 -0.018532 -0.001667 0.000000 0.000000 0.000000
# 2 -0.018532 0.038148 -0.001667 0.000000 0.000000 0.000000
# 3 -0.001667 -0.001667 0.008137 0.000000 0.000000 0.000000
# 4 0.000000 0.000000 0.000000 0.030541 0.000000 0.000000
# 5 0.000000 0.000000 0.000000 0.000000 0.030541 0.000000
# 6 0.000000 0.000000 0.000000 0.000000 0.000000 0.016408
#
#
# Mechanical properties :
#
#
# Convention : Reuss Voigt Hill
#
# Bulk Modulus (GPa) = 24.57038 30.69356 27.63197
# Shear Modulus (GPa) = 22.80818 35.85681 29.33249
#
# Velocity S-wave (km/s) = 3.04295 3.81536 3.45084
# Velocity P-wave (km/s) = 4.72452 5.64537 5.20534
#
# Compressibility (1/GPa) = 0.04069940
#
# Stress axis : x y z
#
# Youngs Moduli (GPa) = 26.21514 26.21359 122.88863
#
# Poissons Ratio (x) = 0.48580 0.20480
# Poissons Ratio (y) = 0.48583 0.20487
# Poissons Ratio (z) = 0.04369 0.04370
#
# Static dielectric constant tensor:
#      x y z
#    x 4.477150 0.000000 0.000000 
#    y 0.000000 4.477160 0.000000 
#    z 0.000000 0.000000 4.244440 
# 
# 
# High freq. dielectric constant tensor:
#      x y z
#    x 1.986930 0.000000 0.000000 
#    y 0.000000 1.986930 0.000000 
#    z 0.000000 0.000000 1.978010 
# 
# From -- ./inp_files/6602.got.cif
#   From: 2010.03.12/outbox.cif.g09.slc.cpg/sg135_4_cif.got.tgz:6602.got - 2010.04.06 18:31:24.
