data_PCOD8317558
_publ_section_title
;
Structure prediction by ZEFSAII (Michael W. Deem and Ramdas Pophale) SiO2 
 PCOD8317558
Probable space group: P 42/M B C
;
_chemical_formula_sum "Si O2"
_cell_formula_units_Z 96
_cell_length_a 23.810336
_cell_length_b 23.810336
_cell_length_c 8.600489
_cell_angle_alpha 90.000000
_cell_angle_beta 90.000000
_cell_angle_gamma 90.000000
_cell_volume 4875.893294
_symmetry_space_group_name_H-M "P 42/M B C"
_symmetry_group_IT_number 135
_symmetry_cell_setting 'tetragonal'
loop_
_space_group_symop_operation_xyz
x,y,z
-y,x,1/2+z
-x,-y,z
y,-x,1/2+z
1/2+x,1/2-y,-z
1/2-x,1/2+y,-z
1/2+y,1/2+x,1/2-z
1/2-y,1/2-x,1/2-z
-x,-y,-z
y,-x,1/2-z
x,y,-z
-y,x,1/2-z
1/2-x,1/2+y,z
1/2+x,1/2-y,z
1/2-y,1/2-x,1/2+z
1/2+y,1/2+x,1/2+z
loop_
_atom_site_type_symbol
_atom_site_label
_atom_site_fract_x
_atom_site_fract_y
_atom_site_fract_z
Si Si1 0.488455 0.794461 0.317373
Si Si2 0.690210 0.725415 0.814941
Si Si3 0.501185 0.084892 0.183012
Si Si4 0.571388 0.695367 0.317599
Si Si5 0.363073 0.781465 0.681925
Si Si6 0.467977 0.421145 0.183208
O O1 0.491236 0.807358 0.500000
O O2 0.505710 0.850294 0.226723
O O3 0.528844 0.744175 0.268037
O O4 0.426886 0.774301 0.263837
O O5 0.717314 0.782687 0.750000
O O6 0.631748 0.717412 0.730582
O O7 0.728313 0.672896 0.760424
O O8 0.682754 0.728741 0.000000
O O9 0.559102 0.059102 0.250000
O O10 0.447821 0.052180 0.250000
O O11 0.502095 0.077567 0.000000
O O12 0.568489 0.682622 0.500000
O O13 0.556097 0.639332 0.225498
O O14 0.339257 0.839257 0.750000
O O15 0.358112 0.786462 0.500000
O O16 0.427643 0.468535 0.256118
O O17 0.467213 0.429276 0.000000
#
# Coordination Sequence:
#
# PCOD8317558 Si02
#       6
#    16  16  16  16  16  16
#     4  10  22  39  58  85 121 156 194 242 299 353
#     4  10  21  39  62  86 117 158 203 250 301 361
#     4  11  22  38  61  87 118 156 200 246 300 358
#     4  11  24  40  61  91 125 164 205 252 306 363
#     4   9  19  36  59  86 113 150 190 239 296 348
#     4  11  23  42  66  93 124 161 205 254 310 369
#
# _framework density 19.688700000000001
#
# number of rings (size 3 to 8) (size 9 to 14) (size 15 to 20)
#    0.000    1.667    0.000    5.500    2.333    4.667 
#    0.000    0.000    0.000    0.000    0.000    0.000 
#    0.000    0.000    0.000    0.000    0.000    0.000 
#
# Total GULP energy -1190810.943790 kJ/mol
# GULP energy per Si atom -12404.280664 kJ/mol
# Density = 1.964389 g / cm^3
# Si number density = 19.688700 Si / 1000 Ang^3
#
#
#
# Elastic Constant Matrix: (Units=GPa)
#
#
# Indices 1 2 3 4 5 6 
#
# 1 136.5625 89.2289 55.1147 0.0000 0.0000 0.0000
# 2 89.2289 136.5717 55.1117 0.0000 0.0000 0.0000
# 3 55.1147 55.1117 124.7499 0.0000 0.0000 0.0000
# 4 0.0000 0.0000 0.0000 32.5203 0.0000 0.0000
# 5 0.0000 0.0000 0.0000 0.0000 32.5203 0.0000
# 6 0.0000 0.0000 0.0000 0.0000 0.0000 25.6502
#
#
#
# Elastic Compliance Matrix: (Units=1/GPa)
#
#
# Indices 1 2 3 4 5 6 
#
# 1 0.013386 -0.007739 -0.002495 0.000000 0.000000 0.000000
# 2 -0.007739 0.013385 -0.002494 0.000000 0.000000 0.000000
# 3 -0.002495 -0.002494 0.010220 0.000000 0.000000 0.000000
# 4 0.000000 0.000000 0.000000 0.030750 0.000000 0.000000
# 5 0.000000 0.000000 0.000000 0.000000 0.030750 0.000000
# 6 0.000000 0.000000 0.000000 0.000000 0.000000 0.038986
#
#
# Mechanical properties :
#
#
# Convention : Reuss Voigt Hill
#
# Bulk Modulus (GPa) = 86.69297 88.53274 87.61285
# Shear Modulus (GPa) = 29.97983 31.36676 30.67330
#
# Velocity S-wave (km/s) = 3.90640 3.99574 3.95132
# Velocity P-wave (km/s) = 8.02957 8.14566 8.08783
#
# Compressibility (1/GPa) = 0.01153496
#
# Stress axis : x y z
#
# Youngs Moduli (GPa) = 74.70334 74.71116 97.84537
#
# Poissons Ratio (x) = 0.57819 0.24414
# Poissons Ratio (y) = 0.57813 0.24403
# Poissons Ratio (z) = 0.18640 0.18633
#
# Static dielectric constant tensor:
#      x y z
#    x 3.711680 0.000000 0.000000 
#    y 0.000000 3.711680 0.000000 
#    z 0.000000 0.000000 3.599050 
# 
# 
# High freq. dielectric constant tensor:
#      x y z
#    x 1.774080 0.000000 0.000000 
#    y 0.000000 1.774080 0.000000 
#    z 0.000000 0.000000 1.774880 
# 
# From -- ./inp_files/1270.got.cif
#   From: 2010.03.12/outbox.cif.g09.slc.cpg/sg135_1_cif.got.tgz:1270.got - 2010.04.06 18:31:24.
