data_PCOD8317056
_publ_section_title
;
Structure prediction by ZEFSAII (Michael W. Deem and Ramdas Pophale) SiO2 
 PCOD8317056
Probable space group: P 42/N B C
;
_chemical_formula_sum "Si O2"
_cell_formula_units_Z 48
_cell_length_a 8.993311
_cell_length_b 8.993311
_cell_length_c 22.705438
_cell_angle_alpha 90.000000
_cell_angle_beta 90.000000
_cell_angle_gamma 90.000000
_cell_volume 1836.407714
_symmetry_space_group_name_H-M "P 42/N B C"
_symmetry_group_IT_number 133
_space_group.IT_coordinate_system_code '2'
_symmetry_cell_setting 'tetragonal'
loop_
_space_group_symop_operation_xyz
x,y,z
1/2-y,x,1/2+z
1/2-x,1/2-y,z
y,1/2-x,1/2+z
x,1/2-y,-z
1/2-x,y,-z
y,x,1/2-z
1/2-y,1/2-x,1/2-z
-x,-y,-z
1/2+y,-x,1/2-z
1/2+x,1/2+y,-z
-y,1/2+x,1/2-z
-x,1/2+y,z
1/2+x,-y,z
-y,-x,1/2+z
1/2+y,1/2+x,1/2+z
loop_
_atom_site_type_symbol
_atom_site_label
_atom_site_fract_x
_atom_site_fract_y
_atom_site_fract_z
Si Si1 0.604158 0.597957 0.038237
Si Si2 0.963063 0.305404 0.228927
Si Si3 0.590162 0.318549 0.103964
O O1 0.618133 0.496425 0.097778
O O2 0.530459 0.756046 0.056345
O O3 0.750000 0.627772 0.000000
O O4 0.500000 0.500000 0.000000
O O5 0.921616 0.175436 0.276135
O O6 0.979381 0.219886 0.167226
O O7 0.114446 0.385555 0.250000
O O8 0.750000 0.250000 0.091233
#
# Coordination Sequence:
#
# PCOD8317056 Si02
#       3
#    16  16  16
#     4  12  27  47  74 106 151 200 261 321 389 463
#     4  11  24  46  75 109 152 195 245 312 386 460
#     4  12  25  48  76 110 151 204 254 321 390 466
#
# _framework density 26.137986000000001
#
# number of rings (size 3 to 8) (size 9 to 14) (size 15 to 20)
#    0.000    0.333    6.667    3.000    0.000    3.333 
#    0.000    3.333    0.000    0.000    0.000    0.000 
#    0.000    0.000    0.000    0.000    0.000    0.000 
#
# Total GULP energy -594865.342555 kJ/mol
# GULP energy per Si atom -12393.027970 kJ/mol
# Density = 2.607850 g / cm^3
# Si number density = 26.137986 Si / 1000 Ang^3
#
#
#
# Elastic Constant Matrix: (Units=GPa)
#
#
# Indices 1 2 3 4 5 6 
#
# 1 152.6051 43.8390 54.7166 0.0000 0.0000 0.0000
# 2 43.8390 152.6072 54.7163 0.0000 0.0000 0.0000
# 3 54.7166 54.7163 130.5247 0.0000 0.0000 0.0000
# 4 0.0000 0.0000 0.0000 40.4768 0.0000 0.0000
# 5 0.0000 0.0000 0.0000 0.0000 40.4768 0.0000
# 6 0.0000 0.0000 0.0000 0.0000 0.0000 54.7226
#
#
#
# Elastic Compliance Matrix: (Units=1/GPa)
#
#
# Indices 1 2 3 4 5 6 
#
# 1 0.007918 -0.001276 -0.002784 0.000000 0.000000 0.000000
# 2 -0.001276 0.007918 -0.002784 0.000000 0.000000 0.000000
# 3 -0.002784 -0.002784 0.009996 0.000000 0.000000 0.000000
# 4 0.000000 0.000000 0.000000 0.024705 0.000000 0.000000
# 5 0.000000 0.000000 0.000000 0.000000 0.024706 0.000000
# 6 0.000000 0.000000 0.000000 0.000000 0.000000 0.018274
#
#
# Mechanical properties :
#
#
# Convention : Reuss Voigt Hill
#
# Bulk Modulus (GPa) = 82.35873 82.47563 82.41718
# Shear Modulus (GPa) = 44.94292 45.96626 45.45459
#
# Velocity S-wave (km/s) = 4.15112 4.19812 4.17468
# Velocity P-wave (km/s) = 7.38602 7.42437 7.40522
#
# Compressibility (1/GPa) = 0.01214200
#
# Stress axis : x y z
#
# Youngs Moduli (GPa) = 126.29846 126.30079 100.04408
#
# Poissons Ratio (x) = 0.16119 0.27854
# Poissons Ratio (y) = 0.16119 0.27853
# Poissons Ratio (z) = 0.35163 0.35163
#
# Static dielectric constant tensor:
#      x y z
#    x 6.749080 0.000000 0.000000 
#    y 0.000000 6.749070 0.000000 
#    z 0.000000 0.000000 5.430150 
# 
# 
# High freq. dielectric constant tensor:
#      x y z
#    x 2.058960 0.000000 0.000000 
#    y 0.000000 2.058960 0.000000 
#    z 0.000000 0.000000 2.054330 
# 
# From -- ./inp_files/7756.got.cif
#   From: 2010.03.12/outbox.cif.g09.slc.cpg/sg133_4_cif.got.tgz:7756.got - 2010.04.06 18:08:06.
