data_PCOD8317572
_publ_section_title
;
Structure prediction by ZEFSAII (Michael W. Deem and Ramdas Pophale) SiO2 
 PCOD8317572
Probable space group: P 42/M B C
;
_chemical_formula_sum "Si O2"
_cell_formula_units_Z 112
_cell_length_a 13.957957
_cell_length_b 13.957957
_cell_length_c 26.981685
_cell_angle_alpha 90.000000
_cell_angle_beta 90.000000
_cell_angle_gamma 90.000000
_cell_volume 5256.695006
_symmetry_space_group_name_H-M "P 42/M B C"
_symmetry_group_IT_number 135
_symmetry_cell_setting 'tetragonal'
loop_
_space_group_symop_operation_xyz
x,y,z
-y,x,1/2+z
-x,-y,z
y,-x,1/2+z
1/2+x,1/2-y,-z
1/2-x,1/2+y,-z
1/2+y,1/2+x,1/2-z
1/2-y,1/2-x,1/2-z
-x,-y,-z
y,-x,1/2-z
x,y,-z
-y,x,1/2-z
1/2-x,1/2+y,z
1/2+x,1/2-y,z
1/2-y,1/2-x,1/2+z
1/2+y,1/2+x,1/2+z
loop_
_atom_site_type_symbol
_atom_site_label
_atom_site_fract_x
_atom_site_fract_y
_atom_site_fract_z
Si Si1 0.612809 0.323530 0.093691
Si Si2 0.276066 0.374092 0.197780
Si Si3 0.742700 0.970739 0.125132
Si Si4 0.231291 0.414900 0.305705
Si Si5 0.307078 0.111255 0.343806
Si Si6 0.790785 0.915846 0.444414
Si Si7 0.130353 0.289515 0.444218
O O1 0.686450 0.411274 0.089130
O O2 0.590764 0.311339 0.151764
O O3 0.515710 0.348244 0.063719
O O4 0.660969 0.227652 0.072868
O O5 0.303265 0.464514 0.163701
O O6 0.291283 0.402310 0.254977
O O7 0.164491 0.350623 0.188953
O O8 0.336324 0.282300 0.181623
O O9 0.676032 0.901556 0.158249
O O10 0.679567 0.040474 0.089738
O O11 0.176124 0.516071 0.311362
O O12 0.290924 0.088367 0.402213
O O13 0.745327 0.914855 0.500000
O O14 0.861187 0.825666 0.438756
O O15 0.108602 0.321345 0.500000
#
# Coordination Sequence:
#
# PCOD8317572 Si02
#       7
#    16  16  16  16  16  16  16
#     4  11  22  43  64  91 126 176 211 273 322 388
#     4  11  23  43  63  98 130 169 219 264 320 392
#     4  12  22  40  65  93 128 171 210 267 327 388
#     4  10  23  41  68  90 132 170 212 267 325 375
#     4  11  23  43  67  95 131 169 216 268 322 387
#     4  10  21  41  66  91 127 169 216 267 324 385
#     4  11  23  42  64  97 132 166 218 273 325 394
#
# _framework density 21.306163999999999
#
# number of rings (size 3 to 8) (size 9 to 14) (size 15 to 20)
#    0.000    1.143    5.714    0.429    2.000    3.429 
#    0.000    2.857    0.000    2.571    0.000    0.000 
#    0.000    0.000    0.000    0.000    0.000    0.000 
#
# Total GULP energy -1388601.058596 kJ/mol
# GULP energy per Si atom -12398.223737 kJ/mol
# Density = 2.125767 g / cm^3
# Si number density = 21.306164 Si / 1000 Ang^3
#
#
#
# Elastic Constant Matrix: (Units=GPa)
#
#
# Indices 1 2 3 4 5 6 
#
# 1 100.1997 23.2863 19.6004 0.0000 0.0000 0.0000
# 2 23.2863 100.1997 19.6004 0.0000 0.0000 0.0000
# 3 19.6004 19.6004 135.9020 0.0000 0.0000 0.0000
# 4 0.0000 0.0000 0.0000 25.4252 0.0000 0.0000
# 5 0.0000 0.0000 0.0000 0.0000 25.4252 0.0000
# 6 0.0000 0.0000 0.0000 0.0000 0.0000 8.0022
#
#
#
# Elastic Compliance Matrix: (Units=1/GPa)
#
#
# Indices 1 2 3 4 5 6 
#
# 1 0.010744 -0.002257 -0.001224 0.000000 0.000000 0.000000
# 2 -0.002257 0.010744 -0.001224 0.000000 0.000000 0.000000
# 3 -0.001224 -0.001224 0.007711 0.000000 0.000000 0.000000
# 4 0.000000 0.000000 0.000000 0.039331 0.000000 0.000000
# 5 0.000000 0.000000 0.000000 0.000000 0.039331 0.000000
# 6 0.000000 0.000000 0.000000 0.000000 0.000000 0.124966
#
#
# Mechanical properties :
#
#
# Convention : Reuss Voigt Hill
#
# Bulk Modulus (GPa) = 50.53398 51.25282 50.89340
# Shear Modulus (GPa) = 20.09363 30.02478 25.05921
#
# Velocity S-wave (km/s) = 3.07431 3.75801 3.43322
# Velocity P-wave (km/s) = 6.03086 6.55270 6.29719
#
# Compressibility (1/GPa) = 0.01978866
#
# Stress axis : x y z
#
# Youngs Moduli (GPa) = 93.07399 93.07399 129.67979
#
# Poissons Ratio (x) = 0.21011 0.15873
# Poissons Ratio (y) = 0.21011 0.15873
# Poissons Ratio (z) = 0.11392 0.11392
#
# Static dielectric constant tensor:
#      x y z
#    x 3.790340 0.000000 0.000000 
#    y 0.000000 3.790340 0.000000 
#    z 0.000000 0.000000 4.213560 
# 
# 
# High freq. dielectric constant tensor:
#      x y z
#    x 1.820280 0.000000 0.000000 
#    y 0.000000 1.820280 0.000000 
#    z 0.000000 0.000000 1.851770 
# 
# From -- ./inp_files/6514.got.cif
#   From: 2010.03.12/outbox.cif.g09.slc.cpg/sg135_4_cif.got.tgz:6514.got - 2010.04.06 18:31:24.
