data_PCOD8317455
_publ_section_title
;
Structure prediction by ZEFSAII (Michael W. Deem and Ramdas Pophale) SiO2 
 PCOD8317455
Probable space group: P 42/M B C
;
_chemical_formula_sum "Si O2"
_cell_formula_units_Z 112
_cell_length_a 14.117997
_cell_length_b 14.117997
_cell_length_c 27.268846
_cell_angle_alpha 90.000000
_cell_angle_beta 90.000000
_cell_angle_gamma 90.000000
_cell_volume 5435.167465
_symmetry_space_group_name_H-M "P 42/M B C"
_symmetry_group_IT_number 135
_symmetry_cell_setting 'tetragonal'
loop_
_space_group_symop_operation_xyz
x,y,z
-y,x,1/2+z
-x,-y,z
y,-x,1/2+z
1/2+x,1/2-y,-z
1/2-x,1/2+y,-z
1/2+y,1/2+x,1/2-z
1/2-y,1/2-x,1/2-z
-x,-y,-z
y,-x,1/2-z
x,y,-z
-y,x,1/2-z
1/2-x,1/2+y,z
1/2+x,1/2-y,z
1/2-y,1/2-x,1/2+z
1/2+y,1/2+x,1/2+z
loop_
_atom_site_type_symbol
_atom_site_label
_atom_site_fract_x
_atom_site_fract_y
_atom_site_fract_z
Si Si1 0.151684 0.777252 0.276319
Si Si2 0.602656 0.205131 0.605011
Si Si3 0.121951 0.791982 0.943814
Si Si4 0.698554 0.658642 0.625832
Si Si5 0.092743 0.711268 0.556754
Si Si6 0.305710 0.434189 0.202895
Si Si7 0.398324 0.520233 0.634395
O O1 0.177201 0.677201 0.250000
O O2 0.198427 0.763249 0.330708
O O3 0.206966 0.860927 0.247142
O O4 0.039893 0.796962 0.276307
O O5 0.640303 0.293537 0.573903
O O6 0.694770 0.135326 0.605873
O O7 0.505657 0.168286 0.579178
O O8 0.577660 0.226763 0.661096
O O9 0.138493 0.679844 0.936037
O O10 0.036670 0.823416 0.909481
O O11 0.099037 0.814265 0.000000
O O12 0.626443 0.691594 0.582755
O O13 0.648322 0.574270 0.656256
O O14 0.075188 0.733441 0.500000
O O15 0.406834 0.411013 0.178243
O O16 0.500000 0.500000 0.610091
#
# Coordination Sequence:
#
# PCOD8317455 Si02
#       7
#    16  16  16  16  16  16  16
#     4  12  23  39  63  91 125 167 207 260 315 382
#     4  10  19  36  58  83 118 156 205 254 302 373
#     4   9  20  35  56  85 117 157 203 251 313 378
#     4  11  21  37  58  90 121 156 208 256 319 379
#     4  10  20  38  61  82 117 164 209 258 314 376
#     4  11  23  37  60  89 120 160 203 248 315 377
#     4  11  21  36  58  87 124 154 191 260 319 379
#
# _framework density 20.606541
#
# number of rings (size 3 to 8) (size 9 to 14) (size 15 to 20)
#    0.000    1.429    4.286    2.143    0.000    1.429 
#    0.000    0.714    0.000    2.143    0.000    0.000 
#    0.000    0.000    0.000    0.000    0.000    0.000 
#
# Total GULP energy -1387463.774318 kJ/mol
# GULP energy per Si atom -12388.069414 kJ/mol
# Density = 2.055964 g / cm^3
# Si number density = 20.606541 Si / 1000 Ang^3
#
#
#
# Elastic Constant Matrix: (Units=GPa)
#
#
# Indices 1 2 3 4 5 6 
#
# 1 93.0122 25.9203 36.2522 0.0000 0.0000 0.0000
# 2 25.9203 93.0122 36.2522 0.0000 0.0000 0.0000
# 3 36.2522 36.2522 108.8885 0.0000 0.0000 0.0000
# 4 0.0000 0.0000 0.0000 23.4072 0.0000 0.0000
# 5 0.0000 0.0000 0.0000 0.0000 23.4072 0.0000
# 6 0.0000 0.0000 0.0000 0.0000 0.0000 25.7094
#
#
#
# Elastic Compliance Matrix: (Units=1/GPa)
#
#
# Indices 1 2 3 4 5 6 
#
# 1 0.012727 -0.002178 -0.003512 0.000000 0.000000 0.000000
# 2 -0.002178 0.012727 -0.003512 0.000000 0.000000 0.000000
# 3 -0.003512 -0.003512 0.011522 0.000000 0.000000 0.000000
# 4 0.000000 0.000000 0.000000 0.042722 0.000000 0.000000
# 5 0.000000 0.000000 0.000000 0.000000 0.042722 0.000000
# 6 0.000000 0.000000 0.000000 0.000000 0.000000 0.038896
#
#
# Mechanical properties :
#
#
# Convention : Reuss Voigt Hill
#
# Bulk Modulus (GPa) = 53.84400 54.64023 54.24211
# Shear Modulus (GPa) = 26.89452 27.60399 27.24925
#
# Velocity S-wave (km/s) = 3.61660 3.66399 3.64037
# Velocity P-wave (km/s) = 6.60500 6.66883 6.63699
#
# Compressibility (1/GPa) = 0.01857217
#
# Stress axis : x y z
#
# Youngs Moduli (GPa) = 78.57266 78.57266 86.78826
#
# Poissons Ratio (x) = 0.17112 0.30481
# Poissons Ratio (y) = 0.17112 0.30481
# Poissons Ratio (z) = 0.27596 0.27596
#
# Static dielectric constant tensor:
#      x y z
#    x 3.721960 0.000000 0.000000 
#    y 0.000000 3.721960 0.000000 
#    z 0.000000 0.000000 3.905750 
# 
# 
# High freq. dielectric constant tensor:
#      x y z
#    x 1.790450 0.000000 0.000000 
#    y 0.000000 1.790450 0.000000 
#    z 0.000000 0.000000 1.820260 
# 
# From -- ./inp_files/6495.got.cif
#   From: 2010.03.12/outbox.cif.g09.slc.cpg/sg135_4_cif.got.tgz:6495.got - 2010.04.06 18:31:24.
