data_PCOD8317163
_publ_section_title
;
Structure prediction by ZEFSAII (Michael W. Deem and Ramdas Pophale) SiO2 
 PCOD8317163
Probable space group: P 42/N N M
;
_chemical_formula_sum "Si O2"
_cell_formula_units_Z 112
_cell_length_a 15.452031
_cell_length_b 15.452031
_cell_length_c 23.459838
_cell_angle_alpha 90.000000
_cell_angle_beta 90.000000
_cell_angle_gamma 90.000000
_cell_volume 5601.394367
_symmetry_space_group_name_H-M "P 42/N N M"
_symmetry_group_IT_number 134
_space_group.IT_coordinate_system_code '2'
_symmetry_cell_setting 'tetragonal'
loop_
_space_group_symop_operation_xyz
x,y,z
1/2-y,x,1/2+z
1/2-x,1/2-y,z
y,1/2-x,1/2+z
x,1/2-y,1/2-z
1/2-x,y,1/2-z
y,x,-z
1/2-y,1/2-x,-z
-x,-y,-z
1/2+y,-x,1/2-z
1/2+x,1/2+y,-z
-y,1/2+x,1/2-z
-x,1/2+y,1/2+z
1/2+x,-y,1/2+z
-y,-x,z
1/2+y,1/2+x,z
loop_
_atom_site_type_symbol
_atom_site_label
_atom_site_fract_x
_atom_site_fract_y
_atom_site_fract_z
Si Si1 0.466897 0.672624 0.865675
Si Si2 0.067857 0.068370 0.561242
Si Si3 0.561374 0.199657 0.695729
Si Si4 0.569892 0.291690 0.577238
Si Si5 0.142001 0.001512 0.993141
Si Si6 0.356186 0.497991 0.668004
Si Si7 0.570413 0.928956 0.722493
O O1 0.374682 0.625319 0.860728
O O2 0.495427 0.683707 0.930890
O O3 0.455800 0.763333 0.833210
O O4 0.541336 0.617862 0.835097
O O5 0.103604 0.103604 0.500000
O O6 0.996496 0.131717 0.584553
O O7 0.139858 0.060301 0.610387
O O8 0.027524 0.972477 0.550860
O O9 0.598981 0.250000 0.750000
O O10 0.613595 0.113595 0.683112
O O11 0.574677 0.257300 0.640760
O O12 0.463082 0.167956 0.710271
O O13 0.664055 0.335946 0.558936
O O14 0.529152 0.218763 0.535697
O O15 0.065686 0.934315 0.002951
O O16 0.098446 0.098446 0.000000
O O17 0.428837 0.571164 0.669329
O O18 0.364762 0.434865 0.722858
O O19 0.508806 0.008806 0.738055
#
# Coordination Sequence:
#
# PCOD8317163 Si02
#       7
#    16  16  16  16  16  16  16
#     4  10  20  34  55  81 107 139 183 235 286 337
#     4   9  18  33  53  78 109 147 189 228 272 332
#     4  11  22  36  56  82 113 146 180 224 282 344
#     4  11  22  36  58  87 116 148 191 243 290 335
#     4  10  21  37  56  79 112 155 195 232 288 362
#     4  10  19  33  55  81 110 144 182 228 284 346
#     4   9  19  36  55  75 103 144 188 223 266 335
#
# _framework density 19.995021999999999
#
# number of rings (size 3 to 8) (size 9 to 14) (size 15 to 20)
#    0.000    2.000    0.000    3.857    0.000    8.429 
#    0.000    1.429    0.000   17.571    0.000    0.000 
#    0.000    0.000    0.000    0.000    0.000    0.000 
#
# Total GULP energy -1387523.846497 kJ/mol
# GULP energy per Si atom -12388.605772 kJ/mol
# Density = 1.994951 g / cm^3
# Si number density = 19.995022 Si / 1000 Ang^3
#
#
#
# Elastic Constant Matrix: (Units=GPa)
#
#
# Indices 1 2 3 4 5 6 
#
# 1 46.3356 65.3662 36.8570 0.0000 0.0000 0.0000
# 2 65.3662 46.3356 36.8570 0.0000 0.0000 0.0000
# 3 36.8570 36.8570 129.3584 0.0000 0.0000 0.0000
# 4 0.0000 0.0000 0.0000 26.7311 0.0000 0.0000
# 5 0.0000 0.0000 0.0000 0.0000 26.7311 0.0000
# 6 0.0000 0.0000 0.0000 0.0000 0.0000 28.6841
#
#
#
# Elastic Compliance Matrix: (Units=1/GPa)
#
#
# Indices 1 2 3 4 5 6 
#
# 1 -0.020761 0.031786 -0.003141 0.000000 0.000000 0.000000
# 2 0.031786 -0.020761 -0.003141 0.000000 0.000000 0.000000
# 3 -0.003141 -0.003141 0.009521 0.000000 0.000000 0.000000
# 4 0.000000 0.000000 0.000000 0.037410 0.000000 0.000000
# 5 0.000000 0.000000 0.000000 0.000000 0.037410 0.000000
# 6 0.000000 0.000000 0.000000 0.000000 0.000000 0.034863
#
#
# Mechanical properties :
#
#
# Convention : Reuss Voigt Hill
#
# Bulk Modulus (GPa) = 52.61516 55.57665 54.09590
# Shear Modulus (GPa) = 151.47113 21.95921 86.71517
#
# Velocity S-wave (km/s) = 8.71314 3.31756 6.59261
# Velocity P-wave (km/s) = 11.29586 6.52154 9.22299
#
# Compressibility (1/GPa) = 0.01900593
#
# Stress axis : x y z
#
# Youngs Moduli (GPa) = -48.16798 -48.16798 105.03583
#
# Poissons Ratio (x) = 1.53107 0.32996
# Poissons Ratio (y) = 1.53107 0.32996
# Poissons Ratio (z) = -0.15131 -0.15131
#
# Static dielectric constant tensor:
#      x y z
#    x 3.653340 0.000000 0.000000 
#    y 0.000000 3.653340 0.000000 
#    z 0.000000 0.000000 3.856140 
# 
# 
# High freq. dielectric constant tensor:
#      x y z
#    x 1.761460 0.000000 0.000000 
#    y 0.000000 1.761460 0.000000 
#    z 0.000000 0.000000 1.801730 
# 
# From -- ./inp_files/10142.got.cif
#   From: 2010.03.12/outbox.cif.g09.slc.cpg/sg134_6_cif.got.tgz:10142.got - 2010.04.06 18:17:22.
