data_PCOD8317303
_publ_section_title
;
Structure prediction by ZEFSAII (Michael W. Deem and Ramdas Pophale) SiO2 
 PCOD8317303
Probable space group: P 42/N N M
;
_chemical_formula_sum "Si O2"
_cell_formula_units_Z 48
_cell_length_a 12.478644
_cell_length_b 12.478644
_cell_length_c 14.507330
_cell_angle_alpha 90.000000
_cell_angle_beta 90.000000
_cell_angle_gamma 90.000000
_cell_volume 2259.031465
_symmetry_space_group_name_H-M "P 42/N N M"
_symmetry_group_IT_number 134
_space_group.IT_coordinate_system_code '2'
_symmetry_cell_setting 'tetragonal'
loop_
_space_group_symop_operation_xyz
x,y,z
1/2-y,x,1/2+z
1/2-x,1/2-y,z
y,1/2-x,1/2+z
x,1/2-y,1/2-z
1/2-x,y,1/2-z
y,x,-z
1/2-y,1/2-x,-z
-x,-y,-z
1/2+y,-x,1/2-z
1/2+x,1/2+y,-z
-y,1/2+x,1/2-z
-x,1/2+y,1/2+z
1/2+x,-y,1/2+z
-y,-x,z
1/2+y,1/2+x,z
loop_
_atom_site_type_symbol
_atom_site_label
_atom_site_fract_x
_atom_site_fract_y
_atom_site_fract_z
Si Si1 0.183718 0.987094 0.838486
Si Si2 0.130304 0.216950 0.854843
Si Si3 0.749825 0.076172 0.968625
O O1 0.250000 0.024523 0.750000
O O2 0.105946 0.894055 0.804748
O O3 0.116883 0.090167 0.870526
O O4 0.257491 0.946578 0.922130
O O5 0.250000 0.250000 0.888793
O O6 0.111060 0.250000 0.750000
O O7 0.035441 0.267715 0.915281
O O8 0.862642 0.137359 0.946291
O O9 0.651549 0.151549 0.939861
#
# Coordination Sequence:
#
# PCOD8317303 Si02
#       3
#    16  16  16
#     4  11  22  41  66  93 127 169 214 263 319 379
#     4  11  23  44  62  92 131 171 212 260 319 386
#     4  10  23  42  67  98 128 166 216 269 323 378
#
# _framework density 21.248045000000001
#
# number of rings (size 3 to 8) (size 9 to 14) (size 15 to 20)
#    0.000    1.333    3.333    3.000    0.000    9.667 
#    0.000    3.333    0.000    0.000    0.000    0.000 
#    0.000    0.000    0.000    0.000    0.000    0.000 
#
# Total GULP energy -595187.941986 kJ/mol
# GULP energy per Si atom -12399.748791 kJ/mol
# Density = 2.119968 g / cm^3
# Si number density = 21.248045 Si / 1000 Ang^3
#
#
#
# Elastic Constant Matrix: (Units=GPa)
#
#
# Indices 1 2 3 4 5 6 
#
# 1 120.2460 39.3584 55.7107 0.0000 0.0000 0.0000
# 2 39.3584 120.2460 55.7107 0.0000 0.0000 0.0000
# 3 55.7107 55.7107 85.6903 0.0000 0.0000 0.0000
# 4 0.0000 0.0000 0.0000 34.3349 0.0000 0.0000
# 5 0.0000 0.0000 0.0000 0.0000 34.3349 0.0000
# 6 0.0000 0.0000 0.0000 0.0000 0.0000 163.0267
#
#
#
# Elastic Compliance Matrix: (Units=1/GPa)
#
#
# Indices 1 2 3 4 5 6 
#
# 1 0.011918 -0.000445 -0.007459 0.000000 0.000000 0.000000
# 2 -0.000445 0.011918 -0.007459 0.000000 0.000000 0.000000
# 3 -0.007459 -0.007459 0.021368 0.000000 0.000000 0.000000
# 4 0.000000 0.000000 0.000000 0.029125 0.000000 0.000000
# 5 0.000000 0.000000 0.000000 0.000000 0.029125 0.000000
# 6 0.000000 0.000000 0.000000 0.000000 0.000000 0.006134
#
#
# Mechanical properties :
#
#
# Convention : Reuss Voigt Hill
#
# Bulk Modulus (GPa) = 69.06819 69.74911 69.40865
# Shear Modulus (GPa) = 34.44975 58.03280 46.24128
#
# Velocity S-wave (km/s) = 4.03092 5.23176 4.67010
# Velocity P-wave (km/s) = 7.36483 8.33022 7.86235
#
# Compressibility (1/GPa) = 0.01447845
#
# Stress axis : x y z
#
# Youngs Moduli (GPa) = 83.90898 83.90898 46.79809
#
# Poissons Ratio (x) = 0.03735 0.34905
# Poissons Ratio (y) = 0.03735 0.34905
# Poissons Ratio (z) = 0.62586 0.62586
#
# Static dielectric constant tensor:
#      x y z
#    x 3.824150 0.000000 0.000000 
#    y 0.000000 3.824150 0.000000 
#    z 0.000000 0.000000 3.644500 
# 
# 
# High freq. dielectric constant tensor:
#      x y z
#    x 1.836020 0.000000 0.000000 
#    y 0.000000 1.836020 0.000000 
#    z 0.000000 0.000000 1.832440 
# 
# From -- ./inp_files/4184.got.cif
#   From: 2010.03.12/outbox.cif.g09.slc.cpg/sg134_3_cif.got.tgz:4184.got - 2010.04.06 18:17:22.
