data_PCOD8317166
_publ_section_title
;
Structure prediction by ZEFSAII (Michael W. Deem and Ramdas Pophale) SiO2 
 PCOD8317166
Probable space group: P 42/N N M
;
_chemical_formula_sum "Si O2"
_cell_formula_units_Z 88
_cell_length_a 17.278735
_cell_length_b 17.278735
_cell_length_c 13.930337
_cell_angle_alpha 90.000000
_cell_angle_beta 90.000000
_cell_angle_gamma 90.000000
_cell_volume 4158.967350
_symmetry_space_group_name_H-M "P 42/N N M"
_symmetry_group_IT_number 134
_space_group.IT_coordinate_system_code '2'
_symmetry_cell_setting 'tetragonal'
loop_
_space_group_symop_operation_xyz
x,y,z
1/2-y,x,1/2+z
1/2-x,1/2-y,z
y,1/2-x,1/2+z
x,1/2-y,1/2-z
1/2-x,y,1/2-z
y,x,-z
1/2-y,1/2-x,-z
-x,-y,-z
1/2+y,-x,1/2-z
1/2+x,1/2+y,-z
-y,1/2+x,1/2-z
-x,1/2+y,1/2+z
1/2+x,-y,1/2+z
-y,-x,z
1/2+y,1/2+x,z
loop_
_atom_site_type_symbol
_atom_site_label
_atom_site_fract_x
_atom_site_fract_y
_atom_site_fract_z
Si Si1 0.982549 0.788993 0.611201
Si Si2 0.511258 0.730526 0.393239
Si Si3 0.592737 0.533677 0.906160
Si Si4 0.314393 0.190709 0.886370
Si Si5 0.377687 0.750000 0.250000
Si Si6 0.011546 0.632408 0.706376
O O1 0.997662 0.807492 0.499407
O O2 0.893878 0.789097 0.646405
O O3 0.017262 0.706909 0.639345
O O4 0.021581 0.853239 0.679648
O O5 0.505449 0.821637 0.394933
O O6 0.596695 0.707909 0.352281
O O7 0.435847 0.709787 0.328841
O O8 0.542557 0.457444 0.920745
O O9 0.566868 0.583848 0.813799
O O10 0.588068 0.588068 0.000000
O O11 0.250000 0.250000 0.842957
O O12 0.307949 0.192052 0.000000
O O13 0.320882 0.679119 0.214698
O O14 0.083180 0.583180 0.668651
#
# Coordination Sequence:
#
# PCOD8317166 Si02
#       6
#    16  16  16  16   8  16
#     4  10  21  38  58  90 130 161 206 254 322 390
#     4  11  22  39  65  89 123 170 214 261 331 396
#     4  10  19  33  59  93 123 159 211 259 309 379
#     4   9  19  35  59  90 129 164 195 243 309 393
#     4  11  28  50  67  88 118 162 235 304 334 369
#     4  10  21  36  58  88 127 166 204 256 310 379
#
# _framework density 21.159098
#
# number of rings (size 3 to 8) (size 9 to 14) (size 15 to 20)
#    0.000    1.909    1.818    1.636    5.091    1.455 
#    0.000    0.000    0.000    7.636    0.000    0.000 
#    0.000    0.000    0.000    0.000    0.000    0.000 
#
# Total GULP energy -1090267.270285 kJ/mol
# GULP energy per Si atom -12389.400799 kJ/mol
# Density = 2.111094 g / cm^3
# Si number density = 21.159098 Si / 1000 Ang^3
#
#
#
# Elastic Constant Matrix: (Units=GPa)
#
#
# Indices 1 2 3 4 5 6 
#
# 1 86.2035 24.6692 22.8504 0.0000 0.0000 0.0000
# 2 24.6692 86.2034 22.8505 0.0000 0.0000 0.0000
# 3 22.8504 22.8505 84.4273 0.0000 0.0000 0.0000
# 4 0.0000 0.0000 0.0000 28.7502 0.0000 0.0000
# 5 0.0000 0.0000 0.0000 0.0000 28.7502 0.0000
# 6 0.0000 0.0000 0.0000 0.0000 0.0000 25.6167
#
#
#
# Elastic Compliance Matrix: (Units=1/GPa)
#
#
# Indices 1 2 3 4 5 6 
#
# 1 0.013202 -0.003050 -0.002748 0.000000 0.000000 0.000000
# 2 -0.003050 0.013202 -0.002748 0.000000 0.000000 0.000000
# 3 -0.002748 -0.002748 0.013332 0.000000 0.000000 0.000000
# 4 0.000000 0.000000 0.000000 0.034782 0.000000 0.000000
# 5 0.000000 0.000000 0.000000 0.000000 0.034782 0.000000
# 6 0.000000 0.000000 0.000000 0.000000 0.000000 0.039037
#
#
# Mechanical properties :
#
#
# Convention : Reuss Voigt Hill
#
# Bulk Modulus (GPa) = 44.15967 44.17493 44.16730
# Shear Modulus (GPa) = 28.90594 29.05435 28.98015
#
# Velocity S-wave (km/s) = 3.70012 3.70961 3.70487
# Velocity P-wave (km/s) = 6.25860 6.26666 6.26264
#
# Compressibility (1/GPa) = 0.02264509
#
# Stress axis : x y z
#
# Youngs Moduli (GPa) = 75.74895 75.74883 75.00850
#
# Poissons Ratio (x) = 0.23100 0.20609
# Poissons Ratio (y) = 0.23100 0.20610
# Poissons Ratio (z) = 0.20813 0.20813
#
# Static dielectric constant tensor:
#      x y z
#    x 3.850900 0.000000 0.000000 
#    y 0.000000 3.850890 0.000000 
#    z 0.000000 0.000000 4.598040 
# 
# 
# High freq. dielectric constant tensor:
#      x y z
#    x 1.821310 0.000000 0.000000 
#    y 0.000000 1.821310 0.000000 
#    z 0.000000 0.000000 1.827640 
# 
# From -- ./inp_files/6467.got.cif
#   From: 2010.03.12/outbox.cif.g09.slc.cpg/sg134_4_cif.got.tgz:6467.got - 2010.04.06 18:17:22.
