data_PCOD8317534
_publ_section_title
;
Structure prediction by ZEFSAII (Michael W. Deem and Ramdas Pophale) SiO2 
 PCOD8317534
Probable space group: P 42/M B C
;
_chemical_formula_sum "Si O2"
_cell_formula_units_Z 64
_cell_length_a 11.611328
_cell_length_b 11.611328
_cell_length_c 21.150601
_cell_angle_alpha 90.000000
_cell_angle_beta 90.000000
_cell_angle_gamma 90.000000
_cell_volume 2851.586166
_symmetry_space_group_name_H-M "P 42/M B C"
_symmetry_group_IT_number 135
_symmetry_cell_setting 'tetragonal'
loop_
_space_group_symop_operation_xyz
x,y,z
-y,x,1/2+z
-x,-y,z
y,-x,1/2+z
1/2+x,1/2-y,-z
1/2-x,1/2+y,-z
1/2+y,1/2+x,1/2-z
1/2-y,1/2-x,1/2-z
-x,-y,-z
y,-x,1/2-z
x,y,-z
-y,x,1/2-z
1/2-x,1/2+y,z
1/2+x,1/2-y,z
1/2-y,1/2-x,1/2+z
1/2+y,1/2+x,1/2+z
loop_
_atom_site_type_symbol
_atom_site_label
_atom_site_fract_x
_atom_site_fract_y
_atom_site_fract_z
Si Si1 0.911993 0.185054 0.500000
Si Si2 0.587363 0.596284 0.362086
Si Si3 0.045977 0.340277 0.869549
Si Si4 0.151553 0.327136 0.500000
Si Si5 0.153641 0.552758 0.185884
O O1 0.921117 0.107744 0.562320
O O2 0.778503 0.240511 0.500000
O O3 0.030375 0.259074 0.500000
O O4 0.500000 0.500000 0.338062
O O5 0.713143 0.555427 0.341686
O O6 0.559113 0.711402 0.324175
O O7 0.114563 0.419881 0.819168
O O8 0.911484 0.378071 0.870882
O O9 0.092652 0.351945 0.939479
O O10 0.113128 0.613128 0.250000
#
# Coordination Sequence:
#
# PCOD8317534 Si02
#       5
#     8  16  16   8  16
#     4  10  21  41  69 109 155 194 238 310 376 451
#     4  11  25  44  73 108 149 188 242 299 372 445
#     4  10  23  43  69 103 140 184 244 300 366 432
#     4  10  20  40  72 106 144 197 241 308 377 449
#     4  11  25  45  71  95 142 191 242 299 358 426
#
# _framework density 22.443648
#
# number of rings (size 3 to 8) (size 9 to 14) (size 15 to 20)
#    0.000    1.500    2.500    1.875    3.500    5.000 
#    0.000    0.000    0.000    0.000    0.000    0.000 
#    0.000    0.000    0.000    0.000    0.000    0.000 
#
# Total GULP energy -792914.294672 kJ/mol
# GULP energy per Si atom -12389.285854 kJ/mol
# Density = 2.239257 g / cm^3
# Si number density = 22.443648 Si / 1000 Ang^3
#
#
#
# Elastic Constant Matrix: (Units=GPa)
#
#
# Indices 1 2 3 4 5 6 
#
# 1 202.8967 97.8703 44.5710 0.0000 0.0000 0.0000
# 2 97.8703 202.8967 44.5710 0.0000 0.0000 0.0000
# 3 44.5710 44.5710 97.7512 0.0000 0.0000 0.0000
# 4 0.0000 0.0000 0.0000 -117.6586 0.0000 0.0000
# 5 0.0000 0.0000 0.0000 0.0000 -117.6586 0.0000
# 6 0.0000 0.0000 0.0000 0.0000 0.0000 28.8841
#
#
#
# Elastic Compliance Matrix: (Units=1/GPa)
#
#
# Indices 1 2 3 4 5 6 
#
# 1 0.006683 -0.002839 -0.001753 0.000000 0.000000 0.000000
# 2 -0.002839 0.006683 -0.001753 0.000000 0.000000 0.000000
# 3 -0.001753 -0.001753 0.011829 0.000000 0.000000 0.000000
# 4 0.000000 0.000000 0.000000 -0.008499 0.000000 0.000000
# 5 0.000000 0.000000 0.000000 0.000000 -0.008499 0.000000
# 6 0.000000 0.000000 0.000000 0.000000 0.000000 0.034621
#
#
# Mechanical properties :
#
#
# Convention : Reuss Voigt Hill
#
# Bulk Modulus (GPa) = 79.96340 97.50769 88.73554
# Shear Modulus (GPa) = 83.78813 -20.18447 31.80183
#
# Velocity S-wave (km/s) = 6.11668 -3.00215 3.76834
# Velocity P-wave (km/s) = 9.25153 5.61450 7.65224
#
# Compressibility (1/GPa) = 0.01250572
#
# Stress axis : x y z
#
# Youngs Moduli (GPa) = 149.63590 149.63590 84.54114
#
# Poissons Ratio (x) = 0.42475 0.14819
# Poissons Ratio (y) = 0.42475 0.14819
# Poissons Ratio (z) = 0.26230 0.26230
#
# Static dielectric constant tensor:
#      x y z
#    x 4.330590 0.000000 0.000000 
#    y 0.000000 4.330590 0.000000 
#    z 0.000000 0.000000 4.147720 
# 
# 
# High freq. dielectric constant tensor:
#      x y z
#    x 1.887100 0.000000 0.000000 
#    y 0.000000 1.887100 0.000000 
#    z 0.000000 0.000000 1.888110 
# 
# From -- ./inp_files/5945.got.cif
#   From: 2010.03.12/outbox.cif.g09.slc.cpg/sg135_3_cif.got.tgz:5945.got - 2010.04.06 18:31:24.
