data_PCOD8317328
_publ_section_title
;
Structure prediction by ZEFSAII (Michael W. Deem and Ramdas Pophale) SiO2 
 PCOD8317328
Probable space group: P 42/N N M
;
_chemical_formula_sum "Si O2"
_cell_formula_units_Z 64
_cell_length_a 13.836886
_cell_length_b 13.836886
_cell_length_c 18.756756
_cell_angle_alpha 90.000000
_cell_angle_beta 90.000000
_cell_angle_gamma 90.000000
_cell_volume 3591.157516
_symmetry_space_group_name_H-M "P 42/N N M"
_symmetry_group_IT_number 134
_space_group.IT_coordinate_system_code '2'
_symmetry_cell_setting 'tetragonal'
loop_
_space_group_symop_operation_xyz
x,y,z
1/2-y,x,1/2+z
1/2-x,1/2-y,z
y,1/2-x,1/2+z
x,1/2-y,1/2-z
1/2-x,y,1/2-z
y,x,-z
1/2-y,1/2-x,-z
-x,-y,-z
1/2+y,-x,1/2-z
1/2+x,1/2+y,-z
-y,1/2+x,1/2-z
-x,1/2+y,1/2+z
1/2+x,-y,1/2+z
-y,-x,z
1/2+y,1/2+x,z
loop_
_atom_site_type_symbol
_atom_site_label
_atom_site_fract_x
_atom_site_fract_y
_atom_site_fract_z
Si Si1 0.044620 0.385567 0.925497
Si Si2 0.177622 0.527116 0.443526
Si Si3 0.646728 0.776452 0.832164
Si Si4 0.470687 0.380184 0.101183
O O1 0.114191 0.376750 0.856402
O O2 0.979021 0.479021 0.912988
O O3 0.975854 0.291586 0.928840
O O4 0.104196 0.395805 0.000000
O O5 0.135635 0.635635 0.430213
O O6 0.153140 0.493889 0.522337
O O7 0.121424 0.451588 0.393117
O O8 0.750000 0.750000 0.869261
O O9 0.657372 0.750000 0.750000
O O10 0.554300 0.714968 0.855744
O O11 0.564246 0.435755 0.133457
#
# Coordination Sequence:
#
# PCOD8317328 Si02
#       4
#    16  16  16  16
#     4  11  22  35  55  84 115 147 187 240 295 343
#     4   9  17  31  54  82 107 139 183 226 281 339
#     4  11  22  35  55  81 108 145 190 233 287 346
#     4   9  17  31  54  80 104 138 183 227 271 328
#
# _framework density 17.821552000000001
#
# number of rings (size 3 to 8) (size 9 to 14) (size 15 to 20)
#    0.000    2.000    5.000    1.500    0.000    2.000 
#    0.000    0.000    0.000    0.750    0.000    1.750 
#    0.000    0.000    0.000    0.000    0.000    0.000 
#
# Total GULP energy -792919.038693 kJ/mol
# GULP energy per Si atom -12389.359980 kJ/mol
# Density = 1.778099 g / cm^3
# Si number density = 17.821552 Si / 1000 Ang^3
#
#
#
# Elastic Constant Matrix: (Units=GPa)
#
#
# Indices 1 2 3 4 5 6 
#
# 1 105.6070 54.8133 30.3186 0.0000 0.0000 0.0000
# 2 54.8133 105.6070 30.3187 0.0000 0.0000 0.0000
# 3 30.3186 30.3187 50.2046 0.0000 0.0000 0.0000
# 4 0.0000 0.0000 0.0000 19.6927 0.0000 0.0000
# 5 0.0000 0.0000 0.0000 0.0000 19.6926 0.0000
# 6 0.0000 0.0000 0.0000 0.0000 0.0000 30.3088
#
#
#
# Elastic Compliance Matrix: (Units=1/GPa)
#
#
# Indices 1 2 3 4 5 6 
#
# 1 0.013882 -0.005805 -0.004878 0.000000 0.000000 0.000000
# 2 -0.005805 0.013882 -0.004878 0.000000 0.000000 0.000000
# 3 -0.004878 -0.004878 0.025810 0.000000 0.000000 0.000000
# 4 0.000000 0.000000 0.000000 0.050780 0.000000 0.000000
# 5 0.000000 0.000000 0.000000 0.000000 0.050781 0.000000
# 6 0.000000 0.000000 0.000000 0.000000 0.000000 0.032994
#
#
# Mechanical properties :
#
#
# Convention : Reuss Voigt Hill
#
# Bulk Modulus (GPa) = 44.53727 54.70219 49.61973
# Shear Modulus (GPa) = 22.05209 23.67002 22.86105
#
# Velocity S-wave (km/s) = 3.52146 3.64836 3.58547
# Velocity P-wave (km/s) = 6.44819 6.96480 6.71147
#
# Compressibility (1/GPa) = 0.02245310
#
# Stress axis : x y z
#
# Youngs Moduli (GPa) = 72.03335 72.03329 38.74442
#
# Poissons Ratio (x) = 0.41815 0.18899
# Poissons Ratio (y) = 0.41815 0.18900
# Poissons Ratio (z) = 0.35138 0.35138
#
# Static dielectric constant tensor:
#      x y z
#    x 2.428720 0.000000 0.000000 
#    y 0.000000 2.428780 0.000000 
#    z 0.000000 0.000000 2.274570 
# 
# 
# High freq. dielectric constant tensor:
#      x y z
#    x 1.689190 0.000000 0.000000 
#    y 0.000000 1.689190 0.000000 
#    z 0.000000 0.000000 1.654140 
# 
# From -- ./inp_files/7442.got.cif
#   From: 2010.03.12/outbox.cif.g09.slc.cpg/sg134_4_cif.got.tgz:7442.got - 2010.04.06 18:17:22.
