data_PCOD8317299
_publ_section_title
;
Structure prediction by ZEFSAII (Michael W. Deem and Ramdas Pophale) SiO2 
 PCOD8317299
Probable space group: P 42/N N M
;
_chemical_formula_sum "Si O2"
_cell_formula_units_Z 96
_cell_length_a 23.820354
_cell_length_b 23.820354
_cell_length_c 8.593819
_cell_angle_alpha 90.000000
_cell_angle_beta 90.000000
_cell_angle_gamma 90.000000
_cell_volume 4876.212520
_symmetry_space_group_name_H-M "P 42/N N M"
_symmetry_group_IT_number 134
_space_group.IT_coordinate_system_code '2'
_symmetry_cell_setting 'tetragonal'
loop_
_space_group_symop_operation_xyz
x,y,z
1/2-y,x,1/2+z
1/2-x,1/2-y,z
y,1/2-x,1/2+z
x,1/2-y,1/2-z
1/2-x,y,1/2-z
y,x,-z
1/2-y,1/2-x,-z
-x,-y,-z
1/2+y,-x,1/2-z
1/2+x,1/2+y,-z
-y,1/2+x,1/2-z
-x,1/2+y,1/2+z
1/2+x,-y,1/2+z
-y,-x,z
1/2+y,1/2+x,z
loop_
_atom_site_type_symbol
_atom_site_label
_atom_site_fract_x
_atom_site_fract_y
_atom_site_fract_z
Si Si1 0.898200 0.307157 0.322374
Si Si2 0.589358 0.581975 0.828454
Si Si3 0.340822 0.002175 0.855171
Si Si4 0.191907 0.024420 0.320172
Si Si5 0.992648 0.007353 0.763256
Si Si6 0.559179 0.059179 0.040526
Si Si7 0.309704 0.900629 0.309451
O O1 0.872202 0.250000 0.250000
O O2 0.859971 0.359971 0.266384
O O3 0.900273 0.305137 0.506141
O O4 0.963464 0.310208 0.270520
O O5 0.552228 0.625628 0.729193
O O6 0.644671 0.569067 0.729839
O O7 0.556349 0.523083 0.859492
O O8 0.605293 0.605293 0.000000
O O9 0.376299 0.958128 0.961217
O O10 0.300852 0.026879 0.991009
O O11 0.250000 0.046381 0.250000
O O12 0.177705 0.962633 0.253914
O O13 0.969439 0.030561 0.603595
O O14 0.038405 0.961596 0.711457
O O15 0.250000 0.877589 0.250000
O O16 0.359766 0.859766 0.251716
#
# Coordination Sequence:
#
# PCOD8317299 Si02
#       7
#    16  16  16  16   8   8  16
#     4  11  23  39  58  82 114 152 200 251 297 346
#     4  11  22  35  56  86 118 151 194 236 294 356
#     4  11  21  37  59  82 113 150 195 242 293 345
#     4  11  23  38  57  83 118 155 190 234 291 356
#     4   9  17  30  50  82 116 146 183 235 282 354
#     4   9  16  30  52  82 107 140 191 229 287 344
#     4  10  23  39  55  77 105 147 198 248 298 345
#
# _framework density 19.687411999999998
#
# number of rings (size 3 to 8) (size 9 to 14) (size 15 to 20)
#    0.000    1.500    2.500    3.750    2.333    2.333 
#    0.000    1.667    0.000    0.000    0.000    0.000 
#    0.000   14.000    0.000    0.000    0.000    0.000 
#
# Total GULP energy -1189723.609813 kJ/mol
# GULP energy per Si atom -12392.954269 kJ/mol
# Density = 1.964260 g / cm^3
# Si number density = 19.687412 Si / 1000 Ang^3
#
#
#
# Elastic Constant Matrix: (Units=GPa)
#
#
# Indices 1 2 3 4 5 6 
#
# 1 77.9439 42.6022 34.9769 0.0000 0.0000 0.0000
# 2 42.6022 77.9439 34.9769 0.0000 0.0000 0.0000
# 3 34.9769 34.9769 115.1084 0.0000 0.0000 0.0000
# 4 0.0000 0.0000 0.0000 29.0991 0.0000 0.0000
# 5 0.0000 0.0000 0.0000 0.0000 29.0991 0.0000
# 6 0.0000 0.0000 0.0000 0.0000 0.0000 22.8177
#
#
#
# Elastic Compliance Matrix: (Units=1/GPa)
#
#
# Indices 1 2 3 4 5 6 
#
# 1 0.019183 -0.009112 -0.003060 0.000000 0.000000 0.000000
# 2 -0.009112 0.019183 -0.003060 0.000000 0.000000 0.000000
# 3 -0.003060 -0.003060 0.010547 0.000000 0.000000 0.000000
# 4 0.000000 0.000000 0.000000 0.034365 0.000000 0.000000
# 5 0.000000 0.000000 0.000000 0.000000 0.034365 0.000000
# 6 0.000000 0.000000 0.000000 0.000000 0.000000 0.043826
#
#
# Mechanical properties :
#
#
# Convention : Reuss Voigt Hill
#
# Bulk Modulus (GPa) = 54.20350 55.12311 54.66330
# Shear Modulus (GPa) = 25.24170 26.76587 26.00378
#
# Velocity S-wave (km/s) = 3.58456 3.69120 3.63827
# Velocity P-wave (km/s) = 6.68759 6.79901 6.74353
#
# Compressibility (1/GPa) = 0.01844899
#
# Stress axis : x y z
#
# Youngs Moduli (GPa) = 52.12854 52.12854 94.81110
#
# Poissons Ratio (x) = 0.47499 0.29015
# Poissons Ratio (y) = 0.47499 0.29015
# Poissons Ratio (z) = 0.15953 0.15953
#
# Static dielectric constant tensor:
#      x y z
#    x 3.535120 0.000000 0.000000 
#    y 0.000000 3.535120 0.000000 
#    z 0.000000 0.000000 3.694810 
# 
# 
# High freq. dielectric constant tensor:
#      x y z
#    x 1.742090 0.000000 0.000000 
#    y 0.000000 1.742090 0.000000 
#    z 0.000000 0.000000 1.788170 
# 
# From -- ./inp_files/3250.got.cif
#   From: 2010.03.12/outbox.cif.g09.slc.cpg/sg134_2_cif.got.tgz:3250.got - 2010.04.06 18:17:22.
