data_PCOD8317483
_publ_section_title
;
Structure prediction by ZEFSAII (Michael W. Deem and Ramdas Pophale) SiO2 
 PCOD8317483
Probable space group: P 42/M B C
;
_chemical_formula_sum "Si O2"
_cell_formula_units_Z 80
_cell_length_a 17.893445
_cell_length_b 17.893445
_cell_length_c 14.083994
_cell_angle_alpha 90.000000
_cell_angle_beta 90.000000
_cell_angle_gamma 90.000000
_cell_volume 4509.348046
_symmetry_space_group_name_H-M "P 42/M B C"
_symmetry_group_IT_number 135
_symmetry_cell_setting 'tetragonal'
loop_
_space_group_symop_operation_xyz
x,y,z
-y,x,1/2+z
-x,-y,z
y,-x,1/2+z
1/2+x,1/2-y,-z
1/2-x,1/2+y,-z
1/2+y,1/2+x,1/2-z
1/2-y,1/2-x,1/2-z
-x,-y,-z
y,-x,1/2-z
x,y,-z
-y,x,1/2-z
1/2-x,1/2+y,z
1/2+x,1/2-y,z
1/2-y,1/2-x,1/2+z
1/2+y,1/2+x,1/2+z
loop_
_atom_site_type_symbol
_atom_site_label
_atom_site_fract_x
_atom_site_fract_y
_atom_site_fract_z
Si Si1 0.264943 0.359551 0.252598
Si Si2 0.477071 0.778452 0.387152
Si Si3 0.735964 0.888572 0.245674
Si Si4 0.516280 0.225600 0.108611
Si Si5 0.941532 0.555861 0.108460
O O1 0.190347 0.309654 0.250000
O O2 0.273046 0.412689 0.159507
O O3 0.337212 0.308373 0.258567
O O4 0.266046 0.412330 0.345351
O O5 0.475018 0.768364 0.500000
O O6 0.560089 0.761851 0.348736
O O7 0.455019 0.860257 0.345810
O O8 0.660401 0.839600 0.250000
O O9 0.744630 0.939044 0.339325
O O10 0.527597 0.137934 0.118991
O O11 0.509978 0.251727 0.000000
O O12 0.000000 0.500000 0.158787
O O13 0.930967 0.531405 0.000000
#
# Coordination Sequence:
#
# PCOD8317483 Si02
#       5
#    16  16  16  16  16
#     4  10  20  36  54  79 110 145 184 224 271 322
#     4  10  20  35  54  79 110 147 183 219 270 326
#     4  10  22  35  53  82 115 143 178 227 273 322
#     4  10  20  35  54  79 110 147 183 219 270 326
#     4   9  16  27  49  79 108 137 171 206 253 326
#
# _framework density 17.740922999999999
#
# number of rings (size 3 to 8) (size 9 to 14) (size 15 to 20)
#    0.000    2.200    2.000    1.200    0.000    4.000 
#    0.000    7.000    0.000    9.600    0.000   11.200 
#    0.000    0.000    0.000    0.000    0.000    0.000 
#
# Total GULP energy -991746.571184 kJ/mol
# GULP energy per Si atom -12396.832140 kJ/mol
# Density = 1.770054 g / cm^3
# Si number density = 17.740923 Si / 1000 Ang^3
#
#
#
# Elastic Constant Matrix: (Units=GPa)
#
#
# Indices 1 2 3 4 5 6 
#
# 1 94.1680 56.3625 41.7850 0.0000 0.0000 0.0000
# 2 56.3625 94.1705 41.7859 0.0000 0.0000 0.0000
# 3 41.7850 41.7859 135.4861 0.0000 0.0000 0.0000
# 4 0.0000 0.0000 0.0000 18.8828 0.0000 0.0000
# 5 0.0000 0.0000 0.0000 0.0000 18.8849 0.0000
# 6 0.0000 0.0000 0.0000 0.0000 0.0000 30.8953
#
#
#
# Elastic Compliance Matrix: (Units=1/GPa)
#
#
# Indices 1 2 3 4 5 6 
#
# 1 0.017233 -0.009217 -0.002472 0.000000 0.000000 0.000000
# 2 -0.009217 0.017233 -0.002472 0.000000 0.000000 0.000000
# 3 -0.002472 -0.002472 0.008906 0.000000 0.000000 0.000000
# 4 0.000000 0.000000 0.000000 0.052958 0.000000 0.000000
# 5 0.000000 0.000000 0.000000 0.000000 0.052952 0.000000
# 6 0.000000 0.000000 0.000000 0.000000 0.000000 0.032367
#
#
# Mechanical properties :
#
#
# Convention : Reuss Voigt Hill
#
# Bulk Modulus (GPa) = 66.45215 67.07682 66.76449
# Shear Modulus (GPa) = 23.25705 25.99202 24.62453
#
# Velocity S-wave (km/s) = 3.62460 3.83180 3.72964
# Velocity P-wave (km/s) = 7.41992 7.58077 7.50078
#
# Compressibility (1/GPa) = 0.01504842
#
# Stress axis : x y z
#
# Youngs Moduli (GPa) = 58.02777 58.02916 112.28803
#
# Poissons Ratio (x) = 0.53488 0.27758
# Poissons Ratio (y) = 0.53486 0.27759
# Poissons Ratio (z) = 0.14345 0.14345
#
# Static dielectric constant tensor:
#      x y z
#    x 3.223950 0.000000 0.000000 
#    y 0.000000 3.223950 0.000000 
#    z 0.000000 0.000000 3.347750 
# 
# 
# High freq. dielectric constant tensor:
#      x y z
#    x 1.677510 0.000000 0.000000 
#    y 0.000000 1.677510 0.000000 
#    z 0.000000 0.000000 1.693330 
# 
# From -- ./inp_files/3397.got.cif
#   From: 2010.03.12/outbox.cif.g09.slc.cpg/sg135_2_cif.got.tgz:3397.got - 2010.04.06 18:31:24.
