data_PCOD8317594
_publ_section_title
;
Structure prediction by ZEFSAII (Michael W. Deem and Ramdas Pophale) SiO2 
 PCOD8317594
Probable space group: P 42/M B C
;
_chemical_formula_sum "Si O2"
_cell_formula_units_Z 112
_cell_length_a 14.272778
_cell_length_b 14.272778
_cell_length_c 27.183938
_cell_angle_alpha 90.000000
_cell_angle_beta 90.000000
_cell_angle_gamma 90.000000
_cell_volume 5537.699593
_symmetry_space_group_name_H-M "P 42/M B C"
_symmetry_group_IT_number 135
_symmetry_cell_setting 'tetragonal'
loop_
_space_group_symop_operation_xyz
x,y,z
-y,x,1/2+z
-x,-y,z
y,-x,1/2+z
1/2+x,1/2-y,-z
1/2-x,1/2+y,-z
1/2+y,1/2+x,1/2-z
1/2-y,1/2-x,1/2-z
-x,-y,-z
y,-x,1/2-z
x,y,-z
-y,x,1/2-z
1/2-x,1/2+y,z
1/2+x,1/2-y,z
1/2-y,1/2-x,1/2+z
1/2+y,1/2+x,1/2+z
loop_
_atom_site_type_symbol
_atom_site_label
_atom_site_fract_x
_atom_site_fract_y
_atom_site_fract_z
Si Si1 0.066691 0.083940 0.127718
Si Si2 0.502789 0.357073 0.230254
Si Si3 0.147915 0.499387 0.232550
Si Si4 0.965847 0.755510 0.055715
Si Si5 0.015422 0.728910 0.373118
Si Si6 0.287420 0.851039 0.945107
Si Si7 0.175819 0.660174 0.556803
O O1 0.018950 0.137367 0.172513
O O2 0.077111 0.155909 0.083490
O O3 0.169396 0.049672 0.144847
O O4 0.000000 0.000000 0.110074
O O5 0.405786 0.411347 0.240890
O O6 0.495880 0.248781 0.242756
O O7 0.094695 0.405306 0.250000
O O8 0.161115 0.498925 0.173524
O O9 0.090053 0.590053 0.250000
O O10 0.898543 0.665165 0.059755
O O11 0.065785 0.724203 0.076714
O O12 0.976428 0.789916 0.000000
O O13 0.086284 0.678739 0.409897
O O14 0.920388 0.747411 0.403124
O O15 0.242591 0.749685 0.936535
O O16 0.261515 0.888699 0.000000
O O17 0.143218 0.649813 0.500000
#
# Coordination Sequence:
#
# PCOD8317594 Si02
#       7
#    16  16  16  16  16  16  16
#     4  12  23  40  68  97 125 167 220 271 327 394
#     4  11  22  46  68  96 130 165 215 279 333 396
#     4  11  28  46  63  96 133 171 224 279 331 391
#     4  10  23  40  62  95 133 173 210 261 326 385
#     4  12  24  42  67  98 125 179 221 263 340 389
#     4  10  22  41  64  95 135 169 213 269 323 393
#     4  10  22  41  65  99 137 172 219 269 321 398
#
# _framework density 20.225003000000001
#
# number of rings (size 3 to 8) (size 9 to 14) (size 15 to 20)
#    0.000    1.143    4.286    1.286    4.000    3.143 
#    0.000    2.143    0.000    0.000    0.000    0.000 
#    0.000    0.000    0.000    0.000    0.000    0.000 
#
# Total GULP energy -1389173.400844 kJ/mol
# GULP energy per Si atom -12403.333936 kJ/mol
# Density = 2.017897 g / cm^3
# Si number density = 20.225003 Si / 1000 Ang^3
#
#
#
# Elastic Constant Matrix: (Units=GPa)
#
#
# Indices 1 2 3 4 5 6 
#
# 1 107.5406 31.4258 32.1567 0.0000 0.0000 0.0000
# 2 31.4258 107.5432 32.1567 0.0000 0.0000 0.0000
# 3 32.1567 32.1567 83.0325 0.0000 0.0000 0.0000
# 4 0.0000 0.0000 0.0000 32.1960 0.0000 0.0000
# 5 0.0000 0.0000 0.0000 0.0000 32.1961 0.0000
# 6 0.0000 0.0000 0.0000 0.0000 0.0000 26.3364
#
#
#
# Elastic Compliance Matrix: (Units=1/GPa)
#
#
# Indices 1 2 3 4 5 6 
#
# 1 0.010953 -0.002185 -0.003395 0.000000 0.000000 0.000000
# 2 -0.002185 0.010952 -0.003395 0.000000 0.000000 0.000000
# 3 -0.003395 -0.003395 0.014673 0.000000 0.000000 0.000000
# 4 0.000000 0.000000 0.000000 0.031060 0.000000 0.000000
# 5 0.000000 0.000000 0.000000 0.000000 0.031060 0.000000
# 6 0.000000 0.000000 0.000000 0.000000 0.000000 0.037970
#
#
# Mechanical properties :
#
#
# Convention : Reuss Voigt Hill
#
# Bulk Modulus (GPa) = 53.68714 54.39941 54.04328
# Shear Modulus (GPa) = 31.08892 31.63751 31.36322
#
# Velocity S-wave (km/s) = 3.92491 3.95939 3.94218
# Velocity P-wave (km/s) = 6.86603 6.91793 6.89203
#
# Compressibility (1/GPa) = 0.01862643
#
# Stress axis : x y z
#
# Youngs Moduli (GPa) = 91.30168 91.30421 68.15056
#
# Poissons Ratio (x) = 0.19952 0.23140
# Poissons Ratio (y) = 0.19952 0.23139
# Poissons Ratio (z) = 0.31001 0.31001
#
# Static dielectric constant tensor:
#      x y z
#    x 3.660420 0.000000 0.000000 
#    y 0.000000 3.660420 0.000000 
#    z 0.000000 0.000000 3.721310 
# 
# 
# High freq. dielectric constant tensor:
#      x y z
#    x 1.792690 0.000000 0.000000 
#    y 0.000000 1.792690 0.000000 
#    z 0.000000 0.000000 1.797290 
# 
# From -- ./inp_files/6129.got.cif
#   From: 2010.03.12/outbox.cif.g09.slc.cpg/sg135_4_cif.got.tgz:6129.got - 2010.04.06 18:31:24.
