data_PCOD8317064
_publ_section_title
;
Structure prediction by ZEFSAII (Michael W. Deem and Ramdas Pophale) SiO2 
 PCOD8317064
Probable space group: P 42/N B C
;
_chemical_formula_sum "Si O2"
_cell_formula_units_Z 48
_cell_length_a 20.281847
_cell_length_b 20.281847
_cell_length_c 5.371053
_cell_angle_alpha 90.000000
_cell_angle_beta 90.000000
_cell_angle_gamma 90.000000
_cell_volume 2209.400471
_symmetry_space_group_name_H-M "P 42/N B C"
_symmetry_group_IT_number 133
_space_group.IT_coordinate_system_code '2'
_symmetry_cell_setting 'tetragonal'
loop_
_space_group_symop_operation_xyz
x,y,z
1/2-y,x,1/2+z
1/2-x,1/2-y,z
y,1/2-x,1/2+z
x,1/2-y,-z
1/2-x,y,-z
y,x,1/2-z
1/2-y,1/2-x,1/2-z
-x,-y,-z
1/2+y,-x,1/2-z
1/2+x,1/2+y,-z
-y,1/2+x,1/2-z
-x,1/2+y,z
1/2+x,-y,z
-y,-x,1/2+z
1/2+y,1/2+x,1/2+z
loop_
_atom_site_type_symbol
_atom_site_label
_atom_site_fract_x
_atom_site_fract_y
_atom_site_fract_z
Si Si1 0.506865 0.250000 0.500000
Si Si2 0.121456 0.932920 0.865133
Si Si3 0.683527 0.591042 0.627153
Si Si4 0.066436 0.433565 0.250000
O O1 0.550163 0.199379 0.338592
O O2 0.464633 0.200517 0.671686
O O3 0.107086 0.890147 0.619637
O O4 0.073368 0.996837 0.889956
O O5 0.750000 0.613999 0.500000
O O6 0.657285 0.657285 0.750000
O O7 0.628401 0.564868 0.437730
#
# Coordination Sequence:
#
# PCOD8317064 Si02
#       4
#     8  16  16   8
#     4  12  26  46  73 103 154 190 248 304 372 456
#     4  12  27  45  75 111 145 191 245 308 382 437
#     4  12  23  44  70 101 147 207 248 297 360 436
#     4  12  24  42  71 108 144 192 253 316 360 442
#
# _framework density 21.725349999999999
#
# number of rings (size 3 to 8) (size 9 to 14) (size 15 to 20)
#    0.000    0.000    6.667    3.000    0.000    0.000 
#    0.000   11.667    0.000    3.000    0.000    0.000 
#    0.000    0.000    0.000    0.000    0.000    0.000 
#
# Total GULP energy -595222.086535 kJ/mol
# GULP energy per Si atom -12400.460136 kJ/mol
# Density = 2.167590 g / cm^3
# Si number density = 21.725350 Si / 1000 Ang^3
#
#
#
# Elastic Constant Matrix: (Units=GPa)
#
#
# Indices 1 2 3 4 5 6 
#
# 1 68.8783 37.0163 33.4397 0.0000 0.0000 0.0000
# 2 37.0163 68.8800 33.4409 0.0000 0.0000 0.0000
# 3 33.4397 33.4409 138.6518 0.0000 0.0000 0.0000
# 4 0.0000 0.0000 0.0000 32.9723 0.0000 0.0000
# 5 0.0000 0.0000 0.0000 0.0000 32.9726 0.0000
# 6 0.0000 0.0000 0.0000 0.0000 0.0000 74.1169
#
#
#
# Elastic Compliance Matrix: (Units=1/GPa)
#
#
# Indices 1 2 3 4 5 6 
#
# 1 0.021263 -0.010122 -0.002687 0.000000 0.000000 0.000000
# 2 -0.010122 0.021262 -0.002687 0.000000 0.000000 0.000000
# 3 -0.002687 -0.002687 0.008508 0.000000 0.000000 0.000000
# 4 0.000000 0.000000 0.000000 0.030329 0.000000 0.000000
# 5 0.000000 0.000000 0.000000 0.000000 0.030328 0.000000
# 6 0.000000 0.000000 0.000000 0.000000 0.000000 0.013492
#
#
# Mechanical properties :
#
#
# Convention : Reuss Voigt Hill
#
# Bulk Modulus (GPa) = 49.89657 53.80045 51.84851
# Shear Modulus (GPa) = 30.70236 39.51325 35.10780
#
# Velocity S-wave (km/s) = 3.76334 4.26932 4.02429
# Velocity P-wave (km/s) = 6.47306 7.00860 6.74615
#
# Compressibility (1/GPa) = 0.02004146
#
# Stress axis : x y z
#
# Youngs Moduli (GPa) = 47.03107 47.03192 117.53186
#
# Poissons Ratio (x) = 0.47606 0.31578
# Poissons Ratio (y) = 0.47606 0.31580
# Poissons Ratio (z) = 0.12636 0.12637
#
# Static dielectric constant tensor:
#      x y z
#    x 4.011300 0.000000 0.000000 
#    y 0.000000 4.011300 0.000000 
#    z 0.000000 0.000000 4.013190 
# 
# 
# High freq. dielectric constant tensor:
#      x y z
#    x 1.846930 0.000000 0.000000 
#    y 0.000000 1.846930 0.000000 
#    z 0.000000 0.000000 1.870560 
# 
# From -- ./inp_files/228.got.cif
#   From: 2010.03.12/outbox.cif.g09.slc.cpg/sg133_1_cif.got.tgz:228.got - 2010.04.06 18:08:06.
