data_PCOD8317044
_publ_section_title
;
Structure prediction by ZEFSAII (Michael W. Deem and Ramdas Pophale) SiO2 
 PCOD8317044
Probable space group: P 42/N B C
;
_chemical_formula_sum "Si O2"
_cell_formula_units_Z 116
_cell_length_a 16.736934
_cell_length_b 16.736934
_cell_length_c 18.976917
_cell_angle_alpha 90.000000
_cell_angle_beta 90.000000
_cell_angle_gamma 90.000000
_cell_volume 5315.908110
_symmetry_space_group_name_H-M "P 42/N B C"
_symmetry_group_IT_number 133
_space_group.IT_coordinate_system_code '2'
_symmetry_cell_setting 'tetragonal'
loop_
_space_group_symop_operation_xyz
x,y,z
1/2-y,x,1/2+z
1/2-x,1/2-y,z
y,1/2-x,1/2+z
x,1/2-y,-z
1/2-x,y,-z
y,x,1/2-z
1/2-y,1/2-x,1/2-z
-x,-y,-z
1/2+y,-x,1/2-z
1/2+x,1/2+y,-z
-y,1/2+x,1/2-z
-x,1/2+y,z
1/2+x,-y,z
-y,-x,1/2+z
1/2+y,1/2+x,1/2+z
loop_
_atom_site_type_symbol
_atom_site_label
_atom_site_fract_x
_atom_site_fract_y
_atom_site_fract_z
Si Si1 0.333384 0.828355 0.126274
Si Si2 0.956777 0.669861 0.959548
Si Si3 0.955263 0.060113 0.069138
Si Si4 0.522791 0.243031 0.680007
Si Si5 0.056982 0.322346 0.445230
Si Si6 0.801643 0.440229 0.677366
Si Si7 0.250000 0.750000 0.500000
Si Si8 0.516464 0.435994 0.316209
O O1 0.418496 0.873118 0.120726
O O2 0.266620 0.883847 0.163877
O O3 0.355032 0.745422 0.166898
O O4 0.304173 0.807321 0.047798
O O5 0.868940 0.640374 0.936934
O O6 0.013056 0.693259 0.895368
O O7 0.940977 0.750000 0.000000
O O8 0.993648 0.599916 0.007673
O O9 0.883232 0.012949 0.030606
O O10 0.007295 0.998710 0.116460
O O11 0.463600 0.295921 0.633817
O O12 0.507790 0.256824 0.763007
O O13 0.495584 0.153681 0.661041
O O14 0.062267 0.250000 0.500000
O O15 0.890951 0.428781 0.706486
O O16 0.465046 0.465046 0.250000
#
# Coordination Sequence:
#
# PCOD8317044 Si02
#       8
#    16  16  16  16  16  16   4  16
#     4  11  24  43  66 107 145 185 233 289 365 433
#     4  12  25  43  73 102 142 189 242 304 357 431
#     4  11  23  43  66 106 138 183 245 284 357 435
#     4  11  26  44  70 105 146 185 236 301 361 434
#     4  11  25  44  70 105 143 186 237 301 358 424
#     4  12  24  44  70 105 141 189 236 291 361 438
#     4  12  24  40  70 100 156 192 230 284 376 440
#     4  12  25  44  75 101 142 190 240 302 356 436
#
# _framework density 21.821294000000002
#
# number of rings (size 3 to 8) (size 9 to 14) (size 15 to 20)
#    0.000    0.552    2.759    6.207    5.793    0.276 
#    0.000    1.379    0.000    0.000    0.000    0.000 
#    0.000    0.000    0.000    0.000    0.000    0.000 
#
# Total GULP energy -1438149.238251 kJ/mol
# GULP energy per Si atom -12397.838261 kJ/mol
# Density = 2.177163 g / cm^3
# Si number density = 21.821294 Si / 1000 Ang^3
#
#
#
# Elastic Constant Matrix: (Units=GPa)
#
#
# Indices 1 2 3 4 5 6 
#
# 1 92.3176 43.4738 28.1563 0.0000 0.0000 0.0000
# 2 43.4738 92.3176 28.1563 0.0000 0.0000 0.0000
# 3 28.1563 28.1563 97.7294 0.0000 0.0000 0.0000
# 4 0.0000 0.0000 0.0000 37.9182 0.0000 0.0000
# 5 0.0000 0.0000 0.0000 0.0000 37.9182 0.0000
# 6 0.0000 0.0000 0.0000 0.0000 0.0000 42.0119
#
#
#
# Elastic Compliance Matrix: (Units=1/GPa)
#
#
# Indices 1 2 3 4 5 6 
#
# 1 0.014418 -0.006055 -0.002410 0.000000 0.000000 0.000000
# 2 -0.006055 0.014418 -0.002410 0.000000 0.000000 0.000000
# 3 -0.002410 -0.002410 0.011621 0.000000 0.000000 0.000000
# 4 0.000000 0.000000 0.000000 0.026373 0.000000 0.000000
# 5 0.000000 0.000000 0.000000 0.000000 0.026373 0.000000
# 6 0.000000 0.000000 0.000000 0.000000 0.000000 0.023803
#
#
# Mechanical properties :
#
#
# Convention : Reuss Voigt Hill
#
# Bulk Modulus (GPa) = 53.44887 53.54860 53.49873
# Shear Modulus (GPa) = 34.48508 35.74152 35.11330
#
# Velocity S-wave (km/s) = 3.97966 4.05151 4.01575
# Velocity P-wave (km/s) = 6.75752 6.81757 6.78761
#
# Compressibility (1/GPa) = 0.01870947
#
# Stress axis : x y z
#
# Youngs Moduli (GPa) = 69.35562 69.35562 86.05300
#
# Poissons Ratio (x) = 0.41995 0.20735
# Poissons Ratio (y) = 0.41995 0.20735
# Poissons Ratio (z) = 0.16712 0.16712
#
# Static dielectric constant tensor:
#      x y z
#    x 4.123230 0.000000 0.000000 
#    y 0.000000 4.123230 0.000000 
#    z 0.000000 0.000000 3.867800 
# 
# 
# High freq. dielectric constant tensor:
#      x y z
#    x 1.858060 0.000000 0.000000 
#    y 0.000000 1.858060 0.000000 
#    z 0.000000 0.000000 1.866050 
# 
# From -- ./inp_files/5659.got.cif
#   From: 2010.03.12/outbox.cif.g09.slc.cpg/sg133_3_cif.got.tgz:5659.got - 2010.04.06 18:08:06.
