data_PCOD8317634
_publ_section_title
;
Structure prediction by ZEFSAII (Michael W. Deem and Ramdas Pophale) SiO2 
 PCOD8317634
Probable space group: P 42/M B C
;
_chemical_formula_sum "Si O2"
_cell_formula_units_Z 96
_cell_length_a 14.860806
_cell_length_b 14.860806
_cell_length_c 22.111065
_cell_angle_alpha 90.000000
_cell_angle_beta 90.000000
_cell_angle_gamma 90.000000
_cell_volume 4883.086199
_symmetry_space_group_name_H-M "P 42/M B C"
_symmetry_group_IT_number 135
_symmetry_cell_setting 'tetragonal'
loop_
_space_group_symop_operation_xyz
x,y,z
-y,x,1/2+z
-x,-y,z
y,-x,1/2+z
1/2+x,1/2-y,-z
1/2-x,1/2+y,-z
1/2+y,1/2+x,1/2-z
1/2-y,1/2-x,1/2-z
-x,-y,-z
y,-x,1/2-z
x,y,-z
-y,x,1/2-z
1/2-x,1/2+y,z
1/2+x,1/2-y,z
1/2-y,1/2-x,1/2+z
1/2+y,1/2+x,1/2+z
loop_
_atom_site_type_symbol
_atom_site_label
_atom_site_fract_x
_atom_site_fract_y
_atom_site_fract_z
Si Si1 0.337677 0.185785 0.320609
Si Si2 0.075280 0.075467 0.430115
Si Si3 0.238903 0.510806 0.379972
Si Si4 0.807259 0.667377 0.679547
Si Si5 0.760725 0.516033 0.879277
Si Si6 0.855538 0.514291 0.500000
Si Si7 0.977203 0.355609 0.500000
O O1 0.332360 0.167641 0.250000
O O2 0.322492 0.093511 0.357376
O O3 0.262986 0.257073 0.342044
O O4 0.436187 0.227539 0.331156
O O5 0.099942 0.102605 0.500000
O O6 0.159955 0.040281 0.392608
O O7 0.040962 0.157391 0.389288
O O8 0.000000 0.000000 0.431339
O O9 0.234985 0.431130 0.330960
O O10 0.202387 0.466226 0.441084
O O11 0.826353 0.673648 0.750000
O O12 0.898982 0.680874 0.642218
O O13 0.793636 0.476962 0.942192
O O14 0.939361 0.578821 0.500000
O O15 0.884499 0.410253 0.500000
#
# Coordination Sequence:
#
# PCOD8317634 Si02
#       7
#    16  16  16  16  16   8   8
#     4  11  25  43  65  91 128 170 218 267 313 375
#     4  11  24  40  63  96 134 169 208 260 324 394
#     4  12  22  42  66  94 128 168 213 260 325 381
#     4  11  25  43  65  91 128 170 218 267 313 375
#     4  12  22  42  66  94 128 168 213 260 325 381
#     4  11  22  37  60  95 131 162 196 259 329 386
#     4  11  22  37  60  95 131 162 196 259 329 386
#
# _framework density 19.659697000000001
#
# number of rings (size 3 to 8) (size 9 to 14) (size 15 to 20)
#    0.000    0.667    6.667    2.000    0.000    0.667 
#    0.000    3.333    0.000    0.000    0.000    0.000 
#    0.000    0.000    0.000    0.000    0.000    0.000 
#
# Total GULP energy -1190748.010875 kJ/mol
# GULP energy per Si atom -12403.625113 kJ/mol
# Density = 1.961495 g / cm^3
# Si number density = 19.659697 Si / 1000 Ang^3
#
#
#
# Elastic Constant Matrix: (Units=GPa)
#
#
# Indices 1 2 3 4 5 6 
#
# 1 107.3019 45.4015 40.6197 0.0000 0.0000 0.0000
# 2 45.4015 107.3017 40.6203 0.0000 0.0000 0.0000
# 3 40.6197 40.6203 72.6577 0.0000 0.0000 0.0000
# 4 0.0000 0.0000 0.0000 17.0058 0.0000 0.0000
# 5 0.0000 0.0000 0.0000 0.0000 17.0048 0.0000
# 6 0.0000 0.0000 0.0000 0.0000 0.0000 34.4785
#
#
#
# Elastic Compliance Matrix: (Units=1/GPa)
#
#
# Indices 1 2 3 4 5 6 
#
# 1 0.012738 -0.003417 -0.005211 0.000000 0.000000 0.000000
# 2 -0.003417 0.012738 -0.005211 0.000000 0.000000 0.000000
# 3 -0.005211 -0.005211 0.019590 0.000000 0.000000 0.000000
# 4 0.000000 0.000000 0.000000 0.058803 0.000000 0.000000
# 5 0.000000 0.000000 0.000000 0.000000 0.058807 0.000000
# 6 0.000000 0.000000 0.000000 0.000000 0.000000 0.029004
#
#
# Mechanical properties :
#
#
# Convention : Reuss Voigt Hill
#
# Bulk Modulus (GPa) = 57.51200 60.06048 58.78624
# Shear Modulus (GPa) = 22.20710 24.40583 23.30647
#
# Velocity S-wave (km/s) = 3.36456 3.52719 3.44684
# Velocity P-wave (km/s) = 6.66415 6.87055 6.76814
#
# Compressibility (1/GPa) = 0.01738767
#
# Stress axis : x y z
#
# Youngs Moduli (GPa) = 78.50585 78.50505 51.04736
#
# Poissons Ratio (x) = 0.26825 0.26600
# Poissons Ratio (y) = 0.26826 0.26601
# Poissons Ratio (z) = 0.40908 0.40910
#
# Static dielectric constant tensor:
#      x y z
#    x 3.671290 0.000000 0.000000 
#    y 0.000000 3.671290 0.000000 
#    z 0.000000 0.000000 3.597670 
# 
# 
# High freq. dielectric constant tensor:
#      x y z
#    x 1.773320 0.000000 0.000000 
#    y 0.000000 1.773320 0.000000 
#    z 0.000000 0.000000 1.774420 
# 
# From -- ./inp_files/5513.got.cif
#   From: 2010.03.12/outbox.cif.g09.slc.cpg/sg135_3_cif.got.tgz:5513.got - 2010.04.06 18:31:24.
