data_PCOD8317738
_publ_section_title
;
Structure prediction by ZEFSAII (Michael W. Deem and Ramdas Pophale) SiO2 
 PCOD8317738
Probable space group: P 42/M N M
;
_chemical_formula_sum "Si O2"
_cell_formula_units_Z 112
_cell_length_a 24.409807
_cell_length_b 24.409807
_cell_length_c 12.709023
_cell_angle_alpha 90.000000
_cell_angle_beta 90.000000
_cell_angle_gamma 90.000000
_cell_volume 7572.527460
_symmetry_space_group_name_H-M "P 42/M N M"
_symmetry_group_IT_number 136
_symmetry_cell_setting 'tetragonal'
loop_
_space_group_symop_operation_xyz
x,y,z
1/2-y,1/2+x,1/2+z
-x,-y,z
1/2+y,1/2-x,1/2+z
1/2+x,1/2-y,1/2-z
1/2-x,1/2+y,1/2-z
y,x,-z
-y,-x,-z
-x,-y,-z
1/2+y,1/2-x,1/2-z
x,y,-z
1/2-y,1/2+x,1/2-z
1/2-x,1/2+y,1/2+z
1/2+x,1/2-y,1/2+z
-y,-x,z
y,x,z
loop_
_atom_site_type_symbol
_atom_site_label
_atom_site_fract_x
_atom_site_fract_y
_atom_site_fract_z
Si Si1 0.384286 0.300228 0.875585
Si Si2 0.112956 0.971184 0.625278
Si Si3 0.712319 0.944156 0.622845
Si Si4 0.571759 0.812384 0.122487
Si Si5 0.834488 0.919720 0.375136
Si Si6 0.891906 0.413526 0.238426
Si Si7 0.494295 0.063640 0.380283
O O1 0.324706 0.324706 0.842857
O O2 0.431682 0.339408 0.830252
O O3 0.392319 0.238684 0.834745
O O4 0.390997 0.299416 0.000000
O O5 0.114442 0.971789 0.500000
O O6 0.053695 0.946306 0.661945
O O7 0.125662 0.031926 0.668854
O O8 0.706112 0.929078 0.500000
O O9 0.772456 0.926994 0.666284
O O10 0.669360 0.909561 0.692536
O O11 0.701213 0.008221 0.640896
O O12 0.592863 0.862506 0.189971
O O13 0.582374 0.825437 0.000000
O O14 0.832605 0.924136 0.500000
O O15 0.861707 0.861707 0.339745
O O16 0.932006 0.417578 0.138119
O O17 0.898844 0.467592 0.308383
O O18 0.511128 0.073674 0.500000
O O19 0.500000 0.000000 0.349854
#
# Coordination Sequence:
#
# PCOD8317738 Si02
#       7
#    16  16  16  16  16  16  16
#     4   8  13  23  40  61  84 109 139 174 208 243
#     4   8  12  19  34  57  83 108 135 168 203 243
#     4  10  19  31  45  61  84 115 148 177 211 258
#     4  10  18  29  46  64  84 113 145 176 214 259
#     4   9  16  26  40  59  85 116 146 174 207 250
#     4  12  19  31  43  63  81 112 144 181 217 261
#     4  11  20  31  44  62  86 108 135 178 230 268
#
# _framework density 14.790305999999999
#
# number of rings (size 3 to 8) (size 9 to 14) (size 15 to 20)
#    0.000    2.286    4.286    1.714    0.000    2.571 
#    0.000    2.143    0.000    0.000    0.000    0.000 
#    0.000    0.000    0.000    0.000    0.000    0.000 
#
# Total GULP energy -1387810.515991 kJ/mol
# GULP energy per Si atom -12391.165321 kJ/mol
# Density = 1.475664 g / cm^3
# Si number density = 14.790306 Si / 1000 Ang^3
#
#
#
# Elastic Constant Matrix: (Units=GPa)
#
#
# Indices 1 2 3 4 5 6 
#
# 1 97.4714 51.7568 24.2375 0.0000 0.0000 0.0000
# 2 51.7568 97.4714 24.2375 0.0000 0.0000 0.0000
# 3 24.2375 24.2375 36.7839 0.0000 0.0000 0.0000
# 4 0.0000 0.0000 0.0000 -3.1670 0.0000 0.0000
# 5 0.0000 0.0000 0.0000 0.0000 -3.1670 0.0000
# 6 0.0000 0.0000 0.0000 0.0000 0.0000 23.7680
#
#
#
# Elastic Compliance Matrix: (Units=1/GPa)
#
#
# Indices 1 2 3 4 5 6 
#
# 1 0.015200 -0.006674 -0.005618 0.000000 0.000000 0.000000
# 2 -0.006674 0.015200 -0.005618 0.000000 0.000000 0.000000
# 3 -0.005618 -0.005618 0.034589 0.000000 0.000000 0.000000
# 4 0.000000 0.000000 0.000000 -0.315760 0.000000 0.000000
# 5 0.000000 0.000000 0.000000 0.000000 -0.315760 0.000000
# 6 0.000000 0.000000 0.000000 0.000000 0.000000 0.042073
#
#
# Mechanical properties :
#
#
# Convention : Reuss Voigt Hill
#
# Bulk Modulus (GPa) = 34.28225 48.02116 41.15171
# Shear Modulus (GPa) = -10.44033 12.25315 0.90641
#
# Velocity S-wave (km/s) = -2.65974 2.88142 0.78369
# Velocity P-wave (km/s) = 3.71442 6.60368 5.35749
#
# Compressibility (1/GPa) = 0.02916961
#
# Stress axis : x y z
#
# Youngs Moduli (GPa) = 65.78751 65.78751 28.91062
#
# Poissons Ratio (x) = 0.43909 0.16242
# Poissons Ratio (y) = 0.43909 0.16242
# Poissons Ratio (z) = 0.36959 0.36959
#
# Static dielectric constant tensor:
#      x y z
#    x 3.029400 0.000000 0.000000 
#    y 0.000000 3.029400 0.000000 
#    z 0.000000 0.000000 2.412580 
# 
# 
# High freq. dielectric constant tensor:
#      x y z
#    x 1.565530 0.000000 0.000000 
#    y 0.000000 1.565530 0.000000 
#    z 0.000000 0.000000 1.505940 
# 
# From -- ./inp_files/3979.got.cif
#   From: 2010.03.12/outbox.cif.g09.slc.cpg/sg136_2_cif.got.tgz:3979.got - 2010.04.06 18:39:43.
