data_PCOD8317926
_publ_section_title
;
Structure prediction by ZEFSAII (Michael W. Deem and Ramdas Pophale) SiO2 
 PCOD8317926
Probable space group: P 42/M N M
;
_chemical_formula_sum "Si O2"
_cell_formula_units_Z 120
_cell_length_a 25.901940
_cell_length_b 25.901940
_cell_length_c 8.780893
_cell_angle_alpha 90.000000
_cell_angle_beta 90.000000
_cell_angle_gamma 90.000000
_cell_volume 5891.193276
_symmetry_space_group_name_H-M "P 42/M N M"
_symmetry_group_IT_number 136
_symmetry_cell_setting 'tetragonal'
loop_
_space_group_symop_operation_xyz
x,y,z
1/2-y,1/2+x,1/2+z
-x,-y,z
1/2+y,1/2-x,1/2+z
1/2+x,1/2-y,1/2-z
1/2-x,1/2+y,1/2-z
y,x,-z
-y,-x,-z
-x,-y,-z
1/2+y,1/2-x,1/2-z
x,y,-z
1/2-y,1/2+x,1/2-z
1/2-x,1/2+y,1/2+z
1/2+x,1/2-y,1/2+z
-y,-x,z
y,x,z
loop_
_atom_site_type_symbol
_atom_site_label
_atom_site_fract_x
_atom_site_fract_y
_atom_site_fract_z
Si Si1 0.982245 0.683194 0.181346
Si Si2 0.539614 0.460387 0.677171
Si Si3 0.266000 0.443250 0.822305
Si Si4 0.989151 0.856750 0.670782
Si Si5 0.294664 0.132849 0.823772
Si Si6 0.804621 0.886210 0.330877
Si Si7 0.923026 0.501772 0.180815
Si Si8 0.672549 0.756333 0.818689
O O1 0.922683 0.686910 0.243514
O O2 0.017443 0.731897 0.223543
O O3 0.008423 0.635571 0.267808
O O4 0.982840 0.675799 0.000000
O O5 0.500000 0.500000 0.757148
O O6 0.535076 0.464925 0.500000
O O7 0.522214 0.402946 0.716625
O O8 0.326744 0.457246 0.797746
O O9 0.260508 0.384442 0.764784
O O10 0.250627 0.448722 0.000000
O O11 0.986985 0.879383 0.500000
O O12 0.946791 0.811945 0.693598
O O13 0.233720 0.137083 0.793581
O O14 0.319708 0.185090 0.753412
O O15 0.306765 0.132475 0.000000
O O16 0.782388 0.875012 0.500000
O O17 0.860356 0.860356 0.308591
O O18 0.946707 0.452448 0.266796
O O19 0.928022 0.495336 0.000000
O O20 0.716068 0.716068 0.755028
O O21 0.676624 0.756716 0.000000
#
# Coordination Sequence:
#
# PCOD8317926 Si02
#       8
#    16   8  16  16  16  16  16  16
#     4  11  23  37  56  90 126 161 206 250 301 367
#     4  11  25  41  59  87 121 157 199 247 309 381
#     4  10  21  38  63  89 117 160 205 254 313 367
#     4  10  20  37  59  86 117 152 198 246 304 368
#     4  10  21  36  57  85 118 154 197 244 296 358
#     4  10  19  33  54  82 116 147 183 238 297 357
#     4  11  23  41  63  88 121 160 203 253 307 365
#     4   9  19  37  60  88 118 151 200 253 300 361
#
# _framework density 20.369385999999999
#
# number of rings (size 3 to 8) (size 9 to 14) (size 15 to 20)
#    0.000    1.800    2.000    2.600    1.867    3.467 
#    0.000    2.000    0.000    1.200    0.000    0.000 
#    0.000    0.000    0.000    0.000    0.000    0.000 
#
# Total GULP energy -1487466.124193 kJ/mol
# GULP energy per Si atom -12395.551035 kJ/mol
# Density = 2.032302 g / cm^3
# Si number density = 20.369386 Si / 1000 Ang^3
#
#
#
# Elastic Constant Matrix: (Units=GPa)
#
#
# Indices 1 2 3 4 5 6 
#
# 1 104.6620 38.9220 24.6677 0.0000 0.0000 0.0000
# 2 38.9220 104.6617 24.6676 0.0000 0.0000 0.0000
# 3 24.6677 24.6676 55.2752 0.0000 0.0000 0.0000
# 4 0.0000 0.0000 0.0000 20.0432 0.0000 0.0000
# 5 0.0000 0.0000 0.0000 0.0000 20.0425 0.0000
# 6 0.0000 0.0000 0.0000 0.0000 0.0000 24.3286
#
#
#
# Elastic Compliance Matrix: (Units=1/GPa)
#
#
# Indices 1 2 3 4 5 6 
#
# 1 0.011719 -0.003493 -0.003671 0.000000 0.000000 0.000000
# 2 -0.003493 0.011719 -0.003671 0.000000 0.000000 0.000000
# 3 -0.003671 -0.003671 0.021368 0.000000 0.000000 0.000000
# 4 0.000000 0.000000 0.000000 0.049892 0.000000 0.000000
# 5 0.000000 0.000000 0.000000 0.000000 0.049894 0.000000
# 6 0.000000 0.000000 0.000000 0.000000 0.000000 0.041104
#
#
# Mechanical properties :
#
#
# Convention : Reuss Voigt Hill
#
# Bulk Modulus (GPa) = 43.22323 49.01262 46.11792
# Shear Modulus (GPa) = 23.24753 24.63897 23.94325
#
# Velocity S-wave (km/s) = 3.38197 3.48172 3.43221
# Velocity P-wave (km/s) = 6.04286 6.34644 6.19651
#
# Compressibility (1/GPa) = 0.02313571
#
# Stress axis : x y z
#
# Youngs Moduli (GPa) = 85.33386 85.33361 46.79939
#
# Poissons Ratio (x) = 0.29805 0.17180
# Poissons Ratio (y) = 0.29805 0.17180
# Poissons Ratio (z) = 0.31326 0.31326
#
# Static dielectric constant tensor:
#      x y z
#    x 3.788300 0.000000 0.000000 
#    y 0.000000 3.788290 0.000000 
#    z 0.000000 0.000000 3.410750 
# 
# 
# High freq. dielectric constant tensor:
#      x y z
#    x 1.800710 0.000000 0.000000 
#    y 0.000000 1.800710 0.000000 
#    z 0.000000 0.000000 1.769310 
# 
# From -- ./inp_files/2299.got.cif
#   From: 2010.03.12/outbox.cif.g09.slc.cpg/sg136_2_cif.got.tgz:2299.got - 2010.04.06 18:39:43.
