data_PCOD8317576
_publ_section_title
;
Structure prediction by ZEFSAII (Michael W. Deem and Ramdas Pophale) SiO2 
 PCOD8317576
Probable space group: P 42/M B C
;
_chemical_formula_sum "Si O2"
_cell_formula_units_Z 96
_cell_length_a 15.043621
_cell_length_b 15.043621
_cell_length_c 21.034393
_cell_angle_alpha 90.000000
_cell_angle_beta 90.000000
_cell_angle_gamma 90.000000
_cell_volume 4760.304687
_symmetry_space_group_name_H-M "P 42/M B C"
_symmetry_group_IT_number 135
_symmetry_cell_setting 'tetragonal'
loop_
_space_group_symop_operation_xyz
x,y,z
-y,x,1/2+z
-x,-y,z
y,-x,1/2+z
1/2+x,1/2-y,-z
1/2-x,1/2+y,-z
1/2+y,1/2+x,1/2-z
1/2-y,1/2-x,1/2-z
-x,-y,-z
y,-x,1/2-z
x,y,-z
-y,x,1/2-z
1/2-x,1/2+y,z
1/2+x,1/2-y,z
1/2-y,1/2-x,1/2+z
1/2+y,1/2+x,1/2+z
loop_
_atom_site_type_symbol
_atom_site_label
_atom_site_fract_x
_atom_site_fract_y
_atom_site_fract_z
Si Si1 0.070524 0.691941 0.612938
Si Si2 0.111504 0.384072 0.431827
Si Si3 0.277126 0.257694 0.929750
Si Si4 0.743845 0.505581 0.766896
Si Si5 0.015517 0.601064 0.821548
Si Si6 0.328422 0.301761 0.789606
O O1 0.150142 0.736707 0.572701
O O2 0.028025 0.763385 0.660762
O O3 0.118939 0.615057 0.654284
O O4 0.988339 0.656029 0.571527
O O5 0.115168 0.433291 0.500000
O O6 0.191217 0.315134 0.428334
O O7 0.134492 0.451988 0.377104
O O8 0.325994 0.292346 0.866203
O O9 0.322235 0.277998 0.000000
O O10 0.846438 0.505677 0.743283
O O11 0.708518 0.605205 0.763258
O O12 0.693184 0.433989 0.723532
O O13 0.000000 0.500000 0.805607
O O14 0.276276 0.223724 0.750000
#
# Coordination Sequence:
#
# PCOD8317576 Si02
#       6
#    16  16  16  16  16  16
#     4  11  21  37  60  90 123 165 209 261 321 384
#     4  10  22  38  58  89 125 167 214 257 320 395
#     4  11  22  40  61  88 128 172 210 258 326 384
#     4  12  24  40  65  93 128 169 220 267 325 382
#     4  10  22  35  57  91 126 158 202 260 329 385
#     4  12  24  44  68  96 133 170 218 275 319 386
#
# _framework density 20.166775000000001
#
# number of rings (size 3 to 8) (size 9 to 14) (size 15 to 20)
#    0.000    1.000    5.000    2.000    2.333    6.000 
#    0.000    0.000    0.000    0.000    0.000    1.167 
#    0.000    0.500    0.000    0.000    0.000    0.000 
#
# Total GULP energy -1189268.172954 kJ/mol
# GULP energy per Si atom -12388.210135 kJ/mol
# Density = 2.012087 g / cm^3
# Si number density = 20.166775 Si / 1000 Ang^3
#
#
#
# Elastic Constant Matrix: (Units=GPa)
#
#
# Indices 1 2 3 4 5 6 
#
# 1 87.5260 32.6020 25.9269 0.0000 0.0000 0.0000
# 2 32.6020 87.5260 25.9269 0.0000 0.0000 0.0000
# 3 25.9269 25.9269 145.6573 0.0000 0.0000 0.0000
# 4 0.0000 0.0000 0.0000 40.7447 0.0000 0.0000
# 5 0.0000 0.0000 0.0000 0.0000 40.7447 0.0000
# 6 0.0000 0.0000 0.0000 0.0000 0.0000 30.5362
#
#
#
# Elastic Compliance Matrix: (Units=1/GPa)
#
#
# Indices 1 2 3 4 5 6 
#
# 1 0.013612 -0.004595 -0.001605 0.000000 0.000000 0.000000
# 2 -0.004595 0.013612 -0.001605 0.000000 0.000000 0.000000
# 3 -0.001605 -0.001605 0.007437 0.000000 0.000000 0.000000
# 4 0.000000 0.000000 0.000000 0.024543 0.000000 0.000000
# 5 0.000000 0.000000 0.000000 0.000000 0.024543 0.000000
# 6 0.000000 0.000000 0.000000 0.000000 0.000000 0.032748
#
#
# Mechanical properties :
#
#
# Convention : Reuss Voigt Hill
#
# Bulk Modulus (GPa) = 52.49032 54.40230 53.44631
# Shear Modulus (GPa) = 36.11264 38.15533 37.13398
#
# Velocity S-wave (km/s) = 4.23626 4.35442 4.29574
# Velocity P-wave (km/s) = 7.07195 7.23298 7.15292
#
# Compressibility (1/GPa) = 0.01905113
#
# Stress axis : x y z
#
# Youngs Moduli (GPa) = 73.46383 73.46383 134.46583
#
# Poissons Ratio (x) = 0.33756 0.21583
# Poissons Ratio (y) = 0.33756 0.21583
# Poissons Ratio (z) = 0.11791 0.11791
#
# Static dielectric constant tensor:
#      x y z
#    x 3.729010 0.000000 0.000000 
#    y 0.000000 3.729010 0.000000 
#    z 0.000000 0.000000 4.303500 
# 
# 
# High freq. dielectric constant tensor:
#      x y z
#    x 1.773330 0.000000 0.000000 
#    y 0.000000 1.773330 0.000000 
#    z 0.000000 0.000000 1.811570 
# 
# From -- ./inp_files/5414.got.cif
#   From: 2010.03.12/outbox.cif.g09.slc.cpg/sg135_3_cif.got.tgz:5414.got - 2010.04.06 18:31:24.
