data_PCOD8317650
_publ_section_title
;
Structure prediction by ZEFSAII (Michael W. Deem and Ramdas Pophale) SiO2 
 PCOD8317650
Probable space group: P 42/M B C
;
_chemical_formula_sum "Si O2"
_cell_formula_units_Z 112
_cell_length_a 14.654455
_cell_length_b 14.654455
_cell_length_c 23.030207
_cell_angle_alpha 90.000000
_cell_angle_beta 90.000000
_cell_angle_gamma 90.000000
_cell_volume 4945.807226
_symmetry_space_group_name_H-M "P 42/M B C"
_symmetry_group_IT_number 135
_symmetry_cell_setting 'tetragonal'
loop_
_space_group_symop_operation_xyz
x,y,z
-y,x,1/2+z
-x,-y,z
y,-x,1/2+z
1/2+x,1/2-y,-z
1/2-x,1/2+y,-z
1/2+y,1/2+x,1/2-z
1/2-y,1/2-x,1/2-z
-x,-y,-z
y,-x,1/2-z
x,y,-z
-y,x,1/2-z
1/2-x,1/2+y,z
1/2+x,1/2-y,z
1/2-y,1/2-x,1/2+z
1/2+y,1/2+x,1/2+z
loop_
_atom_site_type_symbol
_atom_site_label
_atom_site_fract_x
_atom_site_fract_y
_atom_site_fract_z
Si Si1 0.017588 0.276972 0.117417
Si Si2 0.595212 0.048782 0.146217
Si Si3 0.022861 0.249823 0.564594
Si Si4 0.851380 0.206329 0.240327
Si Si5 0.211547 0.171135 0.607243
Si Si6 0.460076 0.770358 0.248861
Si Si7 0.831603 0.834287 0.066916
O O1 0.075090 0.367274 0.100984
O O2 0.005035 0.305225 0.186068
O O3 0.075475 0.188524 0.100536
O O4 0.921162 0.261965 0.084485
O O5 0.668780 0.993787 0.108292
O O6 0.648574 0.071486 0.207124
O O7 0.500000 0.000000 0.160534
O O8 0.024939 0.290727 0.500000
O O9 0.117977 0.198063 0.575928
O O10 0.942914 0.175689 0.570376
O O11 0.802845 0.302845 0.250000
O O12 0.853943 0.182909 0.172419
O O13 0.795231 0.123522 0.268166
O O14 0.951111 0.213363 0.271301
O O15 0.284655 0.250776 0.601707
O O16 0.832957 0.800051 0.000000
#
# Coordination Sequence:
#
# PCOD8317650 Si02
#       7
#    16  16  16  16  16  16  16
#     4  11  25  41  67 102 136 179 234 282 351 424
#     4  12  25  43  71 105 143 185 236 289 354 429
#     4  11  25  45  69  99 140 185 236 303 361 416
#     4  11  24  41  65  98 138 183 229 279 349 417
#     4  11  23  43  67  97 136 181 229 292 350 421
#     4  11  25  41  67 100 140 184 222 288 345 424
#     4  11  24  44  70  96 134 183 232 295 358 414
#
# _framework density 22.645444999999999
#
# number of rings (size 3 to 8) (size 9 to 14) (size 15 to 20)
#    0.000    0.857    2.857    3.429    8.000    2.857 
#    0.000    4.286    0.000    0.000    0.000    0.000 
#    0.000    0.000    0.000    0.000    0.000    0.000 
#
# Total GULP energy -1387797.265556 kJ/mol
# GULP energy per Si atom -12391.047014 kJ/mol
# Density = 2.259390 g / cm^3
# Si number density = 22.645445 Si / 1000 Ang^3
#
#
#
# Elastic Constant Matrix: (Units=GPa)
#
#
# Indices 1 2 3 4 5 6 
#
# 1 116.6515 25.5899 2.8964 0.0000 0.0000 0.0000
# 2 25.5899 116.6515 2.8964 0.0000 0.0000 0.0000
# 3 2.8964 2.8964 63.0634 0.0000 0.0000 0.0000
# 4 0.0000 0.0000 0.0000 25.0358 0.0000 0.0000
# 5 0.0000 0.0000 0.0000 0.0000 25.0358 0.0000
# 6 0.0000 0.0000 0.0000 0.0000 0.0000 34.6586
#
#
#
# Elastic Compliance Matrix: (Units=1/GPa)
#
#
# Indices 1 2 3 4 5 6 
#
# 1 0.009013 -0.001969 -0.000323 0.000000 0.000000 0.000000
# 2 -0.001969 0.009013 -0.000323 0.000000 0.000000 0.000000
# 3 -0.000323 -0.000323 0.015887 0.000000 0.000000 0.000000
# 4 0.000000 0.000000 0.000000 0.039943 0.000000 0.000000
# 5 0.000000 0.000000 0.000000 0.000000 0.039943 0.000000
# 6 0.000000 0.000000 0.000000 0.000000 0.000000 0.028853
#
#
# Mechanical properties :
#
#
# Convention : Reuss Voigt Hill
#
# Bulk Modulus (GPa) = 34.86781 39.90353 37.38567
# Shear Modulus (GPa) = 31.75766 34.61161 33.18463
#
# Velocity S-wave (km/s) = 3.74891 3.91373 3.83221
# Velocity P-wave (km/s) = 5.84549 6.17109 6.01050
#
# Compressibility (1/GPa) = 0.02867975
#
# Stress axis : x y z
#
# Youngs Moduli (GPa) = 110.95664 110.95664 62.94542
#
# Poissons Ratio (x) = 0.21848 0.02036
# Poissons Ratio (y) = 0.21848 0.02036
# Poissons Ratio (z) = 0.03589 0.03589
#
# Static dielectric constant tensor:
#      x y z
#    x 4.271960 0.000000 0.000000 
#    y 0.000000 4.271960 0.000000 
#    z 0.000000 0.000000 4.058520 
# 
# 
# High freq. dielectric constant tensor:
#      x y z
#    x 1.896620 0.000000 0.000000 
#    y 0.000000 1.896620 0.000000 
#    z 0.000000 0.000000 1.887180 
# 
# From -- ./inp_files/6103.got.cif
#   From: 2010.03.12/outbox.cif.g09.slc.cpg/sg135_4_cif.got.tgz:6103.got - 2010.04.06 18:31:24.
