data_PCOD8317806
_publ_section_title
;
Structure prediction by ZEFSAII (Michael W. Deem and Ramdas Pophale) SiO2 
 PCOD8317806
Probable space group: P 42/M N M
;
_chemical_formula_sum "Si O2"
_cell_formula_units_Z 80
_cell_length_a 16.706371
_cell_length_b 16.706371
_cell_length_c 19.392382
_cell_angle_alpha 90.000000
_cell_angle_beta 90.000000
_cell_angle_gamma 90.000000
_cell_volume 5412.468735
_symmetry_space_group_name_H-M "P 42/M N M"
_symmetry_group_IT_number 136
_symmetry_cell_setting 'tetragonal'
loop_
_space_group_symop_operation_xyz
x,y,z
1/2-y,1/2+x,1/2+z
-x,-y,z
1/2+y,1/2-x,1/2+z
1/2+x,1/2-y,1/2-z
1/2-x,1/2+y,1/2-z
y,x,-z
-y,-x,-z
-x,-y,-z
1/2+y,1/2-x,1/2-z
x,y,-z
1/2-y,1/2+x,1/2-z
1/2-x,1/2+y,1/2+z
1/2+x,1/2-y,1/2+z
-y,-x,z
y,x,z
loop_
_atom_site_type_symbol
_atom_site_label
_atom_site_fract_x
_atom_site_fract_y
_atom_site_fract_z
Si Si1 0.822068 0.694012 0.079244
Si Si2 0.927800 0.390875 0.830354
Si Si3 0.930991 0.390298 0.671449
Si Si4 0.552245 0.325572 0.581687
Si Si5 0.257698 0.387043 0.419002
O O1 0.736064 0.736064 0.088866
O O2 0.824892 0.613785 0.124650
O O3 0.891921 0.752676 0.106336
O O4 0.836227 0.670507 0.000000
O O5 0.915256 0.368232 0.750734
O O6 0.885196 0.475205 0.845940
O O7 0.885133 0.325362 0.878116
O O8 0.021693 0.397786 0.846724
O O9 0.554099 0.328856 0.500000
O O10 0.590613 0.409388 0.609986
O O11 0.461847 0.311807 0.607593
O O12 0.238852 0.395822 0.500000
O O13 0.305922 0.305922 0.403324
#
# Coordination Sequence:
#
# PCOD8317806 Si02
#       5
#    16  16  16  16  16
#     4   9  16  26  43  66  86 105 136 176 212 247
#     4   9  18  30  43  62  85 113 145 174 209 252
#     4   9  17  30  46  61  84 112 141 178 213 251
#     4   8  14  25  40  59  84 111 138 168 202 241
#     4  10  19  29  42  62  89 117 146 177 205 247
#
# _framework density 14.780687
#
# number of rings (size 3 to 8) (size 9 to 14) (size 15 to 20)
#    0.000    3.000    2.000    2.400    0.000    2.000 
#    0.000    4.000    0.000    0.000    0.000    0.000 
#    0.000    0.800    0.000    4.400    0.000    0.000 
#
# Total GULP energy -991564.471437 kJ/mol
# GULP energy per Si atom -12394.555893 kJ/mol
# Density = 1.474705 g / cm^3
# Si number density = 14.780687 Si / 1000 Ang^3
#
#
#
# Elastic Constant Matrix: (Units=GPa)
#
#
# Indices 1 2 3 4 5 6 
#
# 1 83.3960 48.8551 49.4031 0.0000 0.0000 0.0000
# 2 48.8551 83.3960 49.4031 0.0000 0.0000 0.0000
# 3 49.4031 49.4031 62.1570 0.0000 0.0000 0.0000
# 4 0.0000 0.0000 0.0000 21.9332 0.0000 0.0000
# 5 0.0000 0.0000 0.0000 0.0000 21.9332 0.0000
# 6 0.0000 0.0000 0.0000 0.0000 0.0000 18.2271
#
#
#
# Elastic Compliance Matrix: (Units=1/GPa)
#
#
# Indices 1 2 3 4 5 6 
#
# 1 0.023783 -0.005168 -0.014796 0.000000 0.000000 0.000000
# 2 -0.005168 0.023783 -0.014796 0.000000 0.000000 0.000000
# 3 -0.014796 -0.014796 0.039608 0.000000 0.000000 0.000000
# 4 0.000000 0.000000 0.000000 0.045593 0.000000 0.000000
# 5 0.000000 0.000000 0.000000 0.000000 0.045593 0.000000
# 6 0.000000 0.000000 0.000000 0.000000 0.000000 0.054863
#
#
# Mechanical properties :
#
#
# Convention : Reuss Voigt Hill
#
# Bulk Modulus (GPa) = 56.63859 58.25238 57.44548
# Shear Modulus (GPa) = 16.20073 17.83787 17.01930
#
# Velocity S-wave (km/s) = 3.31429 3.47772 3.39699
# Velocity P-wave (km/s) = 7.28344 7.45807 7.37127
#
# Compressibility (1/GPa) = 0.01765581
#
# Stress axis : x y z
#
# Youngs Moduli (GPa) = 42.04629 42.04629 25.24749
#
# Poissons Ratio (x) = 0.21729 0.37355
# Poissons Ratio (y) = 0.21729 0.37355
# Poissons Ratio (z) = 0.62211 0.62211
#
# Static dielectric constant tensor:
#      x y z
#    x 2.808690 0.000000 0.000000 
#    y 0.000000 2.808690 0.000000 
#    z 0.000000 0.000000 2.630150 
# 
# 
# High freq. dielectric constant tensor:
#      x y z
#    x 1.551490 0.000000 0.000000 
#    y 0.000000 1.551490 0.000000 
#    z 0.000000 0.000000 1.541970 
# 
# From -- ./inp_files/7253.got.cif
#   From: 2010.03.12/outbox.cif.g09.slc.cpg/sg136_4_cif.got.tgz:7253.got - 2010.04.06 18:39:43.
