data_PCOD8317458
_publ_section_title
;
Structure prediction by ZEFSAII (Michael W. Deem and Ramdas Pophale) SiO2 
 PCOD8317458
Probable space group: P 42/M B C
;
_chemical_formula_sum "Si O2"
_cell_formula_units_Z 96
_cell_length_a 18.068005
_cell_length_b 18.068005
_cell_length_c 15.474391
_cell_angle_alpha 90.000000
_cell_angle_beta 90.000000
_cell_angle_gamma 90.000000
_cell_volume 5051.658343
_symmetry_space_group_name_H-M "P 42/M B C"
_symmetry_group_IT_number 135
_symmetry_cell_setting 'tetragonal'
loop_
_space_group_symop_operation_xyz
x,y,z
-y,x,1/2+z
-x,-y,z
y,-x,1/2+z
1/2+x,1/2-y,-z
1/2-x,1/2+y,-z
1/2+y,1/2+x,1/2-z
1/2-y,1/2-x,1/2-z
-x,-y,-z
y,-x,1/2-z
x,y,-z
-y,x,1/2-z
1/2-x,1/2+y,z
1/2+x,1/2-y,z
1/2-y,1/2-x,1/2+z
1/2+y,1/2+x,1/2+z
loop_
_atom_site_type_symbol
_atom_site_label
_atom_site_fract_x
_atom_site_fract_y
_atom_site_fract_z
Si Si1 0.476507 0.919035 0.396858
Si Si2 0.095547 0.925530 0.746906
Si Si3 0.840285 0.829579 0.900651
Si Si4 0.220584 0.562298 0.098480
Si Si5 0.416921 0.691987 0.404010
Si Si6 0.664644 0.164182 0.149566
O O1 0.475657 0.916285 0.500000
O O2 0.534085 0.856734 0.357838
O O3 0.393133 0.903134 0.363643
O O4 0.500000 0.000000 0.362621
O O5 0.135326 0.903358 0.658633
O O6 0.133938 0.890775 0.831880
O O7 0.012902 0.897198 0.746503
O O8 0.758739 0.860727 0.868470
O O9 0.850199 0.742097 0.895427
O O10 0.852670 0.854911 0.000000
O O11 0.284459 0.501492 0.111970
O O12 0.198529 0.573021 0.000000
O O13 0.407405 0.657370 0.500000
O O14 0.366841 0.764112 0.398233
O O15 0.678471 0.178471 0.250000
#
# Coordination Sequence:
#
# PCOD8317458 Si02
#       6
#    16  16  16  16  16  16
#     4   9  18  35  59  87 117 155 199 242 296 367
#     4  11  23  37  57  86 117 151 197 247 295 348
#     4  11  21  37  59  87 120 157 200 249 303 357
#     4   8  16  32  58  82 108 152 193 231 290 355
#     4  10  19  37  59  81 111 152 194 232 288 361
#     4  11  21  35  60  86 115 152 201 252 299 359
#
# _framework density 19.003661000000001
#
# number of rings (size 3 to 8) (size 9 to 14) (size 15 to 20)
#    0.000    2.000    3.333    2.500    0.000    1.000 
#    0.000    3.333    7.333    4.000    0.000    0.000 
#    0.000    0.000    0.000    0.000    0.000    0.000 
#
# Total GULP energy -1189701.528929 kJ/mol
# GULP energy per Si atom -12392.724260 kJ/mol
# Density = 1.896041 g / cm^3
# Si number density = 19.003661 Si / 1000 Ang^3
#
#
#
# Elastic Constant Matrix: (Units=GPa)
#
#
# Indices 1 2 3 4 5 6 
#
# 1 71.9192 86.4837 30.5344 0.0000 0.0000 0.0000
# 2 86.4837 71.9192 30.5344 0.0000 0.0000 0.0000
# 3 30.5344 30.5344 97.5510 0.0000 0.0000 0.0000
# 4 0.0000 0.0000 0.0000 20.8742 0.0000 0.0000
# 5 0.0000 0.0000 0.0000 0.0000 20.8742 0.0000
# 6 0.0000 0.0000 0.0000 0.0000 0.0000 14.9047
#
#
#
# Elastic Compliance Matrix: (Units=1/GPa)
#
#
# Indices 1 2 3 4 5 6 
#
# 1 -0.030740 0.037920 -0.002247 0.000000 0.000000 0.000000
# 2 0.037920 -0.030740 -0.002247 0.000000 0.000000 0.000000
# 3 -0.002247 -0.002247 0.011658 0.000000 0.000000 0.000000
# 4 0.000000 0.000000 0.000000 0.047906 0.000000 0.000000
# 5 0.000000 0.000000 0.000000 0.000000 0.047906 0.000000
# 6 0.000000 0.000000 0.000000 0.000000 0.000000 0.067093
#
#
# Mechanical properties :
#
#
# Convention : Reuss Voigt Hill
#
# Bulk Modulus (GPa) = 58.72766 59.61048 59.16907
# Shear Modulus (GPa) = 96.32643 17.58645 56.95644
#
# Velocity S-wave (km/s) = 7.12730 3.04538 5.48054
# Velocity P-wave (km/s) = 9.93487 6.61829 8.44107
#
# Compressibility (1/GPa) = 0.01702775
#
# Stress axis : x y z
#
# Youngs Moduli (GPa) = -32.53046 -32.53046 85.77920
#
# Poissons Ratio (x) = 1.23355 0.19276
# Poissons Ratio (y) = 1.23355 0.19276
# Poissons Ratio (z) = -0.07310 -0.07310
#
# Static dielectric constant tensor:
#      x y z
#    x 3.604330 0.000000 0.000000 
#    y 0.000000 3.604330 0.000000 
#    z 0.000000 0.000000 3.529660 
# 
# 
# High freq. dielectric constant tensor:
#      x y z
#    x 1.730380 0.000000 0.000000 
#    y 0.000000 1.730380 0.000000 
#    z 0.000000 0.000000 1.732940 
# 
# From -- ./inp_files/4469.got.cif
#   From: 2010.03.12/outbox.cif.g09.slc.cpg/sg135_3_cif.got.tgz:4469.got - 2010.04.06 18:31:24.
