data_PCOD8317967
_publ_section_title
;
Structure prediction by ZEFSAII (Michael W. Deem and Ramdas Pophale) SiO2 
 PCOD8317967
Probable space group: P 42/M N M
;
_chemical_formula_sum "Si O2"
_cell_formula_units_Z 80
_cell_length_a 12.080708
_cell_length_b 12.080708
_cell_length_c 28.043301
_cell_angle_alpha 90.000000
_cell_angle_beta 90.000000
_cell_angle_gamma 90.000000
_cell_volume 4092.737662
_symmetry_space_group_name_H-M "P 42/M N M"
_symmetry_group_IT_number 136
_symmetry_cell_setting 'tetragonal'
loop_
_space_group_symop_operation_xyz
x,y,z
1/2-y,1/2+x,1/2+z
-x,-y,z
1/2+y,1/2-x,1/2+z
1/2+x,1/2-y,1/2-z
1/2-x,1/2+y,1/2-z
y,x,-z
-y,-x,-z
-x,-y,-z
1/2+y,1/2-x,1/2-z
x,y,-z
1/2-y,1/2+x,1/2-z
1/2-x,1/2+y,1/2+z
1/2+x,1/2-y,1/2+z
-y,-x,z
y,x,z
loop_
_atom_site_type_symbol
_atom_site_label
_atom_site_fract_x
_atom_site_fract_y
_atom_site_fract_z
Si Si1 0.413885 0.586116 0.932122
Si Si2 0.181081 0.997224 0.179295
Si Si3 0.413179 0.586822 0.820920
Si Si4 0.579790 0.103029 0.358378
Si Si5 0.934732 0.245920 0.718458
Si Si6 0.760683 0.576907 0.052443
O O1 0.500000 0.500000 0.955638
O O2 0.420879 0.579122 0.876287
O O3 0.451492 0.709603 0.947695
O O4 0.107107 0.107107 0.190826
O O5 0.275984 0.021156 0.139949
O O6 0.249693 0.951988 0.224946
O O7 0.099638 0.900363 0.160309
O O8 0.500000 0.500000 0.796330
O O9 0.446780 0.708901 0.803720
O O10 0.639656 0.097489 0.306715
O O11 0.654139 0.094788 0.405226
O O12 0.500000 0.000000 0.361514
O O13 0.839339 0.160662 0.703410
O O14 0.661691 0.661691 0.062342
O O15 0.815301 0.596995 0.000000
#
# Coordination Sequence:
#
# PCOD8317967 Si02
#       6
#     8  16   8  16  16  16
#     4   9  15  28  55  94 122 138 178 237 294 361
#     4  10  22  41  63  84 113 162 215 255 289 341
#     4   9  14  27  54  85 114 140 179 224 284 354
#     4  12  26  39  54  87 126 159 194 244 305 364
#     4  10  19  35  58  84 113 153 197 238 290 350
#     4  10  20  37  63  90 116 152 196 242 298 360
#
# _framework density 19.546818999999999
#
# number of rings (size 3 to 8) (size 9 to 14) (size 15 to 20)
#    0.000    1.800    3.000    2.100    2.800    1.600 
#    3.600    0.000    0.000    0.600    0.000    2.800 
#    0.000    0.000    0.000    0.000    0.000    0.000 
#
# Total GULP energy -991169.612657 kJ/mol
# GULP energy per Si atom -12389.620158 kJ/mol
# Density = 1.950233 g / cm^3
# Si number density = 19.546819 Si / 1000 Ang^3
#
#
#
# Elastic Constant Matrix: (Units=GPa)
#
#
# Indices 1 2 3 4 5 6 
#
# 1 93.6199 57.0049 49.1567 0.0000 0.0000 0.0000
# 2 57.0049 93.6199 49.1567 0.0000 0.0000 0.0000
# 3 49.1567 49.1567 96.0964 0.0000 0.0000 0.0000
# 4 0.0000 0.0000 0.0000 21.6385 0.0000 0.0000
# 5 0.0000 0.0000 0.0000 0.0000 21.6385 0.0000
# 6 0.0000 0.0000 0.0000 0.0000 0.0000 28.6285
#
#
#
# Elastic Compliance Matrix: (Units=1/GPa)
#
#
# Indices 1 2 3 4 5 6 
#
# 1 0.018639 -0.008672 -0.005098 0.000000 0.000000 0.000000
# 2 -0.008672 0.018639 -0.005098 0.000000 0.000000 0.000000
# 3 -0.005098 -0.005098 0.015622 0.000000 0.000000 0.000000
# 4 0.000000 0.000000 0.000000 0.046214 0.000000 0.000000
# 5 0.000000 0.000000 0.000000 0.000000 0.046214 0.000000
# 6 0.000000 0.000000 0.000000 0.000000 0.000000 0.034930
#
#
# Mechanical properties :
#
#
# Convention : Reuss Voigt Hill
#
# Bulk Modulus (GPa) = 65.95311 65.99698 65.97504
# Shear Modulus (GPa) = 22.41650 22.91564 22.66607
#
# Velocity S-wave (km/s) = 3.39013 3.42767 3.40895
# Velocity P-wave (km/s) = 7.00988 7.03577 7.02283
#
# Compressibility (1/GPa) = 0.01516229
#
# Stress axis : x y z
#
# Youngs Moduli (GPa) = 53.65102 53.65102 64.01161
#
# Poissons Ratio (x) = 0.46528 0.32635
# Poissons Ratio (y) = 0.46528 0.32635
# Poissons Ratio (z) = 0.27353 0.27353
#
# Static dielectric constant tensor:
#      x y z
#    x 3.642040 0.000000 0.000000 
#    y 0.000000 3.642040 0.000000 
#    z 0.000000 0.000000 3.402920 
# 
# 
# High freq. dielectric constant tensor:
#      x y z
#    x 1.746070 0.000000 0.000000 
#    y 0.000000 1.746070 0.000000 
#    z 0.000000 0.000000 1.748370 
# 
# From -- ./inp_files/9587.got.cif
#   From: 2010.03.12/outbox.cif.g09.slc.cpg/sg136_5_cif.got.tgz:9587.got - 2010.04.06 18:39:43.
