data_PCOD8317709
_publ_section_title
;
Structure prediction by ZEFSAII (Michael W. Deem and Ramdas Pophale) SiO2 
 PCOD8317709
Probable space group: P 42/M N M
;
_chemical_formula_sum "Si O2"
_cell_formula_units_Z 64
_cell_length_a 11.825198
_cell_length_b 11.825198
_cell_length_c 28.073219
_cell_angle_alpha 90.000000
_cell_angle_beta 90.000000
_cell_angle_gamma 90.000000
_cell_volume 3925.627218
_symmetry_space_group_name_H-M "P 42/M N M"
_symmetry_group_IT_number 136
_symmetry_cell_setting 'tetragonal'
loop_
_space_group_symop_operation_xyz
x,y,z
1/2-y,1/2+x,1/2+z
-x,-y,z
1/2+y,1/2-x,1/2+z
1/2+x,1/2-y,1/2-z
1/2-x,1/2+y,1/2-z
y,x,-z
-y,-x,-z
-x,-y,-z
1/2+y,1/2-x,1/2-z
x,y,-z
1/2-y,1/2+x,1/2-z
1/2-x,1/2+y,1/2+z
1/2+x,1/2-y,1/2+z
-y,-x,z
y,x,z
loop_
_atom_site_type_symbol
_atom_site_label
_atom_site_fract_x
_atom_site_fract_y
_atom_site_fract_z
Si Si1 0.869466 0.498730 0.305456
Si Si2 0.207402 0.393089 0.137175
Si Si3 0.265337 0.082010 0.710157
Si Si4 0.005644 0.184451 0.446772
O O1 0.857674 0.423777 0.353820
O O2 0.842553 0.631967 0.313031
O O3 0.790411 0.442545 0.265529
O O4 0.000000 0.500000 0.288377
O O5 0.280371 0.280371 0.131307
O O6 0.251106 0.463579 0.182798
O O7 0.216895 0.473264 0.090480
O O8 0.149587 0.149587 0.705776
O O9 0.010288 0.236454 0.500000
O O10 0.911544 0.088457 0.443956
O O11 0.126555 0.126555 0.433900
#
# Coordination Sequence:
#
# PCOD8317709 Si02
#       4
#    16  16  16  16
#     4  10  17  31  43  58  85 120 149 177 213 266
#     4  10  18  29  47  68  89 116 150 183 220 269
#     4  11  19  29  45  62  85 117 151 186 223 261
#     4   8  14  25  41  65  96 120 141 181 234 275
#
# _framework density 16.303128000000001
#
# number of rings (size 3 to 8) (size 9 to 14) (size 15 to 20)
#    0.000    2.250    5.000    2.250    0.000    1.500 
#    0.000    0.000    0.000    9.000    0.000    0.000 
#    0.000    0.000    0.000    6.250    0.000    0.000 
#
# Total GULP energy -792862.758679 kJ/mol
# GULP energy per Si atom -12388.480604 kJ/mol
# Density = 1.626602 g / cm^3
# Si number density = 16.303128 Si / 1000 Ang^3
#
#
#
# Elastic Constant Matrix: (Units=GPa)
#
#
# Indices 1 2 3 4 5 6 
#
# 1 31.5102 -9.6162 3.0791 0.0000 0.0000 0.0000
# 2 -9.6162 31.5102 3.0791 0.0000 0.0000 0.0000
# 3 3.0791 3.0791 79.1440 0.0000 0.0000 0.0000
# 4 0.0000 0.0000 0.0000 18.5975 0.0000 0.0000
# 5 0.0000 0.0000 0.0000 0.0000 18.5975 0.0000
# 6 0.0000 0.0000 0.0000 0.0000 0.0000 16.5673
#
#
#
# Elastic Compliance Matrix: (Units=1/GPa)
#
#
# Indices 1 2 3 4 5 6 
#
# 1 0.035248 0.010932 -0.001797 0.000000 0.000000 0.000000
# 2 0.010932 0.035248 -0.001797 0.000000 0.000000 0.000000
# 3 -0.001797 -0.001797 0.012775 0.000000 0.000000 0.000000
# 4 0.000000 0.000000 0.000000 0.053771 0.000000 0.000000
# 5 0.000000 0.000000 0.000000 0.000000 0.053771 0.000000
# 6 0.000000 0.000000 0.000000 0.000000 0.000000 0.060360
#
#
# Mechanical properties :
#
#
# Convention : Reuss Voigt Hill
#
# Bulk Modulus (GPa) = 10.20949 15.02762 12.61856
# Shear Modulus (GPa) = 18.57750 20.46061 19.51906
#
# Velocity S-wave (km/s) = 3.37932 3.54646 3.46390
# Velocity P-wave (km/s) = 4.63705 5.09975 4.87390
#
# Compressibility (1/GPa) = 0.09794804
#
# Stress axis : x y z
#
# Youngs Moduli (GPa) = 28.37078 28.37078 78.27794
#
# Poissons Ratio (x) = -0.31016 0.14064
# Poissons Ratio (y) = -0.31016 0.14064
# Poissons Ratio (z) = 0.05097 0.05097
#
# Static dielectric constant tensor:
#      x y z
#    x 3.093880 0.000000 0.000000 
#    y 0.000000 3.093880 0.000000 
#    z 0.000000 0.000000 3.153590 
# 
# 
# High freq. dielectric constant tensor:
#      x y z
#    x 1.602980 0.000000 0.000000 
#    y 0.000000 1.602980 0.000000 
#    z 0.000000 0.000000 1.611880 
# 
# From -- ./inp_files/8821.got.cif
#   From: 2010.03.12/outbox.cif.g09.slc.cpg/sg136_5_cif.got.tgz:8821.got - 2010.04.06 18:39:43.
