data_PCOD8317762
_publ_section_title
;
Structure prediction by ZEFSAII (Michael W. Deem and Ramdas Pophale) SiO2 
 PCOD8317762
Probable space group: P 42/M N M
;
_chemical_formula_sum "Si O2"
_cell_formula_units_Z 112
_cell_length_a 15.205689
_cell_length_b 15.205689
_cell_length_c 24.711195
_cell_angle_alpha 90.000000
_cell_angle_beta 90.000000
_cell_angle_gamma 90.000000
_cell_volume 5713.548985
_symmetry_space_group_name_H-M "P 42/M N M"
_symmetry_group_IT_number 136
_symmetry_cell_setting 'tetragonal'
loop_
_space_group_symop_operation_xyz
x,y,z
1/2-y,1/2+x,1/2+z
-x,-y,z
1/2+y,1/2-x,1/2+z
1/2+x,1/2-y,1/2-z
1/2-x,1/2+y,1/2-z
y,x,-z
-y,-x,-z
-x,-y,-z
1/2+y,1/2-x,1/2-z
x,y,-z
1/2-y,1/2+x,1/2-z
1/2-x,1/2+y,1/2+z
1/2+x,1/2-y,1/2+z
-y,-x,z
y,x,z
loop_
_atom_site_type_symbol
_atom_site_label
_atom_site_fract_x
_atom_site_fract_y
_atom_site_fract_z
Si Si1 0.750118 0.013713 0.938521
Si Si2 0.357732 0.495062 0.664917
Si Si3 0.742870 0.115224 0.664526
Si Si4 0.194594 0.662195 0.060418
Si Si5 0.223353 0.082068 0.662389
Si Si6 0.184010 0.675176 0.559723
Si Si7 0.121819 0.263744 0.778119
O O1 0.681022 0.092354 0.931439
O O2 0.829792 0.023362 0.896880
O O3 0.695544 0.926211 0.924971
O O4 0.787768 0.011537 0.000000
O O5 0.429132 0.570869 0.665875
O O6 0.404351 0.404351 0.686695
O O7 0.272550 0.526154 0.700678
O O8 0.819326 0.180675 0.682344
O O9 0.722015 0.117572 0.600658
O O10 0.652547 0.142532 0.696416
O O11 0.781568 0.019957 0.677174
O O12 0.246654 0.753347 0.068146
O O13 0.224342 0.594054 0.106438
O O14 0.212296 0.623281 0.000000
O O15 0.125843 0.125843 0.658189
O O16 0.274600 0.124870 0.713188
O O17 0.143149 0.686499 0.500000
O O18 0.280167 0.719834 0.563607
O O19 0.192407 0.192407 0.798649
#
# Coordination Sequence:
#
# PCOD8317762 Si02
#       7
#    16  16  16  16  16  16  16
#     4  10  18  30  52  80 111 150 192 229 266 328
#     4  10  19  30  49  79 115 150 183 228 277 321
#     4  10  20  37  61  84 112 148 181 227 287 339
#     4   9  19  36  55  77 108 145 183 227 286 344
#     4  10  22  39  61  85 109 142 187 238 285 339
#     4   9  17  31  54  82 113 152 191 227 276 338
#     4   9  19  37  55  77 112 148 185 223 274 344
#
# _framework density 19.602528
#
# number of rings (size 3 to 8) (size 9 to 14) (size 15 to 20)
#    0.000    2.429    1.429    0.857    0.000    4.286 
#    0.000    4.286    0.000    2.571    0.000    4.000 
#    0.000    0.000    0.000    0.000    0.000    0.000 
#
# Total GULP energy -1387973.038639 kJ/mol
# GULP energy per Si atom -12392.616416 kJ/mol
# Density = 1.955791 g / cm^3
# Si number density = 19.602528 Si / 1000 Ang^3
#
#
#
# Elastic Constant Matrix: (Units=GPa)
#
#
# Indices 1 2 3 4 5 6 
#
# 1 83.2357 34.9354 30.4074 0.0000 0.0000 0.0000
# 2 34.9354 83.2357 30.4074 0.0000 0.0000 0.0000
# 3 30.4074 30.4074 102.8889 0.0000 0.0000 0.0000
# 4 0.0000 0.0000 0.0000 18.4168 0.0000 0.0000
# 5 0.0000 0.0000 0.0000 0.0000 18.4168 0.0000
# 6 0.0000 0.0000 0.0000 0.0000 0.0000 20.9785
#
#
#
# Elastic Compliance Matrix: (Units=1/GPa)
#
#
# Indices 1 2 3 4 5 6 
#
# 1 0.015342 -0.005362 -0.002950 0.000000 0.000000 0.000000
# 2 -0.005362 0.015342 -0.002950 0.000000 0.000000 0.000000
# 3 -0.002950 -0.002950 0.011463 0.000000 0.000000 0.000000
# 4 0.000000 0.000000 0.000000 0.054298 0.000000 0.000000
# 5 0.000000 0.000000 0.000000 0.000000 0.054298 0.000000
# 6 0.000000 0.000000 0.000000 0.000000 0.000000 0.047668
#
#
# Mechanical properties :
#
#
# Convention : Reuss Voigt Hill
#
# Bulk Modulus (GPa) = 50.95547 51.20675 51.08111
# Shear Modulus (GPa) = 21.98048 23.13641 22.55845
#
# Velocity S-wave (km/s) = 3.35223 3.43924 3.39601
# Velocity P-wave (km/s) = 6.40578 6.47691 6.44144
#
# Compressibility (1/GPa) = 0.01962498
#
# Stress axis : x y z
#
# Youngs Moduli (GPa) = 65.18050 65.18050 87.24024
#
# Poissons Ratio (x) = 0.34948 0.25732
# Poissons Ratio (y) = 0.34948 0.25732
# Poissons Ratio (z) = 0.19225 0.19225
#
# Static dielectric constant tensor:
#      x y z
#    x 3.375020 0.000000 0.000000 
#    y 0.000000 3.375020 0.000000 
#    z 0.000000 0.000000 3.770090 
# 
# 
# High freq. dielectric constant tensor:
#      x y z
#    x 1.736620 0.000000 0.000000 
#    y 0.000000 1.736620 0.000000 
#    z 0.000000 0.000000 1.780250 
# 
# From -- ./inp_files/8495.got.cif
#   From: 2010.03.12/outbox.cif.g09.slc.cpg/sg136_5_cif.got.tgz:8495.got - 2010.04.06 18:39:43.
