data_PCOD8317036
_publ_section_title
;
Structure prediction by ZEFSAII (Michael W. Deem and Ramdas Pophale) SiO2 
 PCOD8317036
Probable space group: P 42/N B C
;
_chemical_formula_sum "Si O2"
_cell_formula_units_Z 96
_cell_length_a 14.185829
_cell_length_b 14.185829
_cell_length_c 23.003820
_cell_angle_alpha 90.000000
_cell_angle_beta 90.000000
_cell_angle_gamma 90.000000
_cell_volume 4629.236850
_symmetry_space_group_name_H-M "P 42/N B C"
_symmetry_group_IT_number 133
_space_group.IT_coordinate_system_code '2'
_symmetry_cell_setting 'tetragonal'
loop_
_space_group_symop_operation_xyz
x,y,z
1/2-y,x,1/2+z
1/2-x,1/2-y,z
y,1/2-x,1/2+z
x,1/2-y,-z
1/2-x,y,-z
y,x,1/2-z
1/2-y,1/2-x,1/2-z
-x,-y,-z
1/2+y,-x,1/2-z
1/2+x,1/2+y,-z
-y,1/2+x,1/2-z
-x,1/2+y,z
1/2+x,-y,z
-y,-x,1/2+z
1/2+y,1/2+x,1/2+z
loop_
_atom_site_type_symbol
_atom_site_label
_atom_site_fract_x
_atom_site_fract_y
_atom_site_fract_z
Si Si1 0.670708 0.121141 0.244828
Si Si2 0.251884 0.009418 0.562255
Si Si3 0.535026 0.200303 0.623880
Si Si4 0.891101 0.096979 0.633530
Si Si5 0.044581 0.989879 0.563712
Si Si6 0.154422 0.293703 0.563019
O O1 0.630715 0.224027 0.228884
O O2 0.663824 0.050993 0.189818
O O3 0.607465 0.080749 0.297239
O O4 0.250000 0.956660 0.500000
O O5 0.144384 0.043137 0.573878
O O6 0.326290 0.095159 0.556265
O O7 0.289799 0.936182 0.609482
O O8 0.597573 0.293779 0.615282
O O9 0.425816 0.225405 0.610998
O O10 0.563394 0.120592 0.577113
O O11 0.975034 0.033465 0.610364
O O12 0.000000 0.000000 0.500000
O O13 0.250000 0.250000 0.588377
O O14 0.127354 0.250000 0.500000
#
# Coordination Sequence:
#
# PCOD8317036 Si02
#       6
#    16  16  16  16  16  16
#     4   9  20  43  68  95 133 176 225 276 342 401
#     4  12  22  41  61  98 139 173 210 280 338 400
#     4  11  24  42  68  99 129 179 226 279 334 406
#     4  11  24  41  69  99 131 174 225 281 332 400
#     4  12  25  41  64  99 140 173 223 272 339 405
#     4  11  22  38  67  95 134 184 222 264 339 411
#
# _framework density 20.737760000000002
#
# number of rings (size 3 to 8) (size 9 to 14) (size 15 to 20)
#    0.000    1.000    5.000    2.000    2.333    2.667 
#    0.000    0.833    0.000    4.000    0.000    0.000 
#    0.000    0.000    0.000    0.000    0.000    0.000 
#
# Total GULP energy -1190090.115236 kJ/mol
# GULP energy per Si atom -12396.772034 kJ/mol
# Density = 2.069056 g / cm^3
# Si number density = 20.737760 Si / 1000 Ang^3
#
#
#
# Elastic Constant Matrix: (Units=GPa)
#
#
# Indices 1 2 3 4 5 6 
#
# 1 113.2422 28.9869 71.8429 0.0000 0.0000 0.0000
# 2 28.9869 113.2422 71.8429 0.0000 0.0000 0.0000
# 3 71.8429 71.8429 134.3898 0.0000 0.0000 0.0000
# 4 0.0000 0.0000 0.0000 38.6841 0.0000 0.0000
# 5 0.0000 0.0000 0.0000 0.0000 38.6841 0.0000
# 6 0.0000 0.0000 0.0000 0.0000 0.0000 36.8445
#
#
#
# Elastic Compliance Matrix: (Units=1/GPa)
#
#
# Indices 1 2 3 4 5 6 
#
# 1 0.013578 0.001709 -0.008172 0.000000 0.000000 0.000000
# 2 0.001709 0.013578 -0.008172 0.000000 0.000000 0.000000
# 3 -0.008172 -0.008172 0.016178 0.000000 0.000000 0.000000
# 4 0.000000 0.000000 0.000000 0.025850 0.000000 0.000000
# 5 0.000000 0.000000 0.000000 0.000000 0.025850 0.000000
# 6 0.000000 0.000000 0.000000 0.000000 0.000000 0.027141
#
#
# Mechanical properties :
#
#
# Convention : Reuss Voigt Hill
#
# Bulk Modulus (GPa) = 71.10600 78.46887 74.78743
# Shear Modulus (GPa) = 32.02386 35.38929 33.70658
#
# Velocity S-wave (km/s) = 3.93393 4.13548 4.03596
# Velocity P-wave (km/s) = 7.41600 7.79254 7.60660
#
# Compressibility (1/GPa) = 0.01406351
#
# Stress axis : x y z
#
# Youngs Moduli (GPa) = 73.65043 73.65043 61.81108
#
# Poissons Ratio (x) = -0.12587 0.50512
# Poissons Ratio (y) = -0.12587 0.50512
# Poissons Ratio (z) = 0.60187 0.60187
#
# Static dielectric constant tensor:
#      x y z
#    x 3.915780 0.000000 0.000000 
#    y 0.000000 3.915780 0.000000 
#    z 0.000000 0.000000 3.656080 
# 
# 
# High freq. dielectric constant tensor:
#      x y z
#    x 1.815860 0.000000 0.000000 
#    y 0.000000 1.815860 0.000000 
#    z 0.000000 0.000000 1.798620 
# 
# From -- ./inp_files/6548.got.cif
#   From: 2010.03.12/outbox.cif.g09.slc.cpg/sg133_4_cif.got.tgz:6548.got - 2010.04.06 18:08:06.
