data_PCOD8317546
_publ_section_title
;
Structure prediction by ZEFSAII (Michael W. Deem and Ramdas Pophale) SiO2 
 PCOD8317546
Probable space group: P 42/M B C
;
_chemical_formula_sum "Si O2"
_cell_formula_units_Z 116
_cell_length_a 17.932171
_cell_length_b 17.932171
_cell_length_c 17.277482
_cell_angle_alpha 90.000000
_cell_angle_beta 90.000000
_cell_angle_gamma 90.000000
_cell_volume 5555.794742
_symmetry_space_group_name_H-M "P 42/M B C"
_symmetry_group_IT_number 135
_symmetry_cell_setting 'tetragonal'
loop_
_space_group_symop_operation_xyz
x,y,z
-y,x,1/2+z
-x,-y,z
y,-x,1/2+z
1/2+x,1/2-y,-z
1/2-x,1/2+y,-z
1/2+y,1/2+x,1/2-z
1/2-y,1/2-x,1/2-z
-x,-y,-z
y,-x,1/2-z
x,y,-z
-y,x,1/2-z
1/2-x,1/2+y,z
1/2+x,1/2-y,z
1/2-y,1/2-x,1/2+z
1/2+y,1/2+x,1/2+z
loop_
_atom_site_type_symbol
_atom_site_label
_atom_site_fract_x
_atom_site_fract_y
_atom_site_fract_z
Si Si1 0.144160 0.930258 0.676150
Si Si2 0.782267 0.333354 0.588332
Si Si3 0.714039 0.401612 0.909073
Si Si4 0.000000 0.000000 0.250000
Si Si5 0.551644 0.061661 0.087537
Si Si6 0.496395 0.782380 0.088401
Si Si7 0.551907 0.218672 0.412486
Si Si8 0.274061 0.331942 0.200500
O O1 0.120272 0.869190 0.613238
O O2 0.209566 0.981155 0.640440
O O3 0.174492 0.886633 0.750187
O O4 0.072529 0.980991 0.697593
O O5 0.760494 0.311572 0.500000
O O6 0.843674 0.275815 0.622443
O O7 0.809224 0.418126 0.592146
O O8 0.712293 0.329822 0.645074
O O9 0.732085 0.484355 0.877467
O O10 0.722404 0.404190 0.000000
O O11 0.548474 0.145829 0.123035
O O12 0.633269 0.026501 0.088107
O O13 0.500000 0.000000 0.130684
O O14 0.521402 0.072355 0.000000
O O15 0.472707 0.763081 0.000000
O O16 0.573225 0.243772 0.500000
O O17 0.621974 0.221699 0.356550
O O18 0.221703 0.278298 0.250000
#
# Coordination Sequence:
#
# PCOD8317546 Si02
#       8
#    16  16  16   4  16  16  16  16
#     4  12  24  43  61  90 125 173 222 268 327 390
#     4  10  21  39  63  91 121 157 209 265 319 378
#     4  10  21  39  64  92 123 160 210 268 323 380
#     4  12  28  44  62  80 128 184 220 278 336 396
#     4   9  17  32  58  91 124 156 193 244 313 380
#     4  10  21  38  64  93 124 165 212 265 319 386
#     4  10  21  37  60  89 120 157 202 257 311 373
#     4  12  23  39  61  90 122 161 208 259 321 380
#
# _framework density 20.879100999999999
#
# number of rings (size 3 to 8) (size 9 to 14) (size 15 to 20)
#    0.000    1.517    1.379    4.138    0.000    3.310 
#    0.000    2.759    0.000    2.897    0.000    0.000 
#    0.000    0.000    0.000    0.000    0.000    0.000 
#
# Total GULP energy -1438098.997511 kJ/mol
# GULP energy per Si atom -12397.405151 kJ/mol
# Density = 2.083158 g / cm^3
# Si number density = 20.879101 Si / 1000 Ang^3
#
#
#
# Elastic Constant Matrix: (Units=GPa)
#
#
# Indices 1 2 3 4 5 6 
#
# 1 102.7312 31.7862 20.4145 0.0000 0.0000 0.0000
# 2 31.7862 102.7314 20.4147 0.0000 0.0000 0.0000
# 3 20.4145 20.4147 48.7245 0.0000 0.0000 0.0000
# 4 0.0000 0.0000 0.0000 30.5511 0.0000 0.0000
# 5 0.0000 0.0000 0.0000 0.0000 30.5508 0.0000
# 6 0.0000 0.0000 0.0000 0.0000 0.0000 41.4268
#
#
#
# Elastic Compliance Matrix: (Units=1/GPa)
#
#
# Indices 1 2 3 4 5 6 
#
# 1 0.011306 -0.002789 -0.003568 0.000000 0.000000 0.000000
# 2 -0.002789 0.011306 -0.003569 0.000000 0.000000 0.000000
# 3 -0.003568 -0.003569 0.023514 0.000000 0.000000 0.000000
# 4 0.000000 0.000000 0.000000 0.032732 0.000000 0.000000
# 5 0.000000 0.000000 0.000000 0.000000 0.032732 0.000000
# 6 0.000000 0.000000 0.000000 0.000000 0.000000 0.024139
#
#
# Mechanical properties :
#
#
# Convention : Reuss Voigt Hill
#
# Bulk Modulus (GPa) = 38.06040 44.37975 41.22008
# Shear Modulus (GPa) = 30.42474 32.61052 31.51763
#
# Velocity S-wave (km/s) = 3.82145 3.95634 3.88948
# Velocity P-wave (km/s) = 6.14328 6.49399 6.32107
#
# Compressibility (1/GPa) = 0.02627403
#
# Stress axis : x y z
#
# Youngs Moduli (GPa) = 88.44669 88.44664 42.52824
#
# Poissons Ratio (x) = 0.24669 0.15176
# Poissons Ratio (y) = 0.24669 0.15176
# Poissons Ratio (z) = 0.31562 0.31562
#
# Static dielectric constant tensor:
#      x y z
#    x 3.837920 0.000000 0.000000 
#    y 0.000000 3.837930 0.000000 
#    z 0.000000 0.000000 3.640600 
# 
# 
# High freq. dielectric constant tensor:
#      x y z
#    x 1.824370 0.000000 0.000000 
#    y 0.000000 1.824370 0.000000 
#    z 0.000000 0.000000 1.798720 
# 
# From -- ./inp_files/4619.got.cif
#   From: 2010.03.12/outbox.cif.g09.slc.cpg/sg135_3_cif.got.tgz:4619.got - 2010.04.06 18:31:24.
