data_PCOD8317621
_publ_section_title
;
Structure prediction by ZEFSAII (Michael W. Deem and Ramdas Pophale) SiO2 
 PCOD8317621
Probable space group: P 42/M B C
;
_chemical_formula_sum "Si O2"
_cell_formula_units_Z 112
_cell_length_a 14.702412
_cell_length_b 14.702412
_cell_length_c 26.972949
_cell_angle_alpha 90.000000
_cell_angle_beta 90.000000
_cell_angle_gamma 90.000000
_cell_volume 5830.497434
_symmetry_space_group_name_H-M "P 42/M B C"
_symmetry_group_IT_number 135
_symmetry_cell_setting 'tetragonal'
loop_
_space_group_symop_operation_xyz
x,y,z
-y,x,1/2+z
-x,-y,z
y,-x,1/2+z
1/2+x,1/2-y,-z
1/2-x,1/2+y,-z
1/2+y,1/2+x,1/2-z
1/2-y,1/2-x,1/2-z
-x,-y,-z
y,-x,1/2-z
x,y,-z
-y,x,1/2-z
1/2-x,1/2+y,z
1/2+x,1/2-y,z
1/2-y,1/2-x,1/2+z
1/2+y,1/2+x,1/2+z
loop_
_atom_site_type_symbol
_atom_site_label
_atom_site_fract_x
_atom_site_fract_y
_atom_site_fract_z
Si Si1 0.010816 0.149699 0.805854
Si Si2 0.149838 0.631791 0.558691
Si Si3 0.227861 0.309209 0.057411
Si Si4 0.425350 0.433942 0.442930
Si Si5 0.002489 0.756172 0.597565
Si Si6 0.985693 0.851702 0.693990
Si Si7 0.960861 0.739339 0.900041
O O1 0.015571 0.187230 0.749768
O O2 0.024717 0.234697 0.842484
O O3 0.913359 0.103141 0.815433
O O4 0.089332 0.076046 0.815118
O O5 0.135146 0.624644 0.500000
O O6 0.234813 0.696706 0.571980
O O7 0.164852 0.533021 0.582368
O O8 0.056059 0.664457 0.584296
O O9 0.267233 0.409673 0.066605
O O10 0.140054 0.299305 0.092306
O O11 0.199779 0.297223 0.000000
O O12 0.500000 0.500000 0.418017
O O13 0.446990 0.420940 0.500000
O O14 0.428838 0.336324 0.417688
O O15 0.327181 0.477496 0.434558
O O16 0.983270 0.766130 0.656411
#
# Coordination Sequence:
#
# PCOD8317621 Si02
#       7
#    16  16  16  16  16  16  16
#     4   9  17  32  57  87 114 144 191 252 308 351
#     4  11  23  38  57  84 118 156 199 244 294 354
#     4  11  23  38  57  84 118 156 199 244 294 354
#     4  11  20  32  56  84 107 139 191 247 298 342
#     4  12  22  37  57  81 119 156 193 240 293 351
#     4   9  17  32  57  87 114 144 191 252 308 351
#     4  12  22  37  57  81 119 156 193 240 293 351
#
# _framework density 19.209339
#
# number of rings (size 3 to 8) (size 9 to 14) (size 15 to 20)
#    0.000    1.286    2.857    6.000    0.000    2.857 
#    0.000    2.857    0.000    5.143    0.000    2.000 
#    0.000    0.000    0.000    0.000    0.000    0.000 
#
# Total GULP energy -1389084.605747 kJ/mol
# GULP energy per Si atom -12402.541123 kJ/mol
# Density = 1.916562 g / cm^3
# Si number density = 19.209339 Si / 1000 Ang^3
#
#
#
# Elastic Constant Matrix: (Units=GPa)
#
#
# Indices 1 2 3 4 5 6 
#
# 1 46.4133 -5.4362 21.7321 0.0000 0.0000 0.0000
# 2 -5.4362 46.4133 21.7321 0.0000 0.0000 0.0000
# 3 21.7321 21.7321 120.2488 0.0000 0.0000 0.0000
# 4 0.0000 0.0000 0.0000 25.7115 0.0000 0.0000
# 5 0.0000 0.0000 0.0000 0.0000 25.7115 0.0000
# 6 0.0000 0.0000 0.0000 0.0000 0.0000 30.2896
#
#
#
# Elastic Compliance Matrix: (Units=1/GPa)
#
#
# Indices 1 2 3 4 5 6 
#
# 1 0.024739 0.005452 -0.005456 0.000000 0.000000 0.000000
# 2 0.005452 0.024739 -0.005456 0.000000 0.000000 0.000000
# 3 -0.005456 -0.005456 0.010288 0.000000 0.000000 0.000000
# 4 0.000000 0.000000 0.000000 0.038893 0.000000 0.000000
# 5 0.000000 0.000000 0.000000 0.000000 0.038893 0.000000
# 6 0.000000 0.000000 0.000000 0.000000 0.000000 0.033015
#
#
# Mechanical properties :
#
#
# Convention : Reuss Voigt Hill
#
# Bulk Modulus (GPa) = 20.47264 32.12568 26.29916
# Shear Modulus (GPa) = 25.28193 28.01235 26.64714
#
# Velocity S-wave (km/s) = 3.63178 3.82287 3.72855
# Velocity P-wave (km/s) = 5.31669 6.02047 5.67949
#
# Compressibility (1/GPa) = 0.04884568
#
# Stress axis : x y z
#
# Youngs Moduli (GPa) = 40.42200 40.42200 97.19772
#
# Poissons Ratio (x) = -0.22040 0.53035
# Poissons Ratio (y) = -0.22040 0.53035
# Poissons Ratio (z) = 0.22056 0.22056
#
# Static dielectric constant tensor:
#      x y z
#    x 3.328070 0.000000 0.000000 
#    y 0.000000 3.328070 0.000000 
#    z 0.000000 0.000000 3.608310 
# 
# 
# High freq. dielectric constant tensor:
#      x y z
#    x 1.729380 0.000000 0.000000 
#    y 0.000000 1.729380 0.000000 
#    z 0.000000 0.000000 1.750360 
# 
# From -- ./inp_files/6501.got.cif
#   From: 2010.03.12/outbox.cif.g09.slc.cpg/sg135_4_cif.got.tgz:6501.got - 2010.04.06 18:31:24.
