data_PCOD8317168
_publ_section_title
;
Structure prediction by ZEFSAII (Michael W. Deem and Ramdas Pophale) SiO2 
 PCOD8317168
Probable space group: P 42/N N M
;
_chemical_formula_sum "Si O2"
_cell_formula_units_Z 58
_cell_length_a 20.537232
_cell_length_b 20.537232
_cell_length_c 7.406888
_cell_angle_alpha 90.000000
_cell_angle_beta 90.000000
_cell_angle_gamma 90.000000
_cell_volume 3124.061653
_symmetry_space_group_name_H-M "P 42/N N M"
_symmetry_group_IT_number 134
_space_group.IT_coordinate_system_code '2'
_symmetry_cell_setting 'tetragonal'
loop_
_space_group_symop_operation_xyz
x,y,z
1/2-y,x,1/2+z
1/2-x,1/2-y,z
y,1/2-x,1/2+z
x,1/2-y,1/2-z
1/2-x,y,1/2-z
y,x,-z
1/2-y,1/2-x,-z
-x,-y,-z
1/2+y,-x,1/2-z
1/2+x,1/2+y,-z
-y,1/2+x,1/2-z
-x,1/2+y,1/2+z
1/2+x,-y,1/2+z
-y,-x,z
1/2+y,1/2+x,z
loop_
_atom_site_type_symbol
_atom_site_label
_atom_site_fract_x
_atom_site_fract_y
_atom_site_fract_z
Si Si1 0.750000 0.250000 0.750000
Si Si2 0.889592 0.389592 0.228084
Si Si3 0.426513 0.073488 0.000000
Si Si4 0.999793 0.699064 0.904107
Si Si5 0.346169 0.653832 0.117876
Si Si6 0.003715 0.503715 0.716667
Si Si7 0.250000 0.948503 0.250000
O O1 0.791246 0.291246 0.607846
O O2 0.831228 0.427281 0.125829
O O3 0.863392 0.363392 0.415501
O O4 0.943017 0.443017 0.254776
O O5 0.353340 0.058525 0.931890
O O6 0.473330 0.061069 0.824358
O O7 0.979336 0.750000 0.750000
O O8 0.004317 0.742472 0.081378
O O9 0.316620 0.592789 0.225745
O O10 0.000000 0.500000 0.500000
#
# Coordination Sequence:
#
# PCOD8317168 Si02
#       7
#     2   8   8  16   8   8   8
#     4   8  20  32  44  74 112 154 200 228 262 312
#     4  10  20  36  52  81 114 142 186 241 275 341
#     4   9  22  36  52  84 117 140 186 248 279 349
#     4  11  22  38  56  83 114 151 191 239 299 346
#     4  10  19  34  51  78 110 153 192 232 271 328
#     4   9  19  33  56  79 111 149 179 220 299 347
#     4  11  22  35  58  78 113 152 195 230 280 342
#
# _framework density 18.565574000000002
#
# number of rings (size 3 to 8) (size 9 to 14) (size 15 to 20)
#    0.000    1.931    2.759    1.655    3.862    0.000 
#    0.000    1.379    0.000    0.000    0.000    2.897 
#    0.000    0.000    0.000    0.000    0.000    0.000 
#
# Total GULP energy -718530.883446 kJ/mol
# GULP energy per Si atom -12388.463508 kJ/mol
# Density = 1.852332 g / cm^3
# Si number density = 18.565574 Si / 1000 Ang^3
#
#
#
# Elastic Constant Matrix: (Units=GPa)
#
#
# Indices 1 2 3 4 5 6 
#
# 1 72.9368 40.0776 36.0574 0.0000 0.0000 0.0000
# 2 40.0776 72.9360 36.0563 0.0000 0.0000 0.0000
# 3 36.0574 36.0563 143.3642 0.0000 0.0000 0.0000
# 4 0.0000 0.0000 0.0000 -11.4639 0.0000 0.0000
# 5 0.0000 0.0000 0.0000 0.0000 -11.4699 0.0000
# 6 0.0000 0.0000 0.0000 0.0000 0.0000 23.5305
#
#
#
# Elastic Compliance Matrix: (Units=1/GPa)
#
#
# Indices 1 2 3 4 5 6 
#
# 1 0.020487 -0.009947 -0.002651 0.000000 0.000000 0.000000
# 2 -0.009947 0.020487 -0.002651 0.000000 0.000000 0.000000
# 3 -0.002651 -0.002651 0.008309 0.000000 0.000000 0.000000
# 4 0.000000 0.000000 0.000000 -0.087230 0.000000 0.000000
# 5 0.000000 0.000000 0.000000 0.000000 -0.087185 0.000000
# 6 0.000000 0.000000 0.000000 0.000000 0.000000 0.042498
#
#
# Mechanical properties :
#
#
# Convention : Reuss Voigt Hill
#
# Bulk Modulus (GPa) = 53.23352 57.06882 55.15117
# Shear Modulus (GPa) = -108.98783 11.92239 -48.53272
#
# Velocity S-wave (km/s) = -7.67018 2.53687 -5.11840
# Velocity P-wave (km/s) = 7.05030 6.27589 2.27157
#
# Compressibility (1/GPa) = 0.01878516
#
# Stress axis : x y z
#
# Youngs Moduli (GPa) = 48.81254 48.81232 120.35656
#
# Poissons Ratio (x) = 0.48552 0.31906
# Poissons Ratio (y) = 0.48552 0.31903
# Poissons Ratio (z) = 0.12940 0.12939
#
# Static dielectric constant tensor:
#      x y z
#    x 3.475750 0.000000 0.000000 
#    y 0.000000 3.475750 0.000000 
#    z 0.000000 0.000000 3.486970 
# 
# 
# High freq. dielectric constant tensor:
#      x y z
#    x 1.696350 0.000000 0.000000 
#    y 0.000000 1.696350 0.000000 
#    z 0.000000 0.000000 1.736490 
# 
# From -- ./inp_files/907.got.cif
#   From: 2010.03.12/outbox.cif.g09.slc.cpg/sg134_1_cif.got.tgz:907.got - 2010.04.06 18:17:22.
