data_PCOD8317723
_publ_section_title
;
Structure prediction by ZEFSAII (Michael W. Deem and Ramdas Pophale) SiO2 
 PCOD8317723
Probable space group: P 42/M N M
;
_chemical_formula_sum "Si O2"
_cell_formula_units_Z 104
_cell_length_a 20.834128
_cell_length_b 20.834128
_cell_length_c 14.900383
_cell_angle_alpha 90.000000
_cell_angle_beta 90.000000
_cell_angle_gamma 90.000000
_cell_volume 6467.673499
_symmetry_space_group_name_H-M "P 42/M N M"
_symmetry_group_IT_number 136
_symmetry_cell_setting 'tetragonal'
loop_
_space_group_symop_operation_xyz
x,y,z
1/2-y,1/2+x,1/2+z
-x,-y,z
1/2+y,1/2-x,1/2+z
1/2+x,1/2-y,1/2-z
1/2-x,1/2+y,1/2-z
y,x,-z
-y,-x,-z
-x,-y,-z
1/2+y,1/2-x,1/2-z
x,y,-z
1/2-y,1/2+x,1/2-z
1/2-x,1/2+y,1/2+z
1/2+x,1/2-y,1/2+z
-y,-x,z
y,x,z
loop_
_atom_site_type_symbol
_atom_site_label
_atom_site_fract_x
_atom_site_fract_y
_atom_site_fract_z
Si Si1 0.282997 0.615976 0.401440
Si Si2 0.675016 0.570702 0.896975
Si Si3 0.162220 0.266224 0.723106
Si Si4 0.550080 0.550080 0.606918
Si Si5 0.131718 0.761482 0.767744
Si Si6 0.816062 0.921483 0.604124
Si Si7 0.030303 0.808053 0.897442
O O1 0.255266 0.632628 0.500000
O O2 0.355205 0.644796 0.391875
O O3 0.237104 0.646766 0.328363
O O4 0.283357 0.540925 0.386352
O O5 0.606185 0.606185 0.883144
O O6 0.728557 0.603152 0.832582
O O7 0.667359 0.495369 0.872459
O O8 0.698306 0.578746 0.000000
O O9 0.217153 0.217153 0.694094
O O10 0.190805 0.337874 0.715242
O O11 0.101067 0.247093 0.661106
O O12 0.500000 0.500000 0.649524
O O13 0.546670 0.546670 0.500000
O O14 0.532917 0.620418 0.642495
O O15 0.183537 0.816464 0.788484
O O16 0.075437 0.762560 0.840061
O O17 0.798272 0.913490 0.500000
O O18 0.878432 0.878432 0.629302
O O19 0.053931 0.806630 0.000000
#
# Coordination Sequence:
#
# PCOD8317723 Si02
#       7
#    16  16  16   8  16  16  16
#     4   9  17  29  45  64  86 115 150 185 224 264
#     4   9  18  31  47  66  90 120 152 190 230 266
#     4   9  18  30  44  61  84 119 156 194 225 260
#     4   9  16  26  40  60  89 125 155 175 207 255
#     4  10  19  30  43  61  89 121 156 189 225 267
#     4   9  17  30  47  66  89 119 155 190 225 267
#     4  10  18  28  43  64  92 121 148 184 220 263
#
# _framework density 16.079969999999999
#
# number of rings (size 3 to 8) (size 9 to 14) (size 15 to 20)
#    0.000    2.692    0.769    1.385    0.000    3.385 
#    0.000    6.923    0.000    0.000    0.000    0.000 
#    0.000    9.846    0.000   27.077    0.000    1.231 
#
# Total GULP energy -1288918.307102 kJ/mol
# GULP energy per Si atom -12393.445261 kJ/mol
# Density = 1.604337 g / cm^3
# Si number density = 16.079970 Si / 1000 Ang^3
#
#
#
# Elastic Constant Matrix: (Units=GPa)
#
#
# Indices 1 2 3 4 5 6 
#
# 1 70.2168 52.3525 42.9914 0.0000 0.0000 0.0000
# 2 52.3525 70.2168 42.9914 0.0000 0.0000 0.0000
# 3 42.9914 42.9914 73.6296 0.0000 0.0000 0.0000
# 4 0.0000 0.0000 0.0000 18.2359 0.0000 0.0000
# 5 0.0000 0.0000 0.0000 0.0000 18.2359 0.0000
# 6 0.0000 0.0000 0.0000 0.0000 0.0000 25.5772
#
#
#
# Elastic Compliance Matrix: (Units=1/GPa)
#
#
# Indices 1 2 3 4 5 6 
#
# 1 0.034898 -0.021079 -0.008069 0.000000 0.000000 0.000000
# 2 -0.021079 0.034898 -0.008069 0.000000 0.000000 0.000000
# 3 -0.008069 -0.008069 0.023004 0.000000 0.000000 0.000000
# 4 0.000000 0.000000 0.000000 0.054837 0.000000 0.000000
# 5 0.000000 0.000000 0.000000 0.000000 0.054837 0.000000
# 6 0.000000 0.000000 0.000000 0.000000 0.000000 0.039097
#
#
# Mechanical properties :
#
#
# Convention : Reuss Voigt Hill
#
# Bulk Modulus (GPa) = 54.44562 54.52597 54.48580
# Shear Modulus (GPa) = 15.52185 17.45835 16.49010
#
# Velocity S-wave (km/s) = 3.11028 3.29860 3.20583
# Velocity P-wave (km/s) = 6.84334 6.96352 6.90369
#
# Compressibility (1/GPa) = 0.01836695
#
# Stress axis : x y z
#
# Youngs Moduli (GPa) = 28.65479 28.65479 43.47101
#
# Poissons Ratio (x) = 0.60403 0.35075
# Poissons Ratio (y) = 0.60403 0.35075
# Poissons Ratio (z) = 0.23120 0.23120
#
# Static dielectric constant tensor:
#      x y z
#    x 2.918000 0.000000 0.000000 
#    y 0.000000 2.918000 0.000000 
#    z 0.000000 0.000000 3.197970 
# 
# 
# High freq. dielectric constant tensor:
#      x y z
#    x 1.589890 0.000000 0.000000 
#    y 0.000000 1.589890 0.000000 
#    z 0.000000 0.000000 1.630710 
# 
# From -- ./inp_files/5269.got.cif
#   From: 2010.03.12/outbox.cif.g09.slc.cpg/sg136_3_cif.got.tgz:5269.got - 2010.04.06 18:39:43.
