data_PCOD8317887
_publ_section_title
;
Structure prediction by ZEFSAII (Michael W. Deem and Ramdas Pophale) SiO2 
 PCOD8317887
Probable space group: P 42/M N M
;
_chemical_formula_sum "Si O2"
_cell_formula_units_Z 120
_cell_length_a 27.480609
_cell_length_b 27.480609
_cell_length_c 9.075601
_cell_angle_alpha 90.000000
_cell_angle_beta 90.000000
_cell_angle_gamma 90.000000
_cell_volume 6853.747495
_symmetry_space_group_name_H-M "P 42/M N M"
_symmetry_group_IT_number 136
_symmetry_cell_setting 'tetragonal'
loop_
_space_group_symop_operation_xyz
x,y,z
1/2-y,1/2+x,1/2+z
-x,-y,z
1/2+y,1/2-x,1/2+z
1/2+x,1/2-y,1/2-z
1/2-x,1/2+y,1/2-z
y,x,-z
-y,-x,-z
-x,-y,-z
1/2+y,1/2-x,1/2-z
x,y,-z
1/2-y,1/2+x,1/2-z
1/2-x,1/2+y,1/2+z
1/2+x,1/2-y,1/2+z
-y,-x,z
y,x,z
loop_
_atom_site_type_symbol
_atom_site_label
_atom_site_fract_x
_atom_site_fract_y
_atom_site_fract_z
Si Si1 0.348916 0.867497 0.824823
Si Si2 0.340095 0.056070 0.167460
Si Si3 0.604808 0.528467 0.169920
Si Si4 0.959107 0.959107 0.163809
Si Si5 0.707484 0.497615 0.168578
Si Si6 0.739001 0.815996 0.329363
Si Si7 0.188556 0.462847 0.825127
Si Si8 0.907207 0.769349 0.835922
O O1 0.403558 0.869162 0.760419
O O2 0.319856 0.817722 0.781749
O O3 0.320413 0.910950 0.747907
O O4 0.351113 0.874746 0.000000
O O5 0.284785 0.072259 0.164686
O O6 0.345457 0.004273 0.250818
O O7 0.360576 0.051926 0.000000
O O8 0.577251 0.577251 0.226685
O O9 0.587878 0.480186 0.254543
O O10 0.662456 0.534305 0.196821
O O11 0.592707 0.519661 0.000000
O O12 0.943794 0.943794 0.000000
O O13 0.000000 0.000000 0.164401
O O14 0.755677 0.526064 0.215738
O O15 0.697855 0.447839 0.257290
O O16 0.711562 0.481416 0.000000
O O17 0.743013 0.829077 0.500000
O O18 0.762396 0.762396 0.296484
O O19 0.771624 0.855651 0.245609
O O20 0.178768 0.461339 0.000000
O O21 0.899254 0.789195 0.000000
#
# Coordination Sequence:
#
# PCOD8317887 Si02
#       8
#    16  16  16   8  16  16  16  16
#     4  10  19  32  52  77 103 134 172 209 249 297
#     4   9  17  31  51  74  99 128 164 205 247 289
#     4   9  17  31  50  68  88 121 165 207 248 299
#     4   9  17  29  45  65  87 111 145 193 247 299
#     4   9  18  32  49  69  95 127 163 203 247 295
#     4   9  18  33  51  70  97 134 170 203 242 292
#     4  10  19  32  51  76 104 133 167 206 247 295
#     4   9  17  29  47  70  94 121 156 201 248 292
#
# _framework density 17.508669000000001
#
# number of rings (size 3 to 8) (size 9 to 14) (size 15 to 20)
#    0.000    2.733    0.000    1.800    0.000    5.867 
#    1.200    0.667    0.000    1.200    0.000    2.800 
#    0.000    0.000    0.000    0.000    0.000    0.000 
#
# Total GULP energy -1487472.817511 kJ/mol
# GULP energy per Si atom -12395.606813 kJ/mol
# Density = 1.746882 g / cm^3
# Si number density = 17.508669 Si / 1000 Ang^3
#
#
#
# Elastic Constant Matrix: (Units=GPa)
#
#
# Indices 1 2 3 4 5 6 
#
# 1 96.6863 51.9016 47.8659 0.0000 0.0000 0.0000
# 2 51.9016 96.6863 47.8659 0.0000 0.0000 0.0000
# 3 47.8659 47.8659 96.2170 0.0000 0.0000 0.0000
# 4 0.0000 0.0000 0.0000 23.9695 0.0000 0.0000
# 5 0.0000 0.0000 0.0000 0.0000 23.9695 0.0000
# 6 0.0000 0.0000 0.0000 0.0000 0.0000 19.5515
#
#
#
# Elastic Compliance Matrix: (Units=1/GPa)
#
#
# Indices 1 2 3 4 5 6 
#
# 1 0.016117 -0.006212 -0.004927 0.000000 0.000000 0.000000
# 2 -0.006212 0.016117 -0.004927 0.000000 0.000000 0.000000
# 3 -0.004927 -0.004927 0.015296 0.000000 0.000000 0.000000
# 4 0.000000 0.000000 0.000000 0.041720 0.000000 0.000000
# 5 0.000000 0.000000 0.000000 0.000000 0.041720 0.000000
# 6 0.000000 0.000000 0.000000 0.000000 0.000000 0.051147
#
#
# Mechanical properties :
#
#
# Convention : Reuss Voigt Hill
#
# Bulk Modulus (GPa) = 64.95391 64.98406 64.96899
# Shear Modulus (GPa) = 22.79136 22.96183 22.87660
#
# Velocity S-wave (km/s) = 3.61185 3.62533 3.61860
# Velocity P-wave (km/s) = 7.38733 7.39729 7.39231
#
# Compressibility (1/GPa) = 0.01539553
#
# Stress axis : x y z
#
# Youngs Moduli (GPa) = 62.04699 62.04699 65.37806
#
# Poissons Ratio (x) = 0.38545 0.32214
# Poissons Ratio (y) = 0.38545 0.32214
# Poissons Ratio (z) = 0.30573 0.30573
#
# Static dielectric constant tensor:
#      x y z
#    x 3.180210 0.000000 0.000000 
#    y 0.000000 3.180210 0.000000 
#    z 0.000000 0.000000 3.440610 
# 
# 
# High freq. dielectric constant tensor:
#      x y z
#    x 1.658150 0.000000 0.000000 
#    y 0.000000 1.658150 0.000000 
#    z 0.000000 0.000000 1.687230 
# 
# From -- ./inp_files/2291.got.cif
#   From: 2010.03.12/outbox.cif.g09.slc.cpg/sg136_2_cif.got.tgz:2291.got - 2010.04.06 18:39:43.
