data_PCOD8317971
_publ_section_title
;
Structure prediction by ZEFSAII (Michael W. Deem and Ramdas Pophale) SiO2 
 PCOD8317971
Probable space group: P 42/M N M
;
_chemical_formula_sum "Si O2"
_cell_formula_units_Z 88
_cell_length_a 11.748576
_cell_length_b 11.748576
_cell_length_c 32.247893
_cell_angle_alpha 90.000000
_cell_angle_beta 90.000000
_cell_angle_gamma 90.000000
_cell_volume 4451.145649
_symmetry_space_group_name_H-M "P 42/M N M"
_symmetry_group_IT_number 136
_symmetry_cell_setting 'tetragonal'
loop_
_space_group_symop_operation_xyz
x,y,z
1/2-y,1/2+x,1/2+z
-x,-y,z
1/2+y,1/2-x,1/2+z
1/2+x,1/2-y,1/2-z
1/2-x,1/2+y,1/2-z
y,x,-z
-y,-x,-z
-x,-y,-z
1/2+y,1/2-x,1/2-z
x,y,-z
1/2-y,1/2+x,1/2-z
1/2-x,1/2+y,1/2+z
1/2+x,1/2-y,1/2+z
-y,-x,z
y,x,z
loop_
_atom_site_type_symbol
_atom_site_label
_atom_site_fract_x
_atom_site_fract_y
_atom_site_fract_z
Si Si1 0.116573 0.702033 0.574393
Si Si2 0.484660 0.126304 0.623947
Si Si3 0.762664 0.422276 0.701750
Si Si4 0.311020 0.502248 0.000000
Si Si5 0.259398 0.445020 0.783129
Si Si6 0.756239 0.936024 0.365505
O O1 0.236535 0.763466 0.564172
O O2 0.138652 0.566643 0.582853
O O3 0.021465 0.727965 0.539182
O O4 0.064040 0.756383 0.616244
O O5 0.513252 0.218414 0.658573
O O6 0.349683 0.136004 0.614783
O O7 0.500000 0.000000 0.642900
O O8 0.662558 0.337443 0.691411
O O9 0.723198 0.508550 0.737068
O O10 0.875213 0.357407 0.716595
O O11 0.412342 0.412342 0.000000
O O12 0.370625 0.629376 0.000000
O O13 0.367399 0.367399 0.794736
O O14 0.250589 0.549737 0.815662
O O15 0.870690 0.870690 0.378404
#
# Coordination Sequence:
#
# PCOD8317971 Si02
#       6
#    16  16  16   8  16  16
#     4  10  19  35  59  86 114 150 188 230 285 347
#     4  10  20  36  54  75 106 145 190 228 279 346
#     4  11  22  35  52  73 102 138 184 240 284 335
#     4   9  18  32  55  92 129 153 183 237 302 357
#     4  11  23  36  53  78 105 144 194 245 297 345
#     4  11  22  36  55  80 111 147 188 237 288 342
#
# _framework density 19.770191000000001
#
# number of rings (size 3 to 8) (size 9 to 14) (size 15 to 20)
#    0.000    1.545    3.636    3.273    0.000    5.455 
#    0.000    4.091    0.000    1.636    0.000    0.000 
#    0.000    2.182    0.000    0.000    0.000    5.818 
#
# Total GULP energy -1090657.572435 kJ/mol
# GULP energy per Si atom -12393.836050 kJ/mol
# Density = 1.972519 g / cm^3
# Si number density = 19.770191 Si / 1000 Ang^3
#
#
#
# Elastic Constant Matrix: (Units=GPa)
#
#
# Indices 1 2 3 4 5 6 
#
# 1 66.3731 18.4115 15.6845 0.0000 0.0000 0.0000
# 2 18.4115 66.3730 15.6844 0.0000 0.0000 0.0000
# 3 15.6845 15.6844 87.4822 0.0000 0.0000 0.0000
# 4 0.0000 0.0000 0.0000 25.7506 0.0000 0.0000
# 5 0.0000 0.0000 0.0000 0.0000 25.7508 0.0000
# 6 0.0000 0.0000 0.0000 0.0000 0.0000 18.0396
#
#
#
# Elastic Compliance Matrix: (Units=1/GPa)
#
#
# Indices 1 2 3 4 5 6 
#
# 1 0.016741 -0.004109 -0.002265 0.000000 0.000000 0.000000
# 2 -0.004109 0.016741 -0.002265 0.000000 0.000000 0.000000
# 3 -0.002265 -0.002265 0.012243 0.000000 0.000000 0.000000
# 4 0.000000 0.000000 0.000000 0.038834 0.000000 0.000000
# 5 0.000000 0.000000 0.000000 0.000000 0.038834 0.000000
# 6 0.000000 0.000000 0.000000 0.000000 0.000000 0.055434
#
#
# Mechanical properties :
#
#
# Convention : Reuss Voigt Hill
#
# Bulk Modulus (GPa) = 35.15099 35.53213 35.34156
# Shear Modulus (GPa) = 24.32065 25.27142 24.79603
#
# Velocity S-wave (km/s) = 3.51118 3.57915 3.54533
# Velocity P-wave (km/s) = 5.85288 5.92385 5.88847
#
# Compressibility (1/GPa) = 0.02844870
#
# Stress axis : x y z
#
# Youngs Moduli (GPa) = 59.73256 59.73246 81.67926
#
# Poissons Ratio (x) = 0.24543 0.18499
# Poissons Ratio (y) = 0.24543 0.18499
# Poissons Ratio (z) = 0.13529 0.13529
#
# Static dielectric constant tensor:
#      x y z
#    x 3.580940 0.000000 0.000000 
#    y 0.000000 3.580940 0.000000 
#    z 0.000000 0.000000 3.511530 
# 
# 
# High freq. dielectric constant tensor:
#      x y z
#    x 1.757840 0.000000 0.000000 
#    y 0.000000 1.757840 0.000000 
#    z 0.000000 0.000000 1.753350 
# 
# From -- ./inp_files/9721.got.cif
#   From: 2010.03.12/outbox.cif.g09.slc.cpg/sg136_5_cif.got.tgz:9721.got - 2010.04.06 18:39:43.
