data_PCOD8317382
_publ_section_title
;
Structure prediction by ZEFSAII (Michael W. Deem and Ramdas Pophale) SiO2 
 PCOD8317382
Probable space group: P 42/M B C
;
_chemical_formula_sum "Si O2"
_cell_formula_units_Z 60
_cell_length_a 17.874287
_cell_length_b 17.874287
_cell_length_c 8.915496
_cell_angle_alpha 90.000000
_cell_angle_beta 90.000000
_cell_angle_gamma 90.000000
_cell_volume 2848.413027
_symmetry_space_group_name_H-M "P 42/M B C"
_symmetry_group_IT_number 135
_symmetry_cell_setting 'tetragonal'
loop_
_space_group_symop_operation_xyz
x,y,z
-y,x,1/2+z
-x,-y,z
y,-x,1/2+z
1/2+x,1/2-y,-z
1/2-x,1/2+y,-z
1/2+y,1/2+x,1/2-z
1/2-y,1/2-x,1/2-z
-x,-y,-z
y,-x,1/2-z
x,y,-z
-y,x,1/2-z
1/2-x,1/2+y,z
1/2+x,1/2-y,z
1/2-y,1/2-x,1/2+z
1/2+y,1/2+x,1/2+z
loop_
_atom_site_type_symbol
_atom_site_label
_atom_site_fract_x
_atom_site_fract_y
_atom_site_fract_z
Si Si1 0.365943 0.134058 0.250000
Si Si2 0.774005 0.412984 0.000000
Si Si3 0.000000 0.000000 0.750000
Si Si4 0.363418 0.940416 0.000000
Si Si5 0.386961 0.737584 0.000000
Si Si6 0.396921 0.564892 0.000000
Si Si7 0.989207 0.364199 0.000000
Si Si8 0.828986 0.671015 0.250000
O O1 0.363923 0.209736 0.351101
O O2 0.364961 0.059737 0.350522
O O3 0.841021 0.473501 0.000000
O O4 0.692106 0.448873 0.000000
O O5 0.027622 0.931309 0.648183
O O6 0.328529 0.902433 0.853226
O O7 0.453750 0.934407 0.000000
O O8 0.334954 0.754727 0.853740
O O9 0.413866 0.652746 0.000000
O O10 0.459856 0.789443 0.000000
#
# Coordination Sequence:
#
# PCOD8317382 Si02
#       8
#     8   8   4   8   8   8   8   8
#     4  10  22  36  58  97 140 175 220 238 316 380
#     4  11  23  38  60  93 134 176 202 265 308 374
#     4  10  28  54  68 106 104 150 228 278 348 414
#     4  10  18  32  57  89 129 179 213 246 295 354
#     4  10  20  39  65  90 128 175 198 267 307 375
#     4  11  27  47  75  92 122 154 216 278 344 388
#     4   9  20  35  57  94 131 177 215 249 296 386
#     4   8  18  33  58  96 122 159 226 232 302 380
#
# _framework density 21.064361999999999
#
# number of rings (size 3 to 8) (size 9 to 14) (size 15 to 20)
#    0.000    2.400    0.000    3.200    7.467    4.267 
#    0.000    0.000    0.000    0.000    0.000    0.000 
#    0.000    0.000    0.000    0.000    0.000    0.000 
#
# Total GULP energy -743718.228867 kJ/mol
# GULP energy per Si atom -12395.303814 kJ/mol
# Density = 2.101642 g / cm^3
# Si number density = 21.064362 Si / 1000 Ang^3
#
#
#
# Elastic Constant Matrix: (Units=GPa)
#
#
# Indices 1 2 3 4 5 6 
#
# 1 102.9730 33.1399 48.1897 0.0000 0.0000 0.0000
# 2 33.1399 102.9727 48.1900 0.0000 0.0000 0.0000
# 3 48.1897 48.1900 167.2686 0.0000 0.0000 0.0000
# 4 0.0000 0.0000 0.0000 14.4728 0.0000 0.0000
# 5 0.0000 0.0000 0.0000 0.0000 14.4725 0.0000
# 6 0.0000 0.0000 0.0000 0.0000 0.0000 28.1610
#
#
#
# Elastic Compliance Matrix: (Units=1/GPa)
#
#
# Indices 1 2 3 4 5 6 
#
# 1 0.011775 -0.002545 -0.002659 0.000000 0.000000 0.000000
# 2 -0.002545 0.011775 -0.002659 0.000000 0.000000 0.000000
# 3 -0.002659 -0.002659 0.007511 0.000000 0.000000 0.000000
# 4 0.000000 0.000000 0.000000 0.069095 0.000000 0.000000
# 5 0.000000 0.000000 0.000000 0.000000 0.069096 0.000000
# 6 0.000000 0.000000 0.000000 0.000000 0.000000 0.035510
#
#
# Mechanical properties :
#
#
# Convention : Reuss Voigt Hill
#
# Bulk Modulus (GPa) = 65.21584 70.25039 67.73311
# Shear Modulus (GPa) = 22.16319 27.66758 24.91538
#
# Velocity S-wave (km/s) = 3.24723 3.62813 3.44295
# Velocity P-wave (km/s) = 6.71467 7.13959 6.93039
#
# Compressibility (1/GPa) = 0.01533370
#
# Stress axis : x y z
#
# Youngs Moduli (GPa) = 84.92737 84.92691 133.14593
#
# Poissons Ratio (x) = 0.21615 0.35404
# Poissons Ratio (y) = 0.21615 0.35405
# Poissons Ratio (z) = 0.22583 0.22583
#
# Static dielectric constant tensor:
#      x y z
#    x 3.573090 0.000000 0.000000 
#    y 0.000000 3.573090 0.000000 
#    z 0.000000 0.000000 2.955340 
# 
# 
# High freq. dielectric constant tensor:
#      x y z
#    x 1.810630 0.000000 0.000000 
#    y 0.000000 1.810630 0.000000 
#    z 0.000000 0.000000 1.852030 
# 
# From -- ./inp_files/833.got.cif
#   From: 2010.03.12/outbox.cif.g09.slc.cpg/sg135_1_cif.got.tgz:833.got - 2010.04.06 18:31:24.
