data_PCOD8317019
_publ_section_title
;
Structure prediction by ZEFSAII (Michael W. Deem and Ramdas Pophale) SiO2 
 PCOD8317019
Probable space group: P 42/N B C
;
_chemical_formula_sum "Si O2"
_cell_formula_units_Z 84
_cell_length_a 15.374246
_cell_length_b 15.374246
_cell_length_c 16.986530
_cell_angle_alpha 90.000000
_cell_angle_beta 90.000000
_cell_angle_gamma 90.000000
_cell_volume 4015.062612
_symmetry_space_group_name_H-M "P 42/N B C"
_symmetry_group_IT_number 133
_space_group.IT_coordinate_system_code '2'
_symmetry_cell_setting 'tetragonal'
loop_
_space_group_symop_operation_xyz
x,y,z
1/2-y,x,1/2+z
1/2-x,1/2-y,z
y,1/2-x,1/2+z
x,1/2-y,-z
1/2-x,y,-z
y,x,1/2-z
1/2-y,1/2-x,1/2-z
-x,-y,-z
1/2+y,-x,1/2-z
1/2+x,1/2+y,-z
-y,1/2+x,1/2-z
-x,1/2+y,z
1/2+x,-y,z
-y,-x,1/2+z
1/2+y,1/2+x,1/2+z
loop_
_atom_site_type_symbol
_atom_site_label
_atom_site_fract_x
_atom_site_fract_y
_atom_site_fract_z
Si Si1 0.250000 0.250000 0.250000
Si Si2 0.814045 0.327942 0.350868
Si Si3 0.748423 0.570856 0.170723
Si Si4 0.440286 0.682952 0.206520
Si Si5 0.117540 0.974168 0.932835
Si Si6 0.427742 0.507103 0.113195
O O1 0.171902 0.249376 0.311903
O O2 0.750000 0.250000 0.370274
O O3 0.760090 0.417962 0.354381
O O4 0.858769 0.320429 0.265666
O O5 0.886194 0.328912 0.418547
O O6 0.706667 0.527752 0.248292
O O7 0.681071 0.551315 0.098984
O O8 0.849527 0.542764 0.157375
O O9 0.448135 0.595951 0.157248
O O10 0.104409 0.983531 0.024631
O O11 0.024197 0.963796 0.887461
#
# Coordination Sequence:
#
# PCOD8317019 Si02
#       6
#     4  16  16  16  16  16
#     4  12  28  40  62  96 116 172 236 282 320 388
#     4  11  19  36  62  99 130 160 205 267 328 386
#     4  11  24  42  65  96 132 168 226 281 335 386
#     4  11  19  37  65  96 128 162 205 268 325 398
#     4  10  25  43  65  97 130 180 217 268 340 411
#     4  11  23  44  68  91 135 179 220 263 340 409
#
# _framework density 20.921216000000001
#
# number of rings (size 3 to 8) (size 9 to 14) (size 15 to 20)
#    0.000    1.143    3.810    2.857    2.667    3.048 
#    0.000    5.714    0.000    0.000    0.000    0.000 
#    0.000    0.000    0.000    0.000    0.000    0.000 
#
# Total GULP energy -1040944.843651 kJ/mol
# GULP energy per Si atom -12392.200520 kJ/mol
# Density = 2.087360 g / cm^3
# Si number density = 20.921216 Si / 1000 Ang^3
#
#
#
# Elastic Constant Matrix: (Units=GPa)
#
#
# Indices 1 2 3 4 5 6 
#
# 1 169.1844 22.9770 53.1580 0.0000 0.0000 0.0000
# 2 22.9770 169.1844 53.1580 0.0000 0.0000 0.0000
# 3 53.1580 53.1580 55.6149 0.0000 0.0000 0.0000
# 4 0.0000 0.0000 0.0000 36.3911 0.0000 0.0000
# 5 0.0000 0.0000 0.0000 0.0000 36.3911 0.0000
# 6 0.0000 0.0000 0.0000 0.0000 0.0000 32.7034
#
#
#
# Elastic Compliance Matrix: (Units=1/GPa)
#
#
# Indices 1 2 3 4 5 6 
#
# 1 0.008942 0.002103 -0.010557 0.000000 0.000000 0.000000
# 2 0.002103 0.008942 -0.010557 0.000000 0.000000 0.000000
# 3 -0.010557 -0.010557 0.038162 0.000000 0.000000 0.000000
# 4 0.000000 0.000000 0.000000 0.027479 0.000000 0.000000
# 5 0.000000 0.000000 0.000000 0.000000 0.027479 0.000000
# 6 0.000000 0.000000 0.000000 0.000000 0.000000 0.030578
#
#
# Mechanical properties :
#
#
# Convention : Reuss Voigt Hill
#
# Bulk Modulus (GPa) = 55.48184 72.50778 63.99481
# Shear Modulus (GPa) = 26.93794 38.74317 32.84055
#
# Velocity S-wave (km/s) = 3.59219 4.30799 3.96627
# Velocity P-wave (km/s) = 6.61681 7.71219 7.18540
#
# Compressibility (1/GPa) = 0.01802391
#
# Stress axis : x y z
#
# Youngs Moduli (GPa) = 111.83052 111.83052 26.20440
#
# Poissons Ratio (x) = -0.23512 0.27663
# Poissons Ratio (y) = -0.23512 0.27663
# Poissons Ratio (z) = 1.18056 1.18056
#
# Static dielectric constant tensor:
#      x y z
#    x 4.122670 0.000000 0.000000 
#    y 0.000000 4.122670 0.000000 
#    z 0.000000 0.000000 3.650920 
# 
# 
# High freq. dielectric constant tensor:
#      x y z
#    x 1.827730 0.000000 0.000000 
#    y 0.000000 1.827730 0.000000 
#    z 0.000000 0.000000 1.805860 
# 
# From -- ./inp_files/6410.got.cif
#   From: 2010.03.12/outbox.cif.g09.slc.cpg/sg133_4_cif.got.tgz:6410.got - 2010.04.06 18:08:06.
