data_PCOD8317446
_publ_section_title
;
Structure prediction by ZEFSAII (Michael W. Deem and Ramdas Pophale) SiO2 
 PCOD8317446
Probable space group: P 42/M B C
;
_chemical_formula_sum "Si O2"
_cell_formula_units_Z 112
_cell_length_a 15.299768
_cell_length_b 15.299768
_cell_length_c 26.057518
_cell_angle_alpha 90.000000
_cell_angle_beta 90.000000
_cell_angle_gamma 90.000000
_cell_volume 6099.619402
_symmetry_space_group_name_H-M "P 42/M B C"
_symmetry_group_IT_number 135
_symmetry_cell_setting 'tetragonal'
loop_
_space_group_symop_operation_xyz
x,y,z
-y,x,1/2+z
-x,-y,z
y,-x,1/2+z
1/2+x,1/2-y,-z
1/2-x,1/2+y,-z
1/2+y,1/2+x,1/2-z
1/2-y,1/2-x,1/2-z
-x,-y,-z
y,-x,1/2-z
x,y,-z
-y,x,1/2-z
1/2-x,1/2+y,z
1/2+x,1/2-y,z
1/2-y,1/2-x,1/2+z
1/2+y,1/2+x,1/2+z
loop_
_atom_site_type_symbol
_atom_site_label
_atom_site_fract_x
_atom_site_fract_y
_atom_site_fract_z
Si Si1 0.735596 0.871768 0.786303
Si Si2 0.909752 0.804517 0.940832
Si Si3 0.264458 0.772349 0.871129
Si Si4 0.182291 0.104277 0.442515
Si Si5 0.735807 0.543054 0.158217
Si Si6 0.492770 0.339766 0.443166
Si Si7 0.910008 0.908058 0.267625
O O1 0.654732 0.845269 0.750000
O O2 0.746399 0.807305 0.833712
O O3 0.823614 0.861756 0.753270
O O4 0.718006 0.971035 0.805487
O O5 0.847407 0.745156 0.906579
O O6 0.894625 0.906826 0.930328
O O7 0.009468 0.781759 0.925719
O O8 0.891720 0.781380 0.000000
O O9 0.177210 0.781622 0.904641
O O10 0.285342 0.863533 0.841302
O O11 0.214676 0.127108 0.500000
O O12 0.077011 0.097680 0.441716
O O13 0.734221 0.504998 0.100418
O O14 0.636724 0.560525 0.179022
O O15 0.484987 0.295653 0.500000
O O16 0.987869 0.894727 0.225243
#
# Coordination Sequence:
#
# PCOD8317446 Si02
#       7
#    16  16  16  16  16  16  16
#     4  11  21  37  54  81 112 148 191 237 283 341
#     4  10  19  34  56  84 116 153 188 226 283 347
#     4  11  21  35  56  86 110 151 187 236 285 337
#     4   9  19  34  53  83 119 150 185 230 280 346
#     4  10  20  36  55  82 117 149 188 235 285 338
#     4   9  17  31  53  86 121 144 174 224 295 361
#     4   9  19  35  55  84 111 142 183 232 289 349
#
# _framework density 18.361801
#
# number of rings (size 3 to 8) (size 9 to 14) (size 15 to 20)
#    0.000    2.143    2.857    0.857    0.000    4.571 
#   10.286    0.000    0.000    0.857    3.714    2.000 
#    0.000    0.000    0.000    0.000    0.000    0.000 
#
# Total GULP energy -1388129.666064 kJ/mol
# GULP energy per Si atom -12394.014876 kJ/mol
# Density = 1.832001 g / cm^3
# Si number density = 18.361801 Si / 1000 Ang^3
#
#
#
# Elastic Constant Matrix: (Units=GPa)
#
#
# Indices 1 2 3 4 5 6 
#
# 1 85.3928 44.2828 32.7593 0.0000 0.0000 0.0000
# 2 44.2828 85.3922 32.7593 0.0000 0.0000 0.0000
# 3 32.7593 32.7593 64.3328 0.0000 0.0000 0.0000
# 4 0.0000 0.0000 0.0000 27.9777 0.0000 0.0000
# 5 0.0000 0.0000 0.0000 0.0000 27.9778 0.0000
# 6 0.0000 0.0000 0.0000 0.0000 0.0000 23.6632
#
#
#
# Elastic Compliance Matrix: (Units=1/GPa)
#
#
# Indices 1 2 3 4 5 6 
#
# 1 0.017354 -0.006971 -0.005287 0.000000 0.000000 0.000000
# 2 -0.006971 0.017354 -0.005287 0.000000 0.000000 0.000000
# 3 -0.005287 -0.005287 0.020929 0.000000 0.000000 0.000000
# 4 0.000000 0.000000 0.000000 0.035743 0.000000 0.000000
# 5 0.000000 0.000000 0.000000 0.000000 0.035743 0.000000
# 6 0.000000 0.000000 0.000000 0.000000 0.000000 0.042260
#
#
# Mechanical properties :
#
#
# Convention : Reuss Voigt Hill
#
# Bulk Modulus (GPa) = 48.67124 50.52450 49.59787
# Shear Modulus (GPa) = 23.66063 24.27815 23.96939
#
# Velocity S-wave (km/s) = 3.59357 3.64016 3.61694
# Velocity P-wave (km/s) = 6.61685 6.72633 6.67182
#
# Compressibility (1/GPa) = 0.02054601
#
# Stress axis : x y z
#
# Youngs Moduli (GPa) = 57.62383 57.62330 47.78112
#
# Poissons Ratio (x) = 0.40170 0.25262
# Poissons Ratio (y) = 0.40170 0.25263
# Poissons Ratio (z) = 0.30466 0.30467
#
# Static dielectric constant tensor:
#      x y z
#    x 3.295410 0.000000 0.000000 
#    y 0.000000 3.295410 0.000000 
#    z 0.000000 0.000000 3.575780 
# 
# 
# High freq. dielectric constant tensor:
#      x y z
#    x 1.691400 0.000000 0.000000 
#    y 0.000000 1.691400 0.000000 
#    z 0.000000 0.000000 1.723120 
# 
# From -- ./inp_files/6115.got.cif
#   From: 2010.03.12/outbox.cif.g09.slc.cpg/sg135_4_cif.got.tgz:6115.got - 2010.04.06 18:31:24.
