data_PCOD8317204
_publ_section_title
;
Structure prediction by ZEFSAII (Michael W. Deem and Ramdas Pophale) SiO2 
 PCOD8317204
Probable space group: P 42/N N M
;
_chemical_formula_sum "Si O2"
_cell_formula_units_Z 80
_cell_length_a 17.509461
_cell_length_b 17.509461
_cell_length_c 13.660474
_cell_angle_alpha 90.000000
_cell_angle_beta 90.000000
_cell_angle_gamma 90.000000
_cell_volume 4188.044846
_symmetry_space_group_name_H-M "P 42/N N M"
_symmetry_group_IT_number 134
_space_group.IT_coordinate_system_code '2'
_symmetry_cell_setting 'tetragonal'
loop_
_space_group_symop_operation_xyz
x,y,z
1/2-y,x,1/2+z
1/2-x,1/2-y,z
y,1/2-x,1/2+z
x,1/2-y,1/2-z
1/2-x,y,1/2-z
y,x,-z
1/2-y,1/2-x,-z
-x,-y,-z
1/2+y,-x,1/2-z
1/2+x,1/2+y,-z
-y,1/2+x,1/2-z
-x,1/2+y,1/2+z
1/2+x,-y,1/2+z
-y,-x,z
1/2+y,1/2+x,z
loop_
_atom_site_type_symbol
_atom_site_label
_atom_site_fract_x
_atom_site_fract_y
_atom_site_fract_z
Si Si1 0.649906 0.468708 0.971635
Si Si2 0.193856 0.038318 0.468592
Si Si3 0.429597 0.097746 0.355695
Si Si4 0.775064 0.834969 0.856666
Si Si5 0.574781 0.953056 0.133694
O O1 0.618354 0.381647 0.962319
O O2 0.621610 0.500913 0.075671
O O3 0.742886 0.469985 0.964426
O O4 0.610548 0.518321 0.886055
O O5 0.239951 0.115411 0.444219
O O6 0.125997 0.029171 0.388814
O O7 0.155302 0.045243 0.575591
O O8 0.366629 0.164210 0.362129
O O9 0.462506 0.090627 0.247502
O O10 0.750000 0.750000 0.874311
O O11 0.750000 0.866538 0.750000
O O12 0.523472 0.023472 0.097105
#
# Coordination Sequence:
#
# PCOD8317204 Si02
#       5
#    16  16  16  16  16
#     4  10  21  37  56  79 108 148 198 238 271 325
#     4  10  22  35  52  82 111 145 189 223 287 335
#     4  10  20  36  56  80 110 154 189 224 273 333
#     4  10  20  33  51  80 120 151 178 213 271 340
#     4  11  22  38  57  79 113 147 188 237 288 349
#
# _framework density 19.101993
#
# number of rings (size 3 to 8) (size 9 to 14) (size 15 to 20)
#    0.000    1.800    2.000    3.600    5.600    0.800 
#    0.000    1.000    0.000    2.400    0.000    0.000 
#    0.000   13.600    0.000    0.000    0.000    4.800 
#
# Total GULP energy -991690.678089 kJ/mol
# GULP energy per Si atom -12396.133476 kJ/mol
# Density = 1.905852 g / cm^3
# Si number density = 19.101993 Si / 1000 Ang^3
#
#
#
# Elastic Constant Matrix: (Units=GPa)
#
#
# Indices 1 2 3 4 5 6 
#
# 1 91.9715 58.2149 15.5018 0.0000 0.0000 0.0000
# 2 58.2149 91.9715 15.5018 0.0000 0.0000 0.0000
# 3 15.5018 15.5018 104.6299 0.0000 0.0000 0.0000
# 4 0.0000 0.0000 0.0000 12.7852 0.0000 0.0000
# 5 0.0000 0.0000 0.0000 0.0000 12.7852 0.0000
# 6 0.0000 0.0000 0.0000 0.0000 0.0000 36.7527
#
#
#
# Elastic Compliance Matrix: (Units=1/GPa)
#
#
# Indices 1 2 3 4 5 6 
#
# 1 0.018246 -0.011378 -0.001018 0.000000 0.000000 0.000000
# 2 -0.011378 0.018246 -0.001018 0.000000 0.000000 0.000000
# 3 -0.001018 -0.001018 0.009859 0.000000 0.000000 0.000000
# 4 0.000000 0.000000 0.000000 0.078215 0.000000 0.000000
# 5 0.000000 0.000000 0.000000 0.000000 0.078215 0.000000
# 6 0.000000 0.000000 0.000000 0.000000 0.000000 0.027209
#
#
# Mechanical properties :
#
#
# Convention : Reuss Voigt Hill
#
# Bulk Modulus (GPa) = 51.21509 51.88995 51.55252
# Shear Modulus (GPa) = 18.98793 25.75492 22.37143
#
# Velocity S-wave (km/s) = 3.15624 3.67588 3.42593
# Velocity P-wave (km/s) = 6.33657 6.72605 6.53421
#
# Compressibility (1/GPa) = 0.01952549
#
# Stress axis : x y z
#
# Youngs Moduli (GPa) = 54.80611 54.80611 101.42979
#
# Poissons Ratio (x) = 0.62357 0.10322
# Poissons Ratio (y) = 0.62357 0.10322
# Poissons Ratio (z) = 0.05577 0.05577
#
# Static dielectric constant tensor:
#      x y z
#    x 3.492890 0.000000 0.000000 
#    y 0.000000 3.492890 0.000000 
#    z 0.000000 0.000000 3.629940 
# 
# 
# High freq. dielectric constant tensor:
#      x y z
#    x 1.718770 0.000000 0.000000 
#    y 0.000000 1.718770 0.000000 
#    z 0.000000 0.000000 1.757460 
# 
# From -- ./inp_files/6342.got.cif
#   From: 2010.03.12/outbox.cif.g09.slc.cpg/sg134_4_cif.got.tgz:6342.got - 2010.04.06 18:17:22.
