data_PCOD8317172
_publ_section_title
;
Structure prediction by ZEFSAII (Michael W. Deem and Ramdas Pophale) SiO2 
 PCOD8317172
Probable space group: P 42/N N M
;
_chemical_formula_sum "Si O2"
_cell_formula_units_Z 112
_cell_length_a 14.100122
_cell_length_b 14.100122
_cell_length_c 27.935123
_cell_angle_alpha 90.000000
_cell_angle_beta 90.000000
_cell_angle_gamma 90.000000
_cell_volume 5553.877912
_symmetry_space_group_name_H-M "P 42/N N M"
_symmetry_group_IT_number 134
_space_group.IT_coordinate_system_code '2'
_symmetry_cell_setting 'tetragonal'
loop_
_space_group_symop_operation_xyz
x,y,z
1/2-y,x,1/2+z
1/2-x,1/2-y,z
y,1/2-x,1/2+z
x,1/2-y,1/2-z
1/2-x,y,1/2-z
y,x,-z
1/2-y,1/2-x,-z
-x,-y,-z
1/2+y,-x,1/2-z
1/2+x,1/2+y,-z
-y,1/2+x,1/2-z
-x,1/2+y,1/2+z
1/2+x,-y,1/2+z
-y,-x,z
1/2+y,1/2+x,z
loop_
_atom_site_type_symbol
_atom_site_label
_atom_site_fract_x
_atom_site_fract_y
_atom_site_fract_z
Si Si1 0.131092 0.477236 0.375335
Si Si2 0.847799 0.505560 0.221105
Si Si3 0.530170 0.183800 0.919958
Si Si4 0.391300 0.046031 0.881119
Si Si5 0.549601 0.301026 0.470301
Si Si6 0.010542 0.353168 0.729795
Si Si7 0.888197 0.960749 0.044815
O O1 0.207458 0.541560 0.404300
O O2 0.166364 0.447082 0.323117
O O3 0.102010 0.383130 0.406419
O O4 0.038675 0.538675 0.365680
O O5 0.750000 0.491783 0.250000
O O6 0.907176 0.407176 0.225098
O O7 0.823996 0.535209 0.165670
O O8 0.908000 0.593053 0.241154
O O9 0.624713 0.124713 0.906207
O O10 0.437426 0.148936 0.890459
O O11 0.512039 0.174038 0.976887
O O12 0.478423 0.978423 0.869810
O O13 0.342650 0.020579 0.930948
O O14 0.656285 0.343716 0.463404
O O15 0.544238 0.188996 0.460664
O O16 0.986967 0.250000 0.750000
O O17 0.912993 0.412993 0.730521
O O18 0.887507 0.887507 0.000000
O O19 0.991219 0.008782 0.046325
#
# Coordination Sequence:
#
# PCOD8317172 Si02
#       7
#    16  16  16  16  16  16  16
#     4  10  21  36  56  83 114 154 191 228 285 346
#     4  10  22  40  62  87 116 153 196 247 302 354
#     4  10  19  34  57  83 115 150 185 230 280 338
#     4   9  19  36  57  82 111 144 184 233 292 340
#     4  10  20  34  57  84 109 146 194 235 278 343
#     4  10  22  40  62  88 119 155 201 250 300 358
#     4  10  20  36  55  77 115 155 185 228 288 343
#
# _framework density 20.166090000000001
#
# number of rings (size 3 to 8) (size 9 to 14) (size 15 to 20)
#    0.000    2.143    1.429    1.286    2.000    4.571 
#    0.000    3.571    0.000    2.571    0.000    0.000 
#    0.000    0.000    0.000    0.000    0.000    0.000 
#
# Total GULP energy -1387563.106248 kJ/mol
# GULP energy per Si atom -12388.956306 kJ/mol
# Density = 2.012019 g / cm^3
# Si number density = 20.166090 Si / 1000 Ang^3
#
#
#
# Elastic Constant Matrix: (Units=GPa)
#
#
# Indices 1 2 3 4 5 6 
#
# 1 72.9661 28.8656 30.1062 0.0000 0.0000 0.0000
# 2 28.8656 72.9661 30.1062 0.0000 0.0000 0.0000
# 3 30.1062 30.1062 133.5295 0.0000 0.0000 0.0000
# 4 0.0000 0.0000 0.0000 27.3792 0.0000 0.0000
# 5 0.0000 0.0000 0.0000 0.0000 27.3792 0.0000
# 6 0.0000 0.0000 0.0000 0.0000 0.0000 25.5545
#
#
#
# Elastic Compliance Matrix: (Units=1/GPa)
#
#
# Indices 1 2 3 4 5 6 
#
# 1 0.017003 -0.005672 -0.002555 0.000000 0.000000 0.000000
# 2 -0.005672 0.017003 -0.002555 0.000000 0.000000 0.000000
# 3 -0.002555 -0.002555 0.008641 0.000000 0.000000 0.000000
# 4 0.000000 0.000000 0.000000 0.036524 0.000000 0.000000
# 5 0.000000 0.000000 0.000000 0.000000 0.036524 0.000000
# 6 0.000000 0.000000 0.000000 0.000000 0.000000 0.039132
#
#
# Mechanical properties :
#
#
# Convention : Reuss Voigt Hill
#
# Bulk Modulus (GPa) = 47.43011 50.84639 49.13825
# Shear Modulus (GPa) = 27.26002 28.75482 28.00742
#
# Velocity S-wave (km/s) = 3.68064 3.78021 3.73075
# Velocity P-wave (km/s) = 6.45241 6.65746 6.55574
#
# Compressibility (1/GPa) = 0.02108365
#
# Stress axis : x y z
#
# Youngs Moduli (GPa) = 58.81285 58.81285 115.72798
#
# Poissons Ratio (x) = 0.33361 0.29565
# Poissons Ratio (y) = 0.33361 0.29565
# Poissons Ratio (z) = 0.15025 0.15025
#
# Static dielectric constant tensor:
#      x y z
#    x 3.456580 0.000000 0.000000 
#    y 0.000000 3.456580 0.000000 
#    z 0.000000 0.000000 4.174770 
# 
# 
# High freq. dielectric constant tensor:
#      x y z
#    x 1.765440 0.000000 0.000000 
#    y 0.000000 1.765440 0.000000 
#    z 0.000000 0.000000 1.812540 
# 
# From -- ./inp_files/10158.got.cif
#   From: 2010.03.12/outbox.cif.g09.slc.cpg/sg134_6_cif.got.tgz:10158.got - 2010.04.06 18:17:22.
