data_PCOD8317401
_publ_section_title
;
Structure prediction by ZEFSAII (Michael W. Deem and Ramdas Pophale) SiO2 
 PCOD8317401
Probable space group: P 42/M B C
;
_chemical_formula_sum "Si O2"
_cell_formula_units_Z 64
_cell_length_a 19.348994
_cell_length_b 19.348994
_cell_length_c 9.053972
_cell_angle_alpha 90.000000
_cell_angle_beta 90.000000
_cell_angle_gamma 90.000000
_cell_volume 3389.658349
_symmetry_space_group_name_H-M "P 42/M B C"
_symmetry_group_IT_number 135
_symmetry_cell_setting 'tetragonal'
loop_
_space_group_symop_operation_xyz
x,y,z
-y,x,1/2+z
-x,-y,z
y,-x,1/2+z
1/2+x,1/2-y,-z
1/2-x,1/2+y,-z
1/2+y,1/2+x,1/2-z
1/2-y,1/2-x,1/2-z
-x,-y,-z
y,-x,1/2-z
x,y,-z
-y,x,1/2-z
1/2-x,1/2+y,z
1/2+x,1/2-y,z
1/2-y,1/2-x,1/2+z
1/2+y,1/2+x,1/2+z
loop_
_atom_site_type_symbol
_atom_site_label
_atom_site_fract_x
_atom_site_fract_y
_atom_site_fract_z
Si Si1 0.519888 0.408900 0.164310
Si Si2 0.756598 0.986812 0.665445
Si Si3 0.271768 0.670022 0.326057
Si Si4 0.116883 0.280848 0.326280
O O1 0.442242 0.426683 0.220375
O O2 0.528282 0.327895 0.159657
O O3 0.530937 0.439568 0.000000
O O4 0.724505 0.983205 0.500000
O O5 0.768549 0.909667 0.730027
O O6 0.712821 0.037147 0.771356
O O7 0.208170 0.708170 0.250000
O O8 0.260407 0.672354 0.500000
O O9 0.344198 0.708210 0.285355
O O10 0.156828 0.343173 0.250000
O O11 0.117277 0.292740 0.500000
#
# Coordination Sequence:
#
# PCOD8317401 Si02
#       4
#    16  16  16  16
#     4  10  19  30  44  65  97 133 167 203 245 296
#     4  10  20  33  50  73 101 132 167 209 254 301
#     4   9  19  35  53  75 104 135 170 212 255 302
#     4  10  20  35  55  78 105 137 173 212 255 304
#
# _framework density 18.880960000000002
#
# number of rings (size 3 to 8) (size 9 to 14) (size 15 to 20)
#    0.000    2.250    0.000    3.750    0.000    6.000 
#    0.000    0.000    0.000    0.750    0.000    5.250 
#    0.000    0.000    0.000    0.000    0.000    0.000 
#
# Total GULP energy -792963.779008 kJ/mol
# GULP energy per Si atom -12390.059047 kJ/mol
# Density = 1.883799 g / cm^3
# Si number density = 18.880960 Si / 1000 Ang^3
#
#
#
# Elastic Constant Matrix: (Units=GPa)
#
#
# Indices 1 2 3 4 5 6 
#
# 1 74.0850 9.3729 22.2716 0.0000 0.0000 0.0000
# 2 9.3729 74.0827 22.2715 0.0000 0.0000 0.0000
# 3 22.2716 22.2715 67.9997 0.0000 0.0000 0.0000
# 4 0.0000 0.0000 0.0000 25.0151 0.0000 0.0000
# 5 0.0000 0.0000 0.0000 0.0000 25.0155 0.0000
# 6 0.0000 0.0000 0.0000 0.0000 0.0000 12.6295
#
#
#
# Elastic Compliance Matrix: (Units=1/GPa)
#
#
# Indices 1 2 3 4 5 6 
#
# 1 0.014987 -0.000466 -0.004756 0.000000 0.000000 0.000000
# 2 -0.000466 0.014987 -0.004756 0.000000 0.000000 0.000000
# 3 -0.004756 -0.004756 0.017821 0.000000 0.000000 0.000000
# 4 0.000000 0.000000 0.000000 0.039976 0.000000 0.000000
# 5 0.000000 0.000000 0.000000 0.000000 0.039975 0.000000
# 6 0.000000 0.000000 0.000000 0.000000 0.000000 0.079180
#
#
# Mechanical properties :
#
#
# Convention : Reuss Voigt Hill
#
# Bulk Modulus (GPa) = 35.92078 35.99993 35.96035
# Shear Modulus (GPa) = 21.17191 23.34877 22.26034
#
# Velocity S-wave (km/s) = 3.35227 3.52039 3.43736
# Velocity P-wave (km/s) = 5.83522 5.96929 5.90263
#
# Compressibility (1/GPa) = 0.02783904
#
# Stress axis : x y z
#
# Youngs Moduli (GPa) = 66.72583 66.72354 56.11280
#
# Poissons Ratio (x) = 0.03112 0.26686
# Poissons Ratio (y) = 0.03112 0.26687
# Poissons Ratio (z) = 0.31733 0.31733
#
# Static dielectric constant tensor:
#      x y z
#    x 3.340720 0.000000 0.000000 
#    y 0.000000 3.340730 0.000000 
#    z 0.000000 0.000000 3.557240 
# 
# 
# High freq. dielectric constant tensor:
#      x y z
#    x 1.714290 0.000000 0.000000 
#    y 0.000000 1.714290 0.000000 
#    z 0.000000 0.000000 1.736960 
# 
# From -- ./inp_files/934.got.cif
#   From: 2010.03.12/outbox.cif.g09.slc.cpg/sg135_1_cif.got.tgz:934.got - 2010.04.06 18:31:24.
