data_PCOD8317460
_publ_section_title
;
Structure prediction by ZEFSAII (Michael W. Deem and Ramdas Pophale) SiO2 
 PCOD8317460
Probable space group: P 42/M B C
;
_chemical_formula_sum "Si O2"
_cell_formula_units_Z 96
_cell_length_a 17.156392
_cell_length_b 17.156392
_cell_length_c 16.569026
_cell_angle_alpha 90.000000
_cell_angle_beta 90.000000
_cell_angle_gamma 90.000000
_cell_volume 4876.956713
_symmetry_space_group_name_H-M "P 42/M B C"
_symmetry_group_IT_number 135
_symmetry_cell_setting 'tetragonal'
loop_
_space_group_symop_operation_xyz
x,y,z
-y,x,1/2+z
-x,-y,z
y,-x,1/2+z
1/2+x,1/2-y,-z
1/2-x,1/2+y,-z
1/2+y,1/2+x,1/2-z
1/2-y,1/2-x,1/2-z
-x,-y,-z
y,-x,1/2-z
x,y,-z
-y,x,1/2-z
1/2-x,1/2+y,z
1/2+x,1/2-y,z
1/2-y,1/2-x,1/2+z
1/2+y,1/2+x,1/2+z
loop_
_atom_site_type_symbol
_atom_site_label
_atom_site_fract_x
_atom_site_fract_y
_atom_site_fract_z
Si Si1 0.710213 0.695303 0.311885
Si Si2 0.809767 0.389662 0.906015
Si Si3 0.862626 0.657574 0.094964
Si Si4 0.089617 0.518216 0.589981
Si Si5 0.599526 0.571677 0.770037
Si Si6 0.949431 0.778229 0.406628
O O1 0.776290 0.723711 0.250000
O O2 0.677406 0.772776 0.352601
O O3 0.752518 0.645835 0.381840
O O4 0.644002 0.640011 0.276444
O O5 0.897239 0.398128 0.869395
O O6 0.758421 0.466162 0.894349
O O7 0.811556 0.366183 0.000000
O O8 0.787173 0.610176 0.126752
O O9 0.944899 0.630079 0.135190
O O10 0.867813 0.643414 0.000000
O O11 0.124153 0.524445 0.500000
O O12 0.000000 0.500000 0.586867
O O13 0.599690 0.490368 0.719165
O O14 0.641525 0.558822 0.856365
O O15 0.933407 0.799492 0.500000
#
# Coordination Sequence:
#
# PCOD8317460 Si02
#       6
#    16  16  16  16  16  16
#     4  12  24  38  60  84 121 163 199 250 312 367
#     4  10  20  37  62  91 121 155 199 245 300 373
#     4  10  20  36  59  89 121 156 197 242 295 365
#     4   9  16  31  59  89 115 147 186 236 293 352
#     4  11  24  44  64  86 118 162 209 260 310 361
#     4  10  19  38  66  90 118 158 204 248 300 365
#
# _framework density 19.684408000000001
#
# number of rings (size 3 to 8) (size 9 to 14) (size 15 to 20)
#    0.000    1.667    5.000    0.500    0.000    1.333 
#    0.000    3.333    0.000    0.000    0.000    0.000 
#    0.000    0.000    0.000    0.000    0.000    0.000 
#
# Total GULP energy -1189793.878803 kJ/mol
# GULP energy per Si atom -12393.686238 kJ/mol
# Density = 1.963961 g / cm^3
# Si number density = 19.684408 Si / 1000 Ang^3
#
#
#
# Elastic Constant Matrix: (Units=GPa)
#
#
# Indices 1 2 3 4 5 6 
#
# 1 120.3091 49.1022 37.6994 0.0000 0.0000 0.0000
# 2 49.1022 120.3096 37.6996 0.0000 0.0000 0.0000
# 3 37.6994 37.6996 49.3274 0.0000 0.0000 0.0000
# 4 0.0000 0.0000 0.0000 23.3760 0.0000 0.0000
# 5 0.0000 0.0000 0.0000 0.0000 23.3752 0.0000
# 6 0.0000 0.0000 0.0000 0.0000 0.0000 40.3432
#
#
#
# Elastic Compliance Matrix: (Units=1/GPa)
#
#
# Indices 1 2 3 4 5 6 
#
# 1 0.011495 -0.002549 -0.006837 0.000000 0.000000 0.000000
# 2 -0.002549 0.011495 -0.006837 0.000000 0.000000 0.000000
# 3 -0.006837 -0.006837 0.030723 0.000000 0.000000 0.000000
# 4 0.000000 0.000000 0.000000 0.042779 0.000000 0.000000
# 5 0.000000 0.000000 0.000000 0.000000 0.042780 0.000000
# 6 0.000000 0.000000 0.000000 0.000000 0.000000 0.024787
#
#
# Mechanical properties :
#
#
# Convention : Reuss Voigt Hill
#
# Bulk Modulus (GPa) = 47.02143 59.88316 53.45230
# Shear Modulus (GPa) = 24.55872 28.44851 26.50362
#
# Velocity S-wave (km/s) = 3.53600 3.80574 3.67335
# Velocity P-wave (km/s) = 6.37264 7.05686 6.72346
#
# Compressibility (1/GPa) = 0.02126690
#
# Stress axis : x y z
#
# Youngs Moduli (GPa) = 86.99738 86.99750 32.54868
#
# Poissons Ratio (x) = 0.22175 0.22253
# Poissons Ratio (y) = 0.22175 0.22253
# Poissons Ratio (z) = 0.59479 0.59480
#
# Static dielectric constant tensor:
#      x y z
#    x 3.835000 0.000000 0.000000 
#    y 0.000000 3.835000 0.000000 
#    z 0.000000 0.000000 3.383170 
# 
# 
# High freq. dielectric constant tensor:
#      x y z
#    x 1.775290 0.000000 0.000000 
#    y 0.000000 1.775290 0.000000 
#    z 0.000000 0.000000 1.738960 
# 
# From -- ./inp_files/5459.got.cif
#   From: 2010.03.12/outbox.cif.g09.slc.cpg/sg135_3_cif.got.tgz:5459.got - 2010.04.06 18:31:24.
