data_PCOD8317067
_publ_section_title
;
Structure prediction by ZEFSAII (Michael W. Deem and Ramdas Pophale) SiO2 
 PCOD8317067
Probable space group: P 42/N N M
;
_chemical_formula_sum "Si O2"
_cell_formula_units_Z 64
_cell_length_a 13.196418
_cell_length_b 13.196418
_cell_length_c 23.134643
_cell_angle_alpha 90.000000
_cell_angle_beta 90.000000
_cell_angle_gamma 90.000000
_cell_volume 4028.792770
_symmetry_space_group_name_H-M "P 42/N N M"
_symmetry_group_IT_number 134
_space_group.IT_coordinate_system_code '2'
_symmetry_cell_setting 'tetragonal'
loop_
_space_group_symop_operation_xyz
x,y,z
1/2-y,x,1/2+z
1/2-x,1/2-y,z
y,1/2-x,1/2+z
x,1/2-y,1/2-z
1/2-x,y,1/2-z
y,x,-z
1/2-y,1/2-x,-z
-x,-y,-z
1/2+y,-x,1/2-z
1/2+x,1/2+y,-z
-y,1/2+x,1/2-z
-x,1/2+y,1/2+z
1/2+x,-y,1/2+z
-y,-x,z
1/2+y,1/2+x,z
loop_
_atom_site_type_symbol
_atom_site_label
_atom_site_fract_x
_atom_site_fract_y
_atom_site_fract_z
Si Si1 0.807090 0.472106 0.306215
Si Si2 0.170218 0.829783 0.617469
Si Si3 0.560313 0.608322 0.911277
Si Si4 0.414453 0.914453 0.998552
Si Si5 0.802970 0.472796 0.521567
O O1 0.750000 0.516152 0.250000
O O2 0.901912 0.401912 0.287054
O O3 0.728393 0.407745 0.342741
O O4 0.841856 0.566148 0.347298
O O5 0.250000 0.750000 0.589214
O O6 0.111729 0.888272 0.567379
O O7 0.466313 0.533688 0.911669
O O8 0.662299 0.547108 0.926330
O O9 0.533879 0.689570 0.961072
O O10 0.450251 0.814355 0.032567
O O11 0.500000 0.000000 0.000000
O O12 0.870676 0.370676 0.520967
#
# Coordination Sequence:
#
# PCOD8317067 Si02
#       5
#    16   8  16   8  16
#     4  10  16  23  41  74 109 131 156 190 238 302
#     4  10  18  28  44  68 108 135 153 192 243 292
#     4   8  15  26  44  67  96 129 163 191 230 295
#     4  12  22  30  44  70  96 130 165 210 259 282
#     4   9  16  30  48  65  91 130 167 198 237 287
#
# _framework density 15.885650999999999
#
# number of rings (size 3 to 8) (size 9 to 14) (size 15 to 20)
#    0.000    2.500    3.750    2.625    0.000    0.000 
#    0.000    2.500    0.000    0.000    0.000    3.500 
#    0.000    0.000    8.500    0.000    0.000    0.000 
#
# Total GULP energy -793058.423731 kJ/mol
# GULP energy per Si atom -12391.537871 kJ/mol
# Density = 1.584949 g / cm^3
# Si number density = 15.885651 Si / 1000 Ang^3
#
#
#
# Elastic Constant Matrix: (Units=GPa)
#
#
# Indices 1 2 3 4 5 6 
#
# 1 75.3738 60.1851 43.0178 0.0000 0.0000 0.0000
# 2 60.1851 75.3738 43.0178 0.0000 0.0000 0.0000
# 3 43.0178 43.0178 111.4761 0.0000 0.0000 0.0000
# 4 0.0000 0.0000 0.0000 22.3424 0.0000 0.0000
# 5 0.0000 0.0000 0.0000 0.0000 22.3424 0.0000
# 6 0.0000 0.0000 0.0000 0.0000 0.0000 25.0164
#
#
#
# Elastic Compliance Matrix: (Units=1/GPa)
#
#
# Indices 1 2 3 4 5 6 
#
# 1 0.037804 -0.028034 -0.003770 0.000000 0.000000 0.000000
# 2 -0.028034 0.037804 -0.003770 0.000000 0.000000 0.000000
# 3 -0.003770 -0.003770 0.011880 0.000000 0.000000 0.000000
# 4 0.000000 0.000000 0.000000 0.044758 0.000000 0.000000
# 5 0.000000 0.000000 0.000000 0.000000 0.044758 0.000000
# 6 0.000000 0.000000 0.000000 0.000000 0.000000 0.039974
#
#
# Mechanical properties :
#
#
# Convention : Reuss Voigt Hill
#
# Bulk Modulus (GPa) = 61.20210 61.62944 61.41577
# Shear Modulus (GPa) = 17.03155 21.67379 19.35267
#
# Velocity S-wave (km/s) = 3.27790 3.69774 3.49413
# Velocity P-wave (km/s) = 7.27574 7.55717 7.41779
#
# Compressibility (1/GPa) = 0.01633931
#
# Stress axis : x y z
#
# Youngs Moduli (GPa) = 26.45228 26.45228 84.17387
#
# Poissons Ratio (x) = 0.74157 0.31734
# Poissons Ratio (y) = 0.74157 0.31734
# Poissons Ratio (z) = 0.09973 0.09973
#
# Static dielectric constant tensor:
#      x y z
#    x 2.625540 0.000000 0.000000 
#    y 0.000000 2.625540 0.000000 
#    z 0.000000 0.000000 3.288970 
# 
# 
# High freq. dielectric constant tensor:
#      x y z
#    x 1.586260 0.000000 0.000000 
#    y 0.000000 1.586260 0.000000 
#    z 0.000000 0.000000 1.593470 
# 
# From -- ./inp_files/9855.got.cif
#   From: 2010.03.12/outbox.cif.g09.slc.cpg/sg134_5_cif.got.tgz:9855.got - 2010.04.06 18:17:22.
