data_PCOD8317224
_publ_section_title
;
Structure prediction by ZEFSAII (Michael W. Deem and Ramdas Pophale) SiO2 
 PCOD8317224
Probable space group: P 42/N N M
;
_chemical_formula_sum "Si O2"
_cell_formula_units_Z 96
_cell_length_a 15.722138
_cell_length_b 15.722138
_cell_length_c 19.880850
_cell_angle_alpha 90.000000
_cell_angle_beta 90.000000
_cell_angle_gamma 90.000000
_cell_volume 4914.260299
_symmetry_space_group_name_H-M "P 42/N N M"
_symmetry_group_IT_number 134
_space_group.IT_coordinate_system_code '2'
_symmetry_cell_setting 'tetragonal'
loop_
_space_group_symop_operation_xyz
x,y,z
1/2-y,x,1/2+z
1/2-x,1/2-y,z
y,1/2-x,1/2+z
x,1/2-y,1/2-z
1/2-x,y,1/2-z
y,x,-z
1/2-y,1/2-x,-z
-x,-y,-z
1/2+y,-x,1/2-z
1/2+x,1/2+y,-z
-y,1/2+x,1/2-z
-x,1/2+y,1/2+z
1/2+x,-y,1/2+z
-y,-x,z
1/2+y,1/2+x,z
loop_
_atom_site_type_symbol
_atom_site_label
_atom_site_fract_x
_atom_site_fract_y
_atom_site_fract_z
Si Si1 0.168465 0.968387 0.061960
Si Si2 0.438996 0.076519 0.795781
Si Si3 0.998787 0.765175 0.673914
Si Si4 0.441537 0.418523 0.143170
Si Si5 0.570890 0.209997 0.822374
Si Si6 0.746760 0.112934 0.054518
O O1 0.088462 0.911539 0.043115
O O2 0.215861 0.925601 0.123956
O O3 0.129432 0.059353 0.085800
O O4 0.230545 0.965572 0.996637
O O5 0.442624 0.095315 0.716099
O O6 0.482939 0.157165 0.830792
O O7 0.489355 0.989355 0.811686
O O8 0.343267 0.067910 0.824113
O O9 0.032370 0.750000 0.750000
O O10 0.077499 0.786499 0.625785
O O11 0.955719 0.682124 0.641200
O O12 0.529655 0.470346 0.130304
O O13 0.580749 0.250000 0.750000
O O14 0.649570 0.149570 0.836857
O O15 0.829139 0.170862 0.067303
O O16 0.670181 0.170181 0.024022
#
# Coordination Sequence:
#
# PCOD8317224 Si02
#       6
#    16  16  16  16  16  16
#     4  10  20  35  53  77 115 148 176 228 288 339
#     4   9  18  33  52  78 111 141 178 230 272 318
#     4  10  20  35  56  77 105 146 193 234 281 327
#     4   9  17  32  54  79 107 141 185 230 274 326
#     4  11  20  32  54  82 109 143 184 225 271 333
#     4  10  21  35  52  80 114 145 183 235 292 346
#
# _framework density 19.534984999999999
#
# number of rings (size 3 to 8) (size 9 to 14) (size 15 to 20)
#    0.000    2.167    1.667    2.000    0.000    4.500 
#    0.000    5.000    0.000    3.000    0.000    2.333 
#    0.000    0.000    0.000    0.000    0.000    0.000 
#
# Total GULP energy -1189752.267135 kJ/mol
# GULP energy per Si atom -12393.252783 kJ/mol
# Density = 1.949052 g / cm^3
# Si number density = 19.534985 Si / 1000 Ang^3
#
#
#
# Elastic Constant Matrix: (Units=GPa)
#
#
# Indices 1 2 3 4 5 6 
#
# 1 51.6982 5.8505 9.3214 0.0000 0.0000 0.0000
# 2 5.8505 51.6982 9.3214 0.0000 0.0000 0.0000
# 3 9.3214 9.3214 79.8616 0.0000 0.0000 0.0000
# 4 0.0000 0.0000 0.0000 24.0082 0.0000 0.0000
# 5 0.0000 0.0000 0.0000 0.0000 24.0082 0.0000
# 6 0.0000 0.0000 0.0000 0.0000 0.0000 12.6979
#
#
#
# Elastic Compliance Matrix: (Units=1/GPa)
#
#
# Indices 1 2 3 4 5 6 
#
# 1 0.019935 -0.001876 -0.002108 0.000000 0.000000 0.000000
# 2 -0.001876 0.019935 -0.002108 0.000000 0.000000 0.000000
# 3 -0.002108 -0.002108 0.013014 0.000000 0.000000 0.000000
# 4 0.000000 0.000000 0.000000 0.041652 0.000000 0.000000
# 5 0.000000 0.000000 0.000000 0.000000 0.041652 0.000000
# 6 0.000000 0.000000 0.000000 0.000000 0.000000 0.078753
#
#
# Mechanical properties :
#
#
# Convention : Reuss Voigt Hill
#
# Bulk Modulus (GPa) = 24.56939 25.80495 25.18717
# Shear Modulus (GPa) = 20.77333 22.72717 21.75025
#
# Velocity S-wave (km/s) = 3.26451 3.41458 3.34038
# Velocity P-wave (km/s) = 5.17820 5.36508 5.27247
#
# Compressibility (1/GPa) = 0.04070105
#
# Stress axis : x y z
#
# Youngs Moduli (GPa) = 50.16203 50.16203 76.84192
#
# Poissons Ratio (x) = 0.09410 0.16197
# Poissons Ratio (y) = 0.09410 0.16197
# Poissons Ratio (z) = 0.10574 0.10574
#
# Static dielectric constant tensor:
#      x y z
#    x 3.521360 0.000000 0.000000 
#    y 0.000000 3.521360 0.000000 
#    z 0.000000 0.000000 3.681400 
# 
# 
# High freq. dielectric constant tensor:
#      x y z
#    x 1.746920 0.000000 0.000000 
#    y 0.000000 1.746920 0.000000 
#    z 0.000000 0.000000 1.756490 
# 
# From -- ./inp_files/9139.got.cif
#   From: 2010.03.12/outbox.cif.g09.slc.cpg/sg134_5_cif.got.tgz:9139.got - 2010.04.06 18:17:22.
