data_PCOD8317119
_publ_section_title
;
Structure prediction by ZEFSAII (Michael W. Deem and Ramdas Pophale) SiO2 
 PCOD8317119
Probable space group: P 42/N N M
;
_chemical_formula_sum "Si O2"
_cell_formula_units_Z 80
_cell_length_a 13.140013
_cell_length_b 13.140013
_cell_length_c 24.350931
_cell_angle_alpha 90.000000
_cell_angle_beta 90.000000
_cell_angle_gamma 90.000000
_cell_volume 4204.430325
_symmetry_space_group_name_H-M "P 42/N N M"
_symmetry_group_IT_number 134
_space_group.IT_coordinate_system_code '2'
_symmetry_cell_setting 'tetragonal'
loop_
_space_group_symop_operation_xyz
x,y,z
1/2-y,x,1/2+z
1/2-x,1/2-y,z
y,1/2-x,1/2+z
x,1/2-y,1/2-z
1/2-x,y,1/2-z
y,x,-z
1/2-y,1/2-x,-z
-x,-y,-z
1/2+y,-x,1/2-z
1/2+x,1/2+y,-z
-y,1/2+x,1/2-z
-x,1/2+y,1/2+z
1/2+x,-y,1/2+z
-y,-x,z
1/2+y,1/2+x,z
loop_
_atom_site_type_symbol
_atom_site_label
_atom_site_fract_x
_atom_site_fract_y
_atom_site_fract_z
Si Si1 0.495839 0.832925 0.503208
Si Si2 0.485771 0.344560 0.284478
Si Si3 0.415828 0.228253 0.602325
Si Si4 0.511521 0.843443 0.281857
Si Si5 0.221105 0.412424 0.901736
O O1 0.590243 0.909758 0.500000
O O2 0.493447 0.787742 0.441576
O O3 0.508944 0.741609 0.547929
O O4 0.391126 0.891126 0.517053
O O5 0.527816 0.250000 0.250000
O O6 0.570989 0.429012 0.289758
O O7 0.386695 0.392527 0.253608
O O8 0.466746 0.297930 0.344224
O O9 0.457119 0.211797 0.662628
O O10 0.323441 0.151185 0.598360
O O11 0.376908 0.341852 0.588969
O O12 0.458996 0.750000 0.250000
O O13 0.432570 0.932570 0.294346
#
# Coordination Sequence:
#
# PCOD8317119 Si02
#       5
#    16  16  16  16  16
#     4   9  18  31  50  81 116 147 186 237 293 348
#     4  11  23  38  57  83 115 154 199 241 292 351
#     4  10  18  32  56  84 113 145 189 241 292 344
#     4  11  22  36  58  85 116 152 190 234 294 355
#     4  10  19  32  55  81 112 149 188 237 292 350
#
# _framework density 19.027547999999999
#
# number of rings (size 3 to 8) (size 9 to 14) (size 15 to 20)
#    0.000    1.800    4.000    1.200    0.000    4.800 
#    0.000    0.000    0.000    3.600    0.000    0.000 
#    0.000    0.000    0.000    0.000    0.000    0.000 
#
# Total GULP energy -991162.394027 kJ/mol
# GULP energy per Si atom -12389.529925 kJ/mol
# Density = 1.898424 g / cm^3
# Si number density = 19.027548 Si / 1000 Ang^3
#
#
#
# Elastic Constant Matrix: (Units=GPa)
#
#
# Indices 1 2 3 4 5 6 
#
# 1 69.2486 40.1917 56.3826 0.0000 0.0000 0.0000
# 2 40.1917 69.2489 56.3826 0.0000 0.0000 0.0000
# 3 56.3826 56.3826 172.3032 0.0000 0.0000 0.0000
# 4 0.0000 0.0000 0.0000 14.2617 0.0000 0.0000
# 5 0.0000 0.0000 0.0000 0.0000 14.2620 0.0000
# 6 0.0000 0.0000 0.0000 0.0000 0.0000 43.3666
#
#
#
# Elastic Compliance Matrix: (Units=1/GPa)
#
#
# Indices 1 2 3 4 5 6 
#
# 1 0.024100 -0.010315 -0.004511 0.000000 0.000000 0.000000
# 2 -0.010315 0.024100 -0.004511 0.000000 0.000000 0.000000
# 3 -0.004511 -0.004511 0.008756 0.000000 0.000000 0.000000
# 4 0.000000 0.000000 0.000000 0.070118 0.000000 0.000000
# 5 0.000000 0.000000 0.000000 0.000000 0.070116 0.000000
# 6 0.000000 0.000000 0.000000 0.000000 0.000000 0.023059
#
#
# Mechanical properties :
#
#
# Convention : Reuss Voigt Hill
#
# Bulk Modulus (GPa) = 54.69605 68.52383 61.60994
# Shear Modulus (GPa) = 18.86667 24.90098 21.88383
#
# Velocity S-wave (km/s) = 3.15230 3.62149 3.39501
# Velocity P-wave (km/s) = 6.48517 7.31971 6.91504
#
# Compressibility (1/GPa) = 0.01828286
#
# Stress axis : x y z
#
# Youngs Moduli (GPa) = 41.49321 41.49343 114.20779
#
# Poissons Ratio (x) = 0.42800 0.51519
# Poissons Ratio (y) = 0.42800 0.51519
# Poissons Ratio (z) = 0.18718 0.18718
#
# Static dielectric constant tensor:
#      x y z
#    x 3.327750 0.000000 0.000000 
#    y 0.000000 3.327740 0.000000 
#    z 0.000000 0.000000 3.847650 
# 
# 
# High freq. dielectric constant tensor:
#      x y z
#    x 1.714600 0.000000 0.000000 
#    y 0.000000 1.714600 0.000000 
#    z 0.000000 0.000000 1.762170 
# 
# From -- ./inp_files/8902.got.cif
#   From: 2010.03.12/outbox.cif.g09.slc.cpg/sg134_5_cif.got.tgz:8902.got - 2010.04.06 18:17:22.
