data_PCOD8317488
_publ_section_title
;
Structure prediction by ZEFSAII (Michael W. Deem and Ramdas Pophale) SiO2 
 PCOD8317488
Probable space group: P 42/M B C
;
_chemical_formula_sum "Si O2"
_cell_formula_units_Z 64
_cell_length_a 19.910637
_cell_length_b 19.910637
_cell_length_c 9.045328
_cell_angle_alpha 90.000000
_cell_angle_beta 90.000000
_cell_angle_gamma 90.000000
_cell_volume 3585.870728
_symmetry_space_group_name_H-M "P 42/M B C"
_symmetry_group_IT_number 135
_symmetry_cell_setting 'tetragonal'
loop_
_space_group_symop_operation_xyz
x,y,z
-y,x,1/2+z
-x,-y,z
y,-x,1/2+z
1/2+x,1/2-y,-z
1/2-x,1/2+y,-z
1/2+y,1/2+x,1/2-z
1/2-y,1/2-x,1/2-z
-x,-y,-z
y,-x,1/2-z
x,y,-z
-y,x,1/2-z
1/2-x,1/2+y,z
1/2+x,1/2-y,z
1/2-y,1/2-x,1/2+z
1/2+y,1/2+x,1/2+z
loop_
_atom_site_type_symbol
_atom_site_label
_atom_site_fract_x
_atom_site_fract_y
_atom_site_fract_z
Si Si1 0.075320 0.325777 0.169490
Si Si2 0.069067 0.818390 0.673498
Si Si3 0.578708 0.820831 0.172917
Si Si4 0.566967 0.324615 0.172726
O O1 0.121736 0.378265 0.250000
O O2 0.090502 0.249749 0.222328
O O3 0.997792 0.343095 0.200998
O O4 0.093447 0.333298 0.000000
O O5 0.063161 0.803902 0.500000
O O6 0.092727 0.751436 0.755963
O O7 0.124151 0.874312 0.709391
O O8 0.998448 0.845774 0.734699
O O9 0.624703 0.875298 0.250000
O O10 0.595549 0.816547 0.000000
O O11 0.547007 0.324004 0.000000
#
# Coordination Sequence:
#
# PCOD8317488 Si02
#       4
#    16  16  16  16
#     4   9  19  35  53  74 103 136 170 213 259 306
#     4  10  20  35  56  79 105 140 179 218 263 314
#     4  10  21  37  55  77 107 139 174 218 264 313
#     4   9  20  37  53  76 109 139 173 217 263 313
#
# _framework density 17.847828
#
# number of rings (size 3 to 8) (size 9 to 14) (size 15 to 20)
#    0.000    2.500    0.000    3.000    0.000    9.000 
#    0.000    7.500    0.000    0.000    0.000    0.000 
#    0.000    0.000    0.000    0.000    0.000    0.000 
#
# Total GULP energy -793686.923135 kJ/mol
# GULP energy per Si atom -12401.358174 kJ/mol
# Density = 1.780721 g / cm^3
# Si number density = 17.847828 Si / 1000 Ang^3
#
#
#
# Elastic Constant Matrix: (Units=GPa)
#
#
# Indices 1 2 3 4 5 6 
#
# 1 114.7860 92.1607 75.5060 0.0000 0.0000 0.0000
# 2 92.1607 114.7730 75.5069 0.0000 0.0000 0.0000
# 3 75.5060 75.5069 103.9089 0.0000 0.0000 0.0000
# 4 0.0000 0.0000 0.0000 34.2758 0.0000 0.0000
# 5 0.0000 0.0000 0.0000 0.0000 34.2758 0.0000
# 6 0.0000 0.0000 0.0000 0.0000 0.0000 40.8136
#
#
#
# Elastic Compliance Matrix: (Units=1/GPa)
#
#
# Indices 1 2 3 4 5 6 
#
# 1 0.027246 -0.016962 -0.007473 0.000000 0.000000 0.000000
# 2 -0.016962 0.027253 -0.007478 0.000000 0.000000 0.000000
# 3 -0.007473 -0.007478 0.020488 0.000000 0.000000 0.000000
# 4 0.000000 0.000000 0.000000 0.029175 0.000000 0.000000
# 5 0.000000 0.000000 0.000000 0.000000 0.029175 0.000000
# 6 0.000000 0.000000 0.000000 0.000000 0.000000 0.024502
#
#
# Mechanical properties :
#
#
# Convention : Reuss Voigt Hill
#
# Bulk Modulus (GPa) = 89.59710 91.09055 90.34382
# Shear Modulus (GPa) = 22.18432 27.89267 25.03850
#
# Velocity S-wave (km/s) = 3.52940 3.95752 3.74958
# Velocity P-wave (km/s) = 8.18037 8.48709 8.33514
#
# Compressibility (1/GPa) = 0.01116108
#
# Stress axis : x y z
#
# Youngs Moduli (GPa) = 36.70263 36.69386 48.80864
#
# Poissons Ratio (x) = 0.62239 0.36475
# Poissons Ratio (y) = 0.62254 0.36500
# Poissons Ratio (z) = 0.27428 0.27440
#
# Static dielectric constant tensor:
#      x y z
#    x 3.357830 0.000000 0.000000 
#    y 0.000000 3.357840 0.000000 
#    z 0.000000 0.000000 3.396020 
# 
# 
# High freq. dielectric constant tensor:
#      x y z
#    x 1.693740 0.000000 0.000000 
#    y 0.000000 1.693740 0.000000 
#    z 0.000000 0.000000 1.699290 
# 
# From -- ./inp_files/933.got.cif
#   From: 2010.03.12/outbox.cif.g09.slc.cpg/sg135_1_cif.got.tgz:933.got - 2010.04.06 18:31:24.
