data_PCOD8317972
_publ_section_title
;
Structure prediction by ZEFSAII (Michael W. Deem and Ramdas Pophale) SiO2 
 PCOD8317972
Probable space group: P 42/M N M
;
_chemical_formula_sum "Si O2"
_cell_formula_units_Z 96
_cell_length_a 15.396679
_cell_length_b 15.396679
_cell_length_c 19.659279
_cell_angle_alpha 90.000000
_cell_angle_beta 90.000000
_cell_angle_gamma 90.000000
_cell_volume 4660.383940
_symmetry_space_group_name_H-M "P 42/M N M"
_symmetry_group_IT_number 136
_symmetry_cell_setting 'tetragonal'
loop_
_space_group_symop_operation_xyz
x,y,z
1/2-y,1/2+x,1/2+z
-x,-y,z
1/2+y,1/2-x,1/2+z
1/2+x,1/2-y,1/2-z
1/2-x,1/2+y,1/2-z
y,x,-z
-y,-x,-z
-x,-y,-z
1/2+y,1/2-x,1/2-z
x,y,-z
1/2-y,1/2+x,1/2-z
1/2-x,1/2+y,1/2+z
1/2+x,1/2-y,1/2+z
-y,-x,z
y,x,z
loop_
_atom_site_type_symbol
_atom_site_label
_atom_site_fract_x
_atom_site_fract_y
_atom_site_fract_z
Si Si1 0.457666 0.752500 0.717616
Si Si2 0.706079 0.047166 0.423774
Si Si3 0.800899 0.656194 0.287967
Si Si4 0.075147 0.305064 0.076143
Si Si5 0.888570 0.374540 0.075066
Si Si6 0.502778 0.364719 0.170029
O O1 0.556473 0.783244 0.731347
O O2 0.387829 0.820855 0.746429
O O3 0.436357 0.735049 0.637294
O O4 0.449542 0.664840 0.760574
O O5 0.743254 0.046029 0.500000
O O6 0.662170 0.140124 0.408984
O O7 0.632448 0.975183 0.413304
O O8 0.786150 0.028703 0.375570
O O9 0.720687 0.720687 0.269765
O O10 0.817284 0.662294 0.369186
O O11 0.992385 0.368233 0.081154
O O12 0.079967 0.262189 0.000000
O O13 0.857722 0.343152 0.000000
O O14 0.573867 0.426134 0.131876
O O15 0.418665 0.418665 0.191134
#
# Coordination Sequence:
#
# PCOD8317972 Si02
#       6
#    16  16  16  16  16  16
#     4  11  22  37  60  86 117 155 196 247 302 358
#     4  10  19  35  59  86 118 156 196 240 289 353
#     4  11  23  38  58  87 121 155 199 249 299 357
#     4   9  19  35  57  88 120 150 186 236 299 362
#     4   9  18  33  57  88 122 156 187 229 288 358
#     4  11  24  41  59  81 114 159 208 252 297 351
#
# _framework density 20.599162
#
# number of rings (size 3 to 8) (size 9 to 14) (size 15 to 20)
#    0.000    1.833    1.667    2.500    0.000    3.333 
#    0.000    3.333    0.000    5.500    0.000    1.167 
#    0.000    0.000    0.000    0.000    0.000    0.000 
#
# Total GULP energy -1189492.169760 kJ/mol
# GULP energy per Si atom -12390.543435 kJ/mol
# Density = 2.055228 g / cm^3
# Si number density = 20.599162 Si / 1000 Ang^3
#
#
#
# Elastic Constant Matrix: (Units=GPa)
#
#
# Indices 1 2 3 4 5 6 
#
# 1 83.8146 34.3886 45.6948 0.0000 0.0000 0.0000
# 2 34.3886 83.8146 45.6948 0.0000 0.0000 0.0000
# 3 45.6948 45.6948 129.3970 0.0000 0.0000 0.0000
# 4 0.0000 0.0000 0.0000 18.5970 0.0000 0.0000
# 5 0.0000 0.0000 0.0000 0.0000 18.5970 0.0000
# 6 0.0000 0.0000 0.0000 0.0000 0.0000 24.7268
#
#
#
# Elastic Compliance Matrix: (Units=1/GPa)
#
#
# Indices 1 2 3 4 5 6 
#
# 1 0.015935 -0.004297 -0.004110 0.000000 0.000000 0.000000
# 2 -0.004297 0.015935 -0.004110 0.000000 0.000000 0.000000
# 3 -0.004110 -0.004110 0.010631 0.000000 0.000000 0.000000
# 4 0.000000 0.000000 0.000000 0.053772 0.000000 0.000000
# 5 0.000000 0.000000 0.000000 0.000000 0.053772 0.000000
# 6 0.000000 0.000000 0.000000 0.000000 0.000000 0.040442
#
#
# Mechanical properties :
#
#
# Convention : Reuss Voigt Hill
#
# Bulk Modulus (GPa) = 57.25068 60.95364 59.10216
# Shear Modulus (GPa) = 22.58946 23.80068 23.19507
#
# Velocity S-wave (km/s) = 3.31512 3.40283 3.35926
# Velocity P-wave (km/s) = 6.51969 6.71518 6.61816
#
# Compressibility (1/GPa) = 0.01746704
#
# Stress axis : x y z
#
# Youngs Moduli (GPa) = 62.75573 62.75573 94.06772
#
# Poissons Ratio (x) = 0.26969 0.38658
# Poissons Ratio (y) = 0.26969 0.38658
# Poissons Ratio (z) = 0.25790 0.25790
#
# Static dielectric constant tensor:
#      x y z
#    x 3.674510 0.000000 0.000000 
#    y 0.000000 3.674510 0.000000 
#    z 0.000000 0.000000 4.198100 
# 
# 
# High freq. dielectric constant tensor:
#      x y z
#    x 1.791770 0.000000 0.000000 
#    y 0.000000 1.791770 0.000000 
#    z 0.000000 0.000000 1.819270 
# 
# From -- ./inp_files/7466.got.cif
#   From: 2010.03.12/outbox.cif.g09.slc.cpg/sg136_4_cif.got.tgz:7466.got - 2010.04.06 18:39:43.
