data_PCOD8317473
_publ_section_title
;
Structure prediction by ZEFSAII (Michael W. Deem and Ramdas Pophale) SiO2 
 PCOD8317473
Probable space group: P 42/M B C
;
_chemical_formula_sum "Si O2"
_cell_formula_units_Z 96
_cell_length_a 25.333509
_cell_length_b 25.333509
_cell_length_c 9.202679
_cell_angle_alpha 90.000000
_cell_angle_beta 90.000000
_cell_angle_gamma 90.000000
_cell_volume 5906.156786
_symmetry_space_group_name_H-M "P 42/M B C"
_symmetry_group_IT_number 135
_symmetry_cell_setting 'tetragonal'
loop_
_space_group_symop_operation_xyz
x,y,z
-y,x,1/2+z
-x,-y,z
y,-x,1/2+z
1/2+x,1/2-y,-z
1/2-x,1/2+y,-z
1/2+y,1/2+x,1/2-z
1/2-y,1/2-x,1/2-z
-x,-y,-z
y,-x,1/2-z
x,y,-z
-y,x,1/2-z
1/2-x,1/2+y,z
1/2+x,1/2-y,z
1/2-y,1/2-x,1/2+z
1/2+y,1/2+x,1/2+z
loop_
_atom_site_type_symbol
_atom_site_label
_atom_site_fract_x
_atom_site_fract_y
_atom_site_fract_z
Si Si1 0.944572 0.859461 0.170336
Si Si2 0.942224 0.742595 0.831608
Si Si3 0.365868 0.058995 0.836476
Si Si4 0.945703 0.137214 0.666833
Si Si5 0.247229 0.546660 0.835392
Si Si6 0.640860 0.064187 0.170640
O O1 0.919573 0.801312 0.201221
O O2 0.902316 0.901776 0.229935
O O3 0.999643 0.869828 0.249599
O O4 0.955285 0.866015 0.000000
O O5 0.914787 0.696945 0.734940
O O6 0.003307 0.746440 0.789628
O O7 0.936233 0.727211 0.000000
O O8 0.408143 0.091858 0.750000
O O9 0.305870 0.081839 0.813917
O O10 0.365890 0.997523 0.791671
O O11 0.384757 0.064976 0.000000
O O12 0.957334 0.123632 0.500000
O O13 0.922491 0.197277 0.681086
O O14 0.243746 0.521514 0.000000
O O15 0.593445 0.093445 0.250000
O O16 0.639280 0.075893 0.000000
#
# Coordination Sequence:
#
# PCOD8317473 Si02
#       6
#    16  16  16  16  16  16
#     4   9  18  30  45  68  93 119 153 189 227 270
#     4   9  16  28  46  66  88 115 150 190 225 261
#     4   9  18  30  45  66  90 115 145 180 218 263
#     4   9  17  30  47  65  90 123 153 185 226 269
#     4   8  15  29  46  63  84 116 155 186 216 260
#     4  10  20  33  48  68  92 118 149 182 220 267
#
# _framework density 16.254225999999999
#
# number of rings (size 3 to 8) (size 9 to 14) (size 15 to 20)
#    0.000    3.000    0.000    2.000    0.000    5.333 
#    0.000    3.333    0.000    1.000    0.000    2.333 
#    0.000    0.000    0.000    0.000    0.000    0.000 
#
# Total GULP energy -1189257.987358 kJ/mol
# GULP energy per Si atom -12388.104035 kJ/mol
# Density = 1.621723 g / cm^3
# Si number density = 16.254226 Si / 1000 Ang^3
#
#
#
# Elastic Constant Matrix: (Units=GPa)
#
#
# Indices 1 2 3 4 5 6 
#
# 1 95.7188 66.6044 47.7267 0.0000 0.0000 0.0000
# 2 66.6044 95.7274 47.7237 0.0000 0.0000 0.0000
# 3 47.7267 47.7237 66.9582 0.0000 0.0000 0.0000
# 4 0.0000 0.0000 0.0000 23.8884 0.0000 0.0000
# 5 0.0000 0.0000 0.0000 0.0000 23.8883 0.0000
# 6 0.0000 0.0000 0.0000 0.0000 0.0000 3.0370
#
#
#
# Elastic Compliance Matrix: (Units=1/GPa)
#
#
# Indices 1 2 3 4 5 6 
#
# 1 0.022476 -0.011869 -0.007561 0.000000 0.000000 0.000000
# 2 -0.011869 0.022471 -0.007556 0.000000 0.000000 0.000000
# 3 -0.007561 -0.007556 0.025710 0.000000 0.000000 0.000000
# 4 0.000000 0.000000 0.000000 0.041861 0.000000 0.000000
# 5 0.000000 0.000000 0.000000 0.000000 0.041861 0.000000
# 6 0.000000 0.000000 0.000000 0.000000 0.000000 0.329267
#
#
# Mechanical properties :
#
#
# Convention : Reuss Voigt Hill
#
# Bulk Modulus (GPa) = 59.93530 64.72380 62.32955
# Shear Modulus (GPa) = 9.20502 16.58607 12.89555
#
# Velocity S-wave (km/s) = 2.38232 3.19786 2.81973
# Velocity P-wave (km/s) = 6.67241 7.31719 7.00222
#
# Compressibility (1/GPa) = 0.01668466
#
# Stress axis : x y z
#
# Youngs Moduli (GPa) = 44.49187 44.50119 38.89527
#
# Poissons Ratio (x) = 0.52816 0.29410
# Poissons Ratio (y) = 0.52805 0.29391
# Poissons Ratio (z) = 0.33642 0.33627
#
# Static dielectric constant tensor:
#      x y z
#    x 3.121120 0.000000 0.000000 
#    y 0.000000 3.121120 0.000000 
#    z 0.000000 0.000000 3.117040 
# 
# 
# High freq. dielectric constant tensor:
#      x y z
#    x 1.608430 0.000000 0.000000 
#    y 0.000000 1.608430 0.000000 
#    z 0.000000 0.000000 1.632540 
# 
# From -- ./inp_files/1281.got.cif
#   From: 2010.03.12/outbox.cif.g09.slc.cpg/sg135_1_cif.got.tgz:1281.got - 2010.04.06 18:31:24.
