data_PCOD8317747
_publ_section_title
;
Structure prediction by ZEFSAII (Michael W. Deem and Ramdas Pophale) SiO2 
 PCOD8317747
Probable space group: P 42/M N M
;
_chemical_formula_sum "Si O2"
_cell_formula_units_Z 128
_cell_length_a 20.816808
_cell_length_b 20.816808
_cell_length_c 18.258135
_cell_angle_alpha 90.000000
_cell_angle_beta 90.000000
_cell_angle_gamma 90.000000
_cell_volume 7911.971006
_symmetry_space_group_name_H-M "P 42/M N M"
_symmetry_group_IT_number 136
_symmetry_cell_setting 'tetragonal'
loop_
_space_group_symop_operation_xyz
x,y,z
1/2-y,1/2+x,1/2+z
-x,-y,z
1/2+y,1/2-x,1/2+z
1/2+x,1/2-y,1/2-z
1/2-x,1/2+y,1/2-z
y,x,-z
-y,-x,-z
-x,-y,-z
1/2+y,1/2-x,1/2-z
x,y,-z
1/2-y,1/2+x,1/2-z
1/2-x,1/2+y,1/2+z
1/2+x,1/2-y,1/2+z
-y,-x,z
y,x,z
loop_
_atom_site_type_symbol
_atom_site_label
_atom_site_fract_x
_atom_site_fract_y
_atom_site_fract_z
Si Si1 0.239836 0.507431 0.302531
Si Si2 0.567903 0.032036 0.580444
Si Si3 0.323241 0.091563 0.082743
Si Si4 0.495625 0.103246 0.230243
Si Si5 0.702723 0.197647 0.314648
Si Si6 0.282029 0.616335 0.208009
Si Si7 0.133428 0.760951 0.818106
Si Si8 0.323002 0.784858 0.082405
O O1 0.230739 0.550384 0.375187
O O2 0.170023 0.490927 0.270994
O O3 0.282836 0.544485 0.241411
O O4 0.276139 0.442241 0.325770
O O5 0.594208 0.012482 0.500000
O O6 0.556202 0.108334 0.584757
O O7 0.616246 0.005687 0.642454
O O8 0.500000 0.000000 0.597573
O O9 0.332948 0.161258 0.120292
O O10 0.298811 0.101268 0.000000
O O11 0.561042 0.067357 0.251997
O O12 0.757934 0.242067 0.350308
O O13 0.659510 0.240166 0.261600
O O14 0.735018 0.143003 0.264563
O O15 0.354269 0.645732 0.202461
O O16 0.246069 0.618022 0.128864
O O17 0.174031 0.825970 0.831362
O O18 0.152406 0.706401 0.877672
O O19 0.267331 0.732670 0.080548
O O20 0.346078 0.802465 0.000000
#
# Coordination Sequence:
#
# PCOD8317747 Si02
#       8
#    16  16  16  16  16  16  16  16
#     4  11  20  29  50  65  89 123 157 196 233 277
#     4  10  18  30  41  54  85 123 152 184 214 247
#     4  10  19  29  42  65  89 113 151 193 228 270
#     4  11  19  30  44  62  85 120 159 185 215 274
#     4   8  15  30  48  64  84 113 148 193 235 270
#     4   8  16  30  46  66  89 118 155 191 230 272
#     4   9  18  30  47  69  92 120 159 195 234 283
#     4   8  14  27  47  69  96 124 148 185 237 289
#
# _framework density 16.178017000000001
#
# number of rings (size 3 to 8) (size 9 to 14) (size 15 to 20)
#    0.000    2.625    2.500    2.250    3.500    0.750 
#    0.000    0.625    0.000    1.125    0.000    0.000 
#    0.000    0.000    0.000   12.500    0.000    0.000 
#
# Total GULP energy -1586416.095406 kJ/mol
# GULP energy per Si atom -12393.875745 kJ/mol
# Density = 1.614119 g / cm^3
# Si number density = 16.178017 Si / 1000 Ang^3
#
#
#
# Elastic Constant Matrix: (Units=GPa)
#
#
# Indices 1 2 3 4 5 6 
#
# 1 57.4129 12.5994 26.6344 0.0000 0.0000 0.0000
# 2 12.5994 57.4129 26.6344 0.0000 0.0000 0.0000
# 3 26.6344 26.6344 119.4820 0.0000 0.0000 0.0000
# 4 0.0000 0.0000 0.0000 14.5533 0.0000 0.0000
# 5 0.0000 0.0000 0.0000 0.0000 14.5533 0.0000
# 6 0.0000 0.0000 0.0000 0.0000 0.0000 14.4823
#
#
#
# Elastic Compliance Matrix: (Units=1/GPa)
#
#
# Indices 1 2 3 4 5 6 
#
# 1 0.019758 -0.002557 -0.003834 0.000000 0.000000 0.000000
# 2 -0.002557 0.019758 -0.003834 0.000000 0.000000 0.000000
# 3 -0.003834 -0.003834 0.010079 0.000000 0.000000 0.000000
# 4 0.000000 0.000000 0.000000 0.068713 0.000000 0.000000
# 5 0.000000 0.000000 0.000000 0.000000 0.068713 0.000000
# 6 0.000000 0.000000 0.000000 0.000000 0.000000 0.069050
#
#
# Mechanical properties :
#
#
# Convention : Reuss Voigt Hill
#
# Bulk Modulus (GPa) = 34.31374 40.67159 37.49266
# Shear Modulus (GPa) = 17.46817 19.94710 18.70763
#
# Velocity S-wave (km/s) = 3.28952 3.51518 3.40422
# Velocity P-wave (km/s) = 5.97361 6.45523 6.21908
#
# Compressibility (1/GPa) = 0.02914285
#
# Stress axis : x y z
#
# Youngs Moduli (GPa) = 50.61341 50.61341 99.21729
#
# Poissons Ratio (x) = 0.12942 0.38042
# Poissons Ratio (y) = 0.12942 0.38042
# Poissons Ratio (z) = 0.19406 0.19406
#
# Static dielectric constant tensor:
#      x y z
#    x 2.930990 0.000000 0.000000 
#    y 0.000000 2.930990 0.000000 
#    z 0.000000 0.000000 3.465210 
# 
# 
# High freq. dielectric constant tensor:
#      x y z
#    x 1.589110 0.000000 0.000000 
#    y 0.000000 1.589110 0.000000 
#    z 0.000000 0.000000 1.630500 
# 
# From -- ./inp_files/6665.got.cif
#   From: 2010.03.12/outbox.cif.g09.slc.cpg/sg136_4_cif.got.tgz:6665.got - 2010.04.06 18:39:43.
