data_PCOD8317207
_publ_section_title
;
Structure prediction by ZEFSAII (Michael W. Deem and Ramdas Pophale) SiO2 
 PCOD8317207
Probable space group: P 42/N N M
;
_chemical_formula_sum "Si O2"
_cell_formula_units_Z 64
_cell_length_a 14.188414
_cell_length_b 14.188414
_cell_length_c 16.120453
_cell_angle_alpha 90.000000
_cell_angle_beta 90.000000
_cell_angle_gamma 90.000000
_cell_volume 3245.225994
_symmetry_space_group_name_H-M "P 42/N N M"
_symmetry_group_IT_number 134
_space_group.IT_coordinate_system_code '2'
_symmetry_cell_setting 'tetragonal'
loop_
_space_group_symop_operation_xyz
x,y,z
1/2-y,x,1/2+z
1/2-x,1/2-y,z
y,1/2-x,1/2+z
x,1/2-y,1/2-z
1/2-x,y,1/2-z
y,x,-z
1/2-y,1/2-x,-z
-x,-y,-z
1/2+y,-x,1/2-z
1/2+x,1/2+y,-z
-y,1/2+x,1/2-z
-x,1/2+y,1/2+z
1/2+x,-y,1/2+z
-y,-x,z
1/2+y,1/2+x,z
loop_
_atom_site_type_symbol
_atom_site_label
_atom_site_fract_x
_atom_site_fract_y
_atom_site_fract_z
Si Si1 0.995980 0.149779 0.024339
Si Si2 0.673418 0.605001 0.176841
Si Si3 0.494134 0.352847 0.718187
Si Si4 0.383904 0.277164 0.573507
O O1 0.013657 0.186772 0.118605
O O2 0.067609 0.067609 0.000000
O O3 0.017752 0.234629 0.961819
O O4 0.888739 0.111262 0.015993
O O5 0.750000 0.609800 0.250000
O O6 0.566797 0.598653 0.209871
O O7 0.682420 0.697858 0.117748
O O8 0.526195 0.250000 0.750000
O O9 0.586182 0.413819 0.697685
O O10 0.421586 0.351246 0.640771
O O11 0.326270 0.326270 0.500000
#
# Coordination Sequence:
#
# PCOD8317207 Si02
#       4
#    16  16  16  16
#     4   9  18  32  50  72 102 139 176 215 266 329
#     4  10  20  33  53  79 108 139 173 219 277 332
#     4  10  22  37  53  76 106 141 182 224 268 322
#     4  10  21  33  51  79 110 138 174 223 277 335
#
# _framework density 19.721276
#
# number of rings (size 3 to 8) (size 9 to 14) (size 15 to 20)
#    0.000    2.250    0.000    2.250    0.000   25.750 
#    0.000    0.000    0.000    0.000    0.000    0.000 
#    0.000    6.500    0.000    0.000    0.000    0.000 
#
# Total GULP energy -793006.790477 kJ/mol
# GULP energy per Si atom -12390.731101 kJ/mol
# Density = 1.967639 g / cm^3
# Si number density = 19.721276 Si / 1000 Ang^3
#
#
#
# Elastic Constant Matrix: (Units=GPa)
#
#
# Indices 1 2 3 4 5 6 
#
# 1 31.3845 11.7543 11.7052 0.0000 0.0000 0.0000
# 2 11.7543 31.3845 11.7052 0.0000 0.0000 0.0000
# 3 11.7052 11.7052 98.0058 0.0000 0.0000 0.0000
# 4 0.0000 0.0000 0.0000 22.7897 0.0000 0.0000
# 5 0.0000 0.0000 0.0000 0.0000 22.7897 0.0000
# 6 0.0000 0.0000 0.0000 0.0000 0.0000 30.9487
#
#
#
# Elastic Compliance Matrix: (Units=1/GPa)
#
#
# Indices 1 2 3 4 5 6 
#
# 1 0.037865 -0.013077 -0.002960 0.000000 0.000000 0.000000
# 2 -0.013077 0.037865 -0.002960 0.000000 0.000000 0.000000
# 3 -0.002960 -0.002960 0.010911 0.000000 0.000000 0.000000
# 4 0.000000 0.000000 0.000000 0.043880 0.000000 0.000000
# 5 0.000000 0.000000 0.000000 0.000000 0.043880 0.000000
# 6 0.000000 0.000000 0.000000 0.000000 0.000000 0.032312
#
#
# Mechanical properties :
#
#
# Convention : Reuss Voigt Hill
#
# Bulk Modulus (GPa) = 20.55758 25.67826 23.11792
# Shear Modulus (GPa) = 19.16283 23.67961 21.42122
#
# Velocity S-wave (km/s) = 3.12057 3.46889 3.29933
# Velocity P-wave (km/s) = 4.84052 5.39380 5.12463
#
# Compressibility (1/GPa) = 0.04864386
#
# Stress axis : x y z
#
# Youngs Moduli (GPa) = 26.40976 26.40976 91.65361
#
# Poissons Ratio (x) = 0.34537 0.27134
# Poissons Ratio (y) = 0.34537 0.27134
# Poissons Ratio (z) = 0.07819 0.07819
#
# Static dielectric constant tensor:
#      x y z
#    x 3.429550 0.000000 0.000000 
#    y 0.000000 3.429550 0.000000 
#    z 0.000000 0.000000 4.097930 
# 
# 
# High freq. dielectric constant tensor:
#      x y z
#    x 1.731350 0.000000 0.000000 
#    y 0.000000 1.731350 0.000000 
#    z 0.000000 0.000000 1.799080 
# 
# From -- ./inp_files/6106.got.cif
#   From: 2010.03.12/outbox.cif.g09.slc.cpg/sg134_4_cif.got.tgz:6106.got - 2010.04.06 18:17:22.
