data_PCOD8317444
_publ_section_title
;
Structure prediction by ZEFSAII (Michael W. Deem and Ramdas Pophale) SiO2 
 PCOD8317444
Probable space group: P 42/M B C
;
_chemical_formula_sum "Si O2"
_cell_formula_units_Z 112
_cell_length_a 14.227837
_cell_length_b 14.227837
_cell_length_c 29.505569
_cell_angle_alpha 90.000000
_cell_angle_beta 90.000000
_cell_angle_gamma 90.000000
_cell_volume 5972.852038
_symmetry_space_group_name_H-M "P 42/M B C"
_symmetry_group_IT_number 135
_symmetry_cell_setting 'tetragonal'
loop_
_space_group_symop_operation_xyz
x,y,z
-y,x,1/2+z
-x,-y,z
y,-x,1/2+z
1/2+x,1/2-y,-z
1/2-x,1/2+y,-z
1/2+y,1/2+x,1/2-z
1/2-y,1/2-x,1/2-z
-x,-y,-z
y,-x,1/2-z
x,y,-z
-y,x,1/2-z
1/2-x,1/2+y,z
1/2+x,1/2-y,z
1/2-y,1/2-x,1/2+z
1/2+y,1/2+x,1/2+z
loop_
_atom_site_type_symbol
_atom_site_label
_atom_site_fract_x
_atom_site_fract_y
_atom_site_fract_z
Si Si1 0.847522 0.936113 0.000000
Si Si2 0.062549 0.876347 0.000000
Si Si3 0.185440 0.762285 0.847065
Si Si4 0.954275 0.727747 0.350051
Si Si5 0.536766 0.092848 0.114643
Si Si6 0.983294 0.210394 0.090383
Si Si7 0.120720 0.817570 0.598002
Si Si8 0.396158 0.095609 0.801113
O O1 0.796253 0.893406 0.044355
O O2 0.957610 0.915425 0.000000
O O3 0.850700 0.049734 0.000000
O O4 0.072377 0.815447 0.045111
O O5 0.229198 0.859251 0.828523
O O6 0.090197 0.798102 0.869594
O O7 0.250686 0.702585 0.882065
O O8 0.158276 0.695393 0.805019
O O9 0.915299 0.648446 0.383746
O O10 0.020813 0.801125 0.376906
O O11 0.013688 0.678289 0.311034
O O12 0.514661 0.182059 0.084188
O O13 0.484875 0.095604 0.164404
O O14 0.500000 0.000000 0.088785
O O15 0.072723 0.146293 0.103639
O O16 0.426368 0.073633 0.750000
#
# Coordination Sequence:
#
# PCOD8317444 Si02
#       8
#     8   8  16  16  16  16  16  16
#     4   9  18  33  51  79 111 147 188 226 271 324
#     4   9  18  31  52  79 108 147 187 225 275 334
#     4  10  20  35  56  82 108 149 188 230 283 341
#     4  10  19  34  56  80 108 143 190 223 279 339
#     4   9  18  34  56  77 106 145 185 226 274 339
#     4  10  19  35  55  77 115 149 186 234 284 326
#     4  10  20  35  55  80 115 148 191 237 273 334
#     4   9  20  38  55  82 112 139 185 232 280 338
#
# _framework density 18.75151
#
# number of rings (size 3 to 8) (size 9 to 14) (size 15 to 20)
#    0.000    2.429    1.429    1.714    0.000    4.857 
#    2.571    1.786    0.000    0.000    0.000    0.000 
#    0.000    0.000    0.000    0.000    0.000    0.000 
#
# Total GULP energy -1387576.133215 kJ/mol
# GULP energy per Si atom -12389.072618 kJ/mol
# Density = 1.870883 g / cm^3
# Si number density = 18.751510 Si / 1000 Ang^3
#
#
#
# Elastic Constant Matrix: (Units=GPa)
#
#
# Indices 1 2 3 4 5 6 
#
# 1 100.9522 33.2702 16.8257 0.0000 0.0000 0.0000
# 2 33.2702 100.9523 16.8257 0.0000 0.0000 0.0000
# 3 16.8257 16.8257 66.4353 0.0000 0.0000 0.0000
# 4 0.0000 0.0000 0.0000 14.2938 0.0000 0.0000
# 5 0.0000 0.0000 0.0000 0.0000 14.2938 0.0000
# 6 0.0000 0.0000 0.0000 0.0000 0.0000 36.3437
#
#
#
# Elastic Compliance Matrix: (Units=1/GPa)
#
#
# Indices 1 2 3 4 5 6 
#
# 1 0.011365 -0.003410 -0.002015 0.000000 0.000000 0.000000
# 2 -0.003410 0.011365 -0.002015 0.000000 0.000000 0.000000
# 3 -0.002015 -0.002015 0.016073 0.000000 0.000000 0.000000
# 4 0.000000 0.000000 0.000000 0.069960 0.000000 0.000000
# 5 0.000000 0.000000 0.000000 0.000000 0.069960 0.000000
# 6 0.000000 0.000000 0.000000 0.000000 0.000000 0.027515
#
#
# Mechanical properties :
#
#
# Convention : Reuss Voigt Hill
#
# Bulk Modulus (GPa) = 41.79833 44.68699 43.24266
# Shear Modulus (GPa) = 21.82523 26.41415 24.11969
#
# Velocity S-wave (km/s) = 3.41533 3.75726 3.59037
# Velocity P-wave (km/s) = 6.15562 6.53495 6.34812
#
# Compressibility (1/GPa) = 0.02392440
#
# Stress axis : x y z
#
# Youngs Moduli (GPa) = 87.98773 87.98781 62.21686
#
# Poissons Ratio (x) = 0.30002 0.12536
# Poissons Ratio (y) = 0.30002 0.12536
# Poissons Ratio (z) = 0.17728 0.17728
#
# Static dielectric constant tensor:
#      x y z
#    x 3.690720 0.000000 0.000000 
#    y 0.000000 3.690720 0.000000 
#    z 0.000000 0.000000 3.135260 
# 
# 
# High freq. dielectric constant tensor:
#      x y z
#    x 1.738870 0.000000 0.000000 
#    y 0.000000 1.738870 0.000000 
#    z 0.000000 0.000000 1.687590 
# 
# From -- ./inp_files/6550.got.cif
#   From: 2010.03.12/outbox.cif.g09.slc.cpg/sg135_4_cif.got.tgz:6550.got - 2010.04.06 18:31:24.
