data_PCOD8317402
_publ_section_title
;
Structure prediction by ZEFSAII (Michael W. Deem and Ramdas Pophale) SiO2 
 PCOD8317402
Probable space group: P 42/M B C
;
_chemical_formula_sum "Si O2"
_cell_formula_units_Z 96
_cell_length_a 25.138893
_cell_length_b 25.138893
_cell_length_c 9.090701
_cell_angle_alpha 90.000000
_cell_angle_beta 90.000000
_cell_angle_gamma 90.000000
_cell_volume 5744.995233
_symmetry_space_group_name_H-M "P 42/M B C"
_symmetry_group_IT_number 135
_symmetry_cell_setting 'tetragonal'
loop_
_space_group_symop_operation_xyz
x,y,z
-y,x,1/2+z
-x,-y,z
y,-x,1/2+z
1/2+x,1/2-y,-z
1/2-x,1/2+y,-z
1/2+y,1/2+x,1/2-z
1/2-y,1/2-x,1/2-z
-x,-y,-z
y,-x,1/2-z
x,y,-z
-y,x,1/2-z
1/2-x,1/2+y,z
1/2+x,1/2-y,z
1/2-y,1/2-x,1/2+z
1/2+y,1/2+x,1/2+z
loop_
_atom_site_type_symbol
_atom_site_label
_atom_site_fract_x
_atom_site_fract_y
_atom_site_fract_z
Si Si1 0.833786 0.743161 0.672938
Si Si2 0.621614 0.052385 0.336823
Si Si3 0.246727 0.439988 0.661006
Si Si4 0.232868 0.553380 0.670805
Si Si5 0.253050 0.172271 0.669521
Si Si6 0.875048 0.450505 0.173022
O O1 0.810058 0.689943 0.750000
O O2 0.834610 0.732164 0.500000
O O3 0.893633 0.758704 0.722648
O O4 0.797949 0.793461 0.719202
O O5 0.605685 0.105685 0.250000
O O6 0.596745 0.052137 0.500000
O O7 0.684347 0.049649 0.345378
O O8 0.598279 0.002824 0.244589
O O9 0.267572 0.421553 0.500000
O O10 0.269680 0.499928 0.698842
O O11 0.212508 0.551847 0.500000
O O12 0.261471 0.610221 0.700670
O O13 0.186868 0.550805 0.790801
O O14 0.306377 0.193624 0.750000
O O15 0.265143 0.181837 0.500000
O O16 0.899038 0.399038 0.250000
O O17 0.884973 0.449700 0.000000
#
# Coordination Sequence:
#
# PCOD8317402 Si02
#       6
#    16  16  16  16  16  16
#     4  10  19  30  46  68  94 122 152 185 222 267
#     4  10  20  33  46  61  80 106 142 182 223 263
#     4   9  18  31  47  65  87 115 145 179 218 263
#     4   9  18  33  49  65  87 115 148 183 221 265
#     4   9  18  31  47  68  93 121 151 185 225 268
#     4  11  21  32  45  61  81 107 141 180 222 264
#
# _framework density 16.710197000000001
#
# number of rings (size 3 to 8) (size 9 to 14) (size 15 to 20)
#    0.000    2.333    0.000    4.500    0.000    7.667 
#    0.000    1.667    0.000    0.000    0.000    0.000 
#    0.000    0.667    0.000    8.333    0.000    0.000 
#
# Total GULP energy -1189405.633263 kJ/mol
# GULP energy per Si atom -12389.642013 kJ/mol
# Density = 1.667216 g / cm^3
# Si number density = 16.710197 Si / 1000 Ang^3
#
#
#
# Elastic Constant Matrix: (Units=GPa)
#
#
# Indices 1 2 3 4 5 6 
#
# 1 77.2110 23.9321 29.2653 0.0000 0.0000 0.0000
# 2 23.9321 77.2135 29.2659 0.0000 0.0000 0.0000
# 3 29.2653 29.2659 101.3726 0.0000 0.0000 0.0000
# 4 0.0000 0.0000 0.0000 18.1096 0.0000 0.0000
# 5 0.0000 0.0000 0.0000 0.0000 18.1094 0.0000
# 6 0.0000 0.0000 0.0000 0.0000 0.0000 18.5850
#
#
#
# Elastic Compliance Matrix: (Units=1/GPa)
#
#
# Indices 1 2 3 4 5 6 
#
# 1 0.015320 -0.003449 -0.003427 0.000000 0.000000 0.000000
# 2 -0.003449 0.015319 -0.003427 0.000000 0.000000 0.000000
# 3 -0.003427 -0.003427 0.011843 0.000000 0.000000 0.000000
# 4 0.000000 0.000000 0.000000 0.055219 0.000000 0.000000
# 5 0.000000 0.000000 0.000000 0.000000 0.055220 0.000000
# 6 0.000000 0.000000 0.000000 0.000000 0.000000 0.053807
#
#
# Mechanical properties :
#
#
# Convention : Reuss Voigt Hill
#
# Bulk Modulus (GPa) = 45.71239 46.74708 46.22973
# Shear Modulus (GPa) = 21.31051 22.51637 21.91344
#
# Velocity S-wave (km/s) = 3.57501 3.67476 3.62523
# Velocity P-wave (km/s) = 6.66755 6.78536 6.72671
#
# Compressibility (1/GPa) = 0.02187591
#
# Stress axis : x y z
#
# Youngs Moduli (GPa) = 65.27608 65.27819 84.43688
#
# Poissons Ratio (x) = 0.22517 0.28935
# Poissons Ratio (y) = 0.22516 0.28934
# Poissons Ratio (z) = 0.22369 0.22369
#
# Static dielectric constant tensor:
#      x y z
#    x 3.185820 0.000000 0.000000 
#    y 0.000000 3.185810 0.000000 
#    z 0.000000 0.000000 3.219760 
# 
# 
# High freq. dielectric constant tensor:
#      x y z
#    x 1.616530 0.000000 0.000000 
#    y 0.000000 1.616520 0.000000 
#    z 0.000000 0.000000 1.653870 
# 
# From -- ./inp_files/1264.got.cif
#   From: 2010.03.12/outbox.cif.g09.slc.cpg/sg135_1_cif.got.tgz:1264.got - 2010.04.06 18:31:24.
