data_PCOD8317441
_publ_section_title
;
Structure prediction by ZEFSAII (Michael W. Deem and Ramdas Pophale) SiO2 
 PCOD8317441
Probable space group: P 42/M B C
;
_chemical_formula_sum "Si O2"
_cell_formula_units_Z 96
_cell_length_a 23.931975
_cell_length_b 23.931975
_cell_length_c 8.600213
_cell_angle_alpha 90.000000
_cell_angle_beta 90.000000
_cell_angle_gamma 90.000000
_cell_volume 4925.681069
_symmetry_space_group_name_H-M "P 42/M B C"
_symmetry_group_IT_number 135
_symmetry_cell_setting 'tetragonal'
loop_
_space_group_symop_operation_xyz
x,y,z
-y,x,1/2+z
-x,-y,z
y,-x,1/2+z
1/2+x,1/2-y,-z
1/2-x,1/2+y,-z
1/2+y,1/2+x,1/2-z
1/2-y,1/2-x,1/2-z
-x,-y,-z
y,-x,1/2-z
x,y,-z
-y,x,1/2-z
1/2-x,1/2+y,z
1/2+x,1/2-y,z
1/2-y,1/2-x,1/2+z
1/2+y,1/2+x,1/2+z
loop_
_atom_site_type_symbol
_atom_site_label
_atom_site_fract_x
_atom_site_fract_y
_atom_site_fract_z
Si Si1 0.804580 0.932779 0.817635
Si Si2 0.420993 0.530828 0.316716
Si Si3 0.015796 0.289809 0.684512
Si Si4 0.275240 0.692681 0.818705
Si Si5 0.500386 0.915063 0.315059
Si Si6 0.223752 0.359887 0.183798
O O1 0.862225 0.941789 0.727715
O O2 0.779057 0.872347 0.781534
O O3 0.757910 0.974826 0.750893
O O4 0.816028 0.941344 0.000000
O O5 0.470388 0.572375 0.263440
O O6 0.424723 0.522559 0.500000
O O7 0.013621 0.289981 0.500000
O O8 0.998526 0.351206 0.744607
O O9 0.077105 0.274309 0.746194
O O10 0.217740 0.717740 0.750000
O O11 0.328902 0.721107 0.741645
O O12 0.276326 0.705983 0.000000
O O13 0.445164 0.945164 0.250000
O O14 0.499405 0.919436 0.500000
O O15 0.556000 0.944001 0.250000
O O16 0.168172 0.331829 0.250000
O O17 0.221191 0.357612 0.000000
#
# Coordination Sequence:
#
# PCOD8317441 Si02
#       6
#    16  16  16  16  16  16
#     4  10  22  40  59  85 118 154 193 240 291 343
#     4  11  23  41  64  90 118 153 193 239 292 350
#     4   9  20  36  55  80 111 148 184 227 282 337
#     4  10  21  37  58  81 112 148 189 234 282 338
#     4  10  19  34  55  80 110 147 190 232 284 338
#     4  10  19  34  57  82 108 143 186 229 282 333
#
# _framework density 19.48969
#
# number of rings (size 3 to 8) (size 9 to 14) (size 15 to 20)
#    0.000    2.000    0.000    5.500    2.333    2.000 
#    0.000    5.000    0.000    0.000    0.000    0.000 
#    0.000    0.000    0.000    0.000    0.000    0.000 
#
# Total GULP energy -1190577.452010 kJ/mol
# GULP energy per Si atom -12401.848458 kJ/mol
# Density = 1.944533 g / cm^3
# Si number density = 19.489690 Si / 1000 Ang^3
#
#
#
# Elastic Constant Matrix: (Units=GPa)
#
#
# Indices 1 2 3 4 5 6 
#
# 1 125.0231 60.4084 35.4576 0.0000 0.0000 0.0000
# 2 60.4084 125.0226 35.4566 0.0000 0.0000 0.0000
# 3 35.4576 35.4566 78.8291 0.0000 0.0000 0.0000
# 4 0.0000 0.0000 0.0000 23.1712 0.0000 0.0000
# 5 0.0000 0.0000 0.0000 0.0000 23.1706 0.0000
# 6 0.0000 0.0000 0.0000 0.0000 0.0000 21.6400
#
#
#
# Elastic Compliance Matrix: (Units=1/GPa)
#
#
# Indices 1 2 3 4 5 6 
#
# 1 0.010995 -0.004482 -0.002930 0.000000 0.000000 0.000000
# 2 -0.004482 0.010995 -0.002930 0.000000 0.000000 0.000000
# 3 -0.002930 -0.002930 0.015321 0.000000 0.000000 0.000000
# 4 0.000000 0.000000 0.000000 0.043157 0.000000 0.000000
# 5 0.000000 0.000000 0.000000 0.000000 0.043158 0.000000
# 6 0.000000 0.000000 0.000000 0.000000 0.000000 0.046211
#
#
# Mechanical properties :
#
#
# Convention : Reuss Voigt Hill
#
# Bulk Modulus (GPa) = 60.13564 65.72443 62.93004
# Shear Modulus (GPa) = 25.50223 26.76651 26.13437
#
# Velocity S-wave (km/s) = 3.62124 3.70992 3.66585
# Velocity P-wave (km/s) = 6.95749 7.22130 7.09062
#
# Compressibility (1/GPa) = 0.01662907
#
# Stress axis : x y z
#
# Youngs Moduli (GPa) = 90.95187 90.95218 65.26927
#
# Poissons Ratio (x) = 0.40761 0.19122
# Poissons Ratio (y) = 0.40761 0.19121
# Poissons Ratio (z) = 0.26646 0.26645
#
# Static dielectric constant tensor:
#      x y z
#    x 3.702970 0.000000 0.000000 
#    y 0.000000 3.702970 0.000000 
#    z 0.000000 0.000000 3.475770 
# 
# 
# High freq. dielectric constant tensor:
#      x y z
#    x 1.765590 0.000000 0.000000 
#    y 0.000000 1.765590 0.000000 
#    z 0.000000 0.000000 1.753510 
# 
# From -- ./inp_files/1226.got.cif
#   From: 2010.03.12/outbox.cif.g09.slc.cpg/sg135_1_cif.got.tgz:1226.got - 2010.04.06 18:31:24.
