data_PCOD8317110
_publ_section_title
;
Structure prediction by ZEFSAII (Michael W. Deem and Ramdas Pophale) SiO2 
 PCOD8317110
Probable space group: P 42/N N M
;
_chemical_formula_sum "Si O2"
_cell_formula_units_Z 88
_cell_length_a 17.199320
_cell_length_b 17.199320
_cell_length_c 15.856215
_cell_angle_alpha 90.000000
_cell_angle_beta 90.000000
_cell_angle_gamma 90.000000
_cell_volume 4690.531744
_symmetry_space_group_name_H-M "P 42/N N M"
_symmetry_group_IT_number 134
_space_group.IT_coordinate_system_code '2'
_symmetry_cell_setting 'tetragonal'
loop_
_space_group_symop_operation_xyz
x,y,z
1/2-y,x,1/2+z
1/2-x,1/2-y,z
y,1/2-x,1/2+z
x,1/2-y,1/2-z
1/2-x,y,1/2-z
y,x,-z
1/2-y,1/2-x,-z
-x,-y,-z
1/2+y,-x,1/2-z
1/2+x,1/2+y,-z
-y,1/2+x,1/2-z
-x,1/2+y,1/2+z
1/2+x,-y,1/2+z
-y,-x,z
1/2+y,1/2+x,z
loop_
_atom_site_type_symbol
_atom_site_label
_atom_site_fract_x
_atom_site_fract_y
_atom_site_fract_z
Si Si1 0.469140 0.742876 0.909907
Si Si2 0.952869 0.452869 0.624517
Si Si3 0.620849 0.750319 0.005744
Si Si4 0.750000 0.377260 0.250000
Si Si5 0.515935 0.792773 0.334175
Si Si6 0.126174 0.746856 0.069688
Si Si7 0.926271 0.426271 0.440593
O O1 0.434643 0.779847 0.824482
O O2 0.456156 0.651798 0.899294
O O3 0.561142 0.756309 0.926718
O O4 0.421181 0.778354 0.987088
O O5 0.887002 0.503051 0.675282
O O6 0.912919 0.412919 0.541785
O O7 0.011031 0.511031 0.582164
O O8 0.574417 0.735105 0.092497
O O9 0.676617 0.676617 0.000000
O O10 0.669998 0.830003 0.000000
O O11 0.822241 0.322241 0.277804
O O12 0.546499 0.750000 0.250000
O O13 0.429391 0.764118 0.352479
O O14 0.182298 0.817703 0.045143
O O15 0.173624 0.673624 0.102260
#
# Coordination Sequence:
#
# PCOD8317110 Si02
#       7
#    16   8  16   8  16  16   8
#     4  11  19  36  57  86 116 150 198 247 294 345
#     4  11  20  36  60  86 114 152 194 255 295 353
#     4  10  22  44  65  82 110 155 200 246 296 351
#     4  11  22  36  56  89 128 156 192 243 288 344
#     4  11  22  37  57  89 121 147 193 242 299 348
#     4  10  18  31  54  81 116 157 190 225 287 360
#     4  11  18  34  64  86 105 151 209 244 301 339
#
# _framework density 18.761199999999999
#
# number of rings (size 3 to 8) (size 9 to 14) (size 15 to 20)
#    0.000    1.364    6.364    1.636    1.273    1.455 
#    6.545    1.818    0.000   13.636    0.000    0.000 
#    0.000    0.000    0.000    0.000    0.000    0.000 
#
# Total GULP energy -1090342.803925 kJ/mol
# GULP energy per Si atom -12390.259136 kJ/mol
# Density = 1.871850 g / cm^3
# Si number density = 18.761200 Si / 1000 Ang^3
#
#
#
# Elastic Constant Matrix: (Units=GPa)
#
#
# Indices 1 2 3 4 5 6 
#
# 1 98.0188 40.7512 20.9159 0.0000 0.0000 0.0000
# 2 40.7512 98.0182 20.9154 0.0000 0.0000 0.0000
# 3 20.9159 20.9154 77.6604 0.0000 0.0000 0.0000
# 4 0.0000 0.0000 0.0000 9.7459 0.0000 0.0000
# 5 0.0000 0.0000 0.0000 0.0000 9.7457 0.0000
# 6 0.0000 0.0000 0.0000 0.0000 0.0000 33.2795
#
#
#
# Elastic Compliance Matrix: (Units=1/GPa)
#
#
# Indices 1 2 3 4 5 6 
#
# 1 0.012652 -0.004810 -0.002112 0.000000 0.000000 0.000000
# 2 -0.004810 0.012652 -0.002112 0.000000 0.000000 0.000000
# 3 -0.002112 -0.002112 0.014014 0.000000 0.000000 0.000000
# 4 0.000000 0.000000 0.000000 0.102607 0.000000 0.000000
# 5 0.000000 0.000000 0.000000 0.000000 0.102609 0.000000
# 6 0.000000 0.000000 0.000000 0.000000 0.000000 0.030049
#
#
# Mechanical properties :
#
#
# Convention : Reuss Voigt Hill
#
# Bulk Modulus (GPa) = 47.05643 48.76250 47.90947
# Shear Modulus (GPa) = 16.68133 23.29522 19.98828
#
# Velocity S-wave (km/s) = 2.98508 3.52756 3.26760
# Velocity P-wave (km/s) = 6.08417 6.52986 6.31095
#
# Compressibility (1/GPa) = 0.02125108
#
# Stress axis : x y z
#
# Youngs Moduli (GPa) = 79.03623 79.03595 71.35553
#
# Poissons Ratio (x) = 0.38013 0.15073
# Poissons Ratio (y) = 0.38013 0.15072
# Poissons Ratio (z) = 0.16695 0.16694
#
# Static dielectric constant tensor:
#      x y z
#    x 3.526650 0.000000 0.000000 
#    y 0.000000 3.526650 0.000000 
#    z 0.000000 0.000000 3.270720 
# 
# 
# High freq. dielectric constant tensor:
#      x y z
#    x 1.729610 0.000000 0.000000 
#    y 0.000000 1.729610 0.000000 
#    z 0.000000 0.000000 1.705450 
# 
# From -- ./inp_files/6512.got.cif
#   From: 2010.03.12/outbox.cif.g09.slc.cpg/sg134_4_cif.got.tgz:6512.got - 2010.04.06 18:17:22.
