data_PCOD8317463
_publ_section_title
;
Structure prediction by ZEFSAII (Michael W. Deem and Ramdas Pophale) SiO2 
 PCOD8317463
Probable space group: P 42/M B C
;
_chemical_formula_sum "Si O2"
_cell_formula_units_Z 96
_cell_length_a 26.826474
_cell_length_b 26.826474
_cell_length_c 8.795990
_cell_angle_alpha 90.000000
_cell_angle_beta 90.000000
_cell_angle_gamma 90.000000
_cell_volume 6330.119589
_symmetry_space_group_name_H-M "P 42/M B C"
_symmetry_group_IT_number 135
_symmetry_cell_setting 'tetragonal'
loop_
_space_group_symop_operation_xyz
x,y,z
-y,x,1/2+z
-x,-y,z
y,-x,1/2+z
1/2+x,1/2-y,-z
1/2-x,1/2+y,-z
1/2+y,1/2+x,1/2-z
1/2-y,1/2-x,1/2-z
-x,-y,-z
y,-x,1/2-z
x,y,-z
-y,x,1/2-z
1/2-x,1/2+y,z
1/2+x,1/2-y,z
1/2-y,1/2-x,1/2+z
1/2+y,1/2+x,1/2+z
loop_
_atom_site_type_symbol
_atom_site_label
_atom_site_fract_x
_atom_site_fract_y
_atom_site_fract_z
Si Si1 0.932774 0.010075 0.333125
Si Si2 0.652902 0.219614 0.665025
Si Si3 0.802966 0.234675 0.168955
Si Si4 0.981076 0.176107 0.171962
Si Si5 0.658415 0.374046 0.180744
Si Si6 0.199012 0.920766 0.182207
O O1 0.954072 0.022285 0.500000
O O2 0.874272 0.012534 0.334907
O O3 0.949962 0.954504 0.284791
O O4 0.668777 0.168777 0.750000
O O5 0.634717 0.202118 0.500000
O O6 0.700614 0.254777 0.650552
O O7 0.608447 0.251545 0.741982
O O8 0.786337 0.286337 0.250000
O O9 0.844052 0.207798 0.272441
O O10 0.824775 0.245873 0.000000
O O11 0.930189 0.167970 0.262019
O O12 0.022307 0.208735 0.261888
O O13 0.970653 0.195870 0.000000
O O14 0.608373 0.349718 0.252192
O O15 0.652191 0.374733 0.000000
O O16 0.194424 0.918727 0.000000
#
# Coordination Sequence:
#
# PCOD8317463 Si02
#       6
#    16  16  16  16  16  16
#     4  10  20  31  43  55  68  89 123 165 208 248
#     4   8  15  26  42  62  82 102 126 159 200 242
#     4   9  16  28  45  65  86 106 131 166 205 248
#     4  11  22  33  44  59  78 104 137 173 211 252
#     4  11  21  32  46  63  83 110 140 173 213 254
#     4  10  20  33  46  62  83 107 137 175 213 253
#
# _framework density 15.16559
#
# number of rings (size 3 to 8) (size 9 to 14) (size 15 to 20)
#    0.000    2.167    0.000    6.000    0.000   10.000 
#    0.000    0.000    0.000    0.000    0.000    0.000 
#    0.000    0.000    0.000    0.000    0.000    0.833 
#
# Total GULP energy -1189276.413957 kJ/mol
# GULP energy per Si atom -12388.295979 kJ/mol
# Density = 1.513107 g / cm^3
# Si number density = 15.165590 Si / 1000 Ang^3
#
#
#
# Elastic Constant Matrix: (Units=GPa)
#
#
# Indices 1 2 3 4 5 6 
#
# 1 38.9427 24.1112 18.8085 0.0000 0.0000 0.0000
# 2 24.1112 38.9427 18.8085 0.0000 0.0000 0.0000
# 3 18.8085 18.8085 97.1971 0.0000 0.0000 0.0000
# 4 0.0000 0.0000 0.0000 17.6691 0.0000 0.0000
# 5 0.0000 0.0000 0.0000 0.0000 17.6691 0.0000
# 6 0.0000 0.0000 0.0000 0.0000 0.0000 12.7973
#
#
#
# Elastic Compliance Matrix: (Units=1/GPa)
#
#
# Indices 1 2 3 4 5 6 
#
# 1 0.042677 -0.024747 -0.003469 0.000000 0.000000 0.000000
# 2 -0.024747 0.042677 -0.003469 0.000000 0.000000 0.000000
# 3 -0.003469 -0.003469 0.011631 0.000000 0.000000 0.000000
# 4 0.000000 0.000000 0.000000 0.056596 0.000000 0.000000
# 5 0.000000 0.000000 0.000000 0.000000 0.056596 0.000000
# 6 0.000000 0.000000 0.000000 0.000000 0.000000 0.078141
#
#
# Mechanical properties :
#
#
# Convention : Reuss Voigt Hill
#
# Bulk Modulus (GPa) = 29.75149 33.17100 31.46124
# Shear Modulus (GPa) = 13.77811 17.18406 15.48108
#
# Velocity S-wave (km/s) = 3.01742 3.36980 3.19847
# Velocity P-wave (km/s) = 5.63916 6.08775 5.86775
#
# Compressibility (1/GPa) = 0.03361177
#
# Stress axis : x y z
#
# Youngs Moduli (GPa) = 23.43198 23.43198 85.97628
#
# Poissons Ratio (x) = 0.57988 0.29829
# Poissons Ratio (y) = 0.57988 0.29829
# Poissons Ratio (z) = 0.08130 0.08130
#
# Static dielectric constant tensor:
#      x y z
#    x 2.777790 0.000000 0.000000 
#    y 0.000000 2.777790 0.000000 
#    z 0.000000 0.000000 3.275800 
# 
# 
# High freq. dielectric constant tensor:
#      x y z
#    x 1.545360 0.000000 0.000000 
#    y 0.000000 1.545360 0.000000 
#    z 0.000000 0.000000 1.600880 
# 
# From -- ./inp_files/1344.got.cif
#   From: 2010.03.12/outbox.cif.g09.slc.cpg/sg135_1_cif.got.tgz:1344.got - 2010.04.06 18:31:24.
