data_PCOD8317930
_publ_section_title
;
Structure prediction by ZEFSAII (Michael W. Deem and Ramdas Pophale) SiO2 
 PCOD8317930
Probable space group: P 42/M N M
;
_chemical_formula_sum "Si O2"
_cell_formula_units_Z 64
_cell_length_a 13.430467
_cell_length_b 13.430467
_cell_length_c 19.914422
_cell_angle_alpha 90.000000
_cell_angle_beta 90.000000
_cell_angle_gamma 90.000000
_cell_volume 3592.112536
_symmetry_space_group_name_H-M "P 42/M N M"
_symmetry_group_IT_number 136
_symmetry_cell_setting 'tetragonal'
loop_
_space_group_symop_operation_xyz
x,y,z
1/2-y,1/2+x,1/2+z
-x,-y,z
1/2+y,1/2-x,1/2+z
1/2+x,1/2-y,1/2-z
1/2-x,1/2+y,1/2-z
y,x,-z
-y,-x,-z
-x,-y,-z
1/2+y,1/2-x,1/2-z
x,y,-z
1/2-y,1/2+x,1/2-z
1/2-x,1/2+y,1/2+z
1/2+x,1/2-y,1/2+z
-y,-x,z
y,x,z
loop_
_atom_site_type_symbol
_atom_site_label
_atom_site_fract_x
_atom_site_fract_y
_atom_site_fract_z
Si Si1 0.096520 0.255375 0.698589
Si Si2 0.805843 0.650533 0.576117
Si Si3 0.050379 0.395400 0.076936
Si Si4 0.872534 0.291405 0.309811
O O1 0.148866 0.148866 0.712472
O O2 0.116616 0.291067 0.622775
O O3 0.140356 0.338637 0.748159
O O4 0.979215 0.245342 0.709364
O O5 0.841619 0.671185 0.500000
O O6 0.693893 0.693893 0.588373
O O7 0.808522 0.532003 0.589649
O O8 0.144893 0.374691 0.122501
O O9 0.000000 0.500000 0.096693
O O10 0.086690 0.396150 0.000000
O O11 0.799663 0.200338 0.322601
#
# Coordination Sequence:
#
# PCOD8317930 Si02
#       4
#    16  16  16  16
#     4  10  21  35  53  79 108 142 183 224 267 322
#     4   9  17  31  53  79 106 137 179 228 270 311
#     4  10  19  33  55  82 108 140 184 229 270 315
#     4  11  23  36  54  81 110 143 180 221 276 332
#
# _framework density 17.816813
#
# number of rings (size 3 to 8) (size 9 to 14) (size 15 to 20)
#    0.000    2.000    2.500    1.500    0.000    1.000 
#    0.000    0.000    0.000    2.250    0.000    8.750 
#    0.000    0.000    0.000    0.000    0.000    0.000 
#
# Total GULP energy -793545.863535 kJ/mol
# GULP energy per Si atom -12399.154118 kJ/mol
# Density = 1.777626 g / cm^3
# Si number density = 17.816813 Si / 1000 Ang^3
#
#
#
# Elastic Constant Matrix: (Units=GPa)
#
#
# Indices 1 2 3 4 5 6 
#
# 1 123.4183 75.4156 52.7193 0.0000 0.0000 0.0000
# 2 75.4156 123.4183 52.7193 0.0000 0.0000 0.0000
# 3 52.7193 52.7193 90.5844 0.0000 0.0000 0.0000
# 4 0.0000 0.0000 0.0000 25.2056 0.0000 0.0000
# 5 0.0000 0.0000 0.0000 0.0000 25.2056 0.0000
# 6 0.0000 0.0000 0.0000 0.0000 0.0000 24.9749
#
#
#
# Elastic Compliance Matrix: (Units=1/GPa)
#
#
# Indices 1 2 3 4 5 6 
#
# 1 0.014053 -0.006779 -0.004234 0.000000 0.000000 0.000000
# 2 -0.006779 0.014053 -0.004234 0.000000 0.000000 0.000000
# 3 -0.004234 -0.004234 0.015967 0.000000 0.000000 0.000000
# 4 0.000000 0.000000 0.000000 0.039674 0.000000 0.000000
# 5 0.000000 0.000000 0.000000 0.000000 0.039674 0.000000
# 6 0.000000 0.000000 0.000000 0.000000 0.000000 0.040040
#
#
# Mechanical properties :
#
#
# Convention : Reuss Voigt Hill
#
# Bulk Modulus (GPa) = 73.62934 77.68102 75.65518
# Shear Modulus (GPa) = 25.19138 25.51503 25.35320
#
# Velocity S-wave (km/s) = 3.76428 3.78838 3.77635
# Velocity P-wave (km/s) = 7.76586 7.92656 7.84662
#
# Compressibility (1/GPa) = 0.01358154
#
# Stress axis : x y z
#
# Youngs Moduli (GPa) = 71.15799 71.15799 62.62823
#
# Poissons Ratio (x) = 0.48237 0.26514
# Poissons Ratio (y) = 0.48237 0.26514
# Poissons Ratio (z) = 0.30125 0.30125
#
# Static dielectric constant tensor:
#      x y z
#    x 3.332570 0.000000 0.000000 
#    y 0.000000 3.332570 0.000000 
#    z 0.000000 0.000000 3.424400 
# 
# 
# High freq. dielectric constant tensor:
#      x y z
#    x 1.676220 0.000000 0.000000 
#    y 0.000000 1.676220 0.000000 
#    z 0.000000 0.000000 1.705690 
# 
# From -- ./inp_files/5906.got.cif
#   From: 2010.03.12/outbox.cif.g09.slc.cpg/sg136_3_cif.got.tgz:5906.got - 2010.04.06 18:39:43.
