data_PCOD8317253
_publ_section_title
;
Structure prediction by ZEFSAII (Michael W. Deem and Ramdas Pophale) SiO2 
 PCOD8317253
Probable space group: P 42/N N M
;
_chemical_formula_sum "Si O2"
_cell_formula_units_Z 112
_cell_length_a 13.640887
_cell_length_b 13.640887
_cell_length_c 31.374089
_cell_angle_alpha 90.000000
_cell_angle_beta 90.000000
_cell_angle_gamma 90.000000
_cell_volume 5837.895904
_symmetry_space_group_name_H-M "P 42/N N M"
_symmetry_group_IT_number 134
_space_group.IT_coordinate_system_code '2'
_symmetry_cell_setting 'tetragonal'
loop_
_space_group_symop_operation_xyz
x,y,z
1/2-y,x,1/2+z
1/2-x,1/2-y,z
y,1/2-x,1/2+z
x,1/2-y,1/2-z
1/2-x,y,1/2-z
y,x,-z
1/2-y,1/2-x,-z
-x,-y,-z
1/2+y,-x,1/2-z
1/2+x,1/2+y,-z
-y,1/2+x,1/2-z
-x,1/2+y,1/2+z
1/2+x,-y,1/2+z
-y,-x,z
1/2+y,1/2+x,z
loop_
_atom_site_type_symbol
_atom_site_label
_atom_site_fract_x
_atom_site_fract_y
_atom_site_fract_z
Si Si1 0.633161 0.979157 0.327854
Si Si2 0.996017 0.657340 0.380351
Si Si3 0.148544 0.485329 0.476284
Si Si4 0.908970 0.248901 0.047682
Si Si5 0.024062 0.367383 0.840336
Si Si6 0.830409 0.489509 0.130811
Si Si7 0.633450 0.639883 0.253903
O O1 0.591430 0.913841 0.366364
O O2 0.596369 0.928615 0.284278
O O3 0.587812 0.087812 0.329511
O O4 0.750593 0.989020 0.332029
O O5 0.101348 0.601348 0.376122
O O6 0.970011 0.689497 0.428607
O O7 0.994056 0.753914 0.350682
O O8 0.114183 0.385818 0.500000
O O9 0.235301 0.530420 0.504440
O O10 0.056141 0.556141 0.471867
O O11 0.849735 0.150266 0.059523
O O12 0.838013 0.338013 0.037877
O O13 0.980424 0.271581 0.086742
O O14 0.093268 0.420629 0.875380
O O15 0.085740 0.394639 0.797934
O O16 0.917428 0.417428 0.837814
O O17 0.889099 0.389099 0.141821
O O18 0.593928 0.750000 0.250000
O O19 0.750000 0.637528 0.250000
#
# Coordination Sequence:
#
# PCOD8317253 Si02
#       7
#    16  16  16  16  16  16  16
#     4  11  21  36  61  86 114 151 189 234 286 345
#     4  10  22  38  59  88 115 149 200 247 291 346
#     4   9  17  32  54  82 115 147 188 241 290 338
#     4   9  17  31  53  80 112 151 188 225 277 340
#     4  11  23  40  60  83 117 155 191 241 295 344
#     4  10  21  36  56  86 119 152 192 235 286 349
#     4  11  21  38  61  85 113 150 189 237 285 344
#
# _framework density 19.184992999999999
#
# number of rings (size 3 to 8) (size 9 to 14) (size 15 to 20)
#    0.000    1.857    2.857    1.714    0.000    4.571 
#    0.000    2.143    0.000    3.429    0.000    0.000 
#    0.000    0.000    0.000    0.000    0.000    0.000 
#
# Total GULP energy -1388343.006958 kJ/mol
# GULP energy per Si atom -12395.919705 kJ/mol
# Density = 1.914133 g / cm^3
# Si number density = 19.184993 Si / 1000 Ang^3
#
#
#
# Elastic Constant Matrix: (Units=GPa)
#
#
# Indices 1 2 3 4 5 6 
#
# 1 85.4272 39.5163 30.4760 0.0000 0.0000 0.0000
# 2 39.5163 85.4273 30.4761 0.0000 0.0000 0.0000
# 3 30.4760 30.4761 110.5688 0.0000 0.0000 0.0000
# 4 0.0000 0.0000 0.0000 25.7500 0.0000 0.0000
# 5 0.0000 0.0000 0.0000 0.0000 25.7498 0.0000
# 6 0.0000 0.0000 0.0000 0.0000 0.0000 19.4133
#
#
#
# Elastic Compliance Matrix: (Units=1/GPa)
#
#
# Indices 1 2 3 4 5 6 
#
# 1 0.015514 -0.006267 -0.002549 0.000000 0.000000 0.000000
# 2 -0.006267 0.015514 -0.002549 0.000000 0.000000 0.000000
# 3 -0.002549 -0.002549 0.010449 0.000000 0.000000 0.000000
# 4 0.000000 0.000000 0.000000 0.038835 0.000000 0.000000
# 5 0.000000 0.000000 0.000000 0.000000 0.038835 0.000000
# 6 0.000000 0.000000 0.000000 0.000000 0.000000 0.051511
#
#
# Mechanical properties :
#
#
# Convention : Reuss Voigt Hill
#
# Bulk Modulus (GPa) = 53.33857 53.59556 53.46706
# Shear Modulus (GPa) = 25.04541 26.24628 25.64584
#
# Velocity S-wave (km/s) = 3.61705 3.70275 3.66015
# Velocity P-wave (km/s) = 6.73102 6.80274 6.76697
#
# Compressibility (1/GPa) = 0.01874816
#
# Stress axis : x y z
#
# Youngs Moduli (GPa) = 64.45730 64.45730 95.70139
#
# Poissons Ratio (x) = 0.40396 0.24392
# Poissons Ratio (y) = 0.40396 0.24392
# Poissons Ratio (z) = 0.16428 0.16429
#
# Static dielectric constant tensor:
#      x y z
#    x 3.414040 0.000000 0.000000 
#    y 0.000000 3.414040 0.000000 
#    z 0.000000 0.000000 3.585990 
# 
# 
# High freq. dielectric constant tensor:
#      x y z
#    x 1.737590 0.000000 0.000000 
#    y 0.000000 1.737590 0.000000 
#    z 0.000000 0.000000 1.747420 
# 
# From -- ./inp_files/11642.got.cif
#   From: 2010.03.12/outbox.cif.g09.slc.cpg/sg134_6_cif.got.tgz:11642.got - 2010.04.06 18:17:22.
