data_PCOD8317672
_publ_section_title
;
Structure prediction by ZEFSAII (Michael W. Deem and Ramdas Pophale) SiO2 
 PCOD8317672
Probable space group: P 42/M N M
;
_chemical_formula_sum "Si O2"
_cell_formula_units_Z 104
_cell_length_a 26.327033
_cell_length_b 26.327033
_cell_length_c 9.406581
_cell_angle_alpha 90.000000
_cell_angle_beta 90.000000
_cell_angle_gamma 90.000000
_cell_volume 6519.820440
_symmetry_space_group_name_H-M "P 42/M N M"
_symmetry_group_IT_number 136
_symmetry_cell_setting 'tetragonal'
loop_
_space_group_symop_operation_xyz
x,y,z
1/2-y,1/2+x,1/2+z
-x,-y,z
1/2+y,1/2-x,1/2+z
1/2+x,1/2-y,1/2-z
1/2-x,1/2+y,1/2-z
y,x,-z
-y,-x,-z
-x,-y,-z
1/2+y,1/2-x,1/2-z
x,y,-z
1/2-y,1/2+x,1/2-z
1/2-x,1/2+y,1/2+z
1/2+x,1/2-y,1/2+z
-y,-x,z
y,x,z
loop_
_atom_site_type_symbol
_atom_site_label
_atom_site_fract_x
_atom_site_fract_y
_atom_site_fract_z
Si Si1 0.541435 0.541435 0.330186
Si Si2 0.220488 0.622662 0.836142
Si Si3 0.378919 0.621082 0.668315
Si Si4 0.973356 0.749967 0.165609
Si Si5 0.858724 0.991396 0.832884
Si Si6 0.359368 0.992456 0.833950
Si Si7 0.111435 0.589421 0.833454
Si Si8 0.306810 0.693191 0.837481
O O1 0.500000 0.500000 0.277512
O O2 0.541651 0.541651 0.500000
O O3 0.528016 0.597638 0.267999
O O4 0.249868 0.579936 0.747484
O O5 0.160878 0.623518 0.793085
O O6 0.247391 0.677932 0.808780
O O7 0.225210 0.606840 0.000000
O O8 0.374233 0.625768 0.500000
O O9 0.366513 0.565168 0.724534
O O10 0.340131 0.659870 0.734865
O O11 0.006297 0.800377 0.207067
O O12 0.006668 0.700568 0.202552
O O13 0.958888 0.751868 0.000000
O O14 0.867025 0.992226 0.000000
O O15 0.388523 0.036104 0.748463
O O16 0.379572 0.937886 0.783966
O O17 0.369236 0.001919 0.000000
O O18 0.109584 0.577318 0.000000
O O19 0.320222 0.679779 0.000000
#
# Coordination Sequence:
#
# PCOD8317672 Si02
#       8
#     8  16   8  16  16  16  16   8
#     4   9  14  20  30  51  83 112 136 165 204 246
#     4   9  17  28  42  61  85 111 138 167 204 249
#     4  10  16  23  38  60  83 109 139 172 214 254
#     4   9  16  27  43  62  82 106 137 172 207 244
#     4   9  15  22  35  56  83 111 138 169 207 248
#     4   9  18  31  47  66  87 111 138 171 211 251
#     4   9  18  32  47  64  88 115 141 170 207 254
#     4  10  18  26  39  62  87 111 139 173 210 249
#
# _framework density 15.951359999999999
#
# number of rings (size 3 to 8) (size 9 to 14) (size 15 to 20)
#    0.000    2.846    2.308    0.000    0.000    0.923 
#    0.000    1.538    0.000    0.923    0.000    9.154 
#    0.000    0.000    0.000    6.462    0.000    8.308 
#
# Total GULP energy -1288528.559110 kJ/mol
# GULP energy per Si atom -12389.697684 kJ/mol
# Density = 1.591505 g / cm^3
# Si number density = 15.951360 Si / 1000 Ang^3
#
#
#
# Elastic Constant Matrix: (Units=GPa)
#
#
# Indices 1 2 3 4 5 6 
#
# 1 119.2183 78.4900 25.4572 0.0000 0.0000 0.0000
# 2 78.4900 119.2183 25.4574 0.0000 0.0000 0.0000
# 3 25.4572 25.4574 22.9653 0.0000 0.0000 0.0000
# 4 0.0000 0.0000 0.0000 14.3309 0.0000 0.0000
# 5 0.0000 0.0000 0.0000 0.0000 14.3309 0.0000
# 6 0.0000 0.0000 0.0000 0.0000 0.0000 28.2508
#
#
#
# Elastic Compliance Matrix: (Units=1/GPa)
#
#
# Indices 1 2 3 4 5 6 
#
# 1 0.015816 -0.008737 -0.007847 0.000000 0.000000 0.000000
# 2 -0.008737 0.015816 -0.007847 0.000000 0.000000 0.000000
# 3 -0.007847 -0.007847 0.060940 0.000000 0.000000 0.000000
# 4 0.000000 0.000000 0.000000 0.069779 0.000000 0.000000
# 5 0.000000 0.000000 0.000000 0.000000 0.069779 0.000000
# 6 0.000000 0.000000 0.000000 0.000000 0.000000 0.035397
#
#
# Mechanical properties :
#
#
# Convention : Reuss Voigt Hill
#
# Bulk Modulus (GPa) = 22.87776 57.80125 40.33951
# Shear Modulus (GPa) = 15.10758 20.18234 17.64496
#
# Velocity S-wave (km/s) = 3.08084 3.56088 3.32953
# Velocity P-wave (km/s) = 5.19892 7.29528 6.33443
#
# Compressibility (1/GPa) = 0.04371057
#
# Stress axis : x y z
#
# Youngs Moduli (GPa) = 63.22803 63.22776 16.40946
#
# Poissons Ratio (x) = 0.55243 0.12876
# Poissons Ratio (y) = 0.55243 0.12876
# Poissons Ratio (z) = 0.49613 0.49614
#
# Static dielectric constant tensor:
#      x y z
#    x 3.180720 0.000000 0.000000 
#    y 0.000000 3.180720 0.000000 
#    z 0.000000 0.000000 2.823710 
# 
# 
# High freq. dielectric constant tensor:
#      x y z
#    x 1.603990 0.000000 0.000000 
#    y 0.000000 1.603990 0.000000 
#    z 0.000000 0.000000 1.587930 
# 
# From -- ./inp_files/2259.got.cif
#   From: 2010.03.12/outbox.cif.g09.slc.cpg/sg136_2_cif.got.tgz:2259.got - 2010.04.06 18:39:43.
