data_PCOD8317035
_publ_section_title
;
Structure prediction by ZEFSAII (Michael W. Deem and Ramdas Pophale) SiO2 
 PCOD8317035
Probable space group: P 42/N B C
;
_chemical_formula_sum "Si O2"
_cell_formula_units_Z 64
_cell_length_a 11.448895
_cell_length_b 11.448895
_cell_length_c 21.373278
_cell_angle_alpha 90.000000
_cell_angle_beta 90.000000
_cell_angle_gamma 90.000000
_cell_volume 2801.549365
_symmetry_space_group_name_H-M "P 42/N B C"
_symmetry_group_IT_number 133
_space_group.IT_coordinate_system_code '2'
_symmetry_cell_setting 'tetragonal'
loop_
_space_group_symop_operation_xyz
x,y,z
1/2-y,x,1/2+z
1/2-x,1/2-y,z
y,1/2-x,1/2+z
x,1/2-y,-z
1/2-x,y,-z
y,x,1/2-z
1/2-y,1/2-x,1/2-z
-x,-y,-z
1/2+y,-x,1/2-z
1/2+x,1/2+y,-z
-y,1/2+x,1/2-z
-x,1/2+y,z
1/2+x,-y,z
-y,-x,1/2+z
1/2+y,1/2+x,1/2+z
loop_
_atom_site_type_symbol
_atom_site_label
_atom_site_fract_x
_atom_site_fract_y
_atom_site_fract_z
Si Si1 0.733149 0.436425 0.255838
Si Si2 0.291374 0.443845 0.617551
Si Si3 0.654306 0.324408 0.435753
Si Si4 0.574585 0.718225 0.635715
O O1 0.850999 0.365504 0.272442
O O2 0.677743 0.488999 0.318624
O O3 0.760519 0.542194 0.208042
O O4 0.300533 0.539628 0.560823
O O5 0.382054 0.339212 0.604956
O O6 0.165085 0.386748 0.627065
O O7 0.750000 0.250000 0.395511
O O8 0.643073 0.250000 0.500000
O O9 0.533556 0.328823 0.401904
#
# Coordination Sequence:
#
# PCOD8317035 Si02
#       4
#    16  16  16  16
#     4  11  22  37  68 106 148 186 229 285 363 436
#     4  11  25  44  69 106 143 183 240 294 358 429
#     4  11  26  48  71  98 137 186 236 288 357 417
#     4  11  25  44  70 106 141 186 235 298 357 426
#
# _framework density 22.844503
#
# number of rings (size 3 to 8) (size 9 to 14) (size 15 to 20)
#    0.000    1.000    2.500    3.000    7.000    5.000 
#    4.500    1.250    0.000    0.000    0.000    0.000 
#    0.000    0.000    0.000    0.000    0.000    0.000 
#
# Total GULP energy -793093.752446 kJ/mol
# GULP energy per Si atom -12392.089882 kJ/mol
# Density = 2.279251 g / cm^3
# Si number density = 22.844503 Si / 1000 Ang^3
#
#
#
# Elastic Constant Matrix: (Units=GPa)
#
#
# Indices 1 2 3 4 5 6 
#
# 1 136.1344 51.0890 24.4606 0.0000 0.0000 0.0000
# 2 51.0890 136.1344 24.4606 0.0000 0.0000 0.0000
# 3 24.4606 24.4606 81.6362 0.0000 0.0000 0.0000
# 4 0.0000 0.0000 0.0000 31.6573 0.0000 0.0000
# 5 0.0000 0.0000 0.0000 0.0000 31.6573 0.0000
# 6 0.0000 0.0000 0.0000 0.0000 0.0000 26.0379
#
#
#
# Elastic Compliance Matrix: (Units=1/GPa)
#
#
# Indices 1 2 3 4 5 6 
#
# 1 0.008777 -0.002982 -0.001736 0.000000 0.000000 0.000000
# 2 -0.002982 0.008777 -0.001736 0.000000 0.000000 0.000000
# 3 -0.001736 -0.001736 0.013290 0.000000 0.000000 0.000000
# 4 0.000000 0.000000 0.000000 0.031588 0.000000 0.000000
# 5 0.000000 0.000000 0.000000 0.000000 0.031588 0.000000
# 6 0.000000 0.000000 0.000000 0.000000 0.000000 0.038406
#
#
# Mechanical properties :
#
#
# Convention : Reuss Voigt Hill
#
# Bulk Modulus (GPa) = 55.75847 61.54728 58.65287
# Shear Modulus (GPa) = 33.04420 34.79680 33.92050
#
# Velocity S-wave (km/s) = 3.80739 3.90706 3.85755
# Velocity P-wave (km/s) = 6.61734 6.88141 6.75066
#
# Compressibility (1/GPa) = 0.01793449
#
# Stress axis : x y z
#
# Youngs Moduli (GPa) = 113.93841 113.93841 75.24464
#
# Poissons Ratio (x) = 0.33974 0.13065
# Poissons Ratio (y) = 0.33974 0.13065
# Poissons Ratio (z) = 0.19783 0.19783
#
# Static dielectric constant tensor:
#      x y z
#    x 4.432730 0.000000 0.000000 
#    y 0.000000 4.432730 0.000000 
#    z 0.000000 0.000000 3.971850 
# 
# 
# High freq. dielectric constant tensor:
#      x y z
#    x 1.918820 0.000000 0.000000 
#    y 0.000000 1.918820 0.000000 
#    z 0.000000 0.000000 1.875190 
# 
# From -- ./inp_files/6150.got.cif
#   From: 2010.03.12/outbox.cif.g09.slc.cpg/sg133_4_cif.got.tgz:6150.got - 2010.04.06 18:08:06.
