data_PCOD8317604
_publ_section_title
;
Structure prediction by ZEFSAII (Michael W. Deem and Ramdas Pophale) SiO2 
 PCOD8317604
Probable space group: P 42/M B C
;
_chemical_formula_sum "Si O2"
_cell_formula_units_Z 112
_cell_length_a 15.010837
_cell_length_b 15.010837
_cell_length_c 22.785419
_cell_angle_alpha 90.000000
_cell_angle_beta 90.000000
_cell_angle_gamma 90.000000
_cell_volume 5134.129719
_symmetry_space_group_name_H-M "P 42/M B C"
_symmetry_group_IT_number 135
_symmetry_cell_setting 'tetragonal'
loop_
_space_group_symop_operation_xyz
x,y,z
-y,x,1/2+z
-x,-y,z
y,-x,1/2+z
1/2+x,1/2-y,-z
1/2-x,1/2+y,-z
1/2+y,1/2+x,1/2-z
1/2-y,1/2-x,1/2-z
-x,-y,-z
y,-x,1/2-z
x,y,-z
-y,x,1/2-z
1/2-x,1/2+y,z
1/2+x,1/2-y,z
1/2-y,1/2-x,1/2+z
1/2+y,1/2+x,1/2+z
loop_
_atom_site_type_symbol
_atom_site_label
_atom_site_fract_x
_atom_site_fract_y
_atom_site_fract_z
Si Si1 0.743969 0.602855 0.151516
Si Si2 0.934161 0.574703 0.819403
Si Si3 0.904641 0.961710 0.825097
Si Si4 0.845329 0.091676 0.567746
Si Si5 0.709789 0.346585 0.736670
Si Si6 0.731519 0.953483 0.631633
Si Si7 0.245343 0.719894 0.568215
O O1 0.839215 0.554796 0.150144
O O2 0.665399 0.539424 0.171015
O O3 0.743527 0.674073 0.204952
O O4 0.724126 0.651836 0.089861
O O5 0.924178 0.575823 0.750000
O O6 0.000000 0.500000 0.842025
O O7 0.975346 0.663465 0.844145
O O8 0.919562 0.930870 0.891598
O O9 0.857561 0.881240 0.787646
O O10 0.000000 0.000000 0.800249
O O11 0.874079 0.088634 0.500000
O O12 0.800177 0.186355 0.583117
O O13 0.784124 0.006715 0.581527
O O14 0.812889 0.312889 0.750000
O O15 0.710562 0.426692 0.688797
O O16 0.694830 0.861906 0.601691
O O17 0.244795 0.699127 0.500000
#
# Coordination Sequence:
#
# PCOD8317604 Si02
#       7
#    16  16  16  16  16  16  16
#     4  11  24  42  66  98 143 181 225 296 357 435
#     4  11  25  40  64  97 140 183 229 287 357 437
#     4  12  27  41  67 104 141 183 233 295 363 444
#     4  11  25  46  70  97 134 184 239 295 360 428
#     4  11  26  41  69 101 144 188 233 290 367 440
#     4  11  23  43  69  98 135 181 237 291 352 433
#     4  10  22  44  72  98 129 184 243 291 351 429
#
# _framework density 21.814796000000001
#
# number of rings (size 3 to 8) (size 9 to 14) (size 15 to 20)
#    0.000    1.000    1.429    5.143   12.000    0.857 
#    0.000    0.000    0.000    2.143    0.000    0.000 
#    0.000    0.000    0.000    0.000    0.000    0.000 
#
# Total GULP energy -1387692.480856 kJ/mol
# GULP energy per Si atom -12390.111436 kJ/mol
# Density = 2.176514 g / cm^3
# Si number density = 21.814796 Si / 1000 Ang^3
#
#
#
# Elastic Constant Matrix: (Units=GPa)
#
#
# Indices 1 2 3 4 5 6 
#
# 1 114.3474 33.6799 34.8628 0.0000 0.0000 0.0000
# 2 33.6799 114.3475 34.8629 0.0000 0.0000 0.0000
# 3 34.8628 34.8629 114.6802 0.0000 0.0000 0.0000
# 4 0.0000 0.0000 0.0000 23.1731 0.0000 0.0000
# 5 0.0000 0.0000 0.0000 0.0000 23.1737 0.0000
# 6 0.0000 0.0000 0.0000 0.0000 0.0000 40.8832
#
#
#
# Elastic Compliance Matrix: (Units=1/GPa)
#
#
# Indices 1 2 3 4 5 6 
#
# 1 0.010141 -0.002256 -0.002397 0.000000 0.000000 0.000000
# 2 -0.002256 0.010141 -0.002397 0.000000 0.000000 0.000000
# 3 -0.002397 -0.002397 0.010177 0.000000 0.000000 0.000000
# 4 0.000000 0.000000 0.000000 0.043153 0.000000 0.000000
# 5 0.000000 0.000000 0.000000 0.000000 0.043152 0.000000
# 6 0.000000 0.000000 0.000000 0.000000 0.000000 0.024460
#
#
# Mechanical properties :
#
#
# Convention : Reuss Voigt Hill
#
# Bulk Modulus (GPa) = 61.12968 61.13183 61.13075
# Shear Modulus (GPa) = 31.09904 33.44395 32.27150
#
# Velocity S-wave (km/s) = 3.77980 3.91971 3.85039
# Velocity P-wave (km/s) = 6.86528 6.96918 6.91743
#
# Compressibility (1/GPa) = 0.01635867
#
# Stress axis : x y z
#
# Youngs Moduli (GPa) = 98.61402 98.61409 98.25868
#
# Poissons Ratio (x) = 0.22247 0.23552
# Poissons Ratio (y) = 0.22247 0.23552
# Poissons Ratio (z) = 0.23637 0.23637
#
# Static dielectric constant tensor:
#      x y z
#    x 4.259350 0.000000 0.000000 
#    y 0.000000 4.259380 0.000000 
#    z 0.000000 0.000000 3.906640 
# 
# 
# High freq. dielectric constant tensor:
#      x y z
#    x 1.862070 0.000000 0.000000 
#    y 0.000000 1.862070 0.000000 
#    z 0.000000 0.000000 1.855860 
# 
# From -- ./inp_files/6127.got.cif
#   From: 2010.03.12/outbox.cif.g09.slc.cpg/sg135_4_cif.got.tgz:6127.got - 2010.04.06 18:31:24.
