data_PCOD8317133
_publ_section_title
;
Structure prediction by ZEFSAII (Michael W. Deem and Ramdas Pophale) SiO2 
 PCOD8317133
Probable space group: P 42/N N M
;
_chemical_formula_sum "Si O2"
_cell_formula_units_Z 104
_cell_length_a 20.589211
_cell_length_b 20.589211
_cell_length_c 15.055919
_cell_angle_alpha 90.000000
_cell_angle_beta 90.000000
_cell_angle_gamma 90.000000
_cell_volume 6382.439081
_symmetry_space_group_name_H-M "P 42/N N M"
_symmetry_group_IT_number 134
_space_group.IT_coordinate_system_code '2'
_symmetry_cell_setting 'tetragonal'
loop_
_space_group_symop_operation_xyz
x,y,z
1/2-y,x,1/2+z
1/2-x,1/2-y,z
y,1/2-x,1/2+z
x,1/2-y,1/2-z
1/2-x,y,1/2-z
y,x,-z
1/2-y,1/2-x,-z
-x,-y,-z
1/2+y,-x,1/2-z
1/2+x,1/2+y,-z
-y,1/2+x,1/2-z
-x,1/2+y,1/2+z
1/2+x,-y,1/2+z
-y,-x,z
1/2+y,1/2+x,z
loop_
_atom_site_type_symbol
_atom_site_label
_atom_site_fract_x
_atom_site_fract_y
_atom_site_fract_z
Si Si1 0.898669 0.992455 0.041333
Si Si2 0.325743 0.565679 0.102452
Si Si3 0.669096 0.438614 0.371468
Si Si4 0.383267 0.991233 0.229659
Si Si5 0.145025 0.750000 0.750000
Si Si6 0.819595 0.427698 0.930540
Si Si7 0.093717 0.016109 0.759923
O O1 0.874625 0.980459 0.141927
O O2 0.924935 0.924935 0.000000
O O3 0.956995 0.043006 0.040393
O O4 0.839739 0.020393 0.982900
O O5 0.371851 0.628149 0.105380
O O6 0.333356 0.521118 0.190000
O O7 0.252547 0.591977 0.098972
O O8 0.607451 0.392550 0.371174
O O9 0.731479 0.399952 0.333450
O O10 0.682710 0.460392 0.472086
O O11 0.651358 0.500346 0.309803
O O12 0.441049 0.941049 0.242610
O O13 0.348428 0.982053 0.135129
O O14 0.413921 0.063226 0.234617
O O15 0.189321 0.810680 0.780984
O O16 0.862001 0.362001 0.928406
O O17 0.039067 0.960934 0.757541
#
# Coordination Sequence:
#
# PCOD8317133 Si02
#       7
#    16  16  16  16   8  16  16
#     4   9  15  26  45  69  89 107 146 199 250 292
#     4  10  19  30  47  68  91 124 163 205 241 267
#     4   9  19  31  43  63  88 121 164 198 228 268
#     4   9  17  31  48  64  85 116 157 203 247 284
#     4   9  18  32  46  60  90 134 171 196 218 256
#     4  10  21  33  43  62  94 132 170 191 215 277
#     4   9  16  28  47  67  87 111 149 202 248 289
#
# _framework density 16.294712000000001
#
# number of rings (size 3 to 8) (size 9 to 14) (size 15 to 20)
#    0.000    2.692    1.538    0.462    2.154    1.538 
#    0.000    4.615    0.000    2.769    0.000    0.000 
#    0.000    0.000    0.000   13.846    0.615    2.308 
#
# Total GULP energy -1289209.465123 kJ/mol
# GULP energy per Si atom -12396.244857 kJ/mol
# Density = 1.625762 g / cm^3
# Si number density = 16.294712 Si / 1000 Ang^3
#
#
#
# Elastic Constant Matrix: (Units=GPa)
#
#
# Indices 1 2 3 4 5 6 
#
# 1 51.0946 41.1683 47.5924 0.0000 0.0000 0.0000
# 2 41.1683 51.0946 47.5924 0.0000 0.0000 0.0000
# 3 47.5924 47.5924 155.6566 0.0000 0.0000 0.0000
# 4 0.0000 0.0000 0.0000 20.5256 0.0000 0.0000
# 5 0.0000 0.0000 0.0000 0.0000 20.5256 0.0000
# 6 0.0000 0.0000 0.0000 0.0000 0.0000 16.7842
#
#
#
# Elastic Compliance Matrix: (Units=1/GPa)
#
#
# Indices 1 2 3 4 5 6 
#
# 1 0.058287 -0.042454 -0.004841 0.000000 0.000000 0.000000
# 2 -0.042454 0.058287 -0.004841 0.000000 0.000000 0.000000
# 3 -0.004841 -0.004841 0.009385 0.000000 0.000000 0.000000
# 4 0.000000 0.000000 0.000000 0.048720 0.000000 0.000000
# 5 0.000000 0.000000 0.000000 0.000000 0.048720 0.000000
# 6 0.000000 0.000000 0.000000 0.000000 0.000000 0.059580
#
#
# Mechanical properties :
#
#
# Convention : Reuss Voigt Hill
#
# Bulk Modulus (GPa) = 46.11142 58.95020 52.53081
# Shear Modulus (GPa) = 12.67492 19.66660 16.17076
#
# Velocity S-wave (km/s) = 2.79203 3.47786 3.15364
# Velocity P-wave (km/s) = 6.22525 7.23764 6.75045
#
# Compressibility (1/GPa) = 0.02168660
#
# Stress axis : x y z
#
# Youngs Moduli (GPa) = 17.15640 17.15640 106.55701
#
# Poissons Ratio (x) = 0.72837 0.51583
# Poissons Ratio (y) = 0.72837 0.51583
# Poissons Ratio (z) = 0.08305 0.08305
#
# Static dielectric constant tensor:
#      x y z
#    x 2.856320 0.000000 0.000000 
#    y 0.000000 2.856320 0.000000 
#    z 0.000000 0.000000 3.425600 
# 
# 
# High freq. dielectric constant tensor:
#      x y z
#    x 1.588760 0.000000 0.000000 
#    y 0.000000 1.588760 0.000000 
#    z 0.000000 0.000000 1.645890 
# 
# From -- ./inp_files/6681.got.cif
#   From: 2010.03.12/outbox.cif.g09.slc.cpg/sg134_4_cif.got.tgz:6681.got - 2010.04.06 18:17:22.
