data_PCOD8317218
_publ_section_title
;
Structure prediction by ZEFSAII (Michael W. Deem and Ramdas Pophale) SiO2 
 PCOD8317218
Probable space group: P 42/N N M
;
_chemical_formula_sum "Si O2"
_cell_formula_units_Z 88
_cell_length_a 12.289871
_cell_length_b 12.289871
_cell_length_c 28.234230
_cell_angle_alpha 90.000000
_cell_angle_beta 90.000000
_cell_angle_gamma 90.000000
_cell_volume 4264.524334
_symmetry_space_group_name_H-M "P 42/N N M"
_symmetry_group_IT_number 134
_space_group.IT_coordinate_system_code '2'
_symmetry_cell_setting 'tetragonal'
loop_
_space_group_symop_operation_xyz
x,y,z
1/2-y,x,1/2+z
1/2-x,1/2-y,z
y,1/2-x,1/2+z
x,1/2-y,1/2-z
1/2-x,y,1/2-z
y,x,-z
1/2-y,1/2-x,-z
-x,-y,-z
1/2+y,-x,1/2-z
1/2+x,1/2+y,-z
-y,1/2+x,1/2-z
-x,1/2+y,1/2+z
1/2+x,-y,1/2+z
-y,-x,z
1/2+y,1/2+x,z
loop_
_atom_site_type_symbol
_atom_site_label
_atom_site_fract_x
_atom_site_fract_y
_atom_site_fract_z
Si Si1 0.161409 0.015386 0.154687
Si Si2 0.192360 0.512495 0.635010
Si Si3 0.926521 0.255252 0.036558
Si Si4 0.481318 0.156697 0.217553
Si Si5 0.747641 0.070882 0.933591
Si Si6 0.581850 0.750000 0.250000
O O1 0.223346 0.008456 0.204462
O O2 0.087699 0.122076 0.153714
O O3 0.242390 0.016652 0.109169
O O4 0.092967 0.907034 0.150931
O O5 0.126729 0.626729 0.641901
O O6 0.221528 0.494506 0.579628
O O7 0.305135 0.505325 0.663821
O O8 0.831106 0.168895 0.031438
O O9 0.872594 0.372594 0.047693
O O10 0.988130 0.258689 0.985430
O O11 0.535729 0.250000 0.250000
O O12 0.354319 0.151089 0.232508
O O13 0.541132 0.041132 0.226708
O O14 0.851990 0.148011 0.933312
O O15 0.638164 0.138164 0.924778
#
# Coordination Sequence:
#
# PCOD8317218 Si02
#       6
#    16  16  16  16  16   8
#     4  10  21  36  56  83 116 156 208 257 299 358
#     4  10  20  34  56  89 122 154 194 248 308 367
#     4   8  14  27  49  79 117 154 190 242 306 364
#     4  12  25  41  63  89 118 158 202 248 304 360
#     4   8  15  29  50  78 113 155 201 249 300 354
#     4  12  25  42  60  81 120 165 202 248 301 364
#
# _framework density 20.635359999999999
#
# number of rings (size 3 to 8) (size 9 to 14) (size 15 to 20)
#    0.000    2.182    1.818    3.000    0.000    4.182 
#    0.000    3.636    0.000    3.545    0.000    6.364 
#    0.000    0.000    0.000    0.000    0.000    0.000 
#
# Total GULP energy -1090263.933474 kJ/mol
# GULP energy per Si atom -12389.362880 kJ/mol
# Density = 2.058839 g / cm^3
# Si number density = 20.635360 Si / 1000 Ang^3
#
#
#
# Elastic Constant Matrix: (Units=GPa)
#
#
# Indices 1 2 3 4 5 6 
#
# 1 64.9509 28.9733 42.4998 0.0000 0.0000 0.0000
# 2 28.9733 64.9509 42.4998 0.0000 0.0000 0.0000
# 3 42.4998 42.4998 182.3806 0.0000 0.0000 0.0000
# 4 0.0000 0.0000 0.0000 21.9842 0.0000 0.0000
# 5 0.0000 0.0000 0.0000 0.0000 21.9842 0.0000
# 6 0.0000 0.0000 0.0000 0.0000 0.0000 -11.6138
#
#
#
# Elastic Compliance Matrix: (Units=1/GPa)
#
#
# Indices 1 2 3 4 5 6 
#
# 1 0.020644 -0.007151 -0.003144 0.000000 0.000000 0.000000
# 2 -0.007151 0.020644 -0.003144 0.000000 0.000000 0.000000
# 3 -0.003144 -0.003144 0.006948 0.000000 0.000000 0.000000
# 4 0.000000 0.000000 0.000000 0.045487 0.000000 0.000000
# 5 0.000000 0.000000 0.000000 0.000000 0.045487 0.000000
# 6 0.000000 0.000000 0.000000 0.000000 0.000000 -0.086105
#
#
# Mechanical properties :
#
#
# Convention : Reuss Voigt Hill
#
# Bulk Modulus (GPa) = 46.82414 60.02534 53.42474
# Shear Modulus (GPa) = 57.40311 19.69156 38.54734
#
# Velocity S-wave (km/s) = 5.27998 3.09247 4.32675
# Velocity P-wave (km/s) = 7.74025 6.47324 7.13492
#
# Compressibility (1/GPa) = 0.02135651
#
# Stress axis : x y z
#
# Youngs Moduli (GPa) = 48.44107 48.44107 143.91912
#
# Poissons Ratio (x) = 0.34642 0.45249
# Poissons Ratio (y) = 0.34642 0.45249
# Poissons Ratio (z) = 0.15230 0.15230
#
# Static dielectric constant tensor:
#      x y z
#    x 3.406150 0.000000 0.000000 
#    y 0.000000 3.406150 0.000000 
#    z 0.000000 0.000000 4.517680 
# 
# 
# High freq. dielectric constant tensor:
#      x y z
#    x 1.770830 0.000000 0.000000 
#    y 0.000000 1.770830 0.000000 
#    z 0.000000 0.000000 1.837480 
# 
# From -- ./inp_files/11483.got.cif
#   From: 2010.03.12/outbox.cif.g09.slc.cpg/sg134_6_cif.got.tgz:11483.got - 2010.04.06 18:17:22.
