data_PCOD8317128
_publ_section_title
;
Structure prediction by ZEFSAII (Michael W. Deem and Ramdas Pophale) SiO2 
 PCOD8317128
Probable space group: P 42/N N M
;
_chemical_formula_sum "Si O2"
_cell_formula_units_Z 64
_cell_length_a 12.973418
_cell_length_b 12.973418
_cell_length_c 26.727858
_cell_angle_alpha 90.000000
_cell_angle_beta 90.000000
_cell_angle_gamma 90.000000
_cell_volume 4498.554410
_symmetry_space_group_name_H-M "P 42/N N M"
_symmetry_group_IT_number 134
_space_group.IT_coordinate_system_code '2'
_symmetry_cell_setting 'tetragonal'
loop_
_space_group_symop_operation_xyz
x,y,z
1/2-y,x,1/2+z
1/2-x,1/2-y,z
y,1/2-x,1/2+z
x,1/2-y,1/2-z
1/2-x,y,1/2-z
y,x,-z
1/2-y,1/2-x,-z
-x,-y,-z
1/2+y,-x,1/2-z
1/2+x,1/2+y,-z
-y,1/2+x,1/2-z
-x,1/2+y,1/2+z
1/2+x,-y,1/2+z
-y,-x,z
1/2+y,1/2+x,z
loop_
_atom_site_type_symbol
_atom_site_label
_atom_site_fract_x
_atom_site_fract_y
_atom_site_fract_z
Si Si1 0.169507 0.501935 0.997865
Si Si2 0.371090 0.468313 0.049452
Si Si3 0.582342 0.255693 0.304186
Si Si4 0.991902 0.181335 0.095629
O O1 0.227719 0.510927 0.945044
O O2 0.106696 0.606696 0.007291
O O3 0.095871 0.404130 0.000000
O O4 0.249314 0.484636 0.043556
O O5 0.420311 0.579690 0.060943
O O6 0.402850 0.386302 0.092463
O O7 0.420789 0.420789 0.000000
O O8 0.524830 0.250000 0.250000
O O9 0.631483 0.368518 0.313358
O O10 0.672895 0.172895 0.302815
O O11 0.504824 0.231697 0.349428
O O12 0.891929 0.108072 0.086869
#
# Coordination Sequence:
#
# PCOD8317128 Si02
#       4
#    16  16  16  16
#     4  10  19  27  36  54  77 101 133 167 197 230
#     4   8  15  26  38  53  72  98 133 161 183 223
#     4   8  13  21  35  57  82 105 129 155 184 225
#     4   9  16  26  40  57  79 107 132 153 186 233
#
# _framework density 14.226793000000001
#
# number of rings (size 3 to 8) (size 9 to 14) (size 15 to 20)
#    0.000    3.250    0.000    3.750    0.000    7.500 
#    0.000    0.000    0.000    0.000    0.000    3.500 
#    0.000    0.000    0.000    2.250    0.000   65.250 
#
# Total GULP energy -792924.058399 kJ/mol
# GULP energy per Si atom -12389.438412 kJ/mol
# Density = 1.419441 g / cm^3
# Si number density = 14.226793 Si / 1000 Ang^3
#
#
#
# Elastic Constant Matrix: (Units=GPa)
#
#
# Indices 1 2 3 4 5 6 
#
# 1 88.3980 45.5597 42.2730 0.0000 0.0000 0.0000
# 2 45.5597 88.3973 42.2730 0.0000 0.0000 0.0000
# 3 42.2730 42.2730 102.7654 0.0000 0.0000 0.0000
# 4 0.0000 0.0000 0.0000 14.8656 0.0000 0.0000
# 5 0.0000 0.0000 0.0000 0.0000 14.8654 0.0000
# 6 0.0000 0.0000 0.0000 0.0000 0.0000 15.6182
#
#
#
# Elastic Compliance Matrix: (Units=1/GPa)
#
#
# Indices 1 2 3 4 5 6 
#
# 1 0.016713 -0.006630 -0.004148 0.000000 0.000000 0.000000
# 2 -0.006630 0.016713 -0.004148 0.000000 0.000000 0.000000
# 3 -0.004148 -0.004148 0.013143 0.000000 0.000000 0.000000
# 4 0.000000 0.000000 0.000000 0.067269 0.000000 0.000000
# 5 0.000000 0.000000 0.000000 0.000000 0.067270 0.000000
# 6 0.000000 0.000000 0.000000 0.000000 0.000000 0.064028
#
#
# Mechanical properties :
#
#
# Convention : Reuss Voigt Hill
#
# Bulk Modulus (GPa) = 59.81453 59.97467 59.89460
# Shear Modulus (GPa) = 17.82141 19.03351 18.42746
#
# Velocity S-wave (km/s) = 3.54314 3.66165 3.60288
# Velocity P-wave (km/s) = 7.67290 7.75400 7.71356
#
# Compressibility (1/GPa) = 0.01671834
#
# Stress axis : x y z
#
# Youngs Moduli (GPa) = 59.83292 59.83233 76.08508
#
# Poissons Ratio (x) = 0.39672 0.31557
# Poissons Ratio (y) = 0.39672 0.31557
# Poissons Ratio (z) = 0.24816 0.24816
#
# Static dielectric constant tensor:
#      x y z
#    x 2.801400 0.000000 0.000000 
#    y 0.000000 2.801400 0.000000 
#    z 0.000000 0.000000 2.997240 
# 
# 
# High freq. dielectric constant tensor:
#      x y z
#    x 1.527850 0.000000 0.000000 
#    y 0.000000 1.527850 0.000000 
#    z 0.000000 0.000000 1.520450 
# 
# From -- ./inp_files/10526.got.cif
#   From: 2010.03.12/outbox.cif.g09.slc.cpg/sg134_6_cif.got.tgz:10526.got - 2010.04.06 18:17:22.
