data_PCOD8317506
_publ_section_title
;
Structure prediction by ZEFSAII (Michael W. Deem and Ramdas Pophale) SiO2 
 PCOD8317506
Probable space group: P 42/M B C
;
_chemical_formula_sum "Si O2"
_cell_formula_units_Z 96
_cell_length_a 14.426115
_cell_length_b 14.426115
_cell_length_c 23.512242
_cell_angle_alpha 90.000000
_cell_angle_beta 90.000000
_cell_angle_gamma 90.000000
_cell_volume 4893.198376
_symmetry_space_group_name_H-M "P 42/M B C"
_symmetry_group_IT_number 135
_symmetry_cell_setting 'tetragonal'
loop_
_space_group_symop_operation_xyz
x,y,z
-y,x,1/2+z
-x,-y,z
y,-x,1/2+z
1/2+x,1/2-y,-z
1/2-x,1/2+y,-z
1/2+y,1/2+x,1/2-z
1/2-y,1/2-x,1/2-z
-x,-y,-z
y,-x,1/2-z
x,y,-z
-y,x,1/2-z
1/2-x,1/2+y,z
1/2+x,1/2-y,z
1/2-y,1/2-x,1/2+z
1/2+y,1/2+x,1/2+z
loop_
_atom_site_type_symbol
_atom_site_label
_atom_site_fract_x
_atom_site_fract_y
_atom_site_fract_z
Si Si1 0.126432 0.277732 0.110468
Si Si2 0.283651 0.399323 0.842349
Si Si3 0.236199 0.093816 0.889401
Si Si4 0.545030 0.184533 0.231166
Si Si5 0.050080 0.648509 0.500000
Si Si6 0.714910 0.845496 0.303740
Si Si7 0.641889 0.044551 0.500000
O O1 0.205299 0.356334 0.116356
O O2 0.161713 0.173644 0.099483
O O3 0.071856 0.278698 0.169118
O O4 0.062211 0.299689 0.056913
O O5 0.315310 0.498395 0.868372
O O6 0.255490 0.419110 0.777961
O O7 0.358171 0.314451 0.836210
O O8 0.311758 0.132776 0.845166
O O9 0.289021 0.068082 0.946026
O O10 0.584120 0.084120 0.250000
O O11 0.435547 0.178942 0.228645
O O12 0.120582 0.563459 0.500000
O O13 0.946558 0.610465 0.500000
O O14 0.726722 0.773279 0.250000
#
# Coordination Sequence:
#
# PCOD8317506 Si02
#       7
#    16  16  16  16   8  16   8
#     4  10  21  38  60  82 121 159 202 254 309 370
#     4  10  20  36  57  85 119 157 203 248 300 371
#     4  11  21  39  60  86 116 167 207 247 312 384
#     4  10  21  37  57  88 121 156 199 253 312 367
#     4  11  23  36  60  89 118 153 204 259 321 383
#     4  11  21  37  59  88 125 162 204 258 315 372
#     4  11  21  38  58  89 123 150 197 270 319 368
#
# _framework density 19.619069
#
# number of rings (size 3 to 8) (size 9 to 14) (size 15 to 20)
#    0.000    1.500    3.333    4.000    0.000    0.333 
#    0.000    0.833    0.000    0.000    0.000    4.667 
#    0.000    0.000    0.000    0.000    0.000    0.000 
#
# Total GULP energy -1189307.326070 kJ/mol
# GULP energy per Si atom -12388.617980 kJ/mol
# Density = 1.957441 g / cm^3
# Si number density = 19.619069 Si / 1000 Ang^3
#
#
#
# Elastic Constant Matrix: (Units=GPa)
#
#
# Indices 1 2 3 4 5 6 
#
# 1 102.9883 34.3872 37.2261 0.0000 0.0000 0.0000
# 2 34.3872 102.9888 37.2262 0.0000 0.0000 0.0000
# 3 37.2261 37.2262 130.2965 0.0000 0.0000 0.0000
# 4 0.0000 0.0000 0.0000 20.8088 0.0000 0.0000
# 5 0.0000 0.0000 0.0000 0.0000 20.8085 0.0000
# 6 0.0000 0.0000 0.0000 0.0000 0.0000 23.8515
#
#
#
# Elastic Compliance Matrix: (Units=1/GPa)
#
#
# Indices 1 2 3 4 5 6 
#
# 1 0.011595 -0.002982 -0.002461 0.000000 0.000000 0.000000
# 2 -0.002982 0.011595 -0.002461 0.000000 0.000000 0.000000
# 3 -0.002461 -0.002461 0.009081 0.000000 0.000000 0.000000
# 4 0.000000 0.000000 0.000000 0.048057 0.000000 0.000000
# 5 0.000000 0.000000 0.000000 0.000000 0.048057 0.000000
# 6 0.000000 0.000000 0.000000 0.000000 0.000000 0.041926
#
#
# Mechanical properties :
#
#
# Convention : Reuss Voigt Hill
#
# Bulk Modulus (GPa) = 60.73938 61.55026 61.14482
# Shear Modulus (GPa) = 26.09525 28.25603 27.17564
#
# Velocity S-wave (km/s) = 3.65101 3.79916 3.72582
# Velocity P-wave (km/s) = 6.98568 7.11938 7.05285
#
# Compressibility (1/GPa) = 0.01646378
#
# Stress axis : x y z
#
# Youngs Moduli (GPa) = 86.24422 86.24465 110.12136
#
# Poissons Ratio (x) = 0.25718 0.27098
# Poissons Ratio (y) = 0.25718 0.27098
# Poissons Ratio (z) = 0.21223 0.21223
#
# Static dielectric constant tensor:
#      x y z
#    x 3.542390 0.000000 0.000000 
#    y 0.000000 3.542390 0.000000 
#    z 0.000000 0.000000 3.666730 
# 
# 
# High freq. dielectric constant tensor:
#      x y z
#    x 1.751300 0.000000 0.000000 
#    y 0.000000 1.751300 0.000000 
#    z 0.000000 0.000000 1.781780 
# 
# From -- ./inp_files/5501.got.cif
#   From: 2010.03.12/outbox.cif.g09.slc.cpg/sg135_3_cif.got.tgz:5501.got - 2010.04.06 18:31:24.
