data_PCOD8317457
_publ_section_title
;
Structure prediction by ZEFSAII (Michael W. Deem and Ramdas Pophale) SiO2 
 PCOD8317457
Probable space group: P 42/M B C
;
_chemical_formula_sum "Si O2"
_cell_formula_units_Z 88
_cell_length_a 14.545041
_cell_length_b 14.545041
_cell_length_c 20.827303
_cell_angle_alpha 90.000000
_cell_angle_beta 90.000000
_cell_angle_gamma 90.000000
_cell_volume 4406.187102
_symmetry_space_group_name_H-M "P 42/M B C"
_symmetry_group_IT_number 135
_symmetry_cell_setting 'tetragonal'
loop_
_space_group_symop_operation_xyz
x,y,z
-y,x,1/2+z
-x,-y,z
y,-x,1/2+z
1/2+x,1/2-y,-z
1/2-x,1/2+y,-z
1/2+y,1/2+x,1/2-z
1/2-y,1/2-x,1/2-z
-x,-y,-z
y,-x,1/2-z
x,y,-z
-y,x,1/2-z
1/2-x,1/2+y,z
1/2+x,1/2-y,z
1/2-y,1/2-x,1/2+z
1/2+y,1/2+x,1/2+z
loop_
_atom_site_type_symbol
_atom_site_label
_atom_site_fract_x
_atom_site_fract_y
_atom_site_fract_z
Si Si1 0.514885 0.192645 0.000000
Si Si2 0.741726 0.734506 0.103776
Si Si3 0.225042 0.601983 0.286000
Si Si4 0.122034 0.688007 0.500000
Si Si5 0.100122 0.071924 0.782504
Si Si6 0.903383 0.710612 0.500000
Si Si7 0.771935 0.057892 0.367945
O O1 0.422922 0.131210 0.000000
O O2 0.603043 0.126001 0.000000
O O3 0.515455 0.260627 0.061194
O O4 0.665173 0.735090 0.157679
O O5 0.731435 0.827575 0.061634
O O6 0.840550 0.732224 0.137216
O O7 0.736739 0.641047 0.061222
O O8 0.131569 0.631569 0.250000
O O9 0.297358 0.607674 0.227912
O O10 0.213002 0.501069 0.316242
O O11 0.014304 0.716658 0.500000
O O12 0.058393 0.120431 0.846236
O O13 0.039242 0.098467 0.717850
#
# Coordination Sequence:
#
# PCOD8317457 Si02
#       7
#     8  16  16   8  16   8  16
#     4  10  19  36  64  87 120 166 207 268 310 378
#     4  10  21  38  59  88 118 158 207 252 317 366
#     4  11  20  36  61  84 116 163 205 255 314 370
#     4  11  20  39  62  86 121 168 212 249 329 374
#     4   9  19  34  56  84 118 161 205 244 310 378
#     4   9  22  37  58  90 125 158 206 263 311 379
#     4  10  20  37  58  87 121 155 207 255 305 376
#
# _framework density 19.971916
#
# number of rings (size 3 to 8) (size 9 to 14) (size 15 to 20)
#    0.000    2.000    3.636    0.818    0.000    1.455 
#    0.000    0.000    0.000    9.818    0.000    0.000 
#    0.000    0.000    0.000    0.000    0.000    0.000 
#
# Total GULP energy -1090164.924186 kJ/mol
# GULP energy per Si atom -12388.237775 kJ/mol
# Density = 1.992646 g / cm^3
# Si number density = 19.971916 Si / 1000 Ang^3
#
#
#
# Elastic Constant Matrix: (Units=GPa)
#
#
# Indices 1 2 3 4 5 6 
#
# 1 83.6527 19.5899 22.6844 0.0000 0.0000 0.0000
# 2 19.5899 83.6527 22.6844 0.0000 0.0000 0.0000
# 3 22.6844 22.6844 66.5197 0.0000 0.0000 0.0000
# 4 0.0000 0.0000 0.0000 25.9532 0.0000 0.0000
# 5 0.0000 0.0000 0.0000 0.0000 25.9532 0.0000
# 6 0.0000 0.0000 0.0000 0.0000 0.0000 25.0403
#
#
#
# Elastic Compliance Matrix: (Units=1/GPa)
#
#
# Indices 1 2 3 4 5 6 
#
# 1 0.013501 -0.002108 -0.003885 0.000000 0.000000 0.000000
# 2 -0.002108 0.013501 -0.003885 0.000000 0.000000 0.000000
# 3 -0.003885 -0.003885 0.017683 0.000000 0.000000 0.000000
# 4 0.000000 0.000000 0.000000 0.038531 0.000000 0.000000
# 5 0.000000 0.000000 0.000000 0.000000 0.038531 0.000000
# 6 0.000000 0.000000 0.000000 0.000000 0.000000 0.039936
#
#
# Mechanical properties :
#
#
# Convention : Reuss Voigt Hill
#
# Bulk Modulus (GPa) = 40.11491 40.41583 40.26537
# Shear Modulus (GPa) = 26.35041 26.64712 26.49876
#
# Velocity S-wave (km/s) = 3.63626 3.65667 3.64648
# Velocity P-wave (km/s) = 6.14484 6.17322 6.15905
#
# Compressibility (1/GPa) = 0.02492839
#
# Stress axis : x y z
#
# Youngs Moduli (GPa) = 74.06598 74.06598 56.55130
#
# Poissons Ratio (x) = 0.15615 0.21972
# Poissons Ratio (y) = 0.15615 0.21972
# Poissons Ratio (z) = 0.28777 0.28777
#
# Static dielectric constant tensor:
#      x y z
#    x 3.633640 0.000000 0.000000 
#    y 0.000000 3.633640 0.000000 
#    z 0.000000 0.000000 3.696030 
# 
# 
# High freq. dielectric constant tensor:
#      x y z
#    x 1.772590 0.000000 0.000000 
#    y 0.000000 1.772590 0.000000 
#    z 0.000000 0.000000 1.772850 
# 
# From -- ./inp_files/5377.got.cif
#   From: 2010.03.12/outbox.cif.g09.slc.cpg/sg135_3_cif.got.tgz:5377.got - 2010.04.06 18:31:24.
