data_PCOD8317791
_publ_section_title
;
Structure prediction by ZEFSAII (Michael W. Deem and Ramdas Pophale) SiO2 
 PCOD8317791
Probable space group: P 42/M N M
;
_chemical_formula_sum "Si O2"
_cell_formula_units_Z 104
_cell_length_a 17.308153
_cell_length_b 17.308153
_cell_length_c 17.947320
_cell_angle_alpha 90.000000
_cell_angle_beta 90.000000
_cell_angle_gamma 90.000000
_cell_volume 5376.517423
_symmetry_space_group_name_H-M "P 42/M N M"
_symmetry_group_IT_number 136
_symmetry_cell_setting 'tetragonal'
loop_
_space_group_symop_operation_xyz
x,y,z
1/2-y,1/2+x,1/2+z
-x,-y,z
1/2+y,1/2-x,1/2+z
1/2+x,1/2-y,1/2-z
1/2-x,1/2+y,1/2-z
y,x,-z
-y,-x,-z
-x,-y,-z
1/2+y,1/2-x,1/2-z
x,y,-z
1/2-y,1/2+x,1/2-z
1/2-x,1/2+y,1/2+z
1/2+x,1/2-y,1/2+z
-y,-x,z
y,x,z
loop_
_atom_site_type_symbol
_atom_site_label
_atom_site_fract_x
_atom_site_fract_y
_atom_site_fract_z
Si Si1 0.950150 0.178505 0.814366
Si Si2 0.914060 0.788607 0.084813
Si Si3 0.910107 0.632638 0.172779
Si Si4 0.626583 0.496424 0.838977
Si Si5 0.586494 0.849101 0.680704
Si Si6 0.125415 0.995252 0.500000
Si Si7 0.487801 0.908766 0.081776
O O1 0.891367 0.108634 0.824604
O O2 0.982037 0.184046 0.729029
O O3 0.909555 0.258493 0.838855
O O4 0.021297 0.163875 0.869911
O O5 0.834312 0.834312 0.088027
O O6 0.898254 0.705344 0.119752
O O7 0.942633 0.777812 0.000000
O O8 0.861570 0.641775 0.248368
O O9 0.876079 0.557140 0.131911
O O10 0.998994 0.623929 0.197996
O O11 0.586243 0.413758 0.821700
O O12 0.560514 0.560514 0.845225
O O13 0.671050 0.493435 0.920369
O O14 0.615163 0.903321 0.613182
O O15 0.056164 0.056164 0.500000
O O16 0.091220 0.908781 0.500000
O O17 0.500000 0.000000 0.076333
O O18 0.493019 0.871291 0.000000
#
# Coordination Sequence:
#
# PCOD8317791 Si02
#       7
#    16  16  16  16  16   8  16
#     4  10  21  34  51  77 111 149 192 232 266 315
#     4  10  22  38  56  80 111 149 190 229 271 319
#     4  10  18  33  57  82 108 140 175 223 273 338
#     4   8  13  24  44  68  95 131 175 219 262 309
#     4  10  19  31  54  80 111 139 179 221 275 333
#     4   7  10  18  38  66  90 118 163 216 262 304
#     4   9  17  29  52  82 107 134 172 223 276 328
#
# _framework density 19.343375000000002
#
# number of rings (size 3 to 8) (size 9 to 14) (size 15 to 20)
#    0.000    2.692    1.538    1.846    0.000    5.538 
#    0.000    0.769    3.385    0.000    0.000    0.000 
#    0.000    0.000    0.000    0.000    0.000    0.000 
#
# Total GULP energy -1288750.312590 kJ/mol
# GULP energy per Si atom -12391.829929 kJ/mol
# Density = 1.929935 g / cm^3
# Si number density = 19.343375 Si / 1000 Ang^3
#
#
#
# Elastic Constant Matrix: (Units=GPa)
#
#
# Indices 1 2 3 4 5 6 
#
# 1 61.0594 21.3724 40.2883 0.0000 0.0000 0.0000
# 2 21.3724 61.0596 40.2883 0.0000 0.0000 0.0000
# 3 40.2883 40.2883 154.1024 0.0000 0.0000 0.0000
# 4 0.0000 0.0000 0.0000 25.2376 0.0000 0.0000
# 5 0.0000 0.0000 0.0000 0.0000 25.2376 0.0000
# 6 0.0000 0.0000 0.0000 0.0000 0.0000 14.1976
#
#
#
# Elastic Compliance Matrix: (Units=1/GPa)
#
#
# Indices 1 2 3 4 5 6 
#
# 1 0.020746 -0.004451 -0.004260 0.000000 0.000000 0.000000
# 2 -0.004451 0.020746 -0.004260 0.000000 0.000000 0.000000
# 3 -0.004260 -0.004260 0.008717 0.000000 0.000000 0.000000
# 4 0.000000 0.000000 0.000000 0.039623 0.000000 0.000000
# 5 0.000000 0.000000 0.000000 0.000000 0.039623 0.000000
# 6 0.000000 0.000000 0.000000 0.000000 0.000000 0.070435
#
#
# Mechanical properties :
#
#
# Convention : Reuss Voigt Hill
#
# Bulk Modulus (GPa) = 41.20843 53.34661 47.27752
# Shear Modulus (GPa) = 21.37459 24.55272 22.96365
#
# Velocity S-wave (km/s) = 3.32777 3.56660 3.44925
# Velocity P-wave (km/s) = 6.00960 6.67828 6.35275
#
# Compressibility (1/GPa) = 0.02426688
#
# Stress axis : x y z
#
# Youngs Moduli (GPa) = 48.20110 48.20129 114.72078
#
# Poissons Ratio (x) = 0.21453 0.48875
# Poissons Ratio (y) = 0.21453 0.48875
# Poissons Ratio (z) = 0.20535 0.20535
#
# Static dielectric constant tensor:
#      x y z
#    x 3.198710 0.000000 0.000000 
#    y 0.000000 3.198710 0.000000 
#    z 0.000000 0.000000 3.969850 
# 
# 
# High freq. dielectric constant tensor:
#      x y z
#    x 1.719680 0.000000 0.000000 
#    y 0.000000 1.719680 0.000000 
#    z 0.000000 0.000000 1.771760 
# 
# From -- ./inp_files/6411.got.cif
#   From: 2010.03.12/outbox.cif.g09.slc.cpg/sg136_4_cif.got.tgz:6411.got - 2010.04.06 18:39:43.
