data_PCOD8317031
_publ_section_title
;
Structure prediction by ZEFSAII (Michael W. Deem and Ramdas Pophale) SiO2 
 PCOD8317031
Probable space group: P 42/N B C
;
_chemical_formula_sum "Si O2"
_cell_formula_units_Z 48
_cell_length_a 12.148560
_cell_length_b 12.148560
_cell_length_c 13.676806
_cell_angle_alpha 90.000000
_cell_angle_beta 90.000000
_cell_angle_gamma 90.000000
_cell_volume 2018.525743
_symmetry_space_group_name_H-M "P 42/N B C"
_symmetry_group_IT_number 133
_space_group.IT_coordinate_system_code '2'
_symmetry_cell_setting 'tetragonal'
loop_
_space_group_symop_operation_xyz
x,y,z
1/2-y,x,1/2+z
1/2-x,1/2-y,z
y,1/2-x,1/2+z
x,1/2-y,-z
1/2-x,y,-z
y,x,1/2-z
1/2-y,1/2-x,1/2-z
-x,-y,-z
1/2+y,-x,1/2-z
1/2+x,1/2+y,-z
-y,1/2+x,1/2-z
-x,1/2+y,z
1/2+x,-y,z
-y,-x,1/2+z
1/2+y,1/2+x,1/2+z
loop_
_atom_site_type_symbol
_atom_site_label
_atom_site_fract_x
_atom_site_fract_y
_atom_site_fract_z
Si Si1 0.512742 0.165967 0.221609
Si Si2 0.198017 0.941892 0.101209
Si Si3 0.694688 0.862692 0.399422
O O1 0.571532 0.203580 0.320894
O O2 0.596670 0.132289 0.136345
O O3 0.449708 0.275887 0.184793
O O4 0.433758 0.066243 0.250000
O O5 0.152519 0.065246 0.086948
O O6 0.250000 0.898278 0.000000
O O7 0.750000 0.750000 0.365369
O O8 0.750000 0.902962 0.500000
#
# Coordination Sequence:
#
# PCOD8317031 Si02
#       3
#    16  16  16
#     4  12  25  43  76 106 146 196 244 299 364 430
#     4  12  27  48  71 108 148 191 248 299 367 439
#     4  11  21  44  77 108 142 189 243 301 353 426
#
# _framework density 23.779731000000002
#
# number of rings (size 3 to 8) (size 9 to 14) (size 15 to 20)
#    0.000    0.333    6.667    3.000    0.000    8.667 
#    0.000    1.667    0.000    0.000    0.000    0.000 
#    0.000    0.000    0.000    0.000    0.000    0.000 
#
# Total GULP energy -595366.405869 kJ/mol
# GULP energy per Si atom -12403.466789 kJ/mol
# Density = 2.372561 g / cm^3
# Si number density = 23.779731 Si / 1000 Ang^3
#
#
#
# Elastic Constant Matrix: (Units=GPa)
#
#
# Indices 1 2 3 4 5 6 
#
# 1 59.6351 50.1555 40.9319 0.0000 0.0000 0.0000
# 2 50.1555 59.6350 40.9319 0.0000 0.0000 0.0000
# 3 40.9319 40.9319 163.7710 0.0000 0.0000 0.0000
# 4 0.0000 0.0000 0.0000 41.2990 0.0000 0.0000
# 5 0.0000 0.0000 0.0000 0.0000 41.2988 0.0000
# 6 0.0000 0.0000 0.0000 0.0000 0.0000 39.8157
#
#
#
# Elastic Compliance Matrix: (Units=1/GPa)
#
#
# Indices 1 2 3 4 5 6 
#
# 1 0.058342 -0.047148 -0.002798 0.000000 0.000000 0.000000
# 2 -0.047148 0.058342 -0.002798 0.000000 0.000000 0.000000
# 3 -0.002798 -0.002798 0.007505 0.000000 0.000000 0.000000
# 4 0.000000 0.000000 0.000000 0.024214 0.000000 0.000000
# 5 0.000000 0.000000 0.000000 0.000000 0.024214 0.000000
# 6 0.000000 0.000000 0.000000 0.000000 0.000000 0.025116
#
#
# Mechanical properties :
#
#
# Convention : Reuss Voigt Hill
#
# Bulk Modulus (GPa) = 53.47004 60.78665 57.12835
# Shear Modulus (GPa) = 16.15752 34.55084 25.35418
#
# Velocity S-wave (km/s) = 2.60948 3.81590 3.26883
# Velocity P-wave (km/s) = 5.62260 6.71064 6.19057
#
# Compressibility (1/GPa) = 0.01870206
#
# Stress axis : x y z
#
# Youngs Moduli (GPa) = 17.14024 17.14021 133.25069
#
# Poissons Ratio (x) = 0.80812 0.37282
# Poissons Ratio (y) = 0.80813 0.37282
# Poissons Ratio (z) = 0.04796 0.04796
#
# Static dielectric constant tensor:
#      x y z
#    x 4.292820 0.000000 0.000000 
#    y 0.000000 4.292810 0.000000 
#    z 0.000000 0.000000 4.508320 
# 
# 
# High freq. dielectric constant tensor:
#      x y z
#    x 1.934840 0.000000 0.000000 
#    y 0.000000 1.934840 0.000000 
#    z 0.000000 0.000000 1.963790 
# 
# From -- ./inp_files/2637.got.cif
#   From: 2010.03.12/outbox.cif.g09.slc.cpg/sg133_2_cif.got.tgz:2637.got - 2010.04.06 18:08:06.
