data_PCOD8317868
_publ_section_title
;
Structure prediction by ZEFSAII (Michael W. Deem and Ramdas Pophale) SiO2 
 PCOD8317868
Probable space group: P 42/M N M
;
_chemical_formula_sum "Si O2"
_cell_formula_units_Z 112
_cell_length_a 15.105621
_cell_length_b 15.105621
_cell_length_c 26.594205
_cell_angle_alpha 90.000000
_cell_angle_beta 90.000000
_cell_angle_gamma 90.000000
_cell_volume 6068.260000
_symmetry_space_group_name_H-M "P 42/M N M"
_symmetry_group_IT_number 136
_symmetry_cell_setting 'tetragonal'
loop_
_space_group_symop_operation_xyz
x,y,z
1/2-y,1/2+x,1/2+z
-x,-y,z
1/2+y,1/2-x,1/2+z
1/2+x,1/2-y,1/2-z
1/2-x,1/2+y,1/2-z
y,x,-z
-y,-x,-z
-x,-y,-z
1/2+y,1/2-x,1/2-z
x,y,-z
1/2-y,1/2+x,1/2-z
1/2-x,1/2+y,1/2+z
1/2+x,1/2-y,1/2+z
-y,-x,z
y,x,z
loop_
_atom_site_type_symbol
_atom_site_label
_atom_site_fract_x
_atom_site_fract_y
_atom_site_fract_z
Si Si1 0.699020 0.445419 0.379625
Si Si2 0.033901 0.823929 0.225718
Si Si3 0.391344 0.248289 0.557866
Si Si4 0.700103 0.161448 0.273117
Si Si5 0.768115 0.905458 0.697025
Si Si6 0.610002 0.922180 0.378174
Si Si7 0.110108 0.582692 0.360982
O O1 0.622366 0.377635 0.396935
O O2 0.688451 0.467396 0.320708
O O3 0.695397 0.534259 0.412639
O O4 0.795476 0.399382 0.387944
O O5 0.082440 0.917561 0.218311
O O6 0.103209 0.742644 0.228106
O O7 0.988512 0.823734 0.281227
O O8 0.419659 0.245195 0.500000
O O9 0.298462 0.298462 0.565837
O O10 0.379895 0.147226 0.576425
O O11 0.777846 0.222155 0.298443
O O12 0.628766 0.224078 0.248013
O O13 0.647938 0.101023 0.313200
O O14 0.834485 0.834485 0.672710
O O15 0.696785 0.925605 0.655301
O O16 0.522248 0.894432 0.346084
O O17 0.600672 0.024855 0.397178
#
# Coordination Sequence:
#
# PCOD8317868 Si02
#       7
#    16  16  16  16  16  16  16
#     4  11  22  38  57  80 115 154 191 233 286 344
#     4  11  22  34  50  76 111 150 192 230 271 327
#     4  10  22  41  64  88 112 142 187 241 292 345
#     4  10  19  32  48  70 105 147 183 224 265 310
#     4  11  21  32  48  73 107 147 189 225 269 326
#     4  10  21  35  55  79 109 141 181 231 287 333
#     4  10  19  34  52  78 107 139 185 225 271 326
#
# _framework density 18.456689999999998
#
# number of rings (size 3 to 8) (size 9 to 14) (size 15 to 20)
#    0.000    1.571    2.857    3.429    0.000    3.429 
#    0.000    7.857    0.000    0.000    0.000    0.000 
#    0.000    1.714    0.000   15.857    0.000    0.000 
#
# Total GULP energy -1387756.532328 kJ/mol
# GULP energy per Si atom -12390.683324 kJ/mol
# Density = 1.841468 g / cm^3
# Si number density = 18.456690 Si / 1000 Ang^3
#
#
#
# Elastic Constant Matrix: (Units=GPa)
#
#
# Indices 1 2 3 4 5 6 
#
# 1 82.7156 49.4953 28.6448 0.0000 0.0000 0.0000
# 2 49.4953 82.7156 28.6448 0.0000 0.0000 0.0000
# 3 28.6448 28.6448 63.4073 0.0000 0.0000 0.0000
# 4 0.0000 0.0000 0.0000 17.9667 0.0000 0.0000
# 5 0.0000 0.0000 0.0000 0.0000 17.9667 0.0000
# 6 0.0000 0.0000 0.0000 0.0000 0.0000 25.4495
#
#
#
# Elastic Compliance Matrix: (Units=1/GPa)
#
#
# Indices 1 2 3 4 5 6 
#
# 1 0.019753 -0.010349 -0.004249 0.000000 0.000000 0.000000
# 2 -0.010349 0.019753 -0.004249 0.000000 0.000000 0.000000
# 3 -0.004249 -0.004249 0.019610 0.000000 0.000000 0.000000
# 4 0.000000 0.000000 0.000000 0.055659 0.000000 0.000000
# 5 0.000000 0.000000 0.000000 0.000000 0.055659 0.000000
# 6 0.000000 0.000000 0.000000 0.000000 0.000000 0.039294
#
#
# Mechanical properties :
#
#
# Convention : Reuss Voigt Hill
#
# Bulk Modulus (GPa) = 46.67539 49.15648 47.91594
# Shear Modulus (GPa) = 19.64168 20.41347 20.02758
#
# Velocity S-wave (km/s) = 3.26575 3.32930 3.29768
# Velocity P-wave (km/s) = 6.29001 6.43974 6.36531
#
# Compressibility (1/GPa) = 0.02142457
#
# Stress axis : x y z
#
# Youngs Moduli (GPa) = 50.62426 50.62426 50.99485
#
# Poissons Ratio (x) = 0.52389 0.21666
# Poissons Ratio (y) = 0.52389 0.21666
# Poissons Ratio (z) = 0.21509 0.21509
#
# Static dielectric constant tensor:
#      x y z
#    x 3.650420 0.000000 0.000000 
#    y 0.000000 3.650420 0.000000 
#    z 0.000000 0.000000 2.905230 
# 
# 
# High freq. dielectric constant tensor:
#      x y z
#    x 1.730390 0.000000 0.000000 
#    y 0.000000 1.730390 0.000000 
#    z 0.000000 0.000000 1.653070 
# 
# From -- ./inp_files/9194.got.cif
#   From: 2010.03.12/outbox.cif.g09.slc.cpg/sg136_5_cif.got.tgz:9194.got - 2010.04.06 18:39:43.
