data_PCOD8317377
_publ_section_title
;
Structure prediction by ZEFSAII (Michael W. Deem and Ramdas Pophale) SiO2 
 PCOD8317377
Probable space group: P 42/M B C
;
_chemical_formula_sum "Si O2"
_cell_formula_units_Z 112
_cell_length_a 16.969180
_cell_length_b 16.969180
_cell_length_c 21.495956
_cell_angle_alpha 90.000000
_cell_angle_beta 90.000000
_cell_angle_gamma 90.000000
_cell_volume 6189.826520
_symmetry_space_group_name_H-M "P 42/M B C"
_symmetry_group_IT_number 135
_symmetry_cell_setting 'tetragonal'
loop_
_space_group_symop_operation_xyz
x,y,z
-y,x,1/2+z
-x,-y,z
y,-x,1/2+z
1/2+x,1/2-y,-z
1/2-x,1/2+y,-z
1/2+y,1/2+x,1/2-z
1/2-y,1/2-x,1/2-z
-x,-y,-z
y,-x,1/2-z
x,y,-z
-y,x,1/2-z
1/2-x,1/2+y,z
1/2+x,1/2-y,z
1/2-y,1/2-x,1/2+z
1/2+y,1/2+x,1/2+z
loop_
_atom_site_type_symbol
_atom_site_label
_atom_site_fract_x
_atom_site_fract_y
_atom_site_fract_z
Si Si1 0.913188 0.488830 0.072089
Si Si2 0.066789 0.256373 0.571493
Si Si3 0.172215 0.673645 0.427467
Si Si4 0.586876 0.504194 0.570968
Si Si5 0.568389 0.608895 0.743126
Si Si6 0.827595 0.864166 0.636226
Si Si7 0.588744 0.673246 0.391664
O O1 0.844330 0.547012 0.098227
O O2 0.884979 0.400298 0.082351
O O3 0.000000 0.500000 0.103754
O O4 0.920791 0.509321 0.000000
O O5 0.095021 0.260569 0.500000
O O6 0.134187 0.217789 0.613387
O O7 0.990337 0.200506 0.573669
O O8 0.198527 0.674996 0.500000
O O9 0.236515 0.639129 0.380882
O O10 0.155031 0.761830 0.403966
O O11 0.500000 0.500000 0.602518
O O12 0.581469 0.478429 0.500000
O O13 0.641105 0.441419 0.603113
O O14 0.620563 0.592276 0.578294
O O15 0.603325 0.521382 0.731828
O O16 0.624011 0.656691 0.790794
O O17 0.570663 0.660078 0.680769
#
# Coordination Sequence:
#
# PCOD8317377 Si02
#       7
#    16  16  16  16  16  16  16
#     4   8  16  34  57  78 107 150 193 230 278 352
#     4  10  18  31  55  84 112 147 189 235 295 355
#     4  10  22  38  56  84 119 148 194 253 304 353
#     4  11  19  30  53  83 113 146 187 233 297 363
#     4  11  21  37  57  84 119 156 201 237 278 360
#     4  12  22  35  54  84 120 151 185 248 302 351
#     4  11  20  36  56  79 111 155 193 233 290 357
#
# _framework density 18.094207000000001
#
# number of rings (size 3 to 8) (size 9 to 14) (size 15 to 20)
#    0.000    1.571    4.286    3.429    0.000    0.571 
#    2.571    0.000    0.000    0.000    0.000    4.000 
#    0.000    0.000    0.000    0.000    0.000    0.000 
#
# Total GULP energy -1388587.085714 kJ/mol
# GULP energy per Si atom -12398.098980 kJ/mol
# Density = 1.805302 g / cm^3
# Si number density = 18.094207 Si / 1000 Ang^3
#
#
#
# Elastic Constant Matrix: (Units=GPa)
#
#
# Indices 1 2 3 4 5 6 
#
# 1 93.4906 32.1534 20.1933 0.0000 0.0000 0.0000
# 2 32.1534 93.4906 20.1933 0.0000 0.0000 0.0000
# 3 20.1933 20.1933 63.1298 0.0000 0.0000 0.0000
# 4 0.0000 0.0000 0.0000 22.7651 0.0000 0.0000
# 5 0.0000 0.0000 0.0000 0.0000 22.7651 0.0000
# 6 0.0000 0.0000 0.0000 0.0000 0.0000 26.6283
#
#
#
# Elastic Compliance Matrix: (Units=1/GPa)
#
#
# Indices 1 2 3 4 5 6 
#
# 1 0.012587 -0.003716 -0.002838 0.000000 0.000000 0.000000
# 2 -0.003716 0.012587 -0.002838 0.000000 0.000000 0.000000
# 3 -0.002838 -0.002838 0.017656 0.000000 0.000000 0.000000
# 4 0.000000 0.000000 0.000000 0.043927 0.000000 0.000000
# 5 0.000000 0.000000 0.000000 0.000000 0.043927 0.000000
# 6 0.000000 0.000000 0.000000 0.000000 0.000000 0.037554
#
#
# Mechanical properties :
#
#
# Convention : Reuss Voigt Hill
#
# Bulk Modulus (GPa) = 41.58431 43.91010 42.74720
# Shear Modulus (GPa) = 25.63627 26.26979 25.95303
#
# Velocity S-wave (km/s) = 3.76815 3.81443 3.79136
# Velocity P-wave (km/s) = 6.47796 6.61211 6.54538
#
# Compressibility (1/GPa) = 0.02404753
#
# Stress axis : x y z
#
# Youngs Moduli (GPa) = 79.44571 79.44571 56.63893
#
# Poissons Ratio (x) = 0.29523 0.16072
# Poissons Ratio (y) = 0.29523 0.16072
# Poissons Ratio (z) = 0.22543 0.22543
#
# Static dielectric constant tensor:
#      x y z
#    x 3.470160 0.000000 0.000000 
#    y 0.000000 3.470160 0.000000 
#    z 0.000000 0.000000 3.265490 
# 
# 
# High freq. dielectric constant tensor:
#      x y z
#    x 1.694060 0.000000 0.000000 
#    y 0.000000 1.694060 0.000000 
#    z 0.000000 0.000000 1.684680 
# 
# From -- ./inp_files/5653.got.cif
#   From: 2010.03.12/outbox.cif.g09.slc.cpg/sg135_3_cif.got.tgz:5653.got - 2010.04.06 18:31:24.
