data_PCOD8317232
_publ_section_title
;
Structure prediction by ZEFSAII (Michael W. Deem and Ramdas Pophale) SiO2 
 PCOD8317232
Probable space group: P 42/N N M
;
_chemical_formula_sum "Si O2"
_cell_formula_units_Z 112
_cell_length_a 14.227251
_cell_length_b 14.227251
_cell_length_c 28.416404
_cell_angle_alpha 90.000000
_cell_angle_beta 90.000000
_cell_angle_gamma 90.000000
_cell_volume 5751.897067
_symmetry_space_group_name_H-M "P 42/N N M"
_symmetry_group_IT_number 134
_space_group.IT_coordinate_system_code '2'
_symmetry_cell_setting 'tetragonal'
loop_
_space_group_symop_operation_xyz
x,y,z
1/2-y,x,1/2+z
1/2-x,1/2-y,z
y,1/2-x,1/2+z
x,1/2-y,1/2-z
1/2-x,y,1/2-z
y,x,-z
1/2-y,1/2-x,-z
-x,-y,-z
1/2+y,-x,1/2-z
1/2+x,1/2+y,-z
-y,1/2+x,1/2-z
-x,1/2+y,1/2+z
1/2+x,-y,1/2+z
-y,-x,z
1/2+y,1/2+x,z
loop_
_atom_site_type_symbol
_atom_site_label
_atom_site_fract_x
_atom_site_fract_y
_atom_site_fract_z
Si Si1 0.857475 0.504600 0.629697
Si Si2 0.690766 0.466863 0.361812
Si Si3 0.919024 0.573126 0.213257
Si Si4 0.260612 0.407216 0.553094
Si Si5 0.130781 0.476699 0.688655
Si Si6 0.399810 0.258540 0.947713
Si Si7 0.931676 0.217097 0.700275
O O1 0.892473 0.604527 0.652169
O O2 0.778547 0.518083 0.589338
O O3 0.808348 0.439241 0.668221
O O4 0.946350 0.446350 0.609290
O O5 0.631510 0.368491 0.365362
O O6 0.631254 0.546920 0.335602
O O7 0.724139 0.502721 0.413213
O O8 0.783664 0.457615 0.329474
O O9 0.849867 0.566405 0.258998
O O10 0.004193 0.504193 0.223666
O O11 0.962452 0.676092 0.206616
O O12 0.262916 0.443104 0.499169
O O13 0.341453 0.333274 0.566207
O O14 0.161826 0.353530 0.556346
O O15 0.039316 0.539316 0.691757
O O16 0.891287 0.250000 0.750000
O O17 0.859443 0.140558 0.678390
#
# Coordination Sequence:
#
# PCOD8317232 Si02
#       7
#    16  16  16  16  16  16  16
#     4  11  21  35  56  83 117 154 191 234 284 347
#     4  11  21  35  57  83 113 147 188 244 301 350
#     4   9  19  35  54  79 113 149 187 236 287 340
#     4   9  18  35  59  83 107 140 189 244 290 344
#     4  10  20  36  54  77 114 152 191 236 283 349
#     4   9  18  36  59  80 109 146 186 237 293 342
#     4  11  21  35  55  81 114 153 193 230 279 343
#
# _framework density 19.471836
#
# number of rings (size 3 to 8) (size 9 to 14) (size 15 to 20)
#    0.000    2.000    2.857    2.571    0.000    1.286 
#    0.000    4.286    0.000    2.571    0.000    0.000 
#    0.000    0.000    0.000    0.000    0.000    0.000 
#
# Total GULP energy -1387719.408965 kJ/mol
# GULP energy per Si atom -12390.351866 kJ/mol
# Density = 1.942752 g / cm^3
# Si number density = 19.471836 Si / 1000 Ang^3
#
#
#
# Elastic Constant Matrix: (Units=GPa)
#
#
# Indices 1 2 3 4 5 6 
#
# 1 61.8253 17.3726 29.8890 0.0000 0.0000 0.0000
# 2 17.3726 61.8253 29.8890 0.0000 0.0000 0.0000
# 3 29.8890 29.8890 89.0339 0.0000 0.0000 0.0000
# 4 0.0000 0.0000 0.0000 27.0833 0.0000 0.0000
# 5 0.0000 0.0000 0.0000 0.0000 27.0833 0.0000
# 6 0.0000 0.0000 0.0000 0.0000 0.0000 34.2928
#
#
#
# Elastic Compliance Matrix: (Units=1/GPa)
#
#
# Indices 1 2 3 4 5 6 
#
# 1 0.019704 -0.002792 -0.005677 0.000000 0.000000 0.000000
# 2 -0.002792 0.019704 -0.005677 0.000000 0.000000 0.000000
# 3 -0.005677 -0.005677 0.015043 0.000000 0.000000 0.000000
# 4 0.000000 0.000000 0.000000 0.036923 0.000000 0.000000
# 5 0.000000 0.000000 0.000000 0.000000 0.036923 0.000000
# 6 0.000000 0.000000 0.000000 0.000000 0.000000 0.029161
#
#
# Mechanical properties :
#
#
# Convention : Reuss Voigt Hill
#
# Bulk Modulus (GPa) = 38.22965 40.77619 39.50292
# Shear Modulus (GPa) = 25.71083 26.72748 26.21916
#
# Velocity S-wave (km/s) = 3.63769 3.70891 3.67347
# Velocity P-wave (km/s) = 6.10898 6.27120 6.19062
#
# Compressibility (1/GPa) = 0.02615771
#
# Stress axis : x y z
#
# Youngs Moduli (GPa) = 50.75157 50.75157 66.47398
#
# Poissons Ratio (x) = 0.14170 0.37740
# Poissons Ratio (y) = 0.14170 0.37740
# Poissons Ratio (z) = 0.28813 0.28813
#
# Static dielectric constant tensor:
#      x y z
#    x 3.346920 0.000000 0.000000 
#    y 0.000000 3.346920 0.000000 
#    z 0.000000 0.000000 3.627560 
# 
# 
# High freq. dielectric constant tensor:
#      x y z
#    x 1.739160 0.000000 0.000000 
#    y 0.000000 1.739160 0.000000 
#    z 0.000000 0.000000 1.759070 
# 
# From -- ./inp_files/10870.got.cif
#   From: 2010.03.12/outbox.cif.g09.slc.cpg/sg134_6_cif.got.tgz:10870.got - 2010.04.06 18:17:22.
