data_PCOD8317309
_publ_section_title
;
Structure prediction by ZEFSAII (Michael W. Deem and Ramdas Pophale) SiO2 
 PCOD8317309
Probable space group: P 42/N N M
;
_chemical_formula_sum "Si O2"
_cell_formula_units_Z 64
_cell_length_a 10.664668
_cell_length_b 10.664668
_cell_length_c 27.468623
_cell_angle_alpha 90.000000
_cell_angle_beta 90.000000
_cell_angle_gamma 90.000000
_cell_volume 3124.147780
_symmetry_space_group_name_H-M "P 42/N N M"
_symmetry_group_IT_number 134
_space_group.IT_coordinate_system_code '2'
_symmetry_cell_setting 'tetragonal'
loop_
_space_group_symop_operation_xyz
x,y,z
1/2-y,x,1/2+z
1/2-x,1/2-y,z
y,1/2-x,1/2+z
x,1/2-y,1/2-z
1/2-x,y,1/2-z
y,x,-z
1/2-y,1/2-x,-z
-x,-y,-z
1/2+y,-x,1/2-z
1/2+x,1/2+y,-z
-y,1/2+x,1/2-z
-x,1/2+y,1/2+z
1/2+x,-y,1/2+z
-y,-x,z
1/2+y,1/2+x,z
loop_
_atom_site_type_symbol
_atom_site_label
_atom_site_fract_x
_atom_site_fract_y
_atom_site_fract_z
Si Si1 0.256174 0.954227 0.304609
Si Si2 0.982976 0.680344 0.567848
Si Si3 0.080694 0.113110 0.616849
Si Si4 0.280775 0.522257 0.038612
O O1 0.250000 0.009346 0.250000
O O2 0.155623 0.844378 0.310600
O O3 0.394066 0.894066 0.315562
O O4 0.223173 0.066548 0.342295
O O5 0.923136 0.774872 0.607244
O O6 0.876592 0.586632 0.551424
O O7 0.102781 0.602781 0.589293
O O8 0.024247 0.753681 0.518778
O O9 0.005945 0.156045 0.568578
O O10 0.013529 0.986472 0.635491
O O11 0.343800 0.656201 0.052663
#
# Coordination Sequence:
#
# PCOD8317309 Si02
#       4
#    16  16  16  16
#     4   8  15  29  47  68  98 131 159 198 259 320
#     4   9  19  34  48  64  95 141 179 203 237 291
#     4  11  20  28  46  76 102 126 162 209 259 308
#     4   9  18  33  50  66  91 133 179 214 245 287
#
# _framework density 20.485588
#
# number of rings (size 3 to 8) (size 9 to 14) (size 15 to 20)
#    0.000    2.750    0.000    4.500    0.000    6.000 
#    0.000    2.500    0.000    3.000    0.000    0.000 
#    0.000    0.000    0.000   27.500    0.000   14.500 
#
# Total GULP energy -792916.059181 kJ/mol
# GULP energy per Si atom -12389.313425 kJ/mol
# Density = 2.043896 g / cm^3
# Si number density = 20.485588 Si / 1000 Ang^3
#
#
#
# Elastic Constant Matrix: (Units=GPa)
#
#
# Indices 1 2 3 4 5 6 
#
# 1 69.4238 61.4602 46.0439 0.0000 0.0000 0.0000
# 2 61.4602 69.4238 46.0439 0.0000 0.0000 0.0000
# 3 46.0439 46.0439 102.4605 0.0000 0.0000 0.0000
# 4 0.0000 0.0000 0.0000 23.4379 0.0000 0.0000
# 5 0.0000 0.0000 0.0000 0.0000 23.4379 0.0000
# 6 0.0000 0.0000 0.0000 0.0000 0.0000 32.1825
#
#
#
# Elastic Compliance Matrix: (Units=1/GPa)
#
#
# Indices 1 2 3 4 5 6 
#
# 1 0.068373 -0.057200 -0.005021 0.000000 0.000000 0.000000
# 2 -0.057200 0.068373 -0.005021 0.000000 0.000000 0.000000
# 3 -0.005021 -0.005021 0.014273 0.000000 0.000000 0.000000
# 4 0.000000 0.000000 0.000000 0.042666 0.000000 0.000000
# 5 0.000000 0.000000 0.000000 0.000000 0.042666 0.000000
# 6 0.000000 0.000000 0.000000 0.000000 0.000000 0.031073
#
#
# Mechanical properties :
#
#
# Convention : Reuss Voigt Hill
#
# Bulk Modulus (GPa) = 60.47877 60.93380 60.70628
# Shear Modulus (GPa) = 12.27241 21.66233 16.96737
#
# Velocity S-wave (km/s) = 2.45026 3.25536 2.88107
# Velocity P-wave (km/s) = 6.13121 6.62866 6.38478
#
# Compressibility (1/GPa) = 0.01653473
#
# Stress axis : x y z
#
# Youngs Moduli (GPa) = 14.62569 14.62569 70.06481
#
# Poissons Ratio (x) = 0.83659 0.35179
# Poissons Ratio (y) = 0.83659 0.35179
# Poissons Ratio (z) = 0.07343 0.07343
#
# Static dielectric constant tensor:
#      x y z
#    x 3.686490 0.000000 0.000000 
#    y 0.000000 3.686490 0.000000 
#    z 0.000000 0.000000 3.885020 
# 
# 
# High freq. dielectric constant tensor:
#      x y z
#    x 1.785740 0.000000 0.000000 
#    y 0.000000 1.785740 0.000000 
#    z 0.000000 0.000000 1.770980 
# 
# From -- ./inp_files/10520.got.cif
#   From: 2010.03.12/outbox.cif.g09.slc.cpg/sg134_6_cif.got.tgz:10520.got - 2010.04.06 18:17:22.
