data_PCOD8317375
_publ_section_title
;
Structure prediction by ZEFSAII (Michael W. Deem and Ramdas Pophale) SiO2 
 PCOD8317375
Probable space group: P 42/M B C
;
_chemical_formula_sum "Si O2"
_cell_formula_units_Z 112
_cell_length_a 14.396516
_cell_length_b 14.396516
_cell_length_c 30.624086
_cell_angle_alpha 90.000000
_cell_angle_beta 90.000000
_cell_angle_gamma 90.000000
_cell_volume 6347.138048
_symmetry_space_group_name_H-M "P 42/M B C"
_symmetry_group_IT_number 135
_symmetry_cell_setting 'tetragonal'
loop_
_space_group_symop_operation_xyz
x,y,z
-y,x,1/2+z
-x,-y,z
y,-x,1/2+z
1/2+x,1/2-y,-z
1/2-x,1/2+y,-z
1/2+y,1/2+x,1/2-z
1/2-y,1/2-x,1/2-z
-x,-y,-z
y,-x,1/2-z
x,y,-z
-y,x,1/2-z
1/2-x,1/2+y,z
1/2+x,1/2-y,z
1/2-y,1/2-x,1/2+z
1/2+y,1/2+x,1/2+z
loop_
_atom_site_type_symbol
_atom_site_label
_atom_site_fract_x
_atom_site_fract_y
_atom_site_fract_z
Si Si1 0.637506 0.258753 0.550732
Si Si2 0.699210 0.466683 0.342567
Si Si3 0.596302 0.530683 0.102896
Si Si4 0.941530 0.140293 0.249687
Si Si5 0.690659 0.828443 0.396487
Si Si6 0.392374 0.011087 0.051279
Si Si7 0.167537 0.133608 0.841146
O O1 0.657326 0.262593 0.500000
O O2 0.572528 0.344127 0.563907
O O3 0.736545 0.272986 0.573376
O O4 0.584567 0.162322 0.563160
O O5 0.599526 0.429193 0.357746
O O6 0.709190 0.433725 0.292103
O O7 0.775536 0.426299 0.375942
O O8 0.702570 0.578877 0.343656
O O9 0.500000 0.500000 0.080360
O O10 0.653288 0.448232 0.124376
O O11 0.901106 0.189225 0.292451
O O12 0.047741 0.116306 0.259817
O O13 0.596604 0.847296 0.422716
O O14 0.682757 0.761898 0.354886
O O15 0.500000 0.000000 0.064600
O O16 0.382484 0.033216 0.000000
#
# Coordination Sequence:
#
# PCOD8317375 Si02
#       7
#    16  16  16  16  16  16  16
#     4  10  21  37  56  79 109 142 184 235 279 328
#     4   9  19  31  50  81 109 138 178 225 271 328
#     4   9  16  32  52  77 106 131 171 221 281 327
#     4   9  15  28  52  78 107 140 179 222 278 333
#     4  11  22  35  57  80 113 142 186 233 280 329
#     4  10  22  40  60  79 106 150 193 224 273 344
#     4  10  18  31  53  78 106 144 179 224 275 323
#
# _framework density 17.645748000000001
#
# number of rings (size 3 to 8) (size 9 to 14) (size 15 to 20)
#    0.000    2.286    2.857    0.429    2.000    0.857 
#    0.000    0.000    0.000    0.000    0.000    1.000 
#    0.000    0.000    0.000    0.000    0.000    0.000 
#
# Total GULP energy -1388121.205082 kJ/mol
# GULP energy per Si atom -12393.939331 kJ/mol
# Density = 1.760559 g / cm^3
# Si number density = 17.645748 Si / 1000 Ang^3
#
#
#
# Elastic Constant Matrix: (Units=GPa)
#
#
# Indices 1 2 3 4 5 6 
#
# 1 78.1373 30.1901 42.4271 0.0000 0.0000 0.0000
# 2 30.1901 78.1373 42.4271 0.0000 0.0000 0.0000
# 3 42.4271 42.4271 87.2979 0.0000 0.0000 0.0000
# 4 0.0000 0.0000 0.0000 21.6416 0.0000 0.0000
# 5 0.0000 0.0000 0.0000 0.0000 21.6416 0.0000
# 6 0.0000 0.0000 0.0000 0.0000 0.0000 20.7966
#
#
#
# Elastic Compliance Matrix: (Units=1/GPa)
#
#
# Indices 1 2 3 4 5 6 
#
# 1 0.017881 -0.002975 -0.007244 0.000000 0.000000 0.000000
# 2 -0.002975 0.017881 -0.007244 0.000000 0.000000 0.000000
# 3 -0.007244 -0.007244 0.018497 0.000000 0.000000 0.000000
# 4 0.000000 0.000000 0.000000 0.046207 0.000000 0.000000
# 5 0.000000 0.000000 0.000000 0.000000 0.046207 0.000000
# 6 0.000000 0.000000 0.000000 0.000000 0.000000 0.048085
#
#
# Mechanical properties :
#
#
# Convention : Reuss Voigt Hill
#
# Bulk Modulus (GPa) = 51.73030 52.62900 52.17965
# Shear Modulus (GPa) = 21.17483 21.38449 21.27966
#
# Velocity S-wave (km/s) = 3.46785 3.48498 3.47643
# Velocity P-wave (km/s) = 6.73902 6.78848 6.76380
#
# Compressibility (1/GPa) = 0.01933103
#
# Stress axis : x y z
#
# Youngs Moduli (GPa) = 55.92510 55.92510 54.06420
#
# Poissons Ratio (x) = 0.16639 0.39166
# Poissons Ratio (y) = 0.16639 0.39166
# Poissons Ratio (z) = 0.40514 0.40514
#
# Static dielectric constant tensor:
#      x y z
#    x 3.263300 0.000000 0.000000 
#    y 0.000000 3.263300 0.000000 
#    z 0.000000 0.000000 3.346660 
# 
# 
# High freq. dielectric constant tensor:
#      x y z
#    x 1.670690 0.000000 0.000000 
#    y 0.000000 1.670690 0.000000 
#    z 0.000000 0.000000 1.686160 
# 
# From -- ./inp_files/6867.got.cif
#   From: 2010.03.12/outbox.cif.g09.slc.cpg/sg135_4_cif.got.tgz:6867.got - 2010.04.06 18:31:24.
