data_PCOD8317550
_publ_section_title
;
Structure prediction by ZEFSAII (Michael W. Deem and Ramdas Pophale) SiO2 
 PCOD8317550
Probable space group: P 42/M B C
;
_chemical_formula_sum "Si O2"
_cell_formula_units_Z 96
_cell_length_a 23.814229
_cell_length_b 23.814229
_cell_length_c 8.767982
_cell_angle_alpha 90.000000
_cell_angle_beta 90.000000
_cell_angle_gamma 90.000000
_cell_volume 4972.476057
_symmetry_space_group_name_H-M "P 42/M B C"
_symmetry_group_IT_number 135
_symmetry_cell_setting 'tetragonal'
loop_
_space_group_symop_operation_xyz
x,y,z
-y,x,1/2+z
-x,-y,z
y,-x,1/2+z
1/2+x,1/2-y,-z
1/2-x,1/2+y,-z
1/2+y,1/2+x,1/2-z
1/2-y,1/2-x,1/2-z
-x,-y,-z
y,-x,1/2-z
x,y,-z
-y,x,1/2-z
1/2-x,1/2+y,z
1/2+x,1/2-y,z
1/2-y,1/2-x,1/2+z
1/2+y,1/2+x,1/2+z
loop_
_atom_site_type_symbol
_atom_site_label
_atom_site_fract_x
_atom_site_fract_y
_atom_site_fract_z
Si Si1 0.489096 0.797210 0.322310
Si Si2 0.693322 0.725041 0.820503
Si Si3 0.501210 0.084116 0.180625
Si Si4 0.575637 0.699936 0.322488
Si Si5 0.363376 0.783186 0.678439
Si Si6 0.420831 0.528487 0.180759
O O1 0.491709 0.813765 0.500000
O O2 0.505305 0.850944 0.222768
O O3 0.530206 0.746776 0.281461
O O4 0.427748 0.774977 0.274888
O O5 0.717194 0.782806 0.750000
O O6 0.630140 0.714846 0.772377
O O7 0.730355 0.672511 0.759856
O O8 0.696274 0.730891 0.000000
O O9 0.448108 0.051893 0.250000
O O10 0.558753 0.058753 0.250000
O O11 0.501970 0.076366 0.000000
O O12 0.590851 0.699856 0.500000
O O13 0.551940 0.639704 0.271284
O O14 0.340946 0.840946 0.750000
O O15 0.355922 0.788599 0.500000
O O16 0.467774 0.571492 0.241533
O O17 0.426600 0.521347 0.000000
#
# Coordination Sequence:
#
# PCOD8317550 Si02
#       6
#    16  16  16  16  16  16
#     4  10  21  38  57  82 116 150 187 233 285 338
#     4  10  21  38  61  84 113 151 193 237 284 343
#     4  11  22  38  60  86 115 151 192 234 284 339
#     4  10  23  39  58  85 118 156 195 239 291 344
#     4   9  19  35  58  84 110 145 183 229 283 332
#     4  10  21  38  61  87 117 154 195 244 297 353
#
# _framework density 19.306277000000001
#
# number of rings (size 3 to 8) (size 9 to 14) (size 15 to 20)
#    0.000    2.000    0.000    4.000    2.333    5.333 
#    0.000    0.000    0.000    0.000    0.000    0.000 
#    0.000    0.000    0.000    0.000    0.000    0.000 
#
# Total GULP energy -1190731.101458 kJ/mol
# GULP energy per Si atom -12403.448974 kJ/mol
# Density = 1.926233 g / cm^3
# Si number density = 19.306277 Si / 1000 Ang^3
#
#
#
# Elastic Constant Matrix: (Units=GPa)
#
#
# Indices 1 2 3 4 5 6 
#
# 1 144.1618 71.9773 51.1975 0.0000 0.0000 0.0000
# 2 71.9773 144.1582 51.1962 0.0000 0.0000 0.0000
# 3 51.1975 51.1962 78.0057 0.0000 0.0000 0.0000
# 4 0.0000 0.0000 0.0000 31.1553 0.0000 0.0000
# 5 0.0000 0.0000 0.0000 0.0000 31.1556 0.0000
# 6 0.0000 0.0000 0.0000 0.0000 0.0000 25.3455
#
#
#
# Elastic Compliance Matrix: (Units=1/GPa)
#
#
# Indices 1 2 3 4 5 6 
#
# 1 0.010284 -0.003570 -0.004407 0.000000 0.000000 0.000000
# 2 -0.003570 0.010284 -0.004407 0.000000 0.000000 0.000000
# 3 -0.004407 -0.004407 0.018604 0.000000 0.000000 0.000000
# 4 0.000000 0.000000 0.000000 0.032097 0.000000 0.000000
# 5 0.000000 0.000000 0.000000 0.000000 0.032097 0.000000
# 6 0.000000 0.000000 0.000000 0.000000 0.000000 0.039455
#
#
# Mechanical properties :
#
#
# Convention : Reuss Voigt Hill
#
# Bulk Modulus (GPa) = 69.41691 79.45196 74.43443
# Shear Modulus (GPa) = 29.00406 30.32826 29.66616
#
# Velocity S-wave (km/s) = 3.88017 3.96776 3.92421
# Velocity P-wave (km/s) = 7.49053 7.88883 7.69226
#
# Compressibility (1/GPa) = 0.01440571
#
# Stress axis : x y z
#
# Youngs Moduli (GPa) = 97.23870 97.23705 53.75156
#
# Poissons Ratio (x) = 0.34711 0.23687
# Poissons Ratio (y) = 0.34711 0.23687
# Poissons Ratio (z) = 0.42852 0.42850
#
# Static dielectric constant tensor:
#      x y z
#    x 3.672000 0.000000 0.000000 
#    y 0.000000 3.672020 0.000000 
#    z 0.000000 0.000000 3.485080 
# 
# 
# High freq. dielectric constant tensor:
#      x y z
#    x 1.756580 0.000000 0.000000 
#    y 0.000000 1.756580 0.000000 
#    z 0.000000 0.000000 1.752380 
# 
# From -- ./inp_files/1207.got.cif
#   From: 2010.03.12/outbox.cif.g09.slc.cpg/sg135_1_cif.got.tgz:1207.got - 2010.04.06 18:31:24.
