data_PCOD8317951
_publ_section_title
;
Structure prediction by ZEFSAII (Michael W. Deem and Ramdas Pophale) SiO2 
 PCOD8317951
Probable space group: P 42/M N M
;
_chemical_formula_sum "Si O2"
_cell_formula_units_Z 120
_cell_length_a 26.913878
_cell_length_b 26.913878
_cell_length_c 8.688772
_cell_angle_alpha 90.000000
_cell_angle_beta 90.000000
_cell_angle_gamma 90.000000
_cell_volume 6293.771334
_symmetry_space_group_name_H-M "P 42/M N M"
_symmetry_group_IT_number 136
_symmetry_cell_setting 'tetragonal'
loop_
_space_group_symop_operation_xyz
x,y,z
1/2-y,1/2+x,1/2+z
-x,-y,z
1/2+y,1/2-x,1/2+z
1/2+x,1/2-y,1/2-z
1/2-x,1/2+y,1/2-z
y,x,-z
-y,-x,-z
-x,-y,-z
1/2+y,1/2-x,1/2-z
x,y,-z
1/2-y,1/2+x,1/2-z
1/2-x,1/2+y,1/2+z
1/2+x,1/2-y,1/2+z
-y,-x,z
y,x,z
loop_
_atom_site_type_symbol
_atom_site_label
_atom_site_fract_x
_atom_site_fract_y
_atom_site_fract_z
Si Si1 0.459032 0.540969 0.171612
Si Si2 0.913538 0.701743 0.682596
Si Si3 0.304999 0.614219 0.317356
Si Si4 0.837457 0.241624 0.822901
Si Si5 0.303357 0.976485 0.328294
Si Si6 0.071903 0.802602 0.672459
Si Si7 0.159989 0.373379 0.182543
Si Si8 0.640694 0.485721 0.319457
O O1 0.500000 0.500000 0.150446
O O2 0.415710 0.519331 0.274570
O O3 0.441624 0.558377 0.000000
O O4 0.915521 0.708083 0.500000
O O5 0.884064 0.749326 0.749541
O O6 0.885516 0.651554 0.729451
O O7 0.969436 0.694843 0.754036
O O8 0.301470 0.615781 0.500000
O O9 0.338977 0.661024 0.260117
O O10 0.329536 0.562795 0.260004
O O11 0.783860 0.216141 0.795410
O O12 0.879807 0.201893 0.779153
O O13 0.842206 0.290072 0.716958
O O14 0.843901 0.257424 0.000000
O O15 0.323738 0.983973 0.500000
O O16 0.246985 0.960039 0.327447
O O17 0.335191 0.930685 0.254880
O O18 0.088996 0.816398 0.500000
O O19 0.036384 0.844372 0.737719
O O20 0.151630 0.372487 0.000000
O O21 0.648020 0.491496 0.500000
#
# Coordination Sequence:
#
# PCOD8317951 Si02
#       8
#     8  16  16  16  16  16  16  16
#     4  11  25  41  55  73 101 143 191 239 297 359
#     4  11  21  36  59  88 116 147 189 233 281 335
#     4  10  21  37  55  82 116 150 189 234 288 346
#     4  10  21  37  56  80 111 147 187 232 281 331
#     4   8  17  34  56  81 111 144 182 227 270 322
#     4  10  19  34  56  82 108 141 183 228 278 334
#     4  10  21  38  58  84 116 151 188 230 283 339
#     4  11  21  36  57  80 107 140 184 241 293 342
#
# _framework density 19.066469000000001
#
# number of rings (size 3 to 8) (size 9 to 14) (size 15 to 20)
#    0.000    1.933    2.000    3.000    0.000    3.467 
#    0.000    2.000    0.000    0.400    0.000    2.800 
#    0.000    0.000    0.000    0.000    0.000    0.000 
#
# Total GULP energy -1487470.434203 kJ/mol
# GULP energy per Si atom -12395.586952 kJ/mol
# Density = 1.902307 g / cm^3
# Si number density = 19.066469 Si / 1000 Ang^3
#
#
#
# Elastic Constant Matrix: (Units=GPa)
#
#
# Indices 1 2 3 4 5 6 
#
# 1 91.0006 23.9815 13.8579 0.0000 0.0000 0.0000
# 2 23.9815 90.9998 13.8575 0.0000 0.0000 0.0000
# 3 13.8579 13.8575 34.3161 0.0000 0.0000 0.0000
# 4 0.0000 0.0000 0.0000 29.2056 0.0000 0.0000
# 5 0.0000 0.0000 0.0000 0.0000 29.2057 0.0000
# 6 0.0000 0.0000 0.0000 0.0000 0.0000 33.0191
#
#
#
# Elastic Compliance Matrix: (Units=1/GPa)
#
#
# Indices 1 2 3 4 5 6 
#
# 1 0.012278 -0.002643 -0.003891 0.000000 0.000000 0.000000
# 2 -0.002643 0.012278 -0.003891 0.000000 0.000000 0.000000
# 3 -0.003891 -0.003891 0.032283 0.000000 0.000000 0.000000
# 4 0.000000 0.000000 0.000000 0.034240 0.000000 0.000000
# 5 0.000000 0.000000 0.000000 0.000000 0.034240 0.000000
# 6 0.000000 0.000000 0.000000 0.000000 0.000000 0.030286
#
#
# Mechanical properties :
#
#
# Convention : Reuss Voigt Hill
#
# Bulk Modulus (GPa) = 27.78567 35.52338 31.65452
# Shear Modulus (GPa) = 26.53210 29.26071 27.89640
#
# Velocity S-wave (km/s) = 3.73441 3.92173 3.82922
# Velocity P-wave (km/s) = 5.76186 6.25927 6.01571
#
# Compressibility (1/GPa) = 0.03598977
#
# Stress axis : x y z
#
# Youngs Moduli (GPa) = 81.44639 81.44597 30.97583
#
# Poissons Ratio (x) = 0.21528 0.12052
# Poissons Ratio (y) = 0.21528 0.12052
# Poissons Ratio (z) = 0.31690 0.31688
#
# Static dielectric constant tensor:
#      x y z
#    x 3.551350 0.000000 0.000000 
#    y 0.000000 3.551340 0.000000 
#    z 0.000000 0.000000 3.465840 
# 
# 
# High freq. dielectric constant tensor:
#      x y z
#    x 1.734590 0.000000 0.000000 
#    y 0.000000 1.734590 0.000000 
#    z 0.000000 0.000000 1.735500 
# 
# From -- ./inp_files/2336.got.cif
#   From: 2010.03.12/outbox.cif.g09.slc.cpg/sg136_2_cif.got.tgz:2336.got - 2010.04.06 18:39:43.
