data_PCOD8317673
_publ_section_title
;
Structure prediction by ZEFSAII (Michael W. Deem and Ramdas Pophale) SiO2 
 PCOD8317673
Probable space group: P 42/M N M
;
_chemical_formula_sum "Si O2"
_cell_formula_units_Z 96
_cell_length_a 13.617841
_cell_length_b 13.617841
_cell_length_c 30.545082
_cell_angle_alpha 90.000000
_cell_angle_beta 90.000000
_cell_angle_gamma 90.000000
_cell_volume 5664.450860
_symmetry_space_group_name_H-M "P 42/M N M"
_symmetry_group_IT_number 136
_symmetry_cell_setting 'tetragonal'
loop_
_space_group_symop_operation_xyz
x,y,z
1/2-y,1/2+x,1/2+z
-x,-y,z
1/2+y,1/2-x,1/2+z
1/2+x,1/2-y,1/2-z
1/2-x,1/2+y,1/2-z
y,x,-z
-y,-x,-z
-x,-y,-z
1/2+y,1/2-x,1/2-z
x,y,-z
1/2-y,1/2+x,1/2-z
1/2-x,1/2+y,1/2+z
1/2+x,1/2-y,1/2+z
-y,-x,z
y,x,z
loop_
_atom_site_type_symbol
_atom_site_label
_atom_site_fract_x
_atom_site_fract_y
_atom_site_fract_z
Si Si1 0.713733 0.128320 0.335534
Si Si2 0.120790 0.604750 0.248807
Si Si3 0.591532 0.252542 0.167196
Si Si4 0.606939 0.949875 0.091804
Si Si5 0.057853 0.602265 0.500000
Si Si6 0.147383 0.699627 0.908192
Si Si7 0.718724 0.870891 0.500000
O O1 0.791382 0.208619 0.351331
O O2 0.668370 0.160608 0.289192
O O3 0.628753 0.119264 0.370719
O O4 0.768895 0.024612 0.330686
O O5 0.131347 0.491260 0.262019
O O6 0.182534 0.630505 0.205852
O O7 0.641179 0.358822 0.172104
O O8 0.619530 0.203441 0.121162
O O9 0.500000 0.000000 0.095294
O O10 0.692438 0.030801 0.099628
O O11 0.621856 0.896848 0.044537
O O12 0.000000 0.500000 0.500000
O O13 0.988034 0.699840 0.500000
O O14 0.191285 0.808716 0.897863
O O15 0.164559 0.673438 0.958369
O O16 0.834059 0.834059 0.500000
#
# Coordination Sequence:
#
# PCOD8317673 Si02
#       7
#    16  16  16  16   8  16   8
#     4  11  22  33  49  74 102 133 167 208 249 295
#     4   9  18  31  52  75  97 124 166 210 253 293
#     4  10  19  32  48  69  99 134 167 203 247 297
#     4  11  18  32  53  72 101 131 167 211 253 296
#     4  10  16  28  47  74  97 134 163 206 257 298
#     4  10  18  28  48  76  99 125 161 205 254 298
#     4  10  16  24  40  72 106 122 152 206 258 300
#
# _framework density 16.947804000000001
#
# number of rings (size 3 to 8) (size 9 to 14) (size 15 to 20)
#    0.000    1.833    5.000    1.500    2.333    0.333 
#    0.000    0.417    0.000    0.500    0.000    0.000 
#    0.000   12.667    0.000    0.000    0.000    0.000 
#
# Total GULP energy -1190021.890257 kJ/mol
# GULP energy per Si atom -12396.061357 kJ/mol
# Density = 1.690923 g / cm^3
# Si number density = 16.947804 Si / 1000 Ang^3
#
#
#
# Elastic Constant Matrix: (Units=GPa)
#
#
# Indices 1 2 3 4 5 6 
#
# 1 75.8452 55.0034 35.9232 0.0000 0.0000 0.0000
# 2 55.0034 75.8452 35.9232 0.0000 0.0000 0.0000
# 3 35.9232 35.9232 102.7623 0.0000 0.0000 0.0000
# 4 0.0000 0.0000 0.0000 5.6023 0.0000 0.0000
# 5 0.0000 0.0000 0.0000 0.0000 5.6023 0.0000
# 6 0.0000 0.0000 0.0000 0.0000 0.0000 34.4690
#
#
#
# Elastic Compliance Matrix: (Units=1/GPa)
#
#
# Indices 1 2 3 4 5 6 
#
# 1 0.028719 -0.019261 -0.003306 0.000000 0.000000 0.000000
# 2 -0.019261 0.028719 -0.003306 0.000000 0.000000 0.000000
# 3 -0.003306 -0.003306 0.012043 0.000000 0.000000 0.000000
# 4 0.000000 0.000000 0.000000 0.178498 0.000000 0.000000
# 5 0.000000 0.000000 0.000000 0.000000 0.178498 0.000000
# 6 0.000000 0.000000 0.000000 0.000000 0.000000 0.029012
#
#
# Mechanical properties :
#
#
# Convention : Reuss Voigt Hill
#
# Bulk Modulus (GPa) = 56.39055 56.46138 56.42596
# Shear Modulus (GPa) = 9.74378 17.64157 13.69268
#
# Velocity S-wave (km/s) = 2.40037 3.22985 2.84550
# Velocity P-wave (km/s) = 6.40528 6.87724 6.64545
#
# Compressibility (1/GPa) = 0.01773347
#
# Stress axis : x y z
#
# Youngs Moduli (GPa) = 34.81997 34.81997 83.03751
#
# Poissons Ratio (x) = 0.67068 0.27454
# Poissons Ratio (y) = 0.67068 0.27454
# Poissons Ratio (z) = 0.11512 0.11512
#
# Static dielectric constant tensor:
#      x y z
#    x 3.140900 0.000000 0.000000 
#    y 0.000000 3.140900 0.000000 
#    z 0.000000 0.000000 3.514390 
# 
# 
# High freq. dielectric constant tensor:
#      x y z
#    x 1.627640 0.000000 0.000000 
#    y 0.000000 1.627640 0.000000 
#    z 0.000000 0.000000 1.677810 
# 
# From -- ./inp_files/9922.got.cif
#   From: 2010.03.12/outbox.cif.g09.slc.cpg/sg136_5_cif.got.tgz:9922.got - 2010.04.06 18:39:43.
