data_PCOD8317300
_publ_section_title
;
Structure prediction by ZEFSAII (Michael W. Deem and Ramdas Pophale) SiO2 
 PCOD8317300
Probable space group: P 42/N N M
;
_chemical_formula_sum "Si O2"
_cell_formula_units_Z 70
_cell_length_a 14.109567
_cell_length_b 14.109567
_cell_length_c 18.664472
_cell_angle_alpha 90.000000
_cell_angle_beta 90.000000
_cell_angle_gamma 90.000000
_cell_volume 3715.720863
_symmetry_space_group_name_H-M "P 42/N N M"
_symmetry_group_IT_number 134
_space_group.IT_coordinate_system_code '2'
_symmetry_cell_setting 'tetragonal'
loop_
_space_group_symop_operation_xyz
x,y,z
1/2-y,x,1/2+z
1/2-x,1/2-y,z
y,1/2-x,1/2+z
x,1/2-y,1/2-z
1/2-x,y,1/2-z
y,x,-z
1/2-y,1/2-x,-z
-x,-y,-z
1/2+y,-x,1/2-z
1/2+x,1/2+y,-z
-y,1/2+x,1/2-z
-x,1/2+y,1/2+z
1/2+x,-y,1/2+z
-y,-x,z
1/2+y,1/2+x,z
loop_
_atom_site_type_symbol
_atom_site_label
_atom_site_fract_x
_atom_site_fract_y
_atom_site_fract_z
Si Si1 0.750000 0.750000 0.500000
Si Si2 0.620685 0.379316 0.348295
Si Si3 0.840019 0.009437 0.800249
Si Si4 0.213576 0.067527 0.410690
Si Si5 0.077998 0.922003 0.489991
Si Si6 0.150788 0.416510 0.787930
Si Si7 0.250000 0.750000 0.750000
O O1 0.749153 0.850943 0.538265
O O2 0.621124 0.378876 0.435850
O O3 0.518260 0.346211 0.323621
O O4 0.690756 0.309245 0.307650
O O5 0.750000 0.020947 0.750000
O O6 0.889825 0.110176 0.804407
O O7 0.807468 0.979901 0.878971
O O8 0.913081 0.930479 0.771893
O O9 0.156231 0.124199 0.350153
O O10 0.158745 0.978305 0.446107
O O11 0.000000 0.000000 0.500000
O O12 0.250000 0.389715 0.750000
#
# Coordination Sequence:
#
# PCOD8317300 Si02
#       7
#     4   8  16  16   8  16   2
#     4  12  20  38  60  92 112 158 200 276 300 366
#     4  12  22  40  66  91 126 165 213 260 323 383
#     4  10  23  39  60  91 125 159 205 257 315 368
#     4  11  23  39  63  89 128 160 219 255 315 387
#     4  12  22  42  66  86 120 181 211 256 320 405
#     4  11  20  37  65  94 123 166 207 265 319 369
#     4  12  28  44  60 104 124 160 218 276 328 408
#
# _framework density 18.838873
#
# number of rings (size 3 to 8) (size 9 to 14) (size 15 to 20)
#    0.000    0.914    5.714    1.371    4.800    3.429 
#    2.057    0.571    0.000    0.000    0.000    0.000 
#    0.000    0.000    0.000    0.000    0.000    0.000 
#
# Total GULP energy -867361.220816 kJ/mol
# GULP energy per Si atom -12390.874583 kJ/mol
# Density = 1.879600 g / cm^3
# Si number density = 18.838873 Si / 1000 Ang^3
#
#
#
# Elastic Constant Matrix: (Units=GPa)
#
#
# Indices 1 2 3 4 5 6 
#
# 1 91.4432 60.3469 54.7016 0.0000 0.0000 0.0000
# 2 60.3469 91.4432 54.7016 0.0000 0.0000 0.0000
# 3 54.7016 54.7016 124.7250 0.0000 0.0000 0.0000
# 4 0.0000 0.0000 0.0000 25.3861 0.0000 0.0000
# 5 0.0000 0.0000 0.0000 0.0000 25.3861 0.0000
# 6 0.0000 0.0000 0.0000 0.0000 0.0000 39.6789
#
#
#
# Elastic Compliance Matrix: (Units=1/GPa)
#
#
# Indices 1 2 3 4 5 6 
#
# 1 0.020896 -0.011263 -0.004225 0.000000 0.000000 0.000000
# 2 -0.011263 0.020896 -0.004225 0.000000 0.000000 0.000000
# 3 -0.004225 -0.004225 0.011724 0.000000 0.000000 0.000000
# 4 0.000000 0.000000 0.000000 0.039392 0.000000 0.000000
# 5 0.000000 0.000000 0.000000 0.000000 0.039392 0.000000
# 6 0.000000 0.000000 0.000000 0.000000 0.000000 0.025202
#
#
# Mechanical properties :
#
#
# Convention : Reuss Voigt Hill
#
# Bulk Modulus (GPa) = 70.97095 71.90131 71.43613
# Shear Modulus (GPa) = 24.79890 27.28095 26.03992
#
# Velocity S-wave (km/s) = 3.63212 3.80955 3.72189
# Velocity P-wave (km/s) = 7.43936 7.58943 7.51477
#
# Compressibility (1/GPa) = 0.01409027
#
# Stress axis : x y z
#
# Youngs Moduli (GPa) = 47.85683 47.85683 85.29860
#
# Poissons Ratio (x) = 0.53899 0.36038
# Poissons Ratio (y) = 0.53899 0.36038
# Poissons Ratio (z) = 0.20219 0.20219
#
# Static dielectric constant tensor:
#      x y z
#    x 3.594330 0.000000 0.000000 
#    y 0.000000 3.594330 0.000000 
#    z 0.000000 0.000000 4.077110 
# 
# 
# High freq. dielectric constant tensor:
#      x y z
#    x 1.735950 0.000000 0.000000 
#    y 0.000000 1.735950 0.000000 
#    z 0.000000 0.000000 1.737280 
# 
# From -- ./inp_files/7718.got.cif
#   From: 2010.03.12/outbox.cif.g09.slc.cpg/sg134_4_cif.got.tgz:7718.got - 2010.04.06 18:17:22.
