data_PCOD8317641
_publ_section_title
;
Structure prediction by ZEFSAII (Michael W. Deem and Ramdas Pophale) SiO2 
 PCOD8317641
Probable space group: P 42/M B C
;
_chemical_formula_sum "Si O2"
_cell_formula_units_Z 88
_cell_length_a 11.898571
_cell_length_b 11.898571
_cell_length_c 26.520524
_cell_angle_alpha 90.000000
_cell_angle_beta 90.000000
_cell_angle_gamma 90.000000
_cell_volume 3754.669489
_symmetry_space_group_name_H-M "P 42/M B C"
_symmetry_group_IT_number 135
_symmetry_cell_setting 'tetragonal'
loop_
_space_group_symop_operation_xyz
x,y,z
-y,x,1/2+z
-x,-y,z
y,-x,1/2+z
1/2+x,1/2-y,-z
1/2-x,1/2+y,-z
1/2+y,1/2+x,1/2-z
1/2-y,1/2-x,1/2-z
-x,-y,-z
y,-x,1/2-z
x,y,-z
-y,x,1/2-z
1/2-x,1/2+y,z
1/2+x,1/2-y,z
1/2-y,1/2-x,1/2+z
1/2+y,1/2+x,1/2+z
loop_
_atom_site_type_symbol
_atom_site_label
_atom_site_fract_x
_atom_site_fract_y
_atom_site_fract_z
Si Si1 0.463066 0.383430 0.411290
Si Si2 0.000000 0.500000 0.082281
Si Si3 0.381587 0.687808 0.181067
Si Si4 0.204855 0.404132 0.142672
Si Si5 0.174828 0.554278 0.500000
Si Si6 0.278142 0.044743 0.757778
Si Si7 0.313028 0.312061 0.500000
O O1 0.500000 0.500000 0.437793
O O2 0.401388 0.420945 0.360023
O O3 0.568981 0.307372 0.395023
O O4 0.387860 0.313860 0.449928
O O5 0.091626 0.445861 0.117817
O O6 0.055943 0.597850 0.049270
O O7 0.298397 0.770886 0.150842
O O8 0.317473 0.634327 0.228474
O O9 0.489767 0.749119 0.204000
O O10 0.215131 0.455686 0.197841
O O11 0.239173 0.429872 0.500000
O O12 0.239962 0.680387 0.500000
O O13 0.398013 0.101988 0.750000
#
# Coordination Sequence:
#
# PCOD8317641 Si02
#       7
#    16   8  16  16   8  16   8
#     4  11  27  46  74 104 150 192 246 320 385 465
#     4  11  22  46  73 104 148 202 251 311 384 460
#     4  11  26  42  69 104 141 195 243 308 378 456
#     4  11  23  44  70 101 145 192 254 302 381 455
#     4  11  26  44  80 110 155 202 255 326 389 473
#     4  11  24  40  66  99 144 185 248 301 368 442
#     4  12  25  52  72 120 147 202 262 316 401 471
#
# _framework density 23.437481999999999
#
# number of rings (size 3 to 8) (size 9 to 14) (size 15 to 20)
#    0.000    0.909    1.818    4.091    7.636    3.636 
#    0.000    0.000    0.000    0.000    0.000    0.000 
#    0.000    0.000    0.000    0.000    0.000    0.000 
#
# Total GULP energy -1090585.265519 kJ/mol
# GULP energy per Si atom -12393.014381 kJ/mol
# Density = 2.338414 g / cm^3
# Si number density = 23.437482 Si / 1000 Ang^3
#
#
#
# Elastic Constant Matrix: (Units=GPa)
#
#
# Indices 1 2 3 4 5 6 
#
# 1 111.8948 36.5978 23.0354 0.0000 0.0000 0.0000
# 2 36.5978 111.8955 23.0361 0.0000 0.0000 0.0000
# 3 23.0354 23.0361 92.7816 0.0000 0.0000 0.0000
# 4 0.0000 0.0000 0.0000 4.0238 0.0000 0.0000
# 5 0.0000 0.0000 0.0000 0.0000 4.0237 0.0000
# 6 0.0000 0.0000 0.0000 0.0000 0.0000 41.1670
#
#
#
# Elastic Compliance Matrix: (Units=1/GPa)
#
#
# Indices 1 2 3 4 5 6 
#
# 1 0.010289 -0.002992 -0.001811 0.000000 0.000000 0.000000
# 2 -0.002992 0.010289 -0.001812 0.000000 0.000000 0.000000
# 3 -0.001811 -0.001812 0.011678 0.000000 0.000000 0.000000
# 4 0.000000 0.000000 0.000000 0.248524 0.000000 0.000000
# 5 0.000000 0.000000 0.000000 0.000000 0.248526 0.000000
# 6 0.000000 0.000000 0.000000 0.000000 0.000000 0.024291
#
#
# Mechanical properties :
#
#
# Convention : Reuss Voigt Hill
#
# Bulk Modulus (GPa) = 52.56483 53.54562 53.05523
# Shear Modulus (GPa) = 8.72345 25.43641 17.07993
#
# Velocity S-wave (km/s) = 1.93134 3.29794 2.70246
# Velocity P-wave (km/s) = 5.23926 6.11536 5.69418
#
# Compressibility (1/GPa) = 0.01902413
#
# Stress axis : x y z
#
# Youngs Moduli (GPa) = 97.19547 97.19576 85.63456
#
# Poissons Ratio (x) = 0.29082 0.15513
# Poissons Ratio (y) = 0.29082 0.15513
# Poissons Ratio (z) = 0.17607 0.17608
#
# Static dielectric constant tensor:
#      x y z
#    x 4.387430 0.000000 0.000000 
#    y 0.000000 4.387420 0.000000 
#    z 0.000000 0.000000 4.235490 
# 
# 
# High freq. dielectric constant tensor:
#      x y z
#    x 1.927690 0.000000 0.000000 
#    y 0.000000 1.927680 0.000000 
#    z 0.000000 0.000000 1.942420 
# 
# From -- ./inp_files/6811.got.cif
#   From: 2010.03.12/outbox.cif.g09.slc.cpg/sg135_4_cif.got.tgz:6811.got - 2010.04.06 18:31:24.
