data_PCOD8317970
_publ_section_title
;
Structure prediction by ZEFSAII (Michael W. Deem and Ramdas Pophale) SiO2 
 PCOD8317970
Probable space group: P 42/M N M
;
_chemical_formula_sum "Si O2"
_cell_formula_units_Z 72
_cell_length_a 13.318859
_cell_length_b 13.318859
_cell_length_c 19.626930
_cell_angle_alpha 90.000000
_cell_angle_beta 90.000000
_cell_angle_gamma 90.000000
_cell_volume 3481.660466
_symmetry_space_group_name_H-M "P 42/M N M"
_symmetry_group_IT_number 136
_symmetry_cell_setting 'tetragonal'
loop_
_space_group_symop_operation_xyz
x,y,z
1/2-y,1/2+x,1/2+z
-x,-y,z
1/2+y,1/2-x,1/2+z
1/2+x,1/2-y,1/2-z
1/2-x,1/2+y,1/2-z
y,x,-z
-y,-x,-z
-x,-y,-z
1/2+y,1/2-x,1/2-z
x,y,-z
1/2-y,1/2+x,1/2-z
1/2-x,1/2+y,1/2+z
1/2+x,1/2-y,1/2+z
-y,-x,z
y,x,z
loop_
_atom_site_type_symbol
_atom_site_label
_atom_site_fract_x
_atom_site_fract_y
_atom_site_fract_z
Si Si1 0.033450 0.692646 0.423031
Si Si2 0.745963 0.909073 0.924973
Si Si3 0.480275 0.850277 0.219468
Si Si4 0.995345 0.163042 0.197030
Si Si5 0.079314 0.920687 0.420397
O O1 0.985701 0.687281 0.500000
O O2 0.132129 0.625654 0.421743
O O3 0.964288 0.644993 0.363000
O O4 0.054700 0.806737 0.400057
O O5 0.811639 0.811639 0.907697
O O6 0.770294 0.997592 0.871796
O O7 0.771158 0.951408 0.000000
O O8 0.393525 0.911172 0.257803
O O9 0.479021 0.733740 0.239434
O O10 0.883472 0.116529 0.203279
O O11 0.073929 0.073929 0.195066
O O12 0.068358 0.931643 0.500000
O O13 0.000000 0.000000 0.385790
#
# Coordination Sequence:
#
# PCOD8317970 Si02
#       5
#    16  16  16  16   8
#     4  10  19  35  59  84 116 159 201 243 294 356
#     4   9  16  31  57  87 117 154 200 243 293 355
#     4  11  24  41  59  85 122 157 199 246 299 359
#     4  10  22  38  59  89 120 155 198 246 304 358
#     4   9  18  32  56  92 125 155 200 254 298 347
#
# _framework density 20.679786
#
# number of rings (size 3 to 8) (size 9 to 14) (size 15 to 20)
#    0.000    2.111    3.333    0.000    1.556    2.222 
#    0.000    5.556    0.000    0.000    0.000    0.000 
#    0.000    0.000    0.000    0.000    0.000    0.000 
#
# Total GULP energy -892261.262816 kJ/mol
# GULP energy per Si atom -12392.517539 kJ/mol
# Density = 2.063272 g / cm^3
# Si number density = 20.679786 Si / 1000 Ang^3
#
#
#
# Elastic Constant Matrix: (Units=GPa)
#
#
# Indices 1 2 3 4 5 6 
#
# 1 50.4392 10.2908 16.4345 0.0000 0.0000 0.0000
# 2 10.2908 50.4392 16.4345 0.0000 0.0000 0.0000
# 3 16.4345 16.4345 148.3981 0.0000 0.0000 0.0000
# 4 0.0000 0.0000 0.0000 25.9547 0.0000 0.0000
# 5 0.0000 0.0000 0.0000 0.0000 25.9547 0.0000
# 6 0.0000 0.0000 0.0000 0.0000 0.0000 23.2666
#
#
#
# Elastic Compliance Matrix: (Units=1/GPa)
#
#
# Indices 1 2 3 4 5 6 
#
# 1 0.021212 -0.003696 -0.001940 0.000000 0.000000 0.000000
# 2 -0.003696 0.021212 -0.001940 0.000000 0.000000 0.000000
# 3 -0.001940 -0.001940 0.007168 0.000000 0.000000 0.000000
# 4 0.000000 0.000000 0.000000 0.038529 0.000000 0.000000
# 5 0.000000 0.000000 0.000000 0.000000 0.038529 0.000000
# 6 0.000000 0.000000 0.000000 0.000000 0.000000 0.042980
#
#
# Mechanical properties :
#
#
# Convention : Reuss Voigt Hill
#
# Bulk Modulus (GPa) = 29.03487 37.28847 33.16167
# Shear Modulus (GPa) = 25.47629 28.77629 27.12629
#
# Velocity S-wave (km/s) = 3.51371 3.73435 3.62571
# Velocity P-wave (km/s) = 5.52560 6.05511 5.79640
#
# Compressibility (1/GPa) = 0.03444134
#
# Stress axis : x y z
#
# Youngs Moduli (GPa) = 47.14329 47.14332 139.50320
#
# Poissons Ratio (x) = 0.17423 0.27062
# Poissons Ratio (y) = 0.17423 0.27062
# Poissons Ratio (z) = 0.09145 0.09145
#
# Static dielectric constant tensor:
#      x y z
#    x 3.640680 0.000000 0.000000 
#    y 0.000000 3.640670 0.000000 
#    z 0.000000 0.000000 4.111490 
# 
# 
# High freq. dielectric constant tensor:
#      x y z
#    x 1.786760 0.000000 0.000000 
#    y 0.000000 1.786760 0.000000 
#    z 0.000000 0.000000 1.823800 
# 
# From -- ./inp_files/6056.got.cif
#   From: 2010.03.12/outbox.cif.g09.slc.cpg/sg136_4_cif.got.tgz:6056.got - 2010.04.06 18:39:43.
