data_PCOD8317451
_publ_section_title
;
Structure prediction by ZEFSAII (Michael W. Deem and Ramdas Pophale) SiO2 
 PCOD8317451
Probable space group: P 42/M B C
;
_chemical_formula_sum "Si O2"
_cell_formula_units_Z 88
_cell_length_a 14.791087
_cell_length_b 14.791087
_cell_length_c 21.430311
_cell_angle_alpha 90.000000
_cell_angle_beta 90.000000
_cell_angle_gamma 90.000000
_cell_volume 4688.443176
_symmetry_space_group_name_H-M "P 42/M B C"
_symmetry_group_IT_number 135
_symmetry_cell_setting 'tetragonal'
loop_
_space_group_symop_operation_xyz
x,y,z
-y,x,1/2+z
-x,-y,z
y,-x,1/2+z
1/2+x,1/2-y,-z
1/2-x,1/2+y,-z
1/2+y,1/2+x,1/2-z
1/2-y,1/2-x,1/2-z
-x,-y,-z
y,-x,1/2-z
x,y,-z
-y,x,1/2-z
1/2-x,1/2+y,z
1/2+x,1/2-y,z
1/2-y,1/2-x,1/2+z
1/2+y,1/2+x,1/2+z
loop_
_atom_site_type_symbol
_atom_site_label
_atom_site_fract_x
_atom_site_fract_y
_atom_site_fract_z
Si Si1 0.600578 0.303534 0.500000
Si Si2 0.546007 0.271588 0.870584
Si Si3 0.411149 0.403129 0.273648
Si Si4 0.394301 0.300633 0.500000
Si Si5 0.760914 0.743592 0.097895
Si Si6 0.499573 0.655779 0.000000
Si Si7 0.774624 0.380088 0.294455
O O1 0.497862 0.263480 0.500000
O O2 0.655699 0.270769 0.560214
O O3 0.593489 0.412168 0.500000
O O4 0.567012 0.370270 0.840323
O O5 0.639701 0.217226 0.876394
O O6 0.479614 0.216739 0.824370
O O7 0.499066 0.281337 0.938146
O O8 0.391344 0.480447 0.220962
O O9 0.365875 0.312016 0.249626
O O10 0.337288 0.267275 0.440632
O O11 0.403636 0.409178 0.500000
O O12 0.692739 0.765941 0.151949
O O13 0.861177 0.361177 0.250000
#
# Coordination Sequence:
#
# PCOD8317451 Si02
#       7
#     8  16  16   8  16   8  16
#     4  11  20  39  60  88 115 166 188 241 307 363
#     4  10  20  37  56  87 122 153 197 250 290 362
#     4   9  19  34  54  86 119 152 187 236 307 371
#     4   9  22  37  56  90 123 148 194 247 301 363
#     4  10  21  38  58  86 119 153 201 240 296 357
#     4  10  19  34  58  92 123 144 183 254 312 358
#     4  11  20  35  58  85 115 162 194 241 299 356
#
# _framework density 18.769556000000001
#
# number of rings (size 3 to 8) (size 9 to 14) (size 15 to 20)
#    0.000    2.000    3.636    0.818    0.000    2.909 
#   13.091    0.000    0.000    2.182    4.727    0.000 
#    0.000    0.000    0.000    0.000    0.000    0.000 
#
# Total GULP energy -1090657.302762 kJ/mol
# GULP energy per Si atom -12393.832986 kJ/mol
# Density = 1.872684 g / cm^3
# Si number density = 18.769556 Si / 1000 Ang^3
#
#
#
# Elastic Constant Matrix: (Units=GPa)
#
#
# Indices 1 2 3 4 5 6 
#
# 1 83.8221 30.2478 23.3144 0.0000 0.0000 0.0000
# 2 30.2478 83.8221 23.3144 0.0000 0.0000 0.0000
# 3 23.3144 23.3144 74.6445 0.0000 0.0000 0.0000
# 4 0.0000 0.0000 0.0000 20.4849 0.0000 0.0000
# 5 0.0000 0.0000 0.0000 0.0000 20.4849 0.0000
# 6 0.0000 0.0000 0.0000 0.0000 0.0000 22.1310
#
#
#
# Elastic Compliance Matrix: (Units=1/GPa)
#
#
# Indices 1 2 3 4 5 6 
#
# 1 0.014358 -0.004308 -0.003139 0.000000 0.000000 0.000000
# 2 -0.004308 0.014358 -0.003139 0.000000 0.000000 0.000000
# 3 -0.003139 -0.003139 0.015358 0.000000 0.000000 0.000000
# 4 0.000000 0.000000 0.000000 0.048817 0.000000 0.000000
# 5 0.000000 0.000000 0.000000 0.000000 0.048817 0.000000
# 6 0.000000 0.000000 0.000000 0.000000 0.000000 0.045185
#
#
# Mechanical properties :
#
#
# Convention : Reuss Voigt Hill
#
# Bulk Modulus (GPa) = 43.66557 44.00467 43.83512
# Shear Modulus (GPa) = 23.18067 23.64762 23.41415
#
# Velocity S-wave (km/s) = 3.51809 3.55335 3.53576
# Velocity P-wave (km/s) = 6.31008 6.35064 6.33039
#
# Compressibility (1/GPa) = 0.02290134
#
# Stress axis : x y z
#
# Youngs Moduli (GPa) = 69.64922 69.64922 65.11420
#
# Poissons Ratio (x) = 0.30005 0.20439
# Poissons Ratio (y) = 0.30005 0.20439
# Poissons Ratio (z) = 0.21862 0.21862
#
# Static dielectric constant tensor:
#      x y z
#    x 3.432560 0.000000 0.000000 
#    y 0.000000 3.432560 0.000000 
#    z 0.000000 0.000000 3.695440 
# 
# 
# High freq. dielectric constant tensor:
#      x y z
#    x 1.713170 0.000000 0.000000 
#    y 0.000000 1.713170 0.000000 
#    z 0.000000 0.000000 1.740210 
# 
# From -- ./inp_files/5367.got.cif
#   From: 2010.03.12/outbox.cif.g09.slc.cpg/sg135_3_cif.got.tgz:5367.got - 2010.04.06 18:31:24.
