data_PCOD8317394
_publ_section_title
;
Structure prediction by ZEFSAII (Michael W. Deem and Ramdas Pophale) SiO2 
 PCOD8317394
Probable space group: P 42/M B C
;
_chemical_formula_sum "Si O2"
_cell_formula_units_Z 64
_cell_length_a 19.581297
_cell_length_b 19.581297
_cell_length_c 9.114139
_cell_angle_alpha 90.000000
_cell_angle_beta 90.000000
_cell_angle_gamma 90.000000
_cell_volume 3494.608726
_symmetry_space_group_name_H-M "P 42/M B C"
_symmetry_group_IT_number 135
_symmetry_cell_setting 'tetragonal'
loop_
_space_group_symop_operation_xyz
x,y,z
-y,x,1/2+z
-x,-y,z
y,-x,1/2+z
1/2+x,1/2-y,-z
1/2-x,1/2+y,-z
1/2+y,1/2+x,1/2-z
1/2-y,1/2-x,1/2-z
-x,-y,-z
y,-x,1/2-z
x,y,-z
-y,x,1/2-z
1/2-x,1/2+y,z
1/2+x,1/2-y,z
1/2-y,1/2-x,1/2+z
1/2+y,1/2+x,1/2+z
loop_
_atom_site_type_symbol
_atom_site_label
_atom_site_fract_x
_atom_site_fract_y
_atom_site_fract_z
Si Si1 0.492656 0.247329 0.836847
Si Si2 0.356507 0.243111 0.670795
Si Si3 0.855031 0.743218 0.829482
Si Si4 0.409732 0.994054 0.661634
O O1 0.429924 0.268607 0.732268
O O2 0.568575 0.263243 0.771622
O O3 0.486262 0.167384 0.849395
O O4 0.483712 0.280297 0.000000
O O5 0.323345 0.176655 0.750000
O O6 0.363936 0.224626 0.500000
O O7 0.308477 0.307999 0.697332
O O8 0.822750 0.677251 0.750000
O O9 0.861534 0.723156 0.000000
O O10 0.446159 0.053842 0.750000
O O11 0.441205 0.986807 0.500000
O O12 0.423154 0.923154 0.750000
#
# Coordination Sequence:
#
# PCOD8317394 Si02
#       4
#    16  16  16  16
#     4  10  20  33  50  72  98 128 163 205 250 294
#     4  10  20  34  53  76 102 133 169 207 249 299
#     4   9  19  35  53  75 103 133 167 208 252 299
#     4  10  19  29  42  62  91 125 156 188 229 279
#
# _framework density 18.313925000000001
#
# number of rings (size 3 to 8) (size 9 to 14) (size 15 to 20)
#    0.000    2.250    0.000    3.750    0.000    6.000 
#    0.000    0.000    0.000    0.750    0.000    5.250 
#    0.000    0.000    0.000    0.000    0.000    0.000 
#
# Total GULP energy -792889.504460 kJ/mol
# GULP energy per Si atom -12388.898507 kJ/mol
# Density = 1.827224 g / cm^3
# Si number density = 18.313925 Si / 1000 Ang^3
#
#
#
# Elastic Constant Matrix: (Units=GPa)
#
#
# Indices 1 2 3 4 5 6 
#
# 1 99.3138 24.2150 38.8909 0.0000 0.0000 0.0000
# 2 24.2150 99.3139 38.8903 0.0000 0.0000 0.0000
# 3 38.8909 38.8903 103.4894 0.0000 0.0000 0.0000
# 4 0.0000 0.0000 0.0000 24.9103 0.0000 0.0000
# 5 0.0000 0.0000 0.0000 0.0000 24.9102 0.0000
# 6 0.0000 0.0000 0.0000 0.0000 0.0000 19.5100
#
#
#
# Elastic Compliance Matrix: (Units=1/GPa)
#
#
# Indices 1 2 3 4 5 6 
#
# 1 0.011960 -0.001356 -0.003985 0.000000 0.000000 0.000000
# 2 -0.001356 0.011960 -0.003985 0.000000 0.000000 0.000000
# 3 -0.003985 -0.003985 0.012658 0.000000 0.000000 0.000000
# 4 0.000000 0.000000 0.000000 0.040144 0.000000 0.000000
# 5 0.000000 0.000000 0.000000 0.000000 0.040144 0.000000
# 6 0.000000 0.000000 0.000000 0.000000 0.000000 0.051256
#
#
# Mechanical properties :
#
#
# Convention : Reuss Voigt Hill
#
# Bulk Modulus (GPa) = 55.78300 56.23439 56.00870
# Shear Modulus (GPa) = 25.94041 27.20750 26.57395
#
# Velocity S-wave (km/s) = 3.76763 3.85855 3.81336
# Velocity P-wave (km/s) = 7.03223 7.11503 7.07375
#
# Compressibility (1/GPa) = 0.01792661
#
# Stress axis : x y z
#
# Youngs Moduli (GPa) = 83.61069 83.61123 79.00160
#
# Poissons Ratio (x) = 0.11335 0.31483
# Poissons Ratio (y) = 0.11334 0.31483
# Poissons Ratio (z) = 0.33320 0.33320
#
# Static dielectric constant tensor:
#      x y z
#    x 3.418770 0.000000 0.000000 
#    y 0.000000 3.418770 0.000000 
#    z 0.000000 0.000000 3.853930 
# 
# 
# High freq. dielectric constant tensor:
#      x y z
#    x 1.697930 0.000000 0.000000 
#    y 0.000000 1.697930 0.000000 
#    z 0.000000 0.000000 1.715370 
# 
# From -- ./inp_files/944.got.cif
#   From: 2010.03.12/outbox.cif.g09.slc.cpg/sg135_1_cif.got.tgz:944.got - 2010.04.06 18:31:24.
