data_PCOD8317947
_publ_section_title
;
Structure prediction by ZEFSAII (Michael W. Deem and Ramdas Pophale) SiO2 
 PCOD8317947
Probable space group: P 42/M N M
;
_chemical_formula_sum "Si O2"
_cell_formula_units_Z 60
_cell_length_a 18.213933
_cell_length_b 18.213933
_cell_length_c 9.814127
_cell_angle_alpha 90.000000
_cell_angle_beta 90.000000
_cell_angle_gamma 90.000000
_cell_volume 3255.810677
_symmetry_space_group_name_H-M "P 42/M N M"
_symmetry_group_IT_number 136
_symmetry_cell_setting 'tetragonal'
loop_
_space_group_symop_operation_xyz
x,y,z
1/2-y,1/2+x,1/2+z
-x,-y,z
1/2+y,1/2-x,1/2+z
1/2+x,1/2-y,1/2-z
1/2-x,1/2+y,1/2-z
y,x,-z
-y,-x,-z
-x,-y,-z
1/2+y,1/2-x,1/2-z
x,y,-z
1/2-y,1/2+x,1/2-z
1/2-x,1/2+y,1/2+z
1/2+x,1/2-y,1/2+z
-y,-x,z
y,x,z
loop_
_atom_site_type_symbol
_atom_site_label
_atom_site_fract_x
_atom_site_fract_y
_atom_site_fract_z
Si Si1 0.942976 0.942976 0.840504
Si Si2 0.048146 0.655767 0.155051
Si Si3 0.937701 0.777434 0.161835
Si Si4 0.500000 0.000000 0.250000
Si Si5 0.177809 0.290681 0.656048
O O1 0.859451 0.964692 0.800886
O O2 0.951051 0.951051 0.000000
O O3 0.000000 0.000000 0.769257
O O4 0.128313 0.667019 0.221368
O O5 0.994032 0.715979 0.219984
O O6 0.017843 0.572522 0.162672
O O7 0.056583 0.678649 0.000000
O O8 0.864334 0.765339 0.246686
O O9 0.922157 0.769385 0.000000
O O10 0.147655 0.288063 0.500000
O O11 0.262903 0.262903 0.658044
#
# Coordination Sequence:
#
# PCOD8317947 Si02
#       5
#     8  16  16   4  16
#     4   9  18  32  55  83 107 133 173 228 277 314
#     4  10  21  33  50  79 109 142 178 219 267 318
#     4  10  19  34  55  78 105 137 179 220 264 316
#     4  12  18  32  52  74 112 144 178 224 258 324
#     4  10  20  35  54  76 105 140 177 216 265 318
#
# _framework density 18.428588999999999
#
# number of rings (size 3 to 8) (size 9 to 14) (size 15 to 20)
#    0.000    2.000    4.000    0.400    0.000    1.067 
#    0.000    6.667    0.000    1.600    0.000    0.000 
#    0.000    0.000    0.000    0.000    0.000    0.000 
#
# Total GULP energy -743363.701640 kJ/mol
# GULP energy per Si atom -12389.395027 kJ/mol
# Density = 1.838665 g / cm^3
# Si number density = 18.428589 Si / 1000 Ang^3
#
#
#
# Elastic Constant Matrix: (Units=GPa)
#
#
# Indices 1 2 3 4 5 6 
#
# 1 126.4501 82.0874 17.1056 0.0000 0.0000 0.0000
# 2 82.0874 126.4501 17.1056 0.0000 0.0000 0.0000
# 3 17.1056 17.1056 36.1015 0.0000 0.0000 0.0000
# 4 0.0000 0.0000 0.0000 17.5476 0.0000 0.0000
# 5 0.0000 0.0000 0.0000 0.0000 17.5476 0.0000
# 6 0.0000 0.0000 0.0000 0.0000 0.0000 40.9064
#
#
#
# Elastic Compliance Matrix: (Units=1/GPa)
#
#
# Indices 1 2 3 4 5 6 
#
# 1 0.013870 -0.008671 -0.002464 0.000000 0.000000 0.000000
# 2 -0.008671 0.013870 -0.002464 0.000000 0.000000 0.000000
# 3 -0.002464 -0.002464 0.030034 0.000000 0.000000 0.000000
# 4 0.000000 0.000000 0.000000 0.056988 0.000000 0.000000
# 5 0.000000 0.000000 0.000000 0.000000 0.056988 0.000000
# 6 0.000000 0.000000 0.000000 0.000000 0.000000 0.024446
#
#
# Mechanical properties :
#
#
# Convention : Reuss Voigt Hill
#
# Bulk Modulus (GPa) = 32.70243 57.95546 45.32894
# Shear Modulus (GPa) = 21.40537 26.71388 24.05963
#
# Velocity S-wave (km/s) = 3.41182 3.81148 3.61717
# Velocity P-wave (km/s) = 5.77102 7.13349 6.48812
#
# Compressibility (1/GPa) = 0.03057877
#
# Stress axis : x y z
#
# Youngs Moduli (GPa) = 72.09569 72.09569 33.29528
#
# Poissons Ratio (x) = 0.62514 0.08203
# Poissons Ratio (y) = 0.62514 0.08203
# Poissons Ratio (z) = 0.17762 0.17762
#
# Static dielectric constant tensor:
#      x y z
#    x 3.648030 0.000000 0.000000 
#    y 0.000000 3.648030 0.000000 
#    z 0.000000 0.000000 3.002600 
# 
# 
# High freq. dielectric constant tensor:
#      x y z
#    x 1.722760 0.000000 0.000000 
#    y 0.000000 1.722760 0.000000 
#    z 0.000000 0.000000 1.674810 
# 
# From -- ./inp_files/3336.got.cif
#   From: 2010.03.12/outbox.cif.g09.slc.cpg/sg136_2_cif.got.tgz:3336.got - 2010.04.06 18:39:43.
