data_PCOD8317273
_publ_section_title
;
Structure prediction by ZEFSAII (Michael W. Deem and Ramdas Pophale) SiO2 
 PCOD8317273
Probable space group: P 42/N N M
;
_chemical_formula_sum "Si O2"
_cell_formula_units_Z 58
_cell_length_a 18.678548
_cell_length_b 18.678548
_cell_length_c 9.009765
_cell_angle_alpha 90.000000
_cell_angle_beta 90.000000
_cell_angle_gamma 90.000000
_cell_volume 3143.400291
_symmetry_space_group_name_H-M "P 42/N N M"
_symmetry_group_IT_number 134
_space_group.IT_coordinate_system_code '2'
_symmetry_cell_setting 'tetragonal'
loop_
_space_group_symop_operation_xyz
x,y,z
1/2-y,x,1/2+z
1/2-x,1/2-y,z
y,1/2-x,1/2+z
x,1/2-y,1/2-z
1/2-x,y,1/2-z
y,x,-z
1/2-y,1/2-x,-z
-x,-y,-z
1/2+y,-x,1/2-z
1/2+x,1/2+y,-z
-y,1/2+x,1/2-z
-x,1/2+y,1/2+z
1/2+x,-y,1/2+z
-y,-x,z
1/2+y,1/2+x,z
loop_
_atom_site_type_symbol
_atom_site_label
_atom_site_fract_x
_atom_site_fract_y
_atom_site_fract_z
Si Si1 0.305772 0.805772 0.034037
Si Si2 0.755366 0.035058 0.582357
Si Si3 0.110147 0.008790 0.924879
Si Si4 0.495670 0.109699 0.083203
Si Si5 0.750000 0.250000 0.250000
O O1 0.250000 0.750000 0.106422
O O2 0.300454 0.800454 0.852977
O O3 0.383314 0.781559 0.087205
O O4 0.750000 0.006629 0.750000
O O5 0.681214 0.022484 0.499045
O O6 0.814667 0.989535 0.496968
O O7 0.121731 0.026677 0.752818
O O8 0.082519 0.082519 0.000000
O O9 0.051614 0.948387 0.949745
O O10 0.576002 0.076002 0.074260
O O11 0.442293 0.057708 0.000000
#
# Coordination Sequence:
#
# PCOD8317273 Si02
#       5
#     8  16  16  16   2
#     4  10  24  33  53  78 119 157 195 234 290 351
#     4  12  24  35  57  84 120 155 199 238 297 349
#     4  10  22  38  60  84 114 155 200 247 294 350
#     4  10  21  38  60  83 115 152 200 248 299 351
#     4   8  24  36  50  72 120 148 210 224 300 344
#
# _framework density 18.451356000000001
#
# number of rings (size 3 to 8) (size 9 to 14) (size 15 to 20)
#    0.414    1.103    1.379    3.310    7.724    2.207 
#    0.000    0.000    0.000    0.828    0.000    5.793 
#    0.000    0.000    0.000    0.000    0.000    0.000 
#
# Total GULP energy -719139.465593 kJ/mol
# GULP energy per Si atom -12398.956303 kJ/mol
# Density = 1.840936 g / cm^3
# Si number density = 18.451356 Si / 1000 Ang^3
#
#
#
# Elastic Constant Matrix: (Units=GPa)
#
#
# Indices 1 2 3 4 5 6 
#
# 1 69.3024 49.9141 48.1445 0.0000 0.0000 0.0000
# 2 49.9141 69.3127 48.1431 0.0000 0.0000 0.0000
# 3 48.1445 48.1431 169.5914 0.0000 0.0000 0.0000
# 4 0.0000 0.0000 0.0000 218.9338 0.0000 0.0000
# 5 0.0000 0.0000 0.0000 0.0000 217.9386 0.0000
# 6 0.0000 0.0000 0.0000 0.0000 0.0000 28.2473
#
#
#
# Elastic Compliance Matrix: (Units=1/GPa)
#
#
# Indices 1 2 3 4 5 6 
#
# 1 0.031226 -0.020340 -0.003091 0.000000 0.000000 0.000000
# 2 -0.020340 0.031220 -0.003088 0.000000 0.000000 0.000000
# 3 -0.003091 -0.003088 0.007651 0.000000 0.000000 0.000000
# 4 0.000000 0.000000 0.000000 0.004568 0.000000 0.000000
# 5 0.000000 0.000000 0.000000 0.000000 0.004588 0.000000
# 6 0.000000 0.000000 0.000000 0.000000 0.000000 0.035402
#
#
# Mechanical properties :
#
#
# Convention : Reuss Voigt Hill
#
# Bulk Modulus (GPa) = 58.62150 66.73441 62.67796
# Shear Modulus (GPa) = 28.83843 103.82426 66.33135
#
# Velocity S-wave (km/s) = 3.95770 7.50942 6.00228
# Velocity P-wave (km/s) = 7.26115 10.55626 9.05977
#
# Compressibility (1/GPa) = 0.01705859
#
# Stress axis : x y z
#
# Youngs Moduli (GPa) = 32.02417 32.03051 130.70879
#
# Poissons Ratio (x) = 0.65151 0.40396
# Poissons Ratio (y) = 0.65139 0.40368
# Poissons Ratio (z) = 0.09897 0.09892
#
# Static dielectric constant tensor:
#      x y z
#    x 3.891810 0.000000 0.000000 
#    y 0.000000 3.892250 0.000000 
#    z 0.000000 0.000000 3.390760 
# 
# 
# High freq. dielectric constant tensor:
#      x y z
#    x 1.701280 0.000000 0.000000 
#    y 0.000000 1.701280 0.000000 
#    z 0.000000 0.000000 1.738520 
# 
# From -- ./inp_files/2451.got.cif
#   From: 2010.03.12/outbox.cif.g09.slc.cpg/sg134_2_cif.got.tgz:2451.got - 2010.04.06 18:17:22.
