data_PCOD8317587
_publ_section_title
;
Structure prediction by ZEFSAII (Michael W. Deem and Ramdas Pophale) SiO2 
 PCOD8317587
Probable space group: P 42/M B C
;
_chemical_formula_sum "Si O2"
_cell_formula_units_Z 88
_cell_length_a 12.849581
_cell_length_b 12.849581
_cell_length_c 26.003126
_cell_angle_alpha 90.000000
_cell_angle_beta 90.000000
_cell_angle_gamma 90.000000
_cell_volume 4293.421168
_symmetry_space_group_name_H-M "P 42/M B C"
_symmetry_group_IT_number 135
_symmetry_cell_setting 'tetragonal'
loop_
_space_group_symop_operation_xyz
x,y,z
-y,x,1/2+z
-x,-y,z
y,-x,1/2+z
1/2+x,1/2-y,-z
1/2-x,1/2+y,-z
1/2+y,1/2+x,1/2-z
1/2-y,1/2-x,1/2-z
-x,-y,-z
y,-x,1/2-z
x,y,-z
-y,x,1/2-z
1/2-x,1/2+y,z
1/2+x,1/2-y,z
1/2-y,1/2-x,1/2+z
1/2+y,1/2+x,1/2+z
loop_
_atom_site_type_symbol
_atom_site_label
_atom_site_fract_x
_atom_site_fract_y
_atom_site_fract_z
Si Si1 0.145683 0.200983 0.723111
Si Si2 0.207704 0.909615 0.058717
Si Si3 0.840948 0.928377 0.179377
Si Si4 0.000000 0.000000 0.895409
Si Si5 0.936345 0.397907 0.440791
Si Si6 0.185086 0.724145 0.129292
O O1 0.193327 0.306674 0.750000
O O2 0.124645 0.117796 0.766674
O O3 0.226497 0.147178 0.683173
O O4 0.039461 0.216340 0.690473
O O5 0.088570 0.944570 0.070302
O O6 0.238991 0.812283 0.094135
O O7 0.291376 0.000150 0.069228
O O8 0.213756 0.873130 0.000000
O O9 0.765217 0.862866 0.144804
O O10 0.943541 0.923696 0.144394
O O11 0.900212 0.403424 0.500000
O O12 0.833682 0.402835 0.404667
O O13 0.000000 0.500000 0.425690
#
# Coordination Sequence:
#
# PCOD8317587 Si02
#       6
#    16  16  16   8  16  16
#     4  10  22  39  64  91 131 168 215 267 321 394
#     4  11  24  42  64  99 131 170 220 268 326 387
#     4  11  22  40  64  97 125 170 216 265 331 380
#     4  12  21  41  68  92 132 168 214 276 326 384
#     4  10  22  43  66  90 130 174 216 267 322 390
#     4  11  21  42  63  96 130 166 217 264 327 391
#
# _framework density 20.496476000000001
#
# number of rings (size 3 to 8) (size 9 to 14) (size 15 to 20)
#    0.000    1.273    3.636    1.909    0.000    1.455 
#    6.545    1.818    0.000    0.000    0.000    0.000 
#    0.000    0.000    0.000    0.000    0.000    0.000 
#
# Total GULP energy -1090199.326670 kJ/mol
# GULP energy per Si atom -12388.628712 kJ/mol
# Density = 2.044982 g / cm^3
# Si number density = 20.496476 Si / 1000 Ang^3
#
#
#
# Elastic Constant Matrix: (Units=GPa)
#
#
# Indices 1 2 3 4 5 6 
#
# 1 74.4221 36.9965 32.6051 0.0000 0.0000 0.0000
# 2 36.9965 74.4228 32.6053 0.0000 0.0000 0.0000
# 3 32.6051 32.6053 118.8779 0.0000 0.0000 0.0000
# 4 0.0000 0.0000 0.0000 13.8162 0.0000 0.0000
# 5 0.0000 0.0000 0.0000 0.0000 13.8203 0.0000
# 6 0.0000 0.0000 0.0000 0.0000 0.0000 17.5389
#
#
#
# Elastic Compliance Matrix: (Units=1/GPa)
#
#
# Indices 1 2 3 4 5 6 
#
# 1 0.018705 -0.008014 -0.002932 0.000000 0.000000 0.000000
# 2 -0.008014 0.018705 -0.002932 0.000000 0.000000 0.000000
# 3 -0.002932 -0.002932 0.010021 0.000000 0.000000 0.000000
# 4 0.000000 0.000000 0.000000 0.072379 0.000000 0.000000
# 5 0.000000 0.000000 0.000000 0.000000 0.072357 0.000000
# 6 0.000000 0.000000 0.000000 0.000000 0.000000 0.057016
#
#
# Mechanical properties :
#
#
# Convention : Reuss Voigt Hill
#
# Bulk Modulus (GPa) = 50.82903 52.45962 51.64433
# Shear Modulus (GPa) = 17.63675 20.06948 18.85311
#
# Velocity S-wave (km/s) = 2.93657 3.13256 3.03615
# Velocity P-wave (km/s) = 6.02915 6.22366 6.12718
#
# Compressibility (1/GPa) = 0.01967380
#
# Stress axis : x y z
#
# Youngs Moduli (GPa) = 53.46034 53.46074 99.79496
#
# Poissons Ratio (x) = 0.42843 0.29264
# Poissons Ratio (y) = 0.42843 0.29264
# Poissons Ratio (z) = 0.15677 0.15677
#
# Static dielectric constant tensor:
#      x y z
#    x 3.441540 0.000000 0.000000 
#    y 0.000000 3.441520 0.000000 
#    z 0.000000 0.000000 4.131730 
# 
# 
# High freq. dielectric constant tensor:
#      x y z
#    x 1.789800 0.000000 0.000000 
#    y 0.000000 1.789800 0.000000 
#    z 0.000000 0.000000 1.834380 
# 
# From -- ./inp_files/6759.got.cif
#   From: 2010.03.12/outbox.cif.g09.slc.cpg/sg135_4_cif.got.tgz:6759.got - 2010.04.06 18:31:24.
