data_PCOD8317809
_publ_section_title
;
Structure prediction by ZEFSAII (Michael W. Deem and Ramdas Pophale) SiO2 
 PCOD8317809
Probable space group: P 42/M N M
;
_chemical_formula_sum "Si O2"
_cell_formula_units_Z 112
_cell_length_a 18.380175
_cell_length_b 18.380175
_cell_length_c 20.448229
_cell_angle_alpha 90.000000
_cell_angle_beta 90.000000
_cell_angle_gamma 90.000000
_cell_volume 6908.042237
_symmetry_space_group_name_H-M "P 42/M N M"
_symmetry_group_IT_number 136
_symmetry_cell_setting 'tetragonal'
loop_
_space_group_symop_operation_xyz
x,y,z
1/2-y,1/2+x,1/2+z
-x,-y,z
1/2+y,1/2-x,1/2+z
1/2+x,1/2-y,1/2-z
1/2-x,1/2+y,1/2-z
y,x,-z
-y,-x,-z
-x,-y,-z
1/2+y,1/2-x,1/2-z
x,y,-z
1/2-y,1/2+x,1/2-z
1/2-x,1/2+y,1/2+z
1/2+x,1/2-y,1/2+z
-y,-x,z
y,x,z
loop_
_atom_site_type_symbol
_atom_site_label
_atom_site_fract_x
_atom_site_fract_y
_atom_site_fract_z
Si Si1 0.111861 0.673753 0.766952
Si Si2 0.807836 0.073805 0.313383
Si Si3 0.647627 0.238007 0.143577
Si Si4 0.172669 0.547625 0.679685
Si Si5 0.556453 0.938932 0.923628
Si Si6 0.683090 0.431859 0.737750
Si Si7 0.780287 0.497916 0.075432
O O1 0.120393 0.745144 0.722004
O O2 0.162576 0.682297 0.830911
O O3 0.132240 0.603339 0.726333
O O4 0.029911 0.661930 0.787899
O O5 0.874197 0.125804 0.332081
O O6 0.837525 0.011766 0.264028
O O7 0.778572 0.039799 0.380871
O O8 0.711610 0.288391 0.114048
O O9 0.610543 0.277581 0.204332
O O10 0.588658 0.223215 0.087229
O O11 0.135771 0.550334 0.608643
O O12 0.259701 0.564307 0.676992
O O13 0.524490 0.860537 0.904889
O O14 0.500000 0.000000 0.898098
O O15 0.569792 0.947710 0.000000
O O16 0.610474 0.389527 0.714721
O O17 0.762672 0.514415 0.000000
#
# Coordination Sequence:
#
# PCOD8317809 Si02
#       7
#    16  16  16  16  16  16  16
#     4  10  19  29  46  74  96 124 161 209 248 296
#     4  10  19  32  50  72  98 130 165 205 253 300
#     4   9  17  31  48  66  91 124 162 207 251 285
#     4  10  19  29  47  70  97 126 163 198 244 294
#     4  10  20  32  46  66  99 137 168 200 239 291
#     4   8  17  32  48  69  93 120 156 205 256 294
#     4  10  20  34  47  68 100 133 172 206 240 291
#
# _framework density 16.212987999999999
#
# number of rings (size 3 to 8) (size 9 to 14) (size 15 to 20)
#    0.000    2.429    1.429    2.143    2.000    1.429 
#    0.000    0.000    0.000    0.429    0.000    4.000 
#    0.000    5.143    0.000    5.143    0.000    0.000 
#
# Total GULP energy -1388575.730724 kJ/mol
# GULP energy per Si atom -12397.997596 kJ/mol
# Density = 1.617609 g / cm^3
# Si number density = 16.212988 Si / 1000 Ang^3
#
#
#
# Elastic Constant Matrix: (Units=GPa)
#
#
# Indices 1 2 3 4 5 6 
#
# 1 92.0956 63.3737 38.9597 0.0000 0.0000 0.0000
# 2 63.3737 92.0956 38.9597 0.0000 0.0000 0.0000
# 3 38.9597 38.9597 57.0208 0.0000 0.0000 0.0000
# 4 0.0000 0.0000 0.0000 19.7836 0.0000 0.0000
# 5 0.0000 0.0000 0.0000 0.0000 19.7836 0.0000
# 6 0.0000 0.0000 0.0000 0.0000 0.0000 34.1174
#
#
#
# Elastic Compliance Matrix: (Units=1/GPa)
#
#
# Indices 1 2 3 4 5 6 
#
# 1 0.022299 -0.012517 -0.006683 0.000000 0.000000 0.000000
# 2 -0.012517 0.022299 -0.006683 0.000000 0.000000 0.000000
# 3 -0.006683 -0.006683 0.026670 0.000000 0.000000 0.000000
# 4 0.000000 0.000000 0.000000 0.050547 0.000000 0.000000
# 5 0.000000 0.000000 0.000000 0.000000 0.050547 0.000000
# 6 0.000000 0.000000 0.000000 0.000000 0.000000 0.029311
#
#
# Mechanical properties :
#
#
# Convention : Reuss Voigt Hill
#
# Bulk Modulus (GPa) = 51.28143 58.19979 54.74061
# Shear Modulus (GPa) = 19.23505 21.39817 20.31661
#
# Velocity S-wave (km/s) = 3.44815 3.63687 3.54377
# Velocity P-wave (km/s) = 6.89576 7.32193 7.11204
#
# Compressibility (1/GPa) = 0.01950024
#
# Stress axis : x y z
#
# Youngs Moduli (GPa) = 44.84463 44.84463 37.49470
#
# Poissons Ratio (x) = 0.56134 0.25059
# Poissons Ratio (y) = 0.56134 0.25059
# Poissons Ratio (z) = 0.29972 0.29972
#
# Static dielectric constant tensor:
#      x y z
#    x 3.242390 0.000000 0.000000 
#    y 0.000000 3.242390 0.000000 
#    z 0.000000 0.000000 2.855290 
# 
# 
# High freq. dielectric constant tensor:
#      x y z
#    x 1.624900 0.000000 0.000000 
#    y 0.000000 1.624900 0.000000 
#    z 0.000000 0.000000 1.594160 
# 
# From -- ./inp_files/7783.got.cif
#   From: 2010.03.12/outbox.cif.g09.slc.cpg/sg136_4_cif.got.tgz:7783.got - 2010.04.06 18:39:43.
