data_PCOD8317813
_publ_section_title
;
Structure prediction by ZEFSAII (Michael W. Deem and Ramdas Pophale) SiO2 
 PCOD8317813
Probable space group: P 42/M N M
;
_chemical_formula_sum "Si O2"
_cell_formula_units_Z 104
_cell_length_a 30.183086
_cell_length_b 30.183086
_cell_length_c 9.071260
_cell_angle_alpha 90.000000
_cell_angle_beta 90.000000
_cell_angle_gamma 90.000000
_cell_volume 8264.087316
_symmetry_space_group_name_H-M "P 42/M N M"
_symmetry_group_IT_number 136
_symmetry_cell_setting 'tetragonal'
loop_
_space_group_symop_operation_xyz
x,y,z
1/2-y,1/2+x,1/2+z
-x,-y,z
1/2+y,1/2-x,1/2+z
1/2+x,1/2-y,1/2-z
1/2-x,1/2+y,1/2-z
y,x,-z
-y,-x,-z
-x,-y,-z
1/2+y,1/2-x,1/2-z
x,y,-z
1/2-y,1/2+x,1/2-z
1/2-x,1/2+y,1/2+z
1/2+x,1/2-y,1/2+z
-y,-x,z
y,x,z
loop_
_atom_site_type_symbol
_atom_site_label
_atom_site_fract_x
_atom_site_fract_y
_atom_site_fract_z
Si Si1 0.340636 0.266211 0.165634
Si Si2 0.597562 0.670519 0.673321
Si Si3 0.780304 0.294513 0.834979
Si Si4 0.279385 0.646325 0.662814
Si Si5 0.133395 0.985913 0.324820
Si Si6 0.149589 0.076981 0.827264
Si Si7 0.465036 0.465036 0.825056
O O1 0.301870 0.301870 0.162634
O O2 0.381150 0.284707 0.262166
O O3 0.322298 0.221162 0.238785
O O4 0.356962 0.255820 0.000000
O O5 0.591132 0.676499 0.500000
O O6 0.628388 0.628388 0.710684
O O7 0.550467 0.664759 0.751011
O O8 0.742945 0.257055 0.833653
O O9 0.760679 0.340508 0.771106
O O10 0.796899 0.303704 0.000000
O O11 0.259377 0.638530 0.500000
O O12 0.314188 0.685813 0.654443
O O13 0.305112 0.602429 0.716694
O O14 0.137047 0.981985 0.500000
O O15 0.083483 0.977926 0.267796
O O16 0.148868 0.033864 0.273207
O O17 0.107147 0.107147 0.789153
O O18 0.149560 0.064751 0.000000
O O19 0.500000 0.500000 0.757841
O O20 0.466505 0.466505 0.000000
#
# Coordination Sequence:
#
# PCOD8317813 Si02
#       7
#    16  16  16  16  16  16   8
#     4   9  16  25  38  54  72  92 113 133 160 201
#     4  10  19  30  42  54  70  89 112 142 178 216
#     4   9  15  22  34  54  76  93 110 132 159 194
#     4   8  14  25  39  52  69  92 113 134 165 205
#     4  11  20  30  43  55  70  89 114 146 185 229
#     4   9  18  31  43  55  71  90 114 146 183 222
#     4   9  18  30  41  53  67  83 107 145 189 231
#
# _framework density 12.584572
#
# number of rings (size 3 to 8) (size 9 to 14) (size 15 to 20)
#    0.000    2.692    0.769    3.231    0.000    5.846 
#    0.000    1.538    0.000    1.846    0.000    0.000 
#    0.000    0.000    0.000    0.000    0.000    0.000 
#
# Total GULP energy -1289367.133454 kJ/mol
# GULP energy per Si atom -12397.760899 kJ/mol
# Density = 1.255593 g / cm^3
# Si number density = 12.584572 Si / 1000 Ang^3
#
#
#
# Elastic Constant Matrix: (Units=GPa)
#
#
# Indices 1 2 3 4 5 6 
#
# 1 51.8200 47.6071 37.8989 0.0000 0.0000 0.0000
# 2 47.6071 51.8200 37.8989 0.0000 0.0000 0.0000
# 3 37.8989 37.8989 83.6182 0.0000 0.0000 0.0000
# 4 0.0000 0.0000 0.0000 18.7899 0.0000 0.0000
# 5 0.0000 0.0000 0.0000 0.0000 18.7899 0.0000
# 6 0.0000 0.0000 0.0000 0.0000 0.0000 22.0778
#
#
#
# Elastic Compliance Matrix: (Units=1/GPa)
#
#
# Indices 1 2 3 4 5 6 
#
# 1 0.126367 -0.110999 -0.006965 0.000000 0.000000 0.000000
# 2 -0.110999 0.126367 -0.006965 0.000000 0.000000 0.000000
# 3 -0.006965 -0.006965 0.018273 0.000000 0.000000 0.000000
# 4 0.000000 0.000000 0.000000 0.053220 0.000000 0.000000
# 5 0.000000 0.000000 0.000000 0.000000 0.053220 0.000000
# 6 0.000000 0.000000 0.000000 0.000000 0.000000 0.045294
#
#
# Mechanical properties :
#
#
# Convention : Reuss Voigt Hill
#
# Bulk Modulus (GPa) = 47.28740 48.22977 47.75859
# Shear Modulus (GPa) = 7.35674 16.18843 11.77259
#
# Velocity S-wave (km/s) = 2.42044 3.59049 3.06188
# Velocity P-wave (km/s) = 6.74304 7.45631 7.10863
#
# Compressibility (1/GPa) = 0.02114728
#
# Stress axis : x y z
#
# Youngs Moduli (GPa) = 7.91347 7.91347 54.72623
#
# Poissons Ratio (x) = 0.87839 0.38117
# Poissons Ratio (y) = 0.87839 0.38117
# Poissons Ratio (z) = 0.05512 0.05512
#
# Static dielectric constant tensor:
#      x y z
#    x 2.414430 0.000000 0.000000 
#    y 0.000000 2.414430 0.000000 
#    z 0.000000 0.000000 2.665650 
# 
# 
# High freq. dielectric constant tensor:
#      x y z
#    x 1.444370 0.000000 0.000000 
#    y 0.000000 1.444370 0.000000 
#    z 0.000000 0.000000 1.489740 
# 
# From -- ./inp_files/2233.got.cif
#   From: 2010.03.12/outbox.cif.g09.slc.cpg/sg136_2_cif.got.tgz:2233.got - 2010.04.06 18:39:43.
