data_PCOD8317020
_publ_section_title
;
Structure prediction by ZEFSAII (Michael W. Deem and Ramdas Pophale) SiO2 
 PCOD8317020
Probable space group: P 42/N B C
;
_chemical_formula_sum "Si O2"
_cell_formula_units_Z 44
_cell_length_a 9.274593
_cell_length_b 9.274593
_cell_length_c 19.417358
_cell_angle_alpha 90.000000
_cell_angle_beta 90.000000
_cell_angle_gamma 90.000000
_cell_volume 1670.243763
_symmetry_space_group_name_H-M "P 42/N B C"
_symmetry_group_IT_number 133
_space_group.IT_coordinate_system_code '2'
_symmetry_cell_setting 'tetragonal'
loop_
_space_group_symop_operation_xyz
x,y,z
1/2-y,x,1/2+z
1/2-x,1/2-y,z
y,1/2-x,1/2+z
x,1/2-y,-z
1/2-x,y,-z
y,x,1/2-z
1/2-y,1/2-x,1/2-z
-x,-y,-z
1/2+y,-x,1/2-z
1/2+x,1/2+y,-z
-y,1/2+x,1/2-z
-x,1/2+y,z
1/2+x,-y,z
-y,-x,1/2+z
1/2+y,1/2+x,1/2+z
loop_
_atom_site_type_symbol
_atom_site_label
_atom_site_fract_x
_atom_site_fract_y
_atom_site_fract_z
Si Si1 0.917131 0.504123 0.910685
Si Si2 0.166279 0.471481 0.814284
Si Si3 0.750000 0.250000 0.750000
Si Si4 0.954393 0.250000 0.000000
O O1 0.824697 0.554748 0.844876
O O2 0.064722 0.443765 0.879096
O O3 0.939813 0.642606 0.958453
O O4 0.857945 0.361079 0.952609
O O5 0.151943 0.640153 0.793735
O O6 0.133501 0.366500 0.750000
#
# Coordination Sequence:
#
# PCOD8317020 Si02
#       4
#    16  16   4   8
#     4  11  26  48  77 111 156 203 264 324 383 478
#     4  12  26  48  79 115 156 204 259 322 404 462
#     4  12  24  52  72 114 160 212 240 324 418 464
#     4  10  26  50  76 112 154 214 262 318 392 460
#
# _framework density 26.343463
#
# number of rings (size 3 to 8) (size 9 to 14) (size 15 to 20)
#    0.000    0.727    3.636    2.182    0.000   10.182 
#    6.545    0.000    0.000    0.000    0.000    0.000 
#    0.000    0.000    0.000    0.000    0.000    0.000 
#
# Total GULP energy -545340.561249 kJ/mol
# GULP energy per Si atom -12394.103665 kJ/mol
# Density = 2.628350 g / cm^3
# Si number density = 26.343463 Si / 1000 Ang^3
#
#
#
# Elastic Constant Matrix: (Units=GPa)
#
#
# Indices 1 2 3 4 5 6 
#
# 1 60.3524 85.6325 60.3906 0.0000 0.0000 0.0000
# 2 85.6325 60.3499 60.3930 0.0000 0.0000 0.0000
# 3 60.3906 60.3930 154.7051 0.0000 0.0000 0.0000
# 4 0.0000 0.0000 0.0000 49.4965 0.0000 0.0000
# 5 0.0000 0.0000 0.0000 0.0000 49.4967 0.0000
# 6 0.0000 0.0000 0.0000 0.0000 0.0000 29.9068
#
#
#
# Elastic Compliance Matrix: (Units=1/GPa)
#
#
# Indices 1 2 3 4 5 6 
#
# 1 -0.014718 0.024836 -0.003950 0.000000 0.000000 0.000000
# 2 0.024836 -0.014719 -0.003949 0.000000 0.000000 0.000000
# 3 -0.003950 -0.003949 0.009548 0.000000 0.000000 0.000000
# 4 0.000000 0.000000 0.000000 0.020203 0.000000 0.000000
# 5 0.000000 0.000000 0.000000 0.000000 0.020203 0.000000
# 6 0.000000 0.000000 0.000000 0.000000 0.000000 0.033437
#
#
# Mechanical properties :
#
#
# Convention : Reuss Voigt Hill
#
# Bulk Modulus (GPa) = 71.50687 76.47107 73.98897
# Shear Modulus (GPa) = 202.08143 30.37940 116.23041
#
# Velocity S-wave (km/s) = 8.76794 3.39957 6.64958
# Velocity P-wave (km/s) = 11.38883 6.67090 9.33291
#
# Compressibility (1/GPa) = 0.01398467
#
# Stress axis : x y z
#
# Youngs Moduli (GPa) = -67.94617 -67.93798 104.73826
#
# Poissons Ratio (x) = 1.68734 0.41376
# Poissons Ratio (y) = 1.68754 0.41362
# Poissons Ratio (z) = -0.26841 -0.26829
#
# Static dielectric constant tensor:
#      x y z
#    x 4.510300 0.000000 0.000000 
#    y 0.000000 4.510300 0.000000 
#    z 0.000000 0.000000 5.098970 
# 
# 
# High freq. dielectric constant tensor:
#      x y z
#    x 2.050340 0.000000 0.000000 
#    y 0.000000 2.050340 0.000000 
#    z 0.000000 0.000000 2.077570 
# 
# From -- ./inp_files/7432.got.cif
#   From: 2010.03.12/outbox.cif.g09.slc.cpg/sg133_4_cif.got.tgz:7432.got - 2010.04.06 18:08:06.
