data_PCOD8317601
_publ_section_title
;
Structure prediction by ZEFSAII (Michael W. Deem and Ramdas Pophale) SiO2 
 PCOD8317601
Probable space group: P 42/M B C
;
_chemical_formula_sum "Si O2"
_cell_formula_units_Z 96
_cell_length_a 14.292385
_cell_length_b 14.292385
_cell_length_c 21.635783
_cell_angle_alpha 90.000000
_cell_angle_beta 90.000000
_cell_angle_gamma 90.000000
_cell_volume 4419.590485
_symmetry_space_group_name_H-M "P 42/M B C"
_symmetry_group_IT_number 135
_symmetry_cell_setting 'tetragonal'
loop_
_space_group_symop_operation_xyz
x,y,z
-y,x,1/2+z
-x,-y,z
y,-x,1/2+z
1/2+x,1/2-y,-z
1/2-x,1/2+y,-z
1/2+y,1/2+x,1/2-z
1/2-y,1/2-x,1/2-z
-x,-y,-z
y,-x,1/2-z
x,y,-z
-y,x,1/2-z
1/2-x,1/2+y,z
1/2+x,1/2-y,z
1/2-y,1/2-x,1/2+z
1/2+y,1/2+x,1/2+z
loop_
_atom_site_type_symbol
_atom_site_label
_atom_site_fract_x
_atom_site_fract_y
_atom_site_fract_z
Si Si1 0.354172 0.657878 0.611376
Si Si2 0.550012 0.098936 0.187577
Si Si3 0.400115 0.242727 0.778708
Si Si4 0.953412 0.837908 0.067113
Si Si5 0.643269 0.142089 0.933708
Si Si6 0.534486 0.605043 0.323242
O O1 0.282809 0.664583 0.668024
O O2 0.340947 0.565258 0.571221
O O3 0.335215 0.746765 0.568522
O O4 0.456561 0.662808 0.641075
O O5 0.611773 0.111773 0.250000
O O6 0.487174 0.192646 0.187005
O O7 0.613351 0.084666 0.126675
O O8 0.500000 0.000000 0.192624
O O9 0.340473 0.159528 0.750000
O O10 0.431248 0.329995 0.734311
O O11 0.919092 0.733279 0.066331
O O12 0.906229 0.884345 0.126494
O O13 0.927298 0.884728 0.000000
O O14 0.625345 0.089785 0.000000
O O15 0.500000 0.500000 0.302251
#
# Coordination Sequence:
#
# PCOD8317601 Si02
#       6
#    16  16  16  16  16  16
#     4  11  24  38  66  96 133 174 226 283 340 414
#     4  11  23  44  71  99 134 178 226 282 343 414
#     4  12  24  41  67 102 137 180 225 286 349 414
#     4  10  22  43  65  91 133 178 224 278 343 412
#     4  11  24  44  68  97 134 179 229 283 342 411
#     4  10  25  40  65 100 135 178 225 283 345 415
#
# _framework density 21.721471000000001
#
# number of rings (size 3 to 8) (size 9 to 14) (size 15 to 20)
#    0.000    1.167    3.333    2.500    4.667    7.333 
#    0.000    0.000    0.000    0.000    0.000    0.000 
#    0.000    0.000    0.000    0.000    0.000    0.000 
#
# Total GULP energy -1189258.611580 kJ/mol
# GULP energy per Si atom -12388.110537 kJ/mol
# Density = 2.167203 g / cm^3
# Si number density = 21.721471 Si / 1000 Ang^3
#
#
#
# Elastic Constant Matrix: (Units=GPa)
#
#
# Indices 1 2 3 4 5 6 
#
# 1 67.6181 21.6014 38.5538 0.0000 0.0000 0.0000
# 2 21.6014 67.6185 38.5537 0.0000 0.0000 0.0000
# 3 38.5538 38.5537 172.8251 0.0000 0.0000 0.0000
# 4 0.0000 0.0000 0.0000 -37.0778 0.0000 0.0000
# 5 0.0000 0.0000 0.0000 0.0000 -37.1172 0.0000
# 6 0.0000 0.0000 0.0000 0.0000 0.0000 23.2625
#
#
#
# Elastic Compliance Matrix: (Units=1/GPa)
#
#
# Indices 1 2 3 4 5 6 
#
# 1 0.017808 -0.003923 -0.003098 0.000000 0.000000 0.000000
# 2 -0.003923 0.017808 -0.003098 0.000000 0.000000 0.000000
# 3 -0.003098 -0.003098 0.007168 0.000000 0.000000 0.000000
# 4 0.000000 0.000000 0.000000 -0.026970 0.000000 0.000000
# 5 0.000000 0.000000 0.000000 0.000000 -0.026942 0.000000
# 6 0.000000 0.000000 0.000000 0.000000 0.000000 0.042988
#
#
# Mechanical properties :
#
#
# Convention : Reuss Voigt Hill
#
# Bulk Modulus (GPa) = 44.34848 56.16439 50.25643
# Shear Modulus (GPa) = 83.87510 3.77036 43.82273
#
# Velocity S-wave (km/s) = 6.22075 1.31892 4.49651
# Velocity P-wave (km/s) = 8.48871 5.31339 7.08133
#
# Compressibility (1/GPa) = 0.02254869
#
# Stress axis : x y z
#
# Youngs Moduli (GPa) = 56.15365 56.15408 139.50534
#
# Poissons Ratio (x) = 0.22029 0.43212
# Poissons Ratio (y) = 0.22029 0.43212
# Poissons Ratio (z) = 0.17394 0.17394
#
# Static dielectric constant tensor:
#      x y z
#    x 3.853080 0.000000 0.000000 
#    y 0.000000 3.853080 0.000000 
#    z 0.000000 0.000000 4.844650 
# 
# 
# High freq. dielectric constant tensor:
#      x y z
#    x 1.845900 0.000000 0.000000 
#    y 0.000000 1.845900 0.000000 
#    z 0.000000 0.000000 1.881330 
# 
# From -- ./inp_files/5432.got.cif
#   From: 2010.03.12/outbox.cif.g09.slc.cpg/sg135_3_cif.got.tgz:5432.got - 2010.04.06 18:31:24.
