data_PCOD8317615
_publ_section_title
;
Structure prediction by ZEFSAII (Michael W. Deem and Ramdas Pophale) SiO2 
 PCOD8317615
Probable space group: P 42/M B C
;
_chemical_formula_sum "Si O2"
_cell_formula_units_Z 60
_cell_length_a 16.541540
_cell_length_b 16.541540
_cell_length_c 9.944340
_cell_angle_alpha 90.000000
_cell_angle_beta 90.000000
_cell_angle_gamma 90.000000
_cell_volume 2720.995625
_symmetry_space_group_name_H-M "P 42/M B C"
_symmetry_group_IT_number 135
_symmetry_cell_setting 'tetragonal'
loop_
_space_group_symop_operation_xyz
x,y,z
-y,x,1/2+z
-x,-y,z
y,-x,1/2+z
1/2+x,1/2-y,-z
1/2-x,1/2+y,-z
1/2+y,1/2+x,1/2-z
1/2-y,1/2-x,1/2-z
-x,-y,-z
y,-x,1/2-z
x,y,-z
-y,x,1/2-z
1/2-x,1/2+y,z
1/2+x,1/2-y,z
1/2-y,1/2-x,1/2+z
1/2+y,1/2+x,1/2+z
loop_
_atom_site_type_symbol
_atom_site_label
_atom_site_fract_x
_atom_site_fract_y
_atom_site_fract_z
Si Si1 0.614109 0.251830 0.500000
Si Si2 0.781560 0.077876 0.500000
Si Si3 0.353818 0.146183 0.250000
Si Si4 0.500000 0.500000 0.250000
Si Si5 0.457923 0.827843 0.244960
Si Si6 0.200582 0.750730 0.500000
Si Si7 0.091811 0.065341 0.500000
O O1 0.559915 0.222429 0.377592
O O2 0.705596 0.220746 0.500000
O O3 0.629776 0.347155 0.500000
O O4 0.723981 0.079780 0.372650
O O5 0.838900 0.158901 0.500000
O O6 0.838693 0.000798 0.500000
O O7 0.447419 0.160390 0.220182
O O8 0.325171 0.199944 0.372740
O O9 0.543789 0.440275 0.357080
O O10 0.415744 0.915744 0.250000
#
# Coordination Sequence:
#
# PCOD8317615 Si02
#       7
#     8   8   8   4  16   8   8
#     4  12  24  44  73  97 141 185 232 286 357 427
#     4  12  25  44  70  96 143 184 236 283 355 421
#     4  12  27  42  74 104 140 179 248 288 348 430
#     4  10  24  42  60  94 136 166 224 294 344 406
#     4  12  24  46  69 103 140 186 229 296 358 416
#     4  12  25  46  66 103 136 185 229 294 343 420
#     4  11  24  42  68  99 132 184 231 283 352 419
#
# _framework density 22.050751000000002
#
# number of rings (size 3 to 8) (size 9 to 14) (size 15 to 20)
#    0.000    0.267    2.667    6.800    0.000    6.400 
#    0.000    4.000    0.000    0.000    0.000    0.000 
#    0.000    0.000    0.000    0.000    0.000    0.000 
#
# Total GULP energy -743810.636019 kJ/mol
# GULP energy per Si atom -12396.843934 kJ/mol
# Density = 2.200056 g / cm^3
# Si number density = 22.050751 Si / 1000 Ang^3
#
#
#
# Elastic Constant Matrix: (Units=GPa)
#
#
# Indices 1 2 3 4 5 6 
#
# 1 139.7528 45.8085 43.9269 0.0000 0.0000 0.0000
# 2 45.8085 139.7509 43.9268 0.0000 0.0000 0.0000
# 3 43.9269 43.9268 179.7455 0.0000 0.0000 0.0000
# 4 0.0000 0.0000 0.0000 19.2467 0.0000 0.0000
# 5 0.0000 0.0000 0.0000 0.0000 19.2482 0.0000
# 6 0.0000 0.0000 0.0000 0.0000 0.0000 38.8272
#
#
#
# Elastic Compliance Matrix: (Units=1/GPa)
#
#
# Indices 1 2 3 4 5 6 
#
# 1 0.008369 -0.002275 -0.001489 0.000000 0.000000 0.000000
# 2 -0.002275 0.008370 -0.001489 0.000000 0.000000 0.000000
# 3 -0.001489 -0.001489 0.006291 0.000000 0.000000 0.000000
# 4 0.000000 0.000000 0.000000 0.051957 0.000000 0.000000
# 5 0.000000 0.000000 0.000000 0.000000 0.051953 0.000000
# 6 0.000000 0.000000 0.000000 0.000000 0.000000 0.025755
#
#
# Mechanical properties :
#
#
# Convention : Reuss Voigt Hill
#
# Bulk Modulus (GPa) = 79.85646 80.73040 80.29343
# Shear Modulus (GPa) = 29.87261 37.17020 33.52141
#
# Velocity S-wave (km/s) = 3.68465 4.11014 3.90320
# Velocity P-wave (km/s) = 7.37534 7.69513 7.53693
#
# Compressibility (1/GPa) = 0.01252247
#
# Stress axis : x y z
#
# Youngs Moduli (GPa) = 119.48286 119.48120 158.94829
#
# Poissons Ratio (x) = 0.27185 0.23672
# Poissons Ratio (y) = 0.27185 0.23673
# Poissons Ratio (z) = 0.17795 0.17795
#
# Static dielectric constant tensor:
#      x y z
#    x 4.113730 0.000000 0.000000 
#    y 0.000000 4.113770 0.000000 
#    z 0.000000 0.000000 4.026760 
# 
# 
# High freq. dielectric constant tensor:
#      x y z
#    x 1.879450 0.000000 0.000000 
#    y 0.000000 1.879450 0.000000 
#    z 0.000000 0.000000 1.889590 
# 
# From -- ./inp_files/827.got.cif
#   From: 2010.03.12/outbox.cif.g09.slc.cpg/sg135_1_cif.got.tgz:827.got - 2010.04.06 18:31:24.
