data_PCOD8317906
_publ_section_title
;
Structure prediction by ZEFSAII (Michael W. Deem and Ramdas Pophale) SiO2 
 PCOD8317906
Probable space group: P 42/M N M
;
_chemical_formula_sum "Si O2"
_cell_formula_units_Z 72
_cell_length_a 20.139042
_cell_length_b 20.139042
_cell_length_c 8.985356
_cell_angle_alpha 90.000000
_cell_angle_beta 90.000000
_cell_angle_gamma 90.000000
_cell_volume 3644.289786
_symmetry_space_group_name_H-M "P 42/M N M"
_symmetry_group_IT_number 136
_symmetry_cell_setting 'tetragonal'
loop_
_space_group_symop_operation_xyz
x,y,z
1/2-y,1/2+x,1/2+z
-x,-y,z
1/2+y,1/2-x,1/2+z
1/2+x,1/2-y,1/2-z
1/2-x,1/2+y,1/2-z
y,x,-z
-y,-x,-z
-x,-y,-z
1/2+y,1/2-x,1/2-z
x,y,-z
1/2-y,1/2+x,1/2-z
1/2-x,1/2+y,1/2+z
1/2+x,1/2-y,1/2+z
-y,-x,z
y,x,z
loop_
_atom_site_type_symbol
_atom_site_label
_atom_site_fract_x
_atom_site_fract_y
_atom_site_fract_z
Si Si1 0.577893 0.947311 0.671195
Si Si2 0.186989 0.987918 0.823455
Si Si3 0.552189 0.447812 0.323159
Si Si4 0.223795 0.589060 0.829091
Si Si5 0.231793 0.231793 0.322537
Si Si6 0.338576 0.338576 0.677281
O O1 0.521716 0.910798 0.767471
O O2 0.555314 0.951023 0.500000
O O3 0.644826 0.905663 0.688176
O O4 0.181004 0.912234 0.764386
O O5 0.124710 0.031532 0.765823
O O6 0.251446 0.024489 0.759578
O O7 0.191520 0.987414 0.000000
O O8 0.500000 0.500000 0.256478
O O9 0.549669 0.450332 0.500000
O O10 0.251674 0.658127 0.763038
O O11 0.245013 0.580232 0.000000
O O12 0.234415 0.234415 0.500000
O O13 0.285274 0.285274 0.260523
O O14 0.339274 0.339274 0.500000
#
# Coordination Sequence:
#
# PCOD8317906 Si02
#       6
#    16  16   8  16   8   8
#     4  10  21  37  58  84 110 141 182 230 279 325
#     4  10  19  32  56  84 109 141 183 225 270 326
#     4   9  15  28  49  79 113 138 173 229 274 309
#     4  10  22  37  56  80 110 147 184 224 273 328
#     4   9  19  37  55  75 110 149 187 223 266 334
#     4   9  18  32  56  85 106 141 188 225 265 325
#
# _framework density 19.756936
#
# number of rings (size 3 to 8) (size 9 to 14) (size 15 to 20)
#    0.000    2.333    1.111    2.000    3.111    1.778 
#    0.000    0.556    0.000    2.000    0.000    0.000 
#    0.000    0.000    0.000    0.000    0.000    0.000 
#
# Total GULP energy -892709.915982 kJ/mol
# GULP energy per Si atom -12398.748833 kJ/mol
# Density = 1.971197 g / cm^3
# Si number density = 19.756936 Si / 1000 Ang^3
#
#
#
# Elastic Constant Matrix: (Units=GPa)
#
#
# Indices 1 2 3 4 5 6 
#
# 1 101.8707 46.5585 14.6856 0.0000 0.0000 0.0000
# 2 46.5585 101.8707 14.6858 0.0000 0.0000 0.0000
# 3 14.6856 14.6858 31.0714 0.0000 0.0000 0.0000
# 4 0.0000 0.0000 0.0000 19.0342 0.0000 0.0000
# 5 0.0000 0.0000 0.0000 0.0000 19.0343 0.0000
# 6 0.0000 0.0000 0.0000 0.0000 0.0000 41.7212
#
#
#
# Elastic Compliance Matrix: (Units=1/GPa)
#
#
# Indices 1 2 3 4 5 6 
#
# 1 0.012756 -0.005323 -0.003513 0.000000 0.000000 0.000000
# 2 -0.005323 0.012756 -0.003513 0.000000 0.000000 0.000000
# 3 -0.003513 -0.003513 0.035505 0.000000 0.000000 0.000000
# 4 0.000000 0.000000 0.000000 0.052537 0.000000 0.000000
# 5 0.000000 0.000000 0.000000 0.000000 0.052537 0.000000
# 6 0.000000 0.000000 0.000000 0.000000 0.000000 0.023969
#
#
# Mechanical properties :
#
#
# Convention : Reuss Voigt Hill
#
# Bulk Modulus (GPa) = 27.53466 42.96362 35.24914
# Shear Modulus (GPa) = 22.03977 26.55014 24.29496
#
# Velocity S-wave (km/s) = 3.34360 3.66982 3.51050
# Velocity P-wave (km/s) = 5.37338 6.30476 5.85761
#
# Compressibility (1/GPa) = 0.03631786
#
# Stress axis : x y z
#
# Youngs Moduli (GPa) = 78.39594 78.39580 28.16538
#
# Poissons Ratio (x) = 0.41733 0.09894
# Poissons Ratio (y) = 0.41733 0.09894
# Poissons Ratio (z) = 0.27539 0.27540
#
# Static dielectric constant tensor:
#      x y z
#    x 3.669470 0.000000 0.000000 
#    y 0.000000 3.669460 0.000000 
#    z 0.000000 0.000000 3.156900 
# 
# 
# High freq. dielectric constant tensor:
#      x y z
#    x 1.779070 0.000000 0.000000 
#    y 0.000000 1.779070 0.000000 
#    z 0.000000 0.000000 1.725210 
# 
# From -- ./inp_files/1669.got.cif
#   From: 2010.03.12/outbox.cif.g09.slc.cpg/sg136_1_cif.got.tgz:1669.got - 2010.04.06 18:39:43.
