data_PCOD8317297
_publ_section_title
;
Structure prediction by ZEFSAII (Michael W. Deem and Ramdas Pophale) SiO2 
 PCOD8317297
Probable space group: P 42/N N M
;
_chemical_formula_sum "Si O2"
_cell_formula_units_Z 96
_cell_length_a 15.043486
_cell_length_b 15.043486
_cell_length_c 21.380115
_cell_angle_alpha 90.000000
_cell_angle_beta 90.000000
_cell_angle_gamma 90.000000
_cell_volume 4838.458376
_symmetry_space_group_name_H-M "P 42/N N M"
_symmetry_group_IT_number 134
_space_group.IT_coordinate_system_code '2'
_symmetry_cell_setting 'tetragonal'
loop_
_space_group_symop_operation_xyz
x,y,z
1/2-y,x,1/2+z
1/2-x,1/2-y,z
y,1/2-x,1/2+z
x,1/2-y,1/2-z
1/2-x,y,1/2-z
y,x,-z
1/2-y,1/2-x,-z
-x,-y,-z
1/2+y,-x,1/2-z
1/2+x,1/2+y,-z
-y,1/2+x,1/2-z
-x,1/2+y,1/2+z
1/2+x,-y,1/2+z
-y,-x,z
1/2+y,1/2+x,z
loop_
_atom_site_type_symbol
_atom_site_label
_atom_site_fract_x
_atom_site_fract_y
_atom_site_fract_z
Si Si1 0.938409 0.916861 0.369972
Si Si2 0.753201 0.995134 0.946441
Si Si3 0.504830 0.146473 0.741354
Si Si4 0.177781 0.677781 0.584255
Si Si5 0.245953 0.498485 0.908046
Si Si6 0.431599 0.080833 0.612286
Si Si7 0.323071 0.823071 0.446081
O O1 0.947867 0.827915 0.411122
O O2 0.842238 0.961813 0.375913
O O3 0.946648 0.893210 0.297469
O O4 0.013907 0.986094 0.392039
O O5 0.845088 0.941362 0.941686
O O6 0.779437 0.090178 0.913401
O O7 0.725048 0.005243 0.018240
O O8 0.520038 0.250000 0.750000
O O9 0.601814 0.101814 0.739885
O O10 0.451844 0.125372 0.678530
O O11 0.250000 0.750000 0.571924
O O12 0.224247 0.595041 0.619521
O O13 0.145167 0.645167 0.515452
O O14 0.327541 0.436734 0.890160
O O15 0.493417 0.993417 0.599806
O O16 0.250000 0.750000 0.447412
#
# Coordination Sequence:
#
# PCOD8317297 Si02
#       7
#    16  16  16   8  16  16   8
#     4  11  24  42  62  91 130 167 207 261 317 371
#     4  11  21  36  60  89 129 165 206 256 314 378
#     4  10  22  43  67  92 123 164 209 256 307 364
#     4   9  18  35  57  85 119 156 213 255 299 368
#     4  11  23  37  61  91 122 171 207 255 319 372
#     4  11  22  40  64  91 125 164 210 262 307 365
#     4   9  18  31  53  87 121 164 203 245 305 374
#
# _framework density 19.841031000000001
#
# number of rings (size 3 to 8) (size 9 to 14) (size 15 to 20)
#    0.000    1.500    3.333    2.000    0.000    4.833 
#    0.000    2.500    0.000    0.000    0.000    0.000 
#    0.000    0.000    0.000    0.000    0.000    0.000 
#
# Total GULP energy -1189991.485069 kJ/mol
# GULP energy per Si atom -12395.744636 kJ/mol
# Density = 1.979587 g / cm^3
# Si number density = 19.841031 Si / 1000 Ang^3
#
#
#
# Elastic Constant Matrix: (Units=GPa)
#
#
# Indices 1 2 3 4 5 6 
#
# 1 128.1820 44.5519 15.2794 0.0000 0.0000 0.0000
# 2 44.5519 128.1820 15.2794 0.0000 0.0000 0.0000
# 3 15.2794 15.2794 38.5387 0.0000 0.0000 0.0000
# 4 0.0000 0.0000 0.0000 2.6474 0.0000 0.0000
# 5 0.0000 0.0000 0.0000 0.0000 2.6474 0.0000
# 6 0.0000 0.0000 0.0000 0.0000 0.0000 36.7744
#
#
#
# Elastic Compliance Matrix: (Units=1/GPa)
#
#
# Indices 1 2 3 4 5 6 
#
# 1 0.009092 -0.002866 -0.002468 0.000000 0.000000 0.000000
# 2 -0.002866 0.009092 -0.002468 0.000000 0.000000 0.000000
# 3 -0.002468 -0.002468 0.027905 0.000000 0.000000 0.000000
# 4 0.000000 0.000000 0.000000 0.377726 0.000000 0.000000
# 5 0.000000 0.000000 0.000000 0.000000 0.377726 0.000000
# 6 0.000000 0.000000 0.000000 0.000000 0.000000 0.027193
#
#
# Mechanical properties :
#
#
# Convention : Reuss Voigt Hill
#
# Bulk Modulus (GPa) = 32.80461 49.45824 41.13142
# Shear Modulus (GPa) = 5.85138 23.06664 14.45901
#
# Velocity S-wave (km/s) = 1.71917 3.41335 2.70245
# Velocity P-wave (km/s) = 4.52883 6.36522 5.52387
#
# Compressibility (1/GPa) = 0.03048352
#
# Stress axis : x y z
#
# Youngs Moduli (GPa) = 109.99066 109.99066 35.83563
#
# Poissons Ratio (x) = 0.31520 0.08846
# Poissons Ratio (y) = 0.31520 0.08846
# Poissons Ratio (z) = 0.27150 0.27150
#
# Static dielectric constant tensor:
#      x y z
#    x 3.679250 0.000000 0.000000 
#    y 0.000000 3.679250 0.000000 
#    z 0.000000 0.000000 3.614630 
# 
# 
# High freq. dielectric constant tensor:
#      x y z
#    x 1.782090 0.000000 0.000000 
#    y 0.000000 1.782090 0.000000 
#    z 0.000000 0.000000 1.755130 
# 
# From -- ./inp_files/9190.got.cif
#   From: 2010.03.12/outbox.cif.g09.slc.cpg/sg134_5_cif.got.tgz:9190.got - 2010.04.06 18:17:22.
