data_PCOD8317633
_publ_section_title
;
Structure prediction by ZEFSAII (Michael W. Deem and Ramdas Pophale) SiO2 
 PCOD8317633
Probable space group: P 42/M B C
;
_chemical_formula_sum "Si O2"
_cell_formula_units_Z 96
_cell_length_a 14.827759
_cell_length_b 14.827759
_cell_length_c 21.950564
_cell_angle_alpha 90.000000
_cell_angle_beta 90.000000
_cell_angle_gamma 90.000000
_cell_volume 4826.104494
_symmetry_space_group_name_H-M "P 42/M B C"
_symmetry_group_IT_number 135
_symmetry_cell_setting 'tetragonal'
loop_
_space_group_symop_operation_xyz
x,y,z
-y,x,1/2+z
-x,-y,z
y,-x,1/2+z
1/2+x,1/2-y,-z
1/2-x,1/2+y,-z
1/2+y,1/2+x,1/2-z
1/2-y,1/2-x,1/2-z
-x,-y,-z
y,-x,1/2-z
x,y,-z
-y,x,1/2-z
1/2-x,1/2+y,z
1/2+x,1/2-y,z
1/2-y,1/2-x,1/2+z
1/2+y,1/2+x,1/2+z
loop_
_atom_site_type_symbol
_atom_site_label
_atom_site_fract_x
_atom_site_fract_y
_atom_site_fract_z
Si Si1 0.854792 0.025788 0.500000
Si Si2 0.144734 0.981445 0.000000
Si Si3 0.812051 0.167057 0.820281
Si Si4 0.239817 0.012040 0.378817
Si Si5 0.489941 0.261151 0.379429
Si Si6 0.833500 0.813194 0.820820
Si Si7 0.924665 0.424533 0.429802
O O1 0.792489 0.030000 0.441702
O O2 0.914264 0.937395 0.500000
O O3 0.914882 0.114806 0.500000
O O4 0.203387 0.963418 0.940675
O O5 0.903684 0.178821 0.858497
O O6 0.835952 0.180420 0.749797
O O7 0.740578 0.241265 0.843070
O O8 0.768946 0.067992 0.828823
O O9 0.342526 0.040509 0.388862
O O10 0.229647 0.932585 0.329448
O O11 0.405097 0.321650 0.358939
O O12 0.461562 0.159131 0.391363
O O13 0.897000 0.398605 0.500000
O O14 0.000000 0.500000 0.432199
#
# Coordination Sequence:
#
# PCOD8317633 Si02
#       7
#     8   8  16  16  16  16  16
#     4  11  22  37  60  95 131 162 194 257 327 382
#     4  11  22  37  60  95 131 162 194 257 327 382
#     4  11  25  43  64  91 126 168 217 265 311 371
#     4  12  22  42  66  93 128 166 212 259 320 376
#     4  12  22  42  66  93 128 166 212 259 320 376
#     4  11  25  43  64  91 126 168 217 265 311 371
#     4  11  24  40  63  97 135 170 206 254 317 387
#
# _framework density 19.891818000000001
#
# number of rings (size 3 to 8) (size 9 to 14) (size 15 to 20)
#    0.000    0.667    6.667    2.000    0.000    0.667 
#    0.000    3.333    0.000    4.000    0.000    0.000 
#    0.000    0.000    0.000    0.000    0.000    0.000 
#
# Total GULP energy -1190781.193815 kJ/mol
# GULP energy per Si atom -12403.970769 kJ/mol
# Density = 1.984654 g / cm^3
# Si number density = 19.891818 Si / 1000 Ang^3
#
#
#
# Elastic Constant Matrix: (Units=GPa)
#
#
# Indices 1 2 3 4 5 6 
#
# 1 91.4316 17.1144 17.9286 0.0000 0.0000 0.0000
# 2 17.1144 91.4316 17.9286 0.0000 0.0000 0.0000
# 3 17.9286 17.9286 63.4754 0.0000 0.0000 0.0000
# 4 0.0000 0.0000 0.0000 30.2718 0.0000 0.0000
# 5 0.0000 0.0000 0.0000 0.0000 30.2718 0.0000
# 6 0.0000 0.0000 0.0000 0.0000 0.0000 32.7259
#
#
#
# Elastic Compliance Matrix: (Units=1/GPa)
#
#
# Indices 1 2 3 4 5 6 
#
# 1 0.011808 -0.001648 -0.002870 0.000000 0.000000 0.000000
# 2 -0.001648 0.011808 -0.002870 0.000000 0.000000 0.000000
# 3 -0.002870 -0.002870 0.017375 0.000000 0.000000 0.000000
# 4 0.000000 0.000000 0.000000 0.033034 0.000000 0.000000
# 5 0.000000 0.000000 0.000000 0.000000 0.033034 0.000000
# 6 0.000000 0.000000 0.000000 0.000000 0.000000 0.030557
#
#
# Mechanical properties :
#
#
# Convention : Reuss Voigt Hill
#
# Bulk Modulus (GPa) = 38.14288 39.14243 38.64265
# Shear Modulus (GPa) = 31.03074 31.54504 31.28789
#
# Velocity S-wave (km/s) = 3.95394 3.98657 3.97029
# Velocity P-wave (km/s) = 6.32942 6.39615 6.36287
#
# Compressibility (1/GPa) = 0.02621721
#
# Stress axis : x y z
#
# Youngs Moduli (GPa) = 84.68634 84.68634 57.55288
#
# Poissons Ratio (x) = 0.13953 0.16517
# Poissons Ratio (y) = 0.13953 0.16517
# Poissons Ratio (z) = 0.24304 0.24304
#
# Static dielectric constant tensor:
#      x y z
#    x 3.602480 0.000000 0.000000 
#    y 0.000000 3.602480 0.000000 
#    z 0.000000 0.000000 3.663340 
# 
# 
# High freq. dielectric constant tensor:
#      x y z
#    x 1.781060 0.000000 0.000000 
#    y 0.000000 1.781060 0.000000 
#    z 0.000000 0.000000 1.781180 
# 
# From -- ./inp_files/5499.got.cif
#   From: 2010.03.12/outbox.cif.g09.slc.cpg/sg135_3_cif.got.tgz:5499.got - 2010.04.06 18:31:24.
