data_PCOD8317526
_publ_section_title
;
Structure prediction by ZEFSAII (Michael W. Deem and Ramdas Pophale) SiO2 
 PCOD8317526
Probable space group: P 42/M B C
;
_chemical_formula_sum "Si O2"
_cell_formula_units_Z 112
_cell_length_a 13.612700
_cell_length_b 13.612700
_cell_length_c 23.969076
_cell_angle_alpha 90.000000
_cell_angle_beta 90.000000
_cell_angle_gamma 90.000000
_cell_volume 4441.604041
_symmetry_space_group_name_H-M "P 42/M B C"
_symmetry_group_IT_number 135
_symmetry_cell_setting 'tetragonal'
loop_
_space_group_symop_operation_xyz
x,y,z
-y,x,1/2+z
-x,-y,z
y,-x,1/2+z
1/2+x,1/2-y,-z
1/2-x,1/2+y,-z
1/2+y,1/2+x,1/2-z
1/2-y,1/2-x,1/2-z
-x,-y,-z
y,-x,1/2-z
x,y,-z
-y,x,1/2-z
1/2-x,1/2+y,z
1/2+x,1/2-y,z
1/2-y,1/2-x,1/2+z
1/2+y,1/2+x,1/2+z
loop_
_atom_site_type_symbol
_atom_site_label
_atom_site_fract_x
_atom_site_fract_y
_atom_site_fract_z
Si Si1 0.602141 0.777277 0.562109
Si Si2 0.340732 0.762483 0.677452
Si Si3 0.461842 0.230574 0.062250
Si Si4 0.172317 0.126925 0.827098
Si Si5 0.986985 0.325604 0.255159
Si Si6 0.537738 0.669265 0.170768
Si Si7 0.113990 0.343279 0.562115
O O1 0.612933 0.731315 0.500000
O O2 0.685464 0.855953 0.574913
O O3 0.613092 0.689314 0.606456
O O4 0.502623 0.839113 0.567235
O O5 0.232729 0.794648 0.696773
O O6 0.409467 0.839791 0.712054
O O7 0.365199 0.646366 0.691297
O O8 0.342972 0.773845 0.610431
O O9 0.470336 0.321942 0.104058
O O10 0.545717 0.149010 0.071970
O O11 0.467909 0.273339 0.000000
O O12 0.240491 0.053327 0.794953
O O13 0.057205 0.102157 0.812966
O O14 0.927569 0.427569 0.250000
O O15 0.987683 0.278937 0.193710
O O16 0.147592 0.306313 0.500000
#
# Coordination Sequence:
#
# PCOD8317526 Si02
#       7
#    16  16  16  16  16  16  16
#     4  10  20  40  70 101 142 190 234 299 374 442
#     4  12  25  46  74 106 144 189 243 304 371 444
#     4  10  20  38  68 105 139 182 238 299 368 442
#     4  12  25  47  73 102 144 186 247 299 367 452
#     4  12  26  49  74  98 142 190 240 305 367 436
#     4  12  26  42  70 105 139 186 240 296 366 446
#     4  10  21  40  69 107 145 187 243 303 367 442
#
# _framework density 25.216114999999999
#
# number of rings (size 3 to 8) (size 9 to 14) (size 15 to 20)
#    0.000    0.857    5.714    1.286    0.000    4.000 
#    0.000    2.857    0.000    1.714    0.000    0.000 
#    0.000    0.000    0.000    0.000    0.000    0.000 
#
# Total GULP energy -1388004.695589 kJ/mol
# GULP energy per Si atom -12392.899068 kJ/mol
# Density = 2.515872 g / cm^3
# Si number density = 25.216115 Si / 1000 Ang^3
#
#
#
# Elastic Constant Matrix: (Units=GPa)
#
#
# Indices 1 2 3 4 5 6 
#
# 1 87.1464 12.8019 23.9064 0.0000 0.0000 0.0000
# 2 12.8019 87.1464 23.9064 0.0000 0.0000 0.0000
# 3 23.9064 23.9064 85.8968 0.0000 0.0000 0.0000
# 4 0.0000 0.0000 0.0000 31.9559 0.0000 0.0000
# 5 0.0000 0.0000 0.0000 0.0000 31.9559 0.0000
# 6 0.0000 0.0000 0.0000 0.0000 0.0000 38.5629
#
#
#
# Elastic Compliance Matrix: (Units=1/GPa)
#
#
# Indices 1 2 3 4 5 6 
#
# 1 0.012496 -0.000955 -0.003212 0.000000 0.000000 0.000000
# 2 -0.000955 0.012496 -0.003212 0.000000 0.000000 0.000000
# 3 -0.003212 -0.003212 0.013430 0.000000 0.000000 0.000000
# 4 0.000000 0.000000 0.000000 0.031293 0.000000 0.000000
# 5 0.000000 0.000000 0.000000 0.000000 0.031293 0.000000
# 6 0.000000 0.000000 0.000000 0.000000 0.000000 0.025932
#
#
# Mechanical properties :
#
#
# Convention : Reuss Voigt Hill
#
# Bulk Modulus (GPa) = 42.25734 42.37989 42.31862
# Shear Modulus (GPa) = 33.42537 33.79991 33.61264
#
# Velocity S-wave (km/s) = 3.64477 3.66513 3.65496
# Velocity P-wave (km/s) = 5.87426 5.89526 5.88477
#
# Compressibility (1/GPa) = 0.02366453
#
# Stress axis : x y z
#
# Youngs Moduli (GPa) = 80.02326 80.02326 74.46061
#
# Poissons Ratio (x) = 0.07638 0.23919
# Poissons Ratio (y) = 0.07638 0.23919
# Poissons Ratio (z) = 0.25706 0.25706
#
# Static dielectric constant tensor:
#      x y z
#    x 4.477220 0.000000 0.000000 
#    y 0.000000 4.477220 0.000000 
#    z 0.000000 0.000000 5.294000 
# 
# 
# High freq. dielectric constant tensor:
#      x y z
#    x 1.995010 0.000000 0.000000 
#    y 0.000000 1.995010 0.000000 
#    z 0.000000 0.000000 2.030590 
# 
# From -- ./inp_files/6136.got.cif
#   From: 2010.03.12/outbox.cif.g09.slc.cpg/sg135_4_cif.got.tgz:6136.got - 2010.04.06 18:31:24.
