data_PCOD8317434
_publ_section_title
;
Structure prediction by ZEFSAII (Michael W. Deem and Ramdas Pophale) SiO2 
 PCOD8317434
Probable space group: P 42/M B C
;
_chemical_formula_sum "Si O2"
_cell_formula_units_Z 128
_cell_length_a 19.650168
_cell_length_b 19.650168
_cell_length_c 18.203417
_cell_angle_alpha 90.000000
_cell_angle_beta 90.000000
_cell_angle_gamma 90.000000
_cell_volume 7028.869067
_symmetry_space_group_name_H-M "P 42/M B C"
_symmetry_group_IT_number 135
_symmetry_cell_setting 'tetragonal'
loop_
_space_group_symop_operation_xyz
x,y,z
-y,x,1/2+z
-x,-y,z
y,-x,1/2+z
1/2+x,1/2-y,-z
1/2-x,1/2+y,-z
1/2+y,1/2+x,1/2-z
1/2-y,1/2-x,1/2-z
-x,-y,-z
y,-x,1/2-z
x,y,-z
-y,x,1/2-z
1/2-x,1/2+y,z
1/2+x,1/2-y,z
1/2-y,1/2-x,1/2+z
1/2+y,1/2+x,1/2+z
loop_
_atom_site_type_symbol
_atom_site_label
_atom_site_fract_x
_atom_site_fract_y
_atom_site_fract_z
Si Si1 0.941584 0.449567 0.414470
Si Si2 0.245546 0.710269 0.670840
Si Si3 0.591223 0.807265 0.654069
Si Si4 0.087834 0.835126 0.413821
Si Si5 0.100467 0.025610 0.778146
Si Si6 0.232483 0.067637 0.701647
Si Si7 0.746090 0.663031 0.414856
Si Si8 0.479782 0.799885 0.915290
O O1 0.950770 0.431737 0.500000
O O2 0.943533 0.377778 0.371317
O O3 0.874807 0.493685 0.399850
O O4 0.000000 0.500000 0.385612
O O5 0.243728 0.743728 0.750000
O O6 0.171882 0.685959 0.641234
O O7 0.291694 0.642540 0.674361
O O8 0.277848 0.768412 0.619722
O O9 0.565462 0.742346 0.606169
O O10 0.575434 0.795613 0.740772
O O11 0.073822 0.849391 0.500000
O O12 0.046560 0.890546 0.364315
O O13 0.167037 0.845416 0.392216
O O14 0.173644 0.028761 0.742577
O O15 0.051132 0.074370 0.730751
O O16 0.248494 0.025284 0.629967
O O17 0.752687 0.674212 0.500000
O O18 0.790788 0.598409 0.389234
O O19 0.486639 0.778636 0.000000
#
# Coordination Sequence:
#
# PCOD8317434 Si02
#       8
#    16  16  16  16  16  16  16  16
#     4  10  20  34  52  75 108 147 180 212 264 324
#     4   9  17  30  51  75 101 130 171 221 262 302
#     4   9  17  32  53  78 104 134 178 228 260 305
#     4   9  17  32  57  81 101 136 186 225 258 314
#     4  10  21  37  54  77 110 142 170 215 277 329
#     4  10  19  33  56  77 102 135 180 226 268 323
#     4   9  18  32  51  77 106 136 174 221 268 313
#     4  10  20  34  52  75 107 140 175 221 274 325
#
# _framework density 18.210611
#
# number of rings (size 3 to 8) (size 9 to 14) (size 15 to 20)
#    0.000    2.500    1.250    1.875    0.000    1.000 
#    0.000    6.875    0.000    1.500    0.000    0.000 
#    0.000    0.000    0.000    0.000    0.000    0.000 
#
# Total GULP energy -1586528.396758 kJ/mol
# GULP energy per Si atom -12394.753100 kJ/mol
# Density = 1.816916 g / cm^3
# Si number density = 18.210611 Si / 1000 Ang^3
#
#
#
# Elastic Constant Matrix: (Units=GPa)
#
#
# Indices 1 2 3 4 5 6 
#
# 1 73.2102 39.8022 40.3701 0.0000 0.0000 0.0000
# 2 39.8022 73.2102 40.3701 0.0000 0.0000 0.0000
# 3 40.3701 40.3701 77.1707 0.0000 0.0000 0.0000
# 4 0.0000 0.0000 0.0000 22.6639 0.0000 0.0000
# 5 0.0000 0.0000 0.0000 0.0000 22.6639 0.0000
# 6 0.0000 0.0000 0.0000 0.0000 0.0000 25.4763
#
#
#
# Elastic Compliance Matrix: (Units=1/GPa)
#
#
# Indices 1 2 3 4 5 6 
#
# 1 0.022031 -0.007902 -0.007391 0.000000 0.000000 0.000000
# 2 -0.007902 0.022031 -0.007391 0.000000 0.000000 0.000000
# 3 -0.007391 -0.007391 0.020692 0.000000 0.000000 0.000000
# 4 0.000000 0.000000 0.000000 0.044123 0.000000 0.000000
# 5 0.000000 0.000000 0.000000 0.000000 0.044123 0.000000
# 6 0.000000 0.000000 0.000000 0.000000 0.000000 0.039252
#
#
# Mechanical properties :
#
#
# Convention : Reuss Voigt Hill
#
# Bulk Modulus (GPa) = 51.58765 51.63069 51.60917
# Shear Modulus (GPa) = 20.48484 21.03073 20.75778
#
# Velocity S-wave (km/s) = 3.35757 3.40201 3.37986
# Velocity P-wave (km/s) = 6.58945 6.62156 6.60553
#
# Compressibility (1/GPa) = 0.01938449
#
# Stress axis : x y z
#
# Youngs Moduli (GPa) = 45.39032 45.39032 48.32875
#
# Poissons Ratio (x) = 0.35867 0.35722
# Poissons Ratio (y) = 0.35867 0.35722
# Poissons Ratio (z) = 0.33550 0.33550
#
# Static dielectric constant tensor:
#      x y z
#    x 3.394560 0.000000 0.000000 
#    y 0.000000 3.394560 0.000000 
#    z 0.000000 0.000000 3.429980 
# 
# 
# High freq. dielectric constant tensor:
#      x y z
#    x 1.692340 0.000000 0.000000 
#    y 0.000000 1.692340 0.000000 
#    z 0.000000 0.000000 1.706340 
# 
# From -- ./inp_files/4750.got.cif
#   From: 2010.03.12/outbox.cif.g09.slc.cpg/sg135_3_cif.got.tgz:4750.got - 2010.04.06 18:31:24.
