data_PCOD8317465
_publ_section_title
;
Structure prediction by ZEFSAII (Michael W. Deem and Ramdas Pophale) SiO2 
 PCOD8317465
Probable space group: P 42/M B C
;
_chemical_formula_sum "Si O2"
_cell_formula_units_Z 96
_cell_length_a 25.070902
_cell_length_b 25.070902
_cell_length_c 8.771249
_cell_angle_alpha 90.000000
_cell_angle_beta 90.000000
_cell_angle_gamma 90.000000
_cell_volume 5513.169674
_symmetry_space_group_name_H-M "P 42/M B C"
_symmetry_group_IT_number 135
_symmetry_cell_setting 'tetragonal'
loop_
_space_group_symop_operation_xyz
x,y,z
-y,x,1/2+z
-x,-y,z
y,-x,1/2+z
1/2+x,1/2-y,-z
1/2-x,1/2+y,-z
1/2+y,1/2+x,1/2-z
1/2-y,1/2-x,1/2-z
-x,-y,-z
y,-x,1/2-z
x,y,-z
-y,x,1/2-z
1/2-x,1/2+y,z
1/2+x,1/2-y,z
1/2-y,1/2-x,1/2+z
1/2+y,1/2+x,1/2+z
loop_
_atom_site_type_symbol
_atom_site_label
_atom_site_fract_x
_atom_site_fract_y
_atom_site_fract_z
Si Si1 0.439274 0.621102 0.164360
Si Si2 0.247445 0.665485 0.181450
Si Si3 0.863236 0.947524 0.670250
Si Si4 0.438564 0.746563 0.170307
Si Si5 0.826114 0.756344 0.318711
Si Si6 0.454439 0.255165 0.324295
O O1 0.401323 0.602643 0.299452
O O2 0.499705 0.599679 0.184283
O O3 0.446577 0.684000 0.166487
O O4 0.415959 0.602640 0.000000
O O5 0.199505 0.699505 0.250000
O O6 0.304064 0.687006 0.251143
O O7 0.234031 0.604154 0.227275
O O8 0.250944 0.672303 0.000000
O O9 0.838778 0.941589 0.500000
O O10 0.818074 0.950311 0.797493
O O11 0.386769 0.757954 0.273135
O O12 0.494521 0.770835 0.236343
O O13 0.429699 0.769766 0.000000
O O14 0.790138 0.709863 0.250000
O O15 0.821183 0.757852 0.500000
O O16 0.464615 0.243044 0.500000
#
# Coordination Sequence:
#
# PCOD8317465 Si02
#       6
#    16  16  16  16  16  16
#     4   9  19  32  43  58  81 109 144 188 233 277
#     4  10  20  33  50  73 101 131 165 204 246 294
#     4  10  20  31  44  61  80 109 148 189 234 280
#     4  10  20  34  50  69  94 123 157 195 236 285
#     4  11  21  33  51  74 101 132 166 203 246 293
#     4  10  20  33  49  69  93 122 155 193 236 283
#
# _framework density 17.412849999999999
#
# number of rings (size 3 to 8) (size 9 to 14) (size 15 to 20)
#    0.000    2.000    0.000    6.500    0.000   11.000 
#    0.000    1.667    0.000    0.000    0.000    0.000 
#    0.000    0.667    0.000    7.000    0.000    3.833 
#
# Total GULP energy -1189507.826614 kJ/mol
# GULP energy per Si atom -12390.706527 kJ/mol
# Density = 1.737322 g / cm^3
# Si number density = 17.412850 Si / 1000 Ang^3
#
#
#
# Elastic Constant Matrix: (Units=GPa)
#
#
# Indices 1 2 3 4 5 6 
#
# 1 75.5370 16.6859 36.2713 0.0000 0.0000 0.0000
# 2 16.6859 75.5361 36.2712 0.0000 0.0000 0.0000
# 3 36.2713 36.2712 99.1043 0.0000 0.0000 0.0000
# 4 0.0000 0.0000 0.0000 23.1484 0.0000 0.0000
# 5 0.0000 0.0000 0.0000 0.0000 23.1478 0.0000
# 6 0.0000 0.0000 0.0000 0.0000 0.0000 17.9392
#
#
#
# Elastic Compliance Matrix: (Units=1/GPa)
#
#
# Indices 1 2 3 4 5 6 
#
# 1 0.016110 -0.000883 -0.005573 0.000000 0.000000 0.000000
# 2 -0.000883 0.016110 -0.005573 0.000000 0.000000 0.000000
# 3 -0.005573 -0.005573 0.014170 0.000000 0.000000 0.000000
# 4 0.000000 0.000000 0.000000 0.043200 0.000000 0.000000
# 5 0.000000 0.000000 0.000000 0.000000 0.043201 0.000000
# 6 0.000000 0.000000 0.000000 0.000000 0.000000 0.055744
#
#
# Mechanical properties :
#
#
# Convention : Reuss Voigt Hill
#
# Bulk Modulus (GPa) = 44.77887 47.62602 46.20244
# Shear Modulus (GPa) = 22.72378 23.57702 23.15040
#
# Velocity S-wave (km/s) = 3.61640 3.68367 3.65019
# Velocity P-wave (km/s) = 6.57340 6.74559 6.66005
#
# Compressibility (1/GPa) = 0.02233196
#
# Stress axis : x y z
#
# Youngs Moduli (GPa) = 62.07514 62.07431 70.57324
#
# Poissons Ratio (x) = 0.05478 0.39330
# Poissons Ratio (y) = 0.05478 0.39330
# Poissons Ratio (z) = 0.34594 0.34594
#
# Static dielectric constant tensor:
#      x y z
#    x 3.226150 0.000000 0.000000 
#    y 0.000000 3.226140 0.000000 
#    z 0.000000 0.000000 3.587130 
# 
# 
# High freq. dielectric constant tensor:
#      x y z
#    x 1.645990 0.000000 0.000000 
#    y 0.000000 1.645990 0.000000 
#    z 0.000000 0.000000 1.689380 
# 
# From -- ./inp_files/1205.got.cif
#   From: 2010.03.12/outbox.cif.g09.slc.cpg/sg135_1_cif.got.tgz:1205.got - 2010.04.06 18:31:24.
