data_PCOD8317236
_publ_section_title
;
Structure prediction by ZEFSAII (Michael W. Deem and Ramdas Pophale) SiO2 
 PCOD8317236
Probable space group: P 42/N N M
;
_chemical_formula_sum "Si O2"
_cell_formula_units_Z 96
_cell_length_a 20.666354
_cell_length_b 20.666354
_cell_length_c 11.264098
_cell_angle_alpha 90.000000
_cell_angle_beta 90.000000
_cell_angle_gamma 90.000000
_cell_volume 4810.875841
_symmetry_space_group_name_H-M "P 42/N N M"
_symmetry_group_IT_number 134
_space_group.IT_coordinate_system_code '2'
_symmetry_cell_setting 'tetragonal'
loop_
_space_group_symop_operation_xyz
x,y,z
1/2-y,x,1/2+z
1/2-x,1/2-y,z
y,1/2-x,1/2+z
x,1/2-y,1/2-z
1/2-x,y,1/2-z
y,x,-z
1/2-y,1/2-x,-z
-x,-y,-z
1/2+y,-x,1/2-z
1/2+x,1/2+y,-z
-y,1/2+x,1/2-z
-x,1/2+y,1/2+z
1/2+x,-y,1/2+z
-y,-x,z
1/2+y,1/2+x,z
loop_
_atom_site_type_symbol
_atom_site_label
_atom_site_fract_x
_atom_site_fract_y
_atom_site_fract_z
Si Si1 0.671442 0.066528 0.924947
Si Si2 0.119690 0.250000 0.750000
Si Si3 0.989986 0.742785 0.878875
Si Si4 0.750000 0.354779 0.750000
Si Si5 0.878094 0.850390 0.634347
Si Si6 0.063313 0.161074 0.948609
Si Si7 0.585804 0.519132 0.741893
O O1 0.618309 0.118309 0.964105
O O2 0.732361 0.101129 0.862542
O O3 0.641703 0.015115 0.833995
O O4 0.693923 0.032482 0.044532
O O5 0.162163 0.308573 0.803363
O O6 0.076922 0.220484 0.857491
O O7 0.023961 0.750000 0.750000
O O8 0.918204 0.715019 0.856089
O O9 0.980299 0.811613 0.943966
O O10 0.811175 0.311175 0.711647
O O11 0.869829 0.869829 0.500000
O O12 0.919374 0.907156 0.698027
O O13 0.020585 0.107256 0.879911
O O14 0.129275 0.129275 0.000000
O O15 0.517304 0.482697 0.729287
#
# Coordination Sequence:
#
# PCOD8317236 Si02
#       7
#    16   8  16   8  16  16  16
#     4  10  20  36  60  89 116 151 198 240 294 360
#     4  10  20  39  61  79 111 144 195 247 288 344
#     4  12  23  39  58  82 121 159 197 246 301 358
#     4   9  18  35  62  93 119 146 192 252 298 344
#     4  11  20  38  61  86 111 153 196 244 303 349
#     4  11  22  39  59  84 114 154 196 238 298 357
#     4  10  21  37  61  89 117 149 193 246 296 353
#
# _framework density 19.954785999999999
#
# number of rings (size 3 to 8) (size 9 to 14) (size 15 to 20)
#    0.000    1.417    3.333    4.000    0.000    2.000 
#    0.000    6.250    0.000    0.000    0.000    0.000 
#    0.000    0.000    0.000    0.000    0.000    0.000 
#
# Total GULP energy -1190404.227023 kJ/mol
# GULP energy per Si atom -12400.044031 kJ/mol
# Density = 1.990937 g / cm^3
# Si number density = 19.954786 Si / 1000 Ang^3
#
#
#
# Elastic Constant Matrix: (Units=GPa)
#
#
# Indices 1 2 3 4 5 6 
#
# 1 56.9410 28.8634 36.4326 0.0000 0.0000 0.0000
# 2 28.8634 56.9410 36.4326 0.0000 0.0000 0.0000
# 3 36.4326 36.4326 138.7605 0.0000 0.0000 0.0000
# 4 0.0000 0.0000 0.0000 31.7481 0.0000 0.0000
# 5 0.0000 0.0000 0.0000 0.0000 31.7481 0.0000
# 6 0.0000 0.0000 0.0000 0.0000 0.0000 19.1099
#
#
#
# Elastic Compliance Matrix: (Units=1/GPa)
#
#
# Indices 1 2 3 4 5 6 
#
# 1 0.025307 -0.010309 -0.003938 0.000000 0.000000 0.000000
# 2 -0.010309 0.025307 -0.003938 0.000000 0.000000 0.000000
# 3 -0.003938 -0.003938 0.009275 0.000000 0.000000 0.000000
# 4 0.000000 0.000000 0.000000 0.031498 0.000000 0.000000
# 5 0.000000 0.000000 0.000000 0.000000 0.031498 0.000000
# 6 0.000000 0.000000 0.000000 0.000000 0.000000 0.052329
#
#
# Mechanical properties :
#
#
# Convention : Reuss Voigt Hill
#
# Bulk Modulus (GPa) = 42.51746 50.67771 46.59759
# Shear Modulus (GPa) = 22.78711 26.58215 24.68463
#
# Velocity S-wave (km/s) = 3.38292 3.65378 3.52096
# Velocity P-wave (km/s) = 6.05079 6.57659 6.31916
#
# Compressibility (1/GPa) = 0.02351975
#
# Stress axis : x y z
#
# Youngs Moduli (GPa) = 39.51463 39.51463 107.82194
#
# Poissons Ratio (x) = 0.40734 0.42460
# Poissons Ratio (y) = 0.40734 0.42460
# Poissons Ratio (z) = 0.15561 0.15561
#
# Static dielectric constant tensor:
#      x y z
#    x 3.646330 0.000000 0.000000 
#    y 0.000000 3.646330 0.000000 
#    z 0.000000 0.000000 3.896590 
# 
# 
# High freq. dielectric constant tensor:
#      x y z
#    x 1.766910 0.000000 0.000000 
#    y 0.000000 1.766910 0.000000 
#    z 0.000000 0.000000 1.787620 
# 
# From -- ./inp_files/5097.got.cif
#   From: 2010.03.12/outbox.cif.g09.slc.cpg/sg134_3_cif.got.tgz:5097.got - 2010.04.06 18:17:22.
