data_PCOD8317563
_publ_section_title
;
Structure prediction by ZEFSAII (Michael W. Deem and Ramdas Pophale) SiO2 
 PCOD8317563
Probable space group: P 42/M B C
;
_chemical_formula_sum "Si O2"
_cell_formula_units_Z 112
_cell_length_a 14.060298
_cell_length_b 14.060298
_cell_length_c 25.906824
_cell_angle_alpha 90.000000
_cell_angle_beta 90.000000
_cell_angle_gamma 90.000000
_cell_volume 5121.571328
_symmetry_space_group_name_H-M "P 42/M B C"
_symmetry_group_IT_number 135
_symmetry_cell_setting 'tetragonal'
loop_
_space_group_symop_operation_xyz
x,y,z
-y,x,1/2+z
-x,-y,z
y,-x,1/2+z
1/2+x,1/2-y,-z
1/2-x,1/2+y,-z
1/2+y,1/2+x,1/2-z
1/2-y,1/2-x,1/2-z
-x,-y,-z
y,-x,1/2-z
x,y,-z
-y,x,1/2-z
1/2-x,1/2+y,z
1/2+x,1/2-y,z
1/2-y,1/2-x,1/2+z
1/2+y,1/2+x,1/2+z
loop_
_atom_site_type_symbol
_atom_site_label
_atom_site_fract_x
_atom_site_fract_y
_atom_site_fract_z
Si Si1 0.289625 0.044193 0.941483
Si Si2 0.366432 0.838189 0.611493
Si Si3 0.731279 0.497027 0.625261
Si Si4 0.255479 0.680973 0.559368
Si Si5 0.758926 0.610101 0.779155
Si Si6 0.593370 0.750250 0.238128
Si Si7 0.922317 0.079454 0.441836
O O1 0.304437 0.149394 0.919879
O O2 0.178032 0.020347 0.936709
O O3 0.350756 0.975382 0.905238
O O4 0.326085 0.034343 0.000000
O O5 0.312532 0.778397 0.567580
O O6 0.356700 0.773545 0.662393
O O7 0.328972 0.945612 0.616776
O O8 0.705280 0.410364 0.588220
O O9 0.736988 0.457489 0.682955
O O10 0.649596 0.571768 0.607295
O O11 0.259137 0.655485 0.500000
O O12 0.854402 0.645599 0.750000
O O13 0.746913 0.495626 0.777545
O O14 0.665820 0.661796 0.754636
O O15 0.651932 0.848069 0.250000
O O16 0.874084 0.076865 0.500000
O O17 0.000000 0.000000 0.436332
#
# Coordination Sequence:
#
# PCOD8317563 Si02
#       7
#    16  16  16  16  16  16  16
#     4  10  23  40  62  98 141 182 219 276 340 403
#     4  12  24  42  72  99 136 179 234 278 348 413
#     4  12  24  43  70 103 133 185 232 284 349 416
#     4  11  24  43  66 100 142 184 227 275 338 407
#     4  11  25  48  71 102 134 181 234 295 350 420
#     4  11  27  48  72 100 142 177 235 297 356 420
#     4  10  21  39  65 100 139 177 230 282 333 406
#
# _framework density 21.868289000000001
#
# number of rings (size 3 to 8) (size 9 to 14) (size 15 to 20)
#    0.000    1.000    4.286    1.714    2.000    5.143 
#    0.000    1.429    0.000    0.000    0.000    0.000 
#    0.000    0.000    0.000    0.000    0.000    0.000 
#
# Total GULP energy -1388208.339690 kJ/mol
# GULP energy per Si atom -12394.717319 kJ/mol
# Density = 2.181852 g / cm^3
# Si number density = 21.868289 Si / 1000 Ang^3
#
#
#
# Elastic Constant Matrix: (Units=GPa)
#
#
# Indices 1 2 3 4 5 6 
#
# 1 66.8641 0.5232 6.0988 0.0000 0.0000 0.0000
# 2 0.5232 66.8653 6.0987 0.0000 0.0000 0.0000
# 3 6.0988 6.0987 70.5754 0.0000 0.0000 0.0000
# 4 0.0000 0.0000 0.0000 26.4454 0.0000 0.0000
# 5 0.0000 0.0000 0.0000 0.0000 26.4457 0.0000
# 6 0.0000 0.0000 0.0000 0.0000 0.0000 32.4850
#
#
#
# Elastic Compliance Matrix: (Units=1/GPa)
#
#
# Indices 1 2 3 4 5 6 
#
# 1 0.015075 0.000001 -0.001303 0.000000 0.000000 0.000000
# 2 0.000001 0.015074 -0.001303 0.000000 0.000000 0.000000
# 3 -0.001303 -0.001303 0.014394 0.000000 0.000000 0.000000
# 4 0.000000 0.000000 0.000000 0.037814 0.000000 0.000000
# 5 0.000000 0.000000 0.000000 0.000000 0.037813 0.000000
# 6 0.000000 0.000000 0.000000 0.000000 0.000000 0.030783
#
#
# Mechanical properties :
#
#
# Convention : Reuss Voigt Hill
#
# Bulk Modulus (GPa) = 25.42330 25.52736 25.47533
# Shear Modulus (GPa) = 29.53787 29.84748 29.69267
#
# Velocity S-wave (km/s) = 3.67920 3.69843 3.68883
# Velocity P-wave (km/s) = 5.44973 5.47142 5.46058
#
# Compressibility (1/GPa) = 0.03933400
#
# Stress axis : x y z
#
# Youngs Moduli (GPa) = 66.33704 66.33825 69.47151
#
# Poissons Ratio (x) = -0.00006 0.09050
# Poissons Ratio (y) = -0.00006 0.09050
# Poissons Ratio (z) = 0.08642 0.08642
#
# Static dielectric constant tensor:
#      x y z
#    x 4.069830 0.000000 0.000000 
#    y 0.000000 4.069830 0.000000 
#    z 0.000000 0.000000 4.024310 
# 
# 
# High freq. dielectric constant tensor:
#      x y z
#    x 1.861080 0.000000 0.000000 
#    y 0.000000 1.861080 0.000000 
#    z 0.000000 0.000000 1.857080 
# 
# From -- ./inp_files/6108.got.cif
#   From: 2010.03.12/outbox.cif.g09.slc.cpg/sg135_4_cif.got.tgz:6108.got - 2010.04.06 18:31:24.
