data_PCOD8317949
_publ_section_title
;
Structure prediction by ZEFSAII (Michael W. Deem and Ramdas Pophale) SiO2 
 PCOD8317949
Probable space group: P 42/M N M
;
_chemical_formula_sum "Si O2"
_cell_formula_units_Z 120
_cell_length_a 13.937385
_cell_length_b 13.937385
_cell_length_c 34.375829
_cell_angle_alpha 90.000000
_cell_angle_beta 90.000000
_cell_angle_gamma 90.000000
_cell_volume 6677.528868
_symmetry_space_group_name_H-M "P 42/M N M"
_symmetry_group_IT_number 136
_symmetry_cell_setting 'tetragonal'
loop_
_space_group_symop_operation_xyz
x,y,z
1/2-y,1/2+x,1/2+z
-x,-y,z
1/2+y,1/2-x,1/2+z
1/2+x,1/2-y,1/2-z
1/2-x,1/2+y,1/2-z
y,x,-z
-y,-x,-z
-x,-y,-z
1/2+y,1/2-x,1/2-z
x,y,-z
1/2-y,1/2+x,1/2-z
1/2-x,1/2+y,1/2+z
1/2+x,1/2-y,1/2+z
-y,-x,z
y,x,z
loop_
_atom_site_type_symbol
_atom_site_label
_atom_site_fract_x
_atom_site_fract_y
_atom_site_fract_z
Si Si1 0.007218 0.656114 0.746479
Si Si2 0.213518 0.054744 0.410591
Si Si3 0.437204 0.908940 0.956195
Si Si4 0.245425 0.090953 0.323644
Si Si5 0.285960 0.439083 0.457678
Si Si6 0.246315 0.402475 0.681571
Si Si7 0.652391 0.492541 0.380222
Si Si8 0.579509 0.579509 0.043731
O O1 0.096203 0.584841 0.738652
O O2 0.036098 0.728653 0.780105
O O3 0.985965 0.721761 0.708704
O O4 0.152921 0.152921 0.419463
O O5 0.320412 0.055685 0.426973
O O6 0.218021 0.038451 0.363965
O O7 0.166292 0.963121 0.431153
O O8 0.327135 0.936009 0.956635
O O9 0.500000 0.000000 0.941387
O O10 0.470609 0.880028 0.000000
O O11 0.154849 0.154849 0.308713
O O12 0.335996 0.159001 0.331752
O O13 0.319902 0.476512 0.500000
O O14 0.333963 0.333963 0.449438
O O15 0.318672 0.514507 0.425322
O O16 0.340960 0.340960 0.689769
O O17 0.258353 0.478580 0.646629
O O18 0.611323 0.388678 0.367860
O O19 0.571412 0.571412 0.374430
O O20 0.500000 0.500000 0.038289
O O21 0.612313 0.612313 0.000000
#
# Coordination Sequence:
#
# PCOD8317949 Si02
#       8
#    16  16  16  16  16  16  16   8
#     4   9  18  34  52  74 100 130 168 208 255 312
#     4  10  19  34  55  80 107 138 179 225 271 325
#     4  10  20  33  50  75 105 133 169 217 264 310
#     4   9  18  33  53  75 101 132 167 212 267 314
#     4   9  17  30  49  72  98 131 170 210 253 301
#     4   9  17  31  50  72  99 132 169 208 251 304
#     4   9  17  29  47  72 100 128 164 208 248 292
#     4   9  18  32  54  82 108 140 183 227 273 327
#
# _framework density 17.970721000000001
#
# number of rings (size 3 to 8) (size 9 to 14) (size 15 to 20)
#    0.000    2.733    0.000    1.600    0.000    4.267 
#    8.400    1.333    1.467    0.000    0.000    0.000 
#    0.000    0.000    0.000    0.000    0.000    0.000 
#
# Total GULP energy -1487119.724175 kJ/mol
# GULP energy per Si atom -12392.664368 kJ/mol
# Density = 1.792982 g / cm^3
# Si number density = 17.970721 Si / 1000 Ang^3
#
#
#
# Elastic Constant Matrix: (Units=GPa)
#
#
# Indices 1 2 3 4 5 6 
#
# 1 54.8914 36.2226 50.3809 0.0000 0.0000 0.0000
# 2 36.2226 54.8914 50.3809 0.0000 0.0000 0.0000
# 3 50.3809 50.3809 134.5568 0.0000 0.0000 0.0000
# 4 0.0000 0.0000 0.0000 30.1913 0.0000 0.0000
# 5 0.0000 0.0000 0.0000 0.0000 30.1913 0.0000
# 6 0.0000 0.0000 0.0000 0.0000 0.0000 22.0408
#
#
#
# Elastic Compliance Matrix: (Units=1/GPa)
#
#
# Indices 1 2 3 4 5 6 
#
# 1 0.036148 -0.017417 -0.007013 0.000000 0.000000 0.000000
# 2 -0.017417 0.036148 -0.007013 0.000000 0.000000 0.000000
# 3 -0.007013 -0.007013 0.012684 0.000000 0.000000 0.000000
# 4 0.000000 0.000000 0.000000 0.033122 0.000000 0.000000
# 5 0.000000 0.000000 0.000000 0.000000 0.033122 0.000000
# 6 0.000000 0.000000 0.000000 0.000000 0.000000 0.045370
#
#
# Mechanical properties :
#
#
# Convention : Reuss Voigt Hill
#
# Bulk Modulus (GPa) = 45.26373 57.58981 51.42677
# Shear Modulus (GPa) = 18.73734 23.64167 21.18951
#
# Velocity S-wave (km/s) = 3.23253 3.63101 3.43755
# Velocity P-wave (km/s) = 6.25895 7.04947 6.66594
#
# Compressibility (1/GPa) = 0.02209274
#
# Stress axis : x y z
#
# Youngs Moduli (GPa) = 27.66384 27.66384 78.84116
#
# Poissons Ratio (x) = 0.48182 0.55294
# Poissons Ratio (y) = 0.48182 0.55294
# Poissons Ratio (z) = 0.19402 0.19402
#
# Static dielectric constant tensor:
#      x y z
#    x 3.284740 0.000000 0.000000 
#    y 0.000000 3.284740 0.000000 
#    z 0.000000 0.000000 3.516980 
# 
# 
# High freq. dielectric constant tensor:
#      x y z
#    x 1.677260 0.000000 0.000000 
#    y 0.000000 1.677260 0.000000 
#    z 0.000000 0.000000 1.702480 
# 
# From -- ./inp_files/10048.got.cif
#   From: 2010.03.12/outbox.cif.g09.slc.cpg/sg136_6_cif.got.tgz:10048.got - 2010.04.06 18:39:43.
