data_PCOD8317900
_publ_section_title
;
Structure prediction by ZEFSAII (Michael W. Deem and Ramdas Pophale) SiO2 
 PCOD8317900
Probable space group: P 42/M N M
;
_chemical_formula_sum "Si O2"
_cell_formula_units_Z 120
_cell_length_a 26.222075
_cell_length_b 26.222075
_cell_length_c 9.186689
_cell_angle_alpha 90.000000
_cell_angle_beta 90.000000
_cell_angle_gamma 90.000000
_cell_volume 6316.741793
_symmetry_space_group_name_H-M "P 42/M N M"
_symmetry_group_IT_number 136
_symmetry_cell_setting 'tetragonal'
loop_
_space_group_symop_operation_xyz
x,y,z
1/2-y,1/2+x,1/2+z
-x,-y,z
1/2+y,1/2-x,1/2+z
1/2+x,1/2-y,1/2-z
1/2-x,1/2+y,1/2-z
y,x,-z
-y,-x,-z
-x,-y,-z
1/2+y,1/2-x,1/2-z
x,y,-z
1/2-y,1/2+x,1/2-z
1/2-x,1/2+y,1/2+z
1/2+x,1/2-y,1/2+z
-y,-x,z
y,x,z
loop_
_atom_site_type_symbol
_atom_site_label
_atom_site_fract_x
_atom_site_fract_y
_atom_site_fract_z
Si Si1 0.959173 0.040828 0.673599
Si Si2 0.811917 0.270387 0.326144
Si Si3 0.247742 0.925636 0.332608
Si Si4 0.723577 0.878870 0.832548
Si Si5 0.190412 0.512148 0.668381
Si Si6 0.086852 0.166642 0.832559
Si Si7 0.500643 0.072011 0.669816
Si Si8 0.151027 0.987003 0.666908
O O1 0.957428 0.042573 0.500000
O O2 0.903797 0.026197 0.736029
O O3 0.000000 0.000000 0.731583
O O4 0.809301 0.270325 0.500000
O O5 0.771367 0.228633 0.266021
O O6 0.868704 0.256306 0.270777
O O7 0.798759 0.326830 0.262145
O O8 0.265079 0.928479 0.500000
O O9 0.187788 0.938311 0.315863
O O10 0.279606 0.967423 0.246984
O O11 0.701939 0.931670 0.763043
O O12 0.784373 0.877131 0.812787
O O13 0.706927 0.878971 0.000000
O O14 0.207349 0.511872 0.500000
O O15 0.131790 0.499892 0.690037
O O16 0.117742 0.117742 0.772274
O O17 0.034948 0.175643 0.747078
O O18 0.072568 0.158727 0.000000
O O19 0.501372 0.056437 0.500000
O O20 0.450539 0.050179 0.749203
O O21 0.144599 0.002909 0.500000
#
# Coordination Sequence:
#
# PCOD8317900 Si02
#       8
#     8  16  16  16  16  16  16  16
#     4   9  18  32  51  73 103 143 179 213 261 327
#     4   9  18  32  54  83 110 137 176 225 275 320
#     4  10  21  34  54  82 109 139 178 227 272 318
#     4   9  17  32  52  76 106 139 174 216 266 320
#     4  10  21  36  55  78 107 144 181 216 264 321
#     4  10  19  32  54  79 103 134 174 219 266 317
#     4  10  21  36  56  81 109 143 180 222 269 319
#     4  10  20  34  52  77 107 140 177 216 267 322
#
# _framework density 18.997136000000001
#
# number of rings (size 3 to 8) (size 9 to 14) (size 15 to 20)
#    0.000    2.333    1.333    1.600    2.800    3.467 
#    0.000    0.333    0.000    2.400    0.000    0.000 
#    0.000    0.000    0.000    0.000    0.000    0.000 
#
# Total GULP energy -1487691.576101 kJ/mol
# GULP energy per Si atom -12397.429801 kJ/mol
# Density = 1.895390 g / cm^3
# Si number density = 18.997136 Si / 1000 Ang^3
#
#
#
# Elastic Constant Matrix: (Units=GPa)
#
#
# Indices 1 2 3 4 5 6 
#
# 1 142.1261 68.1955 32.0389 0.0000 0.0000 0.0000
# 2 68.1955 142.1258 32.0388 0.0000 0.0000 0.0000
# 3 32.0389 32.0388 44.3045 0.0000 0.0000 0.0000
# 4 0.0000 0.0000 0.0000 21.9971 0.0000 0.0000
# 5 0.0000 0.0000 0.0000 0.0000 21.9972 0.0000
# 6 0.0000 0.0000 0.0000 0.0000 0.0000 27.7953
#
#
#
# Elastic Compliance Matrix: (Units=1/GPa)
#
#
# Indices 1 2 3 4 5 6 
#
# 1 0.009812 -0.003714 -0.004410 0.000000 0.000000 0.000000
# 2 -0.003714 0.009812 -0.004410 0.000000 0.000000 0.000000
# 3 -0.004410 -0.004410 0.028949 0.000000 0.000000 0.000000
# 4 0.000000 0.000000 0.000000 0.045460 0.000000 0.000000
# 5 0.000000 0.000000 0.000000 0.000000 0.045460 0.000000
# 6 0.000000 0.000000 0.000000 0.000000 0.000000 0.035977
#
#
# Mechanical properties :
#
#
# Convention : Reuss Voigt Hill
#
# Bulk Modulus (GPa) = 42.54255 65.90031 54.22143
# Shear Modulus (GPa) = 23.99524 27.44346 25.71935
#
# Velocity S-wave (km/s) = 3.55786 3.80493 3.68347
# Velocity P-wave (km/s) = 6.27062 7.35311 6.83333
#
# Compressibility (1/GPa) = 0.02350588
#
# Stress axis : x y z
#
# Youngs Moduli (GPa) = 101.91405 101.91384 34.54335
#
# Poissons Ratio (x) = 0.37851 0.15233
# Poissons Ratio (y) = 0.37851 0.15233
# Poissons Ratio (z) = 0.44943 0.44943
#
# Static dielectric constant tensor:
#      x y z
#    x 3.640150 0.000000 0.000000 
#    y 0.000000 3.640150 0.000000 
#    z 0.000000 0.000000 3.115330 
# 
# 
# High freq. dielectric constant tensor:
#      x y z
#    x 1.750560 0.000000 0.000000 
#    y 0.000000 1.750560 0.000000 
#    z 0.000000 0.000000 1.691050 
# 
# From -- ./inp_files/2309.got.cif
#   From: 2010.03.12/outbox.cif.g09.slc.cpg/sg136_2_cif.got.tgz:2309.got - 2010.04.06 18:39:43.
