data_PCOD8317510
_publ_section_title
;
Structure prediction by ZEFSAII (Michael W. Deem and Ramdas Pophale) SiO2 
 PCOD8317510
Probable space group: P 42/M B C
;
_chemical_formula_sum "Si O2"
_cell_formula_units_Z 96
_cell_length_a 23.674960
_cell_length_b 23.674960
_cell_length_c 8.885254
_cell_angle_alpha 90.000000
_cell_angle_beta 90.000000
_cell_angle_gamma 90.000000
_cell_volume 4980.218018
_symmetry_space_group_name_H-M "P 42/M B C"
_symmetry_group_IT_number 135
_symmetry_cell_setting 'tetragonal'
loop_
_space_group_symop_operation_xyz
x,y,z
-y,x,1/2+z
-x,-y,z
y,-x,1/2+z
1/2+x,1/2-y,-z
1/2-x,1/2+y,-z
1/2+y,1/2+x,1/2-z
1/2-y,1/2-x,1/2-z
-x,-y,-z
y,-x,1/2-z
x,y,-z
-y,x,1/2-z
1/2-x,1/2+y,z
1/2+x,1/2-y,z
1/2-y,1/2-x,1/2+z
1/2+y,1/2+x,1/2+z
loop_
_atom_site_type_symbol
_atom_site_label
_atom_site_fract_x
_atom_site_fract_y
_atom_site_fract_z
Si Si1 0.721414 0.138015 0.819586
Si Si2 0.890841 0.911075 0.335333
Si Si3 0.229549 0.484798 0.324797
Si Si4 0.003669 0.158801 0.671699
Si Si5 0.328278 0.291651 0.167214
Si Si6 0.685276 0.895141 0.320654
O O1 0.665245 0.165245 0.750000
O O2 0.775169 0.175021 0.755597
O O3 0.720265 0.072469 0.769565
O O4 0.720986 0.138274 0.000000
O O5 0.906159 0.936214 0.500000
O O6 0.891711 0.960160 0.210300
O O7 0.830090 0.883114 0.336942
O O8 0.933944 0.862153 0.293320
O O9 0.222579 0.470498 0.500000
O O10 0.291731 0.507992 0.289381
O O11 0.190396 0.538259 0.276194
O O12 0.996525 0.179050 0.500000
O O13 0.352779 0.234608 0.245921
O O14 0.307441 0.276481 0.000000
O O15 0.626387 0.873614 0.250000
O O16 0.685654 0.890570 0.500000
#
# Coordination Sequence:
#
# PCOD8317510 Si02
#       6
#    16  16  16  16  16  16
#     4  11  22  38  60  88 121 153 193 237 284 342
#     4  10  20  37  55  75 111 151 192 243 291 336
#     4  11  22  38  60  84 115 154 189 230 288 343
#     4  11  22  36  56  81 108 149 201 245 287 339
#     4   9  17  34  56  81 116 152 183 229 285 334
#     4  10  21  37  58  84 115 149 185 228 280 338
#
# _framework density 19.276264000000001
#
# number of rings (size 3 to 8) (size 9 to 14) (size 15 to 20)
#    0.000    1.667    3.333    2.000    0.000    3.000 
#    0.000    2.500    0.000    0.500    0.000    3.500 
#    0.000    0.000    0.000    0.000    0.000    0.000 
#
# Total GULP energy -1189390.914629 kJ/mol
# GULP energy per Si atom -12389.488694 kJ/mol
# Density = 1.923239 g / cm^3
# Si number density = 19.276264 Si / 1000 Ang^3
#
#
#
# Elastic Constant Matrix: (Units=GPa)
#
#
# Indices 1 2 3 4 5 6 
#
# 1 71.3885 49.5908 34.2607 0.0000 0.0000 0.0000
# 2 49.5908 71.3837 34.2606 0.0000 0.0000 0.0000
# 3 34.2607 34.2606 47.3096 0.0000 0.0000 0.0000
# 4 0.0000 0.0000 0.0000 27.8952 0.0000 0.0000
# 5 0.0000 0.0000 0.0000 0.0000 27.8956 0.0000
# 6 0.0000 0.0000 0.0000 0.0000 0.0000 18.1659
#
#
#
# Elastic Compliance Matrix: (Units=1/GPa)
#
#
# Indices 1 2 3 4 5 6 
#
# 1 0.029946 -0.015934 -0.010148 0.000000 0.000000 0.000000
# 2 -0.015934 0.029949 -0.010150 0.000000 0.000000 0.000000
# 3 -0.010148 -0.010150 0.035837 0.000000 0.000000 0.000000
# 4 0.000000 0.000000 0.000000 0.035848 0.000000 0.000000
# 5 0.000000 0.000000 0.000000 0.000000 0.035848 0.000000
# 6 0.000000 0.000000 0.000000 0.000000 0.000000 0.055048
#
#
# Mechanical properties :
#
#
# Convention : Reuss Voigt Hill
#
# Bulk Modulus (GPa) = 42.97437 47.36737 45.17087
# Shear Modulus (GPa) = 16.51819 19.58933 18.05376
#
# Velocity S-wave (km/s) = 2.93049 3.19131 3.06368
# Velocity P-wave (km/s) = 5.81315 6.18106 5.99993
#
# Compressibility (1/GPa) = 0.02326968
#
# Stress axis : x y z
#
# Youngs Moduli (GPa) = 33.39291 33.38957 27.90435
#
# Poissons Ratio (x) = 0.53201 0.28317
# Poissons Ratio (y) = 0.53207 0.28323
# Poissons Ratio (z) = 0.33887 0.33890
#
# Static dielectric constant tensor:
#      x y z
#    x 3.541670 0.000000 0.000000 
#    y 0.000000 3.541670 0.000000 
#    z 0.000000 0.000000 3.370510 
# 
# 
# High freq. dielectric constant tensor:
#      x y z
#    x 1.743270 0.000000 0.000000 
#    y 0.000000 1.743270 0.000000 
#    z 0.000000 0.000000 1.732520 
# 
# From -- ./inp_files/1266.got.cif
#   From: 2010.03.12/outbox.cif.g09.slc.cpg/sg135_1_cif.got.tgz:1266.got - 2010.04.06 18:31:24.
