data_PCOD8317739
_publ_section_title
;
Structure prediction by ZEFSAII (Michael W. Deem and Ramdas Pophale) SiO2 
 PCOD8317739
Probable space group: P 42/M N M
;
_chemical_formula_sum "Si O2"
_cell_formula_units_Z 120
_cell_length_a 16.294887
_cell_length_b 16.294887
_cell_length_c 28.084984
_cell_angle_alpha 90.000000
_cell_angle_beta 90.000000
_cell_angle_gamma 90.000000
_cell_volume 7457.218821
_symmetry_space_group_name_H-M "P 42/M N M"
_symmetry_group_IT_number 136
_symmetry_cell_setting 'tetragonal'
loop_
_space_group_symop_operation_xyz
x,y,z
1/2-y,1/2+x,1/2+z
-x,-y,z
1/2+y,1/2-x,1/2+z
1/2+x,1/2-y,1/2-z
1/2-x,1/2+y,1/2-z
y,x,-z
-y,-x,-z
-x,-y,-z
1/2+y,1/2-x,1/2-z
x,y,-z
1/2-y,1/2+x,1/2-z
1/2-x,1/2+y,1/2+z
1/2+x,1/2-y,1/2+z
-y,-x,z
y,x,z
loop_
_atom_site_type_symbol
_atom_site_label
_atom_site_fract_x
_atom_site_fract_y
_atom_site_fract_z
Si Si1 0.191807 0.060922 0.284371
Si Si2 0.690329 0.172647 0.784363
Si Si3 0.654623 0.212579 0.375172
Si Si4 0.753645 0.108328 0.309263
Si Si5 0.475163 0.751993 0.444061
Si Si6 0.832892 0.960017 0.823197
Si Si7 0.392480 0.262421 0.373357
Si Si8 0.434234 0.565767 0.556437
O O1 0.122419 0.122419 0.306382
O O2 0.278831 0.105919 0.279038
O O3 0.161457 0.029679 0.233340
O O4 0.206221 0.981306 0.317605
O O5 0.766460 0.233541 0.783631
O O6 0.702513 0.109573 0.740474
O O7 0.689990 0.126729 0.835576
O O8 0.728451 0.271550 0.391400
O O9 0.691413 0.129034 0.352711
O O10 0.598274 0.193075 0.421690
O O11 0.597944 0.255066 0.335037
O O12 0.824342 0.175659 0.308498
O O13 0.480451 0.766425 0.500000
O O14 0.562531 0.775444 0.419981
O O15 0.456724 0.658174 0.427629
O O16 0.916260 0.916260 0.842367
O O17 0.826946 0.048631 0.846580
O O18 0.310739 0.310739 0.389911
O O19 0.500000 0.500000 0.576538
O O20 0.436447 0.563554 0.500000
#
# Coordination Sequence:
#
# PCOD8317739 Si02
#       8
#    16  16  16  16  16  16  16   8
#     4  10  18  29  46  65  91 123 150 190 244 288
#     4   9  17  30  44  62  90 125 162 194 228 279
#     4   9  16  28  44  62  87 124 165 193 225 276
#     4  10  18  29  47  69  92 120 156 198 236 285
#     4  10  19  30  44  64  94 128 162 201 234 269
#     4   9  16  25  39  60  86 121 159 191 227 269
#     4  10  19  28  41  62  92 130 169 200 226 272
#     4   9  16  26  40  62  96 132 159 191 235 267
#
# _framework density 16.091788999999999
#
# number of rings (size 3 to 8) (size 9 to 14) (size 15 to 20)
#    0.000    2.467    3.333    0.400    0.933    1.333 
#    0.000    1.333    0.000    6.800    0.000    1.867 
#    0.000    1.600    0.000    2.933    0.000    0.000 
#
# Total GULP energy -1487326.591103 kJ/mol
# GULP energy per Si atom -12394.388259 kJ/mol
# Density = 1.605516 g / cm^3
# Si number density = 16.091789 Si / 1000 Ang^3
#
#
#
# Elastic Constant Matrix: (Units=GPa)
#
#
# Indices 1 2 3 4 5 6 
#
# 1 49.9445 20.0398 28.0007 0.0000 0.0000 0.0000
# 2 20.0398 49.9445 28.0007 0.0000 0.0000 0.0000
# 3 28.0007 28.0007 86.5161 0.0000 0.0000 0.0000
# 4 0.0000 0.0000 0.0000 20.9020 0.0000 0.0000
# 5 0.0000 0.0000 0.0000 0.0000 20.9020 0.0000
# 6 0.0000 0.0000 0.0000 0.0000 0.0000 18.5616
#
#
#
# Elastic Compliance Matrix: (Units=1/GPa)
#
#
# Indices 1 2 3 4 5 6 
#
# 1 0.026361 -0.007078 -0.006241 0.000000 0.000000 0.000000
# 2 -0.007078 0.026361 -0.006241 0.000000 0.000000 0.000000
# 3 -0.006241 -0.006241 0.015598 0.000000 0.000000 0.000000
# 4 0.000000 0.000000 0.000000 0.047842 0.000000 0.000000
# 5 0.000000 0.000000 0.000000 0.000000 0.047842 0.000000
# 6 0.000000 0.000000 0.000000 0.000000 0.000000 0.053875
#
#
# Mechanical properties :
#
#
# Convention : Reuss Voigt Hill
#
# Bulk Modulus (GPa) = 34.24595 37.60972 35.92784
# Shear Modulus (GPa) = 18.74532 19.43073 19.08803
#
# Velocity S-wave (km/s) = 3.41677 3.47867 3.44786
# Velocity P-wave (km/s) = 6.07401 6.28948 6.18268
#
# Compressibility (1/GPa) = 0.02920053
#
# Stress axis : x y z
#
# Youngs Moduli (GPa) = 37.93458 37.93460 64.10999
#
# Poissons Ratio (x) = 0.26851 0.40010
# Poissons Ratio (y) = 0.26851 0.40010
# Poissons Ratio (z) = 0.23674 0.23674
#
# Static dielectric constant tensor:
#      x y z
#    x 2.928870 0.000000 0.000000 
#    y 0.000000 2.928870 0.000000 
#    z 0.000000 0.000000 2.956030 
# 
# 
# High freq. dielectric constant tensor:
#      x y z
#    x 1.592360 0.000000 0.000000 
#    y 0.000000 1.592360 0.000000 
#    z 0.000000 0.000000 1.599070 
# 
# From -- ./inp_files/9266.got.cif
#   From: 2010.03.12/outbox.cif.g09.slc.cpg/sg136_5_cif.got.tgz:9266.got - 2010.04.06 18:39:43.
