data_PCOD8317414
_publ_section_title
;
Structure prediction by ZEFSAII (Michael W. Deem and Ramdas Pophale) SiO2 
 PCOD8317414
Probable space group: P 42/M B C
;
_chemical_formula_sum "Si O2"
_cell_formula_units_Z 80
_cell_length_a 16.816752
_cell_length_b 16.816752
_cell_length_c 15.035719
_cell_angle_alpha 90.000000
_cell_angle_beta 90.000000
_cell_angle_gamma 90.000000
_cell_volume 4252.148663
_symmetry_space_group_name_H-M "P 42/M B C"
_symmetry_group_IT_number 135
_symmetry_cell_setting 'tetragonal'
loop_
_space_group_symop_operation_xyz
x,y,z
-y,x,1/2+z
-x,-y,z
y,-x,1/2+z
1/2+x,1/2-y,-z
1/2-x,1/2+y,-z
1/2+y,1/2+x,1/2-z
1/2-y,1/2-x,1/2-z
-x,-y,-z
y,-x,1/2-z
x,y,-z
-y,x,1/2-z
1/2-x,1/2+y,z
1/2+x,1/2-y,z
1/2-y,1/2-x,1/2+z
1/2+y,1/2+x,1/2+z
loop_
_atom_site_type_symbol
_atom_site_label
_atom_site_fract_x
_atom_site_fract_y
_atom_site_fract_z
Si Si1 0.669424 0.296424 0.226386
Si Si2 0.632046 0.685296 0.903159
Si Si3 0.951315 0.426388 0.852803
Si Si4 0.209112 0.642136 0.097306
Si Si5 0.238812 0.468822 0.600176
O O1 0.717690 0.217690 0.250000
O O2 0.635685 0.335706 0.318227
O O3 0.723863 0.362147 0.174278
O O4 0.597883 0.269883 0.165491
O O5 0.671071 0.771393 0.896539
O O6 0.537708 0.695264 0.896526
O O7 0.653670 0.646254 0.000000
O O8 0.941905 0.441905 0.750000
O O9 0.861812 0.421673 0.891559
O O10 0.000000 0.500000 0.896504
O O11 0.000775 0.346984 0.869955
O O12 0.248094 0.628366 0.000000
O O13 0.232252 0.434694 0.500000
#
# Coordination Sequence:
#
# PCOD8317414 Si02
#       5
#    16  16  16  16  16
#     4  10  19  31  53  78 107 137 184 239 276 320
#     4   8  16  32  52  71  99 135 173 218 275 328
#     4  10  20  32  52  73 114 158 188 219 271 341
#     4   9  16  29  48  73 102 141 184 221 269 322
#     4  10  20  34  54  80 108 145 187 225 276 339
#
# _framework density 18.814018999999998
#
# number of rings (size 3 to 8) (size 9 to 14) (size 15 to 20)
#    0.000    2.600    0.000    5.400    2.800    2.400 
#    0.000    0.000    0.000    3.000    0.000    2.800 
#    0.000    0.000    0.000    0.000    0.000    0.000 
#
# Total GULP energy -991297.210929 kJ/mol
# GULP energy per Si atom -12391.215137 kJ/mol
# Density = 1.877120 g / cm^3
# Si number density = 18.814019 Si / 1000 Ang^3
#
#
#
# Elastic Constant Matrix: (Units=GPa)
#
#
# Indices 1 2 3 4 5 6 
#
# 1 62.5244 36.2650 55.7120 0.0000 0.0000 0.0000
# 2 36.2650 62.5244 55.7120 0.0000 0.0000 0.0000
# 3 55.7120 55.7120 189.2924 0.0000 0.0000 0.0000
# 4 0.0000 0.0000 0.0000 33.6023 0.0000 0.0000
# 5 0.0000 0.0000 0.0000 0.0000 33.6023 0.0000
# 6 0.0000 0.0000 0.0000 0.0000 0.0000 25.7057
#
#
#
# Elastic Compliance Matrix: (Units=1/GPa)
#
#
# Indices 1 2 3 4 5 6 
#
# 1 0.026617 -0.011465 -0.004460 0.000000 0.000000 0.000000
# 2 -0.011465 0.026617 -0.004460 0.000000 0.000000 0.000000
# 3 -0.004460 -0.004460 0.007908 0.000000 0.000000 0.000000
# 4 0.000000 0.000000 0.000000 0.029760 0.000000 0.000000
# 5 0.000000 0.000000 0.000000 0.000000 0.029760 0.000000
# 6 0.000000 0.000000 0.000000 0.000000 0.000000 0.038902
#
#
# Mechanical properties :
#
#
# Convention : Reuss Voigt Hill
#
# Bulk Modulus (GPa) = 49.08112 67.74658 58.41385
# Shear Modulus (GPa) = 24.14025 29.69222 26.91624
#
# Velocity S-wave (km/s) = 3.58592 3.97696 3.78649
# Velocity P-wave (km/s) = 6.57946 7.56142 7.08747
#
# Compressibility (1/GPa) = 0.02037443
#
# Stress axis : x y z
#
# Youngs Moduli (GPa) = 37.56981 37.56981 126.45516
#
# Poissons Ratio (x) = 0.43072 0.56395
# Poissons Ratio (y) = 0.43072 0.56395
# Poissons Ratio (z) = 0.16755 0.16755
#
# Static dielectric constant tensor:
#      x y z
#    x 3.161760 0.000000 0.000000 
#    y 0.000000 3.161760 0.000000 
#    z 0.000000 0.000000 4.239220 
# 
# 
# High freq. dielectric constant tensor:
#      x y z
#    x 1.694540 0.000000 0.000000 
#    y 0.000000 1.694540 0.000000 
#    z 0.000000 0.000000 1.761760 
# 
# From -- ./inp_files/3380.got.cif
#   From: 2010.03.12/outbox.cif.g09.slc.cpg/sg135_2_cif.got.tgz:3380.got - 2010.04.06 18:31:24.
