data_PCOD8317944
_publ_section_title
;
Structure prediction by ZEFSAII (Michael W. Deem and Ramdas Pophale) SiO2 
 PCOD8317944
Probable space group: P 42/M N M
;
_chemical_formula_sum "Si O2"
_cell_formula_units_Z 48
_cell_length_a 19.139710
_cell_length_b 19.139710
_cell_length_c 7.625992
_cell_angle_alpha 90.000000
_cell_angle_beta 90.000000
_cell_angle_gamma 90.000000
_cell_volume 2793.618202
_symmetry_space_group_name_H-M "P 42/M N M"
_symmetry_group_IT_number 136
_symmetry_cell_setting 'tetragonal'
loop_
_space_group_symop_operation_xyz
x,y,z
1/2-y,1/2+x,1/2+z
-x,-y,z
1/2+y,1/2-x,1/2+z
1/2+x,1/2-y,1/2-z
1/2-x,1/2+y,1/2-z
y,x,-z
-y,-x,-z
-x,-y,-z
1/2+y,1/2-x,1/2-z
x,y,-z
1/2-y,1/2+x,1/2-z
1/2-x,1/2+y,1/2+z
1/2+x,1/2-y,1/2+z
-y,-x,z
y,x,z
loop_
_atom_site_type_symbol
_atom_site_label
_atom_site_fract_x
_atom_site_fract_y
_atom_site_fract_z
Si Si1 0.325005 0.067956 0.305390
Si Si2 0.805867 0.921785 0.500000
Si Si3 0.417993 0.193508 0.698206
Si Si4 0.803998 0.080141 0.500000
O O1 0.354042 0.048651 0.500000
O O2 0.242998 0.090665 0.327178
O O3 0.370201 0.130792 0.224843
O O4 0.331175 0.998591 0.188817
O O5 0.871484 0.871484 0.500000
O O6 0.833329 0.001419 0.500000
O O7 0.394125 0.213043 0.500000
O O8 0.406752 0.258835 0.825443
O O9 0.869369 0.130632 0.500000
#
# Coordination Sequence:
#
# PCOD8317944 Si02
#       4
#    16   8  16   8
#     4   8  18  32  50  77 106 135 175 214 247 310
#     4   8  16  35  55  73 101 133 174 216 258 308
#     4  10  19  34  53  76 109 143 172 213 260 310
#     4  10  22  37  51  79 107 129 180 226 260 318
#
# _framework density 17.182019
#
# number of rings (size 3 to 8) (size 9 to 14) (size 15 to 20)
#    1.000    2.000    1.667    0.000    2.333    3.000 
#    0.000    3.333    0.000    9.000    0.000    9.333 
#    0.000    0.000    0.000    0.000    0.000    0.000 
#
# Total GULP energy -594640.772853 kJ/mol
# GULP energy per Si atom -12388.349434 kJ/mol
# Density = 1.714291 g / cm^3
# Si number density = 17.182019 Si / 1000 Ang^3
#
#
#
# Elastic Constant Matrix: (Units=GPa)
#
#
# Indices 1 2 3 4 5 6 
#
# 1 119.8087 101.0863 27.0261 0.0000 0.0000 0.0000
# 2 101.0863 119.8111 27.0273 0.0000 0.0000 0.0000
# 3 27.0261 27.0273 61.0987 0.0000 0.0000 0.0000
# 4 0.0000 0.0000 0.0000 17.0342 0.0000 0.0000
# 5 0.0000 0.0000 0.0000 0.0000 17.0341 0.0000
# 6 0.0000 0.0000 0.0000 0.0000 0.0000 37.2306
#
#
#
# Elastic Compliance Matrix: (Units=1/GPa)
#
#
# Indices 1 2 3 4 5 6 
#
# 1 0.029243 -0.024166 -0.002245 0.000000 0.000000 0.000000
# 2 -0.024166 0.029242 -0.002246 0.000000 0.000000 0.000000
# 3 -0.002245 -0.002246 0.018354 0.000000 0.000000 0.000000
# 4 0.000000 0.000000 0.000000 0.058705 0.000000 0.000000
# 5 0.000000 0.000000 0.000000 0.000000 0.058706 0.000000
# 6 0.000000 0.000000 0.000000 0.000000 0.000000 0.026860
#
#
# Mechanical properties :
#
#
# Convention : Reuss Voigt Hill
#
# Bulk Modulus (GPa) = 51.21816 67.88867 59.55342
# Shear Modulus (GPa) = 17.54807 23.96503 20.75655
#
# Velocity S-wave (km/s) = 3.19925 3.73872 3.47946
# Velocity P-wave (km/s) = 6.59703 7.63116 7.13286
#
# Compressibility (1/GPa) = 0.01952432
#
# Stress axis : x y z
#
# Youngs Moduli (GPa) = 34.19662 34.19708 54.48529
#
# Poissons Ratio (x) = 0.82641 0.12233
# Poissons Ratio (y) = 0.82639 0.12237
# Poissons Ratio (z) = 0.07678 0.07681
#
# Static dielectric constant tensor:
#      x y z
#    x 3.023160 0.000000 0.000000 
#    y 0.000000 3.023160 0.000000 
#    z 0.000000 0.000000 2.967730 
# 
# 
# High freq. dielectric constant tensor:
#      x y z
#    x 1.650110 0.000000 0.000000 
#    y 0.000000 1.650110 0.000000 
#    z 0.000000 0.000000 1.648640 
# 
# From -- ./inp_files/864.got.cif
#   From: 2010.03.12/outbox.cif.g09.slc.cpg/sg136_1_cif.got.tgz:864.got - 2010.04.06 18:39:43.
