data_PCOD8317544
_publ_section_title
;
Structure prediction by ZEFSAII (Michael W. Deem and Ramdas Pophale) SiO2 
 PCOD8317544
Probable space group: P 42/M B C
;
_chemical_formula_sum "Si O2"
_cell_formula_units_Z 96
_cell_length_a 16.868643
_cell_length_b 16.868643
_cell_length_c 17.742062
_cell_angle_alpha 90.000000
_cell_angle_beta 90.000000
_cell_angle_gamma 90.000000
_cell_volume 5048.523554
_symmetry_space_group_name_H-M "P 42/M B C"
_symmetry_group_IT_number 135
_symmetry_cell_setting 'tetragonal'
loop_
_space_group_symop_operation_xyz
x,y,z
-y,x,1/2+z
-x,-y,z
y,-x,1/2+z
1/2+x,1/2-y,-z
1/2-x,1/2+y,-z
1/2+y,1/2+x,1/2-z
1/2-y,1/2-x,1/2-z
-x,-y,-z
y,-x,1/2-z
x,y,-z
-y,x,1/2-z
1/2-x,1/2+y,z
1/2+x,1/2-y,z
1/2-y,1/2-x,1/2+z
1/2+y,1/2+x,1/2+z
loop_
_atom_site_type_symbol
_atom_site_label
_atom_site_fract_x
_atom_site_fract_y
_atom_site_fract_z
Si Si1 0.575793 0.446431 0.080459
Si Si2 0.669067 0.489505 0.681258
Si Si3 0.986396 0.677976 0.913764
Si Si4 0.551956 0.923511 0.667880
Si Si5 0.669750 0.568672 0.838237
Si Si6 0.080968 0.330297 0.410002
O O1 0.500000 0.500000 0.070726
O O2 0.559132 0.385027 0.146795
O O3 0.648754 0.503307 0.099295
O O4 0.593724 0.403686 0.000000
O O5 0.748780 0.488102 0.635544
O O6 0.688857 0.517246 0.764742
O O7 0.629645 0.402189 0.677275
O O8 0.898403 0.645938 0.893511
O O9 0.054617 0.614273 0.897054
O O10 0.990702 0.703298 0.000000
O O11 0.593822 0.906179 0.750000
O O12 0.500479 0.851102 0.634421
O O13 0.500000 0.000000 0.681363
O O14 0.748087 0.612254 0.871988
O O15 0.066777 0.322525 0.500000
#
# Coordination Sequence:
#
# PCOD8317544 Si02
#       6
#    16  16  16  16  16  16
#     4   9  18  32  53  78 106 143 189 233 281 343
#     4  11  21  36  59  85 114 155 198 244 297 354
#     4  10  21  37  59  87 120 158 200 244 296 363
#     4   9  17  33  58  86 115 151 196 239 288 351
#     4  11  21  36  59  85 115 153 195 247 300 351
#     4  10  21  37  59  87 120 158 201 250 300 355
#
# _framework density 19.015460999999998
#
# number of rings (size 3 to 8) (size 9 to 14) (size 15 to 20)
#    0.000    2.000    1.667    2.500    0.000    6.000 
#    0.000    1.667    3.667    2.000    0.000    0.000 
#    0.000    0.000    0.000    0.000    0.000    0.000 
#
# Total GULP energy -1189535.737686 kJ/mol
# GULP energy per Si atom -12390.997268 kJ/mol
# Density = 1.897218 g / cm^3
# Si number density = 19.015461 Si / 1000 Ang^3
#
#
#
# Elastic Constant Matrix: (Units=GPa)
#
#
# Indices 1 2 3 4 5 6 
#
# 1 76.1554 35.3237 35.7054 0.0000 0.0000 0.0000
# 2 35.3237 76.1553 35.7054 0.0000 0.0000 0.0000
# 3 35.7054 35.7054 120.5390 0.0000 0.0000 0.0000
# 4 0.0000 0.0000 0.0000 29.0640 0.0000 0.0000
# 5 0.0000 0.0000 0.0000 0.0000 29.0640 0.0000
# 6 0.0000 0.0000 0.0000 0.0000 0.0000 16.8052
#
#
#
# Elastic Compliance Matrix: (Units=1/GPa)
#
#
# Indices 1 2 3 4 5 6 
#
# 1 0.017781 -0.006710 -0.003279 0.000000 0.000000 0.000000
# 2 -0.006710 0.017781 -0.003279 0.000000 0.000000 0.000000
# 3 -0.003279 -0.003279 0.010239 0.000000 0.000000 0.000000
# 4 0.000000 0.000000 0.000000 0.034407 0.000000 0.000000
# 5 0.000000 0.000000 0.000000 0.000000 0.034407 0.000000
# 6 0.000000 0.000000 0.000000 0.000000 0.000000 0.059505
#
#
# Mechanical properties :
#
#
# Convention : Reuss Voigt Hill
#
# Bulk Modulus (GPa) = 51.91215 54.03539 52.97377
# Shear Modulus (GPa) = 24.14548 26.06099 25.10324
#
# Velocity S-wave (km/s) = 3.56727 3.70606 3.63733
# Velocity P-wave (km/s) = 6.65781 6.84043 6.74974
#
# Compressibility (1/GPa) = 0.01926331
#
# Stress axis : x y z
#
# Youngs Moduli (GPa) = 56.24012 56.24007 97.66695
#
# Poissons Ratio (x) = 0.37737 0.32029
# Poissons Ratio (y) = 0.37737 0.32029
# Poissons Ratio (z) = 0.18443 0.18443
#
# Static dielectric constant tensor:
#      x y z
#    x 3.747750 0.000000 0.000000 
#    y 0.000000 3.747760 0.000000 
#    z 0.000000 0.000000 5.445020 
# 
# 
# High freq. dielectric constant tensor:
#      x y z
#    x 1.718600 0.000000 0.000000 
#    y 0.000000 1.718600 0.000000 
#    z 0.000000 0.000000 1.764670 
# 
# From -- ./inp_files/4446.got.cif
#   From: 2010.03.12/outbox.cif.g09.slc.cpg/sg135_3_cif.got.tgz:4446.got - 2010.04.06 18:31:24.
