data_PCOD8317304
_publ_section_title
;
Structure prediction by ZEFSAII (Michael W. Deem and Ramdas Pophale) SiO2 
 PCOD8317304
Probable space group: P 42/N N M
;
_chemical_formula_sum "Si O2"
_cell_formula_units_Z 88
_cell_length_a 11.516219
_cell_length_b 11.516219
_cell_length_c 29.336222
_cell_angle_alpha 90.000000
_cell_angle_beta 90.000000
_cell_angle_gamma 90.000000
_cell_volume 3890.666573
_symmetry_space_group_name_H-M "P 42/N N M"
_symmetry_group_IT_number 134
_space_group.IT_coordinate_system_code '2'
_symmetry_cell_setting 'tetragonal'
loop_
_space_group_symop_operation_xyz
x,y,z
1/2-y,x,1/2+z
1/2-x,1/2-y,z
y,1/2-x,1/2+z
x,1/2-y,1/2-z
1/2-x,y,1/2-z
y,x,-z
1/2-y,1/2-x,-z
-x,-y,-z
1/2+y,-x,1/2-z
1/2+x,1/2+y,-z
-y,1/2+x,1/2-z
-x,1/2+y,1/2+z
1/2+x,-y,1/2+z
-y,-x,z
1/2+y,1/2+x,z
loop_
_atom_site_type_symbol
_atom_site_label
_atom_site_fract_x
_atom_site_fract_y
_atom_site_fract_z
Si Si1 0.877847 0.941990 0.366460
Si Si2 0.562827 0.696527 0.164118
Si Si3 0.072738 0.750000 0.250000
Si Si4 0.652980 0.152980 0.603396
Si Si5 0.205760 0.987929 0.800378
Si Si6 0.976803 0.670361 0.967502
Si Si7 0.403341 0.596660 0.001239
O O1 0.870687 0.817384 0.341899
O O2 0.819965 0.929844 0.416042
O O3 0.815075 0.036011 0.333174
O O4 0.009987 0.990014 0.371960
O O5 0.501589 0.687522 0.212478
O O6 0.471684 0.688366 0.123109
O O7 0.647905 0.588276 0.168321
O O8 0.152404 0.847597 0.274291
O O9 0.750000 0.250000 0.614825
O O10 0.639244 0.139244 0.550019
O O11 0.250000 0.026498 0.750000
O O12 0.124748 0.875253 0.795285
O O13 0.074710 0.574710 0.972680
O O14 0.037969 0.792728 0.977396
O O15 0.867416 0.632585 0.000000
O O16 0.500000 0.500000 0.000000
#
# Coordination Sequence:
#
# PCOD8317304 Si02
#       7
#    16  16   8   8  16  16   8
#     4  11  25  43  72 101 140 189 249 302 369 446
#     4  12  24  43  69 105 147 187 246 307 378 453
#     4  11  20  34  59  96 138 176 221 275 352 436
#     4  12  24  44  74 110 148 202 246 316 389 468
#     4  12  27  48  71 102 146 194 249 307 370 445
#     4  10  23  47  73 104 142 194 250 312 378 462
#     4  12  28  44  74 108 156 192 256 316 392 459
#
# _framework density 22.618230000000001
#
# number of rings (size 3 to 8) (size 9 to 14) (size 15 to 20)
#    0.000    0.636    1.818    5.727    3.818    3.818 
#    3.273    0.000    0.000    0.000    0.000    0.000 
#    0.000    0.000    0.000    0.000    0.000    0.000 
#
# Total GULP energy -1090727.208813 kJ/mol
# GULP energy per Si atom -12394.627373 kJ/mol
# Density = 2.256675 g / cm^3
# Si number density = 22.618230 Si / 1000 Ang^3
#
#
#
# Elastic Constant Matrix: (Units=GPa)
#
#
# Indices 1 2 3 4 5 6 
#
# 1 103.4368 43.1062 33.3929 0.0000 0.0000 0.0000
# 2 43.1062 103.4350 33.3928 0.0000 0.0000 0.0000
# 3 33.3929 33.3928 134.5238 0.0000 0.0000 0.0000
# 4 0.0000 0.0000 0.0000 41.2658 0.0000 0.0000
# 5 0.0000 0.0000 0.0000 0.0000 41.2659 0.0000
# 6 0.0000 0.0000 0.0000 0.0000 0.0000 41.2872
#
#
#
# Elastic Compliance Matrix: (Units=1/GPa)
#
#
# Indices 1 2 3 4 5 6 
#
# 1 0.012135 -0.004441 -0.001910 0.000000 0.000000 0.000000
# 2 -0.004441 0.012135 -0.001910 0.000000 0.000000 0.000000
# 3 -0.001910 -0.001910 0.008382 0.000000 0.000000 0.000000
# 4 0.000000 0.000000 0.000000 0.024233 0.000000 0.000000
# 5 0.000000 0.000000 0.000000 0.000000 0.024233 0.000000
# 6 0.000000 0.000000 0.000000 0.000000 0.000000 0.024221
#
#
# Mechanical properties :
#
#
# Convention : Reuss Voigt Hill
#
# Bulk Modulus (GPa) = 61.99327 62.35327 62.17327
# Shear Modulus (GPa) = 39.29684 40.19737 39.74710
#
# Velocity S-wave (km/s) = 4.17273 4.22027 4.19657
# Velocity P-wave (km/s) = 7.11924 7.16765 7.14349
#
# Compressibility (1/GPa) = 0.01613078
#
# Stress axis : x y z
#
# Youngs Moduli (GPa) = 82.40695 82.40546 119.30518
#
# Poissons Ratio (x) = 0.36593 0.22787
# Poissons Ratio (y) = 0.36593 0.22787
# Poissons Ratio (z) = 0.15739 0.15740
#
# Static dielectric constant tensor:
#      x y z
#    x 4.505670 0.000000 0.000000 
#    y 0.000000 4.505660 0.000000 
#    z 0.000000 0.000000 4.106700 
# 
# 
# High freq. dielectric constant tensor:
#      x y z
#    x 1.901630 0.000000 0.000000 
#    y 0.000000 1.901630 0.000000 
#    z 0.000000 0.000000 1.898670 
# 
# From -- ./inp_files/11522.got.cif
#   From: 2010.03.12/outbox.cif.g09.slc.cpg/sg134_6_cif.got.tgz:11522.got - 2010.04.06 18:17:22.
