data_PCOD8317665
_publ_section_title
;
Structure prediction by ZEFSAII (Michael W. Deem and Ramdas Pophale) SiO2 
 PCOD8317665
Probable space group: P 42/M B C
;
_chemical_formula_sum "Si O2"
_cell_formula_units_Z 36
_cell_length_a 10.058458
_cell_length_b 10.058458
_cell_length_c 14.423047
_cell_angle_alpha 90.000000
_cell_angle_beta 90.000000
_cell_angle_gamma 90.000000
_cell_volume 1459.216838
_symmetry_space_group_name_H-M "P 42/M B C"
_symmetry_group_IT_number 135
_symmetry_cell_setting 'tetragonal'
loop_
_space_group_symop_operation_xyz
x,y,z
-y,x,1/2+z
-x,-y,z
y,-x,1/2+z
1/2+x,1/2-y,-z
1/2-x,1/2+y,-z
1/2+y,1/2+x,1/2-z
1/2-y,1/2-x,1/2-z
-x,-y,-z
y,-x,1/2-z
x,y,-z
-y,x,1/2-z
1/2-x,1/2+y,z
1/2+x,1/2-y,z
1/2-y,1/2-x,1/2+z
1/2+y,1/2+x,1/2+z
loop_
_atom_site_type_symbol
_atom_site_label
_atom_site_fract_x
_atom_site_fract_y
_atom_site_fract_z
Si Si1 0.631380 0.059526 0.353956
Si Si2 0.500000 0.500000 0.750000
Si Si3 0.141081 0.148293 0.603513
O O1 0.594260 0.094260 0.250000
O O2 0.682026 0.196718 0.400210
O O3 0.500000 0.000000 0.404226
O O4 0.741006 0.946343 0.362770
O O5 0.625382 0.526176 0.818918
O O6 0.095181 0.106734 0.500000
#
# Coordination Sequence:
#
# PCOD8317665 Si02
#       3
#    16   4  16
#     4  11  27  49  77 111 158 208 257 330 401 474
#     4  12  26  48  72 106 156 200 262 328 400 462
#     4  12  27  48  78 111 151 205 265 325 397 479
#
# _framework density 24.670766
#
# number of rings (size 3 to 8) (size 9 to 14) (size 15 to 20)
#    0.000    0.444    4.444    2.000   12.444    3.556 
#    0.000    0.000    0.000    0.000    0.000    0.000 
#    0.000    0.000    0.000    0.000    0.000    0.000 
#
# Total GULP energy -446116.878565 kJ/mol
# GULP energy per Si atom -12392.135516 kJ/mol
# Density = 2.461461 g / cm^3
# Si number density = 24.670766 Si / 1000 Ang^3
#
#
#
# Elastic Constant Matrix: (Units=GPa)
#
#
# Indices 1 2 3 4 5 6 
#
# 1 144.9935 63.1702 50.8174 0.0000 0.0000 0.0000
# 2 63.1702 144.9935 50.8174 0.0000 0.0000 0.0000
# 3 50.8174 50.8174 182.8468 0.0000 0.0000 0.0000
# 4 0.0000 0.0000 0.0000 13.0930 0.0000 0.0000
# 5 0.0000 0.0000 0.0000 0.0000 13.0930 0.0000
# 6 0.0000 0.0000 0.0000 0.0000 0.0000 56.3918
#
#
#
# Elastic Compliance Matrix: (Units=1/GPa)
#
#
# Indices 1 2 3 4 5 6 
#
# 1 0.008890 -0.003332 -0.001545 0.000000 0.000000 0.000000
# 2 -0.003332 0.008890 -0.001545 0.000000 0.000000 0.000000
# 3 -0.001545 -0.001545 0.006328 0.000000 0.000000 0.000000
# 4 0.000000 0.000000 0.000000 0.076376 0.000000 0.000000
# 5 0.000000 0.000000 0.000000 0.000000 0.076376 0.000000
# 6 0.000000 0.000000 0.000000 0.000000 0.000000 0.017733
#
#
# Mechanical properties :
#
#
# Convention : Reuss Voigt Hill
#
# Bulk Modulus (GPa) = 88.77047 89.16041 88.96544
# Shear Modulus (GPa) = 23.67530 37.05083 30.36306
#
# Velocity S-wave (km/s) = 3.10118 3.87952 3.51198
# Velocity P-wave (km/s) = 6.99166 7.50241 7.25153
#
# Compressibility (1/GPa) = 0.01126501
#
# Stress axis : x y z
#
# Youngs Moduli (GPa) = 112.48866 112.48866 158.03546
#
# Poissons Ratio (x) = 0.37477 0.24412
# Poissons Ratio (y) = 0.37477 0.24412
# Poissons Ratio (z) = 0.17376 0.17376
#
# Static dielectric constant tensor:
#      x y z
#    x 4.932640 0.000000 0.000000 
#    y 0.000000 4.932640 0.000000 
#    z 0.000000 0.000000 4.637320 
# 
# 
# High freq. dielectric constant tensor:
#      x y z
#    x 1.978510 0.000000 0.000000 
#    y 0.000000 1.978510 0.000000 
#    z 0.000000 0.000000 1.999700 
# 
# From -- ./inp_files/2859.got.cif
#   From: 2010.03.12/outbox.cif.g09.slc.cpg/sg135_2_cif.got.tgz:2859.got - 2010.04.06 18:31:24.
