data_PCOD8317666
_publ_section_title
;
Structure prediction by ZEFSAII (Michael W. Deem and Ramdas Pophale) SiO2 
 PCOD8317666
Probable space group: P 42/M B C
;
_chemical_formula_sum "Si O2"
_cell_formula_units_Z 32
_cell_length_a 15.756515
_cell_length_b 15.756515
_cell_length_c 5.346020
_cell_angle_alpha 90.000000
_cell_angle_beta 90.000000
_cell_angle_gamma 90.000000
_cell_volume 1327.244437
_symmetry_space_group_name_H-M "P 42/M B C"
_symmetry_group_IT_number 135
_symmetry_cell_setting 'tetragonal'
loop_
_space_group_symop_operation_xyz
x,y,z
-y,x,1/2+z
-x,-y,z
y,-x,1/2+z
1/2+x,1/2-y,-z
1/2-x,1/2+y,-z
1/2+y,1/2+x,1/2-z
1/2-y,1/2-x,1/2-z
-x,-y,-z
y,-x,1/2-z
x,y,-z
-y,x,1/2-z
1/2-x,1/2+y,z
1/2+x,1/2-y,z
1/2-y,1/2-x,1/2+z
1/2+y,1/2+x,1/2+z
loop_
_atom_site_type_symbol
_atom_site_label
_atom_site_fract_x
_atom_site_fract_y
_atom_site_fract_z
Si Si1 0.456702 0.120385 0.500000
Si Si2 0.182889 0.965729 0.500000
Si Si3 0.840609 0.628194 0.500000
Si Si4 0.817246 0.938291 0.000000
O O1 0.424182 0.075819 0.250000
O O2 0.558573 0.111613 0.500000
O O3 0.423060 0.217047 0.500000
O O4 0.286305 0.959093 0.500000
O O5 0.149668 0.868699 0.500000
O O6 0.152680 0.012236 0.750793
O O7 0.818152 0.681849 0.750000
#
# Coordination Sequence:
#
# PCOD8317666 Si02
#       4
#     8   8   8   8
#     4  12  26  45  73 111 146 188 239 289 356 436
#     4  12  26  49  74 105 145 190 246 300 360 421
#     4  12  23  45  72 100 146 190 227 288 372 426
#     4  12  27  49  73 108 146 188 250 295 356 423
#
# _framework density 24.110105000000001
#
# number of rings (size 3 to 8) (size 9 to 14) (size 15 to 20)
#    0.000    0.000    5.000    4.500    0.000    8.000 
#    0.000    0.000    0.000    0.000    0.000    0.000 
#    0.000    0.000    0.000    0.000    0.000    0.000 
#
# Total GULP energy -396555.921453 kJ/mol
# GULP energy per Si atom -12392.372545 kJ/mol
# Density = 2.405523 g / cm^3
# Si number density = 24.110105 Si / 1000 Ang^3
#
#
#
# Elastic Constant Matrix: (Units=GPa)
#
#
# Indices 1 2 3 4 5 6 
#
# 1 95.9493 54.4085 33.4582 0.0000 0.0000 0.0000
# 2 54.4085 95.9517 33.4593 0.0000 0.0000 0.0000
# 3 33.4582 33.4593 270.9254 0.0000 0.0000 0.0000
# 4 0.0000 0.0000 0.0000 14.6588 0.0000 0.0000
# 5 0.0000 0.0000 0.0000 0.0000 14.6570 0.0000
# 6 0.0000 0.0000 0.0000 0.0000 0.0000 36.2185
#
#
#
# Elastic Compliance Matrix: (Units=1/GPa)
#
#
# Indices 1 2 3 4 5 6 
#
# 1 0.015555 -0.008517 -0.000869 0.000000 0.000000 0.000000
# 2 -0.008517 0.015555 -0.000869 0.000000 0.000000 0.000000
# 3 -0.000869 -0.000869 0.003906 0.000000 0.000000 0.000000
# 4 0.000000 0.000000 0.000000 0.068219 0.000000 0.000000
# 5 0.000000 0.000000 0.000000 0.000000 0.068227 0.000000
# 6 0.000000 0.000000 0.000000 0.000000 0.000000 0.027610
#
#
# Mechanical properties :
#
#
# Convention : Reuss Voigt Hill
#
# Bulk Modulus (GPa) = 68.94489 78.38648 73.66569
# Shear Modulus (GPa) = 22.28000 35.87355 29.07678
#
# Velocity S-wave (km/s) = 3.04319 3.86152 3.47652
# Velocity P-wave (km/s) = 6.40359 7.24322 6.83631
#
# Compressibility (1/GPa) = 0.01450434
#
# Stress axis : x y z
#
# Youngs Moduli (GPa) = 64.28823 64.28973 256.03455
#
# Poissons Ratio (x) = 0.54757 0.22252
# Poissons Ratio (y) = 0.54756 0.22253
# Poissons Ratio (z) = 0.05587 0.05588
#
# Static dielectric constant tensor:
#      x y z
#    x 4.142760 0.000000 0.000000 
#    y 0.000000 4.142760 0.000000 
#    z 0.000000 0.000000 6.187620 
# 
# 
# High freq. dielectric constant tensor:
#      x y z
#    x 1.940890 0.000000 0.000000 
#    y 0.000000 1.940890 0.000000 
#    z 0.000000 0.000000 2.009360 
# 
# From -- ./inp_files/75.got.cif
#   From: 2010.03.12/outbox.cif.g09.slc.cpg/sg135_1_cif.got.tgz:75.got - 2010.04.06 18:31:24.
