data_PCOD8317580
_publ_section_title
;
Structure prediction by ZEFSAII (Michael W. Deem and Ramdas Pophale) SiO2 
 PCOD8317580
Probable space group: P 42/M B C
;
_chemical_formula_sum "Si O2"
_cell_formula_units_Z 112
_cell_length_a 14.133828
_cell_length_b 14.133828
_cell_length_c 24.596165
_cell_angle_alpha 90.000000
_cell_angle_beta 90.000000
_cell_angle_gamma 90.000000
_cell_volume 4913.455212
_symmetry_space_group_name_H-M "P 42/M B C"
_symmetry_group_IT_number 135
_symmetry_cell_setting 'tetragonal'
loop_
_space_group_symop_operation_xyz
x,y,z
-y,x,1/2+z
-x,-y,z
y,-x,1/2+z
1/2+x,1/2-y,-z
1/2-x,1/2+y,-z
1/2+y,1/2+x,1/2-z
1/2-y,1/2-x,1/2-z
-x,-y,-z
y,-x,1/2-z
x,y,-z
-y,x,1/2-z
1/2-x,1/2+y,z
1/2+x,1/2-y,z
1/2-y,1/2-x,1/2+z
1/2+y,1/2+x,1/2+z
loop_
_atom_site_type_symbol
_atom_site_label
_atom_site_fract_x
_atom_site_fract_y
_atom_site_fract_z
Si Si1 0.375862 0.743292 0.061131
Si Si2 0.632116 0.784619 0.393394
Si Si3 0.179841 0.066403 0.790876
Si Si4 0.097247 0.311594 0.700746
Si Si5 0.602120 0.515184 0.359717
Si Si6 0.152568 0.781014 0.818951
Si Si7 0.102325 0.460360 0.094014
O O1 0.267529 0.706535 0.066744
O O2 0.442670 0.684258 0.101811
O O3 0.380097 0.857147 0.068963
O O4 0.410621 0.722895 0.000000
O O5 0.589275 0.708741 0.352612
O O6 0.686530 0.862840 0.355163
O O7 0.545131 0.829452 0.428061
O O8 0.067578 0.082034 0.800865
O O9 0.228908 0.134008 0.745971
O O10 0.220477 0.962024 0.777787
O O11 0.120213 0.379788 0.750000
O O12 0.191163 0.264297 0.673913
O O13 0.042943 0.378387 0.658602
O O14 0.500000 0.500000 0.389796
O O15 0.635825 0.412227 0.341788
O O16 0.000000 0.500000 0.080566
#
# Coordination Sequence:
#
# PCOD8317580 Si02
#       7
#    16  16  16  16  16  16  16
#     4  11  26  49  74  99 131 180 239 303 367 418
#     4  10  23  42  67  96 133 179 228 287 341 409
#     4  10  22  37  59  96 141 181 220 270 335 405
#     4  11  23  37  62  99 139 187 225 266 329 406
#     4  11  24  41  66 103 139 179 231 289 345 419
#     4  12  21  37  65  97 140 184 226 275 337 422
#     4  11  25  46  67 100 142 179 226 290 349 425
#
# _framework density 22.794550000000001
#
# number of rings (size 3 to 8) (size 9 to 14) (size 15 to 20)
#    0.000    1.143    2.857    3.000    6.000    1.429 
#    0.000    2.143    0.000    0.000    0.000    0.000 
#    0.000    0.000    0.000    0.000    0.000    0.000 
#
# Total GULP energy -1387556.307494 kJ/mol
# GULP energy per Si atom -12388.895603 kJ/mol
# Density = 2.274267 g / cm^3
# Si number density = 22.794550 Si / 1000 Ang^3
#
#
#
# Elastic Constant Matrix: (Units=GPa)
#
#
# Indices 1 2 3 4 5 6 
#
# 1 112.5425 35.2387 23.8686 0.0000 0.0000 0.0000
# 2 35.2387 112.5416 23.8684 0.0000 0.0000 0.0000
# 3 23.8686 23.8684 73.2435 0.0000 0.0000 0.0000
# 4 0.0000 0.0000 0.0000 14.9337 0.0000 0.0000
# 5 0.0000 0.0000 0.0000 0.0000 14.9338 0.0000
# 6 0.0000 0.0000 0.0000 0.0000 0.0000 43.1204
#
#
#
# Elastic Compliance Matrix: (Units=1/GPa)
#
#
# Indices 1 2 3 4 5 6 
#
# 1 0.010249 -0.002687 -0.002465 0.000000 0.000000 0.000000
# 2 -0.002687 0.010250 -0.002465 0.000000 0.000000 0.000000
# 3 -0.002465 -0.002465 0.015259 0.000000 0.000000 0.000000
# 4 0.000000 0.000000 0.000000 0.066963 0.000000 0.000000
# 5 0.000000 0.000000 0.000000 0.000000 0.066962 0.000000
# 6 0.000000 0.000000 0.000000 0.000000 0.000000 0.023191
#
#
# Mechanical properties :
#
#
# Convention : Reuss Voigt Hill
#
# Bulk Modulus (GPa) = 48.71667 51.58655 50.15161
# Shear Modulus (GPa) = 23.26145 28.95437 26.10791
#
# Velocity S-wave (km/s) = 3.19797 3.56790 3.38798
# Velocity P-wave (km/s) = 5.92068 6.29710 6.11179
#
# Compressibility (1/GPa) = 0.02052686
#
# Stress axis : x y z
#
# Youngs Moduli (GPa) = 97.56627 97.56562 65.53339
#
# Poissons Ratio (x) = 0.26212 0.16151
# Poissons Ratio (y) = 0.26212 0.16151
# Poissons Ratio (z) = 0.24046 0.24046
#
# Static dielectric constant tensor:
#      x y z
#    x 4.266700 0.000000 0.000000 
#    y 0.000000 4.266700 0.000000 
#    z 0.000000 0.000000 3.692460 
# 
# 
# High freq. dielectric constant tensor:
#      x y z
#    x 1.909330 0.000000 0.000000 
#    y 0.000000 1.909330 0.000000 
#    z 0.000000 0.000000 1.861920 
# 
# From -- ./inp_files/6120.got.cif
#   From: 2010.03.12/outbox.cif.g09.slc.cpg/sg135_4_cif.got.tgz:6120.got - 2010.04.06 18:31:24.
