data_PCOD8317292
_publ_section_title
;
Structure prediction by ZEFSAII (Michael W. Deem and Ramdas Pophale) SiO2 
 PCOD8317292
Probable space group: P 42/N N M
;
_chemical_formula_sum "Si O2"
_cell_formula_units_Z 80
_cell_length_a 26.031348
_cell_length_b 26.031348
_cell_length_c 5.683114
_cell_angle_alpha 90.000000
_cell_angle_beta 90.000000
_cell_angle_gamma 90.000000
_cell_volume 3851.054670
_symmetry_space_group_name_H-M "P 42/N N M"
_symmetry_group_IT_number 134
_space_group.IT_coordinate_system_code '2'
_symmetry_cell_setting 'tetragonal'
loop_
_space_group_symop_operation_xyz
x,y,z
1/2-y,x,1/2+z
1/2-x,1/2-y,z
y,1/2-x,1/2+z
x,1/2-y,1/2-z
1/2-x,y,1/2-z
y,x,-z
1/2-y,1/2-x,-z
-x,-y,-z
1/2+y,-x,1/2-z
1/2+x,1/2+y,-z
-y,1/2+x,1/2-z
-x,1/2+y,1/2+z
1/2+x,-y,1/2+z
-y,-x,z
1/2+y,1/2+x,z
loop_
_atom_site_type_symbol
_atom_site_label
_atom_site_fract_x
_atom_site_fract_y
_atom_site_fract_z
Si Si1 0.600203 0.899798 0.500000
Si Si2 0.163772 0.539239 0.935541
Si Si3 0.190114 0.690114 0.256007
Si Si4 0.054580 0.198465 0.135584
Si Si5 0.147121 0.647121 0.756642
Si Si6 0.750000 0.009738 0.750000
Si Si7 0.071134 0.492074 0.188420
O O1 0.655715 0.900441 0.374834
O O2 0.600574 0.952806 0.644173
O O3 0.172687 0.487419 0.798216
O O4 0.158352 0.586344 0.754664
O O5 0.214434 0.547818 0.096448
O O6 0.111771 0.532138 0.081707
O O7 0.178127 0.750000 0.250000
O O8 0.169197 0.669197 0.510368
O O9 0.167195 0.667195 0.012694
O O10 0.078276 0.250000 0.250000
O O11 0.028126 0.212157 0.889889
O O12 0.028256 0.528256 0.316727
O O13 0.042740 0.457261 0.000000
#
# Coordination Sequence:
#
# PCOD8317292 Si02
#       7
#     8  16   8  16   8   8  16
#     4  12  21  38  68  90 125 186 218 266 344 405
#     4  11  23  41  61  97 133 173 221 272 338 411
#     4  11  28  52  74  98 125 172 246 311 364 418
#     4  10  23  39  61  94 131 164 220 275 327 402
#     4  12  28  43  75  98 138 182 230 287 365 420
#     4  10  22  40  62  86 132 170 214 278 330 400
#     4  11  22  38  58  91 135 170 214 264 318 404
#
# _framework density 20.773530000000001
#
# number of rings (size 3 to 8) (size 9 to 14) (size 15 to 20)
#    0.000    1.100    5.000    0.900    4.200    4.000 
#    1.800    0.000    0.000    0.000    0.000    2.100 
#    0.000    0.000    0.000    0.000    0.000    0.000 
#
# Total GULP energy -991307.640888 kJ/mol
# GULP energy per Si atom -12391.345511 kJ/mol
# Density = 2.072625 g / cm^3
# Si number density = 20.773530 Si / 1000 Ang^3
#
#
#
# Elastic Constant Matrix: (Units=GPa)
#
#
# Indices 1 2 3 4 5 6 
#
# 1 113.7004 68.1806 33.1046 0.0000 0.0000 0.0000
# 2 68.1806 113.6999 33.1030 0.0000 0.0000 0.0000
# 3 33.1046 33.1030 90.1479 0.0000 0.0000 0.0000
# 4 0.0000 0.0000 0.0000 28.9716 0.0000 0.0000
# 5 0.0000 0.0000 0.0000 0.0000 28.9717 0.0000
# 6 0.0000 0.0000 0.0000 0.0000 0.0000 29.6519
#
#
#
# Elastic Compliance Matrix: (Units=1/GPa)
#
#
# Indices 1 2 3 4 5 6 
#
# 1 0.014158 -0.007811 -0.002331 0.000000 0.000000 0.000000
# 2 -0.007811 0.014157 -0.002330 0.000000 0.000000 0.000000
# 3 -0.002331 -0.002330 0.012804 0.000000 0.000000 0.000000
# 4 0.000000 0.000000 0.000000 0.034517 0.000000 0.000000
# 5 0.000000 0.000000 0.000000 0.000000 0.034516 0.000000
# 6 0.000000 0.000000 0.000000 0.000000 0.000000 0.033725
#
#
# Mechanical properties :
#
#
# Convention : Reuss Voigt Hill
#
# Bulk Modulus (GPa) = 61.82262 65.14720 63.48491
# Shear Modulus (GPa) = 28.70046 29.72970 29.21508
#
# Velocity S-wave (km/s) = 3.72100 3.78714 3.75422
# Velocity P-wave (km/s) = 6.94882 7.10999 7.02987
#
# Compressibility (1/GPa) = 0.01617531
#
# Stress axis : x y z
#
# Youngs Moduli (GPa) = 70.63358 70.63406 78.09758
#
# Poissons Ratio (x) = 0.55173 0.18202
# Poissons Ratio (y) = 0.55172 0.18199
# Poissons Ratio (z) = 0.16463 0.16460
#
# Static dielectric constant tensor:
#      x y z
#    x 4.349680 0.000000 0.000000 
#    y 0.000000 4.349910 0.000000 
#    z 0.000000 0.000000 4.081920 
# 
# 
# High freq. dielectric constant tensor:
#      x y z
#    x 1.812920 0.000000 0.000000 
#    y 0.000000 1.812920 0.000000 
#    z 0.000000 0.000000 1.811260 
# 
# From -- ./inp_files/1206.got.cif
#   From: 2010.03.12/outbox.cif.g09.slc.cpg/sg134_1_cif.got.tgz:1206.got - 2010.04.06 18:17:22.
