data_PCOD8317228
_publ_section_title
;
Structure prediction by ZEFSAII (Michael W. Deem and Ramdas Pophale) SiO2 
 PCOD8317228
Probable space group: P 42/N N M
;
_chemical_formula_sum "Si O2"
_cell_formula_units_Z 80
_cell_length_a 12.152610
_cell_length_b 12.152610
_cell_length_c 28.262210
_cell_angle_alpha 90.000000
_cell_angle_beta 90.000000
_cell_angle_gamma 90.000000
_cell_volume 4173.930762
_symmetry_space_group_name_H-M "P 42/N N M"
_symmetry_group_IT_number 134
_space_group.IT_coordinate_system_code '2'
_symmetry_cell_setting 'tetragonal'
loop_
_space_group_symop_operation_xyz
x,y,z
1/2-y,x,1/2+z
1/2-x,1/2-y,z
y,1/2-x,1/2+z
x,1/2-y,1/2-z
1/2-x,y,1/2-z
y,x,-z
1/2-y,1/2-x,-z
-x,-y,-z
1/2+y,-x,1/2-z
1/2+x,1/2+y,-z
-y,1/2+x,1/2-z
-x,1/2+y,1/2+z
1/2+x,-y,1/2+z
-y,-x,z
1/2+y,1/2+x,z
loop_
_atom_site_type_symbol
_atom_site_label
_atom_site_fract_x
_atom_site_fract_y
_atom_site_fract_z
Si Si1 0.739650 0.876539 0.874809
Si Si2 0.326637 0.491659 0.602886
Si Si3 0.432106 0.385302 0.052659
Si Si4 0.250451 0.927134 0.194593
Si Si5 0.928565 0.256098 0.301288
O O1 0.750000 0.750000 0.858306
O O2 0.620834 0.896205 0.899500
O O3 0.830671 0.907294 0.913004
O O4 0.753187 0.955151 0.830081
O O5 0.403232 0.596769 0.593294
O O6 0.231003 0.491581 0.563530
O O7 0.271819 0.491522 0.655379
O O8 0.518391 0.481610 0.060225
O O9 0.383915 0.383915 0.000000
O O10 0.250000 0.949584 0.250000
O O11 0.144137 0.855864 0.179795
O O12 0.360624 0.860624 0.180097
O O13 0.990651 0.250000 0.250000
O O14 0.830760 0.169241 0.298901
O O15 0.877477 0.377477 0.310093
#
# Coordination Sequence:
#
# PCOD8317228 Si02
#       5
#    16  16  16  16  16
#     4  10  21  36  54  81 115 149 176 223 283 345
#     4  10  20  35  57  85 115 146 182 229 282 337
#     4  10  22  41  62  82 108 144 188 235 283 336
#     4   9  18  35  58  79 104 146 197 239 269 310
#     4   8  14  27  48  75 109 146 183 223 268 321
#
# _framework density 19.166585999999999
#
# number of rings (size 3 to 8) (size 9 to 14) (size 15 to 20)
#    0.000    2.600    0.000    3.000    0.000    5.200 
#    7.200    3.000    0.000    2.400    0.000    0.000 
#    0.000    0.000    0.000    0.000    0.000    0.000 
#
# Total GULP energy -991787.222761 kJ/mol
# GULP energy per Si atom -12397.340285 kJ/mol
# Density = 1.912296 g / cm^3
# Si number density = 19.166586 Si / 1000 Ang^3
#
#
#
# Elastic Constant Matrix: (Units=GPa)
#
#
# Indices 1 2 3 4 5 6 
#
# 1 106.7210 50.5804 65.8919 0.0000 0.0000 0.0000
# 2 50.5804 106.7210 65.8919 0.0000 0.0000 0.0000
# 3 65.8919 65.8919 105.8110 0.0000 0.0000 0.0000
# 4 0.0000 0.0000 0.0000 28.8405 0.0000 0.0000
# 5 0.0000 0.0000 0.0000 0.0000 28.8405 0.0000
# 6 0.0000 0.0000 0.0000 0.0000 0.0000 15.2701
#
#
#
# Elastic Compliance Matrix: (Units=1/GPa)
#
#
# Indices 1 2 3 4 5 6 
#
# 1 0.015552 -0.002260 -0.008277 0.000000 0.000000 0.000000
# 2 -0.002260 0.015552 -0.008277 0.000000 0.000000 0.000000
# 3 -0.008277 -0.008277 0.019760 0.000000 0.000000 0.000000
# 4 0.000000 0.000000 0.000000 0.034673 0.000000 0.000000
# 5 0.000000 0.000000 0.000000 0.000000 0.034673 0.000000
# 6 0.000000 0.000000 0.000000 0.000000 0.000000 0.065488
#
#
# Mechanical properties :
#
#
# Convention : Reuss Voigt Hill
#
# Bulk Modulus (GPa) = 75.56048 75.99793 75.77921
# Shear Modulus (GPa) = 21.95496 23.71614 22.83555
#
# Velocity S-wave (km/s) = 3.38817 3.52144 3.45545
# Velocity P-wave (km/s) = 7.40370 7.50143 7.45273
#
# Compressibility (1/GPa) = 0.01323443
#
# Stress axis : x y z
#
# Youngs Moduli (GPa) = 64.30037 64.30037 50.60818
#
# Poissons Ratio (x) = 0.14535 0.41889
# Poissons Ratio (y) = 0.14535 0.41889
# Poissons Ratio (z) = 0.53222 0.53222
#
# Static dielectric constant tensor:
#      x y z
#    x 3.549770 0.000000 0.000000 
#    y 0.000000 3.549770 0.000000 
#    z 0.000000 0.000000 3.563810 
# 
# 
# High freq. dielectric constant tensor:
#      x y z
#    x 1.744960 0.000000 0.000000 
#    y 0.000000 1.744960 0.000000 
#    z 0.000000 0.000000 1.734280 
# 
# From -- ./inp_files/11322.got.cif
#   From: 2010.03.12/outbox.cif.g09.slc.cpg/sg134_6_cif.got.tgz:11322.got - 2010.04.06 18:17:22.
