data_PCOD8317068
_publ_section_title
;
Structure prediction by ZEFSAII (Michael W. Deem and Ramdas Pophale) SiO2 
 PCOD8317068
Probable space group: P 42/N N M
;
_chemical_formula_sum "Si O2"
_cell_formula_units_Z 120
_cell_length_a 23.105825
_cell_length_b 23.105825
_cell_length_c 14.861959
_cell_angle_alpha 90.000000
_cell_angle_beta 90.000000
_cell_angle_gamma 90.000000
_cell_volume 7934.490022
_symmetry_space_group_name_H-M "P 42/N N M"
_symmetry_group_IT_number 134
_space_group.IT_coordinate_system_code '2'
_symmetry_cell_setting 'tetragonal'
loop_
_space_group_symop_operation_xyz
x,y,z
1/2-y,x,1/2+z
1/2-x,1/2-y,z
y,1/2-x,1/2+z
x,1/2-y,1/2-z
1/2-x,y,1/2-z
y,x,-z
1/2-y,1/2-x,-z
-x,-y,-z
1/2+y,-x,1/2-z
1/2+x,1/2+y,-z
-y,1/2+x,1/2-z
-x,1/2+y,1/2+z
1/2+x,-y,1/2+z
-y,-x,z
1/2+y,1/2+x,z
loop_
_atom_site_type_symbol
_atom_site_label
_atom_site_fract_x
_atom_site_fract_y
_atom_site_fract_z
Si Si1 0.455591 0.641695 0.341115
Si Si2 0.574961 0.978144 0.705400
Si Si3 0.469055 0.871756 0.459357
Si Si4 0.595432 0.250000 0.750000
Si Si5 0.080971 0.673600 0.976115
Si Si6 0.912366 0.185769 0.278151
Si Si7 0.609992 0.487238 0.157380
Si Si8 0.718097 0.126019 0.562625
O O1 0.398581 0.601420 0.337094
O O2 0.511344 0.608167 0.300403
O O3 0.445122 0.696524 0.277500
O O4 0.466842 0.663469 0.444307
O O5 0.545878 0.914539 0.703899
O O6 0.525482 0.025482 0.693752
O O7 0.618635 0.984800 0.620705
O O8 0.421260 0.921260 0.455829
O O9 0.501980 0.872158 0.555000
O O10 0.437323 0.810491 0.447362
O O11 0.636800 0.267623 0.832675
O O12 0.113656 0.613656 0.966122
O O13 0.126099 0.723742 0.004428
O O14 0.057007 0.687935 0.876887
O O15 0.892234 0.250000 0.250000
O O16 0.855879 0.144122 0.275980
O O17 0.962901 0.164900 0.211274
O O18 0.561215 0.438786 0.158113
O O19 0.676891 0.176891 0.525804
#
# Coordination Sequence:
#
# PCOD8317068 Si02
#       8
#    16  16  16   8  16  16  16  16
#     4   9  16  27  40  56  79 108 136 165 203 249
#     4   9  15  25  41  61  83 104 126 160 206 253
#     4   9  15  24  39  60  82 102 126 161 208 257
#     4  10  16  24  38  55  78 108 139 166 202 250
#     4   9  19  31  41  53  76 108 144 182 214 240
#     4  10  20  34  47  60  78 105 142 182 214 242
#     4   9  17  27  42  62  81 101 131 170 207 244
#     4  10  18  27  40  57  78 108 144 177 214 254
#
# _framework density 15.123844999999999
#
# number of rings (size 3 to 8) (size 9 to 14) (size 15 to 20)
#    0.000    2.667    1.333    1.600    0.000    4.133 
#    0.000    2.000    0.000    6.600    0.000    0.000 
#    0.000    0.000    0.000    0.600    0.000    0.000 
#
# Total GULP energy -1486951.146141 kJ/mol
# GULP energy per Si atom -12391.259551 kJ/mol
# Density = 1.508942 g / cm^3
# Si number density = 15.123845 Si / 1000 Ang^3
#
#
#
# Elastic Constant Matrix: (Units=GPa)
#
#
# Indices 1 2 3 4 5 6 
#
# 1 31.6429 26.1701 26.7143 0.0000 0.0000 0.0000
# 2 26.1701 31.6429 26.7143 0.0000 0.0000 0.0000
# 3 26.7143 26.7143 105.3102 0.0000 0.0000 0.0000
# 4 0.0000 0.0000 0.0000 13.3052 0.0000 0.0000
# 5 0.0000 0.0000 0.0000 0.0000 13.3052 0.0000
# 6 0.0000 0.0000 0.0000 0.0000 0.0000 14.4983
#
#
#
# Elastic Compliance Matrix: (Units=1/GPa)
#
#
# Indices 1 2 3 4 5 6 
#
# 1 0.102657 -0.080063 -0.005731 0.000000 0.000000 0.000000
# 2 -0.080063 0.102657 -0.005731 0.000000 0.000000 0.000000
# 3 -0.005731 -0.005731 0.012404 0.000000 0.000000 0.000000
# 4 0.000000 0.000000 0.000000 0.075159 0.000000 0.000000
# 5 0.000000 0.000000 0.000000 0.000000 0.075159 0.000000
# 6 0.000000 0.000000 0.000000 0.000000 0.000000 0.068974
#
#
# Mechanical properties :
#
#
# Convention : Reuss Voigt Hill
#
# Bulk Modulus (GPa) = 28.84702 36.42150 32.63426
# Shear Modulus (GPa) = 7.91619 14.15490 11.03554
#
# Velocity S-wave (km/s) = 2.29033 3.06262 2.70419
# Velocity P-wave (km/s) = 5.10974 6.05315 5.60134
#
# Compressibility (1/GPa) = 0.03466563
#
# Stress axis : x y z
#
# Youngs Moduli (GPa) = 9.74115 9.74115 80.62180
#
# Poissons Ratio (x) = 0.77991 0.46208
# Poissons Ratio (y) = 0.77991 0.46208
# Poissons Ratio (z) = 0.05583 0.05583
#
# Static dielectric constant tensor:
#      x y z
#    x 2.706080 0.000000 0.000000 
#    y 0.000000 2.706080 0.000000 
#    z 0.000000 0.000000 3.268700 
# 
# 
# High freq. dielectric constant tensor:
#      x y z
#    x 1.535010 0.000000 0.000000 
#    y 0.000000 1.535010 0.000000 
#    z 0.000000 0.000000 1.598710 
# 
# From -- ./inp_files/6790.got.cif
#   From: 2010.03.12/outbox.cif.g09.slc.cpg/sg134_4_cif.got.tgz:6790.got - 2010.04.06 18:17:22.
