data_PCOD8317484
_publ_section_title
;
Structure prediction by ZEFSAII (Michael W. Deem and Ramdas Pophale) SiO2 
 PCOD8317484
Probable space group: P 42/M B C
;
_chemical_formula_sum "Si O2"
_cell_formula_units_Z 96
_cell_length_a 23.774985
_cell_length_b 23.774985
_cell_length_c 8.794981
_cell_angle_alpha 90.000000
_cell_angle_beta 90.000000
_cell_angle_gamma 90.000000
_cell_volume 4971.362234
_symmetry_space_group_name_H-M "P 42/M B C"
_symmetry_group_IT_number 135
_symmetry_cell_setting 'tetragonal'
loop_
_space_group_symop_operation_xyz
x,y,z
-y,x,1/2+z
-x,-y,z
y,-x,1/2+z
1/2+x,1/2-y,-z
1/2-x,1/2+y,-z
1/2+y,1/2+x,1/2-z
1/2-y,1/2-x,1/2-z
-x,-y,-z
y,-x,1/2-z
x,y,-z
-y,x,1/2-z
1/2-x,1/2+y,z
1/2+x,1/2-y,z
1/2-y,1/2-x,1/2+z
1/2+y,1/2+x,1/2+z
loop_
_atom_site_type_symbol
_atom_site_label
_atom_site_fract_x
_atom_site_fract_y
_atom_site_fract_z
Si Si1 0.480618 0.789379 0.175452
Si Si2 0.693320 0.725834 0.821057
Si Si3 0.499777 0.083514 0.179391
Si Si4 0.569560 0.693684 0.177802
Si Si5 0.364259 0.783906 0.678055
Si Si6 0.471865 0.420287 0.319176
O O1 0.501396 0.851116 0.223408
O O2 0.529719 0.746062 0.212338
O O3 0.427168 0.770565 0.272114
O O4 0.463067 0.788250 0.000000
O O5 0.715862 0.784139 0.750000
O O6 0.630796 0.712443 0.764115
O O7 0.732473 0.674474 0.765626
O O8 0.694427 0.733264 0.000000
O O9 0.555421 0.055421 0.250000
O O10 0.444031 0.055970 0.250000
O O11 0.500037 0.073443 0.000000
O O12 0.549761 0.641070 0.276234
O O13 0.569784 0.677188 0.000000
O O14 0.342236 0.842236 0.750000
O O15 0.361743 0.791128 0.500000
O O16 0.429068 0.466248 0.251026
O O17 0.474768 0.427058 0.500000
#
# Coordination Sequence:
#
# PCOD8317484 Si02
#       6
#    16  16  16  16  16  16
#     4  10  22  37  55  82 116 151 187 233 288 340
#     4   9  20  38  59  82 113 151 192 238 286 339
#     4  10  20  35  55  80 109 147 190 235 286 342
#     4  10  22  40  59  86 122 158 194 242 294 346
#     4  10  20  35  57  84 111 146 190 238 288 338
#     4  11  23  41  64  90 118 154 196 243 296 353
#
# _framework density 19.310603
#
# number of rings (size 3 to 8) (size 9 to 14) (size 15 to 20)
#    0.000    2.000    0.000    4.000    2.333    5.333 
#    0.000    0.000    0.000    0.000    0.000    0.000 
#    0.000    0.000    0.000    0.000    0.000    0.000 
#
# Total GULP energy -1190795.401285 kJ/mol
# GULP energy per Si atom -12404.118763 kJ/mol
# Density = 1.926665 g / cm^3
# Si number density = 19.310603 Si / 1000 Ang^3
#
#
#
# Elastic Constant Matrix: (Units=GPa)
#
#
# Indices 1 2 3 4 5 6 
#
# 1 138.1537 78.2612 53.9581 0.0000 0.0000 0.0000
# 2 78.2612 138.1547 53.9568 0.0000 0.0000 0.0000
# 3 53.9581 53.9568 88.6001 0.0000 0.0000 0.0000
# 4 0.0000 0.0000 0.0000 30.1384 0.0000 0.0000
# 5 0.0000 0.0000 0.0000 0.0000 30.1389 0.0000
# 6 0.0000 0.0000 0.0000 0.0000 0.0000 24.9858
#
#
#
# Elastic Compliance Matrix: (Units=1/GPa)
#
#
# Indices 1 2 3 4 5 6 
#
# 1 0.011666 -0.005030 -0.004041 0.000000 0.000000 0.000000
# 2 -0.005030 0.011666 -0.004041 0.000000 0.000000 0.000000
# 3 -0.004041 -0.004041 0.016209 0.000000 0.000000 0.000000
# 4 0.000000 0.000000 0.000000 0.033180 0.000000 0.000000
# 5 0.000000 0.000000 0.000000 0.000000 0.033180 0.000000
# 6 0.000000 0.000000 0.000000 0.000000 0.000000 0.040023
#
#
# Mechanical properties :
#
#
# Convention : Reuss Voigt Hill
#
# Bulk Modulus (GPa) = 75.09943 81.91786 78.50865
# Shear Modulus (GPa) = 28.31445 28.96810 28.64128
#
# Velocity S-wave (km/s) = 3.83334 3.87733 3.85540
# Velocity P-wave (km/s) = 7.65293 7.90937 7.78221
#
# Compressibility (1/GPa) = 0.01331568
#
# Stress axis : x y z
#
# Youngs Moduli (GPa) = 85.71684 85.71889 61.69437
#
# Poissons Ratio (x) = 0.43119 0.24934
# Poissons Ratio (y) = 0.43118 0.24931
# Poissons Ratio (z) = 0.34642 0.34640
#
# Static dielectric constant tensor:
#      x y z
#    x 3.617370 0.000000 0.000000 
#    y 0.000000 3.617380 0.000000 
#    z 0.000000 0.000000 3.490270 
# 
# 
# High freq. dielectric constant tensor:
#      x y z
#    x 1.756210 0.000000 0.000000 
#    y 0.000000 1.756210 0.000000 
#    z 0.000000 0.000000 1.752420 
# 
# From -- ./inp_files/1269.got.cif
#   From: 2010.03.12/outbox.cif.g09.slc.cpg/sg135_1_cif.got.tgz:1269.got - 2010.04.06 18:31:24.
