data_PCOD8317306
_publ_section_title
;
Structure prediction by ZEFSAII (Michael W. Deem and Ramdas Pophale) SiO2 
 PCOD8317306
Probable space group: P 42/N N M
;
_chemical_formula_sum "Si O2"
_cell_formula_units_Z 96
_cell_length_a 14.944987
_cell_length_b 14.944987
_cell_length_c 21.770050
_cell_angle_alpha 90.000000
_cell_angle_beta 90.000000
_cell_angle_gamma 90.000000
_cell_volume 4862.398063
_symmetry_space_group_name_H-M "P 42/N N M"
_symmetry_group_IT_number 134
_space_group.IT_coordinate_system_code '2'
_symmetry_cell_setting 'tetragonal'
loop_
_space_group_symop_operation_xyz
x,y,z
1/2-y,x,1/2+z
1/2-x,1/2-y,z
y,1/2-x,1/2+z
x,1/2-y,1/2-z
1/2-x,y,1/2-z
y,x,-z
1/2-y,1/2-x,-z
-x,-y,-z
1/2+y,-x,1/2-z
1/2+x,1/2+y,-z
-y,1/2+x,1/2-z
-x,1/2+y,1/2+z
1/2+x,-y,1/2+z
-y,-x,z
1/2+y,1/2+x,z
loop_
_atom_site_type_symbol
_atom_site_label
_atom_site_fract_x
_atom_site_fract_y
_atom_site_fract_z
Si Si1 0.493074 0.238664 0.569358
Si Si2 0.678546 0.178546 0.070001
Si Si3 0.998990 0.275013 0.432260
Si Si4 0.846393 0.853434 0.736865
Si Si5 0.068745 0.427677 0.647280
Si Si6 0.170990 0.323587 0.101494
Si Si7 0.821944 0.178056 0.575375
O O1 0.520814 0.196482 0.503224
O O2 0.451676 0.166154 0.615400
O O3 0.408286 0.303556 0.559646
O O4 0.578855 0.291380 0.598328
O O5 0.750000 0.250000 0.094485
O O6 0.580709 0.210879 0.093595
O O7 0.675313 0.175313 0.997309
O O8 0.009931 0.362155 0.390167
O O9 0.091774 0.223406 0.434161
O O10 0.844954 0.750000 0.750000
O O11 0.750000 0.897524 0.750000
O O12 0.917531 0.897861 0.782748
O O13 0.867875 0.864486 0.665099
O O14 0.974294 0.474294 0.650244
O O15 0.250000 0.250000 0.112940
O O16 0.750000 0.250000 0.600023
#
# Coordination Sequence:
#
# PCOD8317306 Si02
#       7
#    16   8  16  16  16  16   8
#     4  11  22  37  61  90 122 158 195 248 312 366
#     4   9  20  39  57  79 121 168 199 229 287 364
#     4  11  22  37  61  90 122 158 195 248 312 366
#     4  11  18  40  62  77 109 159 196 241 301 344
#     4  12  24  37  59  92 121 155 211 256 294 362
#     4  12  21  37  63  90 122 152 196 255 306 359
#     4   9  20  39  57  79 121 168 199 229 287 364
#
# _framework density 19.743342999999999
#
# number of rings (size 3 to 8) (size 9 to 14) (size 15 to 20)
#    0.000    1.000    6.667    2.000    0.000    4.000 
#    3.000    2.500    0.000    0.000    0.000    0.000 
#    0.000    0.000    0.000    0.000    0.000    0.000 
#
# Total GULP energy -1189729.790021 kJ/mol
# GULP energy per Si atom -12393.018646 kJ/mol
# Density = 1.969841 g / cm^3
# Si number density = 19.743343 Si / 1000 Ang^3
#
#
#
# Elastic Constant Matrix: (Units=GPa)
#
#
# Indices 1 2 3 4 5 6 
#
# 1 100.8772 43.3867 9.8847 0.0000 0.0000 0.0000
# 2 43.3867 100.8772 9.8847 0.0000 0.0000 0.0000
# 3 9.8847 9.8847 76.7867 0.0000 0.0000 0.0000
# 4 0.0000 0.0000 0.0000 12.4407 0.0000 0.0000
# 5 0.0000 0.0000 0.0000 0.0000 12.4407 0.0000
# 6 0.0000 0.0000 0.0000 0.0000 0.0000 41.6109
#
#
#
# Elastic Compliance Matrix: (Units=1/GPa)
#
#
# Indices 1 2 3 4 5 6 
#
# 1 0.012225 -0.005169 -0.000908 0.000000 0.000000 0.000000
# 2 -0.005169 0.012225 -0.000908 0.000000 0.000000 0.000000
# 3 -0.000908 -0.000908 0.013257 0.000000 0.000000 0.000000
# 4 0.000000 0.000000 0.000000 0.080382 0.000000 0.000000
# 5 0.000000 0.000000 0.000000 0.000000 0.080382 0.000000
# 6 0.000000 0.000000 0.000000 0.000000 0.000000 0.024032
#
#
# Mechanical properties :
#
#
# Convention : Reuss Voigt Hill
#
# Bulk Modulus (GPa) = 42.13008 44.98371 43.55689
# Shear Modulus (GPa) = 20.45943 27.65746 24.05845
#
# Velocity S-wave (km/s) = 3.22261 3.74685 3.49457
# Velocity P-wave (km/s) = 5.93567 6.44610 6.19614
#
# Compressibility (1/GPa) = 0.02373601
#
# Stress axis : x y z
#
# Youngs Moduli (GPa) = 81.79835 81.79835 75.43215
#
# Poissons Ratio (x) = 0.42281 0.06852
# Poissons Ratio (y) = 0.42281 0.06852
# Poissons Ratio (z) = 0.07430 0.07430
#
# Static dielectric constant tensor:
#      x y z
#    x 3.748290 0.000000 0.000000 
#    y 0.000000 3.748290 0.000000 
#    z 0.000000 0.000000 3.175550 
# 
# 
# High freq. dielectric constant tensor:
#      x y z
#    x 1.766440 0.000000 0.000000 
#    y 0.000000 1.766440 0.000000 
#    z 0.000000 0.000000 1.751790 
# 
# From -- ./inp_files/9199.got.cif
#   From: 2010.03.12/outbox.cif.g09.slc.cpg/sg134_5_cif.got.tgz:9199.got - 2010.04.06 18:17:22.
