data_PCOD8317571
_publ_section_title
;
Structure prediction by ZEFSAII (Michael W. Deem and Ramdas Pophale) SiO2 
 PCOD8317571
Probable space group: P 42/M B C
;
_chemical_formula_sum "Si O2"
_cell_formula_units_Z 88
_cell_length_a 14.506190
_cell_length_b 14.506190
_cell_length_c 18.893236
_cell_angle_alpha 90.000000
_cell_angle_beta 90.000000
_cell_angle_gamma 90.000000
_cell_volume 3975.695118
_symmetry_space_group_name_H-M "P 42/M B C"
_symmetry_group_IT_number 135
_symmetry_cell_setting 'tetragonal'
loop_
_space_group_symop_operation_xyz
x,y,z
-y,x,1/2+z
-x,-y,z
y,-x,1/2+z
1/2+x,1/2-y,-z
1/2-x,1/2+y,-z
1/2+y,1/2+x,1/2-z
1/2-y,1/2-x,1/2-z
-x,-y,-z
y,-x,1/2-z
x,y,-z
-y,x,1/2-z
1/2-x,1/2+y,z
1/2+x,1/2-y,z
1/2-y,1/2-x,1/2+z
1/2+y,1/2+x,1/2+z
loop_
_atom_site_type_symbol
_atom_site_label
_atom_site_fract_x
_atom_site_fract_y
_atom_site_fract_z
Si Si1 0.431329 0.288306 0.579886
Si Si2 0.531881 0.779768 0.079486
Si Si3 0.758722 0.658537 0.365205
Si Si4 0.371537 0.671421 0.582063
Si Si5 0.907742 0.462069 0.871441
Si Si6 0.110361 0.389640 0.750000
O O1 0.398315 0.311102 0.500000
O O2 0.347300 0.305984 0.634380
O O3 0.521337 0.347168 0.602532
O O4 0.467609 0.183030 0.581162
O O5 0.421834 0.767989 0.076751
O O6 0.578045 0.682520 0.100760
O O7 0.567915 0.853436 0.138068
O O8 0.564355 0.808585 0.000000
O O9 0.828466 0.742186 0.377077
O O10 0.792130 0.610426 0.292318
O O11 0.364508 0.696746 0.500000
O O12 0.893266 0.518968 0.798924
O O13 0.000000 0.500000 0.911314
#
# Coordination Sequence:
#
# PCOD8317571 Si02
#       6
#    16  16  16  16  16   8
#     4  11  23  43  72 102 136 174 225 294 356 407
#     4  11  23  39  69 106 138 172 222 287 360 415
#     4  12  24  44  65  98 135 188 230 275 346 414
#     4  10  21  41  66 101 136 167 219 284 353 414
#     4  12  23  42  68 100 139 175 233 286 350 402
#     4  12  27  46  60  98 137 190 234 278 333 420
#
# _framework density 22.134495000000001
#
# number of rings (size 3 to 8) (size 9 to 14) (size 15 to 20)
#    0.000    0.727    5.455    2.455    0.000    3.636 
#    6.545    2.727    0.000    0.000    0.000    0.000 
#    0.000    0.000    0.000    0.000    0.000    0.000 
#
# Total GULP energy -1090317.904070 kJ/mol
# GULP energy per Si atom -12389.976183 kJ/mol
# Density = 2.208412 g / cm^3
# Si number density = 22.134495 Si / 1000 Ang^3
#
#
#
# Elastic Constant Matrix: (Units=GPa)
#
#
# Indices 1 2 3 4 5 6 
#
# 1 126.9055 42.2491 46.8017 0.0000 0.0000 0.0000
# 2 42.2491 126.9060 46.8014 0.0000 0.0000 0.0000
# 3 46.8017 46.8014 61.5543 0.0000 0.0000 0.0000
# 4 0.0000 0.0000 0.0000 28.5370 0.0000 0.0000
# 5 0.0000 0.0000 0.0000 0.0000 28.5373 0.0000
# 6 0.0000 0.0000 0.0000 0.0000 0.0000 38.4766
#
#
#
# Elastic Compliance Matrix: (Units=1/GPa)
#
#
# Indices 1 2 3 4 5 6 
#
# 1 0.011009 -0.000803 -0.007760 0.000000 0.000000 0.000000
# 2 -0.000803 0.011009 -0.007760 0.000000 0.000000 0.000000
# 3 -0.007760 -0.007760 0.028046 0.000000 0.000000 0.000000
# 4 0.000000 0.000000 0.000000 0.035042 0.000000 0.000000
# 5 0.000000 0.000000 0.000000 0.000000 0.035042 0.000000
# 6 0.000000 0.000000 0.000000 0.000000 0.000000 0.025990
#
#
# Mechanical properties :
#
#
# Convention : Reuss Voigt Hill
#
# Bulk Modulus (GPa) = 57.41099 65.23005 61.32052
# Shear Modulus (GPa) = 27.08723 31.07775 29.08249
#
# Velocity S-wave (km/s) = 3.50202 3.75112 3.62871
# Velocity P-wave (km/s) = 6.50737 6.94946 6.73204
#
# Compressibility (1/GPa) = 0.01741827
#
# Stress axis : x y z
#
# Youngs Moduli (GPa) = 90.83431 90.83526 35.65633
#
# Poissons Ratio (x) = 0.07298 0.27668
# Poissons Ratio (y) = 0.07298 0.27668
# Poissons Ratio (z) = 0.70484 0.70484
#
# Static dielectric constant tensor:
#      x y z
#    x 4.221120 0.000000 0.000000 
#    y 0.000000 4.221120 0.000000 
#    z 0.000000 0.000000 3.627760 
# 
# 
# High freq. dielectric constant tensor:
#      x y z
#    x 1.880340 0.000000 0.000000 
#    y 0.000000 1.880340 0.000000 
#    z 0.000000 0.000000 1.830670 
# 
# From -- ./inp_files/5349.got.cif
#   From: 2010.03.12/outbox.cif.g09.slc.cpg/sg135_3_cif.got.tgz:5349.got - 2010.04.06 18:31:24.
