data_PCOD8317847
_publ_section_title
;
Structure prediction by ZEFSAII (Michael W. Deem and Ramdas Pophale) SiO2 
 PCOD8317847
Probable space group: P 42/M N M
;
_chemical_formula_sum "Si O2"
_cell_formula_units_Z 104
_cell_length_a 18.737267
_cell_length_b 18.737267
_cell_length_c 17.895223
_cell_angle_alpha 90.000000
_cell_angle_beta 90.000000
_cell_angle_gamma 90.000000
_cell_volume 6282.747492
_symmetry_space_group_name_H-M "P 42/M N M"
_symmetry_group_IT_number 136
_symmetry_cell_setting 'tetragonal'
loop_
_space_group_symop_operation_xyz
x,y,z
1/2-y,1/2+x,1/2+z
-x,-y,z
1/2+y,1/2-x,1/2+z
1/2+x,1/2-y,1/2-z
1/2-x,1/2+y,1/2-z
y,x,-z
-y,-x,-z
-x,-y,-z
1/2+y,1/2-x,1/2-z
x,y,-z
1/2-y,1/2+x,1/2-z
1/2-x,1/2+y,1/2+z
1/2+x,1/2-y,1/2+z
-y,-x,z
y,x,z
loop_
_atom_site_type_symbol
_atom_site_label
_atom_site_fract_x
_atom_site_fract_y
_atom_site_fract_z
Si Si1 0.785810 0.973357 0.138894
Si Si2 0.797805 0.454806 0.784188
Si Si3 0.131837 0.753584 0.859302
Si Si4 0.440319 0.559682 0.413281
Si Si5 0.855873 0.739945 0.584707
Si Si6 0.614638 0.831091 0.215233
Si Si7 0.165542 0.281045 0.915977
O O1 0.767605 0.961210 0.226115
O O2 0.870010 0.967499 0.128211
O O3 0.743009 0.916478 0.089409
O O4 0.760290 0.051131 0.111715
O O5 0.765145 0.423199 0.860384
O O6 0.834187 0.530562 0.800862
O O7 0.860259 0.405897 0.750240
O O8 0.170596 0.829405 0.868728
O O9 0.169844 0.693416 0.909034
O O10 0.134572 0.732125 0.772124
O O11 0.500000 0.500000 0.404710
O O12 0.423634 0.576367 0.500000
O O13 0.884184 0.745756 0.500000
O O14 0.809195 0.809195 0.606993
O O15 0.653322 0.815487 0.137256
O O16 0.213398 0.213398 0.892623
O O17 0.181650 0.306255 0.000000
#
# Coordination Sequence:
#
# PCOD8317847 Si02
#       7
#    16  16  16   8  16  16  16
#     4  10  19  31  48  68  95 131 163 193 232 288
#     4   9  19  32  51  71  96 125 163 205 246 291
#     4   9  17  31  49  68  93 124 160 197 236 283
#     4  11  22  32  44  68 101 131 161 195 229 277
#     4   9  18  31  49  73  98 124 159 203 249 293
#     4   9  18  32  49  72  91 124 161 201 245 292
#     4  10  19  31  48  69  96 127 159 198 243 294
#
# _framework density 16.553267999999999
#
# number of rings (size 3 to 8) (size 9 to 14) (size 15 to 20)
#    0.000    2.538    0.769    1.385    1.077    4.000 
#    0.000    1.538    0.000    0.000    0.000    8.615 
#    0.000    0.615    0.000    0.000    0.000    0.000 
#
# Total GULP energy -1289696.037019 kJ/mol
# GULP energy per Si atom -12400.923433 kJ/mol
# Density = 1.651559 g / cm^3
# Si number density = 16.553268 Si / 1000 Ang^3
#
#
#
# Elastic Constant Matrix: (Units=GPa)
#
#
# Indices 1 2 3 4 5 6 
#
# 1 88.2660 36.7786 41.6186 0.0000 0.0000 0.0000
# 2 36.7786 88.2659 41.6186 0.0000 0.0000 0.0000
# 3 41.6186 41.6186 91.2279 0.0000 0.0000 0.0000
# 4 0.0000 0.0000 0.0000 20.8885 0.0000 0.0000
# 5 0.0000 0.0000 0.0000 0.0000 20.8885 0.0000
# 6 0.0000 0.0000 0.0000 0.0000 0.0000 19.4540
#
#
#
# Elastic Compliance Matrix: (Units=1/GPa)
#
#
# Indices 1 2 3 4 5 6 
#
# 1 0.015454 -0.003969 -0.005239 0.000000 0.000000 0.000000
# 2 -0.003969 0.015454 -0.005239 0.000000 0.000000 0.000000
# 3 -0.005239 -0.005239 0.015742 0.000000 0.000000 0.000000
# 4 0.000000 0.000000 0.000000 0.047873 0.000000 0.000000
# 5 0.000000 0.000000 0.000000 0.000000 0.047873 0.000000
# 6 0.000000 0.000000 0.000000 0.000000 0.000000 0.051403
#
#
# Mechanical properties :
#
#
# Convention : Reuss Voigt Hill
#
# Bulk Modulus (GPa) = 56.32532 56.42124 56.37328
# Shear Modulus (GPa) = 21.87114 22.09582 21.98348
#
# Velocity S-wave (km/s) = 3.63885 3.65750 3.64819
# Velocity P-wave (km/s) = 7.19414 7.21076 7.20245
#
# Compressibility (1/GPa) = 0.01775400
#
# Stress axis : x y z
#
# Youngs Moduli (GPa) = 64.71012 64.71005 63.52402
#
# Poissons Ratio (x) = 0.25681 0.33283
# Poissons Ratio (y) = 0.25682 0.33283
# Poissons Ratio (z) = 0.33904 0.33904
#
# Static dielectric constant tensor:
#      x y z
#    x 3.087310 0.000000 0.000000 
#    y 0.000000 3.087310 0.000000 
#    z 0.000000 0.000000 3.102800 
# 
# 
# High freq. dielectric constant tensor:
#      x y z
#    x 1.632110 0.000000 0.000000 
#    y 0.000000 1.632110 0.000000 
#    z 0.000000 0.000000 1.636890 
# 
# From -- ./inp_files/6420.got.cif
#   From: 2010.03.12/outbox.cif.g09.slc.cpg/sg136_4_cif.got.tgz:6420.got - 2010.04.06 18:39:43.
