data_PCOD8317353
_publ_section_title
;
Structure prediction by ZEFSAII (Michael W. Deem and Ramdas Pophale) SiO2 
 PCOD8317353
Probable space group: P 42/N N M
;
_chemical_formula_sum "Si O2"
_cell_formula_units_Z 96
_cell_length_a 20.691212
_cell_length_b 20.691212
_cell_length_c 12.936599
_cell_angle_alpha 90.000000
_cell_angle_beta 90.000000
_cell_angle_gamma 90.000000
_cell_volume 5538.497670
_symmetry_space_group_name_H-M "P 42/N N M"
_symmetry_group_IT_number 134
_space_group.IT_coordinate_system_code '2'
_symmetry_cell_setting 'tetragonal'
loop_
_space_group_symop_operation_xyz
x,y,z
1/2-y,x,1/2+z
1/2-x,1/2-y,z
y,1/2-x,1/2+z
x,1/2-y,1/2-z
1/2-x,y,1/2-z
y,x,-z
1/2-y,1/2-x,-z
-x,-y,-z
1/2+y,-x,1/2-z
1/2+x,1/2+y,-z
-y,1/2+x,1/2-z
-x,1/2+y,1/2+z
1/2+x,-y,1/2+z
-y,-x,z
1/2+y,1/2+x,z
loop_
_atom_site_type_symbol
_atom_site_label
_atom_site_fract_x
_atom_site_fract_y
_atom_site_fract_z
Si Si1 0.493444 0.398117 0.452911
Si Si2 0.385598 0.505474 0.165648
Si Si3 0.156840 0.550608 0.544055
Si Si4 0.556525 0.161483 0.865265
Si Si5 0.404291 0.013231 0.723023
Si Si6 0.749601 0.352131 0.533124
O O1 0.429305 0.429305 0.500000
O O2 0.550032 0.449969 0.444965
O O3 0.513838 0.339161 0.528920
O O4 0.477307 0.373311 0.336974
O O5 0.436767 0.563234 0.163185
O O6 0.335039 0.514443 0.260906
O O7 0.421052 0.436899 0.180314
O O8 0.343307 0.506977 0.060321
O O9 0.091553 0.591553 0.542755
O O10 0.154308 0.505603 0.645561
O O11 0.219359 0.598277 0.549897
O O12 0.593143 0.093143 0.862138
O O13 0.606741 0.221196 0.871278
O O14 0.458401 0.958401 0.728083
O O15 0.692063 0.307938 0.482311
O O16 0.805969 0.305969 0.578573
#
# Coordination Sequence:
#
# PCOD8317353 Si02
#       6
#    16  16  16  16  16  16
#     4   9  14  23  40  61  79  94 120 168 227 279
#     4   9  15  24  39  60  81  98 124 174 235 283
#     4   9  17  27  39  56  78 108 144 179 218 263
#     4   9  16  26  41  59  78 102 138 186 228 257
#     4   9  15  24  40  60  81  98 121 169 231 286
#     4   9  18  32  45  57  82 123 168 205 225 245
#
# _framework density 17.333219
#
# number of rings (size 3 to 8) (size 9 to 14) (size 15 to 20)
#    0.000    3.000    1.667    0.500    0.000    2.667 
#    0.000    3.333    0.000   10.000    0.000    9.333 
#    0.000    0.000    0.000    0.000    0.000    3.333 
#
# Total GULP energy -1189269.193458 kJ/mol
# GULP energy per Si atom -12388.220765 kJ/mol
# Density = 1.729377 g / cm^3
# Si number density = 17.333219 Si / 1000 Ang^3
#
#
#
# Elastic Constant Matrix: (Units=GPa)
#
#
# Indices 1 2 3 4 5 6 
#
# 1 44.0706 40.3465 41.5040 0.0000 0.0000 0.0000
# 2 40.3465 44.0706 41.5040 0.0000 0.0000 0.0000
# 3 41.5040 41.5040 158.0556 0.0000 0.0000 0.0000
# 4 0.0000 0.0000 0.0000 12.9387 0.0000 0.0000
# 5 0.0000 0.0000 0.0000 0.0000 12.9387 0.0000
# 6 0.0000 0.0000 0.0000 0.0000 0.0000 30.3864
#
#
#
# Elastic Compliance Matrix: (Units=1/GPa)
#
#
# Indices 1 2 3 4 5 6 
#
# 1 0.142245 -0.126276 -0.004193 0.000000 0.000000 0.000000
# 2 -0.126276 0.142245 -0.004193 0.000000 0.000000 0.000000
# 3 -0.004193 -0.004193 0.008529 0.000000 0.000000 0.000000
# 4 0.000000 0.000000 0.000000 0.077287 0.000000 0.000000
# 5 0.000000 0.000000 0.000000 0.000000 0.077287 0.000000
# 6 0.000000 0.000000 0.000000 0.000000 0.000000 0.032910
#
#
# Mechanical properties :
#
#
# Convention : Reuss Voigt Hill
#
# Bulk Modulus (GPa) = 42.20427 54.76730 48.48578
# Shear Modulus (GPa) = 6.59867 19.44224 13.02046
#
# Velocity S-wave (km/s) = 1.95326 3.35277 2.74375
# Velocity P-wave (km/s) = 5.43034 6.83033 6.17017
#
# Compressibility (1/GPa) = 0.02369429
#
# Stress axis : x y z
#
# Youngs Moduli (GPa) = 7.03011 7.03011 117.24424
#
# Poissons Ratio (x) = 0.88773 0.49165
# Poissons Ratio (y) = 0.88773 0.49165
# Poissons Ratio (z) = 0.02948 0.02948
#
# Static dielectric constant tensor:
#      x y z
#    x 2.930680 0.000000 0.000000 
#    y 0.000000 2.930680 0.000000 
#    z 0.000000 0.000000 3.530990 
# 
# 
# High freq. dielectric constant tensor:
#      x y z
#    x 1.622690 0.000000 0.000000 
#    y 0.000000 1.622690 0.000000 
#    z 0.000000 0.000000 1.671870 
# 
# From -- ./inp_files/5157.got.cif
#   From: 2010.03.12/outbox.cif.g09.slc.cpg/sg134_3_cif.got.tgz:5157.got - 2010.04.06 18:17:22.
