data_PCOD8317270
_publ_section_title
;
Structure prediction by ZEFSAII (Michael W. Deem and Ramdas Pophale) SiO2 
 PCOD8317270
Probable space group: P 42/N N M
;
_chemical_formula_sum "Si O2"
_cell_formula_units_Z 112
_cell_length_a 15.930540
_cell_length_b 15.930540
_cell_length_c 22.598203
_cell_angle_alpha 90.000000
_cell_angle_beta 90.000000
_cell_angle_gamma 90.000000
_cell_volume 5735.019520
_symmetry_space_group_name_H-M "P 42/N N M"
_symmetry_group_IT_number 134
_space_group.IT_coordinate_system_code '2'
_symmetry_cell_setting 'tetragonal'
loop_
_space_group_symop_operation_xyz
x,y,z
1/2-y,x,1/2+z
1/2-x,1/2-y,z
y,1/2-x,1/2+z
x,1/2-y,1/2-z
1/2-x,y,1/2-z
y,x,-z
1/2-y,1/2-x,-z
-x,-y,-z
1/2+y,-x,1/2-z
1/2+x,1/2+y,-z
-y,1/2+x,1/2-z
-x,1/2+y,1/2+z
1/2+x,-y,1/2+z
-y,-x,z
1/2+y,1/2+x,z
loop_
_atom_site_type_symbol
_atom_site_label
_atom_site_fract_x
_atom_site_fract_y
_atom_site_fract_z
Si Si1 0.616938 0.250519 0.180997
Si Si2 0.541487 0.595355 0.350601
Si Si3 0.292116 0.486075 0.595123
Si Si4 0.016255 0.217645 0.892321
Si Si5 0.178873 0.304732 0.433237
Si Si6 0.479550 0.844158 0.266756
Si Si7 0.749884 0.114541 0.507974
O O1 0.603106 0.250000 0.250000
O O2 0.668009 0.331992 0.160919
O O3 0.667178 0.167178 0.160794
O O4 0.526952 0.252925 0.151308
O O5 0.458060 0.541941 0.363081
O O6 0.617318 0.545265 0.381766
O O7 0.532285 0.684556 0.381441
O O8 0.548539 0.613701 0.278899
O O9 0.234233 0.410921 0.576621
O O10 0.291449 0.553860 0.541768
O O11 0.006831 0.158389 0.834850
O O12 0.098040 0.176386 0.919408
O O13 0.938000 0.212040 0.937042
O O14 0.250000 0.250000 0.397510
O O15 0.204264 0.295736 0.500000
O O16 0.457998 0.750000 0.250000
O O17 0.393444 0.893444 0.260303
O O18 0.824562 0.175439 0.530458
O O19 0.672667 0.172667 0.483283
#
# Coordination Sequence:
#
# PCOD8317270 Si02
#       7
#    16  16  16  16  16  16  16
#     4   9  19  37  60  87 122 161 200 249 309 371
#     4  10  21  37  61  93 122 154 205 264 315 361
#     4  12  22  38  63  90 121 161 205 254 317 371
#     4  11  21  41  62  87 122 166 209 251 308 367
#     4  11  23  42  60  83 119 163 201 244 298 366
#     4   9  20  38  61  88 124 162 201 257 309 365
#     4  11  24  40  61  93 129 163 203 255 313 375
#
# _framework density 19.529140000000002
#
# number of rings (size 3 to 8) (size 9 to 14) (size 15 to 20)
#    0.000    1.571    2.857    3.000    0.000    3.571 
#    0.000    6.429    0.000    0.000    0.000    0.000 
#    0.000    0.000    0.000    0.000    0.000    0.000 
#
# Total GULP energy -1387554.818029 kJ/mol
# GULP energy per Si atom -12388.882304 kJ/mol
# Density = 1.948469 g / cm^3
# Si number density = 19.529140 Si / 1000 Ang^3
#
#
#
# Elastic Constant Matrix: (Units=GPa)
#
#
# Indices 1 2 3 4 5 6 
#
# 1 103.3946 29.1753 49.0802 0.0000 0.0000 0.0000
# 2 29.1753 103.3945 49.0802 0.0000 0.0000 0.0000
# 3 49.0802 49.0802 87.3434 0.0000 0.0000 0.0000
# 4 0.0000 0.0000 0.0000 27.2428 0.0000 0.0000
# 5 0.0000 0.0000 0.0000 0.0000 27.2426 0.0000
# 6 0.0000 0.0000 0.0000 0.0000 0.0000 32.7218
#
#
#
# Elastic Compliance Matrix: (Units=1/GPa)
#
#
# Indices 1 2 3 4 5 6 
#
# 1 0.013196 -0.000278 -0.007259 0.000000 0.000000 0.000000
# 2 -0.000278 0.013196 -0.007259 0.000000 0.000000 0.000000
# 3 -0.007259 -0.007259 0.019607 0.000000 0.000000 0.000000
# 4 0.000000 0.000000 0.000000 0.036707 0.000000 0.000000
# 5 0.000000 0.000000 0.000000 0.000000 0.036707 0.000000
# 6 0.000000 0.000000 0.000000 0.000000 0.000000 0.030561
#
#
# Mechanical properties :
#
#
# Convention : Reuss Voigt Hill
#
# Bulk Modulus (GPa) = 60.94846 60.97821 60.96333
# Shear Modulus (GPa) = 27.02211 28.56123 27.79167
#
# Velocity S-wave (km/s) = 3.72382 3.82840 3.77648
# Velocity P-wave (km/s) = 7.05449 7.12981 7.09225
#
# Compressibility (1/GPa) = 0.01640731
#
# Stress axis : x y z
#
# Youngs Moduli (GPa) = 75.78175 75.78173 51.00240
#
# Poissons Ratio (x) = 0.02105 0.37022
# Poissons Ratio (y) = 0.02105 0.37022
# Poissons Ratio (z) = 0.55009 0.55009
#
# Static dielectric constant tensor:
#      x y z
#    x 3.662780 0.000000 0.000000 
#    y 0.000000 3.662790 0.000000 
#    z 0.000000 0.000000 3.795980 
# 
# 
# High freq. dielectric constant tensor:
#      x y z
#    x 1.763300 0.000000 0.000000 
#    y 0.000000 1.763300 0.000000 
#    z 0.000000 0.000000 1.764530 
# 
# From -- ./inp_files/10096.got.cif
#   From: 2010.03.12/outbox.cif.g09.slc.cpg/sg134_6_cif.got.tgz:10096.got - 2010.04.06 18:17:22.
