data_PCOD8317186
_publ_section_title
;
Structure prediction by ZEFSAII (Michael W. Deem and Ramdas Pophale) SiO2 
 PCOD8317186
Probable space group: P 42/N N M
;
_chemical_formula_sum "Si O2"
_cell_formula_units_Z 88
_cell_length_a 11.701501
_cell_length_b 11.701501
_cell_length_c 28.770769
_cell_angle_alpha 90.000000
_cell_angle_beta 90.000000
_cell_angle_gamma 90.000000
_cell_volume 3939.441160
_symmetry_space_group_name_H-M "P 42/N N M"
_symmetry_group_IT_number 134
_space_group.IT_coordinate_system_code '2'
_symmetry_cell_setting 'tetragonal'
loop_
_space_group_symop_operation_xyz
x,y,z
1/2-y,x,1/2+z
1/2-x,1/2-y,z
y,1/2-x,1/2+z
x,1/2-y,1/2-z
1/2-x,y,1/2-z
y,x,-z
1/2-y,1/2-x,-z
-x,-y,-z
1/2+y,-x,1/2-z
1/2+x,1/2+y,-z
-y,1/2+x,1/2-z
-x,1/2+y,1/2+z
1/2+x,-y,1/2+z
-y,-x,z
1/2+y,1/2+x,z
loop_
_atom_site_type_symbol
_atom_site_label
_atom_site_fract_x
_atom_site_fract_y
_atom_site_fract_z
Si Si1 0.503918 0.819527 0.979671
Si Si2 0.341143 0.658858 0.302381
Si Si3 0.841225 0.969725 0.212191
Si Si4 0.951455 0.750000 0.250000
Si Si5 0.515735 0.676443 0.894489
Si Si6 0.175351 0.489967 0.440256
Si Si7 0.659671 0.340330 0.589782
O O1 0.502320 0.793251 0.924330
O O2 0.385616 0.885616 0.991954
O O3 0.609944 0.890057 0.000000
O O4 0.517091 0.693002 0.003803
O O5 0.250000 0.750000 0.281570
O O6 0.469587 0.687479 0.287485
O O7 0.334287 0.665714 0.356150
O O8 0.750000 0.015548 0.250000
O O9 0.871712 0.839346 0.223314
O O10 0.790484 0.975209 0.159880
O O11 0.954822 0.045179 0.215346
O O12 0.408547 0.591454 0.902965
O O13 0.635716 0.622866 0.913115
O O14 0.303956 0.530861 0.424877
O O15 0.084867 0.584867 0.425502
O O16 0.750000 0.250000 0.567667
#
# Coordination Sequence:
#
# PCOD8317186 Si02
#       7
#    16   8  16   8  16  16   8
#     4  11  24  42  61  93 133 168 213 268 328 390
#     4  11  18  32  60  95 132 182 215 261 341 416
#     4  11  25  47  69  98 136 180 235 290 340 399
#     4  12  20  40  62  96 136 173 221 282 344 414
#     4  10  23  43  69  95 127 174 225 268 325 402
#     4  10  19  37  62  92 123 162 211 265 316 383
#     4   9  18  30  53  89 127 162 209 256 315 385
#
# _framework density 22.338194000000001
#
# number of rings (size 3 to 8) (size 9 to 14) (size 15 to 20)
#    0.000    1.455    2.727    2.455    0.000    7.818 
#    9.818    1.818    0.000    0.000    0.000    0.000 
#    0.000    0.000    0.000    0.000    0.000    0.000 
#
# Total GULP energy -1090571.277538 kJ/mol
# GULP energy per Si atom -12392.855427 kJ/mol
# Density = 2.228735 g / cm^3
# Si number density = 22.338194 Si / 1000 Ang^3
#
#
#
# Elastic Constant Matrix: (Units=GPa)
#
#
# Indices 1 2 3 4 5 6 
#
# 1 73.3538 17.3812 37.6776 0.0000 0.0000 0.0000
# 2 17.3812 73.3543 37.6774 0.0000 0.0000 0.0000
# 3 37.6776 37.6774 151.4868 0.0000 0.0000 0.0000
# 4 0.0000 0.0000 0.0000 34.8525 0.0000 0.0000
# 5 0.0000 0.0000 0.0000 0.0000 34.8533 0.0000
# 6 0.0000 0.0000 0.0000 0.0000 0.0000 15.5239
#
#
#
# Elastic Compliance Matrix: (Units=1/GPa)
#
#
# Indices 1 2 3 4 5 6 
#
# 1 0.015878 -0.001988 -0.003455 0.000000 0.000000 0.000000
# 2 -0.001988 0.015878 -0.003455 0.000000 0.000000 0.000000
# 3 -0.003455 -0.003455 0.008320 0.000000 0.000000 0.000000
# 4 0.000000 0.000000 0.000000 0.028692 0.000000 0.000000
# 5 0.000000 0.000000 0.000000 0.000000 0.028692 0.000000
# 6 0.000000 0.000000 0.000000 0.000000 0.000000 0.064417
#
#
# Mechanical properties :
#
#
# Convention : Reuss Voigt Hill
#
# Bulk Modulus (GPa) = 44.88092 53.74084 49.31088
# Shear Modulus (GPa) = 26.72389 30.74317 28.73353
#
# Velocity S-wave (km/s) = 3.46256 3.71382 3.59039
# Velocity P-wave (km/s) = 6.01007 6.51920 6.26981
#
# Compressibility (1/GPa) = 0.02228118
#
# Stress axis : x y z
#
# Youngs Moduli (GPa) = 62.97990 62.98043 120.19584
#
# Poissons Ratio (x) = 0.12519 0.41525
# Poissons Ratio (y) = 0.12519 0.41524
# Poissons Ratio (z) = 0.21758 0.21758
#
# Static dielectric constant tensor:
#      x y z
#    x 3.982540 0.000000 0.000000 
#    y 0.000000 3.982540 0.000000 
#    z 0.000000 0.000000 4.159180 
# 
# 
# High freq. dielectric constant tensor:
#      x y z
#    x 1.866000 0.000000 0.000000 
#    y 0.000000 1.866000 0.000000 
#    z 0.000000 0.000000 1.893860 
# 
# From -- ./inp_files/11516.got.cif
#   From: 2010.03.12/outbox.cif.g09.slc.cpg/sg134_6_cif.got.tgz:11516.got - 2010.04.06 18:17:22.
