data_PCOD8317245
_publ_section_title
;
Structure prediction by ZEFSAII (Michael W. Deem and Ramdas Pophale) SiO2 
 PCOD8317245
Probable space group: P 42/N N M
;
_chemical_formula_sum "Si O2"
_cell_formula_units_Z 80
_cell_length_a 17.367147
_cell_length_b 17.367147
_cell_length_c 14.088754
_cell_angle_alpha 90.000000
_cell_angle_beta 90.000000
_cell_angle_gamma 90.000000
_cell_volume 4249.418915
_symmetry_space_group_name_H-M "P 42/N N M"
_symmetry_group_IT_number 134
_space_group.IT_coordinate_system_code '2'
_symmetry_cell_setting 'tetragonal'
loop_
_space_group_symop_operation_xyz
x,y,z
1/2-y,x,1/2+z
1/2-x,1/2-y,z
y,1/2-x,1/2+z
x,1/2-y,1/2-z
1/2-x,y,1/2-z
y,x,-z
1/2-y,1/2-x,-z
-x,-y,-z
1/2+y,-x,1/2-z
1/2+x,1/2+y,-z
-y,1/2+x,1/2-z
-x,1/2+y,1/2+z
1/2+x,-y,1/2+z
-y,-x,z
1/2+y,1/2+x,z
loop_
_atom_site_type_symbol
_atom_site_label
_atom_site_fract_x
_atom_site_fract_y
_atom_site_fract_z
Si Si1 0.624953 0.250000 0.250000
Si Si2 0.463338 0.663174 0.901228
Si Si3 0.474831 0.401127 0.590320
Si Si4 0.997313 0.277664 0.605603
Si Si5 0.750000 0.370368 0.750000
Si Si6 0.948524 0.573084 0.300444
O O1 0.676538 0.323463 0.277643
O O2 0.572222 0.267327 0.159508
O O3 0.399758 0.600243 0.924855
O O4 0.534393 0.626410 0.845363
O O5 0.493468 0.697051 0.998126
O O6 0.422466 0.422466 0.500000
O O7 0.560289 0.439712 0.577422
O O8 0.473754 0.309701 0.605060
O O9 0.437513 0.433313 0.687086
O O10 0.916798 0.280332 0.659960
O O11 0.050410 0.338516 0.662971
O O12 0.819591 0.319591 0.789853
O O13 0.026498 0.526498 0.330916
#
# Coordination Sequence:
#
# PCOD8317245 Si02
#       6
#     8  16  16  16   8  16
#     4   9  20  38  56  84 125 160 192 238 299 362
#     4  10  22  36  58  87 117 158 200 242 290 355
#     4  10  22  38  59  88 119 155 199 250 307 359
#     4  12  21  36  59  86 116 152 197 250 302 353
#     4  11  22  34  52  84 126 163 190 230 302 377
#     4  10  20  38  60  85 118 155 201 248 292 353
#
# _framework density 18.826104000000001
#
# number of rings (size 3 to 8) (size 9 to 14) (size 15 to 20)
#    0.000    1.600    2.000    3.000    2.800    3.200 
#    0.000    2.000    0.000    2.400    0.000    0.000 
#    0.000    0.000    0.000    0.000    0.000    0.000 
#
# Total GULP energy -991719.018253 kJ/mol
# GULP energy per Si atom -12396.487728 kJ/mol
# Density = 1.878326 g / cm^3
# Si number density = 18.826104 Si / 1000 Ang^3
#
#
#
# Elastic Constant Matrix: (Units=GPa)
#
#
# Indices 1 2 3 4 5 6 
#
# 1 88.8327 39.5404 47.9668 0.0000 0.0000 0.0000
# 2 39.5404 88.8327 47.9668 0.0000 0.0000 0.0000
# 3 47.9668 47.9668 147.0907 0.0000 0.0000 0.0000
# 4 0.0000 0.0000 0.0000 30.9338 0.0000 0.0000
# 5 0.0000 0.0000 0.0000 0.0000 30.9338 0.0000
# 6 0.0000 0.0000 0.0000 0.0000 0.0000 14.7332
#
#
#
# Elastic Compliance Matrix: (Units=1/GPa)
#
#
# Indices 1 2 3 4 5 6 
#
# 1 0.015293 -0.004994 -0.003359 0.000000 0.000000 0.000000
# 2 -0.004994 0.015293 -0.003359 0.000000 0.000000 0.000000
# 3 -0.003359 -0.003359 0.008989 0.000000 0.000000 0.000000
# 4 0.000000 0.000000 0.000000 0.032327 0.000000 0.000000
# 5 0.000000 0.000000 0.000000 0.000000 0.032327 0.000000
# 6 0.000000 0.000000 0.000000 0.000000 0.000000 0.067874
#
#
# Mechanical properties :
#
#
# Convention : Reuss Voigt Hill
#
# Bulk Modulus (GPa) = 61.90569 66.18933 64.04751
# Shear Modulus (GPa) = 24.88657 27.93896 26.41277
#
# Velocity S-wave (km/s) = 3.63976 3.85652 3.74971
# Velocity P-wave (km/s) = 7.11464 7.42058 7.26922
#
# Compressibility (1/GPa) = 0.01615360
#
# Stress axis : x y z
#
# Youngs Moduli (GPa) = 65.38727 65.38727 111.24498
#
# Poissons Ratio (x) = 0.32652 0.37365
# Poissons Ratio (y) = 0.32652 0.37365
# Poissons Ratio (z) = 0.21962 0.21962
#
# Static dielectric constant tensor:
#      x y z
#    x 3.487040 0.000000 0.000000 
#    y 0.000000 3.487040 0.000000 
#    z 0.000000 0.000000 3.682990 
# 
# 
# High freq. dielectric constant tensor:
#      x y z
#    x 1.718950 0.000000 0.000000 
#    y 0.000000 1.718950 0.000000 
#    z 0.000000 0.000000 1.748520 
# 
# From -- ./inp_files/6419.got.cif
#   From: 2010.03.12/outbox.cif.g09.slc.cpg/sg134_4_cif.got.tgz:6419.got - 2010.04.06 18:17:22.
