data_PCOD8317099
_publ_section_title
;
Structure prediction by ZEFSAII (Michael W. Deem and Ramdas Pophale) SiO2 
 PCOD8317099
Probable space group: P 42/N N M
;
_chemical_formula_sum "Si O2"
_cell_formula_units_Z 80
_cell_length_a 11.570875
_cell_length_b 11.570875
_cell_length_c 32.680447
_cell_angle_alpha 90.000000
_cell_angle_beta 90.000000
_cell_angle_gamma 90.000000
_cell_volume 4375.426492
_symmetry_space_group_name_H-M "P 42/N N M"
_symmetry_group_IT_number 134
_space_group.IT_coordinate_system_code '2'
_symmetry_cell_setting 'tetragonal'
loop_
_space_group_symop_operation_xyz
x,y,z
1/2-y,x,1/2+z
1/2-x,1/2-y,z
y,1/2-x,1/2+z
x,1/2-y,1/2-z
1/2-x,y,1/2-z
y,x,-z
1/2-y,1/2-x,-z
-x,-y,-z
1/2+y,-x,1/2-z
1/2+x,1/2+y,-z
-y,1/2+x,1/2-z
-x,1/2+y,1/2+z
1/2+x,-y,1/2+z
-y,-x,z
1/2+y,1/2+x,z
loop_
_atom_site_type_symbol
_atom_site_label
_atom_site_fract_x
_atom_site_fract_y
_atom_site_fract_z
Si Si1 0.126947 0.443991 0.636124
Si Si2 0.996468 0.187368 0.992275
Si Si3 0.770368 0.621495 0.916189
Si Si4 0.194637 0.511636 0.924792
Si Si5 0.255295 0.561934 0.704028
O O1 0.107597 0.308794 0.624865
O O2 0.180289 0.510098 0.596740
O O3 0.219429 0.458391 0.673251
O O4 0.003889 0.503889 0.646292
O O5 0.020699 0.242723 0.948145
O O6 0.091492 0.091492 0.000000
O O7 0.000903 0.287100 0.026503
O O8 0.869326 0.130675 0.991668
O O9 0.750000 0.750000 0.935384
O O10 0.906856 0.616042 0.906520
O O11 0.131076 0.631076 0.914469
O O12 0.250000 0.511685 0.750000
O O13 0.382463 0.617538 0.694599
O O14 0.163393 0.663393 0.698886
#
# Coordination Sequence:
#
# PCOD8317099 Si02
#       5
#    16  16  16  16  16
#     4  10  18  30  51  74  96 125 162 198 236 289
#     4  11  20  32  49  68  90 120 158 203 249 289
#     4  10  20  32  48  65  93 129 161 193 238 293
#     4  11  23  34  48  70  95 126 165 206 248 290
#     4   8  14  25  43  71 106 135 156 189 241 292
#
# _framework density 18.283932
#
# number of rings (size 3 to 8) (size 9 to 14) (size 15 to 20)
#    0.000    2.000    4.000    3.000    0.000    4.000 
#    0.000    0.000    0.000    7.200    0.000    0.000 
#    0.000    0.000    0.000    0.000    0.000  128.800 
#
# Total GULP energy -991431.339336 kJ/mol
# GULP energy per Si atom -12392.891742 kJ/mol
# Density = 1.824232 g / cm^3
# Si number density = 18.283932 Si / 1000 Ang^3
#
#
#
# Elastic Constant Matrix: (Units=GPa)
#
#
# Indices 1 2 3 4 5 6 
#
# 1 52.4403 20.6007 18.4729 0.0000 0.0000 0.0000
# 2 20.6007 52.4403 18.4729 0.0000 0.0000 0.0000
# 3 18.4729 18.4729 97.4880 0.0000 0.0000 0.0000
# 4 0.0000 0.0000 0.0000 21.9821 0.0000 0.0000
# 5 0.0000 0.0000 0.0000 0.0000 21.9821 0.0000
# 6 0.0000 0.0000 0.0000 0.0000 0.0000 21.1656
#
#
#
# Elastic Compliance Matrix: (Units=1/GPa)
#
#
# Indices 1 2 3 4 5 6 
#
# 1 0.023275 -0.008133 -0.002869 0.000000 0.000000 0.000000
# 2 -0.008133 0.023275 -0.002869 0.000000 0.000000 0.000000
# 3 -0.002869 -0.002869 0.011345 0.000000 0.000000 0.000000
# 4 0.000000 0.000000 0.000000 0.045491 0.000000 0.000000
# 5 0.000000 0.000000 0.000000 0.000000 0.045491 0.000000
# 6 0.000000 0.000000 0.000000 0.000000 0.000000 0.047246
#
#
# Mechanical properties :
#
#
# Convention : Reuss Voigt Hill
#
# Bulk Modulus (GPa) = 33.16479 35.27352 34.21915
# Shear Modulus (GPa) = 21.37507 22.68079 22.02793
#
# Velocity S-wave (km/s) = 3.42287 3.52586 3.47475
# Velocity P-wave (km/s) = 5.81373 5.99246 5.90377
#
# Compressibility (1/GPa) = 0.03015246
#
# Stress axis : x y z
#
# Youngs Moduli (GPa) = 42.96480 42.96480 88.14401
#
# Poissons Ratio (x) = 0.34941 0.25291
# Poissons Ratio (y) = 0.34941 0.25291
# Poissons Ratio (z) = 0.12328 0.12328
#
# Static dielectric constant tensor:
#      x y z
#    x 3.298450 0.000000 0.000000 
#    y 0.000000 3.298450 0.000000 
#    z 0.000000 0.000000 3.442420 
# 
# 
# High freq. dielectric constant tensor:
#      x y z
#    x 1.685220 0.000000 0.000000 
#    y 0.000000 1.685220 0.000000 
#    z 0.000000 0.000000 1.686450 
# 
# From -- ./inp_files/11254.got.cif
#   From: 2010.03.12/outbox.cif.g09.slc.cpg/sg134_6_cif.got.tgz:11254.got - 2010.04.06 18:17:22.
