data_PCOD8317679
_publ_section_title
;
Structure prediction by ZEFSAII (Michael W. Deem and Ramdas Pophale) SiO2 
 PCOD8317679
Probable space group: P 42/M N M
;
_chemical_formula_sum "Si O2"
_cell_formula_units_Z 96
_cell_length_a 24.718646
_cell_length_b 24.718646
_cell_length_c 9.527938
_cell_angle_alpha 90.000000
_cell_angle_beta 90.000000
_cell_angle_gamma 90.000000
_cell_volume 5821.679309
_symmetry_space_group_name_H-M "P 42/M N M"
_symmetry_group_IT_number 136
_symmetry_cell_setting 'tetragonal'
loop_
_space_group_symop_operation_xyz
x,y,z
1/2-y,1/2+x,1/2+z
-x,-y,z
1/2+y,1/2-x,1/2+z
1/2+x,1/2-y,1/2-z
1/2-x,1/2+y,1/2-z
y,x,-z
-y,-x,-z
-x,-y,-z
1/2+y,1/2-x,1/2-z
x,y,-z
1/2-y,1/2+x,1/2-z
1/2-x,1/2+y,1/2+z
1/2+x,1/2-y,1/2+z
-y,-x,z
y,x,z
loop_
_atom_site_type_symbol
_atom_site_label
_atom_site_fract_x
_atom_site_fract_y
_atom_site_fract_z
Si Si1 0.420459 0.420459 0.335774
Si Si2 0.086158 0.624091 0.338097
Si Si3 0.463344 0.625283 0.663725
Si Si4 0.270772 0.518136 0.164967
Si Si5 0.656488 0.656488 0.162295
Si Si6 0.148960 0.538266 0.839982
Si Si7 0.598128 0.759846 0.163601
O O1 0.411436 0.411436 0.500000
O O2 0.406319 0.481877 0.292461
O O3 0.380714 0.380714 0.255695
O O4 0.100697 0.614590 0.500000
O O5 0.111773 0.575394 0.254503
O O6 0.111227 0.680543 0.277044
O O7 0.022204 0.628021 0.314190
O O8 0.464639 0.640025 0.500000
O O9 0.413463 0.586538 0.700614
O O10 0.453974 0.680676 0.749777
O O11 0.212577 0.545542 0.197513
O O12 0.267292 0.456558 0.222609
O O13 0.284448 0.521276 0.000000
O O14 0.647446 0.719673 0.195895
O O15 0.643233 0.643233 0.000000
O O16 0.139661 0.555201 0.000000
O O17 0.586174 0.769089 0.000000
#
# Coordination Sequence:
#
# PCOD8317679 Si02
#       7
#     8  16  16  16   8  16  16
#     4  10  19  30  44  68 102 132 158 198 250 292
#     4   9  18  33  51  73 101 131 161 194 238 293
#     4  10  20  32  46  67  98 133 166 200 242 290
#     4   9  17  32  51  70  93 124 162 201 240 284
#     4  10  16  27  51  73  92 122 164 208 248 285
#     4   9  19  34  52  75 102 128 157 198 244 287
#     4   8  15  28  48  72  94 119 157 202 242 281
#
# _framework density 16.490086999999999
#
# number of rings (size 3 to 8) (size 9 to 14) (size 15 to 20)
#    0.000    2.833    1.667    2.250    0.000    3.000 
#    0.000    5.000    1.833    1.500    0.000    0.000 
#    0.000    0.000    0.000    0.000    0.000    0.000 
#
# Total GULP energy -1189857.548839 kJ/mol
# GULP energy per Si atom -12394.349467 kJ/mol
# Density = 1.645256 g / cm^3
# Si number density = 16.490087 Si / 1000 Ang^3
#
#
#
# Elastic Constant Matrix: (Units=GPa)
#
#
# Indices 1 2 3 4 5 6 
#
# 1 95.6395 67.5060 51.6905 0.0000 0.0000 0.0000
# 2 67.5060 95.6395 51.6905 0.0000 0.0000 0.0000
# 3 51.6905 51.6905 58.1673 0.0000 0.0000 0.0000
# 4 0.0000 0.0000 0.0000 26.5862 0.0000 0.0000
# 5 0.0000 0.0000 0.0000 0.0000 26.5862 0.0000
# 6 0.0000 0.0000 0.0000 0.0000 0.0000 26.3371
#
#
#
# Elastic Compliance Matrix: (Units=1/GPa)
#
#
# Indices 1 2 3 4 5 6 
#
# 1 0.024787 -0.010757 -0.012468 0.000000 0.000000 0.000000
# 2 -0.010757 0.024787 -0.012468 0.000000 0.000000 0.000000
# 3 -0.012468 -0.012468 0.039351 0.000000 0.000000 0.000000
# 4 0.000000 0.000000 0.000000 0.037614 0.000000 0.000000
# 5 0.000000 0.000000 0.000000 0.000000 0.037614 0.000000
# 6 0.000000 0.000000 0.000000 0.000000 0.000000 0.037969
#
#
# Mechanical properties :
#
#
# Convention : Reuss Voigt Hill
#
# Bulk Modulus (GPa) = 57.01355 65.69112 61.35234
# Shear Modulus (GPa) = 17.89841 21.13919 19.51880
#
# Velocity S-wave (km/s) = 3.29812 3.58429 3.44418
# Velocity P-wave (km/s) = 7.01092 7.55333 7.28717
#
# Compressibility (1/GPa) = 0.01753969
#
# Stress axis : x y z
#
# Youngs Moduli (GPa) = 40.34306 40.34306 25.41242
#
# Poissons Ratio (x) = 0.43399 0.31684
# Poissons Ratio (y) = 0.43399 0.31684
# Poissons Ratio (z) = 0.50299 0.50299
#
# Static dielectric constant tensor:
#      x y z
#    x 3.089010 0.000000 0.000000 
#    y 0.000000 3.089010 0.000000 
#    z 0.000000 0.000000 2.913490 
# 
# 
# High freq. dielectric constant tensor:
#      x y z
#    x 1.629930 0.000000 0.000000 
#    y 0.000000 1.629930 0.000000 
#    z 0.000000 0.000000 1.617250 
# 
# From -- ./inp_files/2076.got.cif
#   From: 2010.03.12/outbox.cif.g09.slc.cpg/sg136_2_cif.got.tgz:2076.got - 2010.04.06 18:39:43.
