data_PCOD8317914
_publ_section_title
;
Structure prediction by ZEFSAII (Michael W. Deem and Ramdas Pophale) SiO2 
 PCOD8317914
Probable space group: P 42/M N M
;
_chemical_formula_sum "Si O2"
_cell_formula_units_Z 96
_cell_length_a 24.674420
_cell_length_b 24.674420
_cell_length_c 8.446616
_cell_angle_alpha 90.000000
_cell_angle_beta 90.000000
_cell_angle_gamma 90.000000
_cell_volume 5142.527899
_symmetry_space_group_name_H-M "P 42/M N M"
_symmetry_group_IT_number 136
_symmetry_cell_setting 'tetragonal'
loop_
_space_group_symop_operation_xyz
x,y,z
1/2-y,1/2+x,1/2+z
-x,-y,z
1/2+y,1/2-x,1/2+z
1/2+x,1/2-y,1/2-z
1/2-x,1/2+y,1/2-z
y,x,-z
-y,-x,-z
-x,-y,-z
1/2+y,1/2-x,1/2-z
x,y,-z
1/2-y,1/2+x,1/2-z
1/2-x,1/2+y,1/2+z
1/2+x,1/2-y,1/2+z
-y,-x,z
y,x,z
loop_
_atom_site_type_symbol
_atom_site_label
_atom_site_fract_x
_atom_site_fract_y
_atom_site_fract_z
Si Si1 0.699080 0.919127 0.814218
Si Si2 0.383173 0.383173 0.185665
Si Si3 0.290103 0.968093 0.681979
Si Si4 0.324457 0.480863 0.681168
Si Si5 0.298125 0.298125 0.686858
Si Si6 0.900266 0.817520 0.817672
Si Si7 0.685247 0.146806 0.183381
O O1 0.757755 0.902850 0.741546
O O2 0.660003 0.869184 0.779314
O O3 0.679789 0.976213 0.736551
O O4 0.702923 0.930355 0.000000
O O5 0.440433 0.370398 0.263675
O O6 0.338276 0.338276 0.223542
O O7 0.389087 0.389087 0.000000
O O8 0.304379 0.956367 0.500000
O O9 0.226230 0.974651 0.702976
O O10 0.306349 0.916624 0.787024
O O11 0.306474 0.468925 0.500000
O O12 0.347294 0.541731 0.698228
O O13 0.306223 0.306223 0.500000
O O14 0.315283 0.236638 0.737051
O O15 0.854527 0.854527 0.732253
O O16 0.884391 0.810756 0.000000
O O17 0.674309 0.157103 0.000000
#
# Coordination Sequence:
#
# PCOD8317914 Si02
#       7
#    16   8  16  16   8  16  16
#     4  10  21  36  57  84 114 149 186 227 276 330
#     4  12  22  32  51  77 106 141 186 230 279 337
#     4  11  21  36  57  81 110 146 189 229 273 334
#     4  10  19  33  53  75 104 140 182 231 284 333
#     4  10  22  36  54  79 117 152 180 224 287 332
#     4   8  16  32  53  76 102 138 183 228 272 325
#     4  11  22  37  57  84 118 151 185 230 280 331
#
# _framework density 18.667863000000001
#
# number of rings (size 3 to 8) (size 9 to 14) (size 15 to 20)
#    0.000    1.833    1.667    4.750    1.167    0.667 
#    0.000    0.417    0.000   13.000    0.000    3.500 
#    0.000    0.000    0.000    0.000    0.000    0.000 
#
# Total GULP energy -1189953.363986 kJ/mol
# GULP energy per Si atom -12395.347542 kJ/mol
# Density = 1.862537 g / cm^3
# Si number density = 18.667863 Si / 1000 Ang^3
#
#
#
# Elastic Constant Matrix: (Units=GPa)
#
#
# Indices 1 2 3 4 5 6 
#
# 1 91.2803 38.1704 9.3750 0.0000 0.0000 0.0000
# 2 38.1704 91.2803 9.3750 0.0000 0.0000 0.0000
# 3 9.3750 9.3750 56.8043 0.0000 0.0000 0.0000
# 4 0.0000 0.0000 0.0000 23.1651 0.0000 0.0000
# 5 0.0000 0.0000 0.0000 0.0000 23.1651 0.0000
# 6 0.0000 0.0000 0.0000 0.0000 0.0000 29.2351
#
#
#
# Elastic Compliance Matrix: (Units=1/GPa)
#
#
# Indices 1 2 3 4 5 6 
#
# 1 0.013372 -0.005457 -0.001306 0.000000 0.000000 0.000000
# 2 -0.005457 0.013372 -0.001306 0.000000 0.000000 0.000000
# 3 -0.001306 -0.001306 0.018035 0.000000 0.000000 0.000000
# 4 0.000000 0.000000 0.000000 0.043168 0.000000 0.000000
# 5 0.000000 0.000000 0.000000 0.000000 0.043168 0.000000
# 6 0.000000 0.000000 0.000000 0.000000 0.000000 0.034205
#
#
# Mechanical properties :
#
#
# Convention : Reuss Voigt Hill
#
# Bulk Modulus (GPa) = 34.91730 39.24508 37.08119
# Shear Modulus (GPa) = 26.17712 27.27602 26.72657
#
# Velocity S-wave (km/s) = 3.74873 3.82661 3.78787
# Velocity P-wave (km/s) = 6.12229 6.37121 6.24799
#
# Compressibility (1/GPa) = 0.02863910
#
# Stress axis : x y z
#
# Youngs Moduli (GPa) = 74.78590 74.78590 55.44635
#
# Poissons Ratio (x) = 0.40813 0.07242
# Poissons Ratio (y) = 0.40813 0.07242
# Poissons Ratio (z) = 0.09768 0.09768
#
# Static dielectric constant tensor:
#      x y z
#    x 3.505680 0.000000 0.000000 
#    y 0.000000 3.505680 0.000000 
#    z 0.000000 0.000000 3.309200 
# 
# 
# High freq. dielectric constant tensor:
#      x y z
#    x 1.715310 0.000000 0.000000 
#    y 0.000000 1.715310 0.000000 
#    z 0.000000 0.000000 1.718160 
# 
# From -- ./inp_files/2055.got.cif
#   From: 2010.03.12/outbox.cif.g09.slc.cpg/sg136_2_cif.got.tgz:2055.got - 2010.04.06 18:39:43.
