data_PCOD8317404
_publ_section_title
;
Structure prediction by ZEFSAII (Michael W. Deem and Ramdas Pophale) SiO2 
 PCOD8317404
Probable space group: P 42/M B C
;
_chemical_formula_sum "Si O2"
_cell_formula_units_Z 96
_cell_length_a 17.407359
_cell_length_b 17.407359
_cell_length_c 17.543691
_cell_angle_alpha 90.000000
_cell_angle_beta 90.000000
_cell_angle_gamma 90.000000
_cell_volume 5316.021657
_symmetry_space_group_name_H-M "P 42/M B C"
_symmetry_group_IT_number 135
_symmetry_cell_setting 'tetragonal'
loop_
_space_group_symop_operation_xyz
x,y,z
-y,x,1/2+z
-x,-y,z
y,-x,1/2+z
1/2+x,1/2-y,-z
1/2-x,1/2+y,-z
1/2+y,1/2+x,1/2-z
1/2-y,1/2-x,1/2-z
-x,-y,-z
y,-x,1/2-z
x,y,-z
-y,x,1/2-z
1/2-x,1/2+y,z
1/2+x,1/2-y,z
1/2-y,1/2-x,1/2+z
1/2+y,1/2+x,1/2+z
loop_
_atom_site_type_symbol
_atom_site_label
_atom_site_fract_x
_atom_site_fract_y
_atom_site_fract_z
Si Si1 0.405029 0.279406 0.585098
Si Si2 0.323502 0.712421 0.290404
Si Si3 0.273660 0.808141 0.585087
Si Si4 0.076493 0.956064 0.588339
Si Si5 0.414914 0.207224 0.258459
Si Si6 0.772845 0.051648 0.677469
O O1 0.430247 0.251071 0.500000
O O2 0.313275 0.278248 0.590852
O O3 0.436378 0.365195 0.599631
O O4 0.435423 0.223975 0.652443
O O5 0.285762 0.785762 0.250000
O O6 0.327868 0.741612 0.378006
O O7 0.272117 0.638480 0.277776
O O8 0.406011 0.695723 0.253668
O O9 0.303440 0.818288 0.500000
O O10 0.276089 0.891958 0.623506
O O11 0.092007 0.975754 0.500000
O O12 0.152138 0.983590 0.634873
O O13 0.000000 0.000000 0.617777
O O14 0.376578 0.123423 0.250000
O O15 0.489412 0.211087 0.205328
#
# Coordination Sequence:
#
# PCOD8317404 Si02
#       6
#    16  16  16  16  16  16
#     4   9  16  30  50  67  94 141 176 204 249 294
#     4   9  16  33  51  73  95 128 177 215 253 311
#     4   9  16  33  57  75  94 129 173 223 270 307
#     4   9  17  31  47  71 106 141 173 203 246 311
#     4  11  19  33  48  75 107 134 177 220 255 310
#     4  10  19  30  50  75 104 137 172 218 263 312
#
# _framework density 18.058616000000001
#
# number of rings (size 3 to 8) (size 9 to 14) (size 15 to 20)
#    0.000    2.500    6.667    1.500    0.000    1.333 
#    0.000    4.167    0.000    4.500    0.000    1.167 
#    0.000    0.667    0.000    0.000    0.000    0.000 
#
# Total GULP energy -1189546.979958 kJ/mol
# GULP energy per Si atom -12391.114375 kJ/mol
# Density = 1.801751 g / cm^3
# Si number density = 18.058616 Si / 1000 Ang^3
#
#
#
# Elastic Constant Matrix: (Units=GPa)
#
#
# Indices 1 2 3 4 5 6 
#
# 1 35.1076 10.5661 31.5314 0.0000 0.0000 0.0000
# 2 10.5661 35.1078 31.5312 0.0000 0.0000 0.0000
# 3 31.5314 31.5312 132.8342 0.0000 0.0000 0.0000
# 4 0.0000 0.0000 0.0000 24.0685 0.0000 0.0000
# 5 0.0000 0.0000 0.0000 0.0000 24.0683 0.0000
# 6 0.0000 0.0000 0.0000 0.0000 0.0000 15.8811
#
#
#
# Elastic Compliance Matrix: (Units=1/GPa)
#
#
# Indices 1 2 3 4 5 6 
#
# 1 0.036658 -0.004089 -0.007731 0.000000 0.000000 0.000000
# 2 -0.004089 0.036658 -0.007731 0.000000 0.000000 0.000000
# 3 -0.007731 -0.007731 0.011198 0.000000 0.000000 0.000000
# 4 0.000000 0.000000 0.000000 0.041548 0.000000 0.000000
# 5 0.000000 0.000000 0.000000 0.000000 0.041548 0.000000
# 6 0.000000 0.000000 0.000000 0.000000 0.000000 0.062968
#
#
# Mechanical properties :
#
#
# Convention : Reuss Voigt Hill
#
# Bulk Modulus (GPa) = 22.02063 38.92301 30.47182
# Shear Modulus (GPa) = 17.55507 21.43164 19.49335
#
# Velocity S-wave (km/s) = 3.12126 3.44871 3.28906
# Velocity P-wave (km/s) = 5.02097 6.12034 5.59771
#
# Compressibility (1/GPa) = 0.04541196
#
# Stress axis : x y z
#
# Youngs Moduli (GPa) = 27.27912 27.27946 89.29832
#
# Poissons Ratio (x) = 0.11155 0.69037
# Poissons Ratio (y) = 0.11155 0.69035
# Poissons Ratio (z) = 0.21090 0.21089
#
# Static dielectric constant tensor:
#      x y z
#    x 3.137020 0.000000 0.000000 
#    y 0.000000 3.137010 0.000000 
#    z 0.000000 0.000000 3.834220 
# 
# 
# High freq. dielectric constant tensor:
#      x y z
#    x 1.664560 0.000000 0.000000 
#    y 0.000000 1.664560 0.000000 
#    z 0.000000 0.000000 1.712740 
# 
# From -- ./inp_files/4443.got.cif
#   From: 2010.03.12/outbox.cif.g09.slc.cpg/sg135_3_cif.got.tgz:4443.got - 2010.04.06 18:31:24.
