data_PCOD8317087
_publ_section_title
;
Structure prediction by ZEFSAII (Michael W. Deem and Ramdas Pophale) SiO2 
 PCOD8317087
Probable space group: P 42/N N M
;
_chemical_formula_sum "Si O2"
_cell_formula_units_Z 88
_cell_length_a 12.798976
_cell_length_b 12.798976
_cell_length_c 27.403840
_cell_angle_alpha 90.000000
_cell_angle_beta 90.000000
_cell_angle_gamma 90.000000
_cell_volume 4489.126799
_symmetry_space_group_name_H-M "P 42/N N M"
_symmetry_group_IT_number 134
_space_group.IT_coordinate_system_code '2'
_symmetry_cell_setting 'tetragonal'
loop_
_space_group_symop_operation_xyz
x,y,z
1/2-y,x,1/2+z
1/2-x,1/2-y,z
y,1/2-x,1/2+z
x,1/2-y,1/2-z
1/2-x,y,1/2-z
y,x,-z
1/2-y,1/2-x,-z
-x,-y,-z
1/2+y,-x,1/2-z
1/2+x,1/2+y,-z
-y,1/2+x,1/2-z
-x,1/2+y,1/2+z
1/2+x,-y,1/2+z
-y,-x,z
1/2+y,1/2+x,z
loop_
_atom_site_type_symbol
_atom_site_label
_atom_site_fract_x
_atom_site_fract_y
_atom_site_fract_z
Si Si1 0.582668 0.248360 0.834128
Si Si2 0.819006 0.492537 0.931748
Si Si3 0.921502 0.750000 0.250000
Si Si4 0.421059 0.755350 0.529335
Si Si5 0.849813 0.526622 0.223130
Si Si6 0.645078 0.970519 0.110454
O O1 0.662116 0.337885 0.819183
O O2 0.634486 0.134486 0.826227
O O3 0.549861 0.260268 0.890468
O O4 0.485199 0.255928 0.799556
O O5 0.915343 0.415343 0.939511
O O6 0.862313 0.604958 0.913919
O O7 0.756603 0.498524 0.982777
O O8 0.859157 0.641215 0.247795
O O9 0.330565 0.669436 0.526402
O O10 0.370387 0.870387 0.529369
O O11 0.487940 0.742946 0.578906
O O12 0.750000 0.473269 0.250000
O O13 0.821644 0.544097 0.166367
O O14 0.952320 0.452320 0.229979
O O15 0.552080 0.052080 0.107677
#
# Coordination Sequence:
#
# PCOD8317087 Si02
#       6
#    16  16   8  16  16  16
#     4  10  18  27  46  77 114 153 187 228 290 358
#     4   9  15  26  43  70 108 147 185 230 287 350
#     4  12  21  37  56  80 114 149 192 246 297 356
#     4   9  16  25  42  71 108 148 189 233 284 346
#     4  11  24  41  61  85 115 155 202 250 299 352
#     4   9  17  31  49  71 104 148 191 235 291 350
#
# _framework density 19.602920999999998
#
# number of rings (size 3 to 8) (size 9 to 14) (size 15 to 20)
#    0.000    2.182    1.818    3.000    0.000    6.000 
#    0.000    1.818    0.000    0.000    0.000    1.273 
#    0.000    4.364    0.000    0.000    0.000    0.000 
#
# Total GULP energy -1090670.625153 kJ/mol
# GULP energy per Si atom -12393.984377 kJ/mol
# Density = 1.955830 g / cm^3
# Si number density = 19.602921 Si / 1000 Ang^3
#
#
#
# Elastic Constant Matrix: (Units=GPa)
#
#
# Indices 1 2 3 4 5 6 
#
# 1 70.4503 28.4384 42.1188 0.0000 0.0000 0.0000
# 2 28.4384 70.4503 42.1188 0.0000 0.0000 0.0000
# 3 42.1188 42.1188 113.9217 0.0000 0.0000 0.0000
# 4 0.0000 0.0000 0.0000 -5.5537 0.0000 0.0000
# 5 0.0000 0.0000 0.0000 0.0000 -5.5537 0.0000
# 6 0.0000 0.0000 0.0000 0.0000 0.0000 18.7798
#
#
#
# Elastic Compliance Matrix: (Units=1/GPa)
#
#
# Indices 1 2 3 4 5 6 
#
# 1 0.019282 -0.004521 -0.005458 0.000000 0.000000 0.000000
# 2 -0.004521 0.019282 -0.005458 0.000000 0.000000 0.000000
# 3 -0.005458 -0.005458 0.012813 0.000000 0.000000 0.000000
# 4 0.000000 0.000000 0.000000 -0.180061 0.000000 0.000000
# 5 0.000000 0.000000 0.000000 0.000000 -0.180061 0.000000
# 6 0.000000 0.000000 0.000000 0.000000 0.000000 0.053249
#
#
# Mechanical properties :
#
#
# Convention : Reuss Voigt Hill
#
# Bulk Modulus (GPa) = 48.76616 53.35270 51.05943
# Shear Modulus (GPa) = -22.95802 11.01091 -5.97356
#
# Velocity S-wave (km/s) = -3.42592 2.37259 -1.74754
# Velocity P-wave (km/s) = 3.04659 5.89757 4.69378
#
# Compressibility (1/GPa) = 0.02050602
#
# Stress axis : x y z
#
# Youngs Moduli (GPa) = 51.86173 51.86173 78.04306
#
# Poissons Ratio (x) = 0.23445 0.42592
# Poissons Ratio (y) = 0.23445 0.42592
# Poissons Ratio (z) = 0.28304 0.28304
#
# Static dielectric constant tensor:
#      x y z
#    x 3.389020 0.000000 0.000000 
#    y 0.000000 3.389020 0.000000 
#    z 0.000000 0.000000 3.788930 
# 
# 
# High freq. dielectric constant tensor:
#      x y z
#    x 1.730680 0.000000 0.000000 
#    y 0.000000 1.730680 0.000000 
#    z 0.000000 0.000000 1.780500 
# 
# From -- ./inp_files/11446.got.cif
#   From: 2010.03.12/outbox.cif.g09.slc.cpg/sg134_6_cif.got.tgz:11446.got - 2010.04.06 18:17:22.
