data_PCOD8317024
_publ_section_title
;
Structure prediction by ZEFSAII (Michael W. Deem and Ramdas Pophale) SiO2 
 PCOD8317024
Probable space group: P 42/N B C
;
_chemical_formula_sum "Si O2"
_cell_formula_units_Z 92
_cell_length_a 13.618344
_cell_length_b 13.618344
_cell_length_c 28.969541
_cell_angle_alpha 90.000000
_cell_angle_beta 90.000000
_cell_angle_gamma 90.000000
_cell_volume 5372.670601
_symmetry_space_group_name_H-M "P 42/N B C"
_symmetry_group_IT_number 133
_space_group.IT_coordinate_system_code '2'
_symmetry_cell_setting 'tetragonal'
loop_
_space_group_symop_operation_xyz
x,y,z
1/2-y,x,1/2+z
1/2-x,1/2-y,z
y,1/2-x,1/2+z
x,1/2-y,-z
1/2-x,y,-z
y,x,1/2-z
1/2-y,1/2-x,1/2-z
-x,-y,-z
1/2+y,-x,1/2-z
1/2+x,1/2+y,-z
-y,1/2+x,1/2-z
-x,1/2+y,z
1/2+x,-y,z
-y,-x,1/2+z
1/2+y,1/2+x,1/2+z
loop_
_atom_site_type_symbol
_atom_site_label
_atom_site_fract_x
_atom_site_fract_y
_atom_site_fract_z
Si Si1 0.934141 0.375696 0.355416
Si Si2 0.224534 0.458189 0.790570
Si Si3 0.938342 0.252135 0.198723
Si Si4 0.250000 0.250000 0.750000
Si Si5 0.943874 0.440841 0.650847
Si Si6 0.784580 0.148801 0.911736
Si Si7 0.750000 0.250000 0.000000
Si Si8 0.250000 0.750000 0.750000
O O1 0.830027 0.419290 0.339523
O O2 0.924295 0.306935 0.400974
O O3 0.983847 0.315781 0.313315
O O4 0.999890 0.467160 0.370560
O O5 0.207002 0.494122 0.738391
O O6 0.247646 0.342433 0.785503
O O7 0.125499 0.480529 0.819386
O O8 0.985795 0.351838 0.179027
O O9 0.835289 0.293450 0.218229
O O10 0.897779 0.382209 0.608191
O O11 0.750000 0.250000 0.886206
O O12 0.807769 0.174786 0.965736
#
# Coordination Sequence:
#
# PCOD8317024 Si02
#       8
#    16  16  16   4  16  16   4   4
#     4  11  21  33  52  80 104 138 182 226 267 313
#     4  11  22  32  46  65 105 149 191 225 265 304
#     4  12  18  32  51  72 103 140 193 238 260 294
#     4  12  24  36  36  60 108 158 184 232 276 312
#     4  11  21  33  52  80 104 138 182 226 267 313
#     4   9  18  37  61  80 103 133 164 213 269 320
#     4   8  16  38  68  84 102 128 160 216 270 316
#     4  12  16  30  52  72  92 134 204 244 266 276
#
# _framework density 17.123698999999998
#
# number of rings (size 3 to 8) (size 9 to 14) (size 15 to 20)
#    0.522    0.696    5.217    3.130    0.000    1.391 
#    0.000    0.870    0.000    0.000    0.000    0.000 
#    0.000    6.957    0.000    0.000    0.000    0.000 
#
# Total GULP energy -1139877.159904 kJ/mol
# GULP energy per Si atom -12389.969129 kJ/mol
# Density = 1.708472 g / cm^3
# Si number density = 17.123699 Si / 1000 Ang^3
#
#
#
# Elastic Constant Matrix: (Units=GPa)
#
#
# Indices 1 2 3 4 5 6 
#
# 1 84.9017 21.7721 24.6442 0.0000 0.0000 0.0000
# 2 21.7721 84.9017 24.6442 0.0000 0.0000 0.0000
# 3 24.6442 24.6442 88.1638 0.0000 0.0000 0.0000
# 4 0.0000 0.0000 0.0000 12.6154 0.0000 0.0000
# 5 0.0000 0.0000 0.0000 0.0000 12.6154 0.0000
# 6 0.0000 0.0000 0.0000 0.0000 0.0000 26.4767
#
#
#
# Elastic Compliance Matrix: (Units=1/GPa)
#
#
# Indices 1 2 3 4 5 6 
#
# 1 0.013303 -0.002538 -0.003009 0.000000 0.000000 0.000000
# 2 -0.002538 0.013303 -0.003009 0.000000 0.000000 0.000000
# 3 -0.003009 -0.003009 0.013025 0.000000 0.000000 0.000000
# 4 0.000000 0.000000 0.000000 0.079268 0.000000 0.000000
# 5 0.000000 0.000000 0.000000 0.000000 0.079268 0.000000
# 6 0.000000 0.000000 0.000000 0.000000 0.000000 0.037769
#
#
# Mechanical properties :
#
#
# Convention : Reuss Voigt Hill
#
# Bulk Modulus (GPa) = 44.40891 44.45425 44.43158
# Shear Modulus (GPa) = 19.18992 22.80192 20.99592
#
# Velocity S-wave (km/s) = 3.35126 3.65307 3.50542
# Velocity P-wave (km/s) = 6.40040 6.61893 6.51058
#
# Compressibility (1/GPa) = 0.02251800
#
# Stress axis : x y z
#
# Youngs Moduli (GPa) = 75.17347 75.17347 76.77694
#
# Poissons Ratio (x) = 0.19078 0.23102
# Poissons Ratio (y) = 0.19078 0.23102
# Poissons Ratio (z) = 0.22620 0.22620
#
# Static dielectric constant tensor:
#      x y z
#    x 3.254420 0.000000 0.000000 
#    y 0.000000 3.254420 0.000000 
#    z 0.000000 0.000000 2.832030 
# 
# 
# High freq. dielectric constant tensor:
#      x y z
#    x 1.662900 0.000000 0.000000 
#    y 0.000000 1.662900 0.000000 
#    z 0.000000 0.000000 1.615440 
# 
# From -- ./inp_files/8049.got.cif
#   From: 2010.03.12/outbox.cif.g09.slc.cpg/sg133_5_cif.got.tgz:8049.got - 2010.04.06 18:08:06.
