data_PCOD8317937
_publ_section_title
;
Structure prediction by ZEFSAII (Michael W. Deem and Ramdas Pophale) SiO2 
 PCOD8317937
Probable space group: P 42/M N M
;
_chemical_formula_sum "Si O2"
_cell_formula_units_Z 112
_cell_length_a 18.628737
_cell_length_b 18.628737
_cell_length_c 20.157389
_cell_angle_alpha 90.000000
_cell_angle_beta 90.000000
_cell_angle_gamma 90.000000
_cell_volume 6995.215524
_symmetry_space_group_name_H-M "P 42/M N M"
_symmetry_group_IT_number 136
_symmetry_cell_setting 'tetragonal'
loop_
_space_group_symop_operation_xyz
x,y,z
1/2-y,1/2+x,1/2+z
-x,-y,z
1/2+y,1/2-x,1/2+z
1/2+x,1/2-y,1/2-z
1/2-x,1/2+y,1/2-z
y,x,-z
-y,-x,-z
-x,-y,-z
1/2+y,1/2-x,1/2-z
x,y,-z
1/2-y,1/2+x,1/2-z
1/2-x,1/2+y,1/2+z
1/2+x,1/2-y,1/2+z
-y,-x,z
y,x,z
loop_
_atom_site_type_symbol
_atom_site_label
_atom_site_fract_x
_atom_site_fract_y
_atom_site_fract_z
Si Si1 0.790953 0.672711 0.183965
Si Si2 0.755918 0.871464 0.298209
Si Si3 0.694439 0.808785 0.426723
Si Si4 0.513308 0.079015 0.161612
Si Si5 0.121914 0.602974 0.424530
Si Si6 0.169284 0.452773 0.619476
Si Si7 0.284222 0.978515 0.738617
O O1 0.725117 0.725117 0.167534
O O2 0.837295 0.699872 0.246232
O O3 0.841475 0.667759 0.119481
O O4 0.759373 0.594249 0.202051
O O5 0.832966 0.832966 0.291794
O O6 0.723839 0.864433 0.371992
O O7 0.767175 0.955940 0.283598
O O8 0.712290 0.839847 0.500000
O O9 0.732573 0.732573 0.414789
O O10 0.609373 0.791833 0.422401
O O11 0.459764 0.096669 0.100716
O O12 0.498426 0.133402 0.221557
O O13 0.500000 0.000000 0.190045
O O14 0.594172 0.085471 0.137342
O O15 0.121359 0.630617 0.500000
O O16 0.159201 0.524950 0.422416
O O17 0.218695 0.469766 0.682693
#
# Coordination Sequence:
#
# PCOD8317937 Si02
#       7
#    16  16  16  16  16  16  16
#     4  10  20  34  52  71  95 129 169 207 243 289
#     4  10  19  34  51  71  98 128 166 207 245 294
#     4  10  20  32  47  69  98 129 159 200 253 297
#     4   9  20  26  41  67  98 129 162 195 232 284
#     4  10  21  33  44  66  99 133 166 199 240 288
#     4  11  19  29  47  68  98 129 165 199 240 293
#     4  11  18  31  49  74  92 129 165 206 245 292
#
# _framework density 16.010943999999999
#
# number of rings (size 3 to 8) (size 9 to 14) (size 15 to 20)
#    0.000    1.857    4.286    0.429    4.000    3.429 
#    0.000    0.000    0.000    0.429    0.000    0.000 
#    0.000    0.571    0.000   12.143    0.000    0.000 
#
# Total GULP energy -1388659.051355 kJ/mol
# GULP energy per Si atom -12398.741530 kJ/mol
# Density = 1.597450 g / cm^3
# Si number density = 16.010944 Si / 1000 Ang^3
#
#
#
# Elastic Constant Matrix: (Units=GPa)
#
#
# Indices 1 2 3 4 5 6 
#
# 1 70.0693 32.9937 18.6926 0.0000 0.0000 0.0000
# 2 32.9937 70.0693 18.6926 0.0000 0.0000 0.0000
# 3 18.6926 18.6926 96.6890 0.0000 0.0000 0.0000
# 4 0.0000 0.0000 0.0000 18.0253 0.0000 0.0000
# 5 0.0000 0.0000 0.0000 0.0000 18.0253 0.0000
# 6 0.0000 0.0000 0.0000 0.0000 0.0000 27.0264
#
#
#
# Elastic Compliance Matrix: (Units=1/GPa)
#
#
# Indices 1 2 3 4 5 6 
#
# 1 0.018703 -0.008269 -0.002017 0.000000 0.000000 0.000000
# 2 -0.008269 0.018703 -0.002017 0.000000 0.000000 0.000000
# 3 -0.002017 -0.002017 0.011122 0.000000 0.000000 0.000000
# 4 0.000000 0.000000 0.000000 0.055478 0.000000 0.000000
# 5 0.000000 0.000000 0.000000 0.000000 0.055478 0.000000
# 6 0.000000 0.000000 0.000000 0.000000 0.000000 0.037001
#
#
# Mechanical properties :
#
#
# Convention : Reuss Voigt Hill
#
# Bulk Modulus (GPa) = 41.80181 41.95394 41.87787
# Shear Modulus (GPa) = 21.82782 23.71197 22.76990
#
# Velocity S-wave (km/s) = 3.69630 3.85253 3.77523
# Velocity P-wave (km/s) = 6.66197 6.78598 6.72426
#
# Compressibility (1/GPa) = 0.02392241
#
# Stress axis : x y z
#
# Youngs Moduli (GPa) = 53.46668 53.46668 89.90836
#
# Poissons Ratio (x) = 0.44210 0.18137
# Poissons Ratio (y) = 0.44210 0.18137
# Poissons Ratio (z) = 0.10786 0.10786
#
# Static dielectric constant tensor:
#      x y z
#    x 2.990030 0.000000 0.000000 
#    y 0.000000 2.990030 0.000000 
#    z 0.000000 0.000000 3.032340 
# 
# 
# High freq. dielectric constant tensor:
#      x y z
#    x 1.594290 0.000000 0.000000 
#    y 0.000000 1.594290 0.000000 
#    z 0.000000 0.000000 1.620790 
# 
# From -- ./inp_files/7753.got.cif
#   From: 2010.03.12/outbox.cif.g09.slc.cpg/sg136_4_cif.got.tgz:7753.got - 2010.04.06 18:39:43.
