data_PCOD8317823
_publ_section_title
;
Structure prediction by ZEFSAII (Michael W. Deem and Ramdas Pophale) SiO2 
 PCOD8317823
Probable space group: P 42/M N M
;
_chemical_formula_sum "Si O2"
_cell_formula_units_Z 96
_cell_length_a 25.222914
_cell_length_b 25.222914
_cell_length_c 9.330727
_cell_angle_alpha 90.000000
_cell_angle_beta 90.000000
_cell_angle_gamma 90.000000
_cell_volume 5936.165509
_symmetry_space_group_name_H-M "P 42/M N M"
_symmetry_group_IT_number 136
_symmetry_cell_setting 'tetragonal'
loop_
_space_group_symop_operation_xyz
x,y,z
1/2-y,1/2+x,1/2+z
-x,-y,z
1/2+y,1/2-x,1/2+z
1/2+x,1/2-y,1/2-z
1/2-x,1/2+y,1/2-z
y,x,-z
-y,-x,-z
-x,-y,-z
1/2+y,1/2-x,1/2-z
x,y,-z
1/2-y,1/2+x,1/2-z
1/2-x,1/2+y,1/2+z
1/2+x,1/2-y,1/2+z
-y,-x,z
y,x,z
loop_
_atom_site_type_symbol
_atom_site_label
_atom_site_fract_x
_atom_site_fract_y
_atom_site_fract_z
Si Si1 0.188351 0.896205 0.166768
Si Si2 0.495765 0.304226 0.165054
Si Si3 0.886781 0.311757 0.161745
Si Si4 0.382691 0.807705 0.664391
Si Si5 0.501291 0.201158 0.660745
Si Si6 0.612985 0.301006 0.833614
O O1 0.153916 0.846085 0.219173
O O2 0.249668 0.884984 0.204209
O O3 0.166833 0.949298 0.245830
O O4 0.180643 0.906459 0.000000
O O5 0.499349 0.243647 0.213849
O O6 0.554845 0.327472 0.192437
O O7 0.479532 0.307074 0.000000
O O8 0.850096 0.343627 0.268292
O O9 0.947585 0.333735 0.175885
O O10 0.865733 0.319646 0.000000
O O11 0.366268 0.800168 0.500000
O O12 0.443237 0.830386 0.677905
O O13 0.377238 0.751087 0.739983
O O14 0.499958 0.227608 0.500000
O O15 0.655735 0.344266 0.785969
O O16 0.619092 0.285028 0.000000
#
# Coordination Sequence:
#
# PCOD8317823 Si02
#       6
#    16  16  16  16  16  16
#     4   9  18  32  48  65  89 123 155 181 218 270
#     4   9  16  27  46  69  88 110 148 193 225 252
#     4   9  17  30  47  66  89 120 153 180 215 267
#     4  10  19  30  46  70  95 116 145 188 229 260
#     4   8  16  31  47  62  86 120 152 180 216 266
#     4   9  18  32  48  66  91 123 153 179 216 271
#
# _framework density 16.172056000000001
#
# number of rings (size 3 to 8) (size 9 to 14) (size 15 to 20)
#    0.000    3.000    0.000    2.000    0.000    5.333 
#    0.000    1.667    0.000    1.000    0.000    7.000 
#    0.000    0.000    0.000    0.000    0.000    0.000 
#
# Total GULP energy -1189361.283218 kJ/mol
# GULP energy per Si atom -12389.180034 kJ/mol
# Density = 1.613525 g / cm^3
# Si number density = 16.172056 Si / 1000 Ang^3
#
#
#
# Elastic Constant Matrix: (Units=GPa)
#
#
# Indices 1 2 3 4 5 6 
#
# 1 99.2440 65.0097 55.4697 0.0000 0.0000 0.0000
# 2 65.0097 99.2440 55.4697 0.0000 0.0000 0.0000
# 3 55.4697 55.4697 79.7392 0.0000 0.0000 0.0000
# 4 0.0000 0.0000 0.0000 24.8839 0.0000 0.0000
# 5 0.0000 0.0000 0.0000 0.0000 24.8839 0.0000
# 6 0.0000 0.0000 0.0000 0.0000 0.0000 0.1571
#
#
#
# Elastic Compliance Matrix: (Units=1/GPa)
#
#
# Indices 1 2 3 4 5 6 
#
# 1 0.020347 -0.008863 -0.007989 0.000000 0.000000 0.000000
# 2 -0.008863 0.020347 -0.007989 0.000000 0.000000 0.000000
# 3 -0.007989 -0.007989 0.023655 0.000000 0.000000 0.000000
# 4 0.000000 0.000000 0.000000 0.040187 0.000000 0.000000
# 5 0.000000 0.000000 0.000000 0.000000 0.040187 0.000000
# 6 0.000000 0.000000 0.000000 0.000000 0.000000 6.366727
#
#
# Mechanical properties :
#
#
# Convention : Reuss Voigt Hill
#
# Bulk Modulus (GPa) = 68.17335 70.01390 69.09362
# Shear Modulus (GPa) = 0.76150 16.80353 8.78251
#
# Velocity S-wave (km/s) = 0.68695 3.22692 2.33291
# Velocity P-wave (km/s) = 6.54796 7.56777 7.07626
#
# Compressibility (1/GPa) = 0.01466849
#
# Stress axis : x y z
#
# Youngs Moduli (GPa) = 49.14707 49.14707 42.27414
#
# Poissons Ratio (x) = 0.43561 0.33771
# Poissons Ratio (y) = 0.43561 0.33771
# Poissons Ratio (z) = 0.39261 0.39261
#
# Static dielectric constant tensor:
#      x y z
#    x 3.100800 0.000000 0.000000 
#    y 0.000000 3.100800 0.000000 
#    z 0.000000 0.000000 3.130260 
# 
# 
# High freq. dielectric constant tensor:
#      x y z
#    x 1.603620 0.000000 0.000000 
#    y 0.000000 1.603620 0.000000 
#    z 0.000000 0.000000 1.631300 
# 
# From -- ./inp_files/1938.got.cif
#   From: 2010.03.12/outbox.cif.g09.slc.cpg/sg136_1_cif.got.tgz:1938.got - 2010.04.06 18:39:43.
