data_PCOD8317223
_publ_section_title
;
Structure prediction by ZEFSAII (Michael W. Deem and Ramdas Pophale) SiO2 
 PCOD8317223
Probable space group: P 42/N N M
;
_chemical_formula_sum "Si O2"
_cell_formula_units_Z 88
_cell_length_a 14.912842
_cell_length_b 14.912842
_cell_length_c 21.227478
_cell_angle_alpha 90.000000
_cell_angle_beta 90.000000
_cell_angle_gamma 90.000000
_cell_volume 4720.839469
_symmetry_space_group_name_H-M "P 42/N N M"
_symmetry_group_IT_number 134
_space_group.IT_coordinate_system_code '2'
_symmetry_cell_setting 'tetragonal'
loop_
_space_group_symop_operation_xyz
x,y,z
1/2-y,x,1/2+z
1/2-x,1/2-y,z
y,1/2-x,1/2+z
x,1/2-y,1/2-z
1/2-x,y,1/2-z
y,x,-z
1/2-y,1/2-x,-z
-x,-y,-z
1/2+y,-x,1/2-z
1/2+x,1/2+y,-z
-y,1/2+x,1/2-z
-x,1/2+y,1/2+z
1/2+x,-y,1/2+z
-y,-x,z
1/2+y,1/2+x,z
loop_
_atom_site_type_symbol
_atom_site_label
_atom_site_fract_x
_atom_site_fract_y
_atom_site_fract_z
Si Si1 0.892530 0.250000 0.250000
Si Si2 0.473144 0.832626 0.026265
Si Si3 0.250382 0.149638 0.824200
Si Si4 0.499864 0.140209 0.496502
Si Si5 0.403915 0.046164 0.896628
Si Si6 0.855259 0.005781 0.146590
O O1 0.832183 0.167818 0.273925
O O2 0.951036 0.277688 0.310193
O O3 0.370994 0.870994 0.025884
O O4 0.525273 0.878425 0.083492
O O5 0.481055 0.726807 0.039171
O O6 0.518113 0.850863 0.958940
O O7 0.250000 0.250000 0.853720
O O8 0.250000 0.156570 0.750000
O O9 0.335132 0.089701 0.846813
O O10 0.156286 0.101312 0.844291
O O11 0.562284 0.062284 0.525298
O O12 0.529155 0.164715 0.425606
O O13 0.396912 0.103089 0.500000
O O14 0.460514 0.960514 0.868735
O O15 0.953746 0.046255 0.164987
#
# Coordination Sequence:
#
# PCOD8317223 Si02
#       6
#     8  16  16  16  16  16
#     4   9  18  32  53  80 108 146 189 216 258 337
#     4   9  18  33  54  80 104 135 182 223 268 319
#     4  11  23  36  52  81 111 138 181 230 272 326
#     4  10  21  34  50  77 110 143 180 222 273 330
#     4   9  19  35  55  77 104 140 179 223 269 322
#     4  10  20  35  52  75 109 145 179 219 270 328
#
# _framework density 18.640754000000001
#
# number of rings (size 3 to 8) (size 9 to 14) (size 15 to 20)
#    0.000    2.273    2.727    1.091    2.545    2.545 
#    0.000    3.636    0.000    0.000    0.000    0.000 
#    0.000    0.000    0.000    4.000    0.000    0.000 
#
# Total GULP energy -1090187.072715 kJ/mol
# GULP energy per Si atom -12388.489463 kJ/mol
# Density = 1.859833 g / cm^3
# Si number density = 18.640754 Si / 1000 Ang^3
#
#
#
# Elastic Constant Matrix: (Units=GPa)
#
#
# Indices 1 2 3 4 5 6 
#
# 1 124.6387 63.3504 17.1117 0.0000 0.0000 0.0000
# 2 63.3504 124.6383 17.1121 0.0000 0.0000 0.0000
# 3 17.1117 17.1121 51.0449 0.0000 0.0000 0.0000
# 4 0.0000 0.0000 0.0000 21.8269 0.0000 0.0000
# 5 0.0000 0.0000 0.0000 0.0000 21.8271 0.0000
# 6 0.0000 0.0000 0.0000 0.0000 0.0000 23.2567
#
#
#
# Elastic Compliance Matrix: (Units=1/GPa)
#
#
# Indices 1 2 3 4 5 6 
#
# 1 0.010991 -0.005326 -0.001899 0.000000 0.000000 0.000000
# 2 -0.005326 0.010991 -0.001899 0.000000 0.000000 0.000000
# 3 -0.001899 -0.001899 0.020864 0.000000 0.000000 0.000000
# 4 0.000000 0.000000 0.000000 0.045815 0.000000 0.000000
# 5 0.000000 0.000000 0.000000 0.000000 0.045815 0.000000
# 6 0.000000 0.000000 0.000000 0.000000 0.000000 0.042998
#
#
# Mechanical properties :
#
#
# Convention : Reuss Voigt Hill
#
# Bulk Modulus (GPa) = 40.65423 55.05226 47.85325
# Shear Modulus (GPa) = 24.51935 26.89865 25.70900
#
# Velocity S-wave (km/s) = 3.63073 3.80281 3.71776
# Velocity P-wave (km/s) = 6.27956 6.99137 6.64500
#
# Compressibility (1/GPa) = 0.02459768
#
# Stress axis : x y z
#
# Youngs Moduli (GPa) = 90.98547 90.98496 47.92965
#
# Poissons Ratio (x) = 0.48455 0.09102
# Poissons Ratio (y) = 0.48455 0.09103
# Poissons Ratio (z) = 0.17279 0.17280
#
# Static dielectric constant tensor:
#      x y z
#    x 3.695750 0.000000 0.000000 
#    y 0.000000 3.695750 0.000000 
#    z 0.000000 0.000000 3.144180 
# 
# 
# High freq. dielectric constant tensor:
#      x y z
#    x 1.721480 0.000000 0.000000 
#    y 0.000000 1.721480 0.000000 
#    z 0.000000 0.000000 1.696880 
# 
# From -- ./inp_files/9009.got.cif
#   From: 2010.03.12/outbox.cif.g09.slc.cpg/sg134_5_cif.got.tgz:9009.got - 2010.04.06 18:17:22.
