data_PCOD8317390
_publ_section_title
;
Structure prediction by ZEFSAII (Michael W. Deem and Ramdas Pophale) SiO2 
 PCOD8317390
Probable space group: P 42/M B C
;
_chemical_formula_sum "Si O2"
_cell_formula_units_Z 112
_cell_length_a 14.008216
_cell_length_b 14.008216
_cell_length_c 29.654296
_cell_angle_alpha 90.000000
_cell_angle_beta 90.000000
_cell_angle_gamma 90.000000
_cell_volume 5819.065929
_symmetry_space_group_name_H-M "P 42/M B C"
_symmetry_group_IT_number 135
_symmetry_cell_setting 'tetragonal'
loop_
_space_group_symop_operation_xyz
x,y,z
-y,x,1/2+z
-x,-y,z
y,-x,1/2+z
1/2+x,1/2-y,-z
1/2-x,1/2+y,-z
1/2+y,1/2+x,1/2-z
1/2-y,1/2-x,1/2-z
-x,-y,-z
y,-x,1/2-z
x,y,-z
-y,x,1/2-z
1/2-x,1/2+y,z
1/2+x,1/2-y,z
1/2-y,1/2-x,1/2+z
1/2+y,1/2+x,1/2+z
loop_
_atom_site_type_symbol
_atom_site_label
_atom_site_fract_x
_atom_site_fract_y
_atom_site_fract_z
Si Si1 0.213324 0.542319 0.947538
Si Si2 0.810901 0.292068 0.117219
Si Si3 0.517396 0.264474 0.858669
Si Si4 0.380863 0.834035 0.381823
Si Si5 0.149963 0.004890 0.738909
Si Si6 0.905450 0.945052 0.101207
Si Si7 0.739471 0.464696 0.826463
O O1 0.174364 0.642162 0.927155
O O2 0.161370 0.449560 0.925808
O O3 0.326806 0.538192 0.937544
O O4 0.191680 0.540639 0.000000
O O5 0.736068 0.207670 0.108799
O O6 0.778059 0.361664 0.157597
O O7 0.906745 0.239316 0.130655
O O8 0.563184 0.160416 0.866816
O O9 0.530242 0.305662 0.808073
O O10 0.569539 0.333696 0.894243
O O11 0.446944 0.805733 0.339848
O O12 0.234587 0.036148 0.772573
O O13 0.080250 0.095424 0.734712
O O14 0.863596 0.981858 0.149182
O O15 0.000000 0.000000 0.087282
#
# Coordination Sequence:
#
# PCOD8317390 Si02
#       7
#    16  16  16  16  16  16  16
#     4  10  23  41  63  86 120 157 200 264 314 364
#     4  10  21  40  60  86 123 161 198 245 312 365
#     4  12  21  35  63  87 116 168 202 234 306 366
#     4  10  20  40  60  85 120 163 199 244 312 368
#     4  11  20  32  56  91 120 156 212 257 293 342
#     4  10  18  37  60  85 119 150 200 250 311 351
#     4  10  21  36  54  85 128 161 198 253 295 350
#
# _framework density 19.247074999999999
#
# number of rings (size 3 to 8) (size 9 to 14) (size 15 to 20)
#    0.000    1.857    4.286    3.429    0.000    4.286 
#    0.000    5.000    0.000    3.429    0.000    0.000 
#    0.000    0.000    0.000    0.000    0.000    0.000 
#
# Total GULP energy -1388181.284098 kJ/mol
# GULP energy per Si atom -12394.475751 kJ/mol
# Density = 1.920327 g / cm^3
# Si number density = 19.247075 Si / 1000 Ang^3
#
#
#
# Elastic Constant Matrix: (Units=GPa)
#
#
# Indices 1 2 3 4 5 6 
#
# 1 55.2385 -7.8301 14.5607 0.0000 0.0000 0.0000
# 2 -7.8301 55.2385 14.5607 0.0000 0.0000 0.0000
# 3 14.5607 14.5607 92.4851 0.0000 0.0000 0.0000
# 4 0.0000 0.0000 0.0000 18.4160 0.0000 0.0000
# 5 0.0000 0.0000 0.0000 0.0000 18.4160 0.0000
# 6 0.0000 0.0000 0.0000 0.0000 0.0000 41.0356
#
#
#
# Elastic Compliance Matrix: (Units=1/GPa)
#
#
# Indices 1 2 3 4 5 6 
#
# 1 0.019604 0.003748 -0.003676 0.000000 0.000000 0.000000
# 2 0.003748 0.019604 -0.003676 0.000000 0.000000 0.000000
# 3 -0.003676 -0.003676 0.011970 0.000000 0.000000 0.000000
# 4 0.000000 0.000000 0.000000 0.054301 0.000000 0.000000
# 5 0.000000 0.000000 0.000000 0.000000 0.054301 0.000000
# 6 0.000000 0.000000 0.000000 0.000000 0.000000 0.024369
#
#
# Mechanical properties :
#
#
# Convention : Reuss Voigt Hill
#
# Bulk Modulus (GPa) = 22.74401 27.28276 25.01339
# Shear Modulus (GPa) = 24.27027 27.68493 25.97760
#
# Velocity S-wave (km/s) = 3.55489 3.79673 3.67780
# Velocity P-wave (km/s) = 5.35651 5.78153 5.57307
#
# Compressibility (1/GPa) = 0.04396762
#
# Stress axis : x y z
#
# Youngs Moduli (GPa) = 51.01083 51.01083 83.54094
#
# Poissons Ratio (x) = -0.19118 0.30713
# Poissons Ratio (y) = -0.19118 0.30713
# Poissons Ratio (z) = 0.18754 0.18754
#
# Static dielectric constant tensor:
#      x y z
#    x 3.632340 0.000000 0.000000 
#    y 0.000000 3.632340 0.000000 
#    z 0.000000 0.000000 3.223750 
# 
# 
# High freq. dielectric constant tensor:
#      x y z
#    x 1.752470 0.000000 0.000000 
#    y 0.000000 1.752470 0.000000 
#    z 0.000000 0.000000 1.720560 
# 
# From -- ./inp_files/6885.got.cif
#   From: 2010.03.12/outbox.cif.g09.slc.cpg/sg135_4_cif.got.tgz:6885.got - 2010.04.06 18:31:24.
