data_PCOD8317296
_publ_section_title
;
Structure prediction by ZEFSAII (Michael W. Deem and Ramdas Pophale) SiO2 
 PCOD8317296
Probable space group: P 42/N N M
;
_chemical_formula_sum "Si O2"
_cell_formula_units_Z 64
_cell_length_a 12.355252
_cell_length_b 12.355252
_cell_length_c 19.016048
_cell_angle_alpha 90.000000
_cell_angle_beta 90.000000
_cell_angle_gamma 90.000000
_cell_volume 2902.842551
_symmetry_space_group_name_H-M "P 42/N N M"
_symmetry_group_IT_number 134
_space_group.IT_coordinate_system_code '2'
_symmetry_cell_setting 'tetragonal'
loop_
_space_group_symop_operation_xyz
x,y,z
1/2-y,x,1/2+z
1/2-x,1/2-y,z
y,1/2-x,1/2+z
x,1/2-y,1/2-z
1/2-x,y,1/2-z
y,x,-z
1/2-y,1/2-x,-z
-x,-y,-z
1/2+y,-x,1/2-z
1/2+x,1/2+y,-z
-y,1/2+x,1/2-z
-x,1/2+y,1/2+z
1/2+x,-y,1/2+z
-y,-x,z
1/2+y,1/2+x,z
loop_
_atom_site_type_symbol
_atom_site_label
_atom_site_fract_x
_atom_site_fract_y
_atom_site_fract_z
Si Si1 0.657962 0.986342 0.958749
Si Si2 0.979349 0.303605 0.673920
Si Si3 0.922827 0.249250 0.090749
Si Si4 0.865616 0.710937 0.671812
O O1 0.544485 0.044485 0.944501
O O2 0.714371 0.982688 0.882900
O O3 0.626929 0.873072 0.000000
O O4 0.738254 0.056254 0.007669
O O5 0.960158 0.250000 0.750000
O O6 0.871650 0.371650 0.653332
O O7 0.081933 0.382784 0.674847
O O8 0.866926 0.133075 0.103996
O O9 0.844490 0.344490 0.118437
O O10 0.037049 0.263116 0.128745
O O11 0.750000 0.750000 0.639232
O O12 0.874101 0.750000 0.750000
#
# Coordination Sequence:
#
# PCOD8317296 Si02
#       4
#    16  16  16  16
#     4  10  22  41  67  99 138 185 230 280 344 416
#     4  12  25  42  68 102 141 185 231 287 355 428
#     4  10  22  41  67  98 131 171 223 284 342 402
#     4  11  23  44  65  93 134 176 227 280 343 415
#
# _framework density 22.047356000000001
#
# number of rings (size 3 to 8) (size 9 to 14) (size 15 to 20)
#    0.000    1.250    2.500    3.750    0.000    5.750 
#    0.000    6.250    0.000    0.000    0.000    0.000 
#    0.000    0.000    0.000    0.000    0.000    0.000 
#
# Total GULP energy -793033.729193 kJ/mol
# GULP energy per Si atom -12391.152019 kJ/mol
# Density = 2.199717 g / cm^3
# Si number density = 22.047356 Si / 1000 Ang^3
#
#
#
# Elastic Constant Matrix: (Units=GPa)
#
#
# Indices 1 2 3 4 5 6 
#
# 1 118.7637 42.8804 59.4641 0.0000 0.0000 0.0000
# 2 42.8804 118.7637 59.4641 0.0000 0.0000 0.0000
# 3 59.4641 59.4641 118.6021 0.0000 0.0000 0.0000
# 4 0.0000 0.0000 0.0000 1235.2729 0.0000 0.0000
# 5 0.0000 0.0000 0.0000 0.0000 1235.4292 0.0000
# 6 0.0000 0.0000 0.0000 0.0000 0.0000 40.0289
#
#
#
# Elastic Compliance Matrix: (Units=1/GPa)
#
#
# Indices 1 2 3 4 5 6 
#
# 1 0.011490 -0.001688 -0.004915 0.000000 0.000000 0.000000
# 2 -0.001688 0.011490 -0.004915 0.000000 0.000000 0.000000
# 3 -0.004915 -0.004915 0.013360 0.000000 0.000000 0.000000
# 4 0.000000 0.000000 0.000000 0.000810 0.000000 0.000000
# 5 0.000000 0.000000 0.000000 0.000000 0.000809 0.000000
# 6 0.000000 0.000000 0.000000 0.000000 0.000000 0.024982
#
#
# Mechanical properties :
#
#
# Convention : Reuss Voigt Hill
#
# Bulk Modulus (GPa) = 75.15516 75.52742 75.34129
# Shear Modulus (GPa) = 55.30315 515.10091 285.20203
#
# Velocity S-wave (km/s) = 5.01381 15.30167 11.38594
# Velocity P-wave (km/s) = 8.22677 18.61503 14.39095
#
# Compressibility (1/GPa) = 0.01330581
#
# Stress axis : x y z
#
# Youngs Moduli (GPa) = 87.03049 87.03041 74.85187
#
# Poissons Ratio (x) = 0.14690 0.36787
# Poissons Ratio (y) = 0.14690 0.36787
# Poissons Ratio (z) = 0.42772 0.42772
#
# Static dielectric constant tensor:
#      x y z
#    x 3.848260 0.000000 0.000000 
#    y 0.000000 3.848260 0.000000 
#    z 0.000000 0.000000 3.865730 
# 
# 
# High freq. dielectric constant tensor:
#      x y z
#    x 1.869690 0.000000 0.000000 
#    y 0.000000 1.869690 0.000000 
#    z 0.000000 0.000000 1.864440 
# 
# From -- ./inp_files/8698.got.cif
#   From: 2010.03.12/outbox.cif.g09.slc.cpg/sg134_5_cif.got.tgz:8698.got - 2010.04.06 18:17:22.
