data_PCOD8317131
_publ_section_title
;
Structure prediction by ZEFSAII (Michael W. Deem and Ramdas Pophale) SiO2 
 PCOD8317131
Probable space group: P 42/N N M
;
_chemical_formula_sum "Si O2"
_cell_formula_units_Z 56
_cell_length_a 12.623876
_cell_length_b 12.623876
_cell_length_c 17.454383
_cell_angle_alpha 90.000000
_cell_angle_beta 90.000000
_cell_angle_gamma 90.000000
_cell_volume 2781.569665
_symmetry_space_group_name_H-M "P 42/N N M"
_symmetry_group_IT_number 134
_space_group.IT_coordinate_system_code '2'
_symmetry_cell_setting 'tetragonal'
loop_
_space_group_symop_operation_xyz
x,y,z
1/2-y,x,1/2+z
1/2-x,1/2-y,z
y,1/2-x,1/2+z
x,1/2-y,1/2-z
1/2-x,y,1/2-z
y,x,-z
1/2-y,1/2-x,-z
-x,-y,-z
1/2+y,-x,1/2-z
1/2+x,1/2+y,-z
-y,1/2+x,1/2-z
-x,1/2+y,1/2+z
1/2+x,-y,1/2+z
-y,-x,z
1/2+y,1/2+x,z
loop_
_atom_site_type_symbol
_atom_site_label
_atom_site_fract_x
_atom_site_fract_y
_atom_site_fract_z
Si Si1 0.250000 0.921821 0.750000
Si Si2 0.006209 0.817700 0.325772
Si Si3 0.151981 0.474906 0.888144
Si Si4 0.579890 0.255767 0.980731
O O1 0.352338 0.852338 0.732699
O O2 0.264648 0.993958 0.823519
O O3 0.980878 0.750000 0.250000
O O4 0.053234 0.740923 0.390741
O O5 0.897669 0.862562 0.363609
O O6 0.088802 0.911199 0.304461
O O7 0.054776 0.554776 0.895765
O O8 0.220657 0.477995 0.967385
O O9 0.628680 0.371321 0.002735
O O10 0.668998 0.168998 0.997763
#
# Coordination Sequence:
#
# PCOD8317131 Si02
#       4
#     8  16  16  16
#     4   9  16  28  49  74  96 120 157 206 258 311
#     4  10  19  30  45  68 101 139 176 212 253 302
#     4   9  17  29  46  70  99 129 164 209 258 302
#     4   9  16  27  46  72 100 130 168 214 259 302
#
# _framework density 20.132517
#
# number of rings (size 3 to 8) (size 9 to 14) (size 15 to 20)
#    0.000    2.714    0.000    2.571    0.000    8.286 
#    0.000    0.714    0.000    1.714    0.000   12.000 
#    0.000    0.000    0.000    0.000    0.000    1.143 
#
# Total GULP energy -693795.075909 kJ/mol
# GULP energy per Si atom -12389.197784 kJ/mol
# Density = 2.008669 g / cm^3
# Si number density = 20.132517 Si / 1000 Ang^3
#
#
#
# Elastic Constant Matrix: (Units=GPa)
#
#
# Indices 1 2 3 4 5 6 
#
# 1 61.0606 39.9101 50.0046 0.0000 0.0000 0.0000
# 2 39.9101 61.0606 50.0046 0.0000 0.0000 0.0000
# 3 50.0046 50.0046 134.2961 0.0000 0.0000 0.0000
# 4 0.0000 0.0000 0.0000 -8.0661 0.0000 0.0000
# 5 0.0000 0.0000 0.0000 0.0000 -8.0661 0.0000
# 6 0.0000 0.0000 0.0000 0.0000 0.0000 55.0464
#
#
#
# Elastic Compliance Matrix: (Units=1/GPa)
#
#
# Indices 1 2 3 4 5 6 
#
# 1 0.031485 -0.015795 -0.005842 0.000000 0.000000 0.000000
# 2 -0.015795 0.031485 -0.005842 0.000000 0.000000 0.000000
# 3 -0.005842 -0.005842 0.011797 0.000000 0.000000 0.000000
# 4 0.000000 0.000000 0.000000 -0.123975 0.000000 0.000000
# 5 0.000000 0.000000 0.000000 0.000000 -0.123975 0.000000
# 6 0.000000 0.000000 0.000000 0.000000 0.000000 0.018166
#
#
# Mechanical properties :
#
#
# Convention : Reuss Voigt Hill
#
# Bulk Modulus (GPa) = 50.48259 59.58397 55.03328
# Shear Modulus (GPa) = -53.50220 15.54937 -18.97642
#
# Velocity S-wave (km/s) = -5.16069 2.78214 -3.07347
# Velocity P-wave (km/s) = 3.22191 6.32301 3.84706
#
# Compressibility (1/GPa) = 0.01980881
#
# Stress axis : x y z
#
# Youngs Moduli (GPa) = 31.76077 31.76077 84.76768
#
# Poissons Ratio (x) = 0.50166 0.49524
# Poissons Ratio (y) = 0.50166 0.49524
# Poissons Ratio (z) = 0.18556 0.18556
#
# Static dielectric constant tensor:
#      x y z
#    x 3.450360 0.000000 0.000000 
#    y 0.000000 3.450360 0.000000 
#    z 0.000000 0.000000 3.697850 
# 
# 
# High freq. dielectric constant tensor:
#      x y z
#    x 1.748340 0.000000 0.000000 
#    y 0.000000 1.748340 0.000000 
#    z 0.000000 0.000000 1.801650 
# 
# From -- ./inp_files/5980.got.cif
#   From: 2010.03.12/outbox.cif.g09.slc.cpg/sg134_3_cif.got.tgz:5980.got - 2010.04.06 18:17:22.
