data_PCOD8317004
_publ_section_title
;
Structure prediction by ZEFSAII (Michael W. Deem and Ramdas Pophale) SiO2 
 PCOD8317004
Probable space group: P 42/N B C
;
_chemical_formula_sum "Si O2"
_cell_formula_units_Z 52
_cell_length_a 15.712344
_cell_length_b 15.712344
_cell_length_c 8.762565
_cell_angle_alpha 90.000000
_cell_angle_beta 90.000000
_cell_angle_gamma 90.000000
_cell_volume 2163.282366
_symmetry_space_group_name_H-M "P 42/N B C"
_symmetry_group_IT_number 133
_space_group.IT_coordinate_system_code '2'
_symmetry_cell_setting 'tetragonal'
loop_
_space_group_symop_operation_xyz
x,y,z
1/2-y,x,1/2+z
1/2-x,1/2-y,z
y,1/2-x,1/2+z
x,1/2-y,-z
1/2-x,y,-z
y,x,1/2-z
1/2-y,1/2-x,1/2-z
-x,-y,-z
1/2+y,-x,1/2-z
1/2+x,1/2+y,-z
-y,1/2+x,1/2-z
-x,1/2+y,z
1/2+x,-y,z
-y,-x,1/2+z
1/2+y,1/2+x,1/2+z
loop_
_atom_site_type_symbol
_atom_site_label
_atom_site_fract_x
_atom_site_fract_y
_atom_site_fract_z
Si Si1 0.482392 0.843767 0.069633
Si Si2 0.172868 0.591622 0.897169
Si Si3 0.750000 0.250000 0.750000
Si Si4 0.332164 0.340862 0.073707
O O1 0.470150 0.838174 0.253026
O O2 0.576108 0.885231 0.039649
O O3 0.474915 0.750000 0.000000
O O4 0.413165 0.906767 0.996694
O O5 0.191257 0.689194 0.851163
O O6 0.250000 0.556151 0.000000
O O7 0.322229 0.322229 0.250000
O O8 0.336072 0.250000 0.000000
O O9 0.250000 0.390930 0.000000
#
# Coordination Sequence:
#
# PCOD8317004 Si02
#       4
#    16  16   4  16
#     4  11  21  36  59  97 134 178 220 267 332 398
#     4  12  20  33  57  95 146 187 219 254 311 408
#     4  12  18  28  58  84 142 188 218 240 302 376
#     4  10  22  43  71  94 118 161 231 294 351 396
#
# _framework density 24.037545000000001
#
# number of rings (size 3 to 8) (size 9 to 14) (size 15 to 20)
#    0.000    0.923    6.154    2.308    0.000    1.231 
#    0.000    4.615    0.000    0.000    0.000    0.000 
#    0.000    0.000    0.000    0.000    0.000    0.000 
#
# Total GULP energy -644477.050113 kJ/mol
# GULP energy per Si atom -12393.789425 kJ/mol
# Density = 2.398283 g / cm^3
# Si number density = 24.037545 Si / 1000 Ang^3
#
#
#
# Elastic Constant Matrix: (Units=GPa)
#
#
# Indices 1 2 3 4 5 6 
#
# 1 173.7240 17.2535 55.8533 0.0000 0.0000 0.0000
# 2 17.2535 173.7240 55.8533 0.0000 0.0000 0.0000
# 3 55.8533 55.8533 164.1992 0.0000 0.0000 0.0000
# 4 0.0000 0.0000 0.0000 15.1051 0.0000 0.0000
# 5 0.0000 0.0000 0.0000 0.0000 15.1051 0.0000
# 6 0.0000 0.0000 0.0000 0.0000 0.0000 -22.0183
#
#
#
# Elastic Compliance Matrix: (Units=1/GPa)
#
#
# Indices 1 2 3 4 5 6 
#
# 1 0.006464 0.000073 -0.002224 0.000000 0.000000 0.000000
# 2 0.000073 0.006464 -0.002224 0.000000 0.000000 0.000000
# 3 -0.002224 -0.002224 0.007603 0.000000 0.000000 0.000000
# 4 0.000000 0.000000 0.000000 0.066203 0.000000 0.000000
# 5 0.000000 0.000000 0.000000 0.000000 0.066203 0.000000
# 6 0.000000 0.000000 0.000000 0.000000 0.000000 -0.045417
#
#
# Mechanical properties :
#
#
# Convention : Reuss Voigt Hill
#
# Bulk Modulus (GPa) = 84.87275 85.50747 85.19011
# Shear Modulus (GPa) = 41.59893 27.15086 34.37489
#
# Velocity S-wave (km/s) = 4.16454 3.36448 3.78570
# Velocity P-wave (km/s) = 7.64916 7.12339 7.39095
#
# Compressibility (1/GPa) = 0.01178235
#
# Stress axis : x y z
#
# Youngs Moduli (GPa) = 154.70553 154.70553 131.52954
#
# Poissons Ratio (x) = -0.01128 0.29246
# Poissons Ratio (y) = -0.01128 0.29246
# Poissons Ratio (z) = 0.34399 0.34399
#
# Static dielectric constant tensor:
#      x y z
#    x 5.229080 0.000000 0.000000 
#    y 0.000000 5.229080 0.000000 
#    z 0.000000 0.000000 4.400800 
# 
# 
# High freq. dielectric constant tensor:
#      x y z
#    x 1.947380 0.000000 0.000000 
#    y 0.000000 1.947380 0.000000 
#    z 0.000000 0.000000 1.964670 
# 
# From -- ./inp_files/1217.got.cif
#   From: 2010.03.12/outbox.cif.g09.slc.cpg/sg133_1_cif.got.tgz:1217.got - 2010.04.06 18:08:06.
