data_PCOD8317984
_publ_section_title
;
Structure prediction by ZEFSAII (Michael W. Deem and Ramdas Pophale) SiO2 
 PCOD8317984
Probable space group: P 42/M N M
;
_chemical_formula_sum "Si O2"
_cell_formula_units_Z 64
_cell_length_a 23.792243
_cell_length_b 23.792243
_cell_length_c 7.778729
_cell_angle_alpha 90.000000
_cell_angle_beta 90.000000
_cell_angle_gamma 90.000000
_cell_volume 4403.311558
_symmetry_space_group_name_H-M "P 42/M N M"
_symmetry_group_IT_number 136
_symmetry_cell_setting 'tetragonal'
loop_
_space_group_symop_operation_xyz
x,y,z
1/2-y,1/2+x,1/2+z
-x,-y,z
1/2+y,1/2-x,1/2+z
1/2+x,1/2-y,1/2-z
1/2-x,1/2+y,1/2-z
y,x,-z
-y,-x,-z
-x,-y,-z
1/2+y,1/2-x,1/2-z
x,y,-z
1/2-y,1/2+x,1/2-z
1/2-x,1/2+y,1/2+z
1/2+x,1/2-y,1/2+z
-y,-x,z
y,x,z
loop_
_atom_site_type_symbol
_atom_site_label
_atom_site_fract_x
_atom_site_fract_y
_atom_site_fract_z
Si Si1 0.341383 0.432585 0.691721
Si Si2 0.354108 0.555893 0.201138
Si Si3 0.304231 0.790855 0.500000
Si Si4 0.143012 0.237532 0.689863
Si Si5 0.379520 0.285288 0.000000
O O1 0.319356 0.418008 0.500000
O O2 0.397482 0.397482 0.735162
O O3 0.357204 0.497797 0.697852
O O4 0.292922 0.417360 0.829297
O O5 0.404590 0.595411 0.268337
O O6 0.294102 0.585252 0.239107
O O7 0.361116 0.544324 0.000000
O O8 0.257140 0.742861 0.500000
O O9 0.343097 0.785069 0.669470
O O10 0.276938 0.852806 0.500000
O O11 0.138135 0.265536 0.500000
O O12 0.191459 0.191459 0.684939
O O13 0.329293 0.329293 0.000000
#
# Coordination Sequence:
#
# PCOD8317984 Si02
#       5
#    16  16   8  16   8
#     4  10  20  31  42  57  79 111 149 182 208 240
#     4   9  17  29  44  60  82 110 139 179 218 246
#     4   9  16  26  44  61  75 101 130 166 211 249
#     4   8  15  26  39  60  82  97 124 166 210 252
#     4   9  18  32  43  56  79 105 141 177 205 245
#
# _framework density 14.534516
#
# number of rings (size 3 to 8) (size 9 to 14) (size 15 to 20)
#    0.000    3.000    1.250    1.500    1.750    2.000 
#    0.000    7.500    0.000    0.000    0.000    0.000 
#    0.000    0.000    0.000    0.000    0.000    3.750 
#
# Total GULP energy -793319.189774 kJ/mol
# GULP energy per Si atom -12395.612340 kJ/mol
# Density = 1.450143 g / cm^3
# Si number density = 14.534516 Si / 1000 Ang^3
#
#
#
# Elastic Constant Matrix: (Units=GPa)
#
#
# Indices 1 2 3 4 5 6 
#
# 1 46.7449 45.6610 43.3366 0.0000 0.0000 0.0000
# 2 45.6610 46.7447 43.3368 0.0000 0.0000 0.0000
# 3 43.3366 43.3368 109.5496 0.0000 0.0000 0.0000
# 4 0.0000 0.0000 0.0000 15.2806 0.0000 0.0000
# 5 0.0000 0.0000 0.0000 0.0000 15.2806 0.0000
# 6 0.0000 0.0000 0.0000 0.0000 0.0000 17.9725
#
#
#
# Elastic Compliance Matrix: (Units=1/GPa)
#
#
# Indices 1 2 3 4 5 6 
#
# 1 0.469934 -0.452730 -0.006805 0.000000 0.000000 0.000000
# 2 -0.452730 0.469938 -0.006808 0.000000 0.000000 0.000000
# 3 -0.006805 -0.006808 0.014514 0.000000 0.000000 0.000000
# 4 0.000000 0.000000 0.000000 0.065443 0.000000 0.000000
# 5 0.000000 0.000000 0.000000 0.000000 0.065442 0.000000
# 6 0.000000 0.000000 0.000000 0.000000 0.000000 0.055641
#
#
# Mechanical properties :
#
#
# Convention : Reuss Voigt Hill
#
# Bulk Modulus (GPa) = 46.08396 51.96754 49.02575
# Shear Modulus (GPa) = 2.40289 14.42038 8.41164
#
# Velocity S-wave (km/s) = 1.28717 3.15325 2.40830
# Velocity P-wave (km/s) = 5.82962 7.00639 6.44492
#
# Compressibility (1/GPa) = 0.02169953
#
# Stress axis : x y z
#
# Youngs Moduli (GPa) = 2.12796 2.12794 68.90123
#
# Poissons Ratio (x) = 0.96338 0.46890
# Poissons Ratio (y) = 0.96339 0.46907
# Poissons Ratio (z) = 0.01448 0.01449
#
# Static dielectric constant tensor:
#      x y z
#    x 2.630920 0.000000 0.000000 
#    y 0.000000 2.630920 0.000000 
#    z 0.000000 0.000000 3.123100 
# 
# 
# High freq. dielectric constant tensor:
#      x y z
#    x 1.514740 0.000000 0.000000 
#    y 0.000000 1.514740 0.000000 
#    z 0.000000 0.000000 1.574670 
# 
# From -- ./inp_files/1441.got.cif
#   From: 2010.03.12/outbox.cif.g09.slc.cpg/sg136_1_cif.got.tgz:1441.got - 2010.04.06 18:39:43.
