data_PCOD8317958
_publ_section_title
;
Structure prediction by ZEFSAII (Michael W. Deem and Ramdas Pophale) SiO2 
 PCOD8317958
Probable space group: P 42/M N M
;
_chemical_formula_sum "Si O2"
_cell_formula_units_Z 80
_cell_length_a 16.329498
_cell_length_b 16.329498
_cell_length_c 15.507271
_cell_angle_alpha 90.000000
_cell_angle_beta 90.000000
_cell_angle_gamma 90.000000
_cell_volume 4135.052657
_symmetry_space_group_name_H-M "P 42/M N M"
_symmetry_group_IT_number 136
_symmetry_cell_setting 'tetragonal'
loop_
_space_group_symop_operation_xyz
x,y,z
1/2-y,1/2+x,1/2+z
-x,-y,z
1/2+y,1/2-x,1/2+z
1/2+x,1/2-y,1/2-z
1/2-x,1/2+y,1/2-z
y,x,-z
-y,-x,-z
-x,-y,-z
1/2+y,1/2-x,1/2-z
x,y,-z
1/2-y,1/2+x,1/2-z
1/2-x,1/2+y,1/2+z
1/2+x,1/2-y,1/2+z
-y,-x,z
y,x,z
loop_
_atom_site_type_symbol
_atom_site_label
_atom_site_fract_x
_atom_site_fract_y
_atom_site_fract_z
Si Si1 0.182942 0.950134 0.092746
Si Si2 0.778874 0.483782 0.097365
Si Si3 0.309074 0.823193 0.846833
Si Si4 0.564186 0.895495 0.221436
Si Si5 0.134939 0.000952 0.730255
O O1 0.097197 0.902804 0.092210
O O2 0.257437 0.886426 0.096686
O O3 0.180370 0.009415 0.176426
O O4 0.191276 0.997388 0.000000
O O5 0.795008 0.386973 0.098172
O O6 0.859417 0.532090 0.130935
O O7 0.701643 0.506594 0.155911
O O8 0.760715 0.511788 0.000000
O O9 0.255767 0.744234 0.821242
O O10 0.336297 0.865844 0.757963
O O11 0.487328 0.899765 0.289378
O O12 0.081237 0.918764 0.726819
O O13 0.081082 0.081082 0.714048
#
# Coordination Sequence:
#
# PCOD8317958 Si02
#       5
#    16  16  16  16  16
#     4   9  17  31  52  77 102 133 180 232 280 328
#     4  11  22  36  57  84 114 150 193 236 285 342
#     4  10  19  34  58  83 111 145 187 238 287 333
#     4   9  19  37  58  80 112 148 189 240 289 336
#     4  10  21  36  53  78 115 154 188 228 282 343
#
# _framework density 19.346791
#
# number of rings (size 3 to 8) (size 9 to 14) (size 15 to 20)
#    0.000    2.200    2.000    1.200    0.000    3.200 
#    0.000   12.000    0.000    0.000    0.000    0.000 
#    0.000    0.000    0.000    0.000    0.000    0.000 
#
# Total GULP energy -991609.289081 kJ/mol
# GULP energy per Si atom -12395.116114 kJ/mol
# Density = 1.930276 g / cm^3
# Si number density = 19.346791 Si / 1000 Ang^3
#
#
#
# Elastic Constant Matrix: (Units=GPa)
#
#
# Indices 1 2 3 4 5 6 
#
# 1 62.5020 16.2024 42.2481 0.0000 0.0000 0.0000
# 2 16.2024 62.5020 42.2481 0.0000 0.0000 0.0000
# 3 42.2481 42.2481 150.1647 0.0000 0.0000 0.0000
# 4 0.0000 0.0000 0.0000 19.6078 0.0000 0.0000
# 5 0.0000 0.0000 0.0000 0.0000 19.6078 0.0000
# 6 0.0000 0.0000 0.0000 0.0000 0.0000 27.0958
#
#
#
# Elastic Compliance Matrix: (Units=1/GPa)
#
#
# Indices 1 2 3 4 5 6 
#
# 1 0.019901 -0.001697 -0.005122 0.000000 0.000000 0.000000
# 2 -0.001697 0.019901 -0.005122 0.000000 0.000000 0.000000
# 3 -0.005122 -0.005122 0.009541 0.000000 0.000000 0.000000
# 4 0.000000 0.000000 0.000000 0.051000 0.000000 0.000000
# 5 0.000000 0.000000 0.000000 0.000000 0.051000 0.000000
# 6 0.000000 0.000000 0.000000 0.000000 0.000000 0.036906
#
#
# Mechanical properties :
#
#
# Convention : Reuss Voigt Hill
#
# Bulk Modulus (GPa) = 39.27238 52.95177 46.11207
# Shear Modulus (GPa) = 22.66353 24.89365 23.77859
#
# Velocity S-wave (km/s) = 3.42634 3.59096 3.50962
# Velocity P-wave (km/s) = 5.99969 6.68001 6.34897
#
# Compressibility (1/GPa) = 0.02546319
#
# Stress axis : x y z
#
# Youngs Moduli (GPa) = 50.24771 50.24771 104.80772
#
# Poissons Ratio (x) = 0.08527 0.53679
# Poissons Ratio (y) = 0.08527 0.53679
# Poissons Ratio (z) = 0.25735 0.25735
#
# Static dielectric constant tensor:
#      x y z
#    x 3.547390 0.000000 0.000000 
#    y 0.000000 3.547390 0.000000 
#    z 0.000000 0.000000 3.448370 
# 
# 
# High freq. dielectric constant tensor:
#      x y z
#    x 1.747620 0.000000 0.000000 
#    y 0.000000 1.747620 0.000000 
#    z 0.000000 0.000000 1.735330 
# 
# From -- ./inp_files/4899.got.cif
#   From: 2010.03.12/outbox.cif.g09.slc.cpg/sg136_3_cif.got.tgz:4899.got - 2010.04.06 18:39:43.
