data_PCOD8317337
_publ_section_title
;
Structure prediction by ZEFSAII (Michael W. Deem and Ramdas Pophale) SiO2 
 PCOD8317337
Probable space group: P 42/N N M
;
_chemical_formula_sum "Si O2"
_cell_formula_units_Z 88
_cell_length_a 12.062162
_cell_length_b 12.062162
_cell_length_c 28.376921
_cell_angle_alpha 90.000000
_cell_angle_beta 90.000000
_cell_angle_gamma 90.000000
_cell_volume 4128.721464
_symmetry_space_group_name_H-M "P 42/N N M"
_symmetry_group_IT_number 134
_space_group.IT_coordinate_system_code '2'
_symmetry_cell_setting 'tetragonal'
loop_
_space_group_symop_operation_xyz
x,y,z
1/2-y,x,1/2+z
1/2-x,1/2-y,z
y,1/2-x,1/2+z
x,1/2-y,1/2-z
1/2-x,y,1/2-z
y,x,-z
1/2-y,1/2-x,-z
-x,-y,-z
1/2+y,-x,1/2-z
1/2+x,1/2+y,-z
-y,1/2+x,1/2-z
-x,1/2+y,1/2+z
1/2+x,-y,1/2+z
-y,-x,z
1/2+y,1/2+x,z
loop_
_atom_site_type_symbol
_atom_site_label
_atom_site_fract_x
_atom_site_fract_y
_atom_site_fract_z
Si Si1 0.912588 0.775739 0.802917
Si Si2 0.453524 0.365848 0.566951
Si Si3 0.839654 0.160347 0.066629
Si Si4 0.838631 0.161370 0.177817
Si Si5 0.783731 0.577481 0.833621
Si Si6 0.735031 0.941326 0.479954
Si Si7 0.750000 0.422440 0.750000
O O1 0.872839 0.750000 0.750000
O O2 0.884332 0.666004 0.832523
O O3 0.838978 0.874031 0.824914
O O4 0.040861 0.806216 0.803279
O O5 0.516230 0.483771 0.570815
O O6 0.473419 0.293754 0.614205
O O7 0.323563 0.380985 0.554296
O O8 0.502994 0.294879 0.523764
O O9 0.750000 0.250000 0.047124
O O10 0.837016 0.162985 0.122315
O O11 0.964319 0.180995 0.051069
O O12 0.750000 0.250000 0.197960
O O13 0.804934 0.489558 0.792634
O O14 0.645845 0.854156 0.500000
O O15 0.847372 0.347372 0.727890
#
# Coordination Sequence:
#
# PCOD8317337 Si02
#       7
#    16  16   8   8  16  16   8
#     4  11  24  42  67  96 134 179 227 285 342 423
#     4  11  23  41  68  98 127 174 226 283 335 408
#     4  11  23  45  65  93 136 178 222 280 343 418
#     4  11  28  43  69 105 139 182 232 291 364 425
#     4  11  23  43  69  97 131 179 233 276 348 410
#     4  11  24  41  67  97 136 176 222 279 344 410
#     4  11  24  43  64  96 136 177 230 289 342 406
#
# _framework density 21.314105999999999
#
# number of rings (size 3 to 8) (size 9 to 14) (size 15 to 20)
#    0.000    1.000    1.818    5.727   10.182    2.909 
#    1.636    0.000    0.000    0.000    0.000    0.000 
#    0.000    0.000    0.000    0.000    0.000    0.000 
#
# Total GULP energy -1091113.607418 kJ/mol
# GULP energy per Si atom -12399.018266 kJ/mol
# Density = 2.126559 g / cm^3
# Si number density = 21.314106 Si / 1000 Ang^3
#
#
#
# Elastic Constant Matrix: (Units=GPa)
#
#
# Indices 1 2 3 4 5 6 
#
# 1 107.6062 40.2341 20.0064 0.0000 0.0000 0.0000
# 2 40.2341 107.6053 20.0060 0.0000 0.0000 0.0000
# 3 20.0064 20.0060 119.6582 0.0000 0.0000 0.0000
# 4 0.0000 0.0000 0.0000 28.8356 0.0000 0.0000
# 5 0.0000 0.0000 0.0000 0.0000 28.8356 0.0000
# 6 0.0000 0.0000 0.0000 0.0000 0.0000 31.9527
#
#
#
# Elastic Compliance Matrix: (Units=1/GPa)
#
#
# Indices 1 2 3 4 5 6 
#
# 1 0.010964 -0.003879 -0.001185 0.000000 0.000000 0.000000
# 2 -0.003879 0.010964 -0.001185 0.000000 0.000000 0.000000
# 3 -0.001185 -0.001185 0.008753 0.000000 0.000000 0.000000
# 4 0.000000 0.000000 0.000000 0.034679 0.000000 0.000000
# 5 0.000000 0.000000 0.000000 0.000000 0.034679 0.000000
# 6 0.000000 0.000000 0.000000 0.000000 0.000000 0.031296
#
#
# Mechanical properties :
#
#
# Convention : Reuss Voigt Hill
#
# Bulk Modulus (GPa) = 54.99196 55.04032 55.01614
# Shear Modulus (GPa) = 33.35694 34.89965 34.12830
#
# Velocity S-wave (km/s) = 3.96032 4.05087 4.00585
# Velocity P-wave (km/s) = 6.83878 6.91078 6.87487
#
# Compressibility (1/GPa) = 0.01818448
#
# Stress axis : x y z
#
# Youngs Moduli (GPa) = 91.20915 91.20849 114.24353
#
# Poissons Ratio (x) = 0.35381 0.13533
# Poissons Ratio (y) = 0.35382 0.13532
# Poissons Ratio (z) = 0.10804 0.10804
#
# Static dielectric constant tensor:
#      x y z
#    x 3.869870 0.000000 0.000000 
#    y 0.000000 3.869860 0.000000 
#    z 0.000000 0.000000 3.938310 
# 
# 
# High freq. dielectric constant tensor:
#      x y z
#    x 1.833850 0.000000 0.000000 
#    y 0.000000 1.833850 0.000000 
#    z 0.000000 0.000000 1.848030 
# 
# From -- ./inp_files/11486.got.cif
#   From: 2010.03.12/outbox.cif.g09.slc.cpg/sg134_6_cif.got.tgz:11486.got - 2010.04.06 18:17:22.
