data_PCOD8317783
_publ_section_title
;
Structure prediction by ZEFSAII (Michael W. Deem and Ramdas Pophale) SiO2 
 PCOD8317783
Probable space group: P 42/M N M
;
_chemical_formula_sum "Si O2"
_cell_formula_units_Z 96
_cell_length_a 23.692424
_cell_length_b 23.692424
_cell_length_c 9.144161
_cell_angle_alpha 90.000000
_cell_angle_beta 90.000000
_cell_angle_gamma 90.000000
_cell_volume 5132.900627
_symmetry_space_group_name_H-M "P 42/M N M"
_symmetry_group_IT_number 136
_symmetry_cell_setting 'tetragonal'
loop_
_space_group_symop_operation_xyz
x,y,z
1/2-y,1/2+x,1/2+z
-x,-y,z
1/2+y,1/2-x,1/2+z
1/2+x,1/2-y,1/2-z
1/2-x,1/2+y,1/2-z
y,x,-z
-y,-x,-z
-x,-y,-z
1/2+y,1/2-x,1/2-z
x,y,-z
1/2-y,1/2+x,1/2-z
1/2-x,1/2+y,1/2+z
1/2+x,1/2-y,1/2+z
-y,-x,z
y,x,z
loop_
_atom_site_type_symbol
_atom_site_label
_atom_site_fract_x
_atom_site_fract_y
_atom_site_fract_z
Si Si1 0.767433 0.632411 0.664887
Si Si2 0.135910 0.423992 0.171341
Si Si3 0.457378 0.711416 0.325194
Si Si4 0.964635 0.658589 0.172683
Si Si5 0.342321 0.657680 0.672560
Si Si6 0.762710 0.762710 0.664295
Si Si7 0.930313 0.155326 0.830815
O O1 0.785790 0.614782 0.500000
O O2 0.803175 0.598569 0.782706
O O3 0.776366 0.697922 0.691284
O O4 0.702571 0.617305 0.689740
O O5 0.090047 0.377355 0.218739
O O6 0.126320 0.483178 0.252657
O O7 0.134315 0.435341 0.000000
O O8 0.458650 0.712297 0.500000
O O9 0.457963 0.776594 0.270256
O O10 0.402755 0.677908 0.264782
O O11 0.510950 0.676696 0.259454
O O12 0.974051 0.658116 0.000000
O O13 0.345468 0.654533 0.500000
O O14 0.296474 0.703527 0.715159
O O15 0.780411 0.780411 0.500000
O O16 0.902807 0.097194 0.763597
O O17 0.942596 0.144045 0.000000
#
# Coordination Sequence:
#
# PCOD8317783 Si02
#       7
#    16  16  16  16   8   8  16
#     4  10  18  32  54  77 106 141 177 221 275 331
#     4  11  23  36  54  81 106 138 186 231 272 323
#     4   9  17  32  54  77 106 145 180 215 270 330
#     4  10  21  38  56  73 104 147 182 218 275 335
#     4  10  20  34  53  78 110 148 183 223 277 327
#     4  10  20  32  52  83 109 138 182 227 273 332
#     4   9  15  27  52  81 104 136 179 217 261 323
#
# _framework density 18.702876
#
# number of rings (size 3 to 8) (size 9 to 14) (size 15 to 20)
#    0.000    2.167    2.500    1.500    0.000    3.667 
#    0.000    2.917    0.000    2.500    0.000    0.000 
#    0.000    0.667    0.000    0.000    0.000    0.000 
#
# Total GULP energy -1189902.417718 kJ/mol
# GULP energy per Si atom -12394.816851 kJ/mol
# Density = 1.866031 g / cm^3
# Si number density = 18.702876 Si / 1000 Ang^3
#
#
#
# Elastic Constant Matrix: (Units=GPa)
#
#
# Indices 1 2 3 4 5 6 
#
# 1 70.2737 103.8025 21.4574 0.0000 0.0000 0.0000
# 2 103.8025 70.2735 21.4576 0.0000 0.0000 0.0000
# 3 21.4574 21.4576 20.0203 0.0000 0.0000 0.0000
# 4 0.0000 0.0000 0.0000 21.2508 0.0000 0.0000
# 5 0.0000 0.0000 0.0000 0.0000 21.2508 0.0000
# 6 0.0000 0.0000 0.0000 0.0000 0.0000 38.1457
#
#
#
# Elastic Compliance Matrix: (Units=1/GPa)
#
#
# Indices 1 2 3 4 5 6 
#
# 1 -0.011009 0.018816 -0.008368 0.000000 0.000000 0.000000
# 2 0.018816 -0.011009 -0.008368 0.000000 0.000000 0.000000
# 3 -0.008368 -0.008368 0.067887 0.000000 0.000000 0.000000
# 4 0.000000 0.000000 0.000000 0.047057 0.000000 0.000000
# 5 0.000000 0.000000 0.000000 0.000000 0.047057 0.000000
# 6 0.000000 0.000000 0.000000 0.000000 0.000000 0.026215
#
#
# Mechanical properties :
#
#
# Convention : Reuss Voigt Hill
#
# Bulk Modulus (GPa) = 19.98809 50.44471 35.21640
# Shear Modulus (GPa) = 27.97749 17.05280 22.51515
#
# Velocity S-wave (km/s) = 3.87187 3.02284 3.47339
# Velocity P-wave (km/s) = 5.54066 6.26207 5.91238
#
# Compressibility (1/GPa) = 0.05002978
#
# Stress axis : x y z
#
# Youngs Moduli (GPa) = -90.83781 -90.83671 14.73038
#
# Poissons Ratio (x) = 1.70921 0.12327
# Poissons Ratio (y) = 1.70923 0.12326
# Poissons Ratio (z) = -0.76015 -0.76011
#
# Static dielectric constant tensor:
#      x y z
#    x 3.660680 0.000000 0.000000 
#    y 0.000000 3.660680 0.000000 
#    z 0.000000 0.000000 3.030660 
# 
# 
# High freq. dielectric constant tensor:
#      x y z
#    x 1.732330 0.000000 0.000000 
#    y 0.000000 1.732330 0.000000 
#    z 0.000000 0.000000 1.678270 
# 
# From -- ./inp_files/2078.got.cif
#   From: 2010.03.12/outbox.cif.g09.slc.cpg/sg136_2_cif.got.tgz:2078.got - 2010.04.06 18:39:43.
