data_PCOD8317834
_publ_section_title
;
Structure prediction by ZEFSAII (Michael W. Deem and Ramdas Pophale) SiO2 
 PCOD8317834
Probable space group: P 42/M N M
;
_chemical_formula_sum "Si O2"
_cell_formula_units_Z 64
_cell_length_a 13.221649
_cell_length_b 13.221649
_cell_length_c 19.135828
_cell_angle_alpha 90.000000
_cell_angle_beta 90.000000
_cell_angle_gamma 90.000000
_cell_volume 3345.172408
_symmetry_space_group_name_H-M "P 42/M N M"
_symmetry_group_IT_number 136
_symmetry_cell_setting 'tetragonal'
loop_
_space_group_symop_operation_xyz
x,y,z
1/2-y,1/2+x,1/2+z
-x,-y,z
1/2+y,1/2-x,1/2+z
1/2+x,1/2-y,1/2-z
1/2-x,1/2+y,1/2-z
y,x,-z
-y,-x,-z
-x,-y,-z
1/2+y,1/2-x,1/2-z
x,y,-z
1/2-y,1/2+x,1/2-z
1/2-x,1/2+y,1/2+z
1/2+x,1/2-y,1/2+z
-y,-x,z
y,x,z
loop_
_atom_site_type_symbol
_atom_site_label
_atom_site_fract_x
_atom_site_fract_y
_atom_site_fract_z
Si Si1 0.752969 0.583960 0.000000
Si Si2 0.379943 0.785810 0.761096
Si Si3 0.382625 0.021132 0.000000
Si Si4 0.018855 0.620003 0.848395
Si Si5 0.163010 0.999569 0.368107
O O1 0.859571 0.639747 0.000000
O O2 0.743425 0.515152 0.930676
O O3 0.663786 0.663786 0.000000
O O4 0.281197 0.718804 0.745533
O O5 0.423173 0.826240 0.688010
O O6 0.347962 0.878380 0.810604
O O7 0.467402 0.721080 0.798605
O O8 0.500000 0.000000 0.000000
O O9 0.338551 0.973989 0.071696
O O10 0.000000 0.500000 0.843853
O O11 0.085476 0.085476 0.393420
O O12 0.103911 0.896090 0.350368
#
# Coordination Sequence:
#
# PCOD8317834 Si02
#       5
#     8  16   8  16  16
#     4  10  19  30  52  84 113 148 186 231 291 348
#     4  11  22  36  60  86 112 155 198 239 293 347
#     4  10  22  35  56  77 108 149 186 228 284 348
#     4  11  21  41  58  82 118 151 188 240 292 345
#     4   9  18  32  50  79 117 150 185 232 286 343
#
# _framework density 19.132047
#
# number of rings (size 3 to 8) (size 9 to 14) (size 15 to 20)
#    0.000    1.750    2.500    3.375    0.000    3.500 
#    0.000    1.875    0.000    0.000    0.000    0.000 
#    0.000    7.000    0.000    0.000    0.000    0.000 
#
# Total GULP energy -793624.256319 kJ/mol
# GULP energy per Si atom -12400.379005 kJ/mol
# Density = 1.908850 g / cm^3
# Si number density = 19.132047 Si / 1000 Ang^3
#
#
#
# Elastic Constant Matrix: (Units=GPa)
#
#
# Indices 1 2 3 4 5 6 
#
# 1 81.5092 23.6644 46.2505 0.0000 0.0000 0.0000
# 2 23.6644 81.5092 46.2505 0.0000 0.0000 0.0000
# 3 46.2505 46.2505 154.7668 0.0000 0.0000 0.0000
# 4 0.0000 0.0000 0.0000 14.9442 0.0000 0.0000
# 5 0.0000 0.0000 0.0000 0.0000 14.9442 0.0000
# 6 0.0000 0.0000 0.0000 0.0000 0.0000 29.2727
#
#
#
# Elastic Compliance Matrix: (Units=1/GPa)
#
#
# Indices 1 2 3 4 5 6 
#
# 1 0.015093 -0.002195 -0.003854 0.000000 0.000000 0.000000
# 2 -0.002195 0.015093 -0.003854 0.000000 0.000000 0.000000
# 3 -0.003854 -0.003854 0.008765 0.000000 0.000000 0.000000
# 4 0.000000 0.000000 0.000000 0.066916 0.000000 0.000000
# 5 0.000000 0.000000 0.000000 0.000000 0.066916 0.000000
# 6 0.000000 0.000000 0.000000 0.000000 0.000000 0.034161
#
#
# Mechanical properties :
#
#
# Convention : Reuss Voigt Hill
#
# Bulk Modulus (GPa) = 52.23719 61.12397 56.68058
# Shear Modulus (GPa) = 21.44706 25.27354 23.36030
#
# Velocity S-wave (km/s) = 3.35177 3.63851 3.49808
# Velocity P-wave (km/s) = 6.50707 7.04766 6.78275
#
# Compressibility (1/GPa) = 0.01914345
#
# Stress axis : x y z
#
# Youngs Moduli (GPa) = 66.25637 66.25637 114.08918
#
# Poissons Ratio (x) = 0.14542 0.43975
# Poissons Ratio (y) = 0.14542 0.43975
# Poissons Ratio (z) = 0.25538 0.25538
#
# Static dielectric constant tensor:
#      x y z
#    x 3.093970 0.000000 0.000000 
#    y 0.000000 3.093970 0.000000 
#    z 0.000000 0.000000 3.895090 
# 
# 
# High freq. dielectric constant tensor:
#      x y z
#    x 1.730610 0.000000 0.000000 
#    y 0.000000 1.730610 0.000000 
#    z 0.000000 0.000000 1.753060 
# 
# From -- ./inp_files/5984.got.cif
#   From: 2010.03.12/outbox.cif.g09.slc.cpg/sg136_3_cif.got.tgz:5984.got - 2010.04.06 18:39:43.
