data_PCOD8317097
_publ_section_title
;
Structure prediction by ZEFSAII (Michael W. Deem and Ramdas Pophale) SiO2 
 PCOD8317097
Probable space group: P 42/N N M
;
_chemical_formula_sum "Si O2"
_cell_formula_units_Z 128
_cell_length_a 18.588075
_cell_length_b 18.588075
_cell_length_c 22.436475
_cell_angle_alpha 90.000000
_cell_angle_beta 90.000000
_cell_angle_gamma 90.000000
_cell_volume 7752.173037
_symmetry_space_group_name_H-M "P 42/N N M"
_symmetry_group_IT_number 134
_space_group.IT_coordinate_system_code '2'
_symmetry_cell_setting 'tetragonal'
loop_
_space_group_symop_operation_xyz
x,y,z
1/2-y,x,1/2+z
1/2-x,1/2-y,z
y,1/2-x,1/2+z
x,1/2-y,1/2-z
1/2-x,y,1/2-z
y,x,-z
1/2-y,1/2-x,-z
-x,-y,-z
1/2+y,-x,1/2-z
1/2+x,1/2+y,-z
-y,1/2+x,1/2-z
-x,1/2+y,1/2+z
1/2+x,-y,1/2+z
-y,-x,z
1/2+y,1/2+x,z
loop_
_atom_site_type_symbol
_atom_site_label
_atom_site_fract_x
_atom_site_fract_y
_atom_site_fract_z
Si Si1 0.574626 0.545858 0.891010
Si Si2 0.449999 0.835087 0.058882
Si Si3 0.456015 0.427116 0.637358
Si Si4 0.184884 0.564778 0.704804
Si Si5 0.058289 0.675055 0.457506
Si Si6 0.337682 0.430534 0.538778
Si Si7 0.305586 0.491043 0.919939
Si Si8 0.548727 0.930939 0.736283
O O1 0.503588 0.496413 0.893917
O O2 0.639410 0.512488 0.928481
O O3 0.554697 0.622005 0.918761
O O4 0.598612 0.560646 0.822447
O O5 0.375356 0.875356 0.047549
O O6 0.490413 0.864421 0.117101
O O7 0.431762 0.752535 0.072155
O O8 0.499453 0.849687 0.001649
O O9 0.496181 0.503820 0.637534
O O10 0.388022 0.435984 0.595480
O O11 0.427394 0.404962 0.703154
O O12 0.250000 0.582797 0.750000
O O13 0.136312 0.636312 0.696335
O O14 0.211976 0.536269 0.640141
O O15 0.139513 0.500696 0.733654
O O16 0.128109 0.628109 0.442706
O O17 0.049699 0.684908 0.528068
O O18 0.358689 0.358689 0.500000
O O19 0.256158 0.432593 0.563294
O O20 0.502003 0.002003 0.739417
#
# Coordination Sequence:
#
# PCOD8317097 Si02
#       8
#    16  16  16  16  16  16  16  16
#     4   9  17  30  48  69  91 117 153 198 242 283
#     4   9  18  30  45  67  93 120 151 188 232 284
#     4   9  15  27  47  66  88 120 154 190 232 279
#     4  10  19  30  44  66  97 132 168 202 236 278
#     4  10  19  31  48  68  92 122 156 196 240 283
#     4   9  17  28  45  70  96 123 158 198 241 285
#     4  10  18  30  49  70  94 123 162 202 237 280
#     4   8  15  27  44  66  87 110 150 198 236 274
#
# _framework density 16.511500000000002
#
# number of rings (size 3 to 8) (size 9 to 14) (size 15 to 20)
#    0.000    2.750    0.000    3.375    0.000    2.875 
#    0.000    3.125    0.000   15.750    0.000    0.000 
#    0.000   12.000    0.000    0.000    0.000    0.000 
#
# Total GULP energy -1586430.389070 kJ/mol
# GULP energy per Si atom -12393.987415 kJ/mol
# Density = 1.647392 g / cm^3
# Si number density = 16.511500 Si / 1000 Ang^3
#
#
#
# Elastic Constant Matrix: (Units=GPa)
#
#
# Indices 1 2 3 4 5 6 
#
# 1 94.8597 41.9203 38.5225 0.0000 0.0000 0.0000
# 2 41.9203 94.8597 38.5225 0.0000 0.0000 0.0000
# 3 38.5225 38.5225 96.4656 0.0000 0.0000 0.0000
# 4 0.0000 0.0000 0.0000 22.3044 0.0000 0.0000
# 5 0.0000 0.0000 0.0000 0.0000 22.3044 0.0000
# 6 0.0000 0.0000 0.0000 0.0000 0.0000 14.8550
#
#
#
# Elastic Compliance Matrix: (Units=1/GPa)
#
#
# Indices 1 2 3 4 5 6 
#
# 1 0.014161 -0.004728 -0.003767 0.000000 0.000000 0.000000
# 2 -0.004728 0.014161 -0.003767 0.000000 0.000000 0.000000
# 3 -0.003767 -0.003767 0.013375 0.000000 0.000000 0.000000
# 4 0.000000 0.000000 0.000000 0.044834 0.000000 0.000000
# 5 0.000000 0.000000 0.000000 0.000000 0.044834 0.000000
# 6 0.000000 0.000000 0.000000 0.000000 0.000000 0.067317
#
#
# Mechanical properties :
#
#
# Convention : Reuss Voigt Hill
#
# Bulk Modulus (GPa) = 58.23097 58.23504 58.23301
# Shear Modulus (GPa) = 21.84060 23.04075 22.44068
#
# Velocity S-wave (km/s) = 3.64091 3.73961 3.69059
# Velocity P-wave (km/s) = 7.28138 7.34794 7.31473
#
# Compressibility (1/GPa) = 0.01717299
#
# Stress axis : x y z
#
# Youngs Moduli (GPa) = 70.61562 70.61562 74.76677
#
# Poissons Ratio (x) = 0.33390 0.28164
# Poissons Ratio (y) = 0.33390 0.28164
# Poissons Ratio (z) = 0.26600 0.26600
#
# Static dielectric constant tensor:
#      x y z
#    x 2.991350 0.000000 0.000000 
#    y 0.000000 2.991350 0.000000 
#    z 0.000000 0.000000 3.498830 
# 
# 
# High freq. dielectric constant tensor:
#      x y z
#    x 1.616680 0.000000 0.000000 
#    y 0.000000 1.616680 0.000000 
#    z 0.000000 0.000000 1.648830 
# 
# From -- ./inp_files/10314.got.cif
#   From: 2010.03.12/outbox.cif.g09.slc.cpg/sg134_6_cif.got.tgz:10314.got - 2010.04.06 18:17:22.
