data_PCOD8317255
_publ_section_title
;
Structure prediction by ZEFSAII (Michael W. Deem and Ramdas Pophale) SiO2 
 PCOD8317255
Probable space group: P 42/N N M
;
_chemical_formula_sum "Si O2"
_cell_formula_units_Z 64
_cell_length_a 11.389576
_cell_length_b 11.389576
_cell_length_c 21.825346
_cell_angle_alpha 90.000000
_cell_angle_beta 90.000000
_cell_angle_gamma 90.000000
_cell_volume 2831.237169
_symmetry_space_group_name_H-M "P 42/N N M"
_symmetry_group_IT_number 134
_space_group.IT_coordinate_system_code '2'
_symmetry_cell_setting 'tetragonal'
loop_
_space_group_symop_operation_xyz
x,y,z
1/2-y,x,1/2+z
1/2-x,1/2-y,z
y,1/2-x,1/2+z
x,1/2-y,1/2-z
1/2-x,y,1/2-z
y,x,-z
1/2-y,1/2-x,-z
-x,-y,-z
1/2+y,-x,1/2-z
1/2+x,1/2+y,-z
-y,1/2+x,1/2-z
-x,1/2+y,1/2+z
1/2+x,-y,1/2+z
-y,-x,z
1/2+y,1/2+x,z
loop_
_atom_site_type_symbol
_atom_site_label
_atom_site_fract_x
_atom_site_fract_y
_atom_site_fract_z
Si Si1 0.189967 0.996156 0.489087
Si Si2 0.306462 0.509582 0.886824
Si Si3 0.364600 0.052352 0.793055
Si Si4 0.766926 0.617244 0.627941
O O1 0.133771 0.866230 0.490677
O O2 0.291985 0.005589 0.540007
O O3 0.243678 0.017812 0.422196
O O4 0.092181 0.092181 0.500000
O O5 0.368095 0.631906 0.871310
O O6 0.177359 0.508342 0.856619
O O7 0.387204 0.405632 0.856363
O O8 0.250000 0.052938 0.750000
O O9 0.403564 0.185889 0.811275
O O10 0.474248 0.974248 0.767747
O O11 0.750000 0.750000 0.601290
#
# Coordination Sequence:
#
# PCOD8317255 Si02
#       4
#    16  16  16  16
#     4  11  20  34  57  85 119 162 205 247 304 366
#     4  11  24  38  58  91 128 163 205 257 314 374
#     4  11  23  40  63  89 120 158 203 257 315 373
#     4  10  21  36  59  84 118 162 205 246 297 372
#
# _framework density 22.604959000000001
#
# number of rings (size 3 to 8) (size 9 to 14) (size 15 to 20)
#    0.000    1.250    5.000    3.000    0.000    9.750 
#    0.000    0.000    0.000    2.250    0.000    0.000 
#    0.000   20.000    0.000    0.000    0.000    0.000 
#
# Total GULP energy -793052.469550 kJ/mol
# GULP energy per Si atom -12391.444837 kJ/mol
# Density = 2.255351 g / cm^3
# Si number density = 22.604959 Si / 1000 Ang^3
#
#
#
# Elastic Constant Matrix: (Units=GPa)
#
#
# Indices 1 2 3 4 5 6 
#
# 1 62.4562 38.3866 18.3196 0.0000 0.0000 0.0000
# 2 38.3866 62.4562 18.3196 0.0000 0.0000 0.0000
# 3 18.3196 18.3196 76.7406 0.0000 0.0000 0.0000
# 4 0.0000 0.0000 0.0000 27.5110 0.0000 0.0000
# 5 0.0000 0.0000 0.0000 0.0000 27.5110 0.0000
# 6 0.0000 0.0000 0.0000 0.0000 0.0000 31.6351
#
#
#
# Elastic Compliance Matrix: (Units=1/GPa)
#
#
# Indices 1 2 3 4 5 6 
#
# 1 0.026202 -0.015344 -0.002592 0.000000 0.000000 0.000000
# 2 -0.015344 0.026202 -0.002592 0.000000 0.000000 0.000000
# 3 -0.002592 -0.002592 0.014268 0.000000 0.000000 0.000000
# 4 0.000000 0.000000 0.000000 0.036349 0.000000 0.000000
# 5 0.000000 0.000000 0.000000 0.000000 0.036349 0.000000
# 6 0.000000 0.000000 0.000000 0.000000 0.000000 0.031610
#
#
# Mechanical properties :
#
#
# Convention : Reuss Voigt Hill
#
# Bulk Modulus (GPa) = 39.03724 39.07829 39.05776
# Shear Modulus (GPa) = 22.66785 25.77324 24.22054
#
# Velocity S-wave (km/s) = 3.17011 3.38029 3.27688
# Velocity P-wave (km/s) = 5.54132 5.70615 5.62434
#
# Compressibility (1/GPa) = 0.02561656
#
# Stress axis : x y z
#
# Youngs Moduli (GPa) = 38.16469 38.16469 70.08457
#
# Poissons Ratio (x) = 0.58560 0.18167
# Poissons Ratio (y) = 0.58560 0.18167
# Poissons Ratio (z) = 0.09893 0.09893
#
# Static dielectric constant tensor:
#      x y z
#    x 4.108250 0.000000 0.000000 
#    y 0.000000 4.108250 0.000000 
#    z 0.000000 0.000000 4.336450 
# 
# 
# High freq. dielectric constant tensor:
#      x y z
#    x 1.870770 0.000000 0.000000 
#    y 0.000000 1.870770 0.000000 
#    z 0.000000 0.000000 1.887770 
# 
# From -- ./inp_files/8680.got.cif
#   From: 2010.03.12/outbox.cif.g09.slc.cpg/sg134_5_cif.got.tgz:8680.got - 2010.04.06 18:17:22.
