data_PCOD8317206
_publ_section_title
;
Structure prediction by ZEFSAII (Michael W. Deem and Ramdas Pophale) SiO2 
 PCOD8317206
Probable space group: P 42/N N M
;
_chemical_formula_sum "Si O2"
_cell_formula_units_Z 80
_cell_length_a 14.240442
_cell_length_b 14.240442
_cell_length_c 21.643456
_cell_angle_alpha 90.000000
_cell_angle_beta 90.000000
_cell_angle_gamma 90.000000
_cell_volume 4389.080519
_symmetry_space_group_name_H-M "P 42/N N M"
_symmetry_group_IT_number 134
_space_group.IT_coordinate_system_code '2'
_symmetry_cell_setting 'tetragonal'
loop_
_space_group_symop_operation_xyz
x,y,z
1/2-y,x,1/2+z
1/2-x,1/2-y,z
y,1/2-x,1/2+z
x,1/2-y,1/2-z
1/2-x,y,1/2-z
y,x,-z
1/2-y,1/2-x,-z
-x,-y,-z
1/2+y,-x,1/2-z
1/2+x,1/2+y,-z
-y,1/2+x,1/2-z
-x,1/2+y,1/2+z
1/2+x,-y,1/2+z
-y,-x,z
1/2+y,1/2+x,z
loop_
_atom_site_type_symbol
_atom_site_label
_atom_site_fract_x
_atom_site_fract_y
_atom_site_fract_z
Si Si1 0.678378 0.472553 0.836424
Si Si2 0.489318 0.145085 0.526377
Si Si3 0.403560 0.747713 0.569165
Si Si4 0.527196 0.880298 0.208480
Si Si5 0.177891 0.980289 0.694040
O O1 0.635074 0.364926 0.839024
O O2 0.666092 0.523919 0.901541
O O3 0.623607 0.528763 0.783200
O O4 0.787588 0.481527 0.820762
O O5 0.389015 0.110986 0.500000
O O6 0.525589 0.235270 0.488077
O O7 0.564395 0.064395 0.515951
O O8 0.344947 0.655054 0.551952
O O9 0.335260 0.835260 0.581093
O O10 0.463673 0.733633 0.630868
O O11 0.459490 0.959490 0.182771
O O12 0.631478 0.914722 0.189326
O O13 0.250000 0.976589 0.750000
O O14 0.099753 0.900248 0.705592
#
# Coordination Sequence:
#
# PCOD8317206 Si02
#       5
#    16  16  16  16  16
#     4   9  18  34  54  76 103 136 175 222 268 314
#     4   9  18  31  53  79 104 138 179 220 267 319
#     4   9  18  32  50  77 108 135 174 221 263 316
#     4   9  19  34  53  79 107 135 176 219 263 320
#     4  10  20  33  53  78 107 143 177 218 271 321
#
# _framework density 18.227053000000002
#
# number of rings (size 3 to 8) (size 9 to 14) (size 15 to 20)
#    0.000    2.800    0.000    0.600    2.800    2.200 
#    0.000    7.000    0.000    4.800    0.000    0.000 
#    0.000    0.000    0.000    0.000    0.000    0.000 
#
# Total GULP energy -991129.150927 kJ/mol
# GULP energy per Si atom -12389.114387 kJ/mol
# Density = 1.818557 g / cm^3
# Si number density = 18.227053 Si / 1000 Ang^3
#
#
#
# Elastic Constant Matrix: (Units=GPa)
#
#
# Indices 1 2 3 4 5 6 
#
# 1 68.5387 42.0772 50.6691 0.0000 0.0000 0.0000
# 2 42.0772 68.5383 50.6686 0.0000 0.0000 0.0000
# 3 50.6691 50.6686 134.1117 0.0000 0.0000 0.0000
# 4 0.0000 0.0000 0.0000 18.5557 0.0000 0.0000
# 5 0.0000 0.0000 0.0000 0.0000 18.5561 0.0000
# 6 0.0000 0.0000 0.0000 0.0000 0.0000 24.9331
#
#
#
# Elastic Compliance Matrix: (Units=1/GPa)
#
#
# Indices 1 2 3 4 5 6 
#
# 1 0.025808 -0.011983 -0.005224 0.000000 0.000000 0.000000
# 2 -0.011983 0.025808 -0.005223 0.000000 0.000000 0.000000
# 3 -0.005224 -0.005223 0.011403 0.000000 0.000000 0.000000
# 4 0.000000 0.000000 0.000000 0.053892 0.000000 0.000000
# 5 0.000000 0.000000 0.000000 0.000000 0.053891 0.000000
# 6 0.000000 0.000000 0.000000 0.000000 0.000000 0.040107
#
#
# Mechanical properties :
#
#
# Convention : Reuss Voigt Hill
#
# Bulk Modulus (GPa) = 55.06352 62.00207 58.53279
# Shear Modulus (GPa) = 19.09688 20.92723 20.01205
#
# Velocity S-wave (km/s) = 3.24036 3.39210 3.31710
# Velocity P-wave (km/s) = 6.65397 7.03080 6.84498
#
# Compressibility (1/GPa) = 0.01816084
#
# Stress axis : x y z
#
# Youngs Moduli (GPa) = 38.74720 38.74712 87.69264
#
# Poissons Ratio (x) = 0.46429 0.45807
# Poissons Ratio (y) = 0.46429 0.45806
# Poissons Ratio (z) = 0.20240 0.20239
#
# Static dielectric constant tensor:
#      x y z
#    x 3.383990 0.000000 0.000000 
#    y 0.000000 3.384000 0.000000 
#    z 0.000000 0.000000 3.491330 
# 
# 
# High freq. dielectric constant tensor:
#      x y z
#    x 1.689370 0.000000 0.000000 
#    y 0.000000 1.689370 0.000000 
#    z 0.000000 0.000000 1.712300 
# 
# From -- ./inp_files/8853.got.cif
#   From: 2010.03.12/outbox.cif.g09.slc.cpg/sg134_5_cif.got.tgz:8853.got - 2010.04.06 18:17:22.
