data_PCOD8317568
_publ_section_title
;
Structure prediction by ZEFSAII (Michael W. Deem and Ramdas Pophale) SiO2 
 PCOD8317568
Probable space group: P 42/M B C
;
_chemical_formula_sum "Si O2"
_cell_formula_units_Z 48
_cell_length_a 11.721990
_cell_length_b 11.721990
_cell_length_c 15.994157
_cell_angle_alpha 90.000000
_cell_angle_beta 90.000000
_cell_angle_gamma 90.000000
_cell_volume 2197.677935
_symmetry_space_group_name_H-M "P 42/M B C"
_symmetry_group_IT_number 135
_symmetry_cell_setting 'tetragonal'
loop_
_space_group_symop_operation_xyz
x,y,z
-y,x,1/2+z
-x,-y,z
y,-x,1/2+z
1/2+x,1/2-y,-z
1/2-x,1/2+y,-z
1/2+y,1/2+x,1/2-z
1/2-y,1/2-x,1/2-z
-x,-y,-z
y,-x,1/2-z
x,y,-z
-y,x,1/2-z
1/2-x,1/2+y,z
1/2+x,1/2-y,z
1/2-y,1/2-x,1/2+z
1/2+y,1/2+x,1/2+z
loop_
_atom_site_type_symbol
_atom_site_label
_atom_site_fract_x
_atom_site_fract_y
_atom_site_fract_z
Si Si1 0.841274 0.450593 0.906654
Si Si2 0.445710 0.846287 0.835475
Si Si3 0.914153 0.900492 0.098243
O O1 0.877510 0.584184 0.907389
O O2 0.711497 0.441897 0.877242
O O3 0.920545 0.380636 0.841845
O O4 0.855651 0.400653 0.000000
O O5 0.388003 0.888003 0.750000
O O6 0.438097 0.711699 0.847705
O O7 0.928003 0.873946 0.000000
O O8 0.000000 0.000000 0.126414
#
# Coordination Sequence:
#
# PCOD8317568 Si02
#       3
#    16  16  16
#     4  10  21  40  67  93 126 177 232 284 335 400
#     4  11  23  40  65  94 136 176 222 281 351 414
#     4  10  23  42  68 101 134 177 235 289 340 404
#
# _framework density 21.841232999999999
#
# number of rings (size 3 to 8) (size 9 to 14) (size 15 to 20)
#    0.000    1.667    0.000    6.000    4.667    2.667 
#    0.000    0.000    0.000    0.000    0.000    0.000 
#    0.000    0.000    0.000    0.000    0.000    0.000 
#
# Total GULP energy -595049.837074 kJ/mol
# GULP energy per Si atom -12396.871606 kJ/mol
# Density = 2.179152 g / cm^3
# Si number density = 21.841233 Si / 1000 Ang^3
#
#
#
# Elastic Constant Matrix: (Units=GPa)
#
#
# Indices 1 2 3 4 5 6 
#
# 1 200.6096 89.8268 51.6211 0.0000 0.0000 0.0000
# 2 89.8268 200.6096 51.6211 0.0000 0.0000 0.0000
# 3 51.6211 51.6211 83.9288 0.0000 0.0000 0.0000
# 4 0.0000 0.0000 0.0000 27.1401 0.0000 0.0000
# 5 0.0000 0.0000 0.0000 0.0000 27.1401 0.0000
# 6 0.0000 0.0000 0.0000 0.0000 0.0000 20.8485
#
#
#
# Elastic Compliance Matrix: (Units=1/GPa)
#
#
# Indices 1 2 3 4 5 6 
#
# 1 0.006717 -0.002310 -0.002710 0.000000 0.000000 0.000000
# 2 -0.002310 0.006717 -0.002710 0.000000 0.000000 0.000000
# 3 -0.002710 -0.002710 0.015249 0.000000 0.000000 0.000000
# 4 0.000000 0.000000 0.000000 0.036846 0.000000 0.000000
# 5 0.000000 0.000000 0.000000 0.000000 0.036846 0.000000
# 6 0.000000 0.000000 0.000000 0.000000 0.000000 0.047965
#
#
# Mechanical properties :
#
#
# Convention : Reuss Voigt Hill
#
# Bulk Modulus (GPa) = 75.63852 96.80953 86.22402
# Shear Modulus (GPa) = 29.37602 34.49768 31.93685
#
# Velocity S-wave (km/s) = 3.67138 3.97857 3.82806
# Velocity P-wave (km/s) = 7.25798 8.09480 7.68778
#
# Compressibility (1/GPa) = 0.01322078
#
# Stress axis : x y z
#
# Youngs Moduli (GPa) = 148.88495 148.88495 65.57898
#
# Poissons Ratio (x) = 0.34394 0.17774
# Poissons Ratio (y) = 0.34394 0.17774
# Poissons Ratio (z) = 0.40352 0.40352
#
# Static dielectric constant tensor:
#      x y z
#    x 3.986740 0.000000 0.000000 
#    y 0.000000 3.986740 0.000000 
#    z 0.000000 0.000000 3.950210 
# 
# 
# High freq. dielectric constant tensor:
#      x y z
#    x 1.859330 0.000000 0.000000 
#    y 0.000000 1.859330 0.000000 
#    z 0.000000 0.000000 1.852870 
# 
# From -- ./inp_files/4003.got.cif
#   From: 2010.03.12/outbox.cif.g09.slc.cpg/sg135_3_cif.got.tgz:4003.got - 2010.04.06 18:31:24.
