data_PCOD8317776
_publ_section_title
;
Structure prediction by ZEFSAII (Michael W. Deem and Ramdas Pophale) SiO2 
 PCOD8317776
Probable space group: P 42/M N M
;
_chemical_formula_sum "Si O2"
_cell_formula_units_Z 128
_cell_length_a 17.209664
_cell_length_b 17.209664
_cell_length_c 23.395677
_cell_angle_alpha 90.000000
_cell_angle_beta 90.000000
_cell_angle_gamma 90.000000
_cell_volume 6929.156965
_symmetry_space_group_name_H-M "P 42/M N M"
_symmetry_group_IT_number 136
_symmetry_cell_setting 'tetragonal'
loop_
_space_group_symop_operation_xyz
x,y,z
1/2-y,1/2+x,1/2+z
-x,-y,z
1/2+y,1/2-x,1/2+z
1/2+x,1/2-y,1/2-z
1/2-x,1/2+y,1/2-z
y,x,-z
-y,-x,-z
-x,-y,-z
1/2+y,1/2-x,1/2-z
x,y,-z
1/2-y,1/2+x,1/2-z
1/2-x,1/2+y,1/2+z
1/2+x,1/2-y,1/2+z
-y,-x,z
y,x,z
loop_
_atom_site_type_symbol
_atom_site_label
_atom_site_fract_x
_atom_site_fract_y
_atom_site_fract_z
Si Si1 0.395650 0.942512 0.728577
Si Si2 0.599201 0.152767 0.062988
Si Si3 0.825735 0.707964 0.240405
Si Si4 0.003479 0.872487 0.735157
Si Si5 0.502458 0.805778 0.566384
Si Si6 0.907131 0.786649 0.345918
Si Si7 0.542966 0.924179 0.895689
Si Si8 0.199009 0.070971 0.158558
O O1 0.478087 0.896382 0.735778
O O2 0.328566 0.884744 0.751590
O O3 0.373676 0.952915 0.662276
O O4 0.662505 0.088525 0.084163
O O5 0.588618 0.225140 0.103946
O O6 0.513598 0.114846 0.058045
O O7 0.623091 0.181851 0.000000
O O8 0.736615 0.736615 0.231938
O O9 0.859861 0.751038 0.294261
O O10 0.876285 0.731996 0.184763
O O11 0.088622 0.911379 0.731620
O O12 0.990445 0.814276 0.680693
O O13 0.993467 0.828170 0.795407
O O14 0.936561 0.936561 0.731376
O O15 0.501948 0.780928 0.500000
O O16 0.439872 0.874515 0.575193
O O17 0.476845 0.731764 0.604077
O O18 0.860747 0.860747 0.370736
O O19 0.500000 0.000000 0.871880
O O20 0.126674 0.126674 0.140240
#
# Coordination Sequence:
#
# PCOD8317776 Si02
#       8
#    16  16  16  16  16  16  16  16
#     4  11  19  27  48  81 102 130 168 214 273 314
#     4  10  21  35  52  72 101 142 182 220 265 311
#     4   9  18  31  47  72 107 138 163 200 261 329
#     4   8  15  31  57  84 105 130 168 214 267 323
#     4  10  20  33  50  73 101 140 187 225 259 309
#     4   9  18  32  53  78 103 135 170 211 261 318
#     4  10  18  32  48  73 100 128 171 221 264 310
#     4   9  17  31  52  77 106 139 174 219 267 313
#
# _framework density 18.472666
#
# number of rings (size 3 to 8) (size 9 to 14) (size 15 to 20)
#    0.000    2.500    2.500    2.625    1.750    2.000 
#    0.000    0.625    0.000   12.000    0.000    3.500 
#    0.000    0.000    0.000    0.000    0.000    0.000 
#
# Total GULP energy -1585870.072506 kJ/mol
# GULP energy per Si atom -12389.609941 kJ/mol
# Density = 1.843062 g / cm^3
# Si number density = 18.472666 Si / 1000 Ang^3
#
#
#
# Elastic Constant Matrix: (Units=GPa)
#
#
# Indices 1 2 3 4 5 6 
#
# 1 65.8412 47.7274 41.5340 0.0000 0.0000 0.0000
# 2 47.7274 65.8412 41.5340 0.0000 0.0000 0.0000
# 3 41.5340 41.5340 100.7600 0.0000 0.0000 0.0000
# 4 0.0000 0.0000 0.0000 33.2667 0.0000 0.0000
# 5 0.0000 0.0000 0.0000 0.0000 33.2667 0.0000
# 6 0.0000 0.0000 0.0000 0.0000 0.0000 23.9841
#
#
#
# Elastic Compliance Matrix: (Units=1/GPa)
#
#
# Indices 1 2 3 4 5 6 
#
# 1 0.033906 -0.021300 -0.005196 0.000000 0.000000 0.000000
# 2 -0.021300 0.033906 -0.005196 0.000000 0.000000 0.000000
# 3 -0.005196 -0.005196 0.014208 0.000000 0.000000 0.000000
# 4 0.000000 0.000000 0.000000 0.030060 0.000000 0.000000
# 5 0.000000 0.000000 0.000000 0.000000 0.030060 0.000000
# 6 0.000000 0.000000 0.000000 0.000000 0.000000 0.041694
#
#
# Mechanical properties :
#
#
# Convention : Reuss Voigt Hill
#
# Bulk Modulus (GPa) = 53.66154 54.89257 54.27706
# Shear Modulus (GPa) = 19.72912 24.88000 22.30456
#
# Velocity S-wave (km/s) = 3.27160 3.67393 3.47859
# Velocity P-wave (km/s) = 6.58661 6.91210 6.75131
#
# Compressibility (1/GPa) = 0.01863532
#
# Stress axis : x y z
#
# Youngs Moduli (GPa) = 29.49315 29.49315 70.38061
#
# Poissons Ratio (x) = 0.62821 0.36572
# Poissons Ratio (y) = 0.62821 0.36572
# Poissons Ratio (z) = 0.15325 0.15325
#
# Static dielectric constant tensor:
#      x y z
#    x 3.660830 0.000000 0.000000 
#    y 0.000000 3.660830 0.000000 
#    z 0.000000 0.000000 3.234770 
# 
# 
# High freq. dielectric constant tensor:
#      x y z
#    x 1.699030 0.000000 0.000000 
#    y 0.000000 1.699030 0.000000 
#    z 0.000000 0.000000 1.702220 
# 
# From -- ./inp_files/8637.got.cif
#   From: 2010.03.12/outbox.cif.g09.slc.cpg/sg136_5_cif.got.tgz:8637.got - 2010.04.06 18:39:43.
