data_PCOD8317710
_publ_section_title
;
Structure prediction by ZEFSAII (Michael W. Deem and Ramdas Pophale) SiO2 
 PCOD8317710
Probable space group: P 42/M N M
;
_chemical_formula_sum "Si O2"
_cell_formula_units_Z 56
_cell_length_a 11.906217
_cell_length_b 11.906217
_cell_length_c 22.696448
_cell_angle_alpha 90.000000
_cell_angle_beta 90.000000
_cell_angle_gamma 90.000000
_cell_volume 3217.403149
_symmetry_space_group_name_H-M "P 42/M N M"
_symmetry_group_IT_number 136
_symmetry_cell_setting 'tetragonal'
loop_
_space_group_symop_operation_xyz
x,y,z
1/2-y,1/2+x,1/2+z
-x,-y,z
1/2+y,1/2-x,1/2+z
1/2+x,1/2-y,1/2-z
1/2-x,1/2+y,1/2-z
y,x,-z
-y,-x,-z
-x,-y,-z
1/2+y,1/2-x,1/2-z
x,y,-z
1/2-y,1/2+x,1/2-z
1/2-x,1/2+y,1/2+z
1/2+x,1/2-y,1/2+z
-y,-x,z
y,x,z
loop_
_atom_site_type_symbol
_atom_site_label
_atom_site_fract_x
_atom_site_fract_y
_atom_site_fract_z
Si Si1 0.717854 0.903895 0.887425
Si Si2 0.511506 0.871200 0.820414
Si Si3 0.905960 0.276051 0.201729
Si Si4 0.314913 0.496207 0.500000
O O1 0.794888 0.794888 0.892446
O O2 0.587102 0.864003 0.880316
O O3 0.747277 0.974312 0.828947
O O4 0.735372 0.985471 0.943359
O O5 0.380533 0.836921 0.828779
O O6 0.573668 0.798108 0.770791
O O7 0.500000 0.000000 0.798913
O O8 0.835390 0.164611 0.193672
O O9 0.371651 0.371651 0.500000
O O10 0.413784 0.586217 0.500000
#
# Coordination Sequence:
#
# PCOD8317710 Si02
#       4
#    16  16  16   8
#     4  10  19  33  53  74  99 133 169 207 254 304
#     4  10  17  32  47  68  98 132 168 198 245 304
#     4  11  19  30  49  71 100 132 166 210 251 296
#     4   9  18  32  49  76 109 133 165 215 262 301
#
# _framework density 17.405342000000001
#
# number of rings (size 3 to 8) (size 9 to 14) (size 15 to 20)
#    0.000    1.857    5.714    1.714    0.000    1.714 
#    0.000    6.429    0.000    2.571    0.000    0.000 
#    0.000    3.429    0.000    0.000    0.000    2.286 
#
# Total GULP energy -693741.823684 kJ/mol
# GULP energy per Si atom -12388.246852 kJ/mol
# Density = 1.736573 g / cm^3
# Si number density = 17.405342 Si / 1000 Ang^3
#
#
#
# Elastic Constant Matrix: (Units=GPa)
#
#
# Indices 1 2 3 4 5 6 
#
# 1 35.2769 -10.6592 1.8647 0.0000 0.0000 0.0000
# 2 -10.6592 35.2768 1.8648 0.0000 0.0000 0.0000
# 3 1.8647 1.8648 72.2001 0.0000 0.0000 0.0000
# 4 0.0000 0.0000 0.0000 23.1167 0.0000 0.0000
# 5 0.0000 0.0000 0.0000 0.0000 23.1166 0.0000
# 6 0.0000 0.0000 0.0000 0.0000 0.0000 19.4144
#
#
#
# Elastic Compliance Matrix: (Units=1/GPa)
#
#
# Indices 1 2 3 4 5 6 
#
# 1 0.031275 0.009506 -0.001053 0.000000 0.000000 0.000000
# 2 0.009506 0.031275 -0.001053 0.000000 0.000000 0.000000
# 3 -0.001053 -0.001053 0.013905 0.000000 0.000000 0.000000
# 4 0.000000 0.000000 0.000000 0.043259 0.000000 0.000000
# 5 0.000000 0.000000 0.000000 0.000000 0.043259 0.000000
# 6 0.000000 0.000000 0.000000 0.000000 0.000000 0.051508
#
#
# Mechanical properties :
#
#
# Convention : Reuss Voigt Hill
#
# Bulk Modulus (GPa) = 10.95849 14.32159 12.64004
# Shear Modulus (GPa) = 21.72964 23.10844 22.41904
#
# Velocity S-wave (km/s) = 3.53717 3.64766 3.59284
# Velocity P-wave (km/s) = 4.79498 5.09772 4.94866
#
# Compressibility (1/GPa) = 0.09125344
#
# Stress axis : x y z
#
# Youngs Moduli (GPa) = 31.97432 31.97426 71.91760
#
# Poissons Ratio (x) = -0.30394 0.07575
# Poissons Ratio (y) = -0.30394 0.07575
# Poissons Ratio (z) = 0.03368 0.03368
#
# Static dielectric constant tensor:
#      x y z
#    x 3.368970 0.000000 0.000000 
#    y 0.000000 3.368970 0.000000 
#    z 0.000000 0.000000 3.169740 
# 
# 
# High freq. dielectric constant tensor:
#      x y z
#    x 1.658050 0.000000 0.000000 
#    y 0.000000 1.658050 0.000000 
#    z 0.000000 0.000000 1.652140 
# 
# From -- ./inp_files/6899.got.cif
#   From: 2010.03.12/outbox.cif.g09.slc.cpg/sg136_4_cif.got.tgz:6899.got - 2010.04.06 18:39:43.
