data_PCOD8317628
_publ_section_title
;
Structure prediction by ZEFSAII (Michael W. Deem and Ramdas Pophale) SiO2 
 PCOD8317628
Probable space group: P 42/M B C
;
_chemical_formula_sum "Si O2"
_cell_formula_units_Z 56
_cell_length_a 13.645324
_cell_length_b 13.645324
_cell_length_c 13.922878
_cell_angle_alpha 90.000000
_cell_angle_beta 90.000000
_cell_angle_gamma 90.000000
_cell_volume 2592.368418
_symmetry_space_group_name_H-M "P 42/M B C"
_symmetry_group_IT_number 135
_symmetry_cell_setting 'tetragonal'
loop_
_space_group_symop_operation_xyz
x,y,z
-y,x,1/2+z
-x,-y,z
y,-x,1/2+z
1/2+x,1/2-y,-z
1/2-x,1/2+y,-z
1/2+y,1/2+x,1/2-z
1/2-y,1/2-x,1/2-z
-x,-y,-z
y,-x,1/2-z
x,y,-z
-y,x,1/2-z
1/2-x,1/2+y,z
1/2+x,1/2-y,z
1/2-y,1/2-x,1/2+z
1/2+y,1/2+x,1/2+z
loop_
_atom_site_type_symbol
_atom_site_label
_atom_site_fract_x
_atom_site_fract_y
_atom_site_fract_z
Si Si1 0.407960 0.430545 0.000000
Si Si2 0.776730 0.965321 0.346456
Si Si3 0.609619 0.735411 0.500000
Si Si4 0.679952 0.311676 0.801252
Si Si5 0.459282 0.110665 0.000000
O O1 0.500000 0.500000 0.000000
O O2 0.410109 0.359664 0.908415
O O3 0.315413 0.502911 0.000000
O O4 0.760289 0.895516 0.255857
O O5 0.676367 0.986947 0.405904
O O6 0.821113 0.063422 0.300645
O O7 0.680356 0.711157 0.411504
O O8 0.584917 0.847206 0.500000
O O9 0.709416 0.209416 0.750000
O O10 0.500000 0.000000 0.000000
#
# Coordination Sequence:
#
# PCOD8317628 Si02
#       5
#     8  16   8  16   8
#     4  11  21  41  73 108 143 177 230 298 362 426
#     4  11  25  44  71 110 142 186 243 297 358 433
#     4  12  23  46  69 102 145 189 231 304 360 416
#     4  12  25  44  72 104 145 186 240 299 362 434
#     4  11  26  49  72 102 149 189 244 288 351 448
#
# _framework density 21.601866000000001
#
# number of rings (size 3 to 8) (size 9 to 14) (size 15 to 20)
#    0.000    0.571    5.714    2.571    0.000    4.571 
#    0.000    1.429    0.000    0.000    0.000    0.000 
#    0.000    0.000    0.000    0.000    0.000    0.000 
#
# Total GULP energy -694119.384341 kJ/mol
# GULP energy per Si atom -12394.989006 kJ/mol
# Density = 2.155270 g / cm^3
# Si number density = 21.601866 Si / 1000 Ang^3
#
#
#
# Elastic Constant Matrix: (Units=GPa)
#
#
# Indices 1 2 3 4 5 6 
#
# 1 122.2385 19.5686 40.8700 0.0000 0.0000 0.0000
# 2 19.5686 122.2385 40.8700 0.0000 0.0000 0.0000
# 3 40.8700 40.8700 145.1877 0.0000 0.0000 0.0000
# 4 0.0000 0.0000 0.0000 37.3691 0.0000 0.0000
# 5 0.0000 0.0000 0.0000 0.0000 37.3691 0.0000
# 6 0.0000 0.0000 0.0000 0.0000 0.0000 44.3862
#
#
#
# Elastic Compliance Matrix: (Units=1/GPa)
#
#
# Indices 1 2 3 4 5 6 
#
# 1 0.009079 -0.000661 -0.002370 0.000000 0.000000 0.000000
# 2 -0.000661 0.009079 -0.002370 0.000000 0.000000 0.000000
# 3 -0.002370 -0.002370 0.008222 0.000000 0.000000 0.000000
# 4 0.000000 0.000000 0.000000 0.026760 0.000000 0.000000
# 5 0.000000 0.000000 0.000000 0.000000 0.026760 0.000000
# 6 0.000000 0.000000 0.000000 0.000000 0.000000 0.022530
#
#
# Mechanical properties :
#
#
# Convention : Reuss Voigt Hill
#
# Bulk Modulus (GPa) = 64.18967 65.80907 64.99937
# Shear Modulus (GPa) = 42.22171 43.04861 42.63516
#
# Velocity S-wave (km/s) = 4.42581 4.46894 4.44743
# Velocity P-wave (km/s) = 7.47640 7.56037 7.51850
#
# Compressibility (1/GPa) = 0.01557883
#
# Stress axis : x y z
#
# Youngs Moduli (GPa) = 110.14645 110.14645 121.62959
#
# Poissons Ratio (x) = 0.07282 0.28821
# Poissons Ratio (y) = 0.07282 0.28821
# Poissons Ratio (z) = 0.26100 0.26100
#
# Static dielectric constant tensor:
#      x y z
#    x 4.394170 0.000000 0.000000 
#    y 0.000000 4.394170 0.000000 
#    z 0.000000 0.000000 4.143510 
# 
# 
# High freq. dielectric constant tensor:
#      x y z
#    x 1.848850 0.000000 0.000000 
#    y 0.000000 1.848850 0.000000 
#    z 0.000000 0.000000 1.862500 
# 
# From -- ./inp_files/2117.got.cif
#   From: 2010.03.12/outbox.cif.g09.slc.cpg/sg135_2_cif.got.tgz:2117.got - 2010.04.06 18:31:24.
