data_PCOD8317152
_publ_section_title
;
Structure prediction by ZEFSAII (Michael W. Deem and Ramdas Pophale) SiO2 
 PCOD8317152
Probable space group: P 42/N N M
;
_chemical_formula_sum "Si O2"
_cell_formula_units_Z 96
_cell_length_a 17.983348
_cell_length_b 17.983348
_cell_length_c 17.983312
_cell_angle_alpha 90.000000
_cell_angle_beta 90.000000
_cell_angle_gamma 90.000000
_cell_volume 5815.817583
_symmetry_space_group_name_H-M "P 42/N N M"
_symmetry_group_IT_number 134
_space_group.IT_coordinate_system_code '2'
_symmetry_cell_setting 'tetragonal'
loop_
_space_group_symop_operation_xyz
x,y,z
1/2-y,x,1/2+z
1/2-x,1/2-y,z
y,1/2-x,1/2+z
x,1/2-y,1/2-z
1/2-x,y,1/2-z
y,x,-z
1/2-y,1/2-x,-z
-x,-y,-z
1/2+y,-x,1/2-z
1/2+x,1/2+y,-z
-y,1/2+x,1/2-z
-x,1/2+y,1/2+z
1/2+x,-y,1/2+z
-y,-x,z
1/2+y,1/2+x,z
loop_
_atom_site_type_symbol
_atom_site_label
_atom_site_fract_x
_atom_site_fract_y
_atom_site_fract_z
Si Si1 0.324503 0.206764 0.915982
Si Si2 0.206764 0.584018 0.824502
Si Si3 0.175498 0.415982 0.793236
Si Si4 0.430490 0.169469 0.550282
Si Si5 0.050281 0.430489 0.330530
Si Si6 0.949718 0.330530 0.430490
O O1 0.250000 0.250000 0.892448
O O2 0.336238 0.136603 0.863397
O O3 0.395961 0.260238 0.907000
O O4 0.321600 0.178401 0.000000
O O5 0.250000 0.607552 0.750000
O O6 0.136603 0.636603 0.836237
O O7 0.178401 0.500000 0.821600
O O8 0.260237 0.593000 0.895961
O O9 0.250000 0.392448 0.750000
O O10 0.104040 0.407001 0.739763
O O11 0.364848 0.135153 0.500000
O O12 0.459703 0.109089 0.609090
O O13 0.499782 0.194356 0.499782
O O14 0.999780 0.499780 0.305644
O O15 1.000000 0.364846 0.364847
O O16 0.890910 0.390910 0.459703
#
# Coordination Sequence:
#
# PCOD8317152 Si02
#       6
#    16  16  16  16  16  16
#     4  11  21  33  51  75 106 140 175 214 258 311
#     4  11  21  33  51  75 106 140 175 214 258 311
#     4  11  21  33  51  75 106 140 175 214 258 311
#     4  10  19  33  52  75 101 131 168 214 265 311
#     4  10  19  33  52  75 101 131 168 214 265 311
#     4  10  19  33  52  75 101 131 168 214 265 311
#
# _framework density 16.506706999999999
#
# number of rings (size 3 to 8) (size 9 to 14) (size 15 to 20)
#    0.000    1.500    5.000    3.500    0.000    5.500 
#    0.000    0.000    0.000    9.000    0.000    0.000 
#    0.000    0.000    0.000    0.000    0.000    0.000 
#
# Total GULP energy -1190753.142205 kJ/mol
# GULP energy per Si atom -12403.678565 kJ/mol
# Density = 1.646914 g / cm^3
# Si number density = 16.506707 Si / 1000 Ang^3
#
#
#
# Elastic Constant Matrix: (Units=GPa)
#
#
# Indices 1 2 3 4 5 6 
#
# 1 79.4655 49.6265 49.6266 0.0000 0.0000 0.0000
# 2 49.6265 79.4655 49.6266 0.0000 0.0000 0.0000
# 3 49.6266 49.6266 79.4645 0.0000 0.0000 0.0000
# 4 0.0000 0.0000 0.0000 23.6645 0.0000 0.0000
# 5 0.0000 0.0000 0.0000 0.0000 23.6646 0.0000
# 6 0.0000 0.0000 0.0000 0.0000 0.0000 23.6646
#
#
#
# Elastic Compliance Matrix: (Units=1/GPa)
#
#
# Indices 1 2 3 4 5 6 
#
# 1 0.024207 -0.009306 -0.009306 0.000000 0.000000 0.000000
# 2 -0.009306 0.024207 -0.009306 0.000000 0.000000 0.000000
# 3 -0.009306 -0.009306 0.024208 0.000000 0.000000 0.000000
# 4 0.000000 0.000000 0.000000 0.042257 0.000000 0.000000
# 5 0.000000 0.000000 0.000000 0.000000 0.042257 0.000000
# 6 0.000000 0.000000 0.000000 0.000000 0.000000 0.042257
#
#
# Mechanical properties :
#
#
# Convention : Reuss Voigt Hill
#
# Bulk Modulus (GPa) = 59.57277 59.57277 59.57277
# Shear Modulus (GPa) = 19.16983 20.16645 19.66814
#
# Velocity S-wave (km/s) = 3.41153 3.49909 3.45559
# Velocity P-wave (km/s) = 7.18933 7.24522 7.21733
#
# Compressibility (1/GPa) = 0.01678619
#
# Stress axis : x y z
#
# Youngs Moduli (GPa) = 41.30966 41.30971 41.30878
#
# Poissons Ratio (x) = 0.38442 0.38443
# Poissons Ratio (y) = 0.38442 0.38443
# Poissons Ratio (z) = 0.38444 0.38444
#
# Static dielectric constant tensor:
#      x y z
#    x 3.011420 0.000000 0.000000 
#    y 0.000000 3.011420 0.000000 
#    z 0.000000 0.000000 3.011420 
# 
# 
# High freq. dielectric constant tensor:
#      x y z
#    x 1.622430 0.000000 0.000000 
#    y 0.000000 1.622430 0.000000 
#    z 0.000000 0.000000 1.622430 
# 
# From -- ./inp_files/7858.got.cif
#   From: 2010.03.12/outbox.cif.g09.slc.cpg/sg134_4_cif.got.tgz:7858.got - 2010.04.06 18:17:22.
