data_PCOD8317533
_publ_section_title
;
Structure prediction by ZEFSAII (Michael W. Deem and Ramdas Pophale) SiO2 
 PCOD8317533
Probable space group: P 42/M B C
;
_chemical_formula_sum "Si O2"
_cell_formula_units_Z 112
_cell_length_a 14.081698
_cell_length_b 14.081698
_cell_length_c 23.858573
_cell_angle_alpha 90.000000
_cell_angle_beta 90.000000
_cell_angle_gamma 90.000000
_cell_volume 4731.017089
_symmetry_space_group_name_H-M "P 42/M B C"
_symmetry_group_IT_number 135
_symmetry_cell_setting 'tetragonal'
loop_
_space_group_symop_operation_xyz
x,y,z
-y,x,1/2+z
-x,-y,z
y,-x,1/2+z
1/2+x,1/2-y,-z
1/2-x,1/2+y,-z
1/2+y,1/2+x,1/2-z
1/2-y,1/2-x,1/2-z
-x,-y,-z
y,-x,1/2-z
x,y,-z
-y,x,1/2-z
1/2-x,1/2+y,z
1/2+x,1/2-y,z
1/2-y,1/2-x,1/2+z
1/2+y,1/2+x,1/2+z
loop_
_atom_site_type_symbol
_atom_site_label
_atom_site_fract_x
_atom_site_fract_y
_atom_site_fract_z
Si Si1 0.041846 0.099201 0.934348
Si Si2 0.572536 0.085426 0.159470
Si Si3 0.057602 0.302851 0.562895
Si Si4 0.928318 0.126605 0.232840
Si Si5 0.170818 0.138877 0.610169
Si Si6 0.522482 0.822185 0.252580
Si Si7 0.748729 0.847812 0.065183
O O1 0.144814 0.132205 0.911313
O O2 0.964363 0.180138 0.919009
O O3 0.054238 0.085338 0.000000
O O4 0.000000 0.000000 0.907938
O O5 0.619611 0.113591 0.100365
O O6 0.526486 0.177442 0.190179
O O7 0.500000 0.000000 0.149379
O O8 0.661551 0.052858 0.198257
O O9 0.088601 0.325839 0.500000
O O10 0.088535 0.196203 0.578032
O O11 0.944456 0.311744 0.570857
O O12 0.874870 0.135968 0.174056
O O13 0.917441 0.227418 0.264202
O O14 0.043378 0.112698 0.227689
O O15 0.270124 0.195902 0.604169
O O16 0.586731 0.913270 0.250000
O O17 0.750484 0.813856 0.000000
#
# Coordination Sequence:
#
# PCOD8317533 Si02
#       7
#    16  16  16  16  16  16  16
#     4  10  20  40  72 102 137 192 246 293 357 432
#     4   9  20  39  69  96 135 186 239 291 365 440
#     4  11  23  42  69 103 152 199 248 308 370 452
#     4  11  27  47  67 102 139 176 233 311 379 443
#     4  12  25  43  70 102 147 192 241 313 375 449
#     4   9  20  44  70  99 135 181 238 303 363 445
#     4  10  23  41  67 106 145 192 251 301 361 441
#
# _framework density 23.673555
#
# number of rings (size 3 to 8) (size 9 to 14) (size 15 to 20)
#    0.000    1.714    1.429    3.000    6.000    2.571 
#    5.143    0.000    0.000    0.000    0.000    0.000 
#    0.000    0.000    0.000    0.000    0.000    0.000 
#
# Total GULP energy -1388096.318940 kJ/mol
# GULP energy per Si atom -12393.717133 kJ/mol
# Density = 2.361967 g / cm^3
# Si number density = 23.673555 Si / 1000 Ang^3
#
#
#
# Elastic Constant Matrix: (Units=GPa)
#
#
# Indices 1 2 3 4 5 6 
#
# 1 99.6762 22.0649 42.2645 0.0000 0.0000 0.0000
# 2 22.0649 99.6729 42.2651 0.0000 0.0000 0.0000
# 3 42.2645 42.2651 112.2523 0.0000 0.0000 0.0000
# 4 0.0000 0.0000 0.0000 32.0413 0.0000 0.0000
# 5 0.0000 0.0000 0.0000 0.0000 32.0414 0.0000
# 6 0.0000 0.0000 0.0000 0.0000 0.0000 34.7077
#
#
#
# Elastic Compliance Matrix: (Units=1/GPa)
#
#
# Indices 1 2 3 4 5 6 
#
# 1 0.012003 -0.000882 -0.004187 0.000000 0.000000 0.000000
# 2 -0.000882 0.012004 -0.004188 0.000000 0.000000 0.000000
# 3 -0.004187 -0.004188 0.012062 0.000000 0.000000 0.000000
# 4 0.000000 0.000000 0.000000 0.031210 0.000000 0.000000
# 5 0.000000 0.000000 0.000000 0.000000 0.031210 0.000000
# 6 0.000000 0.000000 0.000000 0.000000 0.000000 0.028812
#
#
# Mechanical properties :
#
#
# Convention : Reuss Voigt Hill
#
# Bulk Modulus (GPa) = 56.96260 58.31006 57.63633
# Shear Modulus (GPa) = 32.96732 33.42521 33.19627
#
# Velocity S-wave (km/s) = 3.73578 3.76163 3.74873
# Velocity P-wave (km/s) = 6.53621 6.59931 6.56783
#
# Compressibility (1/GPa) = 0.01755538
#
# Stress axis : x y z
#
# Youngs Moduli (GPa) = 83.31119 83.30751 82.90574
#
# Poissons Ratio (x) = 0.07344 0.34716
# Poissons Ratio (y) = 0.07344 0.34719
# Poissons Ratio (z) = 0.34886 0.34887
#
# Static dielectric constant tensor:
#      x y z
#    x 4.264090 0.000000 0.000000 
#    y 0.000000 4.264080 0.000000 
#    z 0.000000 0.000000 4.119000 
# 
# 
# High freq. dielectric constant tensor:
#      x y z
#    x 1.933970 0.000000 0.000000 
#    y 0.000000 1.933970 0.000000 
#    z 0.000000 0.000000 1.926170 
# 
# From -- ./inp_files/6104.got.cif
#   From: 2010.03.12/outbox.cif.g09.slc.cpg/sg135_4_cif.got.tgz:6104.got - 2010.04.06 18:31:24.
