data_PCOD8317256
_publ_section_title
;
Structure prediction by ZEFSAII (Michael W. Deem and Ramdas Pophale) SiO2 
 PCOD8317256
Probable space group: P 42/N N M
;
_chemical_formula_sum "Si O2"
_cell_formula_units_Z 64
_cell_length_a 11.781692
_cell_length_b 11.781692
_cell_length_c 23.816267
_cell_angle_alpha 90.000000
_cell_angle_beta 90.000000
_cell_angle_gamma 90.000000
_cell_volume 3305.894734
_symmetry_space_group_name_H-M "P 42/N N M"
_symmetry_group_IT_number 134
_space_group.IT_coordinate_system_code '2'
_symmetry_cell_setting 'tetragonal'
loop_
_space_group_symop_operation_xyz
x,y,z
1/2-y,x,1/2+z
1/2-x,1/2-y,z
y,1/2-x,1/2+z
x,1/2-y,1/2-z
1/2-x,y,1/2-z
y,x,-z
1/2-y,1/2-x,-z
-x,-y,-z
1/2+y,-x,1/2-z
1/2+x,1/2+y,-z
-y,1/2+x,1/2-z
-x,1/2+y,1/2+z
1/2+x,-y,1/2+z
-y,-x,z
1/2+y,1/2+x,z
loop_
_atom_site_type_symbol
_atom_site_label
_atom_site_fract_x
_atom_site_fract_y
_atom_site_fract_z
Si Si1 0.939953 0.250000 0.750000
Si Si2 0.575663 0.889327 0.563229
Si Si3 0.000772 0.814083 0.631709
Si Si4 0.064228 0.750000 0.750000
Si Si5 0.765034 0.880086 0.653140
O O1 0.861975 0.138026 0.744452
O O2 0.023507 0.235708 0.802260
O O3 0.620841 0.879160 0.500000
O O4 0.504147 0.778401 0.582068
O O5 0.685967 0.902519 0.600542
O O6 0.499753 0.999753 0.570914
O O7 0.893041 0.897677 0.630243
O O8 0.991497 0.752460 0.692901
O O9 0.117576 0.882425 0.624148
O O10 0.137034 0.862967 0.752794
O O11 0.750000 0.750000 0.675589
#
# Coordination Sequence:
#
# PCOD8317256 Si02
#       5
#     8  16  16   8  16
#     4  11  23  38  56  80 117 161 198 234 280 343
#     4  10  22  41  63  85 113 154 198 241 289 343
#     4  10  21  36  59  89 118 150 190 242 299 348
#     4   9  18  32  53  86 122 150 183 235 298 350
#     4  10  22  37  58  85 117 149 192 239 291 346
#
# _framework density 19.359358
#
# number of rings (size 3 to 8) (size 9 to 14) (size 15 to 20)
#    0.000    2.000    0.000    2.625    7.000    6.000 
#    0.000    3.750    0.000    3.000    0.000    0.000 
#    0.000    0.000    0.000    0.000    0.000    0.000 
#
# Total GULP energy -793410.671851 kJ/mol
# GULP energy per Si atom -12397.041748 kJ/mol
# Density = 1.931530 g / cm^3
# Si number density = 19.359358 Si / 1000 Ang^3
#
#
#
# Elastic Constant Matrix: (Units=GPa)
#
#
# Indices 1 2 3 4 5 6 
#
# 1 97.5786 38.3410 73.5377 0.0000 0.0000 0.0000
# 2 38.3410 97.5786 73.5378 0.0000 0.0000 0.0000
# 3 73.5377 73.5378 158.2797 0.0000 0.0000 0.0000
# 4 0.0000 0.0000 0.0000 33.3766 0.0000 0.0000
# 5 0.0000 0.0000 0.0000 0.0000 33.3766 0.0000
# 6 0.0000 0.0000 0.0000 0.0000 0.0000 23.4711
#
#
#
# Elastic Compliance Matrix: (Units=1/GPa)
#
#
# Indices 1 2 3 4 5 6 
#
# 1 0.015838 -0.001043 -0.006874 0.000000 0.000000 0.000000
# 2 -0.001043 0.015838 -0.006874 0.000000 0.000000 0.000000
# 3 -0.006874 -0.006874 0.012705 0.000000 0.000000 0.000000
# 4 0.000000 0.000000 0.000000 0.029961 0.000000 0.000000
# 5 0.000000 0.000000 0.000000 0.000000 0.029961 0.000000
# 6 0.000000 0.000000 0.000000 0.000000 0.000000 0.042606
#
#
# Mechanical properties :
#
#
# Convention : Reuss Voigt Hill
#
# Bulk Modulus (GPa) = 67.56675 80.47440 74.02058
# Shear Modulus (GPa) = 27.55948 29.24621 28.40284
#
# Velocity S-wave (km/s) = 3.77712 3.89099 3.83448
# Velocity P-wave (km/s) = 7.34842 7.86418 7.61067
#
# Compressibility (1/GPa) = 0.01480018
#
# Stress axis : x y z
#
# Youngs Moduli (GPa) = 63.13767 63.13760 78.70617
#
# Poissons Ratio (x) = 0.06584 0.54104
# Poissons Ratio (y) = 0.06584 0.54104
# Poissons Ratio (z) = 0.43402 0.43402
#
# Static dielectric constant tensor:
#      x y z
#    x 3.615110 0.000000 0.000000 
#    y 0.000000 3.615110 0.000000 
#    z 0.000000 0.000000 3.585610 
# 
# 
# High freq. dielectric constant tensor:
#      x y z
#    x 1.760640 0.000000 0.000000 
#    y 0.000000 1.760640 0.000000 
#    z 0.000000 0.000000 1.745210 
# 
# From -- ./inp_files/9827.got.cif
#   From: 2010.03.12/outbox.cif.g09.slc.cpg/sg134_5_cif.got.tgz:9827.got - 2010.04.06 18:17:22.
