data_PCOD8317405
_publ_section_title
;
Structure prediction by ZEFSAII (Michael W. Deem and Ramdas Pophale) SiO2 
 PCOD8317405
Probable space group: P 42/M B C
;
_chemical_formula_sum "Si O2"
_cell_formula_units_Z 96
_cell_length_a 27.057958
_cell_length_b 27.057958
_cell_length_c 8.776483
_cell_angle_alpha 90.000000
_cell_angle_beta 90.000000
_cell_angle_gamma 90.000000
_cell_volume 6425.553628
_symmetry_space_group_name_H-M "P 42/M B C"
_symmetry_group_IT_number 135
_symmetry_cell_setting 'tetragonal'
loop_
_space_group_symop_operation_xyz
x,y,z
-y,x,1/2+z
-x,-y,z
y,-x,1/2+z
1/2+x,1/2-y,-z
1/2-x,1/2+y,-z
1/2+y,1/2+x,1/2-z
1/2-y,1/2-x,1/2-z
-x,-y,-z
y,-x,1/2-z
x,y,-z
-y,x,1/2-z
1/2-x,1/2+y,z
1/2+x,1/2-y,z
1/2-y,1/2-x,1/2+z
1/2+y,1/2+x,1/2+z
loop_
_atom_site_type_symbol
_atom_site_label
_atom_site_fract_x
_atom_site_fract_y
_atom_site_fract_z
Si Si1 0.159003 0.271953 0.170958
Si Si2 0.332375 0.620180 0.679814
Si Si3 0.758074 0.810277 0.831164
Si Si4 0.667093 0.493784 0.679747
Si Si5 0.300267 0.413582 0.179971
Si Si6 0.007258 0.069921 0.324547
O O1 0.177307 0.322694 0.250000
O O2 0.204591 0.234946 0.160550
O O3 0.116605 0.248656 0.276147
O O4 0.139247 0.282876 0.000000
O O5 0.330323 0.621732 0.500000
O O6 0.282267 0.644343 0.741157
O O7 0.329721 0.562942 0.736582
O O8 0.381299 0.650836 0.733540
O O9 0.707617 0.792384 0.750000
O O10 0.744495 0.828823 0.000000
O O11 0.658347 0.495951 0.500000
O O12 0.708293 0.533623 0.731356
O O13 0.624744 0.520624 0.779358
O O14 0.301809 0.422619 0.000000
O O15 0.991998 0.063967 0.500000
O O16 0.054815 0.036740 0.289772
#
# Coordination Sequence:
#
# PCOD8317405 Si02
#       6
#    16  16  16  16  16  16
#     4   9  16  27  43  63  83 103 128 162 203 247
#     4   9  19  32  44  58  79 105 135 170 208 246
#     4   9  16  26  43  63  82 101 125 158 198 242
#     4  11  21  32  44  59  80 106 135 170 209 248
#     4  10  19  31  45  61  81 107 138 173 211 252
#     4  11  21  33  46  58  72  94 128 170 212 252
#
# _framework density 14.940348
#
# number of rings (size 3 to 8) (size 9 to 14) (size 15 to 20)
#    0.000    2.167    0.000    5.000    0.000    7.333 
#    0.000    0.000    0.000    0.000    0.000    0.000 
#    0.000    0.000    0.000    0.000    0.000    0.833 
#
# Total GULP energy -1189442.091403 kJ/mol
# GULP energy per Si atom -12390.021785 kJ/mol
# Density = 1.490634 g / cm^3
# Si number density = 14.940348 Si / 1000 Ang^3
#
#
#
# Elastic Constant Matrix: (Units=GPa)
#
#
# Indices 1 2 3 4 5 6 
#
# 1 48.6230 29.8065 18.4362 0.0000 0.0000 0.0000
# 2 29.8065 48.6219 18.4349 0.0000 0.0000 0.0000
# 3 18.4362 18.4349 61.2747 0.0000 0.0000 0.0000
# 4 0.0000 0.0000 0.0000 22.6550 0.0000 0.0000
# 5 0.0000 0.0000 0.0000 0.0000 22.6553 0.0000
# 6 0.0000 0.0000 0.0000 0.0000 0.0000 -5.4383
#
#
#
# Elastic Compliance Matrix: (Units=1/GPa)
#
#
# Indices 1 2 3 4 5 6 
#
# 1 0.033998 -0.019148 -0.004469 0.000000 0.000000 0.000000
# 2 -0.019148 0.033999 -0.004468 0.000000 0.000000 0.000000
# 3 -0.004469 -0.004468 0.019009 0.000000 0.000000 0.000000
# 4 0.000000 0.000000 0.000000 0.044140 0.000000 0.000000
# 5 0.000000 0.000000 0.000000 0.000000 0.044140 0.000000
# 6 0.000000 0.000000 0.000000 0.000000 0.000000 -0.183881
#
#
# Mechanical properties :
#
#
# Convention : Reuss Voigt Hill
#
# Bulk Modulus (GPa) = 32.42766 32.43053 32.42909
# Shear Modulus (GPa) = 86.42657 14.09721 50.26189
#
# Velocity S-wave (km/s) = 7.61402 3.07508 5.80644
# Velocity P-wave (km/s) = 9.95237 5.86191 8.16736
#
# Compressibility (1/GPa) = 0.03083787
#
# Stress axis : x y z
#
# Youngs Moduli (GPa) = 29.41309 29.41282 52.60778
#
# Poissons Ratio (x) = 0.56319 0.23509
# Poissons Ratio (y) = 0.56319 0.23504
# Poissons Ratio (z) = 0.13144 0.13141
#
# Static dielectric constant tensor:
#      x y z
#    x 2.785300 0.000000 0.000000 
#    y 0.000000 2.785300 0.000000 
#    z 0.000000 0.000000 2.998760 
# 
# 
# High freq. dielectric constant tensor:
#      x y z
#    x 1.537690 0.000000 0.000000 
#    y 0.000000 1.537690 0.000000 
#    z 0.000000 0.000000 1.589380 
# 
# From -- ./inp_files/1250.got.cif
#   From: 2010.03.12/outbox.cif.g09.slc.cpg/sg135_1_cif.got.tgz:1250.got - 2010.04.06 18:31:24.
