data_PCOD8317785
_publ_section_title
;
Structure prediction by ZEFSAII (Michael W. Deem and Ramdas Pophale) SiO2 
 PCOD8317785
Probable space group: P 42/M N M
;
_chemical_formula_sum "Si O2"
_cell_formula_units_Z 96
_cell_length_a 19.158658
_cell_length_b 19.158658
_cell_length_c 14.352308
_cell_angle_alpha 90.000000
_cell_angle_beta 90.000000
_cell_angle_gamma 90.000000
_cell_volume 5268.074592
_symmetry_space_group_name_H-M "P 42/M N M"
_symmetry_group_IT_number 136
_symmetry_cell_setting 'tetragonal'
loop_
_space_group_symop_operation_xyz
x,y,z
1/2-y,1/2+x,1/2+z
-x,-y,z
1/2+y,1/2-x,1/2+z
1/2+x,1/2-y,1/2-z
1/2-x,1/2+y,1/2-z
y,x,-z
-y,-x,-z
-x,-y,-z
1/2+y,1/2-x,1/2-z
x,y,-z
1/2-y,1/2+x,1/2-z
1/2-x,1/2+y,1/2+z
1/2+x,1/2-y,1/2+z
-y,-x,z
y,x,z
loop_
_atom_site_type_symbol
_atom_site_label
_atom_site_fract_x
_atom_site_fract_y
_atom_site_fract_z
Si Si1 0.026895 0.139595 0.399504
Si Si2 0.699996 0.939821 0.603511
Si Si3 0.739878 0.021631 0.109517
Si Si4 0.497728 0.884183 0.744985
Si Si5 0.497345 0.387670 0.697979
Si Si6 0.787243 0.678757 0.390665
O O1 0.989356 0.122600 0.500000
O O2 0.100110 0.100110 0.395163
O O3 0.045402 0.219528 0.396113
O O4 0.981734 0.119507 0.309113
O O5 0.667775 0.941875 0.500000
O O6 0.662196 0.999807 0.662117
O O7 0.686179 0.864562 0.651832
O O8 0.744511 0.103476 0.130599
O O9 0.668977 0.991972 0.157099
O O10 0.812266 0.990653 0.150339
O O11 0.734903 0.004405 0.000000
O O12 0.567413 0.929505 0.747420
O O13 0.567741 0.432260 0.680143
O O14 0.430523 0.430523 0.657010
O O15 0.792888 0.692738 0.500000
O O16 0.735669 0.735669 0.344444
#
# Coordination Sequence:
#
# PCOD8317785 Si02
#       6
#    16  16  16  16  16  16
#     4   9  17  30  52  82 114 147 182 224 275 329
#     4  10  18  32  54  80 108 137 177 227 280 331
#     4  11  22  38  57  80 111 148 189 230 275 330
#     4  11  23  38  57  82 111 143 184 230 283 345
#     4  10  21  36  56  84 116 150 189 231 276 330
#     4   9  17  30  52  81 107 133 172 225 277 321
#
# _framework density 18.222975999999999
#
# number of rings (size 3 to 8) (size 9 to 14) (size 15 to 20)
#    0.000    2.000    3.333    1.000    0.000    4.333 
#    0.000    4.167    0.000    0.000    0.000    0.000 
#    0.000    0.000    0.000    0.000    0.000    0.000 
#
# Total GULP energy -1189581.350518 kJ/mol
# GULP energy per Si atom -12391.472401 kJ/mol
# Density = 1.818150 g / cm^3
# Si number density = 18.222976 Si / 1000 Ang^3
#
#
#
# Elastic Constant Matrix: (Units=GPa)
#
#
# Indices 1 2 3 4 5 6 
#
# 1 75.5217 35.6306 42.1029 0.0000 0.0000 0.0000
# 2 35.6306 75.5217 42.1029 0.0000 0.0000 0.0000
# 3 42.1029 42.1029 97.3563 0.0000 0.0000 0.0000
# 4 0.0000 0.0000 0.0000 49.5209 0.0000 0.0000
# 5 0.0000 0.0000 0.0000 0.0000 49.5209 0.0000
# 6 0.0000 0.0000 0.0000 0.0000 0.0000 21.5505
#
#
#
# Elastic Compliance Matrix: (Units=1/GPa)
#
#
# Indices 1 2 3 4 5 6 
#
# 1 0.019224 -0.005844 -0.005786 0.000000 0.000000 0.000000
# 2 -0.005844 0.019224 -0.005786 0.000000 0.000000 0.000000
# 3 -0.005786 -0.005786 0.015276 0.000000 0.000000 0.000000
# 4 0.000000 0.000000 0.000000 0.020193 0.000000 0.000000
# 5 0.000000 0.000000 0.000000 0.000000 0.020193 0.000000
# 6 0.000000 0.000000 0.000000 0.000000 0.000000 0.046403
#
#
# Mechanical properties :
#
#
# Convention : Reuss Voigt Hill
#
# Bulk Modulus (GPa) = 52.93487 54.23030 53.58258
# Shear Modulus (GPa) = 27.52615 32.68936 30.10776
#
# Velocity S-wave (km/s) = 3.89076 4.23999 4.06912
# Velocity P-wave (km/s) = 7.02107 7.33443 7.17946
#
# Compressibility (1/GPa) = 0.01889114
#
# Stress axis : x y z
#
# Youngs Moduli (GPa) = 52.01752 52.01752 65.46043
#
# Poissons Ratio (x) = 0.30399 0.37879
# Poissons Ratio (y) = 0.30399 0.37879
# Poissons Ratio (z) = 0.30100 0.30100
#
# Static dielectric constant tensor:
#      x y z
#    x 3.588630 0.000000 0.000000 
#    y 0.000000 3.588630 0.000000 
#    z 0.000000 0.000000 3.500740 
# 
# 
# High freq. dielectric constant tensor:
#      x y z
#    x 1.703650 0.000000 0.000000 
#    y 0.000000 1.703650 0.000000 
#    z 0.000000 0.000000 1.692430 
# 
# From -- ./inp_files/3817.got.cif
#   From: 2010.03.12/outbox.cif.g09.slc.cpg/sg136_2_cif.got.tgz:3817.got - 2010.04.06 18:39:43.
