data_PCOD8317074
_publ_section_title
;
Structure prediction by ZEFSAII (Michael W. Deem and Ramdas Pophale) SiO2 
 PCOD8317074
Probable space group: P 42/N N M
;
_chemical_formula_sum "Si O2"
_cell_formula_units_Z 36
_cell_length_a 14.038251
_cell_length_b 14.038251
_cell_length_c 9.985668
_cell_angle_alpha 90.000000
_cell_angle_beta 90.000000
_cell_angle_gamma 90.000000
_cell_volume 1967.900468
_symmetry_space_group_name_H-M "P 42/N N M"
_symmetry_group_IT_number 134
_space_group.IT_coordinate_system_code '2'
_symmetry_cell_setting 'tetragonal'
loop_
_space_group_symop_operation_xyz
x,y,z
1/2-y,x,1/2+z
1/2-x,1/2-y,z
y,1/2-x,1/2+z
x,1/2-y,1/2-z
1/2-x,y,1/2-z
y,x,-z
1/2-y,1/2-x,-z
-x,-y,-z
1/2+y,-x,1/2-z
1/2+x,1/2+y,-z
-y,1/2+x,1/2-z
-x,1/2+y,1/2+z
1/2+x,-y,1/2+z
-y,-x,z
1/2+y,1/2+x,z
loop_
_atom_site_type_symbol
_atom_site_label
_atom_site_fract_x
_atom_site_fract_y
_atom_site_fract_z
Si Si1 0.511550 0.637208 0.407214
Si Si2 0.750000 0.750000 0.250000
Si Si3 0.924545 0.843060 0.121093
O O1 0.594256 0.594256 0.500000
O O2 0.409325 0.590676 0.447005
O O3 0.530977 0.608865 0.252384
O O4 0.511624 0.751443 0.422701
O O5 0.816216 0.813129 0.154072
O O6 0.919379 0.919379 0.000000
#
# Coordination Sequence:
#
# PCOD8317074 Si02
#       3
#    16   4  16
#     4   9  18  30  43  65  98 125 146 187 244 280
#     4   8  14  24  40  66  90 110 140 188 234 264
#     4  10  17  27  47  68  90 120 159 193 224 275
#
# _framework density 18.293607000000002
#
# number of rings (size 3 to 8) (size 9 to 14) (size 15 to 20)
#    0.000    3.111    0.000    6.000    0.000    0.889 
#    0.000    0.000    0.000   10.667    0.000    0.000 
#    0.000   14.222    0.000    0.000    0.000    0.000 
#
# Total GULP energy -446026.470451 kJ/mol
# GULP energy per Si atom -12389.624179 kJ/mol
# Density = 1.825197 g / cm^3
# Si number density = 18.293607 Si / 1000 Ang^3
#
#
#
# Elastic Constant Matrix: (Units=GPa)
#
#
# Indices 1 2 3 4 5 6 
#
# 1 41.7263 46.4610 16.8604 0.0000 0.0000 0.0000
# 2 46.4610 41.7263 16.8604 0.0000 0.0000 0.0000
# 3 16.8604 16.8604 97.6769 0.0000 0.0000 0.0000
# 4 0.0000 0.0000 0.0000 -5.4680 0.0000 0.0000
# 5 0.0000 0.0000 0.0000 0.0000 -5.4680 0.0000
# 6 0.0000 0.0000 0.0000 0.0000 0.0000 36.2540
#
#
#
# Elastic Compliance Matrix: (Units=1/GPa)
#
#
# Indices 1 2 3 4 5 6 
#
# 1 -0.099534 0.111675 -0.002096 0.000000 0.000000 0.000000
# 2 0.111675 -0.099534 -0.002096 0.000000 0.000000 0.000000
# 3 -0.002096 -0.002096 0.010961 0.000000 0.000000 0.000000
# 4 0.000000 0.000000 0.000000 -0.182883 0.000000 0.000000
# 5 0.000000 0.000000 0.000000 0.000000 -0.182883 0.000000
# 6 0.000000 0.000000 0.000000 0.000000 0.000000 0.027583
#
#
# Mechanical properties :
#
#
# Convention : Reuss Voigt Hill
#
# Bulk Modulus (GPa) = 37.22967 37.94367 37.58667
# Shear Modulus (GPa) = -6.82778 11.79346 2.48284
#
# Velocity S-wave (km/s) = -1.93402 2.54180 1.16626
# Velocity P-wave (km/s) = 3.92532 5.42226 4.73334
#
# Compressibility (1/GPa) = 0.02686030
#
# Stress axis : x y z
#
# Youngs Moduli (GPa) = -10.04683 -10.04683 91.22989
#
# Poissons Ratio (x) = 1.12198 0.19119
# Poissons Ratio (y) = 1.12198 0.19119
# Poissons Ratio (z) = -0.02105 -0.02105
#
# Static dielectric constant tensor:
#      x y z
#    x 3.051760 0.000000 0.000000 
#    y 0.000000 3.051760 0.000000 
#    z 0.000000 0.000000 3.565670 
# 
# 
# High freq. dielectric constant tensor:
#      x y z
#    x 1.678650 0.000000 0.000000 
#    y 0.000000 1.678650 0.000000 
#    z 0.000000 0.000000 1.722990 
# 
# From -- ./inp_files/1704.got.cif
#   From: 2010.03.12/outbox.cif.g09.slc.cpg/sg134_1_cif.got.tgz:1704.got - 2010.04.06 18:17:22.
