data_PCOD8317274
_publ_section_title
;
Structure prediction by ZEFSAII (Michael W. Deem and Ramdas Pophale) SiO2 
 PCOD8317274
Probable space group: P 42/N N M
;
_chemical_formula_sum "Si O2"
_cell_formula_units_Z 108
_cell_length_a 13.923314
_cell_length_b 13.923314
_cell_length_c 26.350004
_cell_angle_alpha 90.000000
_cell_angle_beta 90.000000
_cell_angle_gamma 90.000000
_cell_volume 5108.176802
_symmetry_space_group_name_H-M "P 42/N N M"
_symmetry_group_IT_number 134
_space_group.IT_coordinate_system_code '2'
_symmetry_cell_setting 'tetragonal'
loop_
_space_group_symop_operation_xyz
x,y,z
1/2-y,x,1/2+z
1/2-x,1/2-y,z
y,1/2-x,1/2+z
x,1/2-y,1/2-z
1/2-x,y,1/2-z
y,x,-z
1/2-y,1/2-x,-z
-x,-y,-z
1/2+y,-x,1/2-z
1/2+x,1/2+y,-z
-y,1/2+x,1/2-z
-x,1/2+y,1/2+z
1/2+x,-y,1/2+z
-y,-x,z
1/2+y,1/2+x,z
loop_
_atom_site_type_symbol
_atom_site_label
_atom_site_fract_x
_atom_site_fract_y
_atom_site_fract_z
Si Si1 0.104952 0.052614 0.149563
Si Si2 0.750000 0.750000 0.500000
Si Si3 0.547242 0.301351 0.106523
Si Si4 0.924239 0.723133 0.073549
Si Si5 0.748424 0.096665 0.502637
Si Si6 0.104148 0.750000 0.250000
Si Si7 0.106647 0.044682 0.263566
Si Si8 0.042399 0.113442 0.361309
O O1 0.202689 0.053282 0.118279
O O2 0.134871 0.082156 0.207416
O O3 0.038250 0.132496 0.125232
O O4 0.051266 0.948735 0.147930
O O5 0.741819 0.843255 0.535134
O O6 0.650322 0.349679 0.120851
O O7 0.534880 0.198265 0.132793
O O8 0.538551 0.289948 0.046042
O O9 0.887124 0.621299 0.094584
O O10 0.024033 0.710766 0.044032
O O11 0.835269 0.164732 0.484481
O O12 0.661106 0.161106 0.525278
O O13 0.174459 0.825542 0.219512
O O14 0.033752 0.685206 0.215315
O O15 0.096127 0.126214 0.306598
O O16 0.002613 0.997388 0.256463
O O17 0.988184 0.011817 0.362758
#
# Coordination Sequence:
#
# PCOD8317274 Si02
#       8
#    16   4  16  16  16   8  16  16
#     4  10  21  38  61  87 118 159 201 242 289 348
#     4  12  28  40  52  82 116 148 196 256 296 338
#     4  10  22  40  61  84 111 151 203 253 303 354
#     4  12  22  38  59  84 121 157 194 236 292 358
#     4  10  21  38  61  89 119 151 193 247 301 358
#     4   9  16  30  54  81 114 162 206 235 280 345
#     4   9  19  35  54  84 122 152 191 243 285 338
#     4  11  23  38  60  89 120 156 195 242 300 357
#
# _framework density 21.142572999999999
#
# number of rings (size 3 to 8) (size 9 to 14) (size 15 to 20)
#    0.000    1.704    0.000    4.889    0.000    1.481 
#    0.000    6.667    0.000    9.778    0.000    8.296 
#    0.000    0.000    0.000    0.000    0.000    0.000 
#
# Total GULP energy -1338213.504489 kJ/mol
# GULP energy per Si atom -12390.865782 kJ/mol
# Density = 2.109445 g / cm^3
# Si number density = 21.142573 Si / 1000 Ang^3
#
#
#
# Elastic Constant Matrix: (Units=GPa)
#
#
# Indices 1 2 3 4 5 6 
#
# 1 99.7780 44.0279 56.0317 0.0000 0.0000 0.0000
# 2 44.0279 99.7780 56.0317 0.0000 0.0000 0.0000
# 3 56.0317 56.0317 128.3631 0.0000 0.0000 0.0000
# 4 0.0000 0.0000 0.0000 22.7717 0.0000 0.0000
# 5 0.0000 0.0000 0.0000 0.0000 22.7717 0.0000
# 6 0.0000 0.0000 0.0000 0.0000 0.0000 43.3978
#
#
#
# Elastic Compliance Matrix: (Units=1/GPa)
#
#
# Indices 1 2 3 4 5 6 
#
# 1 0.014238 -0.003699 -0.004600 0.000000 0.000000 0.000000
# 2 -0.003699 0.014238 -0.004600 0.000000 0.000000 0.000000
# 3 -0.004600 -0.004600 0.011806 0.000000 0.000000 0.000000
# 4 0.000000 0.000000 0.000000 0.043914 0.000000 0.000000
# 5 0.000000 0.000000 0.000000 0.000000 0.043914 0.000000
# 6 0.000000 0.000000 0.000000 0.000000 0.000000 0.023043
#
#
# Mechanical properties :
#
#
# Convention : Reuss Voigt Hill
#
# Bulk Modulus (GPa) = 69.04703 71.12238 70.08470
# Shear Modulus (GPa) = 27.50574 29.24343 28.37459
#
# Velocity S-wave (km/s) = 3.61080 3.72311 3.66739
# Velocity P-wave (km/s) = 7.07902 7.22458 7.15217
#
# Compressibility (1/GPa) = 0.01448288
#
# Stress axis : x y z
#
# Youngs Moduli (GPa) = 70.23506 70.23506 84.69932
#
# Poissons Ratio (x) = 0.25982 0.38963
# Poissons Ratio (y) = 0.25982 0.38963
# Poissons Ratio (z) = 0.32310 0.32310
#
# Static dielectric constant tensor:
#      x y z
#    x 3.885310 0.000000 0.000000 
#    y 0.000000 3.885310 0.000000 
#    z 0.000000 0.000000 3.836500 
# 
# 
# High freq. dielectric constant tensor:
#      x y z
#    x 1.830620 0.000000 0.000000 
#    y 0.000000 1.830620 0.000000 
#    z 0.000000 0.000000 1.817210 
# 
# From -- ./inp_files/10177.got.cif
#   From: 2010.03.12/outbox.cif.g09.slc.cpg/sg134_6_cif.got.tgz:10177.got - 2010.04.06 18:17:22.
