data_PCOD8317577
_publ_section_title
;
Structure prediction by ZEFSAII (Michael W. Deem and Ramdas Pophale) SiO2 
 PCOD8317577
Probable space group: P 42/M B C
;
_chemical_formula_sum "Si O2"
_cell_formula_units_Z 80
_cell_length_a 13.387937
_cell_length_b 13.387937
_cell_length_c 22.809444
_cell_angle_alpha 90.000000
_cell_angle_beta 90.000000
_cell_angle_gamma 90.000000
_cell_volume 4088.293055
_symmetry_space_group_name_H-M "P 42/M B C"
_symmetry_group_IT_number 135
_symmetry_cell_setting 'tetragonal'
loop_
_space_group_symop_operation_xyz
x,y,z
-y,x,1/2+z
-x,-y,z
y,-x,1/2+z
1/2+x,1/2-y,-z
1/2-x,1/2+y,-z
1/2+y,1/2+x,1/2-z
1/2-y,1/2-x,1/2-z
-x,-y,-z
y,-x,1/2-z
x,y,-z
-y,x,1/2-z
1/2-x,1/2+y,z
1/2+x,1/2-y,z
1/2-y,1/2-x,1/2+z
1/2+y,1/2+x,1/2+z
loop_
_atom_site_type_symbol
_atom_site_label
_atom_site_fract_x
_atom_site_fract_y
_atom_site_fract_z
Si Si1 0.395530 0.959611 0.815411
Si Si2 0.901054 0.877020 0.254719
Si Si3 0.231301 0.847575 0.869388
Si Si4 0.002071 0.884170 0.567479
Si Si5 0.370229 0.256618 0.655775
O O1 0.412384 0.912384 0.750000
O O2 0.349067 0.878199 0.861671
O O3 0.500000 0.000000 0.840832
O O4 0.325721 0.058055 0.815790
O O5 0.903537 0.812758 0.312816
O O6 0.825569 0.830088 0.208267
O O7 0.011003 0.871490 0.227275
O O8 0.208951 0.730070 0.871730
O O9 0.172759 0.895546 0.924603
O O10 0.034330 0.878318 0.500000
O O11 0.081958 0.824122 0.605438
O O12 0.000000 0.000000 0.588118
#
# Coordination Sequence:
#
# PCOD8317577 Si02
#       5
#    16  16  16  16  16
#     4  10  22  36  50  80 125 164 188 229 291 355
#     4  11  20  33  58  89 126 151 191 248 302 354
#     4  11  23  36  59  89 117 156 198 244 297 357
#     4  10  22  44  65  85 115 153 202 255 301 347
#     4  11  23  36  58  89 119 159 198 245 290 363
#
# _framework density 19.568068
#
# number of rings (size 3 to 8) (size 9 to 14) (size 15 to 20)
#    0.000    1.400    4.000    3.000    5.600    2.400 
#    0.000    0.000    0.000    9.600    0.000    0.000 
#    0.000    0.000    0.000    0.000    0.000    0.000 
#
# Total GULP energy -991502.607992 kJ/mol
# GULP energy per Si atom -12393.782600 kJ/mol
# Density = 1.952353 g / cm^3
# Si number density = 19.568068 Si / 1000 Ang^3
#
#
#
# Elastic Constant Matrix: (Units=GPa)
#
#
# Indices 1 2 3 4 5 6 
#
# 1 111.2035 34.8447 23.1122 0.0000 0.0000 0.0000
# 2 34.8447 111.2035 23.1122 0.0000 0.0000 0.0000
# 3 23.1122 23.1122 60.1090 0.0000 0.0000 0.0000
# 4 0.0000 0.0000 0.0000 17.4968 0.0000 0.0000
# 5 0.0000 0.0000 0.0000 0.0000 17.4968 0.0000
# 6 0.0000 0.0000 0.0000 0.0000 0.0000 27.4994
#
#
#
# Elastic Compliance Matrix: (Units=1/GPa)
#
#
# Indices 1 2 3 4 5 6 
#
# 1 0.010446 -0.002650 -0.002998 0.000000 0.000000 0.000000
# 2 -0.002650 0.010446 -0.002998 0.000000 0.000000 0.000000
# 3 -0.002998 -0.002998 0.018942 0.000000 0.000000 0.000000
# 4 0.000000 0.000000 0.000000 0.057153 0.000000 0.000000
# 5 0.000000 0.000000 0.000000 0.000000 0.057153 0.000000
# 6 0.000000 0.000000 0.000000 0.000000 0.000000 0.036364
#
#
# Mechanical properties :
#
#
# Convention : Reuss Voigt Hill
#
# Bulk Modulus (GPa) = 44.35959 49.40603 46.88281
# Shear Modulus (GPa) = 23.22242 25.92838 24.57540
#
# Velocity S-wave (km/s) = 3.44866 3.64405 3.54770
# Velocity P-wave (km/s) = 6.21098 6.55809 6.38690
#
# Compressibility (1/GPa) = 0.02254304
#
# Stress axis : x y z
#
# Youngs Moduli (GPa) = 95.73114 95.73114 52.79396
#
# Poissons Ratio (x) = 0.25370 0.15825
# Poissons Ratio (y) = 0.25370 0.15825
# Poissons Ratio (z) = 0.28696 0.28696
#
# Static dielectric constant tensor:
#      x y z
#    x 3.878110 0.000000 0.000000 
#    y 0.000000 3.878110 0.000000 
#    z 0.000000 0.000000 3.319610 
# 
# 
# High freq. dielectric constant tensor:
#      x y z
#    x 1.773730 0.000000 0.000000 
#    y 0.000000 1.773730 0.000000 
#    z 0.000000 0.000000 1.722490 
# 
# From -- ./inp_files/5217.got.cif
#   From: 2010.03.12/outbox.cif.g09.slc.cpg/sg135_3_cif.got.tgz:5217.got - 2010.04.06 18:31:24.
