data_PCOD8317903
_publ_section_title
;
Structure prediction by ZEFSAII (Michael W. Deem and Ramdas Pophale) SiO2 
 PCOD8317903
Probable space group: P 42/M N M
;
_chemical_formula_sum "Si O2"
_cell_formula_units_Z 112
_cell_length_a 14.208982
_cell_length_b 14.208982
_cell_length_c 26.822270
_cell_angle_alpha 90.000000
_cell_angle_beta 90.000000
_cell_angle_gamma 90.000000
_cell_volume 5415.286747
_symmetry_space_group_name_H-M "P 42/M N M"
_symmetry_group_IT_number 136
_symmetry_cell_setting 'tetragonal'
loop_
_space_group_symop_operation_xyz
x,y,z
1/2-y,1/2+x,1/2+z
-x,-y,z
1/2+y,1/2-x,1/2+z
1/2+x,1/2-y,1/2-z
1/2-x,1/2+y,1/2-z
y,x,-z
-y,-x,-z
-x,-y,-z
1/2+y,1/2-x,1/2-z
x,y,-z
1/2-y,1/2+x,1/2-z
1/2-x,1/2+y,1/2+z
1/2+x,1/2-y,1/2+z
-y,-x,z
y,x,z
loop_
_atom_site_type_symbol
_atom_site_label
_atom_site_fract_x
_atom_site_fract_y
_atom_site_fract_z
Si Si1 0.732727 0.027363 0.944168
Si Si2 0.497274 0.650888 0.649716
Si Si3 0.731045 0.113535 0.681058
Si Si4 0.195798 0.596996 0.055499
Si Si5 0.234185 0.089945 0.658793
Si Si6 0.065728 0.581860 0.600009
Si Si7 0.375215 0.219144 0.704853
O O1 0.820542 0.010751 0.907807
O O2 0.689760 0.131520 0.938162
O O3 0.650615 0.953435 0.933448
O O4 0.770420 0.011609 0.000000
O O5 0.390549 0.609452 0.658838
O O6 0.567701 0.567701 0.663508
O O7 0.523341 0.743329 0.683651
O O8 0.800834 0.199166 0.667661
O O9 0.642468 0.111981 0.644334
O O10 0.693524 0.120070 0.737255
O O11 0.787069 0.015582 0.675892
O O12 0.273863 0.599653 0.098784
O O13 0.139730 0.499785 0.062369
O O14 0.241125 0.597046 0.000000
O O15 0.153663 0.153663 0.684041
O O16 0.338762 0.125278 0.676095
O O17 0.000000 0.500000 0.623801
O O18 0.301087 0.301087 0.693676
#
# Coordination Sequence:
#
# PCOD8317903 Si02
#       7
#    16  16  16  16  16  16  16
#     4  10  19  32  55  82 110 147 190 233 282 347
#     4  10  21  36  54  77 112 153 189 234 287 340
#     4  10  22  39  60  85 116 152 191 240 294 349
#     4   9  17  32  56  83 111 145 187 237 286 337
#     4  10  20  36  58  85 116 148 187 239 290 340
#     4   9  19  36  57  83 113 148 187 236 287 341
#     4   9  19  38  57  78 111 150 194 237 284 344
#
# _framework density 20.682191
#
# number of rings (size 3 to 8) (size 9 to 14) (size 15 to 20)
#    0.000    2.429    1.429    0.429    0.000    5.143 
#    0.000    5.000    0.000   10.286    0.000    4.000 
#    0.000    0.000    0.000    0.000    0.000    0.000 
#
# Total GULP energy -1388017.804065 kJ/mol
# GULP energy per Si atom -12393.016108 kJ/mol
# Density = 2.063512 g / cm^3
# Si number density = 20.682191 Si / 1000 Ang^3
#
#
#
# Elastic Constant Matrix: (Units=GPa)
#
#
# Indices 1 2 3 4 5 6 
#
# 1 50.5209 11.9658 19.1321 0.0000 0.0000 0.0000
# 2 11.9658 50.5209 19.1321 0.0000 0.0000 0.0000
# 3 19.1321 19.1321 103.3185 0.0000 0.0000 0.0000
# 4 0.0000 0.0000 0.0000 22.3659 0.0000 0.0000
# 5 0.0000 0.0000 0.0000 0.0000 22.3659 0.0000
# 6 0.0000 0.0000 0.0000 0.0000 0.0000 29.2334
#
#
#
# Elastic Compliance Matrix: (Units=1/GPa)
#
#
# Indices 1 2 3 4 5 6 
#
# 1 0.021994 -0.003943 -0.003342 0.000000 0.000000 0.000000
# 2 -0.003943 0.021994 -0.003342 0.000000 0.000000 0.000000
# 3 -0.003342 -0.003342 0.010917 0.000000 0.000000 0.000000
# 4 0.000000 0.000000 0.000000 0.044711 0.000000 0.000000
# 5 0.000000 0.000000 0.000000 0.000000 0.044711 0.000000
# 6 0.000000 0.000000 0.000000 0.000000 0.000000 0.034207
#
#
# Mechanical properties :
#
#
# Convention : Reuss Voigt Hill
#
# Bulk Modulus (GPa) = 29.72014 33.86892 31.79453
# Shear Modulus (GPa) = 23.69608 25.06839 24.38224
#
# Velocity S-wave (km/s) = 3.38853 3.48527 3.43724
# Velocity P-wave (km/s) = 5.45074 5.71030 5.58203
#
# Compressibility (1/GPa) = 0.03364722
#
# Stress axis : x y z
#
# Youngs Moduli (GPa) = 45.46794 45.46794 91.60284
#
# Poissons Ratio (x) = 0.17930 0.30618
# Poissons Ratio (y) = 0.17930 0.30618
# Poissons Ratio (z) = 0.15197 0.15197
#
# Static dielectric constant tensor:
#      x y z
#    x 3.682770 0.000000 0.000000 
#    y 0.000000 3.682770 0.000000 
#    z 0.000000 0.000000 3.716100 
# 
# 
# High freq. dielectric constant tensor:
#      x y z
#    x 1.793700 0.000000 0.000000 
#    y 0.000000 1.793700 0.000000 
#    z 0.000000 0.000000 1.810490 
# 
# From -- ./inp_files/9186.got.cif
#   From: 2010.03.12/outbox.cif.g09.slc.cpg/sg136_5_cif.got.tgz:9186.got - 2010.04.06 18:39:43.
