data_PCOD8317124
_publ_section_title
;
Structure prediction by ZEFSAII (Michael W. Deem and Ramdas Pophale) SiO2 
 PCOD8317124
Probable space group: P 42/N N M
;
_chemical_formula_sum "Si O2"
_cell_formula_units_Z 96
_cell_length_a 26.508383
_cell_length_b 26.508383
_cell_length_c 7.564808
_cell_angle_alpha 90.000000
_cell_angle_beta 90.000000
_cell_angle_gamma 90.000000
_cell_volume 5315.747986
_symmetry_space_group_name_H-M "P 42/N N M"
_symmetry_group_IT_number 134
_space_group.IT_coordinate_system_code '2'
_symmetry_cell_setting 'tetragonal'
loop_
_space_group_symop_operation_xyz
x,y,z
1/2-y,x,1/2+z
1/2-x,1/2-y,z
y,1/2-x,1/2+z
x,1/2-y,1/2-z
1/2-x,y,1/2-z
y,x,-z
1/2-y,1/2-x,-z
-x,-y,-z
1/2+y,-x,1/2-z
1/2+x,1/2+y,-z
-y,1/2+x,1/2-z
-x,1/2+y,1/2+z
1/2+x,-y,1/2+z
-y,-x,z
1/2+y,1/2+x,z
loop_
_atom_site_type_symbol
_atom_site_label
_atom_site_fract_x
_atom_site_fract_y
_atom_site_fract_z
Si Si1 0.808876 0.191125 0.454577
Si Si2 0.806864 0.193137 0.052104
Si Si3 0.637346 0.862654 0.000000
Si Si4 0.635917 0.364084 0.761709
Si Si5 0.190473 0.533370 0.246641
Si Si6 0.304729 0.153352 0.662250
Si Si7 0.699664 0.544594 0.047771
Si Si8 0.185279 0.466902 0.932516
O O1 0.820917 0.179084 0.251905
O O2 0.819887 0.249347 0.492600
O O3 0.843241 0.156760 0.577031
O O4 0.840281 0.159720 0.931688
O O5 0.657238 0.833846 0.176516
O O6 0.646436 0.922226 0.022550
O O7 0.577514 0.349548 0.782210
O O8 0.250000 0.550117 0.250000
O O9 0.179021 0.487993 0.384120
O O10 0.174455 0.515300 0.052006
O O11 0.250000 0.149901 0.750000
O O12 0.306290 0.193711 0.500000
O O13 0.322152 0.101075 0.567053
O O14 0.759074 0.553198 0.023384
O O15 0.683917 0.515358 0.228036
#
# Coordination Sequence:
#
# PCOD8317124 Si02
#       8
#     8   8   8   8  16  16  16  16
#     4   9  18  32  50  70 101 142 186 209 246 321
#     4   9  18  32  50  70  99 149 179 207 248 323
#     4  10  18  34  59  83 102 142 188 232 264 318
#     4  12  22  33  48  79 113 134 177 225 291 332
#     4  10  21  33  53  78 104 144 176 225 277 327
#     4  11  21  35  55  80 113 150 186 225 265 320
#     4   9  17  36  54  74 102 136 186 226 259 311
#     4   9  17  33  56  77  99 131 183 229 265 312
#
# _framework density 18.059546000000001
#
# number of rings (size 3 to 8) (size 9 to 14) (size 15 to 20)
#    0.000    2.167    3.333    3.000    0.000    2.667 
#    0.000    4.583    0.000    0.500    0.000   11.083 
#    0.000    0.000    0.000    0.000    0.000    0.000 
#
# Total GULP energy -1189583.334448 kJ/mol
# GULP energy per Si atom -12391.493067 kJ/mol
# Density = 1.801844 g / cm^3
# Si number density = 18.059546 Si / 1000 Ang^3
#
#
#
# Elastic Constant Matrix: (Units=GPa)
#
#
# Indices 1 2 3 4 5 6 
#
# 1 68.6935 34.7315 37.2336 0.0000 0.0000 0.0000
# 2 34.7315 68.6899 37.2311 0.0000 0.0000 0.0000
# 3 37.2336 37.2311 102.6176 0.0000 0.0000 0.0000
# 4 0.0000 0.0000 0.0000 32.1511 0.0000 0.0000
# 5 0.0000 0.0000 0.0000 0.0000 32.1512 0.0000
# 6 0.0000 0.0000 0.0000 0.0000 0.0000 23.2120
#
#
#
# Elastic Compliance Matrix: (Units=1/GPa)
#
#
# Indices 1 2 3 4 5 6 
#
# 1 0.021267 -0.008179 -0.004749 0.000000 0.000000 0.000000
# 2 -0.008179 0.021267 -0.004748 0.000000 0.000000 0.000000
# 3 -0.004749 -0.004748 0.013191 0.000000 0.000000 0.000000
# 4 0.000000 0.000000 0.000000 0.031103 0.000000 0.000000
# 5 0.000000 0.000000 0.000000 0.000000 0.031103 0.000000
# 6 0.000000 0.000000 0.000000 0.000000 0.000000 0.043081
#
#
# Mechanical properties :
#
#
# Convention : Reuss Voigt Hill
#
# Bulk Modulus (GPa) = 49.08655 50.93260 50.00958
# Shear Modulus (GPa) = 24.61161 26.22317 25.41739
#
# Velocity S-wave (km/s) = 3.69562 3.81470 3.75563
# Velocity P-wave (km/s) = 6.74163 6.90408 6.82334
#
# Compressibility (1/GPa) = 0.02037218
#
# Stress axis : x y z
#
# Youngs Moduli (GPa) = 47.02168 47.02013 75.81038
#
# Poissons Ratio (x) = 0.38458 0.36002
# Poissons Ratio (y) = 0.38459 0.35998
# Poissons Ratio (z) = 0.22330 0.22327
#
# Static dielectric constant tensor:
#      x y z
#    x 3.137670 0.000000 0.000000 
#    y 0.000000 3.137660 0.000000 
#    z 0.000000 0.000000 3.879260 
# 
# 
# High freq. dielectric constant tensor:
#      x y z
#    x 1.667290 0.000000 0.000000 
#    y 0.000000 1.667290 0.000000 
#    z 0.000000 0.000000 1.726360 
# 
# From -- ./inp_files/3270.got.cif
#   From: 2010.03.12/outbox.cif.g09.slc.cpg/sg134_2_cif.got.tgz:3270.got - 2010.04.06 18:17:22.
