data_PCOD8317872
_publ_section_title
;
Structure prediction by ZEFSAII (Michael W. Deem and Ramdas Pophale) SiO2 
 PCOD8317872
Probable space group: P 42/M N M
;
_chemical_formula_sum "Si O2"
_cell_formula_units_Z 96
_cell_length_a 16.250560
_cell_length_b 16.250560
_cell_length_c 19.412250
_cell_angle_alpha 90.000000
_cell_angle_beta 90.000000
_cell_angle_gamma 90.000000
_cell_volume 5126.400575
_symmetry_space_group_name_H-M "P 42/M N M"
_symmetry_group_IT_number 136
_symmetry_cell_setting 'tetragonal'
loop_
_space_group_symop_operation_xyz
x,y,z
1/2-y,1/2+x,1/2+z
-x,-y,z
1/2+y,1/2-x,1/2+z
1/2+x,1/2-y,1/2-z
1/2-x,1/2+y,1/2-z
y,x,-z
-y,-x,-z
-x,-y,-z
1/2+y,1/2-x,1/2-z
x,y,-z
1/2-y,1/2+x,1/2-z
1/2-x,1/2+y,1/2+z
1/2+x,1/2-y,1/2+z
-y,-x,z
y,x,z
loop_
_atom_site_type_symbol
_atom_site_label
_atom_site_fract_x
_atom_site_fract_y
_atom_site_fract_z
Si Si1 0.552757 0.238057 0.077443
Si Si2 0.783301 0.649380 0.574697
Si Si3 0.897467 0.238813 0.785913
Si Si4 0.058004 0.578419 0.574364
Si Si5 0.406632 0.918075 0.723033
Si Si6 0.500973 0.366600 0.190418
O O1 0.642372 0.206853 0.100585
O O2 0.491231 0.162462 0.081966
O O3 0.522886 0.312123 0.124884
O O4 0.557058 0.273341 0.000000
O O5 0.805279 0.607343 0.500000
O O6 0.703370 0.703370 0.563485
O O7 0.763232 0.582564 0.634330
O O8 0.815536 0.184465 0.781402
O O9 0.875234 0.322217 0.745117
O O10 0.976000 0.191410 0.754756
O O11 0.106374 0.579985 0.500000
O O12 0.111614 0.572688 0.644480
O O13 0.000000 0.500000 0.573558
O O14 0.482294 0.893217 0.772756
O O15 0.578935 0.421066 0.213755
O O16 0.424532 0.424532 0.169349
#
# Coordination Sequence:
#
# PCOD8317872 Si02
#       6
#    16  16  16  16  16  16
#     4  10  19  33  53  78 108 139 178 226 273 320
#     4   9  18  32  51  75 101 130 169 224 282 327
#     4  10  21  36  53  76 109 144 179 222 274 332
#     4  10  19  32  49  73 107 140 169 211 269 325
#     4  11  20  33  53  80 104 134 177 232 275 322
#     4  10  21  36  53  75 109 151 190 226 266 322
#
# _framework density 18.726589000000001
#
# number of rings (size 3 to 8) (size 9 to 14) (size 15 to 20)
#    0.000    2.000    3.333    1.500    0.000    1.333 
#    0.000    0.833    0.000    1.000    0.000    3.500 
#    0.000    2.667    0.000    0.167    0.000    0.000 
#
# Total GULP energy -1189426.120756 kJ/mol
# GULP energy per Si atom -12389.855425 kJ/mol
# Density = 1.868397 g / cm^3
# Si number density = 18.726589 Si / 1000 Ang^3
#
#
#
# Elastic Constant Matrix: (Units=GPa)
#
#
# Indices 1 2 3 4 5 6 
#
# 1 67.7365 16.3406 37.9821 0.0000 0.0000 0.0000
# 2 16.3406 67.7365 37.9821 0.0000 0.0000 0.0000
# 3 37.9821 37.9821 145.8400 0.0000 0.0000 0.0000
# 4 0.0000 0.0000 0.0000 25.7074 0.0000 0.0000
# 5 0.0000 0.0000 0.0000 0.0000 25.7074 0.0000
# 6 0.0000 0.0000 0.0000 0.0000 0.0000 15.3590
#
#
#
# Elastic Compliance Matrix: (Units=1/GPa)
#
#
# Indices 1 2 3 4 5 6 
#
# 1 0.017505 -0.001952 -0.004051 0.000000 0.000000 0.000000
# 2 -0.001952 0.017505 -0.004051 0.000000 0.000000 0.000000
# 3 -0.004051 -0.004051 0.008967 0.000000 0.000000 0.000000
# 4 0.000000 0.000000 0.000000 0.038899 0.000000 0.000000
# 5 0.000000 0.000000 0.000000 0.000000 0.038899 0.000000
# 6 0.000000 0.000000 0.000000 0.000000 0.000000 0.065108
#
#
# Mechanical properties :
#
#
# Convention : Reuss Voigt Hill
#
# Bulk Modulus (GPa) = 41.89153 51.76918 46.83035
# Shear Modulus (GPa) = 23.26151 25.95531 24.60841
#
# Velocity S-wave (km/s) = 3.52826 3.72696 3.62897
# Velocity P-wave (km/s) = 6.24634 6.79890 6.52847
#
# Compressibility (1/GPa) = 0.02387118
#
# Stress axis : x y z
#
# Youngs Moduli (GPa) = 57.12565 57.12565 111.52297
#
# Poissons Ratio (x) = 0.11148 0.45175
# Poissons Ratio (y) = 0.11148 0.45175
# Poissons Ratio (z) = 0.23140 0.23140
#
# Static dielectric constant tensor:
#      x y z
#    x 3.287360 0.000000 0.000000 
#    y 0.000000 3.287360 0.000000 
#    z 0.000000 0.000000 4.207350 
# 
# 
# High freq. dielectric constant tensor:
#      x y z
#    x 1.705280 0.000000 0.000000 
#    y 0.000000 1.705280 0.000000 
#    z 0.000000 0.000000 1.746290 
# 
# From -- ./inp_files/7496.got.cif
#   From: 2010.03.12/outbox.cif.g09.slc.cpg/sg136_4_cif.got.tgz:7496.got - 2010.04.06 18:39:43.
