data_PCOD8317012
_publ_section_title
;
Structure prediction by ZEFSAII (Michael W. Deem and Ramdas Pophale) SiO2 
 PCOD8317012
Probable space group: P 42/N B C
;
_chemical_formula_sum "Si O2"
_cell_formula_units_Z 52
_cell_length_a 14.559372
_cell_length_b 14.559372
_cell_length_c 9.429999
_cell_angle_alpha 90.000000
_cell_angle_beta 90.000000
_cell_angle_gamma 90.000000
_cell_volume 1998.926990
_symmetry_space_group_name_H-M "P 42/N B C"
_symmetry_group_IT_number 133
_space_group.IT_coordinate_system_code '2'
_symmetry_cell_setting 'tetragonal'
loop_
_space_group_symop_operation_xyz
x,y,z
1/2-y,x,1/2+z
1/2-x,1/2-y,z
y,1/2-x,1/2+z
x,1/2-y,-z
1/2-x,y,-z
y,x,1/2-z
1/2-y,1/2-x,1/2-z
-x,-y,-z
1/2+y,-x,1/2-z
1/2+x,1/2+y,-z
-y,1/2+x,1/2-z
-x,1/2+y,z
1/2+x,-y,z
-y,-x,1/2+z
1/2+y,1/2+x,1/2+z
loop_
_atom_site_type_symbol
_atom_site_label
_atom_site_fract_x
_atom_site_fract_y
_atom_site_fract_z
Si Si1 0.750000 0.250000 0.000000
Si Si2 0.982722 0.354745 0.473030
Si Si3 0.153300 0.907155 0.679852
Si Si4 0.320098 0.106309 0.384004
O O1 0.685423 0.193393 0.108572
O O2 0.009208 0.250000 0.500000
O O3 0.902087 0.358718 0.350545
O O4 0.947816 0.409677 0.610720
O O5 0.075972 0.406268 0.435148
O O6 0.210966 0.001714 0.654457
O O7 0.250000 0.147314 0.500000
O O8 0.323512 0.176489 0.250000
#
# Coordination Sequence:
#
# PCOD8317012 Si02
#       4
#     4  16  16  16
#     4  12  24  42  78 104 158 188 246 320 370 464
#     4  11  26  44  71 106 148 198 250 307 384 456
#     4  11  25  44  71 111 150 191 249 309 393 455
#     4  10  23  48  75 107 149 199 254 319 377 459
#
# _framework density 26.013957000000001
#
# number of rings (size 3 to 8) (size 9 to 14) (size 15 to 20)
#    0.000    1.231    3.077    0.923    4.308    1.846 
#    0.000   16.923    0.000    0.000    0.000    0.000 
#    0.000    0.000    0.000    0.000    0.000    0.000 
#
# Total GULP energy -644316.405800 kJ/mol
# GULP energy per Si atom -12390.700112 kJ/mol
# Density = 2.595475 g / cm^3
# Si number density = 26.013957 Si / 1000 Ang^3
#
#
#
# Elastic Constant Matrix: (Units=GPa)
#
#
# Indices 1 2 3 4 5 6 
#
# 1 98.9407 27.3530 51.2824 0.0000 0.0000 0.0000
# 2 27.3530 98.9398 51.2835 0.0000 0.0000 0.0000
# 3 51.2824 51.2835 114.8596 0.0000 0.0000 0.0000
# 4 0.0000 0.0000 0.0000 42.3440 0.0000 0.0000
# 5 0.0000 0.0000 0.0000 0.0000 42.3443 0.0000
# 6 0.0000 0.0000 0.0000 0.0000 0.0000 24.0656
#
#
#
# Elastic Compliance Matrix: (Units=1/GPa)
#
#
# Indices 1 2 3 4 5 6 
#
# 1 0.013196 -0.000773 -0.005546 0.000000 0.000000 0.000000
# 2 -0.000773 0.013196 -0.005547 0.000000 0.000000 0.000000
# 3 -0.005546 -0.005547 0.013659 0.000000 0.000000 0.000000
# 4 0.000000 0.000000 0.000000 0.023616 0.000000 0.000000
# 5 0.000000 0.000000 0.000000 0.000000 0.023616 0.000000
# 6 0.000000 0.000000 0.000000 0.000000 0.000000 0.041553
#
#
# Mechanical properties :
#
#
# Convention : Reuss Voigt Hill
#
# Bulk Modulus (GPa) = 61.28096 63.61978 62.45037
# Shear Modulus (GPa) = 31.64412 33.93887 32.79150
#
# Velocity S-wave (km/s) = 3.49152 3.61590 3.55425
# Velocity P-wave (km/s) = 6.31366 6.47627 6.39548
#
# Compressibility (1/GPa) = 0.01631828
#
# Stress axis : x y z
#
# Youngs Moduli (GPa) = 75.78303 75.78122 73.21139
#
# Poissons Ratio (x) = 0.05860 0.40605
# Poissons Ratio (y) = 0.05860 0.40607
# Poissons Ratio (z) = 0.42032 0.42033
#
# Static dielectric constant tensor:
#      x y z
#    x 4.511090 0.000000 0.000000 
#    y 0.000000 4.511090 0.000000 
#    z 0.000000 0.000000 5.342020 
# 
# 
# High freq. dielectric constant tensor:
#      x y z
#    x 2.037200 0.000000 0.000000 
#    y 0.000000 2.037200 0.000000 
#    z 0.000000 0.000000 2.052160 
# 
# From -- ./inp_files/1218.got.cif
#   From: 2010.03.12/outbox.cif.g09.slc.cpg/sg133_1_cif.got.tgz:1218.got - 2010.04.06 18:08:06.
