data_PCOD8317682
_publ_section_title
;
Structure prediction by ZEFSAII (Michael W. Deem and Ramdas Pophale) SiO2 
 PCOD8317682
Probable space group: P 42/M N M
;
_chemical_formula_sum "Si O2"
_cell_formula_units_Z 96
_cell_length_a 14.530877
_cell_length_b 14.530877
_cell_length_c 29.309427
_cell_angle_alpha 90.000000
_cell_angle_beta 90.000000
_cell_angle_gamma 90.000000
_cell_volume 6188.579598
_symmetry_space_group_name_H-M "P 42/M N M"
_symmetry_group_IT_number 136
_symmetry_cell_setting 'tetragonal'
loop_
_space_group_symop_operation_xyz
x,y,z
1/2-y,1/2+x,1/2+z
-x,-y,z
1/2+y,1/2-x,1/2+z
1/2+x,1/2-y,1/2-z
1/2-x,1/2+y,1/2-z
y,x,-z
-y,-x,-z
-x,-y,-z
1/2+y,1/2-x,1/2-z
x,y,-z
1/2-y,1/2+x,1/2-z
1/2-x,1/2+y,1/2+z
1/2+x,1/2-y,1/2+z
-y,-x,z
y,x,z
loop_
_atom_site_type_symbol
_atom_site_label
_atom_site_fract_x
_atom_site_fract_y
_atom_site_fract_z
Si Si1 0.646539 0.499945 0.875817
Si Si2 0.395352 0.031562 0.049879
Si Si3 0.382258 0.765942 0.814510
Si Si4 0.754048 0.605712 0.051668
Si Si5 0.450091 0.867601 0.265376
Si Si6 0.535011 0.894832 0.356324
O O1 0.579520 0.420481 0.894936
O O2 0.588512 0.588512 0.859666
O O3 0.701742 0.464902 0.831909
O O4 0.715319 0.525052 0.916584
O O5 0.383777 0.138613 0.061448
O O6 0.500000 0.000000 0.046477
O O7 0.349589 0.979488 0.093338
O O8 0.349027 0.009751 0.000000
O O9 0.284050 0.715951 0.820546
O O10 0.398301 0.784723 0.760576
O O11 0.383521 0.858707 0.844060
O O12 0.702682 0.702682 0.061437
O O13 0.736800 0.573411 0.000000
O O14 0.541558 0.886980 0.235443
O O15 0.474715 0.841909 0.317631
O O16 0.500000 0.000000 0.357043
#
# Coordination Sequence:
#
# PCOD8317682 Si02
#       6
#    16  16  16  16  16  16
#     4   9  17  28  41  58  85 125 162 186 223 279
#     4   9  17  27  44  68  89 115 151 187 228 273
#     4  10  19  30  44  67  96 120 151 200 239 267
#     4   9  17  28  41  62  93 122 153 197 235 266
#     4   9  15  28  46  64  81 115 153 182 224 270
#     4  10  16  29  51  65  85 122 155 186 227 276
#
# _framework density 15.512445
#
# number of rings (size 3 to 8) (size 9 to 14) (size 15 to 20)
#    0.000    2.667    3.333    2.000    0.000    0.333 
#    0.000    5.833    0.000    1.500    0.000    0.000 
#    0.000    6.000    0.000    4.167    0.000    3.000 
#
# Total GULP energy -1189440.326253 kJ/mol
# GULP energy per Si atom -12390.003398 kJ/mol
# Density = 1.547714 g / cm^3
# Si number density = 15.512445 Si / 1000 Ang^3
#
#
#
# Elastic Constant Matrix: (Units=GPa)
#
#
# Indices 1 2 3 4 5 6 
#
# 1 67.9960 31.3566 38.7968 0.0000 0.0000 0.0000
# 2 31.3566 67.9960 38.7968 0.0000 0.0000 0.0000
# 3 38.7968 38.7968 130.9333 0.0000 0.0000 0.0000
# 4 0.0000 0.0000 0.0000 19.2236 0.0000 0.0000
# 5 0.0000 0.0000 0.0000 0.0000 19.2236 0.0000
# 6 0.0000 0.0000 0.0000 0.0000 0.0000 16.8392
#
#
#
# Elastic Compliance Matrix: (Units=1/GPa)
#
#
# Indices 1 2 3 4 5 6 
#
# 1 0.020194 -0.007099 -0.003880 0.000000 0.000000 0.000000
# 2 -0.007099 0.020194 -0.003880 0.000000 0.000000 0.000000
# 3 -0.003880 -0.003880 0.009937 0.000000 0.000000 0.000000
# 4 0.000000 0.000000 0.000000 0.052019 0.000000 0.000000
# 5 0.000000 0.000000 0.000000 0.000000 0.052019 0.000000
# 6 0.000000 0.000000 0.000000 0.000000 0.000000 0.059385
#
#
# Mechanical properties :
#
#
# Convention : Reuss Voigt Hill
#
# Bulk Modulus (GPa) = 48.52730 53.86950 51.19840
# Shear Modulus (GPa) = 19.97302 21.58895 20.78098
#
# Velocity S-wave (km/s) = 3.59213 3.73462 3.66407
# Velocity P-wave (km/s) = 6.96816 7.30743 7.13981
#
# Compressibility (1/GPa) = 0.02060696
#
# Stress axis : x y z
#
# Youngs Moduli (GPa) = 49.51871 49.51871 100.63332
#
# Poissons Ratio (x) = 0.35152 0.39050
# Poissons Ratio (y) = 0.35152 0.39050
# Poissons Ratio (z) = 0.19215 0.19215
#
# Static dielectric constant tensor:
#      x y z
#    x 2.848580 0.000000 0.000000 
#    y 0.000000 2.848580 0.000000 
#    z 0.000000 0.000000 3.484010 
# 
# 
# High freq. dielectric constant tensor:
#      x y z
#    x 1.568940 0.000000 0.000000 
#    y 0.000000 1.568940 0.000000 
#    z 0.000000 0.000000 1.606780 
# 
# From -- ./inp_files/9866.got.cif
#   From: 2010.03.12/outbox.cif.g09.slc.cpg/sg136_5_cif.got.tgz:9866.got - 2010.04.06 18:39:43.
