data_PCOD8317749
_publ_section_title
;
Structure prediction by ZEFSAII (Michael W. Deem and Ramdas Pophale) SiO2 
 PCOD8317749
Probable space group: P 42/M N M
;
_chemical_formula_sum "Si O2"
_cell_formula_units_Z 104
_cell_length_a 21.899072
_cell_length_b 21.899072
_cell_length_c 13.535353
_cell_angle_alpha 90.000000
_cell_angle_beta 90.000000
_cell_angle_gamma 90.000000
_cell_volume 6491.140501
_symmetry_space_group_name_H-M "P 42/M N M"
_symmetry_group_IT_number 136
_symmetry_cell_setting 'tetragonal'
loop_
_space_group_symop_operation_xyz
x,y,z
1/2-y,1/2+x,1/2+z
-x,-y,z
1/2+y,1/2-x,1/2+z
1/2+x,1/2-y,1/2-z
1/2-x,1/2+y,1/2-z
y,x,-z
-y,-x,-z
-x,-y,-z
1/2+y,1/2-x,1/2-z
x,y,-z
1/2-y,1/2+x,1/2-z
1/2-x,1/2+y,1/2+z
1/2+x,1/2-y,1/2+z
-y,-x,z
y,x,z
loop_
_atom_site_type_symbol
_atom_site_label
_atom_site_fract_x
_atom_site_fract_y
_atom_site_fract_z
Si Si1 0.534694 0.373487 0.383809
Si Si2 0.191464 0.294076 0.889900
Si Si3 0.385365 0.713194 0.735876
Si Si4 0.283897 0.386948 0.187104
Si Si5 0.519384 0.315133 0.114477
Si Si6 0.951260 0.951260 0.381948
Si Si7 0.912864 0.185431 0.107628
O O1 0.536252 0.377776 0.500000
O O2 0.562096 0.437905 0.340159
O O3 0.578375 0.318274 0.353181
O O4 0.465716 0.359809 0.350865
O O5 0.239954 0.239954 0.890954
O O6 0.139643 0.276971 0.809454
O O7 0.224014 0.356900 0.859207
O O8 0.163725 0.302473 0.000000
O O9 0.329656 0.670345 0.773945
O O10 0.432458 0.727229 0.825692
O O11 0.343378 0.343378 0.176544
O O12 0.296071 0.449551 0.129457
O O13 0.267689 0.400249 0.302917
O O14 0.530328 0.383808 0.156688
O O15 0.536106 0.310070 0.000000
O O16 0.951438 0.951438 0.500000
O O17 0.000000 0.000000 0.341344
O O18 0.852507 0.147493 0.089427
O O19 0.929808 0.216053 0.000000
#
# Coordination Sequence:
#
# PCOD8317749 Si02
#       7
#    16  16  16  16  16   8  16
#     4   9  16  26  41  60  83 115 154 192 230 267
#     4   9  18  32  50  69  88 115 160 210 248 285
#     4  10  18  30  45  64  89 119 156 202 246 284
#     4  10  19  32  48  68  94 128 164 201 241 283
#     4  11  20  30  44  66  96 129 166 201 239 285
#     4   9  18  30  42  60  91 133 173 201 224 271
#     4   9  17  28  41  60  89 122 156 192 229 275
#
# _framework density 16.021837000000001
#
# number of rings (size 3 to 8) (size 9 to 14) (size 15 to 20)
#    0.000    2.385    2.308    1.385    0.000    3.692 
#    0.000    2.308    0.000    2.769    0.000    0.000 
#    0.000    0.615    0.000    2.923    0.000    0.000 
#
# Total GULP energy -1288661.621651 kJ/mol
# GULP energy per Si atom -12390.977131 kJ/mol
# Density = 1.598537 g / cm^3
# Si number density = 16.021837 Si / 1000 Ang^3
#
#
#
# Elastic Constant Matrix: (Units=GPa)
#
#
# Indices 1 2 3 4 5 6 
#
# 1 55.3911 30.3627 39.5660 0.0000 0.0000 0.0000
# 2 30.3627 55.3911 39.5660 0.0000 0.0000 0.0000
# 3 39.5660 39.5660 69.5318 0.0000 0.0000 0.0000
# 4 0.0000 0.0000 0.0000 21.0598 0.0000 0.0000
# 5 0.0000 0.0000 0.0000 0.0000 21.0598 0.0000
# 6 0.0000 0.0000 0.0000 0.0000 0.0000 23.8706
#
#
#
# Elastic Compliance Matrix: (Units=1/GPa)
#
#
# Indices 1 2 3 4 5 6 
#
# 1 0.032255 -0.007700 -0.013973 0.000000 0.000000 0.000000
# 2 -0.007700 0.032255 -0.013973 0.000000 0.000000 0.000000
# 3 -0.013973 -0.013973 0.030284 0.000000 0.000000 0.000000
# 4 0.000000 0.000000 0.000000 0.047484 0.000000 0.000000
# 5 0.000000 0.000000 0.000000 0.000000 0.047484 0.000000
# 6 0.000000 0.000000 0.000000 0.000000 0.000000 0.041893
#
#
# Mechanical properties :
#
#
# Convention : Reuss Voigt Hill
#
# Bulk Modulus (GPa) = 42.54751 44.36706 43.45729
# Shear Modulus (GPa) = 16.08866 17.91933 17.00399
#
# Velocity S-wave (km/s) = 3.17230 3.34792 3.26130
# Velocity P-wave (km/s) = 6.32705 6.53426 6.43149
#
# Compressibility (1/GPa) = 0.02350314
#
# Stress axis : x y z
#
# Youngs Moduli (GPa) = 31.00317 31.00317 33.02106
#
# Poissons Ratio (x) = 0.23872 0.46139
# Poissons Ratio (y) = 0.23872 0.46139
# Poissons Ratio (z) = 0.43320 0.43320
#
# Static dielectric constant tensor:
#      x y z
#    x 2.463040 0.000000 0.000000 
#    y 0.000000 2.463040 0.000000 
#    z 0.000000 0.000000 2.886750 
# 
# 
# High freq. dielectric constant tensor:
#      x y z
#    x 1.573940 0.000000 0.000000 
#    y 0.000000 1.573940 0.000000 
#    z 0.000000 0.000000 1.640560 
# 
# From -- ./inp_files/5280.got.cif
#   From: 2010.03.12/outbox.cif.g09.slc.cpg/sg136_3_cif.got.tgz:5280.got - 2010.04.06 18:39:43.
