data_PCOD8317057
_publ_section_title
;
Structure prediction by ZEFSAII (Michael W. Deem and Ramdas Pophale) SiO2 
 PCOD8317057
Probable space group: P 42/N B C
;
_chemical_formula_sum "Si O2"
_cell_formula_units_Z 32
_cell_length_a 9.879476
_cell_length_b 9.879476
_cell_length_c 11.341518
_cell_angle_alpha 90.000000
_cell_angle_beta 90.000000
_cell_angle_gamma 90.000000
_cell_volume 1106.978045
_symmetry_space_group_name_H-M "P 42/N B C"
_symmetry_group_IT_number 133
_space_group.IT_coordinate_system_code '2'
_symmetry_cell_setting 'tetragonal'
loop_
_space_group_symop_operation_xyz
x,y,z
1/2-y,x,1/2+z
1/2-x,1/2-y,z
y,1/2-x,1/2+z
x,1/2-y,-z
1/2-x,y,-z
y,x,1/2-z
1/2-y,1/2-x,1/2-z
-x,-y,-z
1/2+y,-x,1/2-z
1/2+x,1/2+y,-z
-y,1/2+x,1/2-z
-x,1/2+y,z
1/2+x,-y,z
-y,-x,1/2+z
1/2+y,1/2+x,1/2+z
loop_
_atom_site_type_symbol
_atom_site_label
_atom_site_fract_x
_atom_site_fract_y
_atom_site_fract_z
Si Si1 0.145328 0.986329 0.601616
Si Si2 0.231326 0.050236 0.170717
O O1 0.250000 0.947561 0.500000
O O2 0.105105 0.145177 0.589894
O O3 0.203188 0.950312 0.731359
O O4 0.016508 0.885340 0.588524
O O5 0.169075 0.169075 0.250000
#
# Coordination Sequence:
#
# PCOD8317057 Si02
#       2
#    16  16
#     4  11  26  53  84 122 175 231 285 363 436 512
#     4  11  24  54  82 124 175 221 293 359 429 524
#
# _framework density 28.907527999999999
#
# number of rings (size 3 to 8) (size 9 to 14) (size 15 to 20)
#    0.000    1.000    5.000    3.000    0.000    7.000 
#   18.000    5.000    0.000    0.000    0.000    0.000 
#    0.000    0.000    0.000    0.000    0.000    0.000 
#
# Total GULP energy -396562.239045 kJ/mol
# GULP energy per Si atom -12392.569970 kJ/mol
# Density = 2.884173 g / cm^3
# Si number density = 28.907528 Si / 1000 Ang^3
#
#
#
# Elastic Constant Matrix: (Units=GPa)
#
#
# Indices 1 2 3 4 5 6 
#
# 1 169.3453 117.2200 32.8801 0.0000 0.0000 0.0000
# 2 117.2200 169.3453 32.8801 0.0000 0.0000 0.0000
# 3 32.8801 32.8801 80.2754 0.0000 0.0000 0.0000
# 4 0.0000 0.0000 0.0000 21.9683 0.0000 0.0000
# 5 0.0000 0.0000 0.0000 0.0000 21.9683 0.0000
# 6 0.0000 0.0000 0.0000 0.0000 0.0000 64.4265
#
#
#
# Elastic Compliance Matrix: (Units=1/GPa)
#
#
# Indices 1 2 3 4 5 6 
#
# 1 0.011518 -0.007666 -0.001578 0.000000 0.000000 0.000000
# 2 -0.007666 0.011518 -0.001578 0.000000 0.000000 0.000000
# 3 -0.001578 -0.001578 0.013749 0.000000 0.000000 0.000000
# 4 0.000000 0.000000 0.000000 0.045520 0.000000 0.000000
# 5 0.000000 0.000000 0.000000 0.000000 0.045520 0.000000
# 6 0.000000 0.000000 0.000000 0.000000 0.000000 0.015522
#
#
# Mechanical properties :
#
#
# Convention : Reuss Voigt Hill
#
# Bulk Modulus (GPa) = 66.04003 87.21404 76.62703
# Shear Modulus (GPa) = 29.40516 37.40502 33.40509
#
# Velocity S-wave (km/s) = 3.19284 3.60106 3.40308
# Velocity P-wave (km/s) = 6.04046 6.89389 6.48124
#
# Compressibility (1/GPa) = 0.01514233
#
# Stress axis : x y z
#
# Youngs Moduli (GPa) = 86.82003 86.82003 72.73019
#
# Poissons Ratio (x) = 0.66560 0.11474
# Poissons Ratio (y) = 0.66560 0.11474
# Poissons Ratio (z) = 0.13697 0.13697
#
# Static dielectric constant tensor:
#      x y z
#    x 5.846390 0.000000 0.000000 
#    y 0.000000 5.846390 0.000000 
#    z 0.000000 0.000000 135.590230 
# 
# 
# High freq. dielectric constant tensor:
#      x y z
#    x 2.172210 0.000000 0.000000 
#    y 0.000000 2.172210 0.000000 
#    z 0.000000 0.000000 2.194690 
# 
# From -- ./inp_files/2239.got.cif
#   From: 2010.03.12/outbox.cif.g09.slc.cpg/sg133_2_cif.got.tgz:2239.got - 2010.04.06 18:08:06.
