data_PCOD8317617
_publ_section_title
;
Structure prediction by ZEFSAII (Michael W. Deem and Ramdas Pophale) SiO2 
 PCOD8317617
Probable space group: P 42/M B C
;
_chemical_formula_sum "Si O2"
_cell_formula_units_Z 88
_cell_length_a 17.641197
_cell_length_b 17.641197
_cell_length_c 12.824947
_cell_angle_alpha 90.000000
_cell_angle_beta 90.000000
_cell_angle_gamma 90.000000
_cell_volume 3991.275246
_symmetry_space_group_name_H-M "P 42/M B C"
_symmetry_group_IT_number 135
_symmetry_cell_setting 'tetragonal'
loop_
_space_group_symop_operation_xyz
x,y,z
-y,x,1/2+z
-x,-y,z
y,-x,1/2+z
1/2+x,1/2-y,-z
1/2-x,1/2+y,-z
1/2+y,1/2+x,1/2-z
1/2-y,1/2-x,1/2-z
-x,-y,-z
y,-x,1/2-z
x,y,-z
-y,x,1/2-z
1/2-x,1/2+y,z
1/2+x,1/2-y,z
1/2-y,1/2-x,1/2+z
1/2+y,1/2+x,1/2+z
loop_
_atom_site_type_symbol
_atom_site_label
_atom_site_fract_x
_atom_site_fract_y
_atom_site_fract_z
Si Si1 0.189604 0.802847 0.780144
Si Si2 0.447254 0.246655 0.666910
Si Si3 0.879889 0.162649 0.000000
Si Si4 0.506237 0.640445 0.500000
Si Si5 0.159418 0.948598 0.500000
Si Si6 0.928037 0.728034 0.172990
Si Si7 0.057448 0.619678 0.500000
Si Si8 0.890768 0.551222 0.500000
O O1 0.220360 0.720360 0.750000
O O2 0.117518 0.804610 0.704662
O O3 0.167060 0.808837 0.900942
O O4 0.257274 0.862875 0.758321
O O5 0.496205 0.303818 0.598269
O O6 0.492479 0.219373 0.768271
O O7 0.422824 0.171347 0.601345
O O8 0.965293 0.191598 0.000000
O O9 0.900617 0.073667 0.000000
O O10 0.571119 0.575375 0.500000
O O11 0.196719 0.916161 0.603985
O O12 0.919450 0.652728 0.103153
O O13 0.105299 0.541182 0.500000
O O14 0.970051 0.594360 0.500000
#
# Coordination Sequence:
#
# PCOD8317617 Si02
#       8
#    16  16   8   8   8  16   8   8
#     4  12  28  43  71 103 138 181 231 288 350 421
#     4  11  24  43  69  98 140 181 229 285 351 404
#     4  12  25  44  66 102 138 180 237 284 344 414
#     4  11  22  41  68  97 136 183 228 278 340 416
#     4  11  22  41  68  97 136 183 228 278 340 416
#     4  11  24  43  69  98 140 181 229 285 351 404
#     4  10  26  46  71 102 137 182 240 290 341 417
#     4  10  26  46  71 102 137 182 240 290 341 417
#
# _framework density 22.048092
#
# number of rings (size 3 to 8) (size 9 to 14) (size 15 to 20)
#    0.000    0.909    5.455    0.273    5.091    2.909 
#    0.000    1.818    0.000    0.000    0.000    0.000 
#    0.000    0.000    0.000    0.000    0.000    0.000 
#
# Total GULP energy -1090293.453046 kJ/mol
# GULP energy per Si atom -12389.698330 kJ/mol
# Density = 2.199791 g / cm^3
# Si number density = 22.048092 Si / 1000 Ang^3
#
#
#
# Elastic Constant Matrix: (Units=GPa)
#
#
# Indices 1 2 3 4 5 6 
#
# 1 85.0848 20.0483 39.0456 0.0000 0.0000 0.0000
# 2 20.0483 85.0848 39.0456 0.0000 0.0000 0.0000
# 3 39.0456 39.0456 125.0330 0.0000 0.0000 0.0000
# 4 0.0000 0.0000 0.0000 -50.5630 0.0000 0.0000
# 5 0.0000 0.0000 0.0000 0.0000 -50.5630 0.0000
# 6 0.0000 0.0000 0.0000 0.0000 0.0000 37.8633
#
#
#
# Elastic Compliance Matrix: (Units=1/GPa)
#
#
# Indices 1 2 3 4 5 6 
#
# 1 0.013880 -0.001496 -0.003867 0.000000 0.000000 0.000000
# 2 -0.001496 0.013880 -0.003867 0.000000 0.000000 0.000000
# 3 -0.003867 -0.003867 0.010413 0.000000 0.000000 0.000000
# 4 0.000000 0.000000 0.000000 -0.019777 0.000000 0.000000
# 5 0.000000 0.000000 0.000000 0.000000 -0.019777 0.000000
# 6 0.000000 0.000000 0.000000 0.000000 0.000000 0.026411
#
#
# Mechanical properties :
#
#
# Convention : Reuss Voigt Hill
#
# Bulk Modulus (GPa) = 50.72938 54.60908 52.66923
# Shear Modulus (GPa) = 99.87600 0.48499 50.18050
#
# Velocity S-wave (km/s) = 6.73777 0.46952 4.77587
# Velocity P-wave (km/s) = 9.14267 5.01157 7.37239
#
# Compressibility (1/GPa) = 0.01971244
#
# Stress axis : x y z
#
# Youngs Moduli (GPa) = 72.04509 72.04509 96.03056
#
# Poissons Ratio (x) = 0.10776 0.37139
# Poissons Ratio (y) = 0.10776 0.37139
# Poissons Ratio (z) = 0.27863 0.27863
#
# Static dielectric constant tensor:
#      x y z
#    x 3.837710 0.000000 0.000000 
#    y 0.000000 3.837710 0.000000 
#    z 0.000000 0.000000 3.929520 
# 
# 
# High freq. dielectric constant tensor:
#      x y z
#    x 1.868770 0.000000 0.000000 
#    y 0.000000 1.868770 0.000000 
#    z 0.000000 0.000000 1.877860 
# 
# From -- ./inp_files/3562.got.cif
#   From: 2010.03.12/outbox.cif.g09.slc.cpg/sg135_2_cif.got.tgz:3562.got - 2010.04.06 18:31:24.
