data_PCOD8317272
_publ_section_title
;
Structure prediction by ZEFSAII (Michael W. Deem and Ramdas Pophale) SiO2 
 PCOD8317272
Probable space group: P 42/N N M
;
_chemical_formula_sum "Si O2"
_cell_formula_units_Z 96
_cell_length_a 14.010109
_cell_length_b 14.010109
_cell_length_c 22.864095
_cell_angle_alpha 90.000000
_cell_angle_beta 90.000000
_cell_angle_gamma 90.000000
_cell_volume 4487.836684
_symmetry_space_group_name_H-M "P 42/N N M"
_symmetry_group_IT_number 134
_space_group.IT_coordinate_system_code '2'
_symmetry_cell_setting 'tetragonal'
loop_
_space_group_symop_operation_xyz
x,y,z
1/2-y,x,1/2+z
1/2-x,1/2-y,z
y,1/2-x,1/2+z
x,1/2-y,1/2-z
1/2-x,y,1/2-z
y,x,-z
1/2-y,1/2-x,-z
-x,-y,-z
1/2+y,-x,1/2-z
1/2+x,1/2+y,-z
-y,1/2+x,1/2-z
-x,1/2+y,1/2+z
1/2+x,-y,1/2+z
-y,-x,z
1/2+y,1/2+x,z
loop_
_atom_site_type_symbol
_atom_site_label
_atom_site_fract_x
_atom_site_fract_y
_atom_site_fract_z
Si Si1 0.427674 0.412498 0.717999
Si Si2 0.785916 0.063397 0.311909
Si Si3 0.112018 0.460481 0.345107
Si Si4 0.698372 0.452422 0.629213
Si Si5 0.000817 0.653071 0.997328
Si Si6 0.489493 0.837302 0.583933
O O1 0.505317 0.494684 0.723564
O O2 0.328467 0.456976 0.696284
O O3 0.414074 0.362654 0.781779
O O4 0.460523 0.338286 0.668908
O O5 0.750000 0.102880 0.250000
O O6 0.864947 0.135054 0.337544
O O7 0.699632 0.059608 0.356920
O O8 0.188108 0.542568 0.362498
O O9 0.010074 0.510074 0.338474
O O10 0.093019 0.382569 0.397073
O O11 0.649044 0.350957 0.648319
O O12 0.676286 0.469256 0.562414
O O13 0.080208 0.580208 0.969921
O O14 0.993751 0.750537 0.960749
O O15 0.897960 0.602041 0.000000
O O16 0.417167 0.917167 0.556415
#
# Coordination Sequence:
#
# PCOD8317272 Si02
#       6
#    16  16  16  16  16  16
#     4   9  18  36  59  84 120 159 196 249 316 378
#     4  11  20  33  56  86 120 160 202 245 301 378
#     4  10  21  38  59  87 124 159 195 254 331 387
#     4  10  21  38  63  87 109 154 214 262 309 372
#     4  10  22  42  64  87 121 166 211 257 311 370
#     4  11  23  39  60  90 129 169 208 257 322 390
#
# _framework density 21.391151000000001
#
# number of rings (size 3 to 8) (size 9 to 14) (size 15 to 20)
#    0.000    1.833    1.667    2.500    0.000    6.500 
#    0.000    7.500    0.000    3.000    0.000    0.000 
#    0.000    0.000    0.000    0.000    0.000    0.000 
#
# Total GULP energy -1189679.988275 kJ/mol
# GULP energy per Si atom -12392.499878 kJ/mol
# Density = 2.134246 g / cm^3
# Si number density = 21.391151 Si / 1000 Ang^3
#
#
#
# Elastic Constant Matrix: (Units=GPa)
#
#
# Indices 1 2 3 4 5 6 
#
# 1 85.5274 51.0501 35.1116 0.0000 0.0000 0.0000
# 2 51.0501 85.5282 35.1115 0.0000 0.0000 0.0000
# 3 35.1116 35.1115 91.7028 0.0000 0.0000 0.0000
# 4 0.0000 0.0000 0.0000 35.7009 0.0000 0.0000
# 5 0.0000 0.0000 0.0000 0.0000 35.7010 0.0000
# 6 0.0000 0.0000 0.0000 0.0000 0.0000 33.3647
#
#
#
# Elastic Compliance Matrix: (Units=1/GPa)
#
#
# Indices 1 2 3 4 5 6 
#
# 1 0.019061 -0.009944 -0.003491 0.000000 0.000000 0.000000
# 2 -0.009944 0.019060 -0.003491 0.000000 0.000000 0.000000
# 3 -0.003491 -0.003491 0.013578 0.000000 0.000000 0.000000
# 4 0.000000 0.000000 0.000000 0.028010 0.000000 0.000000
# 5 0.000000 0.000000 0.000000 0.000000 0.028010 0.000000
# 6 0.000000 0.000000 0.000000 0.000000 0.000000 0.029972
#
#
# Mechanical properties :
#
#
# Convention : Reuss Voigt Hill
#
# Bulk Modulus (GPa) = 56.02700 56.14499 56.08600
# Shear Modulus (GPa) = 28.17046 30.38566 29.27806
#
# Velocity S-wave (km/s) = 3.63288 3.77301 3.70361
# Velocity P-wave (km/s) = 6.62160 6.72939 6.67571
#
# Compressibility (1/GPa) = 0.01784854
#
# Stress axis : x y z
#
# Youngs Moduli (GPa) = 52.46448 52.46509 73.64974
#
# Poissons Ratio (x) = 0.52171 0.25709
# Poissons Ratio (y) = 0.52170 0.25708
# Poissons Ratio (z) = 0.18313 0.18313
#
# Static dielectric constant tensor:
#      x y z
#    x 3.865520 0.000000 0.000000 
#    y 0.000000 3.865520 0.000000 
#    z 0.000000 0.000000 3.845320 
# 
# 
# High freq. dielectric constant tensor:
#      x y z
#    x 1.826900 0.000000 0.000000 
#    y 0.000000 1.826900 0.000000 
#    z 0.000000 0.000000 1.841200 
# 
# From -- ./inp_files/9148.got.cif
#   From: 2010.03.12/outbox.cif.g09.slc.cpg/sg134_5_cif.got.tgz:9148.got - 2010.04.06 18:17:22.
