data_PCOD8317669
_publ_section_title
;
Structure prediction by ZEFSAII (Michael W. Deem and Ramdas Pophale) SiO2 
 PCOD8317669
Probable space group: P 42/M N M
;
_chemical_formula_sum "Si O2"
_cell_formula_units_Z 112
_cell_length_a 32.675266
_cell_length_b 32.675266
_cell_length_c 9.190965
_cell_angle_alpha 90.000000
_cell_angle_beta 90.000000
_cell_angle_gamma 90.000000
_cell_volume 9812.945250
_symmetry_space_group_name_H-M "P 42/M N M"
_symmetry_group_IT_number 136
_symmetry_cell_setting 'tetragonal'
loop_
_space_group_symop_operation_xyz
x,y,z
1/2-y,1/2+x,1/2+z
-x,-y,z
1/2+y,1/2-x,1/2+z
1/2+x,1/2-y,1/2-z
1/2-x,1/2+y,1/2-z
y,x,-z
-y,-x,-z
-x,-y,-z
1/2+y,1/2-x,1/2-z
x,y,-z
1/2-y,1/2+x,1/2-z
1/2-x,1/2+y,1/2+z
1/2+x,1/2-y,1/2+z
-y,-x,z
y,x,z
loop_
_atom_site_type_symbol
_atom_site_label
_atom_site_fract_x
_atom_site_fract_y
_atom_site_fract_z
Si Si1 0.723246 0.723246 0.673008
Si Si2 0.901566 0.671153 0.338018
Si Si3 0.217398 0.217398 0.169066
Si Si4 0.224280 0.336618 0.164189
Si Si5 0.891292 0.452335 0.329159
Si Si6 0.149703 0.273163 0.160793
Si Si7 0.047314 0.604965 0.169795
Si Si8 0.828113 0.607253 0.338847
O O1 0.719442 0.719442 0.500000
O O2 0.756813 0.756813 0.715234
O O3 0.679759 0.737382 0.741008
O O4 0.918320 0.679406 0.500000
O O5 0.937239 0.651186 0.241429
O O6 0.886393 0.714472 0.271123
O O7 0.863382 0.641079 0.340295
O O8 0.169223 0.228086 0.195156
O O9 0.229161 0.229161 0.000000
O O10 0.187804 0.304060 0.169215
O O11 0.208106 0.379675 0.230052
O O12 0.239100 0.344641 0.000000
O O13 0.889356 0.443476 0.500000
O O14 0.930700 0.429984 0.263086
O O15 0.896130 0.499852 0.292909
O O16 0.130304 0.274050 0.000000
O O17 0.064990 0.650060 0.210952
O O18 0.056317 0.596134 0.000000
O O19 0.809100 0.602885 0.500000
#
# Coordination Sequence:
#
# PCOD8317669 Si02
#       8
#     8  16   8  16  16  16  16  16
#     4  10  16  20  28  42  60  82 102 116 134 156
#     4   9  16  25  36  49  64  79  95 116 140 168
#     4   8  14  22  30  42  60  80 100 120 136 152
#     4   9  15  22  31  44  61  78  97 118 136 156
#     4  10  19  30  43  54  63  77  95 116 147 186
#     4   8  13  21  32  45  61  80 100 118 136 159
#     4   9  19  32  42  53  66  77  92 117 148 184
#     4   8  14  25  37  47  60  76  93 113 138 169
#
# _framework density 11.413494999999999
#
# number of rings (size 3 to 8) (size 9 to 14) (size 15 to 20)
#    0.000    3.143    0.000    3.643    0.000    8.286 
#    0.000    1.429    0.000    0.000    0.000    0.000 
#    0.000    0.000    0.000    0.000    0.000    0.000 
#
# Total GULP energy -1387799.542026 kJ/mol
# GULP energy per Si atom -12391.067340 kJ/mol
# Density = 1.138752 g / cm^3
# Si number density = 11.413495 Si / 1000 Ang^3
#
#
#
# Elastic Constant Matrix: (Units=GPa)
#
#
# Indices 1 2 3 4 5 6 
#
# 1 42.0872 42.1707 39.2109 0.0000 0.0000 0.0000
# 2 42.1707 42.0872 39.2109 0.0000 0.0000 0.0000
# 3 39.2109 39.2109 89.2279 0.0000 0.0000 0.0000
# 4 0.0000 0.0000 0.0000 14.7124 0.0000 0.0000
# 5 0.0000 0.0000 0.0000 0.0000 14.7124 0.0000
# 6 0.0000 0.0000 0.0000 0.0000 0.0000 12.9142
#
#
#
# Elastic Compliance Matrix: (Units=1/GPa)
#
#
# Indices 1 2 3 4 5 6 
#
# 1 -5.976845 5.996927 -0.008825 0.000000 0.000000 0.000000
# 2 5.996927 -5.976845 -0.008825 0.000000 0.000000 0.000000
# 3 -0.008825 -0.008825 0.018963 0.000000 0.000000 0.000000
# 4 0.000000 0.000000 0.000000 0.067970 0.000000 0.000000
# 5 0.000000 0.000000 0.000000 0.000000 0.067970 0.000000
# 6 0.000000 0.000000 0.000000 0.000000 0.000000 0.077434
#
#
# Mechanical properties :
#
#
# Convention : Reuss Voigt Hill
#
# Bulk Modulus (GPa) = 41.96808 46.06523 44.01665
# Shear Modulus (GPa) = -0.21122 11.98846 5.88862
#
# Velocity S-wave (km/s) = -0.43065 3.24447 2.27388
# Velocity P-wave (km/s) = 6.05005 7.38128 6.74857
#
# Compressibility (1/GPa) = 0.02382763
#
# Stress axis : x y z
#
# Youngs Moduli (GPa) = -0.16731 -0.16731 52.73297
#
# Poissons Ratio (x) = 1.00336 0.46537
# Poissons Ratio (y) = 1.00336 0.46537
# Poissons Ratio (z) = -0.00148 -0.00148
#
# Static dielectric constant tensor:
#      x y z
#    x 2.319330 0.000000 0.000000 
#    y 0.000000 2.319330 0.000000 
#    z 0.000000 0.000000 2.573520 
# 
# 
# High freq. dielectric constant tensor:
#      x y z
#    x 1.393210 0.000000 0.000000 
#    y 0.000000 1.393210 0.000000 
#    z 0.000000 0.000000 1.447120 
# 
# From -- ./inp_files/2424.got.cif
#   From: 2010.03.12/outbox.cif.g09.slc.cpg/sg136_2_cif.got.tgz:2424.got - 2010.04.06 18:39:43.
