data_PCOD8317784
_publ_section_title
;
Structure prediction by ZEFSAII (Michael W. Deem and Ramdas Pophale) SiO2 
 PCOD8317784
Probable space group: P 42/M N M
;
_chemical_formula_sum "Si O2"
_cell_formula_units_Z 96
_cell_length_a 23.508152
_cell_length_b 23.508152
_cell_length_c 9.660255
_cell_angle_alpha 90.000000
_cell_angle_beta 90.000000
_cell_angle_gamma 90.000000
_cell_volume 5338.577734
_symmetry_space_group_name_H-M "P 42/M N M"
_symmetry_group_IT_number 136
_symmetry_cell_setting 'tetragonal'
loop_
_space_group_symop_operation_xyz
x,y,z
1/2-y,1/2+x,1/2+z
-x,-y,z
1/2+y,1/2-x,1/2+z
1/2+x,1/2-y,1/2-z
1/2-x,1/2+y,1/2-z
y,x,-z
-y,-x,-z
-x,-y,-z
1/2+y,1/2-x,1/2-z
x,y,-z
1/2-y,1/2+x,1/2-z
1/2-x,1/2+y,1/2+z
1/2+x,1/2-y,1/2+z
-y,-x,z
y,x,z
loop_
_atom_site_type_symbol
_atom_site_label
_atom_site_fract_x
_atom_site_fract_y
_atom_site_fract_z
Si Si1 0.692402 0.834750 0.338777
Si Si2 0.869339 0.219723 0.163951
Si Si3 0.498915 0.272842 0.343015
Si Si4 0.896680 0.806213 0.341016
Si Si5 0.106805 0.606793 0.344981
Si Si6 0.644152 0.012227 0.850368
O O1 0.678237 0.841989 0.500000
O O2 0.669353 0.773269 0.285777
O O3 0.758633 0.847993 0.309340
O O4 0.660602 0.881960 0.250371
O O5 0.837732 0.162269 0.215057
O O6 0.934476 0.219837 0.219334
O O7 0.871814 0.222467 0.000000
O O8 0.501992 0.297086 0.500000
O O9 0.546308 0.304367 0.251230
O O10 0.514576 0.206655 0.341481
O O11 0.916336 0.800394 0.500000
O O12 0.866849 0.866849 0.312921
O O13 0.114750 0.631107 0.500000
O O14 0.098779 0.538819 0.346914
O O15 0.051859 0.635521 0.279952
O O16 0.638187 0.044545 0.000000
#
# Coordination Sequence:
#
# PCOD8317784 Si02
#       6
#    16  16  16  16  16  16
#     4  10  18  32  54  79 108 139 170 213 265 312
#     4   9  17  31  54  81 105 133 172 215 259 311
#     4  10  19  34  55  78 106 139 172 213 265 316
#     4  10  21  35  54  82 111 141 179 217 257 313
#     4  11  22  34  52  75 102 137 181 224 260 307
#     4  10  21  37  52  72 103 140 182 221 263 312
#
# _framework density 17.982316999999998
#
# number of rings (size 3 to 8) (size 9 to 14) (size 15 to 20)
#    0.000    2.000    3.333    1.000    0.000    4.667 
#    0.000    1.667    0.000    3.500    0.000    3.500 
#    0.000    0.000    0.000    0.000    0.000    0.000 
#
# Total GULP energy -1189584.645322 kJ/mol
# GULP energy per Si atom -12391.506722 kJ/mol
# Density = 1.794139 g / cm^3
# Si number density = 17.982317 Si / 1000 Ang^3
#
#
#
# Elastic Constant Matrix: (Units=GPa)
#
#
# Indices 1 2 3 4 5 6 
#
# 1 81.9222 43.4877 32.8394 0.0000 0.0000 0.0000
# 2 43.4877 81.9222 32.8394 0.0000 0.0000 0.0000
# 3 32.8394 32.8394 70.3687 0.0000 0.0000 0.0000
# 4 0.0000 0.0000 0.0000 22.0129 0.0000 0.0000
# 5 0.0000 0.0000 0.0000 0.0000 22.0129 0.0000
# 6 0.0000 0.0000 0.0000 0.0000 0.0000 25.3518
#
#
#
# Elastic Compliance Matrix: (Units=1/GPa)
#
#
# Indices 1 2 3 4 5 6 
#
# 1 0.018286 -0.007733 -0.004925 0.000000 0.000000 0.000000
# 2 -0.007733 0.018286 -0.004925 0.000000 0.000000 0.000000
# 3 -0.004925 -0.004925 0.018808 0.000000 0.000000 0.000000
# 4 0.000000 0.000000 0.000000 0.045428 0.000000 0.000000
# 5 0.000000 0.000000 0.000000 0.000000 0.045428 0.000000
# 6 0.000000 0.000000 0.000000 0.000000 0.000000 0.039445
#
#
# Mechanical properties :
#
#
# Convention : Reuss Voigt Hill
#
# Bulk Modulus (GPa) = 49.47024 50.28290 49.87657
# Shear Modulus (GPa) = 21.97007 22.21196 22.09101
#
# Velocity S-wave (km/s) = 3.49916 3.51837 3.50878
# Velocity P-wave (km/s) = 6.62538 6.67296 6.64921
#
# Compressibility (1/GPa) = 0.02021417
#
# Stress axis : x y z
#
# Youngs Moduli (GPa) = 54.68764 54.68764 53.17027
#
# Poissons Ratio (x) = 0.42288 0.26186
# Poissons Ratio (y) = 0.42288 0.26186
# Poissons Ratio (z) = 0.26933 0.26933
#
# Static dielectric constant tensor:
#      x y z
#    x 3.290320 0.000000 0.000000 
#    y 0.000000 3.290320 0.000000 
#    z 0.000000 0.000000 3.244570 
# 
# 
# High freq. dielectric constant tensor:
#      x y z
#    x 1.683230 0.000000 0.000000 
#    y 0.000000 1.683230 0.000000 
#    z 0.000000 0.000000 1.680470 
# 
# From -- ./inp_files/1924.got.cif
#   From: 2010.03.12/outbox.cif.g09.slc.cpg/sg136_1_cif.got.tgz:1924.got - 2010.04.06 18:39:43.
