data_PCOD8317707
_publ_section_title
;
Structure prediction by ZEFSAII (Michael W. Deem and Ramdas Pophale) SiO2 
 PCOD8317707
Probable space group: P 42/M N M
;
_chemical_formula_sum "Si O2"
_cell_formula_units_Z 112
_cell_length_a 17.945011
_cell_length_b 17.945011
_cell_length_c 22.235173
_cell_angle_alpha 90.000000
_cell_angle_beta 90.000000
_cell_angle_gamma 90.000000
_cell_volume 7160.246449
_symmetry_space_group_name_H-M "P 42/M N M"
_symmetry_group_IT_number 136
_symmetry_cell_setting 'tetragonal'
loop_
_space_group_symop_operation_xyz
x,y,z
1/2-y,1/2+x,1/2+z
-x,-y,z
1/2+y,1/2-x,1/2+z
1/2+x,1/2-y,1/2-z
1/2-x,1/2+y,1/2-z
y,x,-z
-y,-x,-z
-x,-y,-z
1/2+y,1/2-x,1/2-z
x,y,-z
1/2-y,1/2+x,1/2-z
1/2-x,1/2+y,1/2+z
1/2+x,1/2-y,1/2+z
-y,-x,z
y,x,z
loop_
_atom_site_type_symbol
_atom_site_label
_atom_site_fract_x
_atom_site_fract_y
_atom_site_fract_z
Si Si1 0.153433 0.725514 0.166602
Si Si2 0.697677 0.181387 0.658150
Si Si3 0.149862 0.421826 0.431067
Si Si4 0.082241 0.508086 0.847982
Si Si5 0.622218 0.259066 0.767804
Si Si6 0.368898 0.090947 0.932591
Si Si7 0.786077 0.538467 0.226706
O O1 0.194752 0.805249 0.176658
O O2 0.123497 0.719421 0.097871
O O3 0.212991 0.659151 0.177434
O O4 0.080863 0.717226 0.209620
O O5 0.769939 0.230062 0.650972
O O6 0.641544 0.210773 0.708931
O O7 0.651696 0.185975 0.596403
O O8 0.729255 0.098967 0.674414
O O9 0.134604 0.395637 0.500000
O O10 0.083002 0.403301 0.385368
O O11 0.168029 0.509447 0.430443
O O12 0.094838 0.444899 0.896857
O O13 0.134158 0.499769 0.788995
O O14 0.000000 0.500000 0.821495
O O15 0.658587 0.341414 0.763917
O O16 0.532623 0.270114 0.773946
O O17 0.386331 0.115415 0.000000
#
# Coordination Sequence:
#
# PCOD8317707 Si02
#       7
#    16  16  16  16  16  16  16
#     4  10  20  32  45  66  94 125 160 198 237 281
#     4   9  18  30  44  64  91 120 149 185 233 279
#     4  10  18  30  46  66  96 130 158 189 227 274
#     4   9  17  29  42  68  96 125 151 186 227 282
#     4   9  17  30  46  65  89 116 151 194 239 283
#     4   9  17  28  44  66  93 123 154 185 223 269
#     4  10  17  30  47  64  90 121 152 195 239 278
#
# _framework density 15.641919
#
# number of rings (size 3 to 8) (size 9 to 14) (size 15 to 20)
#    0.000    2.571    1.429    2.571    0.000    3.429 
#    0.000    0.000    0.000    1.714    0.000    0.000 
#    0.000    0.000    0.000   16.000    0.000    0.143 
#
# Total GULP energy -1387662.684203 kJ/mol
# GULP energy per Si atom -12389.845395 kJ/mol
# Density = 1.560632 g / cm^3
# Si number density = 15.641919 Si / 1000 Ang^3
#
#
#
# Elastic Constant Matrix: (Units=GPa)
#
#
# Indices 1 2 3 4 5 6 
#
# 1 79.3128 41.6259 35.7336 0.0000 0.0000 0.0000
# 2 41.6259 79.3128 35.7336 0.0000 0.0000 0.0000
# 3 35.7336 35.7336 66.3933 0.0000 0.0000 0.0000
# 4 0.0000 0.0000 0.0000 33.3229 0.0000 0.0000
# 5 0.0000 0.0000 0.0000 0.0000 33.3229 0.0000
# 6 0.0000 0.0000 0.0000 0.0000 0.0000 19.9352
#
#
#
# Elastic Compliance Matrix: (Units=1/GPa)
#
#
# Indices 1 2 3 4 5 6 
#
# 1 0.019330 -0.007205 -0.006526 0.000000 0.000000 0.000000
# 2 -0.007205 0.019330 -0.006526 0.000000 0.000000 0.000000
# 3 -0.006526 -0.006526 0.022086 0.000000 0.000000 0.000000
# 4 0.000000 0.000000 0.000000 0.030009 0.000000 0.000000
# 5 0.000000 0.000000 0.000000 0.000000 0.030009 0.000000
# 6 0.000000 0.000000 0.000000 0.000000 0.000000 0.050163
#
#
# Mechanical properties :
#
#
# Convention : Reuss Voigt Hill
#
# Bulk Modulus (GPa) = 49.42409 50.13390 49.77899
# Shear Modulus (GPa) = 22.91646 24.77794 23.84720
#
# Velocity S-wave (km/s) = 3.83177 3.98436 3.90881
# Velocity P-wave (km/s) = 7.15838 7.29982 7.22945
#
# Compressibility (1/GPa) = 0.02023305
#
# Stress axis : x y z
#
# Youngs Moduli (GPa) = 51.73392 51.73392 45.27702
#
# Poissons Ratio (x) = 0.37273 0.29547
# Poissons Ratio (y) = 0.37273 0.29547
# Poissons Ratio (z) = 0.33761 0.33761
#
# Static dielectric constant tensor:
#      x y z
#    x 2.969850 0.000000 0.000000 
#    y 0.000000 2.969850 0.000000 
#    z 0.000000 0.000000 3.048250 
# 
# 
# High freq. dielectric constant tensor:
#      x y z
#    x 1.581530 0.000000 0.000000 
#    y 0.000000 1.581530 0.000000 
#    z 0.000000 0.000000 1.598820 
# 
# From -- ./inp_files/7725.got.cif
#   From: 2010.03.12/outbox.cif.g09.slc.cpg/sg136_4_cif.got.tgz:7725.got - 2010.04.06 18:39:43.
