data_PCOD8317054
_publ_section_title
;
Structure prediction by ZEFSAII (Michael W. Deem and Ramdas Pophale) SiO2 
 PCOD8317054
Probable space group: P 42/N B C
;
_chemical_formula_sum "Si O2"
_cell_formula_units_Z 48
_cell_length_a 15.969833
_cell_length_b 15.969833
_cell_length_c 8.217572
_cell_angle_alpha 90.000000
_cell_angle_beta 90.000000
_cell_angle_gamma 90.000000
_cell_volume 2095.773127
_symmetry_space_group_name_H-M "P 42/N B C"
_symmetry_group_IT_number 133
_space_group.IT_coordinate_system_code '2'
_symmetry_cell_setting 'tetragonal'
loop_
_space_group_symop_operation_xyz
x,y,z
1/2-y,x,1/2+z
1/2-x,1/2-y,z
y,1/2-x,1/2+z
x,1/2-y,-z
1/2-x,y,-z
y,x,1/2-z
1/2-y,1/2-x,1/2-z
-x,-y,-z
1/2+y,-x,1/2-z
1/2+x,1/2+y,-z
-y,1/2+x,1/2-z
-x,1/2+y,z
1/2+x,-y,z
-y,-x,1/2+z
1/2+y,1/2+x,1/2+z
loop_
_atom_site_type_symbol
_atom_site_label
_atom_site_fract_x
_atom_site_fract_y
_atom_site_fract_z
Si Si1 0.484641 0.664321 0.924448
Si Si2 0.162865 0.374382 0.068047
Si Si3 0.053916 0.836686 0.546410
O O1 0.473905 0.662152 0.732405
O O2 0.452286 0.750000 0.000000
O O3 0.582887 0.652433 0.960849
O O4 0.424080 0.597781 0.009300
O O5 0.156873 0.343128 0.250000
O O6 0.250000 0.336298 0.000000
O O7 0.167311 0.474401 0.072465
O O8 0.104877 0.750000 0.500000
#
# Coordination Sequence:
#
# PCOD8317054 Si02
#       3
#    16  16  16
#     4  12  24  43  68  99 137 176 220 278 336 400
#     4  11  24  45  69  97 132 178 227 277 334 399
#     4  11  24  44  69 100 132 176 226 276 335 399
#
# _framework density 22.903243
#
# number of rings (size 3 to 8) (size 9 to 14) (size 15 to 20)
#    0.000    0.667    0.000   10.000    0.000    1.333 
#    0.000   10.000    0.000    0.000    0.000    0.000 
#    0.000    0.000    0.000    0.000    0.000    0.000 
#
# Total GULP energy -595083.316852 kJ/mol
# GULP energy per Si atom -12397.569101 kJ/mol
# Density = 2.285111 g / cm^3
# Si number density = 22.903243 Si / 1000 Ang^3
#
#
#
# Elastic Constant Matrix: (Units=GPa)
#
#
# Indices 1 2 3 4 5 6 
#
# 1 136.5455 66.7414 84.6953 0.0000 0.0000 0.0000
# 2 66.7414 136.5454 84.6957 0.0000 0.0000 0.0000
# 3 84.6953 84.6957 184.0490 0.0000 0.0000 0.0000
# 4 0.0000 0.0000 0.0000 167.0584 0.0000 0.0000
# 5 0.0000 0.0000 0.0000 0.0000 166.6676 0.0000
# 6 0.0000 0.0000 0.0000 0.0000 0.0000 -77.1062
#
#
#
# Elastic Compliance Matrix: (Units=1/GPa)
#
#
# Indices 1 2 3 4 5 6 
#
# 1 0.011152 -0.003174 -0.003672 0.000000 0.000000 0.000000
# 2 -0.003174 0.011152 -0.003672 0.000000 0.000000 0.000000
# 3 -0.003672 -0.003672 0.008812 0.000000 0.000000 0.000000
# 4 0.000000 0.000000 0.000000 0.005986 0.000000 0.000000
# 5 0.000000 0.000000 0.000000 0.000000 0.006000 0.000000
# 6 0.000000 0.000000 0.000000 0.000000 0.000000 -0.012969
#
#
# Mechanical properties :
#
#
# Convention : Reuss Voigt Hill
#
# Bulk Modulus (GPa) = 99.17369 103.26719 101.22044
# Shear Modulus (GPa) = 91.69580 66.05779 78.87680
#
# Velocity S-wave (km/s) = 6.33428 5.37631 5.87485
# Velocity P-wave (km/s) = 9.84340 9.15019 9.50312
#
# Compressibility (1/GPa) = 0.01008332
#
# Stress axis : x y z
#
# Youngs Moduli (GPa) = 89.66891 89.66859 113.47557
#
# Poissons Ratio (x) = 0.28458 0.41663
# Poissons Ratio (y) = 0.28458 0.41663
# Poissons Ratio (z) = 0.32922 0.32922
#
# Static dielectric constant tensor:
#      x y z
#    x 4.455210 0.000000 0.000000 
#    y 0.000000 4.455210 0.000000 
#    z 0.000000 0.000000 4.011000 
# 
# 
# High freq. dielectric constant tensor:
#      x y z
#    x 1.913060 0.000000 0.000000 
#    y 0.000000 1.913060 0.000000 
#    z 0.000000 0.000000 1.921940 
# 
# From -- ./inp_files/1091.got.cif
#   From: 2010.03.12/outbox.cif.g09.slc.cpg/sg133_1_cif.got.tgz:1091.got - 2010.04.06 18:08:06.
