data_PCOD8317161
_publ_section_title
;
Structure prediction by ZEFSAII (Michael W. Deem and Ramdas Pophale) SiO2 
 PCOD8317161
Probable space group: P 42/N N M
;
_chemical_formula_sum "Si O2"
_cell_formula_units_Z 80
_cell_length_a 29.603696
_cell_length_b 29.603696
_cell_length_c 4.948711
_cell_angle_alpha 90.000000
_cell_angle_beta 90.000000
_cell_angle_gamma 90.000000
_cell_volume 4336.945491
_symmetry_space_group_name_H-M "P 42/N N M"
_symmetry_group_IT_number 134
_space_group.IT_coordinate_system_code '2'
_symmetry_cell_setting 'tetragonal'
loop_
_space_group_symop_operation_xyz
x,y,z
1/2-y,x,1/2+z
1/2-x,1/2-y,z
y,1/2-x,1/2+z
x,1/2-y,1/2-z
1/2-x,y,1/2-z
y,x,-z
1/2-y,1/2-x,-z
-x,-y,-z
1/2+y,-x,1/2-z
1/2+x,1/2+y,-z
-y,1/2+x,1/2-z
-x,1/2+y,1/2+z
1/2+x,-y,1/2+z
-y,-x,z
1/2+y,1/2+x,z
loop_
_atom_site_type_symbol
_atom_site_label
_atom_site_fract_x
_atom_site_fract_y
_atom_site_fract_z
Si Si1 0.590628 0.521251 0.375262
Si Si2 0.279126 0.147992 0.980297
Si Si3 0.108144 0.963198 0.120036
Si Si4 0.795175 0.493119 0.618262
Si Si5 0.312839 0.050793 0.877933
O O1 0.548681 0.548681 0.500000
O O2 0.601425 0.480620 0.577470
O O3 0.633445 0.553813 0.321666
O O4 0.582221 0.497432 0.085413
O O5 0.250000 0.144892 0.250000
O O6 0.250000 0.173131 0.750000
O O7 0.325537 0.174464 0.000000
O O8 0.291291 0.099513 0.858709
O O9 0.086571 0.913430 0.092767
O O10 0.162566 0.958842 0.074588
O O11 0.750000 0.469386 0.750000
O O12 0.786747 0.517709 0.332021
O O13 0.808287 0.533276 0.818542
#
# Coordination Sequence:
#
# PCOD8317161 Si02
#       5
#    16  16  16  16  16
#     4  10  20  33  50  71  98 131 163 196 233 282
#     4  12  25  39  55  71  91 120 154 199 254 311
#     4  10  21  33  47  71 101 132 163 197 234 279
#     4  10  19  33  54  75  97 124 158 199 241 283
#     4  10  20  35  54  75  95 117 156 205 248 285
#
# _framework density 18.446159999999999
#
# number of rings (size 3 to 8) (size 9 to 14) (size 15 to 20)
#    0.000    1.600    0.000    6.000    0.000    3.600 
#    0.000    6.000    0.000    0.000    0.000    0.000 
#    0.000    0.400    0.000    0.000    0.000   31.200 
#
# Total GULP energy -991396.688815 kJ/mol
# GULP energy per Si atom -12392.458610 kJ/mol
# Density = 1.840418 g / cm^3
# Si number density = 18.446160 Si / 1000 Ang^3
#
#
#
# Elastic Constant Matrix: (Units=GPa)
#
#
# Indices 1 2 3 4 5 6 
#
# 1 89.2176 64.3996 21.8022 0.0000 0.0000 0.0000
# 2 64.3996 89.2216 21.8024 0.0000 0.0000 0.0000
# 3 21.8022 21.8024 85.3753 0.0000 0.0000 0.0000
# 4 0.0000 0.0000 0.0000 423.6287 0.0000 0.0000
# 5 0.0000 0.0000 0.0000 0.0000 246.7843 0.0000
# 6 0.0000 0.0000 0.0000 0.0000 0.0000 2.3153
#
#
#
# Elastic Compliance Matrix: (Units=1/GPa)
#
#
# Indices 1 2 3 4 5 6 
#
# 1 0.023655 -0.016636 -0.001792 0.000000 0.000000 0.000000
# 2 -0.016636 0.023654 -0.001792 0.000000 0.000000 0.000000
# 3 -0.001792 -0.001792 0.012628 0.000000 0.000000 0.000000
# 4 0.000000 0.000000 0.000000 0.002361 0.000000 0.000000
# 5 0.000000 0.000000 0.000000 0.000000 0.004052 0.000000
# 6 0.000000 0.000000 0.000000 0.000000 0.000000 0.431909
#
#
# Mechanical properties :
#
#
# Convention : Reuss Voigt Hill
#
# Bulk Modulus (GPa) = 51.29270 53.31367 52.30319
# Shear Modulus (GPa) = 9.17098 144.93301 77.05199
#
# Velocity S-wave (km/s) = 2.23216 8.87363 6.47008
# Velocity P-wave (km/s) = 5.87456 11.57383 9.17780
#
# Compressibility (1/GPa) = 0.01949595
#
# Stress axis : x y z
#
# Youngs Moduli (GPa) = 42.27475 42.27667 79.18679
#
# Poissons Ratio (x) = 0.70331 0.14193
# Poissons Ratio (y) = 0.70328 0.14192
# Poissons Ratio (z) = 0.07577 0.07577
#
# Static dielectric constant tensor:
#      x y z
#    x 3.383480 0.000000 0.000000 
#    y 0.000000 3.383570 0.000000 
#    z 0.000000 0.000000 3.609390 
# 
# 
# High freq. dielectric constant tensor:
#      x y z
#    x 1.687650 0.000000 0.000000 
#    y 0.000000 1.687650 0.000000 
#    z 0.000000 0.000000 1.744140 
# 
# From -- ./inp_files/1242.got.cif
#   From: 2010.03.12/outbox.cif.g09.slc.cpg/sg134_1_cif.got.tgz:1242.got - 2010.04.06 18:17:22.
