data_PCOD8317211
_publ_section_title
;
Structure prediction by ZEFSAII (Michael W. Deem and Ramdas Pophale) SiO2 
 PCOD8317211
Probable space group: P 42/N N M
;
_chemical_formula_sum "Si O2"
_cell_formula_units_Z 112
_cell_length_a 15.792278
_cell_length_b 15.792278
_cell_length_c 23.692082
_cell_angle_alpha 90.000000
_cell_angle_beta 90.000000
_cell_angle_gamma 90.000000
_cell_volume 5908.711535
_symmetry_space_group_name_H-M "P 42/N N M"
_symmetry_group_IT_number 134
_space_group.IT_coordinate_system_code '2'
_symmetry_cell_setting 'tetragonal'
loop_
_space_group_symop_operation_xyz
x,y,z
1/2-y,x,1/2+z
1/2-x,1/2-y,z
y,1/2-x,1/2+z
x,1/2-y,1/2-z
1/2-x,y,1/2-z
y,x,-z
1/2-y,1/2-x,-z
-x,-y,-z
1/2+y,-x,1/2-z
1/2+x,1/2+y,-z
-y,1/2+x,1/2-z
-x,1/2+y,1/2+z
1/2+x,-y,1/2+z
-y,-x,z
1/2+y,1/2+x,z
loop_
_atom_site_type_symbol
_atom_site_label
_atom_site_fract_x
_atom_site_fract_y
_atom_site_fract_z
Si Si1 0.387240 0.754703 0.811127
Si Si2 0.580838 0.943877 0.877822
Si Si3 0.165106 0.970398 0.479439
Si Si4 0.300443 0.941761 0.193581
Si Si5 0.544873 0.178923 0.592780
Si Si6 0.020768 0.272324 0.097070
Si Si7 0.085235 0.449289 0.565001
O O1 0.434229 0.750000 0.750000
O O2 0.314861 0.685140 0.811602
O O3 0.347430 0.847430 0.819326
O O4 0.447921 0.737393 0.862915
O O5 0.577078 0.841630 0.868482
O O6 0.489204 0.989204 0.871157
O O7 0.616483 0.960842 0.940977
O O8 0.643007 0.980389 0.829309
O O9 0.119962 0.880039 0.470433
O O10 0.261414 0.967036 0.460610
O O11 0.167984 0.991512 0.545357
O O12 0.250000 0.966790 0.250000
O O13 0.358062 0.858062 0.202490
O O14 0.228507 0.923984 0.147692
O O15 0.617972 0.117972 0.571969
O O16 0.460256 0.123076 0.603110
O O17 0.063401 0.185132 0.077415
O O18 0.071171 0.428830 0.500000
O O19 0.041872 0.541872 0.578426
#
# Coordination Sequence:
#
# PCOD8317211 Si02
#       7
#    16  16  16  16  16  16  16
#     4   9  19  35  52  77 112 140 178 247 302 331
#     4   9  20  37  56  85 121 149 183 243 296 340
#     4  10  20  33  54  84 116 145 184 239 295 350
#     4  10  21  39  63  91 120 150 190 239 294 356
#     4  10  20  36  56  81 120 156 185 237 300 351
#     4  12  20  34  60  81 106 155 204 228 281 358
#     4  10  21  38  56  81 119 154 193 245 294 347
#
# _framework density 18.955064
#
# number of rings (size 3 to 8) (size 9 to 14) (size 15 to 20)
#    0.000    2.000    1.429    4.286    0.000    3.571 
#    2.571    2.857    0.000    0.857    0.000    0.000 
#    0.000    0.000    0.000    0.000    0.000    0.000 
#
# Total GULP energy -1387813.462196 kJ/mol
# GULP energy per Si atom -12391.191627 kJ/mol
# Density = 1.891192 g / cm^3
# Si number density = 18.955064 Si / 1000 Ang^3
#
#
#
# Elastic Constant Matrix: (Units=GPa)
#
#
# Indices 1 2 3 4 5 6 
#
# 1 112.7874 44.8534 24.3312 0.0000 0.0000 0.0000
# 2 44.8534 112.7872 24.3310 0.0000 0.0000 0.0000
# 3 24.3312 24.3310 89.1897 0.0000 0.0000 0.0000
# 4 0.0000 0.0000 0.0000 20.2795 0.0000 0.0000
# 5 0.0000 0.0000 0.0000 0.0000 20.2795 0.0000
# 6 0.0000 0.0000 0.0000 0.0000 0.0000 15.3805
#
#
#
# Elastic Compliance Matrix: (Units=1/GPa)
#
#
# Indices 1 2 3 4 5 6 
#
# 1 0.010824 -0.003897 -0.001890 0.000000 0.000000 0.000000
# 2 -0.003897 0.010824 -0.001890 0.000000 0.000000 0.000000
# 3 -0.001890 -0.001890 0.012243 0.000000 0.000000 0.000000
# 4 0.000000 0.000000 0.000000 0.049311 0.000000 0.000000
# 5 0.000000 0.000000 0.000000 0.000000 0.049311 0.000000
# 6 0.000000 0.000000 0.000000 0.000000 0.000000 0.065017
#
#
# Mechanical properties :
#
#
# Convention : Reuss Voigt Hill
#
# Bulk Modulus (GPa) = 53.94285 55.75507 54.84896
# Shear Modulus (GPa) = 22.82473 25.93781 24.38127
#
# Velocity S-wave (km/s) = 3.47385 3.70318 3.59035
# Velocity P-wave (km/s) = 6.67909 6.91107 6.79607
#
# Compressibility (1/GPa) = 0.01853814
#
# Stress axis : x y z
#
# Youngs Moduli (GPa) = 92.39141 92.39132 81.67894
#
# Poissons Ratio (x) = 0.36002 0.15435
# Poissons Ratio (y) = 0.36002 0.15434
# Poissons Ratio (z) = 0.17459 0.17459
#
# Static dielectric constant tensor:
#      x y z
#    x 3.705530 0.000000 0.000000 
#    y 0.000000 3.705510 0.000000 
#    z 0.000000 0.000000 3.529740 
# 
# 
# High freq. dielectric constant tensor:
#      x y z
#    x 1.728880 0.000000 0.000000 
#    y 0.000000 1.728880 0.000000 
#    z 0.000000 0.000000 1.732770 
# 
# From -- ./inp_files/10106.got.cif
#   From: 2010.03.12/outbox.cif.g09.slc.cpg/sg134_6_cif.got.tgz:10106.got - 2010.04.06 18:17:22.
