data_PCOD8317897
_publ_section_title
;
Structure prediction by ZEFSAII (Michael W. Deem and Ramdas Pophale) SiO2 
 PCOD8317897
Probable space group: P 42/M N M
;
_chemical_formula_sum "Si O2"
_cell_formula_units_Z 96
_cell_length_a 24.430158
_cell_length_b 24.430158
_cell_length_c 8.542975
_cell_angle_alpha 90.000000
_cell_angle_beta 90.000000
_cell_angle_gamma 90.000000
_cell_volume 5098.726151
_symmetry_space_group_name_H-M "P 42/M N M"
_symmetry_group_IT_number 136
_symmetry_cell_setting 'tetragonal'
loop_
_space_group_symop_operation_xyz
x,y,z
1/2-y,1/2+x,1/2+z
-x,-y,z
1/2+y,1/2-x,1/2+z
1/2+x,1/2-y,1/2-z
1/2-x,1/2+y,1/2-z
y,x,-z
-y,-x,-z
-x,-y,-z
1/2+y,1/2-x,1/2-z
x,y,-z
1/2-y,1/2+x,1/2-z
1/2-x,1/2+y,1/2+z
1/2+x,1/2-y,1/2+z
-y,-x,z
y,x,z
loop_
_atom_site_type_symbol
_atom_site_label
_atom_site_fract_x
_atom_site_fract_y
_atom_site_fract_z
Si Si1 0.732060 0.355411 0.184794
Si Si2 0.056204 0.858840 0.813972
Si Si3 0.649610 0.143042 0.814273
Si Si4 0.772115 0.142178 0.813784
Si Si5 0.941395 0.439311 0.685474
Si Si6 0.935966 0.849747 0.814378
O O1 0.698978 0.301023 0.244692
O O2 0.794499 0.358340 0.240258
O O3 0.706472 0.410049 0.256276
O O4 0.728410 0.357143 0.000000
O O5 0.084066 0.915935 0.762552
O O6 0.092122 0.808464 0.750195
O O7 0.996092 0.855528 0.740021
O O8 0.053434 0.855296 0.000000
O O9 0.710981 0.130803 0.752476
O O10 0.606242 0.102992 0.733128
O O11 0.643724 0.135902 0.000000
O O12 0.800148 0.199853 0.757355
O O13 0.770713 0.143880 0.000000
O O14 0.922985 0.498736 0.749437
O O15 0.944960 0.442698 0.500000
O O16 0.900450 0.900450 0.751055
O O17 0.938236 0.849646 0.000000
#
# Coordination Sequence:
#
# PCOD8317897 Si02
#       6
#    16  16  16  16  16  16
#     4   9  18  32  49  70 100 137 172 208 252 301
#     4   8  14  25  42  66  94 123 159 204 250 291
#     4  10  19  32  53  80 104 130 168 209 251 303
#     4   8  14  26  46  72 101 132 168 211 253 295
#     4  11  23  41  61  80 105 135 168 208 256 306
#     4   9  17  28  43  66  96 128 163 206 254 300
#
# _framework density 18.828233000000001
#
# number of rings (size 3 to 8) (size 9 to 14) (size 15 to 20)
#    0.000    2.833    0.000    3.500    0.000    4.333 
#    0.000    3.333    0.000    2.000    0.000    4.667 
#    0.000    0.000    0.000    0.000    0.000    0.000 
#
# Total GULP energy -1189663.826206 kJ/mol
# GULP energy per Si atom -12392.331523 kJ/mol
# Density = 1.878538 g / cm^3
# Si number density = 18.828233 Si / 1000 Ang^3
#
#
#
# Elastic Constant Matrix: (Units=GPa)
#
#
# Indices 1 2 3 4 5 6 
#
# 1 147.8813 101.5479 27.5073 0.0000 0.0000 0.0000
# 2 101.5479 147.8813 27.5073 0.0000 0.0000 0.0000
# 3 27.5073 27.5073 42.2049 0.0000 0.0000 0.0000
# 4 0.0000 0.0000 0.0000 18.5183 0.0000 0.0000
# 5 0.0000 0.0000 0.0000 0.0000 18.5183 0.0000
# 6 0.0000 0.0000 0.0000 0.0000 0.0000 28.2587
#
#
#
# Elastic Compliance Matrix: (Units=1/GPa)
#
#
# Indices 1 2 3 4 5 6 
#
# 1 0.013132 -0.008450 -0.003052 0.000000 0.000000 0.000000
# 2 -0.008450 0.013132 -0.003052 0.000000 0.000000 0.000000
# 3 -0.003052 -0.003052 0.027672 0.000000 0.000000 0.000000
# 4 0.000000 0.000000 0.000000 0.054001 0.000000 0.000000
# 5 0.000000 0.000000 0.000000 0.000000 0.054001 0.000000
# 6 0.000000 0.000000 0.000000 0.000000 0.000000 0.035387
#
#
# Mechanical properties :
#
#
# Convention : Reuss Voigt Hill
#
# Bulk Modulus (GPa) = 40.27450 72.34361 56.30905
# Shear Modulus (GPa) = 21.30297 25.15273 23.22785
#
# Velocity S-wave (km/s) = 3.36733 3.65897 3.51618
# Velocity P-wave (km/s) = 6.04611 7.50714 6.81589
#
# Compressibility (1/GPa) = 0.02482961
#
# Stress axis : x y z
#
# Youngs Moduli (GPa) = 76.14718 76.14718 36.13783
#
# Poissons Ratio (x) = 0.64346 0.11028
# Poissons Ratio (y) = 0.64346 0.11028
# Poissons Ratio (z) = 0.23238 0.23238
#
# Static dielectric constant tensor:
#      x y z
#    x 3.743240 0.000000 0.000000 
#    y 0.000000 3.743240 0.000000 
#    z 0.000000 0.000000 3.021390 
# 
# 
# High freq. dielectric constant tensor:
#      x y z
#    x 1.738420 0.000000 0.000000 
#    y 0.000000 1.738420 0.000000 
#    z 0.000000 0.000000 1.690000 
# 
# From -- ./inp_files/1997.got.cif
#   From: 2010.03.12/outbox.cif.g09.slc.cpg/sg136_1_cif.got.tgz:1997.got - 2010.04.06 18:39:43.
