data_PCOD8317800
_publ_section_title
;
Structure prediction by ZEFSAII (Michael W. Deem and Ramdas Pophale) SiO2 
 PCOD8317800
Probable space group: P 42/M N M
;
_chemical_formula_sum "Si O2"
_cell_formula_units_Z 96
_cell_length_a 23.060407
_cell_length_b 23.060407
_cell_length_c 8.587394
_cell_angle_alpha 90.000000
_cell_angle_beta 90.000000
_cell_angle_gamma 90.000000
_cell_volume 4566.624742
_symmetry_space_group_name_H-M "P 42/M N M"
_symmetry_group_IT_number 136
_symmetry_cell_setting 'tetragonal'
loop_
_space_group_symop_operation_xyz
x,y,z
1/2-y,1/2+x,1/2+z
-x,-y,z
1/2+y,1/2-x,1/2+z
1/2+x,1/2-y,1/2-z
1/2-x,1/2+y,1/2-z
y,x,-z
-y,-x,-z
-x,-y,-z
1/2+y,1/2-x,1/2-z
x,y,-z
1/2-y,1/2+x,1/2-z
1/2-x,1/2+y,1/2+z
1/2+x,1/2-y,1/2+z
-y,-x,z
y,x,z
loop_
_atom_site_type_symbol
_atom_site_label
_atom_site_fract_x
_atom_site_fract_y
_atom_site_fract_z
Si Si1 0.212133 0.117020 0.815333
Si Si2 0.502842 0.084288 0.178131
Si Si3 0.687262 0.051089 0.822450
Si Si4 0.688303 0.511538 0.315745
Si Si5 0.320313 0.817707 0.821391
Si Si6 0.388577 0.388577 0.317200
Si Si7 0.698987 0.698987 0.822029
O O1 0.165493 0.165493 0.765068
O O2 0.274019 0.129393 0.734860
O O3 0.189222 0.054505 0.753213
O O4 0.221042 0.116014 0.000000
O O5 0.551580 0.057831 0.290219
O O6 0.493745 0.151616 0.216561
O O7 0.522230 0.076671 0.000000
O O8 0.753815 0.046683 0.766120
O O9 0.660200 0.115453 0.805784
O O10 0.682757 0.029829 0.000000
O O11 0.682818 0.509857 0.500000
O O12 0.633682 0.549271 0.247785
O O13 0.266223 0.811025 0.708697
O O14 0.303693 0.803555 0.000000
O O15 0.395503 0.395503 0.500000
O O16 0.339989 0.339989 0.289690
O O17 0.684160 0.684160 0.000000
#
# Coordination Sequence:
#
# PCOD8317800 Si02
#       7
#    16  16  16  16  16   8   8
#     4  10  21  37  57  87 123 156 192 240 298 352
#     4  11  23  40  59  79 110 155 203 247 291 343
#     4  10  21  37  56  84 115 150 196 244 294 351
#     4   9  19  36  60  85 115 154 197 246 298 349
#     4  11  22  37  59  84 114 152 193 233 283 354
#     4  10  18  38  63  84 112 158 205 243 291 353
#     4  12  22  34  56  87 119 148 183 236 294 348
#
# _framework density 21.022089999999999
#
# number of rings (size 3 to 8) (size 9 to 14) (size 15 to 20)
#    0.000    1.667    2.500    3.250    2.333    1.333 
#    0.000    1.250    0.000    2.500    0.000    0.000 
#    0.000    2.000    0.000    0.000    0.000    0.000 
#
# Total GULP energy -1190087.471595 kJ/mol
# GULP energy per Si atom -12396.744496 kJ/mol
# Density = 2.097424 g / cm^3
# Si number density = 21.022090 Si / 1000 Ang^3
#
#
#
# Elastic Constant Matrix: (Units=GPa)
#
#
# Indices 1 2 3 4 5 6 
#
# 1 81.0320 22.4309 6.6561 0.0000 0.0000 0.0000
# 2 22.4309 81.0320 6.6561 0.0000 0.0000 0.0000
# 3 6.6561 6.6561 46.6870 0.0000 0.0000 0.0000
# 4 0.0000 0.0000 0.0000 20.3923 0.0000 0.0000
# 5 0.0000 0.0000 0.0000 0.0000 20.3923 0.0000
# 6 0.0000 0.0000 0.0000 0.0000 0.0000 35.0658
#
#
#
# Elastic Compliance Matrix: (Units=1/GPa)
#
#
# Indices 1 2 3 4 5 6 
#
# 1 0.013455 -0.003609 -0.001404 0.000000 0.000000 0.000000
# 2 -0.003609 0.013455 -0.001404 0.000000 0.000000 0.000000
# 3 -0.001404 -0.001404 0.021820 0.000000 0.000000 0.000000
# 4 0.000000 0.000000 0.000000 0.049038 0.000000 0.000000
# 5 0.000000 0.000000 0.000000 0.000000 0.049038 0.000000
# 6 0.000000 0.000000 0.000000 0.000000 0.000000 0.028518
#
#
# Mechanical properties :
#
#
# Convention : Reuss Voigt Hill
#
# Bulk Modulus (GPa) = 27.85790 31.13746 29.49768
# Shear Modulus (GPa) = 24.98461 26.70392 25.84427
#
# Velocity S-wave (km/s) = 3.45119 3.56796 3.51006
# Velocity P-wave (km/s) = 5.40014 5.64072 5.52174
#
# Compressibility (1/GPa) = 0.03589646
#
# Stress axis : x y z
#
# Youngs Moduli (GPa) = 74.32055 74.32055 45.83055
#
# Poissons Ratio (x) = 0.26825 0.06433
# Poissons Ratio (y) = 0.26825 0.06433
# Poissons Ratio (z) = 0.10433 0.10433
#
# Static dielectric constant tensor:
#      x y z
#    x 3.963700 0.000000 0.000000 
#    y 0.000000 3.963700 0.000000 
#    z 0.000000 0.000000 3.497250 
# 
# 
# High freq. dielectric constant tensor:
#      x y z
#    x 1.820950 0.000000 0.000000 
#    y 0.000000 1.820950 0.000000 
#    z 0.000000 0.000000 1.792780 
# 
# From -- ./inp_files/2034.got.cif
#   From: 2010.03.12/outbox.cif.g09.slc.cpg/sg136_2_cif.got.tgz:2034.got - 2010.04.06 18:39:43.
