data_PCOD8317213
_publ_section_title
;
Structure prediction by ZEFSAII (Michael W. Deem and Ramdas Pophale) SiO2 
 PCOD8317213
Probable space group: P 42/N N M
;
_chemical_formula_sum "Si O2"
_cell_formula_units_Z 72
_cell_length_a 11.559514
_cell_length_b 11.559514
_cell_length_c 27.286282
_cell_angle_alpha 90.000000
_cell_angle_beta 90.000000
_cell_angle_gamma 90.000000
_cell_volume 3646.057503
_symmetry_space_group_name_H-M "P 42/N N M"
_symmetry_group_IT_number 134
_space_group.IT_coordinate_system_code '2'
_symmetry_cell_setting 'tetragonal'
loop_
_space_group_symop_operation_xyz
x,y,z
1/2-y,x,1/2+z
1/2-x,1/2-y,z
y,1/2-x,1/2+z
x,1/2-y,1/2-z
1/2-x,y,1/2-z
y,x,-z
1/2-y,1/2-x,-z
-x,-y,-z
1/2+y,-x,1/2-z
1/2+x,1/2+y,-z
-y,1/2+x,1/2-z
-x,1/2+y,1/2+z
1/2+x,-y,1/2+z
-y,-x,z
1/2+y,1/2+x,z
loop_
_atom_site_type_symbol
_atom_site_label
_atom_site_fract_x
_atom_site_fract_y
_atom_site_fract_z
Si Si1 0.749192 0.436713 0.518456
Si Si2 0.310062 0.992871 0.912094
Si Si3 0.053514 0.128642 0.161411
Si Si4 0.621271 0.735753 0.401379
Si Si5 0.440400 0.750000 0.750000
O O1 0.646496 0.353505 0.537425
O O2 0.862607 0.362607 0.505638
O O3 0.707917 0.505069 0.470333
O O4 0.782300 0.526553 0.560834
O O5 0.372625 0.872625 0.899322
O O6 0.185907 0.994030 0.886200
O O7 0.391720 0.098166 0.892397
O O8 0.190494 0.112190 0.149672
O O9 0.027331 0.214572 0.206459
O O10 0.996348 0.003653 0.170753
O O11 0.750000 0.750000 0.424047
O O12 0.358478 0.641523 0.734893
#
# Coordination Sequence:
#
# PCOD8317213 Si02
#       5
#    16  16  16  16   8
#     4  10  20  34  53  75 102 142 190 230 258 296
#     4  10  20  34  51  73 104 143 183 217 255 307
#     4  10  20  34  54  78 103 130 166 216 268 317
#     4  10  21  34  48  73 106 141 172 206 260 316
#     4   9  18  34  57  82 106 134 169 213 268 324
#
# _framework density 19.747357999999998
#
# number of rings (size 3 to 8) (size 9 to 14) (size 15 to 20)
#    0.000    2.111    0.000    3.333    0.000   10.222 
#    0.000   10.556    0.000    0.000    0.000    0.000 
#    0.000    0.000    0.000   54.000    0.000    0.000 
#
# Total GULP energy -892389.016383 kJ/mol
# GULP energy per Si atom -12394.291894 kJ/mol
# Density = 1.970241 g / cm^3
# Si number density = 19.747358 Si / 1000 Ang^3
#
#
#
# Elastic Constant Matrix: (Units=GPa)
#
#
# Indices 1 2 3 4 5 6 
#
# 1 86.7065 22.8600 38.2402 0.0000 0.0000 0.0000
# 2 22.8600 86.7065 38.2402 0.0000 0.0000 0.0000
# 3 38.2402 38.2402 90.1981 0.0000 0.0000 0.0000
# 4 0.0000 0.0000 0.0000 33.6498 0.0000 0.0000
# 5 0.0000 0.0000 0.0000 0.0000 33.6498 0.0000
# 6 0.0000 0.0000 0.0000 0.0000 0.0000 21.4909
#
#
#
# Elastic Compliance Matrix: (Units=1/GPa)
#
#
# Indices 1 2 3 4 5 6 
#
# 1 0.014313 -0.001350 -0.005496 0.000000 0.000000 0.000000
# 2 -0.001350 0.014313 -0.005496 0.000000 0.000000 0.000000
# 3 -0.005496 -0.005496 0.015747 0.000000 0.000000 0.000000
# 4 0.000000 0.000000 0.000000 0.029718 0.000000 0.000000
# 5 0.000000 0.000000 0.000000 0.000000 0.029718 0.000000
# 6 0.000000 0.000000 0.000000 0.000000 0.000000 0.046531
#
#
# Mechanical properties :
#
#
# Convention : Reuss Voigt Hill
#
# Bulk Modulus (GPa) = 50.78808 51.36576 51.07692
# Shear Modulus (GPa) = 27.53526 28.70948 28.12237
#
# Velocity S-wave (km/s) = 3.73819 3.81706 3.77783
# Velocity P-wave (km/s) = 6.66384 6.74496 6.70453
#
# Compressibility (1/GPa) = 0.01968966
#
# Stress axis : x y z
#
# Youngs Moduli (GPa) = 69.86731 69.86731 63.50535
#
# Poissons Ratio (x) = 0.09430 0.34901
# Poissons Ratio (y) = 0.09430 0.34901
# Poissons Ratio (z) = 0.38398 0.38398
#
# Static dielectric constant tensor:
#      x y z
#    x 3.665930 0.000000 0.000000 
#    y 0.000000 3.665930 0.000000 
#    z 0.000000 0.000000 3.352080 
# 
# 
# High freq. dielectric constant tensor:
#      x y z
#    x 1.769250 0.000000 0.000000 
#    y 0.000000 1.769250 0.000000 
#    z 0.000000 0.000000 1.737190 
# 
# From -- ./inp_files/10627.got.cif
#   From: 2010.03.12/outbox.cif.g09.slc.cpg/sg134_6_cif.got.tgz:10627.got - 2010.04.06 18:17:22.
