data_PCOD8317790
_publ_section_title
;
Structure prediction by ZEFSAII (Michael W. Deem and Ramdas Pophale) SiO2 
 PCOD8317790
Probable space group: P 42/M N M
;
_chemical_formula_sum "Si O2"
_cell_formula_units_Z 112
_cell_length_a 17.347150
_cell_length_b 17.347150
_cell_length_c 19.889947
_cell_angle_alpha 90.000000
_cell_angle_beta 90.000000
_cell_angle_gamma 90.000000
_cell_volume 5985.354716
_symmetry_space_group_name_H-M "P 42/M N M"
_symmetry_group_IT_number 136
_symmetry_cell_setting 'tetragonal'
loop_
_space_group_symop_operation_xyz
x,y,z
1/2-y,1/2+x,1/2+z
-x,-y,z
1/2+y,1/2-x,1/2+z
1/2+x,1/2-y,1/2-z
1/2-x,1/2+y,1/2-z
y,x,-z
-y,-x,-z
-x,-y,-z
1/2+y,1/2-x,1/2-z
x,y,-z
1/2-y,1/2+x,1/2-z
1/2-x,1/2+y,1/2+z
1/2+x,1/2-y,1/2+z
-y,-x,z
y,x,z
loop_
_atom_site_type_symbol
_atom_site_label
_atom_site_fract_x
_atom_site_fract_y
_atom_site_fract_z
Si Si1 0.788183 0.915290 0.217068
Si Si2 0.578086 0.971858 0.422031
Si Si3 0.785656 0.090649 0.808928
Si Si4 0.169422 0.706651 0.694036
Si Si5 0.413933 0.705827 0.125268
Si Si6 0.439486 0.225575 0.922266
Si Si7 0.650806 0.816419 0.422881
O O1 0.860935 0.860935 0.197231
O O2 0.706272 0.879140 0.191573
O O3 0.780895 0.926082 0.296295
O O4 0.800057 0.999153 0.183295
O O5 0.577155 0.994040 0.500000
O O6 0.585083 0.880772 0.411860
O O7 0.500000 0.000000 0.385980
O O8 0.649741 0.018635 0.391880
O O9 0.866418 0.133583 0.790474
O O10 0.719972 0.104787 0.751623
O O11 0.756560 0.127346 0.878730
O O12 0.239882 0.760119 0.716045
O O13 0.137322 0.734181 0.621698
O O14 0.378464 0.621537 0.111424
O O15 0.497057 0.707191 0.088296
O O16 0.353369 0.767751 0.096891
O O17 0.414857 0.222028 0.000000
O O18 0.655058 0.789158 0.500000
#
# Coordination Sequence:
#
# PCOD8317790 Si02
#       7
#    16  16  16  16  16  16  16
#     4  10  21  38  59  82 113 151 192 240 286 334
#     4   8  16  30  47  74 110 142 171 210 270 341
#     4  11  22  37  59  84 111 148 194 241 284 336
#     4  10  21  38  57  79 108 144 187 231 274 330
#     4  10  18  33  56  84 116 147 183 228 284 347
#     4  10  20  33  53  80 111 147 183 223 275 337
#     4  10  20  33  54  85 117 148 183 232 294 349
#
# _framework density 18.712340000000001
#
# number of rings (size 3 to 8) (size 9 to 14) (size 15 to 20)
#    0.000    2.143    2.857    1.714    2.000    2.571 
#    0.000    0.000    0.000    1.714    0.000    2.000 
#    0.000    0.000    0.000    0.000    0.000    0.000 
#
# Total GULP energy -1388298.874095 kJ/mol
# GULP energy per Si atom -12395.525662 kJ/mol
# Density = 1.866975 g / cm^3
# Si number density = 18.712340 Si / 1000 Ang^3
#
#
#
# Elastic Constant Matrix: (Units=GPa)
#
#
# Indices 1 2 3 4 5 6 
#
# 1 75.4784 33.0993 16.0156 0.0000 0.0000 0.0000
# 2 33.0993 75.4784 16.0156 0.0000 0.0000 0.0000
# 3 16.0156 16.0156 81.7864 0.0000 0.0000 0.0000
# 4 0.0000 0.0000 0.0000 22.6842 0.0000 0.0000
# 5 0.0000 0.0000 0.0000 0.0000 22.6842 0.0000
# 6 0.0000 0.0000 0.0000 0.0000 0.0000 27.2508
#
#
#
# Elastic Compliance Matrix: (Units=1/GPa)
#
#
# Indices 1 2 3 4 5 6 
#
# 1 0.016686 -0.006911 -0.001914 0.000000 0.000000 0.000000
# 2 -0.006911 0.016686 -0.001914 0.000000 0.000000 0.000000
# 3 -0.001914 -0.001914 0.012977 0.000000 0.000000 0.000000
# 4 0.000000 0.000000 0.000000 0.044083 0.000000 0.000000
# 5 0.000000 0.000000 0.000000 0.000000 0.044083 0.000000
# 6 0.000000 0.000000 0.000000 0.000000 0.000000 0.036696
#
#
# Mechanical properties :
#
#
# Convention : Reuss Voigt Hill
#
# Bulk Modulus (GPa) = 40.20980 40.33380 40.27180
# Shear Modulus (GPa) = 24.87820 25.69803 25.28811
#
# Velocity S-wave (km/s) = 3.65020 3.70985 3.68015
# Velocity P-wave (km/s) = 6.26899 6.32077 6.29494
#
# Compressibility (1/GPa) = 0.02486956
#
# Stress axis : x y z
#
# Youngs Moduli (GPa) = 59.93186 59.93186 77.06173
#
# Poissons Ratio (x) = 0.41419 0.14750
# Poissons Ratio (y) = 0.41419 0.14750
# Poissons Ratio (z) = 0.11472 0.11472
#
# Static dielectric constant tensor:
#      x y z
#    x 3.477780 0.000000 0.000000 
#    y 0.000000 3.477780 0.000000 
#    z 0.000000 0.000000 3.223930 
# 
# 
# High freq. dielectric constant tensor:
#      x y z
#    x 1.716060 0.000000 0.000000 
#    y 0.000000 1.716060 0.000000 
#    z 0.000000 0.000000 1.712040 
# 
# From -- ./inp_files/7773.got.cif
#   From: 2010.03.12/outbox.cif.g09.slc.cpg/sg136_4_cif.got.tgz:7773.got - 2010.04.06 18:39:43.
