data_PCOD8317876
_publ_section_title
;
Structure prediction by ZEFSAII (Michael W. Deem and Ramdas Pophale) SiO2 
 PCOD8317876
Probable space group: P 42/M N M
;
_chemical_formula_sum "Si O2"
_cell_formula_units_Z 112
_cell_length_a 14.217366
_cell_length_b 14.217366
_cell_length_c 34.736122
_cell_angle_alpha 90.000000
_cell_angle_beta 90.000000
_cell_angle_gamma 90.000000
_cell_volume 7021.333777
_symmetry_space_group_name_H-M "P 42/M N M"
_symmetry_group_IT_number 136
_symmetry_cell_setting 'tetragonal'
loop_
_space_group_symop_operation_xyz
x,y,z
1/2-y,1/2+x,1/2+z
-x,-y,z
1/2+y,1/2-x,1/2+z
1/2+x,1/2-y,1/2-z
1/2-x,1/2+y,1/2-z
y,x,-z
-y,-x,-z
-x,-y,-z
1/2+y,1/2-x,1/2-z
x,y,-z
1/2-y,1/2+x,1/2-z
1/2-x,1/2+y,1/2+z
1/2+x,1/2-y,1/2+z
-y,-x,z
y,x,z
loop_
_atom_site_type_symbol
_atom_site_label
_atom_site_fract_x
_atom_site_fract_y
_atom_site_fract_z
Si Si1 0.605193 0.888504 0.251821
Si Si2 0.395834 0.963007 0.544995
Si Si3 0.349965 0.797111 0.955247
Si Si4 0.401527 0.250466 0.683004
Si Si5 0.384722 0.767182 0.316965
Si Si6 0.718271 0.872582 0.903182
Si Si7 0.726305 0.578714 0.402761
O O1 0.496982 0.871951 0.241447
O O2 0.636145 0.835451 0.290865
O O3 0.660897 0.847909 0.215207
O O4 0.392792 0.936393 0.500000
O O5 0.369879 0.871915 0.569533
O O6 0.500000 0.000000 0.556197
O O7 0.314913 0.040633 0.555292
O O8 0.307089 0.692912 0.944026
O O9 0.289861 0.878313 0.935812
O O10 0.336641 0.814971 0.000000
O O11 0.344314 0.344314 0.693766
O O12 0.510324 0.266937 0.692162
O O13 0.391586 0.225423 0.637858
O O14 0.327967 0.672034 0.315393
O O15 0.371729 0.816132 0.358731
O O16 0.783708 0.783708 0.913250
O O17 0.779411 0.967206 0.909229
O O18 0.620423 0.620423 0.404538
#
# Coordination Sequence:
#
# PCOD8317876 Si02
#       7
#    16  16  16  16  16  16  16
#     4   9  17  29  43  64  89 115 148 190 234 272
#     4  10  19  32  50  72  95 123 159 196 233 276
#     4   9  17  30  49  70  94 122 153 192 235 277
#     4   9  17  28  44  64  87 117 151 187 222 266
#     4   9  18  31  45  63  90 121 150 183 227 277
#     4  10  20  32  46  69  97 126 158 192 235 284
#     4   9  17  29  45  68  94 123 157 190 229 282
#
# _framework density 15.951385999999999
#
# number of rings (size 3 to 8) (size 9 to 14) (size 15 to 20)
#    0.000    2.714    1.429    0.429    0.000    2.000 
#    2.571    2.857    0.000    0.429    0.000    5.000 
#    0.000    5.714    0.000    0.000    0.000    0.000 
#
# Total GULP energy -1388066.697683 kJ/mol
# GULP energy per Si atom -12393.452658 kJ/mol
# Density = 1.591508 g / cm^3
# Si number density = 15.951386 Si / 1000 Ang^3
#
#
#
# Elastic Constant Matrix: (Units=GPa)
#
#
# Indices 1 2 3 4 5 6 
#
# 1 80.3947 47.1811 43.0888 0.0000 0.0000 0.0000
# 2 47.1811 80.3947 43.0888 0.0000 0.0000 0.0000
# 3 43.0888 43.0888 51.7479 0.0000 0.0000 0.0000
# 4 0.0000 0.0000 0.0000 25.4149 0.0000 0.0000
# 5 0.0000 0.0000 0.0000 0.0000 25.4149 0.0000
# 6 0.0000 0.0000 0.0000 0.0000 0.0000 22.2381
#
#
#
# Elastic Compliance Matrix: (Units=1/GPa)
#
#
# Indices 1 2 3 4 5 6 
#
# 1 0.024012 -0.006096 -0.014917 0.000000 0.000000 0.000000
# 2 -0.006096 0.024012 -0.014917 0.000000 0.000000 0.000000
# 3 -0.014917 -0.014917 0.044167 0.000000 0.000000 0.000000
# 4 0.000000 0.000000 0.000000 0.039347 0.000000 0.000000
# 5 0.000000 0.000000 0.000000 0.000000 0.039347 0.000000
# 6 0.000000 0.000000 0.000000 0.000000 0.000000 0.044968
#
#
# Mechanical properties :
#
#
# Convention : Reuss Voigt Hill
#
# Bulk Modulus (GPa) = 49.19393 53.25054 51.22224
# Shear Modulus (GPa) = 16.97844 19.89214 18.43529
#
# Velocity S-wave (km/s) = 3.26603 3.53519 3.40327
# Velocity P-wave (km/s) = 6.71785 7.07947 6.90103
#
# Compressibility (1/GPa) = 0.02032771
#
# Stress axis : x y z
#
# Youngs Moduli (GPa) = 41.64631 41.64631 22.64128
#
# Poissons Ratio (x) = 0.25390 0.33775
# Poissons Ratio (y) = 0.25390 0.33775
# Poissons Ratio (z) = 0.62126 0.62126
#
# Static dielectric constant tensor:
#      x y z
#    x 3.038950 0.000000 0.000000 
#    y 0.000000 3.038950 0.000000 
#    z 0.000000 0.000000 3.220570 
# 
# 
# High freq. dielectric constant tensor:
#      x y z
#    x 1.600710 0.000000 0.000000 
#    y 0.000000 1.600710 0.000000 
#    z 0.000000 0.000000 1.620770 
# 
# From -- ./inp_files/9214.got.cif
#   From: 2010.03.12/outbox.cif.g09.slc.cpg/sg136_5_cif.got.tgz:9214.got - 2010.04.06 18:39:43.
