data_PCOD8317344
_publ_section_title
;
Structure prediction by ZEFSAII (Michael W. Deem and Ramdas Pophale) SiO2 
 PCOD8317344
Probable space group: P 42/N N M
;
_chemical_formula_sum "Si O2"
_cell_formula_units_Z 36
_cell_length_a 10.026292
_cell_length_b 10.026292
_cell_length_c 15.734870
_cell_angle_alpha 90.000000
_cell_angle_beta 90.000000
_cell_angle_gamma 90.000000
_cell_volume 1581.771901
_symmetry_space_group_name_H-M "P 42/N N M"
_symmetry_group_IT_number 134
_space_group.IT_coordinate_system_code '2'
_symmetry_cell_setting 'tetragonal'
loop_
_space_group_symop_operation_xyz
x,y,z
1/2-y,x,1/2+z
1/2-x,1/2-y,z
y,1/2-x,1/2+z
x,1/2-y,1/2-z
1/2-x,y,1/2-z
y,x,-z
1/2-y,1/2-x,-z
-x,-y,-z
1/2+y,-x,1/2-z
1/2+x,1/2+y,-z
-y,1/2+x,1/2-z
-x,1/2+y,1/2+z
1/2+x,-y,1/2+z
-y,-x,z
1/2+y,1/2+x,z
loop_
_atom_site_type_symbol
_atom_site_label
_atom_site_fract_x
_atom_site_fract_y
_atom_site_fract_z
Si Si1 0.539263 0.460738 0.791291
Si Si2 0.750000 0.250000 0.750000
Si Si3 0.250000 0.750000 0.750000
Si Si4 0.574657 0.425344 0.368562
Si Si5 0.393260 0.307047 0.086373
O O1 0.652926 0.347075 0.805813
O O2 0.520740 0.479261 0.689159
O O3 0.398359 0.423132 0.832866
O O4 0.158023 0.658023 0.803843
O O5 0.492178 0.319919 0.425650
O O6 0.250000 0.250000 0.104219
O O7 0.395015 0.395015 0.000000
#
# Coordination Sequence:
#
# PCOD8317344 Si02
#       5
#     8   2   2   8  16
#     4  12  23  43  64  97 131 179 235 292 352 436
#     4  12  28  36  62  92 136 172 214 300 368 416
#     4  12  20  40  70 100 116 180 232 302 332 412
#     4  12  22  43  71  98 133 181 250 287 348 440
#     4  11  25  42  67  99 138 181 227 297 368 430
#
# _framework density 22.759284999999998
#
# number of rings (size 3 to 8) (size 9 to 14) (size 15 to 20)
#    0.000    0.444    4.444    3.333    0.000    7.111 
#    0.000    0.000    0.000    0.000    0.000    0.000 
#    0.000    0.000    0.000    0.000    0.000    0.000 
#
# Total GULP energy -446250.091395 kJ/mol
# GULP energy per Si atom -12395.835872 kJ/mol
# Density = 2.270748 g / cm^3
# Si number density = 22.759285 Si / 1000 Ang^3
#
#
#
# Elastic Constant Matrix: (Units=GPa)
#
#
# Indices 1 2 3 4 5 6 
#
# 1 132.5386 70.9152 31.2338 0.0000 0.0000 0.0000
# 2 70.9152 132.5386 31.2338 0.0000 0.0000 0.0000
# 3 31.2338 31.2338 95.4292 0.0000 0.0000 0.0000
# 4 0.0000 0.0000 0.0000 58.7711 0.0000 0.0000
# 5 0.0000 0.0000 0.0000 0.0000 58.7711 0.0000
# 6 0.0000 0.0000 0.0000 0.0000 0.0000 74.6139
#
#
#
# Elastic Compliance Matrix: (Units=1/GPa)
#
#
# Indices 1 2 3 4 5 6 
#
# 1 0.010846 -0.005382 -0.001788 0.000000 0.000000 0.000000
# 2 -0.005382 0.010846 -0.001788 0.000000 0.000000 0.000000
# 3 -0.001788 -0.001788 0.011650 0.000000 0.000000 0.000000
# 4 0.000000 0.000000 0.000000 0.017015 0.000000 0.000000
# 5 0.000000 0.000000 0.000000 0.000000 0.017015 0.000000
# 6 0.000000 0.000000 0.000000 0.000000 0.000000 0.013402
#
#
# Mechanical properties :
#
#
# Convention : Reuss Voigt Hill
#
# Bulk Modulus (GPa) = 64.83231 69.69690 67.26460
# Shear Modulus (GPa) = 48.15439 53.57282 50.86360
#
# Velocity S-wave (km/s) = 4.60479 4.85695 4.73255
# Velocity P-wave (km/s) = 7.53790 7.88310 7.71244
#
# Compressibility (1/GPa) = 0.01542441
#
# Stress axis : x y z
#
# Youngs Moduli (GPa) = 92.20064 92.20064 85.83926
#
# Poissons Ratio (x) = 0.49619 0.15352
# Poissons Ratio (y) = 0.49619 0.15352
# Poissons Ratio (z) = 0.16489 0.16489
#
# Static dielectric constant tensor:
#      x y z
#    x 4.588900 0.000000 0.000000 
#    y 0.000000 4.588900 0.000000 
#    z 0.000000 0.000000 4.055860 
# 
# 
# High freq. dielectric constant tensor:
#      x y z
#    x 1.916880 0.000000 0.000000 
#    y 0.000000 1.916880 0.000000 
#    z 0.000000 0.000000 1.875130 
# 
# From -- ./inp_files/5674.got.cif
#   From: 2010.03.12/outbox.cif.g09.slc.cpg/sg134_3_cif.got.tgz:5674.got - 2010.04.06 18:17:22.
