data_PCOD8317712
_publ_section_title
;
Structure prediction by ZEFSAII (Michael W. Deem and Ramdas Pophale) SiO2 
 PCOD8317712
Probable space group: P 42/M N M
;
_chemical_formula_sum "Si O2"
_cell_formula_units_Z 72
_cell_length_a 20.474097
_cell_length_b 20.474097
_cell_length_c 9.906191
_cell_angle_alpha 90.000000
_cell_angle_beta 90.000000
_cell_angle_gamma 90.000000
_cell_volume 4152.562812
_symmetry_space_group_name_H-M "P 42/M N M"
_symmetry_group_IT_number 136
_symmetry_cell_setting 'tetragonal'
loop_
_space_group_symop_operation_xyz
x,y,z
1/2-y,1/2+x,1/2+z
-x,-y,z
1/2+y,1/2-x,1/2+z
1/2+x,1/2-y,1/2-z
1/2-x,1/2+y,1/2-z
y,x,-z
-y,-x,-z
-x,-y,-z
1/2+y,1/2-x,1/2-z
x,y,-z
1/2-y,1/2+x,1/2-z
1/2-x,1/2+y,1/2+z
1/2+x,1/2-y,1/2+z
-y,-x,z
y,x,z
loop_
_atom_site_type_symbol
_atom_site_label
_atom_site_fract_x
_atom_site_fract_y
_atom_site_fract_z
Si Si1 0.912273 0.561394 0.748327
Si Si2 0.531111 0.360867 0.707765
Si Si3 0.428340 0.328517 0.500000
Si Si4 0.111729 0.215544 0.000000
Si Si5 0.106474 0.998284 0.500000
Si Si6 0.825502 0.552044 0.500000
Si Si7 0.643197 0.901037 0.000000
O O1 0.913855 0.484966 0.785789
O O2 0.863392 0.579952 0.628832
O O3 0.882578 0.599587 0.873428
O O4 0.571425 0.428576 0.686592
O O5 0.462518 0.361027 0.630597
O O6 0.571417 0.301491 0.637561
O O7 0.514086 0.349886 0.866467
O O8 0.353416 0.353416 0.500000
O O9 0.427440 0.249976 0.500000
O O10 0.137990 0.289390 0.000000
O O11 0.178680 0.178680 0.000000
O O12 0.075720 0.924281 0.500000
O O13 0.045808 0.045808 0.500000
O O14 0.832201 0.474985 0.500000
#
# Coordination Sequence:
#
# PCOD8317712 Si02
#       7
#    16  16   8   8   8   8   8
#     4   9  18  32  56  82  99 120 153 207 265 318
#     4   9  17  30  48  72 100 133 177 217 251 284
#     4  11  20  31  49  71 103 147 178 205 242 292
#     4   9  17  31  50  73 100 137 178 206 235 289
#     4   9  16  26  42  66  96 126 164 221 265 283
#     4  10  19  34  50  74 109 126 164 206 256 303
#     4  10  17  33  56  74 103 128 165 207 258 296
#
# _framework density 17.33869
#
# number of rings (size 3 to 8) (size 9 to 14) (size 15 to 20)
#    0.000    2.556    2.222    2.333    0.000    4.444 
#    0.000    3.333    0.000    0.000    0.000    0.000 
#    0.000    0.000    0.000    0.000    0.000    0.000 
#
# Total GULP energy -892030.903969 kJ/mol
# GULP energy per Si atom -12389.318111 kJ/mol
# Density = 1.729923 g / cm^3
# Si number density = 17.338690 Si / 1000 Ang^3
#
#
#
# Elastic Constant Matrix: (Units=GPa)
#
#
# Indices 1 2 3 4 5 6 
#
# 1 81.0688 38.0998 60.0516 0.0000 0.0000 0.0000
# 2 38.0998 81.0690 60.0517 0.0000 0.0000 0.0000
# 3 60.0516 60.0517 166.4880 0.0000 0.0000 0.0000
# 4 0.0000 0.0000 0.0000 -37.9599 0.0000 0.0000
# 5 0.0000 0.0000 0.0000 0.0000 -37.9594 0.0000
# 6 0.0000 0.0000 0.0000 0.0000 0.0000 12.6839
#
#
#
# Elastic Compliance Matrix: (Units=1/GPa)
#
#
# Indices 1 2 3 4 5 6 
#
# 1 0.018228 -0.005044 -0.004756 0.000000 0.000000 0.000000
# 2 -0.005044 0.018228 -0.004756 0.000000 0.000000 0.000000
# 3 -0.004756 -0.004756 0.009437 0.000000 0.000000 0.000000
# 4 0.000000 0.000000 0.000000 -0.026344 0.000000 0.000000
# 5 0.000000 0.000000 0.000000 0.000000 -0.026344 0.000000
# 6 0.000000 0.000000 0.000000 0.000000 0.000000 0.078840
#
#
# Mechanical properties :
#
#
# Convention : Reuss Voigt Hill
#
# Bulk Modulus (GPa) = 59.58231 71.67024 65.62628
# Shear Modulus (GPa) = 46.83782 -1.28557 22.77613
#
# Velocity S-wave (km/s) = 5.20309 -0.86201 3.62830
# Velocity P-wave (km/s) = 8.39848 6.35881 7.44879
#
# Compressibility (1/GPa) = 0.01678350
#
# Stress axis : x y z
#
# Youngs Moduli (GPa) = 54.85934 54.85946 105.96543
#
# Poissons Ratio (x) = 0.27672 0.50392
# Poissons Ratio (y) = 0.27672 0.50392
# Poissons Ratio (z) = 0.26088 0.26089
#
# Static dielectric constant tensor:
#      x y z
#    x 3.089830 0.000000 0.000000 
#    y 0.000000 3.089830 0.000000 
#    z 0.000000 0.000000 3.569390 
# 
# 
# High freq. dielectric constant tensor:
#      x y z
#    x 1.645270 0.000000 0.000000 
#    y 0.000000 1.645270 0.000000 
#    z 0.000000 0.000000 1.676700 
# 
# From -- ./inp_files/1691.got.cif
#   From: 2010.03.12/outbox.cif.g09.slc.cpg/sg136_1_cif.got.tgz:1691.got - 2010.04.06 18:39:43.
