data_PCOD8317037
_publ_section_title
;
Structure prediction by ZEFSAII (Michael W. Deem and Ramdas Pophale) SiO2 
 PCOD8317037
Probable space group: P 42/N B C
;
_chemical_formula_sum "Si O2"
_cell_formula_units_Z 96
_cell_length_a 15.801720
_cell_length_b 15.801720
_cell_length_c 16.811208
_cell_angle_alpha 90.000000
_cell_angle_beta 90.000000
_cell_angle_gamma 90.000000
_cell_volume 4197.663738
_symmetry_space_group_name_H-M "P 42/N B C"
_symmetry_group_IT_number 133
_space_group.IT_coordinate_system_code '2'
_symmetry_cell_setting 'tetragonal'
loop_
_space_group_symop_operation_xyz
x,y,z
1/2-y,x,1/2+z
1/2-x,1/2-y,z
y,1/2-x,1/2+z
x,1/2-y,-z
1/2-x,y,-z
y,x,1/2-z
1/2-y,1/2-x,1/2-z
-x,-y,-z
1/2+y,-x,1/2-z
1/2+x,1/2+y,-z
-y,1/2+x,1/2-z
-x,1/2+y,z
1/2+x,-y,z
-y,-x,1/2+z
1/2+y,1/2+x,1/2+z
loop_
_atom_site_type_symbol
_atom_site_label
_atom_site_fract_x
_atom_site_fract_y
_atom_site_fract_z
Si Si1 0.174690 0.880488 0.944728
Si Si2 0.341997 0.286391 0.670698
Si Si3 0.075226 0.343655 0.476337
Si Si4 0.637784 0.224408 0.714314
Si Si5 0.536895 0.836496 0.242373
Si Si6 0.176814 0.017663 0.440050
O O1 0.209152 0.875362 0.855893
O O2 0.083124 0.836591 0.951403
O O3 0.156798 0.975095 0.972138
O O4 0.250000 0.840808 0.000000
O O5 0.250000 0.250000 0.645274
O O6 0.340280 0.340280 0.750000
O O7 0.380816 0.353795 0.609293
O O8 0.403707 0.208886 0.692406
O O9 0.109283 0.250000 0.500000
O O10 0.098828 0.421077 0.534915
O O11 0.659669 0.282412 0.793435
O O12 0.557272 0.166566 0.725619
O O13 0.565473 0.934527 0.250000
O O14 0.540017 0.801046 0.151774
O O15 0.250000 0.046274 0.500000
#
# Coordination Sequence:
#
# PCOD8317037 Si02
#       6
#    16  16  16  16  16  16
#     4  11  26  49  75 103 149 200 251 320 386 452
#     4  11  22  39  66 102 138 193 239 294 368 451
#     4  11  25  44  70 104 151 190 238 305 389 453
#     4  11  25  49  79 107 146 196 262 311 382 450
#     4  12  24  46  74 106 148 192 250 314 376 456
#     4  12  28  45  72 114 148 196 259 313 385 464
#
# _framework density 22.869865000000001
#
# number of rings (size 3 to 8) (size 9 to 14) (size 15 to 20)
#    0.000    0.667    5.000    2.500    7.000    0.333 
#    0.000    1.667    0.000    0.000    0.000    0.000 
#    0.000    0.000    0.000    0.000    0.000    0.000 
#
# Total GULP energy -1189350.787513 kJ/mol
# GULP energy per Si atom -12389.070703 kJ/mol
# Density = 2.281781 g / cm^3
# Si number density = 22.869865 Si / 1000 Ang^3
#
#
#
# Elastic Constant Matrix: (Units=GPa)
#
#
# Indices 1 2 3 4 5 6 
#
# 1 108.4562 34.0098 10.5866 0.0000 0.0000 0.0000
# 2 34.0098 108.4557 10.5869 0.0000 0.0000 0.0000
# 3 10.5866 10.5869 65.7547 0.0000 0.0000 0.0000
# 4 0.0000 0.0000 0.0000 32.6589 0.0000 0.0000
# 5 0.0000 0.0000 0.0000 0.0000 32.6591 0.0000
# 6 0.0000 0.0000 0.0000 0.0000 0.0000 34.2243
#
#
#
# Elastic Compliance Matrix: (Units=1/GPa)
#
#
# Indices 1 2 3 4 5 6 
#
# 1 0.010312 -0.003121 -0.001158 0.000000 0.000000 0.000000
# 2 -0.003121 0.010312 -0.001158 0.000000 0.000000 0.000000
# 3 -0.001158 -0.001158 0.015581 0.000000 0.000000 0.000000
# 4 0.000000 0.000000 0.000000 0.030620 0.000000 0.000000
# 5 0.000000 0.000000 0.000000 0.000000 0.030619 0.000000
# 6 0.000000 0.000000 0.000000 0.000000 0.000000 0.029219
#
#
# Mechanical properties :
#
#
# Convention : Reuss Voigt Hill
#
# Bulk Modulus (GPa) = 39.47547 43.67035 41.57291
# Shear Modulus (GPa) = 34.25144 35.07399 34.66271
#
# Velocity S-wave (km/s) = 3.87417 3.92041 3.89736
# Velocity P-wave (km/s) = 6.10824 6.29519 6.20242
#
# Compressibility (1/GPa) = 0.02533218
#
# Stress axis : x y z
#
# Youngs Moduli (GPa) = 96.97540 96.97489 64.18125
#
# Poissons Ratio (x) = 0.30262 0.07431
# Poissons Ratio (y) = 0.30262 0.07431
# Poissons Ratio (z) = 0.11228 0.11228
#
# Static dielectric constant tensor:
#      x y z
#    x 4.235980 0.000000 0.000000 
#    y 0.000000 4.235990 0.000000 
#    z 0.000000 0.000000 4.328810 
# 
# 
# High freq. dielectric constant tensor:
#      x y z
#    x 1.902360 0.000000 0.000000 
#    y 0.000000 1.902370 0.000000 
#    z 0.000000 0.000000 1.908430 
# 
# From -- ./inp_files/6555.got.cif
#   From: 2010.03.12/outbox.cif.g09.slc.cpg/sg133_4_cif.got.tgz:6555.got - 2010.04.06 18:08:06.
