data_PCOD8317395
_publ_section_title
;
Structure prediction by ZEFSAII (Michael W. Deem and Ramdas Pophale) SiO2 
 PCOD8317395
Probable space group: P 42/M B C
;
_chemical_formula_sum "Si O2"
_cell_formula_units_Z 96
_cell_length_a 23.694004
_cell_length_b 23.694004
_cell_length_c 8.752307
_cell_angle_alpha 90.000000
_cell_angle_beta 90.000000
_cell_angle_gamma 90.000000
_cell_volume 4913.596137
_symmetry_space_group_name_H-M "P 42/M B C"
_symmetry_group_IT_number 135
_symmetry_cell_setting 'tetragonal'
loop_
_space_group_symop_operation_xyz
x,y,z
-y,x,1/2+z
-x,-y,z
y,-x,1/2+z
1/2+x,1/2-y,-z
1/2-x,1/2+y,-z
1/2+y,1/2+x,1/2-z
1/2-y,1/2-x,1/2-z
-x,-y,-z
y,-x,1/2-z
x,y,-z
-y,x,1/2-z
1/2-x,1/2+y,z
1/2+x,1/2-y,z
1/2-y,1/2-x,1/2+z
1/2+y,1/2+x,1/2+z
loop_
_atom_site_type_symbol
_atom_site_label
_atom_site_fract_x
_atom_site_fract_y
_atom_site_fract_z
Si Si1 0.065447 0.649571 0.322344
Si Si2 0.964216 0.930908 0.831601
Si Si3 0.140451 0.445899 0.681306
Si Si4 0.863672 0.852087 0.172649
Si Si5 0.069900 0.240179 0.318882
Si Si6 0.220680 0.055123 0.175631
O O1 0.119019 0.619019 0.250000
O O2 0.058588 0.634338 0.500000
O O3 0.076376 0.715888 0.299861
O O4 0.009847 0.630126 0.233791
O O5 0.926498 0.876188 0.828965
O O6 0.015387 0.925066 0.712889
O O7 0.989306 0.940946 0.000000
O O8 0.089945 0.410056 0.750000
O O9 0.140037 0.442403 0.500000
O O10 0.199118 0.421389 0.743663
O O11 0.874386 0.796049 0.273361
O O12 0.820492 0.897175 0.251566
O O13 0.844173 0.836121 0.000000
O O14 0.067006 0.248025 0.500000
O O15 0.009120 0.214529 0.260227
O O16 0.202344 0.054020 0.000000
#
# Coordination Sequence:
#
# PCOD8317395 Si02
#       6
#    16  16  16  16  16  16
#     4  10  20  37  60  87 116 148 182 222 272 327
#     4  10  19  29  43  64  94 130 174 227 286 339
#     4  11  22  39  62  88 116 146 179 219 267 326
#     4  10  19  32  50  73 100 140 188 232 275 325
#     4  10  20  36  56  80 110 147 186 230 280 329
#     4   8  17  34  54  74 105 145 185 228 278 327
#
# _framework density 19.537624999999998
#
# number of rings (size 3 to 8) (size 9 to 14) (size 15 to 20)
#    0.000    2.167    0.000    5.500    0.000    3.000 
#    0.000    7.500    0.000    2.000    0.000    0.000 
#    0.000    0.000    0.000    0.000    0.000    0.000 
#
# Total GULP energy -1189802.826834 kJ/mol
# GULP energy per Si atom -12393.779446 kJ/mol
# Density = 1.949316 g / cm^3
# Si number density = 19.537625 Si / 1000 Ang^3
#
#
#
# Elastic Constant Matrix: (Units=GPa)
#
#
# Indices 1 2 3 4 5 6 
#
# 1 68.8732 45.2154 28.4249 0.0000 0.0000 0.0000
# 2 45.2154 68.8689 28.4216 0.0000 0.0000 0.0000
# 3 28.4249 28.4216 99.3382 0.0000 0.0000 0.0000
# 4 0.0000 0.0000 0.0000 27.8093 0.0000 0.0000
# 5 0.0000 0.0000 0.0000 0.0000 27.8094 0.0000
# 6 0.0000 0.0000 0.0000 0.0000 0.0000 40.8539
#
#
#
# Elastic Compliance Matrix: (Units=1/GPa)
#
#
# Indices 1 2 3 4 5 6 
#
# 1 0.026247 -0.016025 -0.002926 0.000000 0.000000 0.000000
# 2 -0.016025 0.026248 -0.002924 0.000000 0.000000 0.000000
# 3 -0.002926 -0.002924 0.011740 0.000000 0.000000 0.000000
# 4 0.000000 0.000000 0.000000 0.035959 0.000000 0.000000
# 5 0.000000 0.000000 0.000000 0.000000 0.035959 0.000000
# 6 0.000000 0.000000 0.000000 0.000000 0.000000 0.024477
#
#
# Mechanical properties :
#
#
# Convention : Reuss Voigt Hill
#
# Bulk Modulus (GPa) = 48.81392 49.02267 48.91829
# Shear Modulus (GPa) = 23.67298 28.29575 25.98437
#
# Velocity S-wave (km/s) = 3.48467 3.80974 3.65083
# Velocity P-wave (km/s) = 6.42101 6.67069 6.54704
#
# Compressibility (1/GPa) = 0.02048596
#
# Stress axis : x y z
#
# Youngs Moduli (GPa) = 38.09892 38.09744 85.17557
#
# Poissons Ratio (x) = 0.61052 0.24918
# Poissons Ratio (y) = 0.61054 0.24909
# Poissons Ratio (z) = 0.11146 0.11141
#
# Static dielectric constant tensor:
#      x y z
#    x 3.539180 0.000000 0.000000 
#    y 0.000000 3.539180 0.000000 
#    z 0.000000 0.000000 3.535450 
# 
# 
# High freq. dielectric constant tensor:
#      x y z
#    x 1.753560 0.000000 0.000000 
#    y 0.000000 1.753560 0.000000 
#    z 0.000000 0.000000 1.752400 
# 
# From -- ./inp_files/1276.got.cif
#   From: 2010.03.12/outbox.cif.g09.slc.cpg/sg135_1_cif.got.tgz:1276.got - 2010.04.06 18:31:24.
