data_PCOD8317795
_publ_section_title
;
Structure prediction by ZEFSAII (Michael W. Deem and Ramdas Pophale) SiO2 
 PCOD8317795
Probable space group: P 42/M N M
;
_chemical_formula_sum "Si O2"
_cell_formula_units_Z 96
_cell_length_a 15.615556
_cell_length_b 15.615556
_cell_length_c 20.526336
_cell_angle_alpha 90.000000
_cell_angle_beta 90.000000
_cell_angle_gamma 90.000000
_cell_volume 5005.256496
_symmetry_space_group_name_H-M "P 42/M N M"
_symmetry_group_IT_number 136
_symmetry_cell_setting 'tetragonal'
loop_
_space_group_symop_operation_xyz
x,y,z
1/2-y,1/2+x,1/2+z
-x,-y,z
1/2+y,1/2-x,1/2+z
1/2+x,1/2-y,1/2-z
1/2-x,1/2+y,1/2-z
y,x,-z
-y,-x,-z
-x,-y,-z
1/2+y,1/2-x,1/2-z
x,y,-z
1/2-y,1/2+x,1/2-z
1/2-x,1/2+y,1/2+z
1/2+x,1/2-y,1/2+z
-y,-x,z
y,x,z
loop_
_atom_site_type_symbol
_atom_site_label
_atom_site_fract_x
_atom_site_fract_y
_atom_site_fract_z
Si Si1 0.687943 0.173859 0.870436
Si Si2 0.392967 0.085172 0.750417
Si Si3 0.222300 0.083063 0.814472
Si Si4 0.818422 0.043762 0.074876
Si Si5 0.560272 0.296669 0.070910
Si Si6 0.638730 0.505166 0.802609
O O1 0.749074 0.250927 0.846103
O O2 0.649346 0.128495 0.807700
O O3 0.738695 0.106271 0.914000
O O4 0.612928 0.210270 0.915750
O O5 0.487413 0.108408 0.776400
O O6 0.324579 0.098914 0.809516
O O7 0.172396 0.172396 0.805789
O O8 0.192100 0.040913 0.881866
O O9 0.202966 0.017454 0.755411
O O10 0.906943 0.093058 0.092682
O O11 0.819715 0.014495 0.000000
O O12 0.623204 0.376797 0.069261
O O13 0.491493 0.310967 0.128516
O O14 0.514688 0.288132 0.000000
O O15 0.565139 0.434862 0.805432
O O16 0.598487 0.598487 0.789259
#
# Coordination Sequence:
#
# PCOD8317795 Si02
#       6
#    16  16  16  16  16  16
#     4  10  18  34  57  82 114 149 189 236 288 343
#     4  11  22  37  59  85 113 140 188 246 293 336
#     4  11  21  37  58  82 115 154 194 235 288 352
#     4  10  21  36  58  90 123 154 192 238 288 343
#     4   9  16  26  45  73 105 143 184 226 272 325
#     4   9  17  28  44  71 107 144 181 222 272 334
#
# _framework density 19.179836000000002
#
# number of rings (size 3 to 8) (size 9 to 14) (size 15 to 20)
#    0.000    2.000    3.333    1.500    0.000    3.667 
#    0.000    2.500    0.000    3.000    0.000    0.000 
#    0.000    0.000    0.000    0.000    0.000    0.000 
#
# Total GULP energy -1190125.728088 kJ/mol
# GULP energy per Si atom -12397.143001 kJ/mol
# Density = 1.913618 g / cm^3
# Si number density = 19.179836 Si / 1000 Ang^3
#
#
#
# Elastic Constant Matrix: (Units=GPa)
#
#
# Indices 1 2 3 4 5 6 
#
# 1 65.1620 15.4481 11.2611 0.0000 0.0000 0.0000
# 2 15.4481 65.1620 11.2611 0.0000 0.0000 0.0000
# 3 11.2611 11.2611 95.9582 0.0000 0.0000 0.0000
# 4 0.0000 0.0000 0.0000 24.9122 0.0000 0.0000
# 5 0.0000 0.0000 0.0000 0.0000 24.9122 0.0000
# 6 0.0000 0.0000 0.0000 0.0000 0.0000 20.9885
#
#
#
# Elastic Compliance Matrix: (Units=1/GPa)
#
#
# Indices 1 2 3 4 5 6 
#
# 1 0.016471 -0.003645 -0.001505 0.000000 0.000000 0.000000
# 2 -0.003645 0.016471 -0.001505 0.000000 0.000000 0.000000
# 3 -0.001505 -0.001505 0.010774 0.000000 0.000000 0.000000
# 4 0.000000 0.000000 0.000000 0.040141 0.000000 0.000000
# 5 0.000000 0.000000 0.000000 0.000000 0.040141 0.000000
# 6 0.000000 0.000000 0.000000 0.000000 0.000000 0.047645
#
#
# Mechanical properties :
#
#
# Convention : Reuss Voigt Hill
#
# Bulk Modulus (GPa) = 32.88862 33.58030 33.23446
# Shear Modulus (GPa) = 25.62948 26.71669 26.17308
#
# Velocity S-wave (km/s) = 3.65947 3.73628 3.69808
# Velocity P-wave (km/s) = 5.91949 6.01325 5.96656
#
# Compressibility (1/GPa) = 0.03040565
#
# Stress axis : x y z
#
# Youngs Moduli (GPa) = 60.71459 60.71459 92.81193
#
# Poissons Ratio (x) = 0.22128 0.13970
# Poissons Ratio (y) = 0.22128 0.13970
# Poissons Ratio (z) = 0.09139 0.09139
#
# Static dielectric constant tensor:
#      x y z
#    x 3.471830 0.000000 0.000000 
#    y 0.000000 3.471830 0.000000 
#    z 0.000000 0.000000 3.523400 
# 
# 
# High freq. dielectric constant tensor:
#      x y z
#    x 1.731430 0.000000 0.000000 
#    y 0.000000 1.731430 0.000000 
#    z 0.000000 0.000000 1.735460 
# 
# From -- ./inp_files/7487.got.cif
#   From: 2010.03.12/outbox.cif.g09.slc.cpg/sg136_4_cif.got.tgz:7487.got - 2010.04.06 18:39:43.
