data_PCOD8317772
_publ_section_title
;
Structure prediction by ZEFSAII (Michael W. Deem and Ramdas Pophale) SiO2 
 PCOD8317772
Probable space group: P 42/M N M
;
_chemical_formula_sum "Si O2"
_cell_formula_units_Z 120
_cell_length_a 25.879111
_cell_length_b 25.879111
_cell_length_c 8.879745
_cell_angle_alpha 90.000000
_cell_angle_beta 90.000000
_cell_angle_gamma 90.000000
_cell_volume 5947.017288
_symmetry_space_group_name_H-M "P 42/M N M"
_symmetry_group_IT_number 136
_symmetry_cell_setting 'tetragonal'
loop_
_space_group_symop_operation_xyz
x,y,z
1/2-y,1/2+x,1/2+z
-x,-y,z
1/2+y,1/2-x,1/2+z
1/2+x,1/2-y,1/2-z
1/2-x,1/2+y,1/2-z
y,x,-z
-y,-x,-z
-x,-y,-z
1/2+y,1/2-x,1/2-z
x,y,-z
1/2-y,1/2+x,1/2-z
1/2-x,1/2+y,1/2+z
1/2+x,1/2-y,1/2+z
-y,-x,z
y,x,z
loop_
_atom_site_type_symbol
_atom_site_label
_atom_site_fract_x
_atom_site_fract_y
_atom_site_fract_z
Si Si1 0.542611 0.457390 0.836745
Si Si2 0.923089 0.501824 0.320042
Si Si3 0.705947 0.866341 0.326284
Si Si4 0.827454 0.256276 0.820558
Si Si5 0.982043 0.682969 0.320396
Si Si6 0.398621 0.685031 0.831892
Si Si7 0.556262 0.735286 0.325246
Si Si8 0.643226 0.489153 0.669390
O O1 0.500000 0.500000 0.848945
O O2 0.591326 0.484756 0.762459
O O3 0.561464 0.438537 0.000000
O O4 0.928317 0.497784 0.500000
O O5 0.947092 0.451857 0.238763
O O6 0.864370 0.507305 0.268896
O O7 0.690812 0.865777 0.500000
O O8 0.681794 0.814366 0.252749
O O9 0.767257 0.860958 0.297854
O O10 0.688000 0.922326 0.262473
O O11 0.785136 0.214865 0.757806
O O12 0.884914 0.240592 0.768406
O O13 0.822925 0.257264 0.000000
O O14 0.984325 0.675193 0.500000
O O15 0.016854 0.731958 0.276548
O O16 0.368213 0.631788 0.817568
O O17 0.444673 0.684050 0.713220
O O18 0.421835 0.692179 0.000000
O O19 0.550479 0.752266 0.500000
O O20 0.542648 0.674246 0.307058
O O21 0.625475 0.481475 0.500000
#
# Coordination Sequence:
#
# PCOD8317772 Si02
#       8
#     8  16  16  16  16  16  16  16
#     4  11  25  43  63  87 115 153 203 253 309 379
#     4  11  23  41  62  87 120 158 203 252 307 369
#     4   9  18  32  54  86 118 151 198 248 297 350
#     4   9  18  35  59  87 117 152 202 255 301 357
#     4  11  22  36  57  89 124 163 206 249 303 362
#     4  10  18  31  55  84 114 149 189 240 297 353
#     4  10  22  38  59  88 122 163 204 251 308 370
#     4  11  22  36  56  86 121 155 195 243 306 368
#
# _framework density 20.178183000000001
#
# number of rings (size 3 to 8) (size 9 to 14) (size 15 to 20)
#    0.000    1.800    2.000    3.000    1.867    3.200 
#    0.000    1.333    0.000    1.200    0.000    0.000 
#    0.000    0.000    0.000    0.000    0.000    0.000 
#
# Total GULP energy -1487325.556883 kJ/mol
# GULP energy per Si atom -12394.379641 kJ/mol
# Density = 2.013226 g / cm^3
# Si number density = 20.178183 Si / 1000 Ang^3
#
#
#
# Elastic Constant Matrix: (Units=GPa)
#
#
# Indices 1 2 3 4 5 6 
#
# 1 111.2090 40.5136 32.7176 0.0000 0.0000 0.0000
# 2 40.5136 111.2087 32.7175 0.0000 0.0000 0.0000
# 3 32.7176 32.7175 86.8593 0.0000 0.0000 0.0000
# 4 0.0000 0.0000 0.0000 9.7506 0.0000 0.0000
# 5 0.0000 0.0000 0.0000 0.0000 9.7479 0.0000
# 6 0.0000 0.0000 0.0000 0.0000 0.0000 28.0571
#
#
#
# Elastic Compliance Matrix: (Units=1/GPa)
#
#
# Indices 1 2 3 4 5 6 
#
# 1 0.011007 -0.003138 -0.002964 0.000000 0.000000 0.000000
# 2 -0.003138 0.011007 -0.002964 0.000000 0.000000 0.000000
# 3 -0.002964 -0.002964 0.013746 0.000000 0.000000 0.000000
# 4 0.000000 0.000000 0.000000 0.102558 0.000000 0.000000
# 5 0.000000 0.000000 0.000000 0.000000 0.102586 0.000000
# 6 0.000000 0.000000 0.000000 0.000000 0.000000 0.035642
#
#
# Mechanical properties :
#
#
# Convention : Reuss Voigt Hill
#
# Bulk Modulus (GPa) = 56.72804 57.90824 57.31814
# Shear Modulus (GPa) = 16.63592 23.06633 19.85113
#
# Velocity S-wave (km/s) = 2.87444 3.38469 3.13995
# Velocity P-wave (km/s) = 6.26028 6.63593 6.45084
#
# Compressibility (1/GPa) = 0.01762797
#
# Stress axis : x y z
#
# Youngs Moduli (GPa) = 90.84887 90.84867 72.74882
#
# Poissons Ratio (x) = 0.28508 0.21564
# Poissons Ratio (y) = 0.28508 0.21564
# Poissons Ratio (z) = 0.26929 0.26929
#
# Static dielectric constant tensor:
#      x y z
#    x 3.771100 0.000000 0.000000 
#    y 0.000000 3.771100 0.000000 
#    z 0.000000 0.000000 3.427980 
# 
# 
# High freq. dielectric constant tensor:
#      x y z
#    x 1.794840 0.000000 0.000000 
#    y 0.000000 1.794840 0.000000 
#    z 0.000000 0.000000 1.756830 
# 
# From -- ./inp_files/2319.got.cif
#   From: 2010.03.12/outbox.cif.g09.slc.cpg/sg136_2_cif.got.tgz:2319.got - 2010.04.06 18:39:43.
