data_PCOD8317469
_publ_section_title
;
Structure prediction by ZEFSAII (Michael W. Deem and Ramdas Pophale) SiO2 
 PCOD8317469
Probable space group: P 42/M B C
;
_chemical_formula_sum "Si O2"
_cell_formula_units_Z 104
_cell_length_a 26.530103
_cell_length_b 26.530103
_cell_length_c 9.422315
_cell_angle_alpha 90.000000
_cell_angle_beta 90.000000
_cell_angle_gamma 90.000000
_cell_volume 6631.862164
_symmetry_space_group_name_H-M "P 42/M B C"
_symmetry_group_IT_number 135
_symmetry_cell_setting 'tetragonal'
loop_
_space_group_symop_operation_xyz
x,y,z
-y,x,1/2+z
-x,-y,z
y,-x,1/2+z
1/2+x,1/2-y,-z
1/2-x,1/2+y,-z
1/2+y,1/2+x,1/2-z
1/2-y,1/2-x,1/2-z
-x,-y,-z
y,-x,1/2-z
x,y,-z
-y,x,1/2-z
1/2-x,1/2+y,z
1/2+x,1/2-y,z
1/2-y,1/2-x,1/2+z
1/2+y,1/2+x,1/2+z
loop_
_atom_site_type_symbol
_atom_site_label
_atom_site_fract_x
_atom_site_fract_y
_atom_site_fract_z
Si Si1 0.558068 0.258549 0.666626
Si Si2 0.743700 0.459785 0.667155
Si Si3 0.956698 0.128038 0.163470
Si Si4 0.793446 0.356390 0.659131
Si Si5 0.244983 0.744983 0.750000
Si Si6 0.782041 0.653038 0.662305
Si Si7 0.876144 0.049531 0.838860
O O1 0.560093 0.242995 0.500000
O O2 0.507224 0.236370 0.740049
O O3 0.606573 0.240432 0.751860
O O4 0.559695 0.317935 0.687275
O O5 0.751884 0.470883 0.500000
O O6 0.685892 0.449441 0.704420
O O7 0.770700 0.408485 0.718047
O O8 0.905582 0.099780 0.206930
O O9 0.003167 0.103699 0.246938
O O10 0.969703 0.121466 0.000000
O O11 0.843225 0.343225 0.750000
O O12 0.811131 0.365301 0.500000
O O13 0.754500 0.308345 0.663432
O O14 0.297042 0.745559 0.841845
O O15 0.832696 0.667305 0.750000
O O16 0.793910 0.637306 0.500000
O O17 0.887457 0.035156 0.000000
#
# Coordination Sequence:
#
# PCOD8317469 Si02
#       7
#    16  16  16  16   8  16  16
#     4  10  20  33  50  69  95 126 161 203 244 290
#     4   9  18  33  50  67  92 127 163 196 239 293
#     4   9  18  31  46  60  79 111 149 192 240 289
#     4   9  18  30  48  71  98 129 161 199 242 294
#     4   8  20  30  48  74 104 130 160 200 250 302
#     4  10  20  32  49  72 100 130 163 198 240 294
#     4   9  19  32  45  62  82 110 149 194 243 288
#
# _framework density 15.681870999999999
#
# number of rings (size 3 to 8) (size 9 to 14) (size 15 to 20)
#    0.923    1.846    0.000    1.385    2.154    2.154 
#    0.000    1.538    0.000    0.000    0.000    0.000 
#    0.000    0.615    0.000    6.462    0.000    3.538 
#
# Total GULP energy -1288396.711288 kJ/mol
# GULP energy per Si atom -12388.429916 kJ/mol
# Density = 1.564618 g / cm^3
# Si number density = 15.681871 Si / 1000 Ang^3
#
#
#
# Elastic Constant Matrix: (Units=GPa)
#
#
# Indices 1 2 3 4 5 6 
#
# 1 83.0741 30.8699 41.1339 0.0000 0.0000 0.0000
# 2 30.8699 83.0748 41.1341 0.0000 0.0000 0.0000
# 3 41.1339 41.1341 83.6960 0.0000 0.0000 0.0000
# 4 0.0000 0.0000 0.0000 25.6638 0.0000 0.0000
# 5 0.0000 0.0000 0.0000 0.0000 25.6635 0.0000
# 6 0.0000 0.0000 0.0000 0.0000 0.0000 25.3246
#
#
#
# Elastic Compliance Matrix: (Units=1/GPa)
#
#
# Indices 1 2 3 4 5 6 
#
# 1 0.016379 -0.002776 -0.006686 0.000000 0.000000 0.000000
# 2 -0.002776 0.016379 -0.006686 0.000000 0.000000 0.000000
# 3 -0.006686 -0.006686 0.018520 0.000000 0.000000 0.000000
# 4 0.000000 0.000000 0.000000 0.038965 0.000000 0.000000
# 5 0.000000 0.000000 0.000000 0.000000 0.038966 0.000000
# 6 0.000000 0.000000 0.000000 0.000000 0.000000 0.039487
#
#
# Mechanical properties :
#
#
# Convention : Reuss Voigt Hill
#
# Bulk Modulus (GPa) = 52.67687 52.90232 52.78960
# Shear Modulus (GPa) = 24.11742 24.44417 24.28079
#
# Velocity S-wave (km/s) = 3.92588 3.95239 3.93916
# Velocity P-wave (km/s) = 7.36301 7.39165 7.37734
#
# Compressibility (1/GPa) = 0.01898366
#
# Stress axis : x y z
#
# Youngs Moduli (GPa) = 61.05240 61.05284 53.99710
#
# Poissons Ratio (x) = 0.16949 0.36100
# Poissons Ratio (y) = 0.16949 0.36100
# Poissons Ratio (z) = 0.40817 0.40817
#
# Static dielectric constant tensor:
#      x y z
#    x 2.926410 0.000000 0.000000 
#    y 0.000000 2.926400 0.000000 
#    z 0.000000 0.000000 3.027720 
# 
# 
# High freq. dielectric constant tensor:
#      x y z
#    x 1.582210 0.000000 0.000000 
#    y 0.000000 1.582210 0.000000 
#    z 0.000000 0.000000 1.607550 
# 
# From -- ./inp_files/1441.got.cif
#   From: 2010.03.12/outbox.cif.g09.slc.cpg/sg135_1_cif.got.tgz:1441.got - 2010.04.06 18:31:24.
