data_PCOD8317314
_publ_section_title
;
Structure prediction by ZEFSAII (Michael W. Deem and Ramdas Pophale) SiO2 
 PCOD8317314
Probable space group: P 42/N N M
;
_chemical_formula_sum "Si O2"
_cell_formula_units_Z 64
_cell_length_a 13.261257
_cell_length_b 13.261257
_cell_length_c 19.796751
_cell_angle_alpha 90.000000
_cell_angle_beta 90.000000
_cell_angle_gamma 90.000000
_cell_volume 3481.475185
_symmetry_space_group_name_H-M "P 42/N N M"
_symmetry_group_IT_number 134
_space_group.IT_coordinate_system_code '2'
_symmetry_cell_setting 'tetragonal'
loop_
_space_group_symop_operation_xyz
x,y,z
1/2-y,x,1/2+z
1/2-x,1/2-y,z
y,1/2-x,1/2+z
x,1/2-y,1/2-z
1/2-x,y,1/2-z
y,x,-z
1/2-y,1/2-x,-z
-x,-y,-z
1/2+y,-x,1/2-z
1/2+x,1/2+y,-z
-y,1/2+x,1/2-z
-x,1/2+y,1/2+z
1/2+x,-y,1/2+z
-y,-x,z
1/2+y,1/2+x,z
loop_
_atom_site_type_symbol
_atom_site_label
_atom_site_fract_x
_atom_site_fract_y
_atom_site_fract_z
Si Si1 0.324131 0.983679 0.434987
Si Si2 0.849353 0.512381 0.414896
Si Si3 0.859025 0.716244 0.825762
Si Si4 0.676469 0.009266 0.814501
O O1 0.294736 0.010647 0.512058
O O2 0.400562 0.067710 0.408339
O O3 0.375685 0.875685 0.435981
O O4 0.230907 0.970161 0.385333
O O5 0.762914 0.543115 0.362476
O O6 0.905122 0.405122 0.399114
O O7 0.750000 0.750000 0.858367
O O8 0.860159 0.750000 0.750000
O O9 0.876659 0.597293 0.825665
O O10 0.750000 0.006691 0.750000
O O11 0.593856 0.093856 0.800090
#
# Coordination Sequence:
#
# PCOD8317314 Si02
#       4
#    16  16  16  16
#     4   9  18  34  55  85 116 151 199 240 283 351
#     4   9  18  35  61  84 110 152 199 243 289 341
#     4  11  20  37  58  85 120 152 195 247 293 345
#     4  12  24  38  58  88 123 159 196 239 301 365
#
# _framework density 18.383011
#
# number of rings (size 3 to 8) (size 9 to 14) (size 15 to 20)
#    0.000    1.750    5.000    2.250    0.000    5.750 
#    0.000    2.500    0.000    2.250    0.000    1.750 
#    0.000    0.000    0.000    0.000    0.000    0.000 
#
# Total GULP energy -793157.369490 kJ/mol
# GULP energy per Si atom -12393.083898 kJ/mol
# Density = 1.834117 g / cm^3
# Si number density = 18.383011 Si / 1000 Ang^3
#
#
#
# Elastic Constant Matrix: (Units=GPa)
#
#
# Indices 1 2 3 4 5 6 
#
# 1 88.3256 52.0780 48.3288 0.0000 0.0000 0.0000
# 2 52.0780 88.3256 48.3288 0.0000 0.0000 0.0000
# 3 48.3288 48.3288 86.2500 0.0000 0.0000 0.0000
# 4 0.0000 0.0000 0.0000 42.7861 0.0000 0.0000
# 5 0.0000 0.0000 0.0000 0.0000 42.7861 0.0000
# 6 0.0000 0.0000 0.0000 0.0000 0.0000 33.4788
#
#
#
# Elastic Compliance Matrix: (Units=1/GPa)
#
#
# Indices 1 2 3 4 5 6 
#
# 1 0.019592 -0.007996 -0.006497 0.000000 0.000000 0.000000
# 2 -0.007996 0.019592 -0.006497 0.000000 0.000000 0.000000
# 3 -0.006497 -0.006497 0.018875 0.000000 0.000000 0.000000
# 4 0.000000 0.000000 0.000000 0.023372 0.000000 0.000000
# 5 0.000000 0.000000 0.000000 0.000000 0.023372 0.000000
# 6 0.000000 0.000000 0.000000 0.000000 0.000000 0.029870
#
#
# Mechanical properties :
#
#
# Convention : Reuss Voigt Hill
#
# Bulk Modulus (GPa) = 62.20056 62.26361 62.23208
# Shear Modulus (GPa) = 27.47056 31.42122 29.44589
#
# Velocity S-wave (km/s) = 3.86987 4.13880 4.00659
# Velocity P-wave (km/s) = 7.34011 7.53547 7.43843
#
# Compressibility (1/GPa) = 0.01607703
#
# Stress axis : x y z
#
# Youngs Moduli (GPa) = 51.04226 51.04226 52.97907
#
# Poissons Ratio (x) = 0.40816 0.34421
# Poissons Ratio (y) = 0.40816 0.34421
# Poissons Ratio (z) = 0.33163 0.33163
#
# Static dielectric constant tensor:
#      x y z
#    x 3.332890 0.000000 0.000000 
#    y 0.000000 3.332890 0.000000 
#    z 0.000000 0.000000 3.287400 
# 
# 
# High freq. dielectric constant tensor:
#      x y z
#    x 1.695910 0.000000 0.000000 
#    y 0.000000 1.695910 0.000000 
#    z 0.000000 0.000000 1.719190 
# 
# From -- ./inp_files/7425.got.cif
#   From: 2010.03.12/outbox.cif.g09.slc.cpg/sg134_4_cif.got.tgz:7425.got - 2010.04.06 18:17:22.
