data_PCOD8317827
_publ_section_title
;
Structure prediction by ZEFSAII (Michael W. Deem and Ramdas Pophale) SiO2 
 PCOD8317827
Probable space group: P 42/M N M
;
_chemical_formula_sum "Si O2"
_cell_formula_units_Z 96
_cell_length_a 24.115111
_cell_length_b 24.115111
_cell_length_c 8.512053
_cell_angle_alpha 90.000000
_cell_angle_beta 90.000000
_cell_angle_gamma 90.000000
_cell_volume 4950.087202
_symmetry_space_group_name_H-M "P 42/M N M"
_symmetry_group_IT_number 136
_symmetry_cell_setting 'tetragonal'
loop_
_space_group_symop_operation_xyz
x,y,z
1/2-y,1/2+x,1/2+z
-x,-y,z
1/2+y,1/2-x,1/2+z
1/2+x,1/2-y,1/2-z
1/2-x,1/2+y,1/2-z
y,x,-z
-y,-x,-z
-x,-y,-z
1/2+y,1/2-x,1/2-z
x,y,-z
1/2-y,1/2+x,1/2-z
1/2-x,1/2+y,1/2+z
1/2+x,1/2-y,1/2+z
-y,-x,z
y,x,z
loop_
_atom_site_type_symbol
_atom_site_label
_atom_site_fract_x
_atom_site_fract_y
_atom_site_fract_z
Si Si1 0.000336 0.087463 0.313025
Si Si2 0.800558 0.432156 0.812546
Si Si3 0.689692 0.224064 0.813186
Si Si4 0.031651 0.421717 0.314367
Si Si5 0.776646 0.133655 0.818587
Si Si6 0.484040 0.290626 0.183897
O O1 0.997477 0.089849 0.500000
O O2 0.057156 0.057156 0.259505
O O3 0.998467 0.149303 0.240674
O O4 0.947601 0.052400 0.250172
O O5 0.782847 0.372040 0.744842
O O6 0.861756 0.448492 0.753037
O O7 0.756341 0.476000 0.743221
O O8 0.800119 0.432050 0.000000
O O9 0.718894 0.281107 0.752512
O O10 0.726251 0.171796 0.758625
O O11 0.688494 0.225278 0.000000
O O12 0.038764 0.428016 0.500000
O O13 0.069940 0.467420 0.230372
O O14 0.834613 0.165388 0.792768
O O15 0.774911 0.079128 0.714374
O O16 0.768965 0.117419 0.000000
O O17 0.494692 0.293346 0.000000
#
# Coordination Sequence:
#
# PCOD8317827 Si02
#       6
#    16  16  16  16  16  16
#     4   8  14  25  42  66  96 127 156 188 232 286
#     4   9  19  31  46  73 103 128 160 204 246 290
#     4   8  15  30  50  70  95 129 164 197 238 288
#     4  10  20  35  53  73  98 128 164 205 249 295
#     4   9  18  32  51  73  96 127 167 204 238 285
#     4  10  19  30  47  74 102 126 156 200 249 288
#
# _framework density 19.393598000000001
#
# number of rings (size 3 to 8) (size 9 to 14) (size 15 to 20)
#    0.000    3.000    0.000    3.000    2.333    1.667 
#    0.000    4.167    0.000    1.500    0.000    2.333 
#    0.000    0.000    0.000    0.000    0.000    0.000 
#
# Total GULP energy -1190028.158795 kJ/mol
# GULP energy per Si atom -12396.126654 kJ/mol
# Density = 1.934946 g / cm^3
# Si number density = 19.393598 Si / 1000 Ang^3
#
#
#
# Elastic Constant Matrix: (Units=GPa)
#
#
# Indices 1 2 3 4 5 6 
#
# 1 158.9901 93.7369 3.2663 0.0000 0.0000 0.0000
# 2 93.7369 158.9901 3.2663 0.0000 0.0000 0.0000
# 3 3.2663 3.2663 8.1743 0.0000 0.0000 0.0000
# 4 0.0000 0.0000 0.0000 16.3457 0.0000 0.0000
# 5 0.0000 0.0000 0.0000 0.0000 16.3457 0.0000
# 6 0.0000 0.0000 0.0000 0.0000 0.0000 26.2124
#
#
#
# Elastic Compliance Matrix: (Units=1/GPa)
#
#
# Indices 1 2 3 4 5 6 
#
# 1 0.009662 -0.005663 -0.001598 0.000000 0.000000 0.000000
# 2 -0.005663 0.009662 -0.001598 0.000000 0.000000 0.000000
# 3 -0.001598 -0.001598 0.123611 0.000000 0.000000 0.000000
# 4 0.000000 0.000000 0.000000 0.061178 0.000000 0.000000
# 5 0.000000 0.000000 0.000000 0.000000 0.061178 0.000000
# 6 0.000000 0.000000 0.000000 0.000000 0.000000 0.038150
#
#
# Mechanical properties :
#
#
# Convention : Reuss Voigt Hill
#
# Bulk Modulus (GPa) = 7.98613 58.52149 33.25381
# Shear Modulus (GPa) = 13.77802 26.83973 20.30888
#
# Velocity S-wave (km/s) = 2.66830 3.72418 3.23955
# Velocity P-wave (km/s) = 3.69053 6.98097 5.58363
#
# Compressibility (1/GPa) = 0.12521702
#
# Stress axis : x y z
#
# Youngs Moduli (GPa) = 103.50328 103.50328 8.08989
#
# Poissons Ratio (x) = 0.58618 0.01292
# Poissons Ratio (y) = 0.58618 0.01292
# Poissons Ratio (z) = 0.16535 0.16535
#
# Static dielectric constant tensor:
#      x y z
#    x 3.813780 0.000000 0.000000 
#    y 0.000000 3.813780 0.000000 
#    z 0.000000 0.000000 2.926360 
# 
# 
# High freq. dielectric constant tensor:
#      x y z
#    x 1.762930 0.000000 0.000000 
#    y 0.000000 1.762930 0.000000 
#    z 0.000000 0.000000 1.696530 
# 
# From -- ./inp_files/1918.got.cif
#   From: 2010.03.12/outbox.cif.g09.slc.cpg/sg136_1_cif.got.tgz:1918.got - 2010.04.06 18:39:43.
