data_PCOD8317718
_publ_section_title
;
Structure prediction by ZEFSAII (Michael W. Deem and Ramdas Pophale) SiO2 
 PCOD8317718
Probable space group: P 42/M N M
;
_chemical_formula_sum "Si O2"
_cell_formula_units_Z 112
_cell_length_a 15.941882
_cell_length_b 15.941882
_cell_length_c 28.096326
_cell_angle_alpha 90.000000
_cell_angle_beta 90.000000
_cell_angle_gamma 90.000000
_cell_volume 7140.501484
_symmetry_space_group_name_H-M "P 42/M N M"
_symmetry_group_IT_number 136
_symmetry_cell_setting 'tetragonal'
loop_
_space_group_symop_operation_xyz
x,y,z
1/2-y,1/2+x,1/2+z
-x,-y,z
1/2+y,1/2-x,1/2+z
1/2+x,1/2-y,1/2-z
1/2-x,1/2+y,1/2-z
y,x,-z
-y,-x,-z
-x,-y,-z
1/2+y,1/2-x,1/2-z
x,y,-z
1/2-y,1/2+x,1/2-z
1/2-x,1/2+y,1/2+z
1/2+x,1/2-y,1/2+z
-y,-x,z
y,x,z
loop_
_atom_site_type_symbol
_atom_site_label
_atom_site_fract_x
_atom_site_fract_y
_atom_site_fract_z
Si Si1 0.864079 0.470692 0.052748
Si Si2 0.499098 0.364202 0.705535
Si Si3 0.285331 0.147479 0.375020
Si Si4 0.472306 0.203909 0.356730
Si Si5 0.871255 0.463296 0.446546
Si Si6 0.547375 0.108510 0.728293
Si Si7 0.265738 0.602331 0.225976
O O1 0.795871 0.425378 0.085886
O O2 0.884949 0.567514 0.066638
O O3 0.951273 0.422622 0.054455
O O4 0.825580 0.468182 0.000000
O O5 0.571302 0.428699 0.689130
O O6 0.411414 0.411414 0.713409
O O7 0.489558 0.295022 0.664654
O O8 0.522803 0.320332 0.755833
O O9 0.218135 0.218135 0.391539
O O10 0.373030 0.193670 0.364300
O O11 0.250873 0.096201 0.329891
O O12 0.525664 0.199874 0.406039
O O13 0.504399 0.128516 0.322317
O O14 0.833057 0.450370 0.500000
O O15 0.477938 0.099705 0.771251
O O16 0.610072 0.181258 0.743710
O O17 0.311603 0.688397 0.238566
#
# Coordination Sequence:
#
# PCOD8317718 Si02
#       7
#    16  16  16  16  16  16  16
#     4   8  15  26  40  60  87 118 149 181 224 276
#     4   9  18  33  50  65  86 119 155 185 217 267
#     4  10  18  27  41  62  90 120 149 187 231 270
#     4  10  18  28  46  65  88 117 149 188 229 274
#     4   8  15  27  43  63  86 115 150 187 227 272
#     4  10  19  27  40  64  88 113 145 181 225 271
#     4   9  18  31  42  60  89 118 146 180 221 264
#
# _framework density 15.685173000000001
#
# number of rings (size 3 to 8) (size 9 to 14) (size 15 to 20)
#    0.000    2.857    1.429    1.286    2.000    1.429 
#    0.000    0.000    0.000    1.714    0.000    1.000 
#    0.000    1.714    0.000    5.571    0.000    0.000 
#
# Total GULP energy -1387726.165546 kJ/mol
# GULP energy per Si atom -12390.412192 kJ/mol
# Density = 1.564947 g / cm^3
# Si number density = 15.685173 Si / 1000 Ang^3
#
#
#
# Elastic Constant Matrix: (Units=GPa)
#
#
# Indices 1 2 3 4 5 6 
#
# 1 72.5524 38.8296 52.5104 0.0000 0.0000 0.0000
# 2 38.8296 72.5524 52.5104 0.0000 0.0000 0.0000
# 3 52.5104 52.5104 100.9266 0.0000 0.0000 0.0000
# 4 0.0000 0.0000 0.0000 17.4689 0.0000 0.0000
# 5 0.0000 0.0000 0.0000 0.0000 17.4689 0.0000
# 6 0.0000 0.0000 0.0000 0.0000 0.0000 19.9054
#
#
#
# Elastic Compliance Matrix: (Units=1/GPa)
#
#
# Indices 1 2 3 4 5 6 
#
# 1 0.023639 -0.006015 -0.009169 0.000000 0.000000 0.000000
# 2 -0.006015 0.023639 -0.009169 0.000000 0.000000 0.000000
# 3 -0.009169 -0.009169 0.019449 0.000000 0.000000 0.000000
# 4 0.000000 0.000000 0.000000 0.057245 0.000000 0.000000
# 5 0.000000 0.000000 0.000000 0.000000 0.057245 0.000000
# 6 0.000000 0.000000 0.000000 0.000000 0.000000 0.050238
#
#
# Mechanical properties :
#
#
# Convention : Reuss Voigt Hill
#
# Bulk Modulus (GPa) = 55.49494 59.30357 57.39925
# Shear Modulus (GPa) = 17.47228 17.78069 17.62649
#
# Velocity S-wave (km/s) = 3.34119 3.37055 3.35590
# Velocity P-wave (km/s) = 7.09521 7.28273 7.18959
#
# Compressibility (1/GPa) = 0.01801966
#
# Stress axis : x y z
#
# Youngs Moduli (GPa) = 42.30362 42.30362 51.41527
#
# Poissons Ratio (x) = 0.25445 0.47144
# Poissons Ratio (y) = 0.25445 0.47144
# Poissons Ratio (z) = 0.38790 0.38790
#
# Static dielectric constant tensor:
#      x y z
#    x 2.960620 0.000000 0.000000 
#    y 0.000000 2.960620 0.000000 
#    z 0.000000 0.000000 3.191330 
# 
# 
# High freq. dielectric constant tensor:
#      x y z
#    x 1.585630 0.000000 0.000000 
#    y 0.000000 1.585630 0.000000 
#    z 0.000000 0.000000 1.596790 
# 
# From -- ./inp_files/9969.got.cif
#   From: 2010.03.12/outbox.cif.g09.slc.cpg/sg136_5_cif.got.tgz:9969.got - 2010.04.06 18:39:43.
