data_PCOD8317409
_publ_section_title
;
Structure prediction by ZEFSAII (Michael W. Deem and Ramdas Pophale) SiO2 
 PCOD8317409
Probable space group: P 42/M B C
;
_chemical_formula_sum "Si O2"
_cell_formula_units_Z 84
_cell_length_a 22.150381
_cell_length_b 22.150381
_cell_length_c 10.508256
_cell_angle_alpha 90.000000
_cell_angle_beta 90.000000
_cell_angle_gamma 90.000000
_cell_volume 5155.764192
_symmetry_space_group_name_H-M "P 42/M B C"
_symmetry_group_IT_number 135
_symmetry_cell_setting 'tetragonal'
loop_
_space_group_symop_operation_xyz
x,y,z
-y,x,1/2+z
-x,-y,z
y,-x,1/2+z
1/2+x,1/2-y,-z
1/2-x,1/2+y,-z
1/2+y,1/2+x,1/2-z
1/2-y,1/2-x,1/2-z
-x,-y,-z
y,-x,1/2-z
x,y,-z
-y,x,1/2-z
1/2-x,1/2+y,z
1/2+x,1/2-y,z
1/2-y,1/2-x,1/2+z
1/2+y,1/2+x,1/2+z
loop_
_atom_site_type_symbol
_atom_site_label
_atom_site_fract_x
_atom_site_fract_y
_atom_site_fract_z
Si Si1 0.630993 0.500030 0.351387
Si Si2 0.757091 0.653669 0.500000
Si Si3 0.293123 0.609533 0.742449
Si Si4 0.153485 0.742777 0.000000
Si Si5 0.500000 0.500000 0.250000
Si Si6 0.352835 0.746627 0.500000
Si Si7 0.852967 0.246811 0.500000
Si Si8 0.706722 0.609697 0.257587
O O1 0.648235 0.500000 0.500000
O O2 0.658378 0.442717 0.279558
O O3 0.558755 0.499942 0.339644
O O4 0.658214 0.557466 0.279720
O O5 0.820072 0.688841 0.500000
O O6 0.697995 0.695530 0.500000
O O7 0.754606 0.611807 0.373785
O O8 0.245262 0.611621 0.626210
O O9 0.258532 0.602958 0.877187
O O10 0.326428 0.673413 0.749999
O O11 0.195344 0.801875 0.000000
O O12 0.188658 0.679797 0.000000
O O13 0.396907 0.741285 0.622821
#
# Coordination Sequence:
#
# PCOD8317409 Si02
#       8
#    16   8  16   8   4   8   8  16
#     4  12  23  38  48  66  92 127 179 213 259 276
#     4   9  16  31  48  68  92 113 145 192 253 301
#     4  10  19  31  49  67  91 121 155 204 242 287
#     4   9  16  31  48  68  92 113 145 192 253 301
#     4  12  26  36  52  62  80 138 180 232 242 274
#     4   9  18  29  48  72  88 111 149 194 247 303
#     4   9  18  29  48  72  88 111 149 194 247 303
#     4  10  19  31  49  67  91 121 155 204 242 287
#
# _framework density 16.292444
#
# number of rings (size 3 to 8) (size 9 to 14) (size 15 to 20)
#    0.000    1.905    3.810    1.429    0.000    5.333 
#    3.429    0.000    0.000    0.000    0.000    0.000 
#    0.000    0.000    0.000    0.000    0.000   66.667 
#
# Total GULP energy -1041217.008815 kJ/mol
# GULP energy per Si atom -12395.440581 kJ/mol
# Density = 1.625536 g / cm^3
# Si number density = 16.292444 Si / 1000 Ang^3
#
#
#
# Elastic Constant Matrix: (Units=GPa)
#
#
# Indices 1 2 3 4 5 6 
#
# 1 49.0799 35.0185 45.2260 0.0000 0.0000 0.0000
# 2 35.0185 49.0799 45.2260 0.0000 0.0000 0.0000
# 3 45.2260 45.2260 171.9526 0.0000 0.0000 0.0000
# 4 0.0000 0.0000 0.0000 21.2732 0.0000 0.0000
# 5 0.0000 0.0000 0.0000 0.0000 21.2732 0.0000
# 6 0.0000 0.0000 0.0000 0.0000 0.0000 33.1846
#
#
#
# Elastic Compliance Matrix: (Units=1/GPa)
#
#
# Indices 1 2 3 4 5 6 
#
# 1 0.043849 -0.027268 -0.004361 0.000000 0.000000 0.000000
# 2 -0.027268 0.043849 -0.004361 0.000000 0.000000 0.000000
# 3 -0.004361 -0.004361 0.008110 0.000000 0.000000 0.000000
# 4 0.000000 0.000000 0.000000 0.047007 0.000000 0.000000
# 5 0.000000 0.000000 0.000000 0.000000 0.047007 0.000000
# 6 0.000000 0.000000 0.000000 0.000000 0.000000 0.030134
#
#
# Mechanical properties :
#
#
# Convention : Reuss Voigt Hill
#
# Bulk Modulus (GPa) = 41.96750 57.89481 49.93115
# Shear Modulus (GPa) = 16.67334 24.78901 20.73118
#
# Velocity S-wave (km/s) = 3.20250 3.90488 3.57100
# Velocity P-wave (km/s) = 6.28406 7.47948 6.90768
#
# Compressibility (1/GPa) = 0.02382796
#
# Stress axis : x y z
#
# Youngs Moduli (GPa) = 22.80545 22.80545 123.30975
#
# Poissons Ratio (x) = 0.62185 0.53778
# Poissons Ratio (y) = 0.62185 0.53778
# Poissons Ratio (z) = 0.09946 0.09946
#
# Static dielectric constant tensor:
#      x y z
#    x 2.730230 0.000000 0.000000 
#    y 0.000000 2.730230 0.000000 
#    z 0.000000 0.000000 3.555130 
# 
# 
# High freq. dielectric constant tensor:
#      x y z
#    x 1.582780 0.000000 0.000000 
#    y 0.000000 1.582780 0.000000 
#    z 0.000000 0.000000 1.656550 
# 
# From -- ./inp_files/2522.got.cif
#   From: 2010.03.12/outbox.cif.g09.slc.cpg/sg135_2_cif.got.tgz:2522.got - 2010.04.06 18:31:24.
