data_PCOD8317726
_publ_section_title
;
Structure prediction by ZEFSAII (Michael W. Deem and Ramdas Pophale) SiO2 
 PCOD8317726
Probable space group: P 42/M N M
;
_chemical_formula_sum "Si O2"
_cell_formula_units_Z 104
_cell_length_a 26.232790
_cell_length_b 26.232790
_cell_length_c 9.151058
_cell_angle_alpha 90.000000
_cell_angle_beta 90.000000
_cell_angle_gamma 90.000000
_cell_volume 6297.385404
_symmetry_space_group_name_H-M "P 42/M N M"
_symmetry_group_IT_number 136
_symmetry_cell_setting 'tetragonal'
loop_
_space_group_symop_operation_xyz
x,y,z
1/2-y,1/2+x,1/2+z
-x,-y,z
1/2+y,1/2-x,1/2+z
1/2+x,1/2-y,1/2-z
1/2-x,1/2+y,1/2-z
y,x,-z
-y,-x,-z
-x,-y,-z
1/2+y,1/2-x,1/2-z
x,y,-z
1/2-y,1/2+x,1/2-z
1/2-x,1/2+y,1/2+z
1/2+x,1/2-y,1/2+z
-y,-x,z
y,x,z
loop_
_atom_site_type_symbol
_atom_site_label
_atom_site_fract_x
_atom_site_fract_y
_atom_site_fract_z
Si Si1 0.135328 0.454411 0.835244
Si Si2 0.126777 0.574093 0.831440
Si Si3 0.820857 0.901242 0.667090
Si Si4 0.542005 0.542005 0.673293
Si Si5 0.274360 0.079506 0.828249
Si Si6 0.522917 0.754925 0.832214
Si Si7 0.016495 0.855303 0.664861
O O1 0.125327 0.513786 0.804078
O O2 0.100093 0.425036 0.721851
O O3 0.195891 0.440108 0.813710
O O4 0.118687 0.440509 0.000000
O O5 0.172974 0.599195 0.741194
O O6 0.134722 0.586960 0.000000
O O7 0.806377 0.890437 0.500000
O O8 0.866080 0.866080 0.723640
O O9 0.772169 0.887224 0.765726
O O10 0.840329 0.958315 0.688477
O O11 0.500000 0.500000 0.729142
O O12 0.542306 0.542306 0.500000
O O13 0.529695 0.599003 0.726709
O O14 0.263577 0.021644 0.782984
O O15 0.277772 0.085195 0.000000
O O16 0.547759 0.698359 0.804372
O O17 0.500907 0.755451 0.000000
O O18 0.027183 0.874509 0.500000
#
# Coordination Sequence:
#
# PCOD8317726 Si02
#       7
#    16  16  16   8  16  16  16
#     4   9  18  32  49  70  96 124 155 194 236 280
#     4  10  20  33  48  68  97 129 160 194 234 281
#     4   9  17  30  48  69  93 122 155 193 238 285
#     4  11  23  33  41  63 101 135 159 195 245 285
#     4  10  18  28  45  68  94 122 154 192 231 276
#     4   8  16  32  50  68  91 119 155 197 236 276
#     4   9  17  31  50  68  89 123 164 196 228 280
#
# _framework density 16.514790000000001
#
# number of rings (size 3 to 8) (size 9 to 14) (size 15 to 20)
#    0.000    2.692    0.000    4.385    0.000    7.385 
#    0.000    1.538    0.000    0.000    2.000    0.000 
#    0.000    0.000    0.000    0.000    0.000    0.000 
#
# Total GULP energy -1288606.886070 kJ/mol
# GULP energy per Si atom -12390.450828 kJ/mol
# Density = 1.647720 g / cm^3
# Si number density = 16.514790 Si / 1000 Ang^3
#
#
#
# Elastic Constant Matrix: (Units=GPa)
#
#
# Indices 1 2 3 4 5 6 
#
# 1 75.2832 42.3352 45.5181 0.0000 0.0000 0.0000
# 2 42.3352 75.2832 45.5181 0.0000 0.0000 0.0000
# 3 45.5181 45.5181 100.6861 0.0000 0.0000 0.0000
# 4 0.0000 0.0000 0.0000 26.0679 0.0000 0.0000
# 5 0.0000 0.0000 0.0000 0.0000 26.0679 0.0000
# 6 0.0000 0.0000 0.0000 0.0000 0.0000 13.3083
#
#
#
# Elastic Compliance Matrix: (Units=1/GPa)
#
#
# Indices 1 2 3 4 5 6 
#
# 1 0.021715 -0.008636 -0.005912 0.000000 0.000000 0.000000
# 2 -0.008636 0.021715 -0.005912 0.000000 0.000000 0.000000
# 3 -0.005912 -0.005912 0.015278 0.000000 0.000000 0.000000
# 4 0.000000 0.000000 0.000000 0.038361 0.000000 0.000000
# 5 0.000000 0.000000 0.000000 0.000000 0.038361 0.000000
# 6 0.000000 0.000000 0.000000 0.000000 0.000000 0.075141
#
#
# Mechanical properties :
#
#
# Convention : Reuss Voigt Hill
#
# Bulk Modulus (GPa) = 56.22875 57.55501 56.89188
# Shear Modulus (GPa) = 19.42344 20.94755 20.18550
#
# Velocity S-wave (km/s) = 3.43319 3.56534 3.49989
# Velocity P-wave (km/s) = 7.05954 7.20244 7.13135
#
# Compressibility (1/GPa) = 0.01778450
#
# Stress axis : x y z
#
# Youngs Moduli (GPa) = 46.05207 46.05207 65.45533
#
# Poissons Ratio (x) = 0.39772 0.38700
# Poissons Ratio (y) = 0.39772 0.38700
# Poissons Ratio (z) = 0.27228 0.27228
#
# Static dielectric constant tensor:
#      x y z
#    x 3.174610 0.000000 0.000000 
#    y 0.000000 3.174610 0.000000 
#    z 0.000000 0.000000 3.051480 
# 
# 
# High freq. dielectric constant tensor:
#      x y z
#    x 1.617710 0.000000 0.000000 
#    y 0.000000 1.617710 0.000000 
#    z 0.000000 0.000000 1.638220 
# 
# From -- ./inp_files/2210.got.cif
#   From: 2010.03.12/outbox.cif.g09.slc.cpg/sg136_2_cif.got.tgz:2210.got - 2010.04.06 18:39:43.
