data_PCOD8317529
_publ_section_title
;
Structure prediction by ZEFSAII (Michael W. Deem and Ramdas Pophale) SiO2 
 PCOD8317529
Probable space group: P 42/M B C
;
_chemical_formula_sum "Si O2"
_cell_formula_units_Z 48
_cell_length_a 12.694290
_cell_length_b 12.694290
_cell_length_c 13.733840
_cell_angle_alpha 90.000000
_cell_angle_beta 90.000000
_cell_angle_gamma 90.000000
_cell_volume 2213.139628
_symmetry_space_group_name_H-M "P 42/M B C"
_symmetry_group_IT_number 135
_symmetry_cell_setting 'tetragonal'
loop_
_space_group_symop_operation_xyz
x,y,z
-y,x,1/2+z
-x,-y,z
y,-x,1/2+z
1/2+x,1/2-y,-z
1/2-x,1/2+y,-z
1/2+y,1/2+x,1/2-z
1/2-y,1/2-x,1/2-z
-x,-y,-z
y,-x,1/2-z
x,y,-z
-y,x,1/2-z
1/2-x,1/2+y,z
1/2+x,1/2-y,z
1/2-y,1/2-x,1/2+z
1/2+y,1/2+x,1/2+z
loop_
_atom_site_type_symbol
_atom_site_label
_atom_site_fract_x
_atom_site_fract_y
_atom_site_fract_z
Si Si1 0.206719 0.062908 0.387955
Si Si2 0.550440 0.890799 0.389384
Si Si3 0.409538 0.738162 0.272828
O O1 0.178238 0.040121 0.500000
O O2 0.324547 0.107516 0.378194
O O3 0.125068 0.146073 0.344690
O O4 0.193558 0.953161 0.329660
O O5 0.514808 0.870137 0.500000
O O6 0.506844 0.797924 0.322876
O O7 0.500000 0.000000 0.352547
O O8 0.312026 0.812026 0.250000
#
# Coordination Sequence:
#
# PCOD8317529 Si02
#       3
#    16  16  16
#     4  11  26  44  66 100 134 174 227 278 335 397
#     4  10  20  39  68  99 131 172 221 275 325 385
#     4  12  23  41  69  97 136 178 222 271 333 397
#
# _framework density 21.688642999999999
#
# number of rings (size 3 to 8) (size 9 to 14) (size 15 to 20)
#    0.000    1.000    3.333    4.000    0.000    2.000 
#    0.000    5.000    0.000    0.000    0.000    0.000 
#    0.000    0.000    0.000    0.000    0.000    0.000 
#
# Total GULP energy -595485.380915 kJ/mol
# GULP energy per Si atom -12405.945436 kJ/mol
# Density = 2.163928 g / cm^3
# Si number density = 21.688643 Si / 1000 Ang^3
#
#
#
# Elastic Constant Matrix: (Units=GPa)
#
#
# Indices 1 2 3 4 5 6 
#
# 1 59.8533 59.0170 65.3110 0.0000 0.0000 0.0000
# 2 59.0170 59.8533 65.3110 0.0000 0.0000 0.0000
# 3 65.3110 65.3110 192.1212 0.0000 0.0000 0.0000
# 4 0.0000 0.0000 0.0000 37.7050 0.0000 0.0000
# 5 0.0000 0.0000 0.0000 0.0000 37.7050 0.0000
# 6 0.0000 0.0000 0.0000 0.0000 0.0000 33.3430
#
#
#
# Elastic Compliance Matrix: (Units=1/GPa)
#
#
# Indices 1 2 3 4 5 6 
#
# 1 0.604627 -0.591198 -0.004565 0.000000 0.000000 0.000000
# 2 -0.591198 0.604627 -0.004565 0.000000 0.000000 0.000000
# 3 -0.004565 -0.004565 0.008309 0.000000 0.000000 0.000000
# 4 0.000000 0.000000 0.000000 0.026522 0.000000 0.000000
# 5 0.000000 0.000000 0.000000 0.000000 0.026522 0.000000
# 6 0.000000 0.000000 0.000000 0.000000 0.000000 0.029991
#
#
# Mechanical properties :
#
#
# Convention : Reuss Voigt Hill
#
# Bulk Modulus (GPa) = 59.14967 76.78956 67.96962
# Shear Modulus (GPa) = 1.99450 29.89652 15.94551
#
# Velocity S-wave (km/s) = 0.96000 3.71676 2.71440
# Velocity P-wave (km/s) = 5.34417 7.34176 6.42112
#
# Compressibility (1/GPa) = 0.01690626
#
# Stress axis : x y z
#
# Youngs Moduli (GPa) = 1.65391 1.65391 120.35342
#
# Poissons Ratio (x) = 0.97779 0.54943
# Poissons Ratio (y) = 0.97779 0.54943
# Poissons Ratio (z) = 0.00755 0.00755
#
# Static dielectric constant tensor:
#      x y z
#    x 3.816770 0.000000 0.000000 
#    y 0.000000 3.816770 0.000000 
#    z 0.000000 0.000000 4.332050 
# 
# 
# High freq. dielectric constant tensor:
#      x y z
#    x 1.842980 0.000000 0.000000 
#    y 0.000000 1.842980 0.000000 
#    z 0.000000 0.000000 1.877410 
# 
# From -- ./inp_files/2965.got.cif
#   From: 2010.03.12/outbox.cif.g09.slc.cpg/sg135_2_cif.got.tgz:2965.got - 2010.04.06 18:31:24.
