data_PCOD8317820
_publ_section_title
;
Structure prediction by ZEFSAII (Michael W. Deem and Ramdas Pophale) SiO2 
 PCOD8317820
Probable space group: P 42/M N M
;
_chemical_formula_sum "Si O2"
_cell_formula_units_Z 84
_cell_length_a 14.396265
_cell_length_b 14.396265
_cell_length_c 24.766186
_cell_angle_alpha 90.000000
_cell_angle_beta 90.000000
_cell_angle_gamma 90.000000
_cell_volume 5132.852625
_symmetry_space_group_name_H-M "P 42/M N M"
_symmetry_group_IT_number 136
_symmetry_cell_setting 'tetragonal'
loop_
_space_group_symop_operation_xyz
x,y,z
1/2-y,1/2+x,1/2+z
-x,-y,z
1/2+y,1/2-x,1/2+z
1/2+x,1/2-y,1/2-z
1/2-x,1/2+y,1/2-z
y,x,-z
-y,-x,-z
-x,-y,-z
1/2+y,1/2-x,1/2-z
x,y,-z
1/2-y,1/2+x,1/2-z
1/2-x,1/2+y,1/2+z
1/2+x,1/2-y,1/2+z
-y,-x,z
y,x,z
loop_
_atom_site_type_symbol
_atom_site_label
_atom_site_fract_x
_atom_site_fract_y
_atom_site_fract_z
Si Si1 0.738407 0.883855 0.285968
Si Si2 0.893908 0.257683 0.592715
Si Si3 0.500000 0.000000 0.750000
Si Si4 0.890079 0.394645 0.500000
Si Si5 0.892103 0.741697 0.590450
Si Si6 0.601481 0.890354 0.500000
Si Si7 0.821195 0.580997 0.211661
O O1 0.840864 0.840864 0.276806
O O2 0.708311 0.877985 0.348344
O O3 0.664501 0.819469 0.254440
O O4 0.741891 0.992809 0.268679
O O5 0.834728 0.165273 0.582533
O O6 0.857482 0.339202 0.553380
O O7 0.880070 0.290837 0.654067
O O8 0.000492 0.232877 0.579465
O O9 0.457140 0.073888 0.791520
O O10 0.845330 0.498177 0.500000
O O11 0.999675 0.406165 0.500000
O O12 0.833402 0.833402 0.576839
O O13 0.857483 0.657069 0.553134
#
# Coordination Sequence:
#
# PCOD8317820 Si02
#       7
#    16  16   4   8  16   8  16
#     4   9  17  29  44  65  91 115 146 187 222 259
#     4  10  19  30  44  64  93 124 150 176 214 269
#     4   8  16  28  44  66  88 112 152 196 228 262
#     4   9  19  30  43  63  89 115 143 179 217 256
#     4   9  18  31  47  67  90 116 149 187 222 259
#     4   9  17  30  47  65  85 113 143 179 223 260
#     4   9  17  28  45  65  87 119 152 182 224 266
#
# _framework density 16.365169999999999
#
# number of rings (size 3 to 8) (size 9 to 14) (size 15 to 20)
#    0.000    2.857    0.000    1.143    0.000    8.000 
#    0.000    0.000    0.000    5.143    0.000    0.000 
#    0.000    9.143    0.000    0.381    0.000    0.381 
#
# Total GULP energy -1041123.994185 kJ/mol
# GULP energy per Si atom -12394.333264 kJ/mol
# Density = 1.632792 g / cm^3
# Si number density = 16.365170 Si / 1000 Ang^3
#
#
#
# Elastic Constant Matrix: (Units=GPa)
#
#
# Indices 1 2 3 4 5 6 
#
# 1 80.2912 44.7829 42.4714 0.0000 0.0000 0.0000
# 2 44.7829 80.2912 42.4714 0.0000 0.0000 0.0000
# 3 42.4714 42.4714 83.7259 0.0000 0.0000 0.0000
# 4 0.0000 0.0000 0.0000 20.7549 0.0000 0.0000
# 5 0.0000 0.0000 0.0000 0.0000 20.7549 0.0000
# 6 0.0000 0.0000 0.0000 0.0000 0.0000 27.3350
#
#
#
# Elastic Compliance Matrix: (Units=1/GPa)
#
#
# Indices 1 2 3 4 5 6 
#
# 1 0.020180 -0.007983 -0.006187 0.000000 0.000000 0.000000
# 2 -0.007983 0.020180 -0.006187 0.000000 0.000000 0.000000
# 3 -0.006187 -0.006187 0.018221 0.000000 0.000000 0.000000
# 4 0.000000 0.000000 0.000000 0.048181 0.000000 0.000000
# 5 0.000000 0.000000 0.000000 0.000000 0.048181 0.000000
# 6 0.000000 0.000000 0.000000 0.000000 0.000000 0.036583
#
#
# Mechanical properties :
#
#
# Convention : Reuss Voigt Hill
#
# Bulk Modulus (GPa) = 55.97103 55.97332 55.97217
# Shear Modulus (GPa) = 20.99107 21.40778 21.19943
#
# Velocity S-wave (km/s) = 3.58532 3.62073 3.60307
# Velocity P-wave (km/s) = 7.17042 7.19420 7.18232
#
# Compressibility (1/GPa) = 0.01786639
#
# Stress axis : x y z
#
# Youngs Moduli (GPa) = 49.55438 49.55438 54.88185
#
# Poissons Ratio (x) = 0.39557 0.33957
# Poissons Ratio (y) = 0.39557 0.33957
# Poissons Ratio (z) = 0.30661 0.30661
#
# Static dielectric constant tensor:
#      x y z
#    x 3.113750 0.000000 0.000000 
#    y 0.000000 3.113750 0.000000 
#    z 0.000000 0.000000 3.142200 
# 
# 
# High freq. dielectric constant tensor:
#      x y z
#    x 1.613670 0.000000 0.000000 
#    y 0.000000 1.613670 0.000000 
#    z 0.000000 0.000000 1.634740 
# 
# From -- ./inp_files/8377.got.cif
#   From: 2010.03.12/outbox.cif.g09.slc.cpg/sg136_5_cif.got.tgz:8377.got - 2010.04.06 18:39:43.
