data_PCOD8317376
_publ_section_title
;
Structure prediction by ZEFSAII (Michael W. Deem and Ramdas Pophale) SiO2 
 PCOD8317376
Probable space group: P 42/M B C
;
_chemical_formula_sum "Si O2"
_cell_formula_units_Z 96
_cell_length_a 14.247435
_cell_length_b 14.247435
_cell_length_c 25.879551
_cell_angle_alpha 90.000000
_cell_angle_beta 90.000000
_cell_angle_gamma 90.000000
_cell_volume 5253.274635
_symmetry_space_group_name_H-M "P 42/M B C"
_symmetry_group_IT_number 135
_symmetry_cell_setting 'tetragonal'
loop_
_space_group_symop_operation_xyz
x,y,z
-y,x,1/2+z
-x,-y,z
y,-x,1/2+z
1/2+x,1/2-y,-z
1/2-x,1/2+y,-z
1/2+y,1/2+x,1/2-z
1/2-y,1/2-x,1/2-z
-x,-y,-z
y,-x,1/2-z
x,y,-z
-y,x,1/2-z
1/2-x,1/2+y,z
1/2+x,1/2-y,z
1/2-y,1/2-x,1/2+z
1/2+y,1/2+x,1/2+z
loop_
_atom_site_type_symbol
_atom_site_label
_atom_site_fract_x
_atom_site_fract_y
_atom_site_fract_z
Si Si1 0.300364 0.562791 0.195920
Si Si2 0.296233 0.583878 0.440544
Si Si3 0.275422 0.214700 0.635669
Si Si4 0.687286 0.634401 0.442363
Si Si5 0.505034 0.391396 0.404801
Si Si6 0.280081 0.362035 0.227088
O O1 0.221840 0.627726 0.168143
O O2 0.373073 0.516995 0.155429
O O3 0.252875 0.472216 0.222907
O O4 0.354656 0.627955 0.236759
O O5 0.273427 0.604769 0.500000
O O6 0.215114 0.627908 0.404259
O O7 0.297953 0.474134 0.428902
O O8 0.392006 0.639140 0.424207
O O9 0.256874 0.308087 0.601268
O O10 0.186001 0.197144 0.672293
O O11 0.723235 0.659070 0.500000
O O12 0.576079 0.659036 0.438668
O O13 0.500000 0.500000 0.416840
O O14 0.189277 0.310724 0.250000
#
# Coordination Sequence:
#
# PCOD8317376 Si02
#       6
#    16  16  16  16  16  16
#     4  10  21  34  54  78 111 141 181 229 278 334
#     4  10  18  31  55  81 112 146 179 221 277 337
#     4  10  20  35  53  79 110 145 179 225 274 328
#     4   9  18  31  50  79 110 141 180 223 269 324
#     4   9  17  29  49  80 110 137 170 222 281 327
#     4  10  22  36  54  80 107 140 185 230 280 334
#
# _framework density 18.274317
#
# number of rings (size 3 to 8) (size 9 to 14) (size 15 to 20)
#    0.000    2.333    1.667    1.000    2.333    4.667 
#    0.000    0.000    0.000   11.500    0.000    2.333 
#    0.000    0.000    0.000    0.000    0.000    0.000 
#
# Total GULP energy -1189721.219203 kJ/mol
# GULP energy per Si atom -12392.929367 kJ/mol
# Density = 1.823272 g / cm^3
# Si number density = 18.274317 Si / 1000 Ang^3
#
#
#
# Elastic Constant Matrix: (Units=GPa)
#
#
# Indices 1 2 3 4 5 6 
#
# 1 71.2759 35.2914 40.8250 0.0000 0.0000 0.0000
# 2 35.2914 71.2767 40.8255 0.0000 0.0000 0.0000
# 3 40.8250 40.8255 116.9973 0.0000 0.0000 0.0000
# 4 0.0000 0.0000 0.0000 29.7118 0.0000 0.0000
# 5 0.0000 0.0000 0.0000 0.0000 29.7118 0.0000
# 6 0.0000 0.0000 0.0000 0.0000 0.0000 17.5599
#
#
#
# Elastic Compliance Matrix: (Units=1/GPa)
#
#
# Indices 1 2 3 4 5 6 
#
# 1 0.020299 -0.007491 -0.004469 0.000000 0.000000 0.000000
# 2 -0.007491 0.020299 -0.004469 0.000000 0.000000 0.000000
# 3 -0.004469 -0.004469 0.011666 0.000000 0.000000 0.000000
# 4 0.000000 0.000000 0.000000 0.033657 0.000000 0.000000
# 5 0.000000 0.000000 0.000000 0.000000 0.033657 0.000000
# 6 0.000000 0.000000 0.000000 0.000000 0.000000 0.056948
#
#
# Mechanical properties :
#
#
# Convention : Reuss Voigt Hill
#
# Bulk Modulus (GPa) = 51.53260 54.82599 53.17929
# Shear Modulus (GPa) = 23.16404 24.90389 24.03397
#
# Velocity S-wave (km/s) = 3.56416 3.69559 3.63047
# Velocity P-wave (km/s) = 6.72297 6.94814 6.83648
#
# Compressibility (1/GPa) = 0.01940519
#
# Stress axis : x y z
#
# Youngs Moduli (GPa) = 49.26404 49.26436 85.71767
#
# Poissons Ratio (x) = 0.36903 0.38309
# Poissons Ratio (y) = 0.36902 0.38310
# Poissons Ratio (z) = 0.22017 0.22018
#
# Static dielectric constant tensor:
#      x y z
#    x 3.283430 0.000000 0.000000 
#    y 0.000000 3.283430 0.000000 
#    z 0.000000 0.000000 3.593570 
# 
# 
# High freq. dielectric constant tensor:
#      x y z
#    x 1.684550 0.000000 0.000000 
#    y 0.000000 1.684550 0.000000 
#    z 0.000000 0.000000 1.730450 
# 
# From -- ./inp_files/6844.got.cif
#   From: 2010.03.12/outbox.cif.g09.slc.cpg/sg135_4_cif.got.tgz:6844.got - 2010.04.06 18:31:24.
