data_PCOD8317174
_publ_section_title
;
Structure prediction by ZEFSAII (Michael W. Deem and Ramdas Pophale) SiO2 
 PCOD8317174
Probable space group: P 42/N N M
;
_chemical_formula_sum "Si O2"
_cell_formula_units_Z 76
_cell_length_a 10.298446
_cell_length_b 10.298446
_cell_length_c 34.909691
_cell_angle_alpha 90.000000
_cell_angle_beta 90.000000
_cell_angle_gamma 90.000000
_cell_volume 3702.451660
_symmetry_space_group_name_H-M "P 42/N N M"
_symmetry_group_IT_number 134
_space_group.IT_coordinate_system_code '2'
_symmetry_cell_setting 'tetragonal'
loop_
_space_group_symop_operation_xyz
x,y,z
1/2-y,x,1/2+z
1/2-x,1/2-y,z
y,1/2-x,1/2+z
x,1/2-y,1/2-z
1/2-x,y,1/2-z
y,x,-z
1/2-y,1/2-x,-z
-x,-y,-z
1/2+y,-x,1/2-z
1/2+x,1/2+y,-z
-y,1/2+x,1/2-z
-x,1/2+y,1/2+z
1/2+x,-y,1/2+z
-y,-x,z
1/2+y,1/2+x,z
loop_
_atom_site_type_symbol
_atom_site_label
_atom_site_fract_x
_atom_site_fract_y
_atom_site_fract_z
Si Si1 0.154813 0.053948 0.690684
Si Si2 0.250000 0.250000 0.250000
Si Si3 0.821943 0.960936 0.619130
Si Si4 0.078170 0.578170 0.469169
Si Si5 0.033445 0.533445 0.382917
Si Si6 0.841456 0.950963 0.534742
Si Si7 0.144699 0.855302 0.834912
O O1 0.159826 0.161885 0.723339
O O2 0.142851 0.119810 0.648840
O O3 0.281608 0.961510 0.691275
O O4 0.026387 0.973614 0.699982
O O5 0.819097 0.890551 0.577230
O O6 0.677092 0.998675 0.632518
O O7 0.907386 0.092615 0.617044
O O8 0.028199 0.528199 0.428442
O O9 0.230475 0.555380 0.474277
O O10 0.000000 0.500000 0.500000
O O11 0.928008 0.428008 0.369238
O O12 0.844635 0.844635 0.500000
O O13 0.980431 0.019570 0.535702
O O14 0.250000 0.750000 0.851199
#
# Coordination Sequence:
#
# PCOD8317174 Si02
#       7
#    16   4  16   8   8  16   8
#     4  10  23  41  62  90 120 152 191 240 286 345
#     4  12  24  40  66  90 114 156 196 230 286 352
#     4   9  18  36  60  89 119 151 195 243 300 354
#     4  10  21  33  46  76 114 151 193 243 295 340
#     4  10  19  34  60  82 114 156 198 244 292 353
#     4   9  18  34  57  81 110 152 195 240 289 349
#     4  10  22  41  61  86 117 153 194 235 284 343
#
# _framework density 20.526938000000001
#
# number of rings (size 3 to 8) (size 9 to 14) (size 15 to 20)
#    0.000    2.316    0.000    1.895    1.474    4.632 
#    1.895    7.368    0.000    0.000    0.000    0.000 
#    0.000    7.579    0.000    0.000    0.000    0.000 
#
# Total GULP energy -942197.429876 kJ/mol
# GULP energy per Si atom -12397.334604 kJ/mol
# Density = 2.048022 g / cm^3
# Si number density = 20.526938 Si / 1000 Ang^3
#
#
#
# Elastic Constant Matrix: (Units=GPa)
#
#
# Indices 1 2 3 4 5 6 
#
# 1 90.2411 52.9298 61.8819 0.0000 0.0000 0.0000
# 2 52.9298 90.2411 61.8819 0.0000 0.0000 0.0000
# 3 61.8819 61.8819 129.4803 0.0000 0.0000 0.0000
# 4 0.0000 0.0000 0.0000 30.3576 0.0000 0.0000
# 5 0.0000 0.0000 0.0000 0.0000 30.3576 0.0000
# 6 0.0000 0.0000 0.0000 0.0000 0.0000 29.8123
#
#
#
# Elastic Compliance Matrix: (Units=1/GPa)
#
#
# Indices 1 2 3 4 5 6 
#
# 1 0.019352 -0.007450 -0.005688 0.000000 0.000000 0.000000
# 2 -0.007450 0.019352 -0.005688 0.000000 0.000000 0.000000
# 3 -0.005688 -0.005688 0.013160 0.000000 0.000000 0.000000
# 4 0.000000 0.000000 0.000000 0.032941 0.000000 0.000000
# 5 0.000000 0.000000 0.000000 0.000000 0.032941 0.000000
# 6 0.000000 0.000000 0.000000 0.000000 0.000000 0.033543
#
#
# Mechanical properties :
#
#
# Convention : Reuss Voigt Hill
#
# Bulk Modulus (GPa) = 70.36738 73.70550 72.03644
# Shear Modulus (GPa) = 25.81610 26.99008 26.40309
#
# Velocity S-wave (km/s) = 3.55021 3.63004 3.59034
# Velocity P-wave (km/s) = 7.15264 7.31807 7.23583
#
# Compressibility (1/GPa) = 0.01421113
#
# Stress axis : x y z
#
# Youngs Moduli (GPa) = 51.67514 51.67514 75.98666
#
# Poissons Ratio (x) = 0.38497 0.43222
# Poissons Ratio (y) = 0.38497 0.43222
# Poissons Ratio (z) = 0.29394 0.29394
#
# Static dielectric constant tensor:
#      x y z
#    x 3.606420 0.000000 0.000000 
#    y 0.000000 3.606420 0.000000 
#    z 0.000000 0.000000 3.768020 
# 
# 
# High freq. dielectric constant tensor:
#      x y z
#    x 1.801350 0.000000 0.000000 
#    y 0.000000 1.801350 0.000000 
#    z 0.000000 0.000000 1.796710 
# 
# From -- ./inp_files/11387.got.cif
#   From: 2010.03.12/outbox.cif.g09.slc.cpg/sg134_6_cif.got.tgz:11387.got - 2010.04.06 18:17:22.
