data_PCOD8317358
_publ_section_title
;
Structure prediction by ZEFSAII (Michael W. Deem and Ramdas Pophale) SiO2 
 PCOD8317358
Probable space group: P 42/M B C
;
_chemical_formula_sum "Si O2"
_cell_formula_units_Z 72
_cell_length_a 23.277155
_cell_length_b 23.277155
_cell_length_c 7.642253
_cell_angle_alpha 90.000000
_cell_angle_beta 90.000000
_cell_angle_gamma 90.000000
_cell_volume 4140.770953
_symmetry_space_group_name_H-M "P 42/M B C"
_symmetry_group_IT_number 135
_symmetry_cell_setting 'tetragonal'
loop_
_space_group_symop_operation_xyz
x,y,z
-y,x,1/2+z
-x,-y,z
y,-x,1/2+z
1/2+x,1/2-y,-z
1/2-x,1/2+y,-z
1/2+y,1/2+x,1/2-z
1/2-y,1/2-x,1/2-z
-x,-y,-z
y,-x,1/2-z
x,y,-z
-y,x,1/2-z
1/2-x,1/2+y,z
1/2+x,1/2-y,z
1/2-y,1/2-x,1/2+z
1/2+y,1/2+x,1/2+z
loop_
_atom_site_type_symbol
_atom_site_label
_atom_site_fract_x
_atom_site_fract_y
_atom_site_fract_z
Si Si1 0.830789 0.513166 0.500000
Si Si2 0.747288 0.608865 0.500000
Si Si3 0.294320 0.510911 0.500000
Si Si4 0.059793 0.650570 0.693389
Si Si5 0.413679 0.284471 0.695485
Si Si6 0.284401 0.305545 0.201046
O O1 0.811507 0.580203 0.500000
O O2 0.773464 0.473798 0.500000
O O3 0.863946 0.493814 0.676625
O O4 0.698180 0.558415 0.500000
O O5 0.741609 0.644968 0.323666
O O6 0.317676 0.540457 0.321410
O O7 0.115737 0.615737 0.750000
O O8 0.039589 0.631632 0.500000
O O9 0.077438 0.716733 0.691561
O O10 0.420719 0.309961 0.500000
O O11 0.351361 0.298887 0.768722
O O12 0.254389 0.245612 0.250000
O O13 0.271817 0.322312 0.000000
#
# Coordination Sequence:
#
# PCOD8317358 Si02
#       6
#     8   8   8  16  16  16
#     4   8  18  32  42  64 102 133 161 218 254 299
#     4  10  22  37  49  74 110 146 187 227 258 320
#     4   8  18  33  49  68 106 141 168 225 262 310
#     4  10  17  25  45  71 100 136 162 196 261 321
#     4  10  18  30  50  76 106 140 174 208 267 321
#     4  12  22  34  54  79 111 149 186 219 260 328
#
# _framework density 17.388066999999999
#
# number of rings (size 3 to 8) (size 9 to 14) (size 15 to 20)
#    0.667    1.333    4.444    0.667    0.000    3.556 
#    0.000    0.000    0.000    0.000    0.000    0.000 
#    0.000    5.333    0.000    0.000    0.000    0.000 
#
# Total GULP energy -891976.668723 kJ/mol
# GULP energy per Si atom -12388.564843 kJ/mol
# Density = 1.734849 g / cm^3
# Si number density = 17.388067 Si / 1000 Ang^3
#
#
#
# Elastic Constant Matrix: (Units=GPa)
#
#
# Indices 1 2 3 4 5 6 
#
# 1 36.4565 -4.9543 18.5535 0.0000 0.0000 0.0000
# 2 -4.9543 36.4233 18.5368 0.0000 0.0000 0.0000
# 3 18.5535 18.5368 169.0691 0.0000 0.0000 0.0000
# 4 0.0000 0.0000 0.0000 17.1352 0.0000 0.0000
# 5 0.0000 0.0000 0.0000 0.0000 17.1349 0.0000
# 6 0.0000 0.0000 0.0000 0.0000 0.0000 3.8946
#
#
#
# Elastic Compliance Matrix: (Units=1/GPa)
#
#
# Indices 1 2 3 4 5 6 
#
# 1 0.030303 0.006158 -0.004001 0.000000 0.000000 0.000000
# 2 0.006158 0.030329 -0.004001 0.000000 0.000000 0.000000
# 3 -0.004001 -0.004001 0.006792 0.000000 0.000000 0.000000
# 4 0.000000 0.000000 0.000000 0.058360 0.000000 0.000000
# 5 0.000000 0.000000 0.000000 0.000000 0.058361 0.000000
# 6 0.000000 0.000000 0.000000 0.000000 0.000000 0.256764
#
#
# Mechanical properties :
#
#
# Convention : Reuss Voigt Hill
#
# Bulk Modulus (GPa) = 15.68963 34.02454 24.85709
# Shear Modulus (GPa) = 10.73328 21.62046 16.17687
#
# Velocity S-wave (km/s) = 2.48720 3.53002 3.05346
# Velocity P-wave (km/s) = 4.15825 6.01872 5.17282
#
# Compressibility (1/GPa) = 0.06373636
#
# Stress axis : x y z
#
# Youngs Moduli (GPa) = 33.00035 32.97199 147.22275
#
# Poissons Ratio (x) = -0.20303 0.58897
# Poissons Ratio (y) = -0.20321 0.58904
# Poissons Ratio (z) = 0.13202 0.13192
#
# Static dielectric constant tensor:
#      x y z
#    x 2.878170 0.000000 0.000000 
#    y 0.000000 2.878160 0.000000 
#    z 0.000000 0.000000 3.826060 
# 
# 
# High freq. dielectric constant tensor:
#      x y z
#    x 1.630120 0.000000 0.000000 
#    y 0.000000 1.630120 0.000000 
#    z 0.000000 0.000000 1.703790 
# 
# From -- ./inp_files/1124.got.cif
#   From: 2010.03.12/outbox.cif.g09.slc.cpg/sg135_1_cif.got.tgz:1124.got - 2010.04.06 18:31:24.
