data_PCOD8317431
_publ_section_title
;
Structure prediction by ZEFSAII (Michael W. Deem and Ramdas Pophale) SiO2 
 PCOD8317431
Probable space group: P 42/M B C
;
_chemical_formula_sum "Si O2"
_cell_formula_units_Z 96
_cell_length_a 23.995181
_cell_length_b 23.995181
_cell_length_c 8.696299
_cell_angle_alpha 90.000000
_cell_angle_beta 90.000000
_cell_angle_gamma 90.000000
_cell_volume 5007.056868
_symmetry_space_group_name_H-M "P 42/M B C"
_symmetry_group_IT_number 135
_symmetry_cell_setting 'tetragonal'
loop_
_space_group_symop_operation_xyz
x,y,z
-y,x,1/2+z
-x,-y,z
y,-x,1/2+z
1/2+x,1/2-y,-z
1/2-x,1/2+y,-z
1/2+y,1/2+x,1/2-z
1/2-y,1/2-x,1/2-z
-x,-y,-z
y,-x,1/2-z
x,y,-z
-y,x,1/2-z
1/2-x,1/2+y,z
1/2+x,1/2-y,z
1/2-y,1/2-x,1/2+z
1/2+y,1/2+x,1/2+z
loop_
_atom_site_type_symbol
_atom_site_label
_atom_site_fract_x
_atom_site_fract_y
_atom_site_fract_z
Si Si1 0.362010 0.219080 0.181715
Si Si2 0.529764 0.421305 0.182381
Si Si3 0.226674 0.808700 0.818522
Si Si4 0.800158 0.072691 0.317891
Si Si5 0.514501 0.790106 0.817657
Si Si6 0.999666 0.584105 0.183009
O O1 0.338000 0.162001 0.250000
O O2 0.325279 0.271247 0.238171
O O3 0.424502 0.226698 0.244730
O O4 0.361201 0.213642 0.000000
O O5 0.468585 0.428541 0.255423
O O6 0.553669 0.361651 0.233631
O O7 0.524232 0.426430 0.000000
O O8 0.283963 0.783963 0.750000
O O9 0.215920 0.869790 0.758450
O O10 0.232148 0.809268 0.000000
O O11 0.796668 0.078880 0.500000
O O12 0.755444 0.028414 0.253203
O O13 0.498386 0.851936 0.761476
O O14 0.514431 0.788334 0.000000
O O15 0.054650 0.554650 0.250000
O O16 0.944328 0.555673 0.250000
O O17 0.000500 0.578389 0.000000
#
# Coordination Sequence:
#
# PCOD8317431 Si02
#       6
#    16  16  16  16  16  16
#     4   9  18  34  57  81 106 139 177 221 273 321
#     4  10  21  37  60  84 113 149 189 238 289 345
#     4  10  21  37  59  82 110 146 185 229 276 334
#     4  10  22  38  57  82 113 150 188 230 279 333
#     4   9  19  35  54  78 107 142 178 218 269 322
#     4  10  19  33  54  77 105 139 177 218 264 318
#
# _framework density 19.172939
#
# number of rings (size 3 to 8) (size 9 to 14) (size 15 to 20)
#    0.000    2.333    0.000    3.000    2.333    2.667 
#    0.000    5.000    0.000    0.000    0.000    0.000 
#    0.000    0.000    0.000    0.000    0.000    0.000 
#
# Total GULP energy -1190489.409853 kJ/mol
# GULP energy per Si atom -12400.931353 kJ/mol
# Density = 1.912930 g / cm^3
# Si number density = 19.172939 Si / 1000 Ang^3
#
#
#
# Elastic Constant Matrix: (Units=GPa)
#
#
# Indices 1 2 3 4 5 6 
#
# 1 173.4839 93.8707 35.6726 0.0000 0.0000 0.0000
# 2 93.8707 173.4812 35.6718 0.0000 0.0000 0.0000
# 3 35.6726 35.6718 45.3464 0.0000 0.0000 0.0000
# 4 0.0000 0.0000 0.0000 25.7738 0.0000 0.0000
# 5 0.0000 0.0000 0.0000 0.0000 25.7736 0.0000
# 6 0.0000 0.0000 0.0000 0.0000 0.0000 27.1409
#
#
#
# Elastic Compliance Matrix: (Units=1/GPa)
#
#
# Indices 1 2 3 4 5 6 
#
# 1 0.008648 -0.003913 -0.003724 0.000000 0.000000 0.000000
# 2 -0.003913 0.008648 -0.003724 0.000000 0.000000 0.000000
# 3 -0.003724 -0.003724 0.027912 0.000000 0.000000 0.000000
# 4 0.000000 0.000000 0.000000 0.038799 0.000000 0.000000
# 5 0.000000 0.000000 0.000000 0.000000 0.038799 0.000000
# 6 0.000000 0.000000 0.000000 0.000000 0.000000 0.036845
#
#
# Mechanical properties :
#
#
# Convention : Reuss Voigt Hill
#
# Bulk Modulus (GPa) = 44.47724 80.30463 62.39094
# Shear Modulus (GPa) = 26.33405 30.87742 28.60574
#
# Velocity S-wave (km/s) = 3.71010 4.01742 3.86681
# Velocity P-wave (km/s) = 6.44991 7.96836 7.24901
#
# Compressibility (1/GPa) = 0.02248341
#
# Stress axis : x y z
#
# Youngs Moduli (GPa) = 115.64008 115.63895 35.82710
#
# Poissons Ratio (x) = 0.45254 0.13343
# Poissons Ratio (y) = 0.45254 0.13342
# Poissons Ratio (z) = 0.43068 0.43065
#
# Static dielectric constant tensor:
#      x y z
#    x 3.731170 0.000000 0.000000 
#    y 0.000000 3.731180 0.000000 
#    z 0.000000 0.000000 3.373030 
# 
# 
# High freq. dielectric constant tensor:
#      x y z
#    x 1.753380 0.000000 0.000000 
#    y 0.000000 1.753380 0.000000 
#    z 0.000000 0.000000 1.732780 
# 
# From -- ./inp_files/1255.got.cif
#   From: 2010.03.12/outbox.cif.g09.slc.cpg/sg135_1_cif.got.tgz:1255.got - 2010.04.06 18:31:24.
