data_PCOD8317980
_publ_section_title
;
Structure prediction by ZEFSAII (Michael W. Deem and Ramdas Pophale) SiO2 
 PCOD8317980
Probable space group: P 42/M N M
;
_chemical_formula_sum "Si O2"
_cell_formula_units_Z 72
_cell_length_a 14.515529
_cell_length_b 14.515529
_cell_length_c 18.018419
_cell_angle_alpha 90.000000
_cell_angle_beta 90.000000
_cell_angle_gamma 90.000000
_cell_volume 3796.491373
_symmetry_space_group_name_H-M "P 42/M N M"
_symmetry_group_IT_number 136
_symmetry_cell_setting 'tetragonal'
loop_
_space_group_symop_operation_xyz
x,y,z
1/2-y,1/2+x,1/2+z
-x,-y,z
1/2+y,1/2-x,1/2+z
1/2+x,1/2-y,1/2-z
1/2-x,1/2+y,1/2-z
y,x,-z
-y,-x,-z
-x,-y,-z
1/2+y,1/2-x,1/2-z
x,y,-z
1/2-y,1/2+x,1/2-z
1/2-x,1/2+y,1/2+z
1/2+x,1/2-y,1/2+z
-y,-x,z
y,x,z
loop_
_atom_site_type_symbol
_atom_site_label
_atom_site_fract_x
_atom_site_fract_y
_atom_site_fract_z
Si Si1 0.696081 0.457871 0.583788
Si Si2 0.485560 0.720415 0.085677
Si Si3 0.225884 0.225884 0.585144
Si Si4 0.929184 0.070817 0.687825
Si Si5 0.811250 0.666685 0.086951
Si Si6 0.858935 0.141066 0.835341
O O1 0.714197 0.492771 0.500000
O O2 0.609660 0.390341 0.585563
O O3 0.785910 0.404716 0.618215
O O4 0.674998 0.544478 0.633761
O O5 0.380923 0.750775 0.100054
O O6 0.508637 0.634827 0.136535
O O7 0.557675 0.803489 0.105131
O O8 0.498411 0.690574 0.000000
O O9 0.251729 0.251729 0.500000
O O10 0.282936 0.282936 0.645200
O O11 0.870535 0.129466 0.747140
O O12 0.000000 0.000000 0.728576
O O13 0.719330 0.719330 0.117485
O O14 0.816800 0.685048 0.000000
#
# Coordination Sequence:
#
# PCOD8317980 Si02
#       6
#    16  16   8   8  16   8
#     4   9  17  32  56  82 110 149 196 241 281 331
#     4  10  19  36  61  89 116 145 195 252 299 354
#     4  10  22  39  61  84 118 161 203 248 294 351
#     4  12  23  36  56  88 119 148 189 243 314 359
#     4   8  14  27  52  86 112 135 179 238 295 338
#     4  12  24  38  49  82 121 163 196 236 291 353
#
# _framework density 18.964879
#
# number of rings (size 3 to 8) (size 9 to 14) (size 15 to 20)
#    0.000    2.222    2.222    3.667    0.000    1.333 
#    4.000    1.111    0.000    5.333    0.000    0.000 
#    0.000    0.000    0.000    0.000    0.000    0.000 
#
# Total GULP energy -892270.199995 kJ/mol
# GULP energy per Si atom -12392.641667 kJ/mol
# Density = 1.892171 g / cm^3
# Si number density = 18.964879 Si / 1000 Ang^3
#
#
#
# Elastic Constant Matrix: (Units=GPa)
#
#
# Indices 1 2 3 4 5 6 
#
# 1 131.2724 51.5324 40.4215 0.0000 0.0000 0.0000
# 2 51.5324 131.2724 40.4215 0.0000 0.0000 0.0000
# 3 40.4215 40.4215 76.3001 0.0000 0.0000 0.0000
# 4 0.0000 0.0000 0.0000 24.9055 0.0000 0.0000
# 5 0.0000 0.0000 0.0000 0.0000 24.9055 0.0000
# 6 0.0000 0.0000 0.0000 0.0000 0.0000 36.7900
#
#
#
# Elastic Compliance Matrix: (Units=1/GPa)
#
#
# Indices 1 2 3 4 5 6 
#
# 1 0.009842 -0.002698 -0.003785 0.000000 0.000000 0.000000
# 2 -0.002698 0.009842 -0.003785 0.000000 0.000000 0.000000
# 3 -0.003785 -0.003785 0.017116 0.000000 0.000000 0.000000
# 4 0.000000 0.000000 0.000000 0.040152 0.000000 0.000000
# 5 0.000000 0.000000 0.000000 0.000000 0.040152 0.000000
# 6 0.000000 0.000000 0.000000 0.000000 0.000000 0.027181
#
#
# Mechanical properties :
#
#
# Convention : Reuss Voigt Hill
#
# Bulk Modulus (GPa) = 61.47991 67.06618 64.27305
# Shear Modulus (GPa) = 29.36976 31.08484 30.22730
#
# Velocity S-wave (km/s) = 3.93954 4.05294 3.99664
# Velocity P-wave (km/s) = 7.29256 7.57244 7.43382
#
# Compressibility (1/GPa) = 0.01626548
#
# Stress axis : x y z
#
# Youngs Moduli (GPa) = 101.60121 101.60121 58.42420
#
# Poissons Ratio (x) = 0.27416 0.22112
# Poissons Ratio (y) = 0.27416 0.22112
# Poissons Ratio (z) = 0.38453 0.38453
#
# Static dielectric constant tensor:
#      x y z
#    x 3.565130 0.000000 0.000000 
#    y 0.000000 3.565130 0.000000 
#    z 0.000000 0.000000 3.203230 
# 
# 
# High freq. dielectric constant tensor:
#      x y z
#    x 1.731860 0.000000 0.000000 
#    y 0.000000 1.731860 0.000000 
#    z 0.000000 0.000000 1.706450 
# 
# From -- ./inp_files/6135.got.cif
#   From: 2010.03.12/outbox.cif.g09.slc.cpg/sg136_4_cif.got.tgz:6135.got - 2010.04.06 18:39:43.
