data_PCOD8317993
_publ_section_title
;
Structure prediction by ZEFSAII (Michael W. Deem and Ramdas Pophale) SiO2 
 PCOD8317993
Probable space group: P 42/M N M
;
_chemical_formula_sum "Si O2"
_cell_formula_units_Z 64
_cell_length_a 23.479408
_cell_length_b 23.479408
_cell_length_c 7.781187
_cell_angle_alpha 90.000000
_cell_angle_beta 90.000000
_cell_angle_gamma 90.000000
_cell_volume 4289.633001
_symmetry_space_group_name_H-M "P 42/M N M"
_symmetry_group_IT_number 136
_symmetry_cell_setting 'tetragonal'
loop_
_space_group_symop_operation_xyz
x,y,z
1/2-y,1/2+x,1/2+z
-x,-y,z
1/2+y,1/2-x,1/2+z
1/2+x,1/2-y,1/2-z
1/2-x,1/2+y,1/2-z
y,x,-z
-y,-x,-z
-x,-y,-z
1/2+y,1/2-x,1/2-z
x,y,-z
1/2-y,1/2+x,1/2-z
1/2-x,1/2+y,1/2+z
1/2+x,1/2-y,1/2+z
-y,-x,z
y,x,z
loop_
_atom_site_type_symbol
_atom_site_label
_atom_site_fract_x
_atom_site_fract_y
_atom_site_fract_z
Si Si1 0.360672 0.543903 0.500000
Si Si2 0.863325 0.042461 0.308777
Si Si3 0.810461 0.714475 0.306146
Si Si4 0.721561 0.626429 0.692000
Si Si5 0.730910 0.365057 0.500000
O O1 0.410456 0.589545 0.500000
O O2 0.366599 0.507712 0.327492
O O3 0.298961 0.573677 0.500000
O O4 0.872010 0.017151 0.500000
O O5 0.912766 0.087235 0.261919
O O6 0.801710 0.074293 0.306743
O O7 0.835743 0.709754 0.500000
O O8 0.762998 0.762998 0.303336
O O9 0.781894 0.653853 0.249217
O O10 0.859971 0.729828 0.170657
O O11 0.727168 0.601963 0.500000
O O12 0.677044 0.677044 0.697642
O O13 0.684408 0.315593 0.500000
#
# Coordination Sequence:
#
# PCOD8317993 Si02
#       5
#     8  16  16  16   8
#     4  11  23  36  45  56  84 124 159 193 221 256
#     4  10  20  32  47  65  81 107 152 201 239 263
#     4   8  14  24  40  63  85 102 125 165 212 264
#     4   8  13  24  43  65  87 103 123 171 230 270
#     4   9  18  29  42  59  80 112 146 168 206 265
#
# _framework density 14.919692
#
# number of rings (size 3 to 8) (size 9 to 14) (size 15 to 20)
#    0.000    3.000    1.250    1.875    1.750    2.500 
#    0.000    3.750    0.000    0.000    0.000    0.000 
#    0.000    0.000    0.000    0.000    0.000    3.750 
#
# Total GULP energy -792883.305302 kJ/mol
# GULP energy per Si atom -12388.801645 kJ/mol
# Density = 1.488573 g / cm^3
# Si number density = 14.919692 Si / 1000 Ang^3
#
#
#
# Elastic Constant Matrix: (Units=GPa)
#
#
# Indices 1 2 3 4 5 6 
#
# 1 45.7748 46.6207 45.7541 0.0000 0.0000 0.0000
# 2 46.6207 45.7767 45.7553 0.0000 0.0000 0.0000
# 3 45.7541 45.7553 110.7073 0.0000 0.0000 0.0000
# 4 0.0000 0.0000 0.0000 15.0823 0.0000 0.0000
# 5 0.0000 0.0000 0.0000 0.0000 15.0829 0.0000
# 6 0.0000 0.0000 0.0000 0.0000 0.0000 17.0894
#
#
#
# Elastic Compliance Matrix: (Units=1/GPa)
#
#
# Indices 1 2 3 4 5 6 
#
# 1 -0.582583 0.600897 -0.007576 0.000000 0.000000 0.000000
# 2 0.600897 -0.582564 -0.007570 0.000000 0.000000 0.000000
# 3 -0.007576 -0.007570 0.015292 0.000000 0.000000 0.000000
# 4 0.000000 0.000000 0.000000 0.066303 0.000000 0.000000
# 5 0.000000 0.000000 0.000000 0.000000 0.066300 0.000000
# 6 0.000000 0.000000 0.000000 0.000000 0.000000 0.058516
#
#
# Mechanical properties :
#
#
# Convention : Reuss Voigt Hill
#
# Bulk Modulus (GPa) = 46.19522 53.16879 49.68200
# Shear Modulus (GPa) = -2.35513 13.72617 5.68552
#
# Velocity S-wave (km/s) = -1.25776 3.03645 1.95423
# Velocity P-wave (km/s) = 5.37778 6.92873 6.20193
#
# Compressibility (1/GPa) = 0.02164726
#
# Stress axis : x y z
#
# Youngs Moduli (GPa) = -1.71649 -1.71655 65.39189
#
# Poissons Ratio (x) = 1.03147 0.49539
# Poissons Ratio (y) = 1.03143 0.49501
# Poissons Ratio (z) = -0.01300 -0.01299
#
# Static dielectric constant tensor:
#      x y z
#    x 2.746620 0.000000 0.000000 
#    y 0.000000 2.746620 0.000000 
#    z 0.000000 0.000000 3.079870 
# 
# 
# High freq. dielectric constant tensor:
#      x y z
#    x 1.529130 0.000000 0.000000 
#    y 0.000000 1.529130 0.000000 
#    z 0.000000 0.000000 1.586760 
# 
# From -- ./inp_files/1472.got.cif
#   From: 2010.03.12/outbox.cif.g09.slc.cpg/sg136_1_cif.got.tgz:1472.got - 2010.04.06 18:39:43.
