data_PCOD8317608
_publ_section_title
;
Structure prediction by ZEFSAII (Michael W. Deem and Ramdas Pophale) SiO2 
 PCOD8317608
Probable space group: P 42/M B C
;
_chemical_formula_sum "Si O2"
_cell_formula_units_Z 96
_cell_length_a 15.561376
_cell_length_b 15.561376
_cell_length_c 19.438955
_cell_angle_alpha 90.000000
_cell_angle_beta 90.000000
_cell_angle_gamma 90.000000
_cell_volume 4707.267810
_symmetry_space_group_name_H-M "P 42/M B C"
_symmetry_group_IT_number 135
_symmetry_cell_setting 'tetragonal'
loop_
_space_group_symop_operation_xyz
x,y,z
-y,x,1/2+z
-x,-y,z
y,-x,1/2+z
1/2+x,1/2-y,-z
1/2-x,1/2+y,-z
1/2+y,1/2+x,1/2-z
1/2-y,1/2-x,1/2-z
-x,-y,-z
y,-x,1/2-z
x,y,-z
-y,x,1/2-z
1/2-x,1/2+y,z
1/2+x,1/2-y,z
1/2-y,1/2-x,1/2+z
1/2+y,1/2+x,1/2+z
loop_
_atom_site_type_symbol
_atom_site_label
_atom_site_fract_x
_atom_site_fract_y
_atom_site_fract_z
Si Si1 0.417769 0.561135 0.664077
Si Si2 0.900212 0.244806 0.078582
Si Si3 0.198523 0.394534 0.309401
Si Si4 0.797079 0.984692 0.782444
Si Si5 0.745689 0.809915 0.174734
Si Si6 0.971510 0.596468 0.922844
O O1 0.500000 0.500000 0.645593
O O2 0.339064 0.550789 0.609624
O O3 0.446109 0.662515 0.664279
O O4 0.381375 0.548337 0.741288
O O5 0.813073 0.265552 0.118149
O O6 0.955187 0.331746 0.083961
O O7 0.878208 0.223327 0.000000
O O8 0.164613 0.335388 0.250000
O O9 0.229258 0.483203 0.274968
O O10 0.279000 0.343053 0.341076
O O11 0.123627 0.402116 0.366148
O O12 0.749260 0.913253 0.828501
O O13 0.713282 0.786719 0.250000
O O14 0.000000 0.500000 0.904143
O O15 0.932709 0.597345 0.000000
#
# Coordination Sequence:
#
# PCOD8317608 Si02
#       6
#    16  16  16  16  16  16
#     4  12  20  37  68 101 134 170 217 279 350 420
#     4  11  25  45  64  90 134 182 225 279 349 418
#     4  11  22  36  60  96 123 155 215 275 327 396
#     4  12  20  37  63 102 132 167 217 281 343 408
#     4  11  21  39  65  90 129 172 215 272 335 400
#     4  10  23  43  62  83 120 170 217 269 333 400
#
# _framework density 20.393996000000001
#
# number of rings (size 3 to 8) (size 9 to 14) (size 15 to 20)
#    0.000    0.833    6.667    1.000    2.333    1.333 
#    0.000    0.833    0.000    0.000    0.000    0.000 
#    0.000    0.000    0.000    0.000    0.000    0.000 
#
# Total GULP energy -1189650.520368 kJ/mol
# GULP energy per Si atom -12392.192920 kJ/mol
# Density = 2.034758 g / cm^3
# Si number density = 20.393996 Si / 1000 Ang^3
#
#
#
# Elastic Constant Matrix: (Units=GPa)
#
#
# Indices 1 2 3 4 5 6 
#
# 1 75.0972 57.3238 30.7319 0.0000 0.0000 0.0000
# 2 57.3238 75.0924 30.7349 0.0000 0.0000 0.0000
# 3 30.7319 30.7349 85.9342 0.0000 0.0000 0.0000
# 4 0.0000 0.0000 0.0000 -177.5106 0.0000 0.0000
# 5 0.0000 0.0000 0.0000 0.0000 -177.3806 0.0000
# 6 0.0000 0.0000 0.0000 0.0000 0.0000 36.7324
#
#
#
# Elastic Compliance Matrix: (Units=1/GPa)
#
#
# Indices 1 2 3 4 5 6 
#
# 1 0.032662 -0.023608 -0.003237 0.000000 0.000000 0.000000
# 2 -0.023608 0.032665 -0.003240 0.000000 0.000000 0.000000
# 3 -0.003237 -0.003240 0.013953 0.000000 0.000000 0.000000
# 4 0.000000 0.000000 0.000000 -0.005633 0.000000 0.000000
# 5 0.000000 0.000000 0.000000 0.000000 -0.005638 0.000000
# 6 0.000000 0.000000 0.000000 0.000000 0.000000 0.027224
#
#
# Mechanical properties :
#
#
# Convention : Reuss Voigt Hill
#
# Bulk Modulus (GPa) = 52.32987 52.63387 52.48187
# Shear Modulus (GPa) = 30.90755 -55.80956 -12.45101
#
# Velocity S-wave (km/s) = 3.89719 -5.23690 -2.47356
# Velocity P-wave (km/s) = 6.77982 3.27143 4.19903
#
# Compressibility (1/GPa) = 0.01910954
#
# Stress axis : x y z
#
# Youngs Moduli (GPa) = 30.61706 30.61373 71.66817
#
# Poissons Ratio (x) = 0.72274 0.23198
# Poissons Ratio (y) = 0.72282 0.23221
# Poissons Ratio (z) = 0.09910 0.09919
#
# Static dielectric constant tensor:
#      x y z
#    x 4.403680 0.000000 0.000000 
#    y 0.000000 4.403970 0.000000 
#    z 0.000000 0.000000 3.692710 
# 
# 
# High freq. dielectric constant tensor:
#      x y z
#    x 1.802160 0.000000 0.000000 
#    y 0.000000 1.802160 0.000000 
#    z 0.000000 0.000000 1.772230 
# 
# From -- ./inp_files/5474.got.cif
#   From: 2010.03.12/outbox.cif.g09.slc.cpg/sg135_3_cif.got.tgz:5474.got - 2010.04.06 18:31:24.
