data_PCOD8317661
_publ_section_title
;
Structure prediction by ZEFSAII (Michael W. Deem and Ramdas Pophale) SiO2 
 PCOD8317661
Probable space group: P 42/M B C
;
_chemical_formula_sum "Si O2"
_cell_formula_units_Z 96
_cell_length_a 14.885207
_cell_length_b 14.885207
_cell_length_c 20.374263
_cell_angle_alpha 90.000000
_cell_angle_beta 90.000000
_cell_angle_gamma 90.000000
_cell_volume 4514.312972
_symmetry_space_group_name_H-M "P 42/M B C"
_symmetry_group_IT_number 135
_symmetry_cell_setting 'tetragonal'
loop_
_space_group_symop_operation_xyz
x,y,z
-y,x,1/2+z
-x,-y,z
y,-x,1/2+z
1/2+x,1/2-y,-z
1/2-x,1/2+y,-z
1/2+y,1/2+x,1/2-z
1/2-y,1/2-x,1/2-z
-x,-y,-z
y,-x,1/2-z
x,y,-z
-y,x,1/2-z
1/2-x,1/2+y,z
1/2+x,1/2-y,z
1/2-y,1/2-x,1/2+z
1/2+y,1/2+x,1/2+z
loop_
_atom_site_type_symbol
_atom_site_label
_atom_site_fract_x
_atom_site_fract_y
_atom_site_fract_z
Si Si1 0.926297 0.336464 0.926007
Si Si2 0.203102 0.833208 0.926658
Si Si3 0.034519 0.626266 0.309968
Si Si4 0.575098 0.572434 0.840449
Si Si5 0.890230 0.665820 0.143576
Si Si6 0.709964 0.517360 0.264982
O O1 0.863239 0.250126 0.925068
O O2 0.883948 0.404911 0.874095
O O3 0.029536 0.313986 0.907685
O O4 0.925562 0.377235 0.000000
O O5 0.150892 0.919558 0.896587
O O6 0.293611 0.813162 0.886827
O O7 0.231103 0.859660 0.000000
O O8 0.063013 0.563013 0.250000
O O9 0.935275 0.599270 0.331754
O O10 0.042015 0.728951 0.284066
O O11 0.500000 0.500000 0.861819
O O12 0.535923 0.672804 0.828559
O O13 0.620735 0.548737 0.771486
O O14 0.900579 0.730023 0.207378
#
# Coordination Sequence:
#
# PCOD8317661 Si02
#       6
#    16  16  16  16  16  16
#     4  11  26  45  67  96 139 182 228 284 346 424
#     4  11  26  48  69 101 137 184 238 284 355 434
#     4  12  25  42  66 102 135 176 226 277 344 417
#     4  12  24  45  71  99 138 180 230 298 355 417
#     4  12  25  42  72  98 141 178 227 293 354 411
#     4  12  24  41  68 103 137 174 228 292 358 415
#
# _framework density 21.265694
#
# number of rings (size 3 to 8) (size 9 to 14) (size 15 to 20)
#    0.000    0.333    6.667    1.500    4.667    2.333 
#    0.000    0.000    0.000    0.000    0.000    0.000 
#    0.000    0.000    0.000    0.000    0.000    0.000 
#
# Total GULP energy -1190197.388399 kJ/mol
# GULP energy per Si atom -12397.889462 kJ/mol
# Density = 2.121729 g / cm^3
# Si number density = 21.265694 Si / 1000 Ang^3
#
#
#
# Elastic Constant Matrix: (Units=GPa)
#
#
# Indices 1 2 3 4 5 6 
#
# 1 107.3168 41.5937 45.1535 0.0000 0.0000 0.0000
# 2 41.5937 107.3168 45.1535 0.0000 0.0000 0.0000
# 3 45.1535 45.1535 115.5793 0.0000 0.0000 0.0000
# 4 0.0000 0.0000 0.0000 31.2172 0.0000 0.0000
# 5 0.0000 0.0000 0.0000 0.0000 31.2172 0.0000
# 6 0.0000 0.0000 0.0000 0.0000 0.0000 25.2654
#
#
#
# Elastic Compliance Matrix: (Units=1/GPa)
#
#
# Indices 1 2 3 4 5 6 
#
# 1 0.012008 -0.003207 -0.003438 0.000000 0.000000 0.000000
# 2 -0.003207 0.012008 -0.003438 0.000000 0.000000 0.000000
# 3 -0.003438 -0.003438 0.011338 0.000000 0.000000 0.000000
# 4 0.000000 0.000000 0.000000 0.032034 0.000000 0.000000
# 5 0.000000 0.000000 0.000000 0.000000 0.032034 0.000000
# 6 0.000000 0.000000 0.000000 0.000000 0.000000 0.039580
#
#
# Mechanical properties :
#
#
# Convention : Reuss Voigt Hill
#
# Bulk Modulus (GPa) = 65.84587 66.00160 65.92374
# Shear Modulus (GPa) = 30.44495 30.76077 30.60286
#
# Velocity S-wave (km/s) = 3.78781 3.80741 3.79763
# Velocity P-wave (km/s) = 7.08242 7.10159 7.09201
#
# Compressibility (1/GPa) = 0.01518698
#
# Stress axis : x y z
#
# Youngs Moduli (GPa) = 83.27834 83.27834 88.19581
#
# Poissons Ratio (x) = 0.26711 0.30323
# Poissons Ratio (y) = 0.26711 0.30323
# Poissons Ratio (z) = 0.28632 0.28632
#
# Static dielectric constant tensor:
#      x y z
#    x 3.918590 0.000000 0.000000 
#    y 0.000000 3.918590 0.000000 
#    z 0.000000 0.000000 4.143340 
# 
# 
# High freq. dielectric constant tensor:
#      x y z
#    x 1.837510 0.000000 0.000000 
#    y 0.000000 1.837510 0.000000 
#    z 0.000000 0.000000 1.841200 
# 
# From -- ./inp_files/5454.got.cif
#   From: 2010.03.12/outbox.cif.g09.slc.cpg/sg135_3_cif.got.tgz:5454.got - 2010.04.06 18:31:24.
