data_PCOD8317853
_publ_section_title
;
Structure prediction by ZEFSAII (Michael W. Deem and Ramdas Pophale) SiO2 
 PCOD8317853
Probable space group: P 42/M N M
;
_chemical_formula_sum "Si O2"
_cell_formula_units_Z 104
_cell_length_a 26.325947
_cell_length_b 26.325947
_cell_length_c 9.250197
_cell_angle_alpha 90.000000
_cell_angle_beta 90.000000
_cell_angle_gamma 90.000000
_cell_volume 6410.899772
_symmetry_space_group_name_H-M "P 42/M N M"
_symmetry_group_IT_number 136
_symmetry_cell_setting 'tetragonal'
loop_
_space_group_symop_operation_xyz
x,y,z
1/2-y,1/2+x,1/2+z
-x,-y,z
1/2+y,1/2-x,1/2+z
1/2+x,1/2-y,1/2-z
1/2-x,1/2+y,1/2-z
y,x,-z
-y,-x,-z
-x,-y,-z
1/2+y,1/2-x,1/2-z
x,y,-z
1/2-y,1/2+x,1/2-z
1/2-x,1/2+y,1/2+z
1/2+x,1/2-y,1/2+z
-y,-x,z
y,x,z
loop_
_atom_site_type_symbol
_atom_site_label
_atom_site_fract_x
_atom_site_fract_y
_atom_site_fract_z
Si Si1 0.145636 0.465728 0.829462
Si Si2 0.121683 0.566758 0.667515
Si Si3 0.822360 0.900696 0.667427
Si Si4 0.541513 0.541513 0.828353
Si Si5 0.269501 0.088977 0.842168
Si Si6 0.530816 0.753536 0.663954
Si Si7 0.016358 0.844475 0.669468
O O1 0.122211 0.517873 0.769793
O O2 0.102317 0.425100 0.793985
O O3 0.197946 0.447795 0.752552
O O4 0.156362 0.470937 0.000000
O O5 0.121066 0.548744 0.500000
O O6 0.172216 0.600084 0.698264
O O7 0.818292 0.891206 0.500000
O O8 0.865051 0.865051 0.737802
O O9 0.767888 0.884384 0.730034
O O10 0.838304 0.957421 0.704049
O O11 0.500000 0.500000 0.767750
O O12 0.530138 0.598928 0.775191
O O13 0.538776 0.538776 0.000000
O O14 0.260446 0.029051 0.838160
O O15 0.256665 0.110762 0.000000
O O16 0.552656 0.752966 0.500000
O O17 0.545859 0.700147 0.742833
O O18 0.028817 0.837932 0.500000
#
# Coordination Sequence:
#
# PCOD8317853 Si02
#       7
#    16  16  16   8  16  16  16
#     4  10  19  31  49  70  92 121 154 187 224 272
#     4   9  19  33  46  66  96 123 149 186 226 266
#     4   9  16  25  39  62  89 114 143 182 224 266
#     4   9  16  26  43  69  99 129 159 195 237 279
#     4   8  15  28  43  59  83 113 143 177 217 262
#     4   9  17  30  46  64  88 116 150 192 230 264
#     4   9  16  27  44  65  90 122 158 190 224 272
#
# _framework density 16.222372
#
# number of rings (size 3 to 8) (size 9 to 14) (size 15 to 20)
#    0.000    3.000    0.000    2.308    0.000    7.385 
#    0.000    1.923    0.000    1.846    2.000    0.000 
#    0.000    0.000    0.000    0.000    0.000    0.000 
#
# Total GULP energy -1288798.650675 kJ/mol
# GULP energy per Si atom -12392.294718 kJ/mol
# Density = 1.618545 g / cm^3
# Si number density = 16.222372 Si / 1000 Ang^3
#
#
#
# Elastic Constant Matrix: (Units=GPa)
#
#
# Indices 1 2 3 4 5 6 
#
# 1 98.0175 39.3661 46.0322 0.0000 0.0000 0.0000
# 2 39.3661 98.0175 46.0322 0.0000 0.0000 0.0000
# 3 46.0322 46.0322 62.3912 0.0000 0.0000 0.0000
# 4 0.0000 0.0000 0.0000 20.3307 0.0000 0.0000
# 5 0.0000 0.0000 0.0000 0.0000 20.3307 0.0000
# 6 0.0000 0.0000 0.0000 0.0000 0.0000 13.0026
#
#
#
# Elastic Compliance Matrix: (Units=1/GPa)
#
#
# Indices 1 2 3 4 5 6 
#
# 1 0.015723 -0.001326 -0.010622 0.000000 0.000000 0.000000
# 2 -0.001326 0.015723 -0.010622 0.000000 0.000000 0.000000
# 3 -0.010622 -0.010622 0.031702 0.000000 0.000000 0.000000
# 4 0.000000 0.000000 0.000000 0.049187 0.000000 0.000000
# 5 0.000000 0.000000 0.000000 0.000000 0.049187 0.000000
# 6 0.000000 0.000000 0.000000 0.000000 0.000000 0.076908
#
#
# Mechanical properties :
#
#
# Convention : Reuss Voigt Hill
#
# Bulk Modulus (GPa) = 55.53249 57.92080 56.72664
# Shear Modulus (GPa) = 17.26673 19.19917 18.23295
#
# Velocity S-wave (km/s) = 3.26602 3.44394 3.35616
# Velocity P-wave (km/s) = 6.96627 7.18304 7.07548
#
# Compressibility (1/GPa) = 0.01800748
#
# Stress axis : x y z
#
# Youngs Moduli (GPa) = 63.59915 63.59915 31.54379
#
# Poissons Ratio (x) = 0.08436 0.33506
# Poissons Ratio (y) = 0.08436 0.33506
# Poissons Ratio (z) = 0.67556 0.67556
#
# Static dielectric constant tensor:
#      x y z
#    x 3.217720 0.000000 0.000000 
#    y 0.000000 3.217720 0.000000 
#    z 0.000000 0.000000 3.136330 
# 
# 
# High freq. dielectric constant tensor:
#      x y z
#    x 1.606220 0.000000 0.000000 
#    y 0.000000 1.606220 0.000000 
#    z 0.000000 0.000000 1.621500 
# 
# From -- ./inp_files/2211.got.cif
#   From: 2010.03.12/outbox.cif.g09.slc.cpg/sg136_2_cif.got.tgz:2211.got - 2010.04.06 18:39:43.
