data_PCOD8317773
_publ_section_title
;
Structure prediction by ZEFSAII (Michael W. Deem and Ramdas Pophale) SiO2 
 PCOD8317773
Probable space group: P 42/M N M
;
_chemical_formula_sum "Si O2"
_cell_formula_units_Z 96
_cell_length_a 24.337724
_cell_length_b 24.337724
_cell_length_c 8.670409
_cell_angle_alpha 90.000000
_cell_angle_beta 90.000000
_cell_angle_gamma 90.000000
_cell_volume 5135.698359
_symmetry_space_group_name_H-M "P 42/M N M"
_symmetry_group_IT_number 136
_symmetry_cell_setting 'tetragonal'
loop_
_space_group_symop_operation_xyz
x,y,z
1/2-y,1/2+x,1/2+z
-x,-y,z
1/2+y,1/2-x,1/2+z
1/2+x,1/2-y,1/2-z
1/2-x,1/2+y,1/2-z
y,x,-z
-y,-x,-z
-x,-y,-z
1/2+y,1/2-x,1/2-z
x,y,-z
1/2-y,1/2+x,1/2-z
1/2-x,1/2+y,1/2+z
1/2+x,1/2-y,1/2+z
-y,-x,z
y,x,z
loop_
_atom_site_type_symbol
_atom_site_label
_atom_site_fract_x
_atom_site_fract_y
_atom_site_fract_z
Si Si1 0.732399 0.353065 0.183300
Si Si2 0.056875 0.858736 0.818991
Si Si3 0.647989 0.143583 0.816245
Si Si4 0.771630 0.141633 0.816775
Si Si5 0.941603 0.439442 0.683886
Si Si6 0.941492 0.852316 0.673736
O O1 0.704227 0.295774 0.242978
O O2 0.794155 0.363461 0.239994
O O3 0.696239 0.404058 0.243015
O O4 0.730577 0.351305 0.000000
O O5 0.085874 0.914127 0.753961
O O6 0.089439 0.805806 0.753824
O O7 0.993938 0.857592 0.778720
O O8 0.063181 0.857556 0.000000
O O9 0.709862 0.133231 0.755700
O O10 0.606378 0.102382 0.732923
O O11 0.641724 0.136652 0.000000
O O12 0.801823 0.198178 0.760284
O O13 0.769086 0.143774 0.000000
O O14 0.923061 0.498549 0.750381
O O15 0.944799 0.443022 0.500000
O O16 0.959759 0.838499 0.500000
O O17 0.909590 0.909590 0.679291
#
# Coordination Sequence:
#
# PCOD8317773 Si02
#       6
#    16  16  16  16  16  16
#     4   8  15  29  50  76 105 137 173 211 248 293
#     4   9  18  32  48  68  96 129 167 210 252 294
#     4  10  18  31  56  85 107 133 170 207 248 301
#     4   8  15  29  50  76 105 137 173 211 248 293
#     4  11  23  41  60  78 104 135 169 210 257 306
#     4   9  18  32  48  68  96 129 167 210 252 294
#
# _framework density 18.692686999999999
#
# number of rings (size 3 to 8) (size 9 to 14) (size 15 to 20)
#    0.000    2.833    0.000    4.500    0.000    4.333 
#    0.000    6.667    0.000    4.000    0.000    0.000 
#    0.000    0.000    0.000    0.000    0.000    0.000 
#
# Total GULP energy -1189596.101009 kJ/mol
# GULP energy per Si atom -12391.626052 kJ/mol
# Density = 1.865014 g / cm^3
# Si number density = 18.692687 Si / 1000 Ang^3
#
#
#
# Elastic Constant Matrix: (Units=GPa)
#
#
# Indices 1 2 3 4 5 6 
#
# 1 145.4429 80.2094 31.9559 0.0000 0.0000 0.0000
# 2 80.2094 145.4429 31.9559 0.0000 0.0000 0.0000
# 3 31.9559 31.9559 50.8748 0.0000 0.0000 0.0000
# 4 0.0000 0.0000 0.0000 22.0273 0.0000 0.0000
# 5 0.0000 0.0000 0.0000 0.0000 22.0273 0.0000
# 6 0.0000 0.0000 0.0000 0.0000 0.0000 27.6669
#
#
#
# Elastic Compliance Matrix: (Units=1/GPa)
#
#
# Indices 1 2 3 4 5 6 
#
# 1 0.010360 -0.004969 -0.003386 0.000000 0.000000 0.000000
# 2 -0.004969 0.010360 -0.003386 0.000000 0.000000 0.000000
# 3 -0.003386 -0.003386 0.023910 0.000000 0.000000 0.000000
# 4 0.000000 0.000000 0.000000 0.045398 0.000000 0.000000
# 5 0.000000 0.000000 0.000000 0.000000 0.045398 0.000000
# 6 0.000000 0.000000 0.000000 0.000000 0.000000 0.036144
#
#
# Mechanical properties :
#
#
# Convention : Reuss Voigt Hill
#
# Bulk Modulus (GPa) = 47.28801 70.00035 58.64418
# Shear Modulus (GPa) = 24.73993 27.52027 26.13010
#
# Velocity S-wave (km/s) = 3.64195 3.84115 3.74288
# Velocity P-wave (km/s) = 6.56031 7.56319 7.07953
#
# Compressibility (1/GPa) = 0.02114701
#
# Stress axis : x y z
#
# Youngs Moduli (GPa) = 96.52429 96.52429 41.82387
#
# Poissons Ratio (x) = 0.47967 0.14162
# Poissons Ratio (y) = 0.47967 0.14162
# Poissons Ratio (z) = 0.32683 0.32683
#
# Static dielectric constant tensor:
#      x y z
#    x 3.631260 0.000000 0.000000 
#    y 0.000000 3.631260 0.000000 
#    z 0.000000 0.000000 3.003690 
# 
# 
# High freq. dielectric constant tensor:
#      x y z
#    x 1.732900 0.000000 0.000000 
#    y 0.000000 1.732900 0.000000 
#    z 0.000000 0.000000 1.683970 
# 
# From -- ./inp_files/1996.got.cif
#   From: 2010.03.12/outbox.cif.g09.slc.cpg/sg136_1_cif.got.tgz:1996.got - 2010.04.06 18:39:43.
