data_PCOD8317667
_publ_section_title
;
Structure prediction by ZEFSAII (Michael W. Deem and Ramdas Pophale) SiO2 
 PCOD8317667
Probable space group: P 42/M B C
;
_chemical_formula_sum "Si O2"
_cell_formula_units_Z 96
_cell_length_a 15.271867
_cell_length_b 15.271867
_cell_length_c 19.266376
_cell_angle_alpha 90.000000
_cell_angle_beta 90.000000
_cell_angle_gamma 90.000000
_cell_volume 4493.495365
_symmetry_space_group_name_H-M "P 42/M B C"
_symmetry_group_IT_number 135
_symmetry_cell_setting 'tetragonal'
loop_
_space_group_symop_operation_xyz
x,y,z
-y,x,1/2+z
-x,-y,z
y,-x,1/2+z
1/2+x,1/2-y,-z
1/2-x,1/2+y,-z
1/2+y,1/2+x,1/2-z
1/2-y,1/2-x,1/2-z
-x,-y,-z
y,-x,1/2-z
x,y,-z
-y,x,1/2-z
1/2-x,1/2+y,z
1/2+x,1/2-y,z
1/2-y,1/2-x,1/2+z
1/2+y,1/2+x,1/2+z
loop_
_atom_site_type_symbol
_atom_site_label
_atom_site_fract_x
_atom_site_fract_y
_atom_site_fract_z
Si Si1 0.628926 0.134716 0.828174
Si Si2 0.821846 0.342910 0.825171
Si Si3 0.352473 0.518085 0.577828
Si Si4 0.856559 0.473419 0.578067
Si Si5 0.128106 0.158204 0.180817
Si Si6 0.677772 0.634630 0.165699
O O1 0.604797 0.104797 0.750000
O O2 0.555839 0.100054 0.881906
O O3 0.631749 0.238831 0.831872
O O4 0.724746 0.097264 0.850103
O O5 0.864423 0.364423 0.750000
O O6 0.883579 0.384778 0.883972
O O7 0.724294 0.383209 0.833489
O O8 0.815685 0.238739 0.829176
O O9 0.387678 0.502349 0.500000
O O10 0.247924 0.520482 0.578710
O O11 0.386413 0.440146 0.627716
O O12 0.392122 0.609977 0.605453
O O13 0.893383 0.472341 0.500000
O O14 0.098396 0.141892 0.260420
#
# Coordination Sequence:
#
# PCOD8317667 Si02
#       6
#    16  16  16  16  16  16
#     4   8  14  25  40  59  87 123 160 196 234 281
#     4   8  14  25  40  59  87 123 160 196 234 281
#     4   9  16  24  38  65  95 120 153 197 242 288
#     4   9  16  24  38  65  95 120 153 197 242 288
#     4   8  14  25  40  59  87 123 160 196 234 281
#     4   8  14  25  40  59  87 123 160 196 234 281
#
# _framework density 21.364215000000002
#
# number of rings (size 3 to 8) (size 9 to 14) (size 15 to 20)
#    0.000    3.667    0.000    2.000    0.000    1.333 
#    0.000    6.667    0.000    1.000    0.000    4.667 
#    0.000   13.333    0.000    1.333    0.000    0.000 
#
# Total GULP energy -1189664.811609 kJ/mol
# GULP energy per Si atom -12392.341788 kJ/mol
# Density = 2.131559 g / cm^3
# Si number density = 21.364215 Si / 1000 Ang^3
#
#
#
# Elastic Constant Matrix: (Units=GPa)
#
#
# Indices 1 2 3 4 5 6 
#
# 1 47.5830 8.0722 38.1057 0.0000 0.0000 0.0000
# 2 8.0722 47.5830 38.1057 0.0000 0.0000 0.0000
# 3 38.1057 38.1057 166.8357 0.0000 0.0000 0.0000
# 4 0.0000 0.0000 0.0000 11.2175 0.0000 0.0000
# 5 0.0000 0.0000 0.0000 0.0000 11.2175 0.0000
# 6 0.0000 0.0000 0.0000 0.0000 0.0000 2.5832
#
#
#
# Elastic Compliance Matrix: (Units=1/GPa)
#
#
# Indices 1 2 3 4 5 6 
#
# 1 0.025727 0.000418 -0.005972 0.000000 0.000000 0.000000
# 2 0.000418 0.025727 -0.005972 0.000000 0.000000 0.000000
# 3 -0.005972 -0.005972 0.008722 0.000000 0.000000 0.000000
# 4 0.000000 0.000000 0.000000 0.089146 0.000000 0.000000
# 5 0.000000 0.000000 0.000000 0.000000 0.089146 0.000000
# 6 0.000000 0.000000 0.000000 0.000000 0.000000 0.387118
#
#
# Mechanical properties :
#
#
# Convention : Reuss Voigt Hill
#
# Bulk Modulus (GPa) = 26.93575 47.84098 37.38837
# Shear Modulus (GPa) = 7.56414 16.85151 12.20782
#
# Velocity S-wave (km/s) = 1.88368 2.81156 2.39302
# Velocity P-wave (km/s) = 4.16728 5.74295 5.01736
#
# Compressibility (1/GPa) = 0.03712539
#
# Stress axis : x y z
#
# Youngs Moduli (GPa) = 38.86928 38.86928 114.65568
#
# Poissons Ratio (x) = -0.01624 0.68467
# Poissons Ratio (y) = -0.01624 0.68467
# Poissons Ratio (z) = 0.23211 0.23211
#
# Static dielectric constant tensor:
#      x y z
#    x 3.700620 0.000000 0.000000 
#    y 0.000000 3.700620 0.000000 
#    z 0.000000 0.000000 4.026060 
# 
# 
# High freq. dielectric constant tensor:
#      x y z
#    x 1.807930 0.000000 0.000000 
#    y 0.000000 1.807930 0.000000 
#    z 0.000000 0.000000 1.829400 
# 
# From -- ./inp_files/4494.got.cif
#   From: 2010.03.12/outbox.cif.g09.slc.cpg/sg135_3_cif.got.tgz:4494.got - 2010.04.06 18:31:24.
