data_PCOD8317982
_publ_section_title
;
Structure prediction by ZEFSAII (Michael W. Deem and Ramdas Pophale) SiO2 
 PCOD8317982
Probable space group: P 42/M N M
;
_chemical_formula_sum "Si O2"
_cell_formula_units_Z 96
_cell_length_a 28.616493
_cell_length_b 28.616493
_cell_length_c 9.192527
_cell_angle_alpha 90.000000
_cell_angle_beta 90.000000
_cell_angle_gamma 90.000000
_cell_volume 7527.794112
_symmetry_space_group_name_H-M "P 42/M N M"
_symmetry_group_IT_number 136
_symmetry_cell_setting 'tetragonal'
loop_
_space_group_symop_operation_xyz
x,y,z
1/2-y,1/2+x,1/2+z
-x,-y,z
1/2+y,1/2-x,1/2+z
1/2+x,1/2-y,1/2-z
1/2-x,1/2+y,1/2-z
y,x,-z
-y,-x,-z
-x,-y,-z
1/2+y,1/2-x,1/2-z
x,y,-z
1/2-y,1/2+x,1/2-z
1/2-x,1/2+y,1/2+z
1/2+x,1/2-y,1/2+z
-y,-x,z
y,x,z
loop_
_atom_site_type_symbol
_atom_site_label
_atom_site_fract_x
_atom_site_fract_y
_atom_site_fract_z
Si Si1 0.043562 0.879515 0.330674
Si Si2 0.551234 0.371319 0.331179
Si Si3 0.195161 0.883366 0.338710
Si Si4 0.242122 0.679075 0.664454
Si Si5 0.257316 0.821530 0.163263
Si Si6 0.384518 0.694136 0.164495
O O1 0.029289 0.878956 0.500000
O O2 0.076913 0.923088 0.297027
O O3 0.069385 0.830956 0.288219
O O4 0.998728 0.885597 0.230652
O O5 0.547399 0.358361 0.500000
O O6 0.584903 0.415098 0.305414
O O7 0.570232 0.325862 0.246778
O O8 0.216458 0.889972 0.500000
O O9 0.157537 0.842464 0.344299
O O10 0.236959 0.869702 0.229710
O O11 0.229496 0.664482 0.500000
O O12 0.281819 0.718181 0.664122
O O13 0.195726 0.698688 0.742255
O O14 0.259946 0.633622 0.751526
O O15 0.217774 0.782227 0.163658
O O16 0.274469 0.831744 0.000000
O O17 0.344196 0.655805 0.164196
O O18 0.398335 0.707876 0.000000
#
# Coordination Sequence:
#
# PCOD8317982 Si02
#       6
#    16  16  16  16  16  16
#     4   9  18  31  44  55  66  83 109 141 178 219
#     4  10  20  31  41  53  68  85 107 138 178 221
#     4   8  14  25  38  50  65  84 105 130 162 199
#     4   9  15  22  33  49  69  90 108 126 151 185
#     4   9  15  21  31  49  70  89 108 127 149 183
#     4   9  16  26  39  52  66  84 106 132 162 198
#
# _framework density 12.752739999999999
#
# number of rings (size 3 to 8) (size 9 to 14) (size 15 to 20)
#    0.000    3.000    0.000    3.000    0.000    8.333 
#    0.000    3.333    0.000    0.000    0.000    0.000 
#    0.000    0.000    0.000    0.000    0.000    0.000 
#
# Total GULP energy -1190078.502777 kJ/mol
# GULP energy per Si atom -12396.651071 kJ/mol
# Density = 1.272371 g / cm^3
# Si number density = 12.752740 Si / 1000 Ang^3
#
#
#
# Elastic Constant Matrix: (Units=GPa)
#
#
# Indices 1 2 3 4 5 6 
#
# 1 37.6614 37.3913 42.5501 0.0000 0.0000 0.0000
# 2 37.3913 37.6614 42.5501 0.0000 0.0000 0.0000
# 3 42.5501 42.5501 116.6892 0.0000 0.0000 0.0000
# 4 0.0000 0.0000 0.0000 19.7650 0.0000 0.0000
# 5 0.0000 0.0000 0.0000 0.0000 19.7650 0.0000
# 6 0.0000 0.0000 0.0000 0.0000 0.0000 11.6208
#
#
#
# Elastic Compliance Matrix: (Units=1/GPa)
#
#
# Indices 1 2 3 4 5 6 
#
# 1 1.862366 -1.839649 -0.008283 0.000000 0.000000 0.000000
# 2 -1.839649 1.862366 -0.008283 0.000000 0.000000 0.000000
# 3 -0.008283 -0.008283 0.014611 0.000000 0.000000 0.000000
# 4 0.000000 0.000000 0.000000 0.050594 0.000000 0.000000
# 5 0.000000 0.000000 0.000000 0.000000 0.050594 0.000000
# 6 0.000000 0.000000 0.000000 0.000000 0.000000 0.086052
#
#
# Mechanical properties :
#
#
# Convention : Reuss Voigt Hill
#
# Bulk Modulus (GPa) = 37.16123 48.55503 42.85813
# Shear Modulus (GPa) = 0.65377 14.86488 7.75932
#
# Velocity S-wave (km/s) = 0.71677 3.41782 2.46934
# Velocity P-wave (km/s) = 5.46700 7.33023 6.46608
#
# Compressibility (1/GPa) = 0.02690977
#
# Stress axis : x y z
#
# Youngs Moduli (GPa) = 0.53695 0.53695 68.44279
#
# Poissons Ratio (x) = 0.98780 0.56694
# Poissons Ratio (y) = 0.98780 0.56694
# Poissons Ratio (z) = 0.00445 0.00445
#
# Static dielectric constant tensor:
#      x y z
#    x 2.380450 0.000000 0.000000 
#    y 0.000000 2.380450 0.000000 
#    z 0.000000 0.000000 2.798900 
# 
# 
# High freq. dielectric constant tensor:
#      x y z
#    x 1.444850 0.000000 0.000000 
#    y 0.000000 1.444850 0.000000 
#    z 0.000000 0.000000 1.502790 
# 
# From -- ./inp_files/2166.got.cif
#   From: 2010.03.12/outbox.cif.g09.slc.cpg/sg136_2_cif.got.tgz:2166.got - 2010.04.06 18:39:43.
