data_PCOD8317680
_publ_section_title
;
Structure prediction by ZEFSAII (Michael W. Deem and Ramdas Pophale) SiO2 
 PCOD8317680
Probable space group: P 42/M N M
;
_chemical_formula_sum "Si O2"
_cell_formula_units_Z 104
_cell_length_a 26.373135
_cell_length_b 26.373135
_cell_length_c 8.711913
_cell_angle_alpha 90.000000
_cell_angle_beta 90.000000
_cell_angle_gamma 90.000000
_cell_volume 6059.503567
_symmetry_space_group_name_H-M "P 42/M N M"
_symmetry_group_IT_number 136
_symmetry_cell_setting 'tetragonal'
loop_
_space_group_symop_operation_xyz
x,y,z
1/2-y,1/2+x,1/2+z
-x,-y,z
1/2+y,1/2-x,1/2+z
1/2+x,1/2-y,1/2-z
1/2-x,1/2+y,1/2-z
y,x,-z
-y,-x,-z
-x,-y,-z
1/2+y,1/2-x,1/2-z
x,y,-z
1/2-y,1/2+x,1/2-z
1/2-x,1/2+y,1/2+z
1/2+x,1/2-y,1/2+z
-y,-x,z
y,x,z
loop_
_atom_site_type_symbol
_atom_site_label
_atom_site_fract_x
_atom_site_fract_y
_atom_site_fract_z
Si Si1 0.016078 0.747183 0.177268
Si Si2 0.195142 0.804859 0.819158
Si Si3 0.540308 0.459692 0.319962
Si Si4 0.854001 0.488829 0.819216
Si Si5 0.387341 0.907367 0.182344
Si Si6 0.218769 0.372548 0.681090
Si Si7 0.119159 0.880842 0.322662
Si Si8 0.639834 0.513839 0.678994
O O1 0.985887 0.705258 0.274513
O O2 0.075186 0.746965 0.227077
O O3 0.992976 0.803092 0.208403
O O4 0.011158 0.731435 0.000000
O O5 0.249073 0.824854 0.749137
O O6 0.153171 0.846830 0.787064
O O7 0.200743 0.799258 0.000000
O O8 0.500000 0.500000 0.246258
O O9 0.535014 0.464987 0.500000
O O10 0.528260 0.401705 0.271672
O O11 0.880982 0.438083 0.756361
O O12 0.883350 0.535829 0.745080
O O13 0.859042 0.492956 0.000000
O O14 0.339066 0.874237 0.242402
O O15 0.386421 0.910635 0.000000
O O16 0.218563 0.366699 0.500000
O O17 0.130866 0.869135 0.500000
O O18 0.061070 0.869631 0.287464
O O19 0.633759 0.529438 0.500000
#
# Coordination Sequence:
#
# PCOD8317680 Si02
#       8
#    16   8   8  16  16  16   8  16
#     4   9  17  30  49  69  94 124 157 196 236 288
#     4  10  16  28  49  70  91 123 164 198 237 288
#     4   9  16  26  48  71  86 116 169 218 238 266
#     4  10  20  33  52  74  99 127 157 198 240 288
#     4   9  19  35  50  71 101 129 160 196 239 289
#     4   8  14  26  47  70  90 116 152 193 230 274
#     4  12  22  27  39  68 102 129 154 200 251 295
#     4  10  18  32  49  66  91 128 169 204 241 287
#
# _framework density 17.163122999999999
#
# number of rings (size 3 to 8) (size 9 to 14) (size 15 to 20)
#    0.000    2.538    2.308    2.077    0.000    2.154 
#    0.000    2.308    0.000    0.923    0.000    1.077 
#    0.000    0.000    0.000    0.000    0.000    0.000 
#
# Total GULP energy -1288807.247560 kJ/mol
# GULP energy per Si atom -12392.377380 kJ/mol
# Density = 1.712406 g / cm^3
# Si number density = 17.163123 Si / 1000 Ang^3
#
#
#
# Elastic Constant Matrix: (Units=GPa)
#
#
# Indices 1 2 3 4 5 6 
#
# 1 126.4206 83.3257 15.2301 0.0000 0.0000 0.0000
# 2 83.3257 126.4207 15.2304 0.0000 0.0000 0.0000
# 3 15.2301 15.2304 17.8458 0.0000 0.0000 0.0000
# 4 0.0000 0.0000 0.0000 15.9256 0.0000 0.0000
# 5 0.0000 0.0000 0.0000 0.0000 15.9255 0.0000
# 6 0.0000 0.0000 0.0000 0.0000 0.0000 29.4905
#
#
#
# Elastic Compliance Matrix: (Units=1/GPa)
#
#
# Indices 1 2 3 4 5 6 
#
# 1 0.014323 -0.008881 -0.004644 0.000000 0.000000 0.000000
# 2 -0.008881 0.014323 -0.004645 0.000000 0.000000 0.000000
# 3 -0.004644 -0.004645 0.063963 0.000000 0.000000 0.000000
# 4 0.000000 0.000000 0.000000 0.062792 0.000000 0.000000
# 5 0.000000 0.000000 0.000000 0.000000 0.062792 0.000000
# 6 0.000000 0.000000 0.000000 0.000000 0.000000 0.033909
#
#
# Mechanical properties :
#
#
# Convention : Reuss Voigt Hill
#
# Bulk Modulus (GPa) = 17.77163 55.36215 36.56689
# Shear Modulus (GPa) = 16.27600 22.72838 19.50219
#
# Velocity S-wave (km/s) = 3.08281 3.64298 3.37454
# Velocity P-wave (km/s) = 4.80090 7.07259 6.04443
#
# Compressibility (1/GPa) = 0.05626946
#
# Stress axis : x y z
#
# Youngs Moduli (GPa) = 69.81599 69.81583 15.63396
#
# Poissons Ratio (x) = 0.62005 0.07261
# Poissons Ratio (y) = 0.62005 0.07262
# Poissons Ratio (z) = 0.32425 0.32427
#
# Static dielectric constant tensor:
#      x y z
#    x 3.395140 0.000000 0.000000 
#    y 0.000000 3.395130 0.000000 
#    z 0.000000 0.000000 2.902500 
# 
# 
# High freq. dielectric constant tensor:
#      x y z
#    x 1.651950 0.000000 0.000000 
#    y 0.000000 1.651950 0.000000 
#    z 0.000000 0.000000 1.634720 
# 
# From -- ./inp_files/2285.got.cif
#   From: 2010.03.12/outbox.cif.g09.slc.cpg/sg136_2_cif.got.tgz:2285.got - 2010.04.06 18:39:43.
