data_PCOD8317588
_publ_section_title
;
Structure prediction by ZEFSAII (Michael W. Deem and Ramdas Pophale) SiO2 
 PCOD8317588
Probable space group: P 42/M B C
;
_chemical_formula_sum "Si O2"
_cell_formula_units_Z 64
_cell_length_a 14.080666
_cell_length_b 14.080666
_cell_length_c 17.077994
_cell_angle_alpha 90.000000
_cell_angle_beta 90.000000
_cell_angle_gamma 90.000000
_cell_volume 3385.971128
_symmetry_space_group_name_H-M "P 42/M B C"
_symmetry_group_IT_number 135
_symmetry_cell_setting 'tetragonal'
loop_
_space_group_symop_operation_xyz
x,y,z
-y,x,1/2+z
-x,-y,z
y,-x,1/2+z
1/2+x,1/2-y,-z
1/2-x,1/2+y,-z
1/2+y,1/2+x,1/2-z
1/2-y,1/2-x,1/2-z
-x,-y,-z
y,-x,1/2-z
x,y,-z
-y,x,1/2-z
1/2-x,1/2+y,z
1/2+x,1/2-y,z
1/2-y,1/2-x,1/2+z
1/2+y,1/2+x,1/2+z
loop_
_atom_site_type_symbol
_atom_site_label
_atom_site_fract_x
_atom_site_fract_y
_atom_site_fract_z
Si Si1 0.058326 0.727754 0.409020
Si Si2 0.580468 0.829970 0.821342
Si Si3 0.085999 0.427261 0.414708
Si Si4 0.356901 0.555333 0.766363
O O1 0.065606 0.756399 0.500000
O O2 0.146954 0.658016 0.388641
O O3 0.060564 0.822359 0.356532
O O4 0.958449 0.674050 0.389624
O O5 0.596020 0.903981 0.750000
O O6 0.471663 0.840162 0.852481
O O7 0.595867 0.723378 0.791533
O O8 0.135612 0.417248 0.500000
O O9 0.000000 0.500000 0.421840
O O10 0.447752 0.621377 0.757487
#
# Coordination Sequence:
#
# PCOD8317588 Si02
#       4
#    16  16  16  16
#     4   9  18  36  58  83 113 138 175 234 286 322
#     4   9  17  31  54  82 107 139 178 229 274 321
#     4   8  14  27  50  80 110 135 162 211 279 332
#     4  10  22  40  55  73 109 157 194 217 259 329
#
# _framework density 18.901520000000001
#
# number of rings (size 3 to 8) (size 9 to 14) (size 15 to 20)
#    0.000    3.000    0.000    2.250    0.000   11.500 
#   13.500    7.500    0.000    0.000    0.000    0.000 
#    0.000    0.000    0.000    0.000    0.000    0.000 
#
# Total GULP energy -793141.228994 kJ/mol
# GULP energy per Si atom -12392.831703 kJ/mol
# Density = 1.885850 g / cm^3
# Si number density = 18.901520 Si / 1000 Ang^3
#
#
#
# Elastic Constant Matrix: (Units=GPa)
#
#
# Indices 1 2 3 4 5 6 
#
# 1 76.9325 24.5962 47.4415 0.0000 0.0000 0.0000
# 2 24.5962 76.9319 47.4416 0.0000 0.0000 0.0000
# 3 47.4415 47.4416 121.0789 0.0000 0.0000 0.0000
# 4 0.0000 0.0000 0.0000 15.3368 0.0000 0.0000
# 5 0.0000 0.0000 0.0000 0.0000 15.3369 0.0000
# 6 0.0000 0.0000 0.0000 0.0000 0.0000 18.5004
#
#
#
# Elastic Compliance Matrix: (Units=1/GPa)
#
#
# Indices 1 2 3 4 5 6 
#
# 1 0.017323 -0.001784 -0.006089 0.000000 0.000000 0.000000
# 2 -0.001784 0.017324 -0.006089 0.000000 0.000000 0.000000
# 3 -0.006089 -0.006089 0.013031 0.000000 0.000000 0.000000
# 4 0.000000 0.000000 0.000000 0.065203 0.000000 0.000000
# 5 0.000000 0.000000 0.000000 0.000000 0.065202 0.000000
# 6 0.000000 0.000000 0.000000 0.000000 0.000000 0.054053
#
#
# Mechanical properties :
#
#
# Convention : Reuss Voigt Hill
#
# Bulk Modulus (GPa) = 50.62074 57.10020 53.86047
# Shear Modulus (GPa) = 18.75165 20.19909 19.47537
#
# Velocity S-wave (km/s) = 3.15313 3.27257 3.21340
# Velocity P-wave (km/s) = 6.33212 6.67491 6.50578
#
# Compressibility (1/GPa) = 0.01975475
#
# Stress axis : x y z
#
# Youngs Moduli (GPa) = 57.72525 57.72460 76.74252
#
# Poissons Ratio (x) = 0.10297 0.46727
# Poissons Ratio (y) = 0.10297 0.46728
# Poissons Ratio (z) = 0.35148 0.35148
#
# Static dielectric constant tensor:
#      x y z
#    x 3.292480 0.000000 0.000000 
#    y 0.000000 3.292480 0.000000 
#    z 0.000000 0.000000 3.689620 
# 
# 
# High freq. dielectric constant tensor:
#      x y z
#    x 1.705620 0.000000 0.000000 
#    y 0.000000 1.705620 0.000000 
#    z 0.000000 0.000000 1.743920 
# 
# From -- ./inp_files/3154.got.cif
#   From: 2010.03.12/outbox.cif.g09.slc.cpg/sg135_2_cif.got.tgz:3154.got - 2010.04.06 18:31:24.
