data_PCOD8317812
_publ_section_title
;
Structure prediction by ZEFSAII (Michael W. Deem and Ramdas Pophale) SiO2 
 PCOD8317812
Probable space group: P 42/M N M
;
_chemical_formula_sum "Si O2"
_cell_formula_units_Z 52
_cell_length_a 14.875177
_cell_length_b 14.875177
_cell_length_c 13.320774
_cell_angle_alpha 90.000000
_cell_angle_beta 90.000000
_cell_angle_gamma 90.000000
_cell_volume 2947.499529
_symmetry_space_group_name_H-M "P 42/M N M"
_symmetry_group_IT_number 136
_symmetry_cell_setting 'tetragonal'
loop_
_space_group_symop_operation_xyz
x,y,z
1/2-y,1/2+x,1/2+z
-x,-y,z
1/2+y,1/2-x,1/2+z
1/2+x,1/2-y,1/2-z
1/2-x,1/2+y,1/2-z
y,x,-z
-y,-x,-z
-x,-y,-z
1/2+y,1/2-x,1/2-z
x,y,-z
1/2-y,1/2+x,1/2-z
1/2-x,1/2+y,1/2+z
1/2+x,1/2-y,1/2+z
-y,-x,z
y,x,z
loop_
_atom_site_type_symbol
_atom_site_label
_atom_site_fract_x
_atom_site_fract_y
_atom_site_fract_z
Si Si1 0.618363 0.876818 0.116191
Si Si2 0.689321 0.310679 0.617595
Si Si3 0.427204 0.572796 0.744568
Si Si4 0.687008 0.542840 0.112089
Si Si5 0.500000 0.000000 0.250000
O O1 0.714703 0.844421 0.160276
O O2 0.550787 0.793280 0.126352
O O3 0.578878 0.958938 0.180726
O O4 0.626884 0.907933 0.000000
O O5 0.699450 0.300551 0.500000
O O6 0.614958 0.385043 0.644884
O O7 0.500000 0.500000 0.710075
O O8 0.470759 0.651408 0.809740
O O9 0.639791 0.639791 0.129184
O O10 0.664656 0.508329 0.000000
#
# Coordination Sequence:
#
# PCOD8317812 Si02
#       5
#    16   8   8  16   4
#     4  10  20  35  53  72  99 135 169 199 243 299
#     4  10  20  36  53  67  94 137 171 193 233 301
#     4  10  19  29  48  79 102 119 157 208 249 279
#     4   9  16  30  51  74 100 129 159 195 240 292
#     4  12  22  32  52  82 104 120 162 224 256 274
#
# _framework density 17.642071999999999
#
# number of rings (size 3 to 8) (size 9 to 14) (size 15 to 20)
#    0.000    2.154    1.538    2.769    0.000    2.154 
#    0.000    0.000    0.000    0.000    0.000    0.000 
#    0.000    0.000    0.000    0.000    0.000    0.000 
#
# Total GULP energy -644717.664736 kJ/mol
# GULP energy per Si atom -12398.416630 kJ/mol
# Density = 1.760192 g / cm^3
# Si number density = 17.642072 Si / 1000 Ang^3
#
#
#
# Elastic Constant Matrix: (Units=GPa)
#
#
# Indices 1 2 3 4 5 6 
#
# 1 80.0553 41.6365 32.0298 0.0000 0.0000 0.0000
# 2 41.6365 80.0552 32.0297 0.0000 0.0000 0.0000
# 3 32.0298 32.0297 38.2740 0.0000 0.0000 0.0000
# 4 0.0000 0.0000 0.0000 -107.8030 0.0000 0.0000
# 5 0.0000 0.0000 0.0000 0.0000 -107.8185 0.0000
# 6 0.0000 0.0000 0.0000 0.0000 0.0000 29.7421
#
#
#
# Elastic Compliance Matrix: (Units=1/GPa)
#
#
# Indices 1 2 3 4 5 6 
#
# 1 0.020358 -0.005671 -0.012292 0.000000 0.000000 0.000000
# 2 -0.005671 0.020358 -0.012292 0.000000 0.000000 0.000000
# 3 -0.012292 -0.012292 0.046700 0.000000 0.000000 0.000000
# 4 0.000000 0.000000 0.000000 -0.009276 0.000000 0.000000
# 5 0.000000 0.000000 0.000000 0.000000 -0.009275 0.000000
# 6 0.000000 0.000000 0.000000 0.000000 0.000000 0.033622
#
#
# Mechanical properties :
#
#
# Convention : Reuss Voigt Hill
#
# Bulk Modulus (GPa) = 37.16188 45.53074 41.34631
# Shear Modulus (GPa) = 29.07553 -30.99665 -0.96056
#
# Velocity S-wave (km/s) = 4.06406 -4.19617 -0.73868
# Velocity P-wave (km/s) = 6.56751 1.54496 4.77070
#
# Compressibility (1/GPa) = 0.02690930
#
# Stress axis : x y z
#
# Youngs Moduli (GPa) = 49.11960 49.11969 21.41321
#
# Poissons Ratio (x) = 0.27853 0.26321
# Poissons Ratio (y) = 0.27853 0.26320
# Poissons Ratio (z) = 0.60376 0.60376
#
# Static dielectric constant tensor:
#      x y z
#    x 3.211280 0.000000 0.000000 
#    y 0.000000 3.211280 0.000000 
#    z 0.000000 0.000000 3.084560 
# 
# 
# High freq. dielectric constant tensor:
#      x y z
#    x 1.679800 0.000000 0.000000 
#    y 0.000000 1.679800 0.000000 
#    z 0.000000 0.000000 1.665620 
# 
# From -- ./inp_files/3131.got.cif
#   From: 2010.03.12/outbox.cif.g09.slc.cpg/sg136_2_cif.got.tgz:3131.got - 2010.04.06 18:39:43.
