data_PCOD8317498
_publ_section_title
;
Structure prediction by ZEFSAII (Michael W. Deem and Ramdas Pophale) SiO2 
 PCOD8317498
Probable space group: P 42/M B C
;
_chemical_formula_sum "Si O2"
_cell_formula_units_Z 112
_cell_length_a 14.788466
_cell_length_b 14.788466
_cell_length_c 27.374126
_cell_angle_alpha 90.000000
_cell_angle_beta 90.000000
_cell_angle_gamma 90.000000
_cell_volume 5986.686499
_symmetry_space_group_name_H-M "P 42/M B C"
_symmetry_group_IT_number 135
_symmetry_cell_setting 'tetragonal'
loop_
_space_group_symop_operation_xyz
x,y,z
-y,x,1/2+z
-x,-y,z
y,-x,1/2+z
1/2+x,1/2-y,-z
1/2-x,1/2+y,-z
1/2+y,1/2+x,1/2-z
1/2-y,1/2-x,1/2-z
-x,-y,-z
y,-x,1/2-z
x,y,-z
-y,x,1/2-z
1/2-x,1/2+y,z
1/2+x,1/2-y,z
1/2-y,1/2-x,1/2+z
1/2+y,1/2+x,1/2+z
loop_
_atom_site_type_symbol
_atom_site_label
_atom_site_fract_x
_atom_site_fract_y
_atom_site_fract_z
Si Si1 0.825473 0.245499 0.556661
Si Si2 0.545470 0.640347 0.694750
Si Si3 0.054592 0.229854 0.055283
Si Si4 0.122160 0.814312 0.896807
Si Si5 0.579562 0.067607 0.055913
Si Si6 0.963034 0.141057 0.198018
Si Si7 0.755473 0.012071 0.102742
O O1 0.799217 0.258437 0.500000
O O2 0.792038 0.150997 0.579936
O O3 0.774416 0.324442 0.586119
O O4 0.933629 0.246872 0.562020
O O5 0.553553 0.685708 0.748600
O O6 0.457595 0.579165 0.696577
O O7 0.629895 0.570858 0.684873
O O8 0.535664 0.720490 0.654655
O O9 0.033570 0.335171 0.061781
O O10 0.972517 0.171788 0.075835
O O11 0.065416 0.199126 0.000000
O O12 0.093308 0.798528 0.840429
O O13 0.174417 0.907501 0.907956
O O14 0.656292 0.056215 0.097543
O O15 0.500000 0.000000 0.067959
O O16 0.616824 0.055746 0.000000
#
# Coordination Sequence:
#
# PCOD8317498 Si02
#       7
#    16  16  16  16  16  16  16
#     4  11  23  36  51  80 115 145 188 240 285 334
#     4   8  15  30  54  86 115 143 184 234 290 341
#     4  10  21  35  51  76 113 146 180 235 284 329
#     4  11  21  36  58  81 110 151 192 231 286 345
#     4  10  20  36  55  76 107 155 199 227 273 341
#     4   8  15  30  54  83 118 149 178 230 291 346
#     4  11  21  35  59  83 109 146 192 239 283 342
#
# _framework density 18.708176999999999
#
# number of rings (size 3 to 8) (size 9 to 14) (size 15 to 20)
#    0.000    2.143    1.429    3.429    0.000    4.571 
#    0.000    2.143    0.000    0.857    0.000    1.000 
#    0.000    0.000    0.000    0.000    0.000    0.000 
#
# Total GULP energy -1387750.391739 kJ/mol
# GULP energy per Si atom -12390.628498 kJ/mol
# Density = 1.866560 g / cm^3
# Si number density = 18.708177 Si / 1000 Ang^3
#
#
#
# Elastic Constant Matrix: (Units=GPa)
#
#
# Indices 1 2 3 4 5 6 
#
# 1 80.3811 26.4731 47.9895 0.0000 0.0000 0.0000
# 2 26.4731 80.3811 47.9895 0.0000 0.0000 0.0000
# 3 47.9895 47.9895 94.6536 0.0000 0.0000 0.0000
# 4 0.0000 0.0000 0.0000 21.7989 0.0000 0.0000
# 5 0.0000 0.0000 0.0000 0.0000 21.7989 0.0000
# 6 0.0000 0.0000 0.0000 0.0000 0.0000 30.0495
#
#
#
# Elastic Compliance Matrix: (Units=1/GPa)
#
#
# Indices 1 2 3 4 5 6 
#
# 1 0.017867 -0.000683 -0.008712 0.000000 0.000000 0.000000
# 2 -0.000683 0.017867 -0.008712 0.000000 0.000000 0.000000
# 3 -0.008712 -0.008712 0.019399 0.000000 0.000000 0.000000
# 4 0.000000 0.000000 0.000000 0.045874 0.000000 0.000000
# 5 0.000000 0.000000 0.000000 0.000000 0.045874 0.000000
# 6 0.000000 0.000000 0.000000 0.000000 0.000000 0.033278
#
#
# Mechanical properties :
#
#
# Convention : Reuss Voigt Hill
#
# Bulk Modulus (GPa) = 52.85960 55.59111 54.22536
# Shear Modulus (GPa) = 22.45359 23.59371 23.02365
#
# Velocity S-wave (km/s) = 3.46815 3.55511 3.51190
# Velocity P-wave (km/s) = 6.65985 6.82870 6.74480
#
# Compressibility (1/GPa) = 0.01891804
#
# Stress axis : x y z
#
# Youngs Moduli (GPa) = 55.96848 55.96848 51.54826
#
# Poissons Ratio (x) = 0.03822 0.44911
# Poissons Ratio (y) = 0.03822 0.44911
# Poissons Ratio (z) = 0.48762 0.48762
#
# Static dielectric constant tensor:
#      x y z
#    x 3.348660 0.000000 0.000000 
#    y 0.000000 3.348660 0.000000 
#    z 0.000000 0.000000 3.788780 
# 
# 
# High freq. dielectric constant tensor:
#      x y z
#    x 1.717000 0.000000 0.000000 
#    y 0.000000 1.717000 0.000000 
#    z 0.000000 0.000000 1.713780 
# 
# From -- ./inp_files/6525.got.cif
#   From: 2010.03.12/outbox.cif.g09.slc.cpg/sg135_4_cif.got.tgz:6525.got - 2010.04.06 18:31:24.
