data_PCOD8317979
_publ_section_title
;
Structure prediction by ZEFSAII (Michael W. Deem and Ramdas Pophale) SiO2 
 PCOD8317979
Probable space group: P 42/M N M
;
_chemical_formula_sum "Si O2"
_cell_formula_units_Z 72
_cell_length_a 19.718888
_cell_length_b 19.718888
_cell_length_c 8.552932
_cell_angle_alpha 90.000000
_cell_angle_beta 90.000000
_cell_angle_gamma 90.000000
_cell_volume 3325.675414
_symmetry_space_group_name_H-M "P 42/M N M"
_symmetry_group_IT_number 136
_symmetry_cell_setting 'tetragonal'
loop_
_space_group_symop_operation_xyz
x,y,z
1/2-y,1/2+x,1/2+z
-x,-y,z
1/2+y,1/2-x,1/2+z
1/2+x,1/2-y,1/2-z
1/2-x,1/2+y,1/2-z
y,x,-z
-y,-x,-z
-x,-y,-z
1/2+y,1/2-x,1/2-z
x,y,-z
1/2-y,1/2+x,1/2-z
1/2-x,1/2+y,1/2+z
1/2+x,1/2-y,1/2+z
-y,-x,z
y,x,z
loop_
_atom_site_type_symbol
_atom_site_label
_atom_site_fract_x
_atom_site_fract_y
_atom_site_fract_z
Si Si1 0.263891 0.843409 0.814550
Si Si2 0.511944 0.096711 0.322319
Si Si3 0.053723 0.946278 0.814540
Si Si4 0.514703 0.702927 0.314811
Si Si5 0.590925 0.211226 0.183361
O O1 0.202585 0.797416 0.747455
O O2 0.253379 0.922133 0.765080
O O3 0.334490 0.808985 0.753277
O O4 0.263865 0.838896 0.000000
O O5 0.485910 0.091844 0.500000
O O6 0.451791 0.076208 0.206173
O O7 0.534246 0.171268 0.281707
O O8 0.128641 0.964635 0.755899
O O9 0.052347 0.947654 0.000000
O O10 0.000000 0.000000 0.745100
O O11 0.503279 0.705706 0.500000
O O12 0.441330 0.715874 0.227821
O O13 0.587386 0.196825 0.000000
#
# Coordination Sequence:
#
# PCOD8317979 Si02
#       5
#    16  16   8  16  16
#     4   9  18  35  58  80 105 149 203 244 286 356
#     4  11  21  35  54  78 113 153 195 238 289 348
#     4   9  18  34  61  93 117 145 195 260 319 378
#     4  10  19  36  61  84 113 154 201 247 305 374
#     4  11  22  34  53  83 116 148 193 248 301 358
#
# _framework density 21.649736999999998
#
# number of rings (size 3 to 8) (size 9 to 14) (size 15 to 20)
#    0.000    1.889    1.111    4.667    0.000    2.667 
#    0.000    1.667    0.000    5.333    0.000    0.000 
#    0.000    0.000    0.000    0.000    0.000    0.000 
#
# Total GULP energy -892001.449506 kJ/mol
# GULP energy per Si atom -12388.909021 kJ/mol
# Density = 2.160046 g / cm^3
# Si number density = 21.649737 Si / 1000 Ang^3
#
#
#
# Elastic Constant Matrix: (Units=GPa)
#
#
# Indices 1 2 3 4 5 6 
#
# 1 99.6079 61.4090 12.7098 0.0000 0.0000 0.0000
# 2 61.4090 99.6080 12.7098 0.0000 0.0000 0.0000
# 3 12.7098 12.7098 49.8442 0.0000 0.0000 0.0000
# 4 0.0000 0.0000 0.0000 22.0160 0.0000 0.0000
# 5 0.0000 0.0000 0.0000 0.0000 22.0159 0.0000
# 6 0.0000 0.0000 0.0000 0.0000 0.0000 34.3794
#
#
#
# Elastic Compliance Matrix: (Units=1/GPa)
#
#
# Indices 1 2 3 4 5 6 
#
# 1 0.016325 -0.009854 -0.001650 0.000000 0.000000 0.000000
# 2 -0.009854 0.016325 -0.001650 0.000000 0.000000 0.000000
# 3 -0.001650 -0.001650 0.020904 0.000000 0.000000 0.000000
# 4 0.000000 0.000000 0.000000 0.045422 0.000000 0.000000
# 5 0.000000 0.000000 0.000000 0.000000 0.045422 0.000000
# 6 0.000000 0.000000 0.000000 0.000000 0.000000 0.029087
#
#
# Mechanical properties :
#
#
# Convention : Reuss Voigt Hill
#
# Bulk Modulus (GPa) = 36.70285 46.96861 41.83573
# Shear Modulus (GPa) = 23.93787 26.49770 25.21778
#
# Velocity S-wave (km/s) = 3.32880 3.50226 3.41663
# Velocity P-wave (km/s) = 5.63599 6.17222 5.91019
#
# Compressibility (1/GPa) = 0.02724584
#
# Stress axis : x y z
#
# Youngs Moduli (GPa) = 61.25616 61.25617 47.83772
#
# Poissons Ratio (x) = 0.60361 0.07893
# Poissons Ratio (y) = 0.60361 0.07894
# Poissons Ratio (z) = 0.10107 0.10108
#
# Static dielectric constant tensor:
#      x y z
#    x 4.213080 0.000000 0.000000 
#    y 0.000000 4.213070 0.000000 
#    z 0.000000 0.000000 3.516020 
# 
# 
# High freq. dielectric constant tensor:
#      x y z
#    x 1.857160 0.000000 0.000000 
#    y 0.000000 1.857160 0.000000 
#    z 0.000000 0.000000 1.801240 
# 
# From -- ./inp_files/1563.got.cif
#   From: 2010.03.12/outbox.cif.g09.slc.cpg/sg136_1_cif.got.tgz:1563.got - 2010.04.06 18:39:43.
