data_PCOD8317966
_publ_section_title
;
Structure prediction by ZEFSAII (Michael W. Deem and Ramdas Pophale) SiO2 
 PCOD8317966
Probable space group: P 42/M N M
;
_chemical_formula_sum "Si O2"
_cell_formula_units_Z 72
_cell_length_a 21.083556
_cell_length_b 21.083556
_cell_length_c 8.854614
_cell_angle_alpha 90.000000
_cell_angle_beta 90.000000
_cell_angle_gamma 90.000000
_cell_volume 3936.020551
_symmetry_space_group_name_H-M "P 42/M N M"
_symmetry_group_IT_number 136
_symmetry_cell_setting 'tetragonal'
loop_
_space_group_symop_operation_xyz
x,y,z
1/2-y,1/2+x,1/2+z
-x,-y,z
1/2+y,1/2-x,1/2+z
1/2+x,1/2-y,1/2-z
1/2-x,1/2+y,1/2-z
y,x,-z
-y,-x,-z
-x,-y,-z
1/2+y,1/2-x,1/2-z
x,y,-z
1/2-y,1/2+x,1/2-z
1/2-x,1/2+y,1/2+z
1/2+x,1/2-y,1/2+z
-y,-x,z
y,x,z
loop_
_atom_site_type_symbol
_atom_site_label
_atom_site_fract_x
_atom_site_fract_y
_atom_site_fract_z
Si Si1 0.188001 0.960612 0.823347
Si Si2 0.163070 0.737088 0.832733
Si Si3 0.493737 0.811477 0.823378
Si Si4 0.623654 0.877761 0.826260
Si Si5 0.447336 0.447336 0.821866
O O1 0.210512 0.889239 0.788645
O O2 0.120107 0.970727 0.744527
O O3 0.243109 0.007229 0.759763
O O4 0.179080 0.974038 0.000000
O O5 0.231417 0.768584 0.833279
O O6 0.168711 0.681839 0.709444
O O7 0.147077 0.709660 0.000000
O O8 0.553871 0.854476 0.778180
O O9 0.435219 0.854834 0.777072
O O10 0.492676 0.797178 0.000000
O O11 0.628481 0.897750 0.000000
O O12 0.500000 0.500000 0.780152
O O13 0.439747 0.439747 0.000000
#
# Coordination Sequence:
#
# PCOD8317966 Si02
#       5
#    16  16  16  16   8
#     4  10  19  35  58  82 108 140 180 227 273 322
#     4   9  17  32  54  80 106 135 174 221 275 325
#     4  10  21  37  56  80 111 147 184 228 283 332
#     4  10  21  35  53  80 109 144 187 228 275 330
#     4  11  23  37  55  83 117 151 187 225 273 334
#
# _framework density 18.292587000000001
#
# number of rings (size 3 to 8) (size 9 to 14) (size 15 to 20)
#    0.000    2.111    1.111    2.333    0.000    5.333 
#    0.000    3.333    0.000    6.667    0.000    0.000 
#    0.000    0.000    0.000    0.000    0.000    0.000 
#
# Total GULP energy -892640.539794 kJ/mol
# GULP energy per Si atom -12397.785275 kJ/mol
# Density = 1.825095 g / cm^3
# Si number density = 18.292587 Si / 1000 Ang^3
#
#
#
# Elastic Constant Matrix: (Units=GPa)
#
#
# Indices 1 2 3 4 5 6 
#
# 1 95.7143 67.5283 49.6853 0.0000 0.0000 0.0000
# 2 67.5283 95.7143 49.6853 0.0000 0.0000 0.0000
# 3 49.6853 49.6853 82.1844 0.0000 0.0000 0.0000
# 4 0.0000 0.0000 0.0000 32.8438 0.0000 0.0000
# 5 0.0000 0.0000 0.0000 0.0000 32.8438 0.0000
# 6 0.0000 0.0000 0.0000 0.0000 0.0000 24.8890
#
#
#
# Elastic Compliance Matrix: (Units=1/GPa)
#
#
# Indices 1 2 3 4 5 6 
#
# 1 0.022586 -0.012893 -0.005860 0.000000 0.000000 0.000000
# 2 -0.012893 0.022586 -0.005860 0.000000 0.000000 0.000000
# 3 -0.005860 -0.005860 0.019253 0.000000 0.000000 0.000000
# 4 0.000000 0.000000 0.000000 0.030447 0.000000 0.000000
# 5 0.000000 0.000000 0.000000 0.000000 0.030447 0.000000
# 6 0.000000 0.000000 0.000000 0.000000 0.000000 0.040178
#
#
# Mechanical properties :
#
#
# Convention : Reuss Voigt Hill
#
# Bulk Modulus (GPa) = 65.79284 67.49008 66.64146
# Shear Modulus (GPa) = 22.74906 25.22961 23.98933
#
# Velocity S-wave (km/s) = 3.53033 3.71782 3.62529
# Velocity P-wave (km/s) = 7.25690 7.44342 7.35075
#
# Compressibility (1/GPa) = 0.01519922
#
# Stress axis : x y z
#
# Youngs Moduli (GPa) = 44.27564 44.27564 51.93953
#
# Poissons Ratio (x) = 0.57084 0.30436
# Poissons Ratio (y) = 0.57084 0.30436
# Poissons Ratio (z) = 0.25945 0.25945
#
# Static dielectric constant tensor:
#      x y z
#    x 3.309220 0.000000 0.000000 
#    y 0.000000 3.309220 0.000000 
#    z 0.000000 0.000000 3.506140 
# 
# 
# High freq. dielectric constant tensor:
#      x y z
#    x 1.699110 0.000000 0.000000 
#    y 0.000000 1.699110 0.000000 
#    z 0.000000 0.000000 1.720940 
# 
# From -- ./inp_files/1538.got.cif
#   From: 2010.03.12/outbox.cif.g09.slc.cpg/sg136_1_cif.got.tgz:1538.got - 2010.04.06 18:39:43.
