data_PCOD8317408
_publ_section_title
;
Structure prediction by ZEFSAII (Michael W. Deem and Ramdas Pophale) SiO2 
 PCOD8317408
Probable space group: P 42/M B C
;
_chemical_formula_sum "Si O2"
_cell_formula_units_Z 116
_cell_length_a 25.984322
_cell_length_b 25.984322
_cell_length_c 8.981302
_cell_angle_alpha 90.000000
_cell_angle_beta 90.000000
_cell_angle_gamma 90.000000
_cell_volume 6064.040299
_symmetry_space_group_name_H-M "P 42/M B C"
_symmetry_group_IT_number 135
_symmetry_cell_setting 'tetragonal'
loop_
_space_group_symop_operation_xyz
x,y,z
-y,x,1/2+z
-x,-y,z
y,-x,1/2+z
1/2+x,1/2-y,-z
1/2-x,1/2+y,-z
1/2+y,1/2+x,1/2-z
1/2-y,1/2-x,1/2-z
-x,-y,-z
y,-x,1/2-z
x,y,-z
-y,x,1/2-z
1/2-x,1/2+y,z
1/2+x,1/2-y,z
1/2-y,1/2-x,1/2+z
1/2+y,1/2+x,1/2+z
loop_
_atom_site_type_symbol
_atom_site_label
_atom_site_fract_x
_atom_site_fract_y
_atom_site_fract_z
Si Si1 0.233225 0.492737 0.161499
Si Si2 0.387206 0.507244 0.666597
Si Si3 0.000000 0.000000 0.750000
Si Si4 0.229890 0.842486 0.677312
Si Si5 0.925846 0.207136 0.826399
Si Si6 0.077355 0.167834 0.664508
Si Si7 0.102720 0.325870 0.323781
Si Si8 0.318416 0.251327 0.822525
O O1 0.247507 0.534375 0.284620
O O2 0.279989 0.453529 0.146589
O O3 0.182993 0.458602 0.204209
O O4 0.224870 0.519466 0.000000
O O5 0.368561 0.494403 0.500000
O O6 0.448715 0.518149 0.661331
O O7 0.350525 0.554816 0.725426
O O8 0.377503 0.457661 0.768817
O O9 0.230618 0.837148 0.500000
O O10 0.179320 0.875033 0.727427
O O11 0.282653 0.866451 0.734336
O O12 0.225940 0.788121 0.758805
O O13 0.871748 0.225175 0.757563
O O14 0.919338 0.207350 0.000000
O O15 0.096978 0.149630 0.500000
O O16 0.119678 0.380323 0.250000
O O17 0.115084 0.323693 0.500000
O O18 0.304804 0.195197 0.750000
O O19 0.317433 0.247444 0.000000
#
# Coordination Sequence:
#
# PCOD8317408 Si02
#       8
#    16  16   4  16  16  16  16  16
#     4   8  16  31  51  75 101 131 170 211 254 307
#     4  10  22  40  56  77 104 139 185 235 289 339
#     4  12  26  36  56  82 110 144 188 250 298 332
#     4  11  21  33  51  76 104 138 174 215 266 329
#     4   9  20  38  59  76  99 136 177 221 273 328
#     4   9  18  34  55  76  99 132 174 221 272 327
#     4  10  19  31  48  75 109 144 175 211 255 305
#     4  11  23  38  55  78 105 135 172 221 274 331
#
# _framework density 19.129161
#
# number of rings (size 3 to 8) (size 9 to 14) (size 15 to 20)
#    0.000    2.207    0.000    3.931    1.931    6.069 
#    0.000    0.000    0.000    0.000    0.000    0.000 
#    0.000    0.552    0.000    6.069    0.000    4.414 
#
# Total GULP energy -1437022.414430 kJ/mol
# GULP energy per Si atom -12388.124262 kJ/mol
# Density = 1.908562 g / cm^3
# Si number density = 19.129161 Si / 1000 Ang^3
#
#
#
# Elastic Constant Matrix: (Units=GPa)
#
#
# Indices 1 2 3 4 5 6 
#
# 1 70.7688 48.0997 24.8889 0.0000 0.0000 0.0000
# 2 48.0997 70.7691 24.8888 0.0000 0.0000 0.0000
# 3 24.8889 24.8888 72.8067 0.0000 0.0000 0.0000
# 4 0.0000 0.0000 0.0000 23.0245 0.0000 0.0000
# 5 0.0000 0.0000 0.0000 0.0000 23.0244 0.0000
# 6 0.0000 0.0000 0.0000 0.0000 0.0000 22.7109
#
#
#
# Elastic Compliance Matrix: (Units=1/GPa)
#
#
# Indices 1 2 3 4 5 6 
#
# 1 0.026965 -0.017147 -0.003356 0.000000 0.000000 0.000000
# 2 -0.017147 0.026965 -0.003356 0.000000 0.000000 0.000000
# 3 -0.003356 -0.003356 0.016030 0.000000 0.000000 0.000000
# 4 0.000000 0.000000 0.000000 0.043432 0.000000 0.000000
# 5 0.000000 0.000000 0.000000 0.000000 0.043432 0.000000
# 6 0.000000 0.000000 0.000000 0.000000 0.000000 0.044032
#
#
# Mechanical properties :
#
#
# Convention : Reuss Voigt Hill
#
# Bulk Modulus (GPa) = 44.96257 45.56661 45.26459
# Shear Modulus (GPa) = 19.53204 21.51643 20.52424
#
# Velocity S-wave (km/s) = 3.19887 3.35744 3.27911
# Velocity P-wave (km/s) = 6.09914 6.23715 6.16853
#
# Compressibility (1/GPa) = 0.02224072
#
# Stress axis : x y z
#
# Youngs Moduli (GPa) = 37.08454 37.08476 62.38417
#
# Poissons Ratio (x) = 0.63590 0.20939
# Poissons Ratio (y) = 0.63590 0.20938
# Poissons Ratio (z) = 0.12447 0.12447
#
# Static dielectric constant tensor:
#      x y z
#    x 3.618970 0.000000 0.000000 
#    y 0.000000 3.618970 0.000000 
#    z 0.000000 0.000000 3.511730 
# 
# 
# High freq. dielectric constant tensor:
#      x y z
#    x 1.721680 0.000000 0.000000 
#    y 0.000000 1.721680 0.000000 
#    z 0.000000 0.000000 1.744890 
# 
# From -- ./inp_files/1508.got.cif
#   From: 2010.03.12/outbox.cif.g09.slc.cpg/sg135_1_cif.got.tgz:1508.got - 2010.04.06 18:31:24.
