data_PCOD8317216
_publ_section_title
;
Structure prediction by ZEFSAII (Michael W. Deem and Ramdas Pophale) SiO2 
 PCOD8317216
Probable space group: P 42/N N M
;
_chemical_formula_sum "Si O2"
_cell_formula_units_Z 112
_cell_length_a 14.147113
_cell_length_b 14.147113
_cell_length_c 29.677161
_cell_angle_alpha 90.000000
_cell_angle_beta 90.000000
_cell_angle_gamma 90.000000
_cell_volume 5939.610929
_symmetry_space_group_name_H-M "P 42/N N M"
_symmetry_group_IT_number 134
_space_group.IT_coordinate_system_code '2'
_symmetry_cell_setting 'tetragonal'
loop_
_space_group_symop_operation_xyz
x,y,z
1/2-y,x,1/2+z
1/2-x,1/2-y,z
y,1/2-x,1/2+z
x,1/2-y,1/2-z
1/2-x,y,1/2-z
y,x,-z
1/2-y,1/2-x,-z
-x,-y,-z
1/2+y,-x,1/2-z
1/2+x,1/2+y,-z
-y,1/2+x,1/2-z
-x,1/2+y,1/2+z
1/2+x,-y,1/2+z
-y,-x,z
1/2+y,1/2+x,z
loop_
_atom_site_type_symbol
_atom_site_label
_atom_site_fract_x
_atom_site_fract_y
_atom_site_fract_z
Si Si1 0.327004 0.971667 0.476898
Si Si2 0.690525 0.660448 0.400301
Si Si3 0.433781 0.362875 0.066609
Si Si4 0.360396 0.145631 0.743741
Si Si5 0.645315 0.995058 0.331073
Si Si6 0.355676 0.487455 0.676994
Si Si7 0.478097 0.372301 0.539656
O O1 0.373318 0.873318 0.460699
O O2 0.365239 0.989257 0.527397
O O3 0.359438 0.053301 0.442083
O O4 0.214208 0.958800 0.478356
O O5 0.750000 0.750000 0.380049
O O6 0.761699 0.617661 0.437401
O O7 0.663232 0.588518 0.361593
O O8 0.591249 0.678118 0.424621
O O9 0.480408 0.370522 0.115785
O O10 0.408343 0.250000 0.750000
O O11 0.250000 0.158370 0.750000
O O12 0.381520 0.103444 0.694116
O O13 0.397502 0.069216 0.780268
O O14 0.750378 0.030303 0.315958
O O15 0.577040 0.077040 0.313611
O O16 0.429454 0.570547 0.663497
O O17 0.418881 0.418881 0.500000
O O18 0.548215 0.451786 0.560909
#
# Coordination Sequence:
#
# PCOD8317216 Si02
#       7
#    16  16  16  16  16  16  16
#     4  11  21  35  55  81 113 146 186 240 292 338
#     4  11  21  35  61  83 107 147 199 235 286 342
#     4  10  20  34  56  82 109 143 190 242 287 334
#     4   9  19  33  55  79 110 145 186 233 276 320
#     4  10  20  35  55  80 112 151 191 228 278 349
#     4  10  22  36  54  84 119 149 183 233 290 342
#     4  11  23  38  55  79 112 148 190 239 288 344
#
# _framework density 18.856452999999998
#
# number of rings (size 3 to 8) (size 9 to 14) (size 15 to 20)
#    0.000    1.714    2.857    2.571    6.000    0.857 
#    0.000    0.000    0.000    4.286    0.000    0.000 
#    0.000    4.571    0.000    0.000    0.000    0.286 
#
# Total GULP energy -1387537.300351 kJ/mol
# GULP energy per Si atom -12388.725896 kJ/mol
# Density = 1.881353 g / cm^3
# Si number density = 18.856453 Si / 1000 Ang^3
#
#
#
# Elastic Constant Matrix: (Units=GPa)
#
#
# Indices 1 2 3 4 5 6 
#
# 1 95.1120 86.5900 34.8298 0.0000 0.0000 0.0000
# 2 86.5900 95.1120 34.8298 0.0000 0.0000 0.0000
# 3 34.8298 34.8298 73.0725 0.0000 0.0000 0.0000
# 4 0.0000 0.0000 0.0000 16.1779 0.0000 0.0000
# 5 0.0000 0.0000 0.0000 0.0000 16.1779 0.0000
# 6 0.0000 0.0000 0.0000 0.0000 0.0000 29.1214
#
#
#
# Elastic Compliance Matrix: (Units=1/GPa)
#
#
# Indices 1 2 3 4 5 6 
#
# 1 0.062039 -0.055305 -0.003210 0.000000 0.000000 0.000000
# 2 -0.055305 0.062039 -0.003210 0.000000 0.000000 0.000000
# 3 -0.003210 -0.003210 0.016745 0.000000 0.000000 0.000000
# 4 0.000000 0.000000 0.000000 0.061813 0.000000 0.000000
# 5 0.000000 0.000000 0.000000 0.000000 0.061813 0.000000
# 6 0.000000 0.000000 0.000000 0.000000 0.000000 0.034339
#
#
# Mechanical properties :
#
#
# Convention : Reuss Voigt Hill
#
# Bulk Modulus (GPa) = 57.55752 63.97732 60.76742
# Shear Modulus (GPa) = 11.68151 19.43190 15.55671
#
# Velocity S-wave (km/s) = 2.49167 3.21365 2.87541
# Velocity P-wave (km/s) = 6.23444 6.91175 6.58181
#
# Compressibility (1/GPa) = 0.01737393
#
# Stress axis : x y z
#
# Youngs Moduli (GPa) = 16.11894 16.11894 59.71970
#
# Poissons Ratio (x) = 0.89145 0.19169
# Poissons Ratio (y) = 0.89145 0.19169
# Poissons Ratio (z) = 0.05174 0.05174
#
# Static dielectric constant tensor:
#      x y z
#    x 3.578860 0.000000 0.000000 
#    y 0.000000 3.578860 0.000000 
#    z 0.000000 0.000000 3.400810 
# 
# 
# High freq. dielectric constant tensor:
#      x y z
#    x 1.722740 0.000000 0.000000 
#    y 0.000000 1.722740 0.000000 
#    z 0.000000 0.000000 1.727200 
# 
# From -- ./inp_files/11687.got.cif
#   From: 2010.03.12/outbox.cif.g09.slc.cpg/sg134_6_cif.got.tgz:11687.got - 2010.04.06 18:17:22.
