data_PCOD8317864
_publ_section_title
;
Structure prediction by ZEFSAII (Michael W. Deem and Ramdas Pophale) SiO2 
 PCOD8317864
Probable space group: P 42/M N M
;
_chemical_formula_sum "Si O2"
_cell_formula_units_Z 88
_cell_length_a 15.227752
_cell_length_b 15.227752
_cell_length_c 19.605031
_cell_angle_alpha 90.000000
_cell_angle_beta 90.000000
_cell_angle_gamma 90.000000
_cell_volume 4546.101458
_symmetry_space_group_name_H-M "P 42/M N M"
_symmetry_group_IT_number 136
_symmetry_cell_setting 'tetragonal'
loop_
_space_group_symop_operation_xyz
x,y,z
1/2-y,1/2+x,1/2+z
-x,-y,z
1/2+y,1/2-x,1/2+z
1/2+x,1/2-y,1/2-z
1/2-x,1/2+y,1/2-z
y,x,-z
-y,-x,-z
-x,-y,-z
1/2+y,1/2-x,1/2-z
x,y,-z
1/2-y,1/2+x,1/2-z
1/2-x,1/2+y,1/2+z
1/2+x,1/2-y,1/2+z
-y,-x,z
y,x,z
loop_
_atom_site_type_symbol
_atom_site_label
_atom_site_fract_x
_atom_site_fract_y
_atom_site_fract_z
Si Si1 0.177613 0.567527 0.922403
Si Si2 0.500000 0.000000 0.868990
Si Si3 0.886511 0.745015 0.077609
Si Si4 0.257459 0.391139 0.919388
Si Si5 0.514038 0.183224 0.303636
Si Si6 0.826354 0.682543 0.293123
O O1 0.080989 0.525170 0.917405
O O2 0.247384 0.492562 0.898555
O O3 0.188832 0.651375 0.873753
O O4 0.194829 0.597566 0.000000
O O5 0.580221 0.976809 0.819530
O O6 0.839359 0.839359 0.081221
O O7 0.821937 0.669655 0.108087
O O8 0.970247 0.741420 0.127717
O O9 0.917011 0.725668 0.000000
O O10 0.350690 0.350690 0.893281
O O11 0.251424 0.381474 0.000000
O O12 0.584927 0.208480 0.246501
O O13 0.416444 0.205322 0.275792
O O14 0.748940 0.748940 0.273362
#
# Coordination Sequence:
#
# PCOD8317864 Si02
#       6
#    16   8  16  16  16  16
#     4  10  19  32  52  79 115 152 185 226 271 328
#     4  10  19  31  52  86 113 137 176 226 293 355
#     4   9  17  30  53  84 112 141 181 226 270 316
#     4   8  14  26  47  79 112 141 176 217 262 311
#     4  11  21  37  56  80 111 146 177 232 285 340
#     4  11  25  41  57  81 111 148 189 227 280 342
#
# _framework density 19.357244999999999
#
# number of rings (size 3 to 8) (size 9 to 14) (size 15 to 20)
#    0.000    2.182    1.818    4.091    0.000    4.000 
#    0.000    0.000    0.000    3.818    0.000    3.818 
#    0.000    0.000    0.000    0.000    0.000    0.000 
#
# Total GULP energy -1090859.348361 kJ/mol
# GULP energy per Si atom -12396.128959 kJ/mol
# Density = 1.931319 g / cm^3
# Si number density = 19.357245 Si / 1000 Ang^3
#
#
#
# Elastic Constant Matrix: (Units=GPa)
#
#
# Indices 1 2 3 4 5 6 
#
# 1 76.4367 54.9574 32.9540 0.0000 0.0000 0.0000
# 2 54.9574 76.4367 32.9540 0.0000 0.0000 0.0000
# 3 32.9540 32.9540 78.0706 0.0000 0.0000 0.0000
# 4 0.0000 0.0000 0.0000 19.9217 0.0000 0.0000
# 5 0.0000 0.0000 0.0000 0.0000 19.9217 0.0000
# 6 0.0000 0.0000 0.0000 0.0000 0.0000 31.0510
#
#
#
# Elastic Compliance Matrix: (Units=1/GPa)
#
#
# Indices 1 2 3 4 5 6 
#
# 1 0.028106 -0.018451 -0.004075 0.000000 0.000000 0.000000
# 2 -0.018451 0.028106 -0.004075 0.000000 0.000000 0.000000
# 3 -0.004075 -0.004075 0.016249 0.000000 0.000000 0.000000
# 4 0.000000 0.000000 0.000000 0.050197 0.000000 0.000000
# 5 0.000000 0.000000 0.000000 0.000000 0.050197 0.000000
# 6 0.000000 0.000000 0.000000 0.000000 0.000000 0.032205
#
#
# Mechanical properties :
#
#
# Convention : Reuss Voigt Hill
#
# Bulk Modulus (GPa) = 51.92729 52.51941 52.22335
# Shear Modulus (GPa) = 18.89063 21.51746 20.20405
#
# Velocity S-wave (km/s) = 3.12732 3.33768 3.23421
# Velocity P-wave (km/s) = 6.31856 6.48414 6.40188
#
# Compressibility (1/GPa) = 0.01925770
#
# Stress axis : x y z
#
# Youngs Moduli (GPa) = 35.57989 35.57989 61.54071
#
# Poissons Ratio (x) = 0.65648 0.25080
# Poissons Ratio (y) = 0.65648 0.25080
# Poissons Ratio (z) = 0.14500 0.14500
#
# Static dielectric constant tensor:
#      x y z
#    x 3.452510 0.000000 0.000000 
#    y 0.000000 3.452510 0.000000 
#    z 0.000000 0.000000 3.499640 
# 
# 
# High freq. dielectric constant tensor:
#      x y z
#    x 1.721100 0.000000 0.000000 
#    y 0.000000 1.721100 0.000000 
#    z 0.000000 0.000000 1.760110 
# 
# From -- ./inp_files/7350.got.cif
#   From: 2010.03.12/outbox.cif.g09.slc.cpg/sg136_4_cif.got.tgz:7350.got - 2010.04.06 18:39:43.
