data_PCOD8317807
_publ_section_title
;
Structure prediction by ZEFSAII (Michael W. Deem and Ramdas Pophale) SiO2 
 PCOD8317807
Probable space group: P 42/M N M
;
_chemical_formula_sum "Si O2"
_cell_formula_units_Z 72
_cell_length_a 12.011604
_cell_length_b 12.011604
_cell_length_c 33.832557
_cell_angle_alpha 90.000000
_cell_angle_beta 90.000000
_cell_angle_gamma 90.000000
_cell_volume 4881.314995
_symmetry_space_group_name_H-M "P 42/M N M"
_symmetry_group_IT_number 136
_symmetry_cell_setting 'tetragonal'
loop_
_space_group_symop_operation_xyz
x,y,z
1/2-y,1/2+x,1/2+z
-x,-y,z
1/2+y,1/2-x,1/2+z
1/2+x,1/2-y,1/2-z
1/2-x,1/2+y,1/2-z
y,x,-z
-y,-x,-z
-x,-y,-z
1/2+y,1/2-x,1/2-z
x,y,-z
1/2-y,1/2+x,1/2-z
1/2-x,1/2+y,1/2+z
1/2+x,1/2-y,1/2+z
-y,-x,z
y,x,z
loop_
_atom_site_type_symbol
_atom_site_label
_atom_site_fract_x
_atom_site_fract_y
_atom_site_fract_z
Si Si1 0.315172 0.497400 0.914205
Si Si2 0.892453 0.714772 0.796194
Si Si3 0.177898 0.007212 0.500000
Si Si4 0.625676 0.014946 0.350321
Si Si5 0.858575 0.321256 0.211300
O O1 0.393978 0.606023 0.911292
O O2 0.387919 0.387919 0.904365
O O3 0.258765 0.487508 0.958290
O O4 0.212793 0.508129 0.884763
O O5 0.833422 0.833422 0.800889
O O6 0.859254 0.639017 0.833555
O O7 0.853606 0.651860 0.756876
O O8 0.023486 0.738763 0.794975
O O9 0.071821 0.928180 0.500000
O O10 0.134023 0.134023 0.500000
O O11 0.500000 0.000000 0.366659
O O12 0.649942 0.931516 0.314593
O O13 0.762897 0.237104 0.197515
#
# Coordination Sequence:
#
# PCOD8317807 Si02
#       5
#    16  16   8  16  16
#     4   9  16  28  46  68  90 110 140 178 212 254
#     4  10  19  31  45  59  80 110 142 177 215 253
#     4   7  12  24  43  64  88 116 135 161 214 262
#     4  10  19  29  45  62  86 114 144 172 216 252
#     4  10  19  31  45  59  80 110 142 177 215 253
#
# _framework density 14.750124
#
# number of rings (size 3 to 8) (size 9 to 14) (size 15 to 20)
#    0.000    2.556    2.222    2.667    0.000    0.444 
#    0.000    0.556    0.000    0.000    0.000    0.000 
#    0.000    0.000    0.000    0.000    0.000  133.333 
#
# Total GULP energy -892302.871704 kJ/mol
# GULP energy per Si atom -12393.095440 kJ/mol
# Density = 1.471655 g / cm^3
# Si number density = 14.750124 Si / 1000 Ang^3
#
#
#
# Elastic Constant Matrix: (Units=GPa)
#
#
# Indices 1 2 3 4 5 6 
#
# 1 53.0818 15.9736 18.5871 0.0000 0.0000 0.0000
# 2 15.9736 53.0818 18.5870 0.0000 0.0000 0.0000
# 3 18.5871 18.5870 73.3096 0.0000 0.0000 0.0000
# 4 0.0000 0.0000 0.0000 13.6308 0.0000 0.0000
# 5 0.0000 0.0000 0.0000 0.0000 13.6309 0.0000
# 6 0.0000 0.0000 0.0000 0.0000 0.0000 17.9873
#
#
#
# Elastic Compliance Matrix: (Units=1/GPa)
#
#
# Indices 1 2 3 4 5 6 
#
# 1 0.021859 -0.005089 -0.004252 0.000000 0.000000 0.000000
# 2 -0.005089 0.021859 -0.004252 0.000000 0.000000 0.000000
# 3 -0.004252 -0.004252 0.015797 0.000000 0.000000 0.000000
# 4 0.000000 0.000000 0.000000 0.073363 0.000000 0.000000
# 5 0.000000 0.000000 0.000000 0.000000 0.073363 0.000000
# 6 0.000000 0.000000 0.000000 0.000000 0.000000 0.055595
#
#
# Mechanical properties :
#
#
# Convention : Reuss Voigt Hill
#
# Bulk Modulus (GPa) = 30.93171 31.75207 31.34189
# Shear Modulus (GPa) = 16.67789 17.47149 17.07469
#
# Velocity S-wave (km/s) = 3.36623 3.44539 3.40604
# Velocity P-wave (km/s) = 6.01038 6.11563 6.06323
#
# Compressibility (1/GPa) = 0.03232928
#
# Stress axis : x y z
#
# Youngs Moduli (GPa) = 45.74745 45.74750 63.30371
#
# Poissons Ratio (x) = 0.23281 0.26916
# Poissons Ratio (y) = 0.23281 0.26916
# Poissons Ratio (z) = 0.19452 0.19451
#
# Static dielectric constant tensor:
#      x y z
#    x 2.753400 0.000000 0.000000 
#    y 0.000000 2.753400 0.000000 
#    z 0.000000 0.000000 2.946860 
# 
# 
# High freq. dielectric constant tensor:
#      x y z
#    x 1.552300 0.000000 0.000000 
#    y 0.000000 1.552300 0.000000 
#    z 0.000000 0.000000 1.559780 
# 
# From -- ./inp_files/9436.got.cif
#   From: 2010.03.12/outbox.cif.g09.slc.cpg/sg136_5_cif.got.tgz:9436.got - 2010.04.06 18:39:43.
