data_PCOD8317581
_publ_section_title
;
Structure prediction by ZEFSAII (Michael W. Deem and Ramdas Pophale) SiO2 
 PCOD8317581
Probable space group: P 42/M B C
;
_chemical_formula_sum "Si O2"
_cell_formula_units_Z 48
_cell_length_a 12.329517
_cell_length_b 12.329517
_cell_length_c 13.692736
_cell_angle_alpha 90.000000
_cell_angle_beta 90.000000
_cell_angle_gamma 90.000000
_cell_volume 2081.528504
_symmetry_space_group_name_H-M "P 42/M B C"
_symmetry_group_IT_number 135
_symmetry_cell_setting 'tetragonal'
loop_
_space_group_symop_operation_xyz
x,y,z
-y,x,1/2+z
-x,-y,z
y,-x,1/2+z
1/2+x,1/2-y,-z
1/2-x,1/2+y,-z
1/2+y,1/2+x,1/2-z
1/2-y,1/2-x,1/2-z
-x,-y,-z
y,-x,1/2-z
x,y,-z
-y,x,1/2-z
1/2-x,1/2+y,z
1/2+x,1/2-y,z
1/2-y,1/2-x,1/2+z
1/2+y,1/2+x,1/2+z
loop_
_atom_site_type_symbol
_atom_site_label
_atom_site_fract_x
_atom_site_fract_y
_atom_site_fract_z
Si Si1 0.425862 0.904685 0.390873
Si Si2 0.016673 0.182125 0.106870
Si Si3 0.355194 0.694706 0.713460
O O1 0.466271 0.874054 0.500000
O O2 0.307074 0.953800 0.395545
O O3 0.500000 0.000000 0.345501
O O4 0.428903 0.796446 0.323891
O O5 0.889179 0.164310 0.126275
O O6 0.087335 0.131592 0.195375
O O7 0.042973 0.130152 0.000000
O O8 0.239066 0.739066 0.750000
#
# Coordination Sequence:
#
# PCOD8317581 Si02
#       3
#    16  16  16
#     4   9  19  37  64  96 124 158 209 260 306 364
#     4  10  22  40  60  87 125 160 204 257 310 374
#     4  10  22  37  62  89 123 164 206 252 316 371
#
# _framework density 23.059977
#
# number of rings (size 3 to 8) (size 9 to 14) (size 15 to 20)
#    0.000    2.333    0.000    1.000    4.667    6.667 
#    0.000    5.000    0.000    2.000    0.000    0.000 
#    0.000    0.000    0.000    0.000    0.000    0.000 
#
# Total GULP energy -594824.020907 kJ/mol
# GULP energy per Si atom -12392.167102 kJ/mol
# Density = 2.300749 g / cm^3
# Si number density = 23.059977 Si / 1000 Ang^3
#
#
#
# Elastic Constant Matrix: (Units=GPa)
#
#
# Indices 1 2 3 4 5 6 
#
# 1 38.8077 28.7864 34.6580 0.0000 0.0000 0.0000
# 2 28.7864 38.8077 34.6580 0.0000 0.0000 0.0000
# 3 34.6580 34.6580 179.5094 0.0000 0.0000 0.0000
# 4 0.0000 0.0000 0.0000 28.7019 0.0000 0.0000
# 5 0.0000 0.0000 0.0000 0.0000 28.7019 0.0000
# 6 0.0000 0.0000 0.0000 0.0000 0.0000 27.8861
#
#
#
# Elastic Compliance Matrix: (Units=1/GPa)
#
#
# Indices 1 2 3 4 5 6 
#
# 1 0.059117 -0.040670 -0.003561 0.000000 0.000000 0.000000
# 2 -0.040670 0.059117 -0.003561 0.000000 0.000000 0.000000
# 3 -0.003561 -0.003561 0.006946 0.000000 0.000000 0.000000
# 4 0.000000 0.000000 0.000000 0.034841 0.000000 0.000000
# 5 0.000000 0.000000 0.000000 0.000000 0.034841 0.000000
# 6 0.000000 0.000000 0.000000 0.000000 0.000000 0.035860
#
#
# Mechanical properties :
#
#
# Convention : Reuss Voigt Hill
#
# Bulk Modulus (GPa) = 33.79191 50.36997 42.08094
# Shear Modulus (GPa) = 14.87332 27.65947 21.26639
#
# Velocity S-wave (km/s) = 2.54241 3.46708 3.04010
# Velocity P-wave (km/s) = 4.82744 6.15775 5.53273
#
# Compressibility (1/GPa) = 0.02959288
#
# Stress axis : x y z
#
# Youngs Moduli (GPa) = 16.91567 16.91567 143.96844
#
# Poissons Ratio (x) = 0.68797 0.51274
# Poissons Ratio (y) = 0.68797 0.51274
# Poissons Ratio (z) = 0.06024 0.06024
#
# Static dielectric constant tensor:
#      x y z
#    x 3.912310 0.000000 0.000000 
#    y 0.000000 3.912310 0.000000 
#    z 0.000000 0.000000 5.276900 
# 
# 
# High freq. dielectric constant tensor:
#      x y z
#    x 1.889220 0.000000 0.000000 
#    y 0.000000 1.889220 0.000000 
#    z 0.000000 0.000000 1.937980 
# 
# From -- ./inp_files/4002.got.cif
#   From: 2010.03.12/outbox.cif.g09.slc.cpg/sg135_3_cif.got.tgz:4002.got - 2010.04.06 18:31:24.
