data_PCOD8317579
_publ_section_title
;
Structure prediction by ZEFSAII (Michael W. Deem and Ramdas Pophale) SiO2 
 PCOD8317579
Probable space group: P 42/M B C
;
_chemical_formula_sum "Si O2"
_cell_formula_units_Z 116
_cell_length_a 18.194039
_cell_length_b 18.194039
_cell_length_c 19.002958
_cell_angle_alpha 90.000000
_cell_angle_beta 90.000000
_cell_angle_gamma 90.000000
_cell_volume 6290.417214
_symmetry_space_group_name_H-M "P 42/M B C"
_symmetry_group_IT_number 135
_symmetry_cell_setting 'tetragonal'
loop_
_space_group_symop_operation_xyz
x,y,z
-y,x,1/2+z
-x,-y,z
y,-x,1/2+z
1/2+x,1/2-y,-z
1/2-x,1/2+y,-z
1/2+y,1/2+x,1/2-z
1/2-y,1/2-x,1/2-z
-x,-y,-z
y,-x,1/2-z
x,y,-z
-y,x,1/2-z
1/2-x,1/2+y,z
1/2+x,1/2-y,z
1/2-y,1/2-x,1/2+z
1/2+y,1/2+x,1/2+z
loop_
_atom_site_type_symbol
_atom_site_label
_atom_site_fract_x
_atom_site_fract_y
_atom_site_fract_z
Si Si1 0.997066 0.785531 0.781105
Si Si2 0.998744 0.292212 0.079760
Si Si3 0.867497 0.648663 0.578447
Si Si4 0.000000 0.500000 0.250000
Si Si5 0.251977 0.252344 0.361111
Si Si6 0.161135 0.158588 0.255542
Si Si7 0.348427 0.132033 0.079156
Si Si8 0.845403 0.500913 0.820845
O O1 0.991518 0.775408 0.865706
O O2 0.070688 0.828732 0.759350
O O3 0.998751 0.703660 0.748905
O O4 0.926195 0.828765 0.752112
O O5 0.927449 0.337959 0.101163
O O6 0.062636 0.352129 0.085793
O O7 0.993758 0.259957 0.000000
O O8 0.895501 0.667686 0.500000
O O9 0.791211 0.688801 0.593194
O O10 0.927100 0.674067 0.634683
O O11 0.069919 0.500013 0.199551
O O12 0.193874 0.197059 0.324896
O O13 0.305912 0.294595 0.308474
O O14 0.301095 0.207984 0.415895
O O15 0.324651 0.069133 0.132749
O O16 0.348757 0.100522 0.000000
#
# Coordination Sequence:
#
# PCOD8317579 Si02
#       8
#    16  16  16   4  16  16  16  16
#     4  12  22  42  64  86 120 155 198 263 302 351
#     4  10  22  37  59  87 121 163 196 235 296 359
#     4  11  22  38  59  87 125 163 200 242 294 362
#     4  12  28  32  58  88 124 172 200 258 284 368
#     4  11  21  38  60  96 115 151 208 246 298 356
#     4  11  24  37  66  90 118 151 204 259 298 362
#     4  11  22  38  59  87 125 163 200 242 294 362
#     4  12  23  38  55  90 123 163 204 241 303 350
#
# _framework density 18.440747999999999
#
# number of rings (size 3 to 8) (size 9 to 14) (size 15 to 20)
#    0.000    0.828    5.517    3.310    0.000    0.276 
#    0.000    2.759    0.000    0.000    0.000    0.966 
#    0.000    0.000    0.000    0.000    0.000    0.000 
#
# Total GULP energy -1438760.871233 kJ/mol
# GULP energy per Si atom -12403.110959 kJ/mol
# Density = 1.839878 g / cm^3
# Si number density = 18.440748 Si / 1000 Ang^3
#
#
#
# Elastic Constant Matrix: (Units=GPa)
#
#
# Indices 1 2 3 4 5 6 
#
# 1 93.4474 40.9346 28.4486 0.0000 0.0000 0.0000
# 2 40.9346 93.4474 28.4486 0.0000 0.0000 0.0000
# 3 28.4486 28.4486 83.9741 0.0000 0.0000 0.0000
# 4 0.0000 0.0000 0.0000 22.5373 0.0000 0.0000
# 5 0.0000 0.0000 0.0000 0.0000 22.5373 0.0000
# 6 0.0000 0.0000 0.0000 0.0000 0.0000 27.5011
#
#
#
# Elastic Compliance Matrix: (Units=1/GPa)
#
#
# Indices 1 2 3 4 5 6 
#
# 1 0.013865 -0.005178 -0.002943 0.000000 0.000000 0.000000
# 2 -0.005178 0.013865 -0.002943 0.000000 0.000000 0.000000
# 3 -0.002943 -0.002943 0.013903 0.000000 0.000000 0.000000
# 4 0.000000 0.000000 0.000000 0.044371 0.000000 0.000000
# 5 0.000000 0.000000 0.000000 0.000000 0.044371 0.000000
# 6 0.000000 0.000000 0.000000 0.000000 0.000000 0.036362
#
#
# Mechanical properties :
#
#
# Convention : Reuss Voigt Hill
#
# Bulk Modulus (GPa) = 51.26857 51.83694 51.55276
# Shear Modulus (GPa) = 25.59288 26.05096 25.82192
#
# Velocity S-wave (km/s) = 3.72942 3.76265 3.74607
# Velocity P-wave (km/s) = 6.81226 6.85913 6.83574
#
# Compressibility (1/GPa) = 0.01950513
#
# Stress axis : x y z
#
# Youngs Moduli (GPa) = 72.12252 72.12252 71.92908
#
# Poissons Ratio (x) = 0.37343 0.21170
# Poissons Ratio (y) = 0.37343 0.21170
# Poissons Ratio (z) = 0.21227 0.21227
#
# Static dielectric constant tensor:
#      x y z
#    x 3.338460 0.000000 0.000000 
#    y 0.000000 3.338460 0.000000 
#    z 0.000000 0.000000 3.456110 
# 
# 
# High freq. dielectric constant tensor:
#      x y z
#    x 1.710460 0.000000 0.000000 
#    y 0.000000 1.710460 0.000000 
#    z 0.000000 0.000000 1.725250 
# 
# From -- ./inp_files/4607.got.cif
#   From: 2010.03.12/outbox.cif.g09.slc.cpg/sg135_3_cif.got.tgz:4607.got - 2010.04.06 18:31:24.
