data_PCOD8317246
_publ_section_title
;
Structure prediction by ZEFSAII (Michael W. Deem and Ramdas Pophale) SiO2 
 PCOD8317246
Probable space group: P 42/N N M
;
_chemical_formula_sum "Si O2"
_cell_formula_units_Z 96
_cell_length_a 13.899424
_cell_length_b 13.899424
_cell_length_c 23.249921
_cell_angle_alpha 90.000000
_cell_angle_beta 90.000000
_cell_angle_gamma 90.000000
_cell_volume 4491.744948
_symmetry_space_group_name_H-M "P 42/N N M"
_symmetry_group_IT_number 134
_space_group.IT_coordinate_system_code '2'
_symmetry_cell_setting 'tetragonal'
loop_
_space_group_symop_operation_xyz
x,y,z
1/2-y,x,1/2+z
1/2-x,1/2-y,z
y,1/2-x,1/2+z
x,1/2-y,1/2-z
1/2-x,y,1/2-z
y,x,-z
1/2-y,1/2-x,-z
-x,-y,-z
1/2+y,-x,1/2-z
1/2+x,1/2+y,-z
-y,1/2+x,1/2-z
-x,1/2+y,1/2+z
1/2+x,-y,1/2+z
-y,-x,z
1/2+y,1/2+x,z
loop_
_atom_site_type_symbol
_atom_site_label
_atom_site_fract_x
_atom_site_fract_y
_atom_site_fract_z
Si Si1 0.249613 0.089351 0.000728
Si Si2 0.476152 0.131050 0.826912
Si Si3 0.645184 0.506125 0.400360
Si Si4 0.431609 0.781201 0.689346
Si Si5 0.192684 0.529844 0.389107
Si Si6 0.426672 0.086409 0.706241
O O1 0.266640 0.024810 0.944320
O O2 0.155484 0.155484 0.000000
O O3 0.346924 0.153077 0.000000
O O4 0.232077 0.012353 0.051223
O O5 0.549629 0.213953 0.849045
O O6 0.431670 0.154322 0.763524
O O7 0.531929 0.031929 0.821660
O O8 0.392459 0.108506 0.874129
O O9 0.556933 0.443068 0.427835
O O10 0.688827 0.439985 0.350462
O O11 0.387280 0.750000 0.750000
O O12 0.360218 0.860218 0.661127
O O13 0.538741 0.822858 0.700036
O O14 0.140918 0.445058 0.353761
O O15 0.125286 0.625286 0.397014
O O16 0.506257 0.006257 0.714349
#
# Coordination Sequence:
#
# PCOD8317246 Si02
#       6
#    16  16  16  16  16  16
#     4  11  24  43  65  90 126 167 219 275 321 388
#     4  10  20  38  62  91 127 164 209 266 336 406
#     4  11  23  40  64  93 129 174 213 262 336 398
#     4  11  21  36  60  93 129 167 210 258 319 397
#     4  11  23  40  64  91 121 167 222 274 330 386
#     4   9  19  37  61  90 128 167 205 262 335 399
#
# _framework density 21.372540000000001
#
# number of rings (size 3 to 8) (size 9 to 14) (size 15 to 20)
#    0.000    1.500    3.333    2.000    0.000    3.500 
#    0.000    0.000    0.000    3.000    0.000    0.000 
#    0.000    0.000    0.000    0.000    0.000    0.000 
#
# Total GULP energy -1189271.867781 kJ/mol
# GULP energy per Si atom -12388.248623 kJ/mol
# Density = 2.132389 g / cm^3
# Si number density = 21.372540 Si / 1000 Ang^3
#
#
#
# Elastic Constant Matrix: (Units=GPa)
#
#
# Indices 1 2 3 4 5 6 
#
# 1 82.9020 30.9835 41.2118 0.0000 0.0000 0.0000
# 2 30.9835 82.9021 41.2117 0.0000 0.0000 0.0000
# 3 41.2118 41.2117 94.4320 0.0000 0.0000 0.0000
# 4 0.0000 0.0000 0.0000 29.4372 0.0000 0.0000
# 5 0.0000 0.0000 0.0000 0.0000 29.4372 0.0000
# 6 0.0000 0.0000 0.0000 0.0000 0.0000 43.8760
#
#
#
# Elastic Compliance Matrix: (Units=1/GPa)
#
#
# Indices 1 2 3 4 5 6 
#
# 1 0.016048 -0.003213 -0.005601 0.000000 0.000000 0.000000
# 2 -0.003213 0.016048 -0.005601 0.000000 0.000000 0.000000
# 3 -0.005601 -0.005601 0.015479 0.000000 0.000000 0.000000
# 4 0.000000 0.000000 0.000000 0.033971 0.000000 0.000000
# 5 0.000000 0.000000 0.000000 0.000000 0.033971 0.000000
# 6 0.000000 0.000000 0.000000 0.000000 0.000000 0.022792
#
#
# Mechanical properties :
#
#
# Convention : Reuss Voigt Hill
#
# Bulk Modulus (GPa) = 53.35380 54.11669 53.73525
# Shear Modulus (GPa) = 28.83743 30.33868 29.58805
#
# Velocity S-wave (km/s) = 3.67723 3.77173 3.72478
# Velocity P-wave (km/s) = 6.56104 6.65910 6.61025
#
# Compressibility (1/GPa) = 0.01874281
#
# Stress axis : x y z
#
# Youngs Moduli (GPa) = 62.31382 62.31408 64.60541
#
# Poissons Ratio (x) = 0.20023 0.36187
# Poissons Ratio (y) = 0.20023 0.36187
# Poissons Ratio (z) = 0.34904 0.34903
#
# Static dielectric constant tensor:
#      x y z
#    x 3.837130 0.000000 0.000000 
#    y 0.000000 3.837130 0.000000 
#    z 0.000000 0.000000 3.925440 
# 
# 
# High freq. dielectric constant tensor:
#      x y z
#    x 1.828990 0.000000 0.000000 
#    y 0.000000 1.828990 0.000000 
#    z 0.000000 0.000000 1.840250 
# 
# From -- ./inp_files/9108.got.cif
#   From: 2010.03.12/outbox.cif.g09.slc.cpg/sg134_5_cif.got.tgz:9108.got - 2010.04.06 18:17:22.
