data_PCOD8317123
_publ_section_title
;
Structure prediction by ZEFSAII (Michael W. Deem and Ramdas Pophale) SiO2 
 PCOD8317123
Probable space group: P 42/N N M
;
_chemical_formula_sum "Si O2"
_cell_formula_units_Z 96
_cell_length_a 19.391672
_cell_length_b 19.391672
_cell_length_c 14.739204
_cell_angle_alpha 90.000000
_cell_angle_beta 90.000000
_cell_angle_gamma 90.000000
_cell_volume 5542.485214
_symmetry_space_group_name_H-M "P 42/N N M"
_symmetry_group_IT_number 134
_space_group.IT_coordinate_system_code '2'
_symmetry_cell_setting 'tetragonal'
loop_
_space_group_symop_operation_xyz
x,y,z
1/2-y,x,1/2+z
1/2-x,1/2-y,z
y,1/2-x,1/2+z
x,1/2-y,1/2-z
1/2-x,y,1/2-z
y,x,-z
1/2-y,1/2-x,-z
-x,-y,-z
1/2+y,-x,1/2-z
1/2+x,1/2+y,-z
-y,1/2+x,1/2-z
-x,1/2+y,1/2+z
1/2+x,-y,1/2+z
-y,-x,z
1/2+y,1/2+x,z
loop_
_atom_site_type_symbol
_atom_site_label
_atom_site_fract_x
_atom_site_fract_y
_atom_site_fract_z
Si Si1 0.073223 0.298033 0.168194
Si Si2 0.178513 0.212002 0.597338
Si Si3 0.903621 0.982840 0.922452
Si Si4 0.602052 0.506344 0.556157
Si Si5 0.253435 0.457956 0.027713
Si Si6 0.439837 0.047433 0.765395
O O1 0.055491 0.250000 0.250000
O O2 0.152361 0.325997 0.172537
O O3 0.028936 0.366511 0.187829
O O4 0.059677 0.252535 0.078860
O O5 0.250000 0.250000 0.614455
O O6 0.175647 0.175647 0.500000
O O7 0.109997 0.259077 0.593857
O O8 0.823648 0.999151 0.949103
O O9 0.908946 0.940034 0.828217
O O10 0.934683 0.934683 0.000000
O O11 0.944299 0.055702 0.915904
O O12 0.572986 0.572986 0.500000
O O13 0.562394 0.437607 0.520606
O O14 0.684345 0.497829 0.546724
O O15 0.589496 0.514878 0.662608
O O16 0.473406 0.973406 0.744308
#
# Coordination Sequence:
#
# PCOD8317123 Si02
#       6
#    16  16  16  16  16  16
#     4  11  21  32  48  78 106 138 179 221 263 320
#     4   9  19  31  43  66 104 139 165 199 256 315
#     4  10  23  39  54  73 104 152 193 224 264 322
#     4  10  18  34  57  82 109 135 172 226 281 327
#     4  11  20  35  55  75 106 145 180 224 274 327
#     4  10  20  36  55  76 105 141 184 227 266 322
#
# _framework density 17.32075
#
# number of rings (size 3 to 8) (size 9 to 14) (size 15 to 20)
#    0.000    1.833    3.333    1.500    7.000    1.000 
#    0.000    0.000    0.000    0.500    0.000    0.000 
#    0.000    5.667    0.000    0.167    0.000    0.000 
#
# Total GULP energy -1189317.463732 kJ/mol
# GULP energy per Si atom -12388.723581 kJ/mol
# Density = 1.728133 g / cm^3
# Si number density = 17.320750 Si / 1000 Ang^3
#
#
#
# Elastic Constant Matrix: (Units=GPa)
#
#
# Indices 1 2 3 4 5 6 
#
# 1 92.3401 44.3430 18.1342 0.0000 0.0000 0.0000
# 2 44.3430 92.3401 18.1342 0.0000 0.0000 0.0000
# 3 18.1342 18.1342 74.6819 0.0000 0.0000 0.0000
# 4 0.0000 0.0000 0.0000 22.6078 0.0000 0.0000
# 5 0.0000 0.0000 0.0000 0.0000 22.6078 0.0000
# 6 0.0000 0.0000 0.0000 0.0000 0.0000 25.6418
#
#
#
# Elastic Compliance Matrix: (Units=1/GPa)
#
#
# Indices 1 2 3 4 5 6 
#
# 1 0.014327 -0.006507 -0.001899 0.000000 0.000000 0.000000
# 2 -0.006507 0.014327 -0.001899 0.000000 0.000000 0.000000
# 3 -0.001899 -0.001899 0.014312 0.000000 0.000000 0.000000
# 4 0.000000 0.000000 0.000000 0.044233 0.000000 0.000000
# 5 0.000000 0.000000 0.000000 0.000000 0.044233 0.000000
# 6 0.000000 0.000000 0.000000 0.000000 0.000000 0.038999
#
#
# Mechanical properties :
#
#
# Convention : Reuss Voigt Hill
#
# Bulk Modulus (GPa) = 44.72883 46.73167 45.73025
# Shear Modulus (GPa) = 25.18979 26.08818 25.63898
#
# Velocity S-wave (km/s) = 3.81768 3.88516 3.85157
# Velocity P-wave (km/s) = 6.73148 6.86766 6.79991
#
# Compressibility (1/GPa) = 0.02235694
#
# Stress axis : x y z
#
# Youngs Moduli (GPa) = 69.79667 69.79667 69.87001
#
# Poissons Ratio (x) = 0.45419 0.13267
# Poissons Ratio (y) = 0.45419 0.13267
# Poissons Ratio (z) = 0.13253 0.13253
#
# Static dielectric constant tensor:
#      x y z
#    x 3.164090 0.000000 0.000000 
#    y 0.000000 3.164090 0.000000 
#    z 0.000000 0.000000 3.408380 
# 
# 
# High freq. dielectric constant tensor:
#      x y z
#    x 1.644680 0.000000 0.000000 
#    y 0.000000 1.644680 0.000000 
#    z 0.000000 0.000000 1.683680 
# 
# From -- ./inp_files/6651.got.cif
#   From: 2010.03.12/outbox.cif.g09.slc.cpg/sg134_4_cif.got.tgz:6651.got - 2010.04.06 18:17:22.
