data_PCOD8317450
_publ_section_title
;
Structure prediction by ZEFSAII (Michael W. Deem and Ramdas Pophale) SiO2 
 PCOD8317450
Probable space group: P 42/M B C
;
_chemical_formula_sum "Si O2"
_cell_formula_units_Z 80
_cell_length_a 12.934903
_cell_length_b 12.934903
_cell_length_c 22.178879
_cell_angle_alpha 90.000000
_cell_angle_beta 90.000000
_cell_angle_gamma 90.000000
_cell_volume 3710.786296
_symmetry_space_group_name_H-M "P 42/M B C"
_symmetry_group_IT_number 135
_symmetry_cell_setting 'tetragonal'
loop_
_space_group_symop_operation_xyz
x,y,z
-y,x,1/2+z
-x,-y,z
y,-x,1/2+z
1/2+x,1/2-y,-z
1/2-x,1/2+y,-z
1/2+y,1/2+x,1/2-z
1/2-y,1/2-x,1/2-z
-x,-y,-z
y,-x,1/2-z
x,y,-z
-y,x,1/2-z
1/2-x,1/2+y,z
1/2+x,1/2-y,z
1/2-y,1/2-x,1/2+z
1/2+y,1/2+x,1/2+z
loop_
_atom_site_type_symbol
_atom_site_label
_atom_site_fract_x
_atom_site_fract_y
_atom_site_fract_z
Si Si1 0.378085 0.227814 0.636808
Si Si2 0.453270 0.887185 0.430868
Si Si3 0.209493 0.061046 0.665428
Si Si4 0.865376 0.800374 0.759166
Si Si5 0.216040 0.905393 0.431298
O O1 0.491758 0.190790 0.616253
O O2 0.311003 0.125116 0.648072
O O3 0.376287 0.300676 0.695745
O O4 0.335628 0.295031 0.580838
O O5 0.464132 0.847099 0.500000
O O6 0.334580 0.892857 0.411164
O O7 0.500000 0.000000 0.425088
O O8 0.124476 0.137825 0.695402
O O9 0.234483 0.975303 0.716041
O O10 0.166071 0.000609 0.606782
O O11 0.805464 0.694537 0.750000
O O12 0.203069 0.937745 0.500000
#
# Coordination Sequence:
#
# PCOD8317450 Si02
#       5
#    16  16  16  16  16
#     4  10  20  36  57  86 124 157 200 252 309 364
#     4  10  19  34  58  89 118 152 203 249 296 361
#     4  10  20  38  56  82 118 156 200 246 302 364
#     4   9  21  37  56  81 114 155 202 250 300 361
#     4  10  21  36  60  90 123 162 200 254 313 368
#
# _framework density 21.558774
#
# number of rings (size 3 to 8) (size 9 to 14) (size 15 to 20)
#    0.000    2.200    2.000    0.600    0.000    6.000 
#    0.000    2.000    0.000    0.000    0.000   11.200 
#    0.000    0.000    0.000    0.000    0.000    0.000 
#
# Total GULP energy -991512.154909 kJ/mol
# GULP energy per Si atom -12393.901936 kJ/mol
# Density = 2.150971 g / cm^3
# Si number density = 21.558774 Si / 1000 Ang^3
#
#
#
# Elastic Constant Matrix: (Units=GPa)
#
#
# Indices 1 2 3 4 5 6 
#
# 1 67.0270 20.6561 33.8417 0.0000 0.0000 0.0000
# 2 20.6561 67.0280 33.8413 0.0000 0.0000 0.0000
# 3 33.8417 33.8413 90.4738 0.0000 0.0000 0.0000
# 4 0.0000 0.0000 0.0000 34.3591 0.0000 0.0000
# 5 0.0000 0.0000 0.0000 0.0000 34.3587 0.0000
# 6 0.0000 0.0000 0.0000 0.0000 0.0000 17.0752
#
#
#
# Elastic Compliance Matrix: (Units=1/GPa)
#
#
# Indices 1 2 3 4 5 6 
#
# 1 0.018800 -0.002765 -0.005998 0.000000 0.000000 0.000000
# 2 -0.002765 0.018799 -0.005997 0.000000 0.000000 0.000000
# 3 -0.005998 -0.005997 0.015540 0.000000 0.000000 0.000000
# 4 0.000000 0.000000 0.000000 0.029104 0.000000 0.000000
# 5 0.000000 0.000000 0.000000 0.000000 0.029105 0.000000
# 6 0.000000 0.000000 0.000000 0.000000 0.000000 0.058564
#
#
# Mechanical properties :
#
#
# Convention : Reuss Voigt Hill
#
# Bulk Modulus (GPa) = 42.34096 44.57857 43.45977
# Shear Modulus (GPa) = 24.11895 26.23791 25.17843
#
# Velocity S-wave (km/s) = 3.34841 3.49240 3.42116
# Velocity P-wave (km/s) = 5.88485 6.08153 5.98400
#
# Compressibility (1/GPa) = 0.02361779
#
# Stress axis : x y z
#
# Youngs Moduli (GPa) = 53.19207 53.19327 64.35148
#
# Poissons Ratio (x) = 0.14710 0.38596
# Poissons Ratio (y) = 0.14710 0.38594
# Poissons Ratio (z) = 0.31903 0.31902
#
# Static dielectric constant tensor:
#      x y z
#    x 3.757690 0.000000 0.000000 
#    y 0.000000 3.757680 0.000000 
#    z 0.000000 0.000000 4.119650 
# 
# 
# High freq. dielectric constant tensor:
#      x y z
#    x 1.834100 0.000000 0.000000 
#    y 0.000000 1.834100 0.000000 
#    z 0.000000 0.000000 1.856920 
# 
# From -- ./inp_files/5212.got.cif
#   From: 2010.03.12/outbox.cif.g09.slc.cpg/sg135_3_cif.got.tgz:5212.got - 2010.04.06 18:31:24.
