data_PCOD8317917
_publ_section_title
;
Structure prediction by ZEFSAII (Michael W. Deem and Ramdas Pophale) SiO2 
 PCOD8317917
Probable space group: P 42/M N M
;
_chemical_formula_sum "Si O2"
_cell_formula_units_Z 96
_cell_length_a 24.491689
_cell_length_b 24.491689
_cell_length_c 9.180099
_cell_angle_alpha 90.000000
_cell_angle_beta 90.000000
_cell_angle_gamma 90.000000
_cell_volume 5506.616565
_symmetry_space_group_name_H-M "P 42/M N M"
_symmetry_group_IT_number 136
_symmetry_cell_setting 'tetragonal'
loop_
_space_group_symop_operation_xyz
x,y,z
1/2-y,1/2+x,1/2+z
-x,-y,z
1/2+y,1/2-x,1/2+z
1/2+x,1/2-y,1/2-z
1/2-x,1/2+y,1/2-z
y,x,-z
-y,-x,-z
-x,-y,-z
1/2+y,1/2-x,1/2-z
x,y,-z
1/2-y,1/2+x,1/2-z
1/2-x,1/2+y,1/2+z
1/2+x,1/2-y,1/2+z
-y,-x,z
y,x,z
loop_
_atom_site_type_symbol
_atom_site_label
_atom_site_fract_x
_atom_site_fract_y
_atom_site_fract_z
Si Si1 0.709073 0.909656 0.830773
Si Si2 0.390877 0.390877 0.827271
Si Si3 0.286057 0.969174 0.836836
Si Si4 0.341227 0.489849 0.666609
Si Si5 0.301961 0.301961 0.827752
Si Si6 0.906608 0.817908 0.665240
Si Si7 0.694093 0.138812 0.330394
O O1 0.759283 0.892677 0.730881
O O2 0.662423 0.865710 0.797399
O O3 0.688883 0.971375 0.792946
O O4 0.727671 0.907995 0.000000
O O5 0.376477 0.449035 0.761853
O O6 0.346351 0.346351 0.777588
O O7 0.394820 0.394820 0.000000
O O8 0.221355 0.972652 0.823145
O O9 0.307360 0.921849 0.733231
O O10 0.303866 0.953814 0.000000
O O11 0.361752 0.490485 0.500000
O O12 0.349387 0.549047 0.737365
O O13 0.321987 0.242651 0.765864
O O14 0.297777 0.297777 0.000000
O O15 0.928464 0.811543 0.500000
O O16 0.850724 0.850724 0.669305
O O17 0.705405 0.132261 0.500000
#
# Coordination Sequence:
#
# PCOD8317917 Si02
#       7
#    16   8  16  16   8  16  16
#     4   9  20  35  54  78 105 137 174 212 255 310
#     4  11  19  31  52  78 107 135 169 216 265 313
#     4   9  18  33  50  73 103 135 169 211 257 303
#     4  10  20  34  52  74 101 137 178 215 259 311
#     4   9  18  29  47  78 108 133 165 206 257 306
#     4  10  21  36  53  74 102 135 174 217 261 309
#     4  10  19  33  53  78 105 137 174 212 254 309
#
# _framework density 17.433572000000002
#
# number of rings (size 3 to 8) (size 9 to 14) (size 15 to 20)
#    0.000    2.333    1.667    2.250    1.167    4.667 
#    0.000    0.833    0.000    3.000    0.000    3.500 
#    0.000    0.000    0.000    0.000    0.000    0.000 
#
# Total GULP energy -1190187.757547 kJ/mol
# GULP energy per Si atom -12397.789141 kJ/mol
# Density = 1.739389 g / cm^3
# Si number density = 17.433572 Si / 1000 Ang^3
#
#
#
# Elastic Constant Matrix: (Units=GPa)
#
#
# Indices 1 2 3 4 5 6 
#
# 1 93.1471 57.0230 45.2253 0.0000 0.0000 0.0000
# 2 57.0230 93.1471 45.2253 0.0000 0.0000 0.0000
# 3 45.2253 45.2253 83.2671 0.0000 0.0000 0.0000
# 4 0.0000 0.0000 0.0000 26.1490 0.0000 0.0000
# 5 0.0000 0.0000 0.0000 0.0000 26.1490 0.0000
# 6 0.0000 0.0000 0.0000 0.0000 0.0000 24.4797
#
#
#
# Elastic Compliance Matrix: (Units=1/GPa)
#
#
# Indices 1 2 3 4 5 6 
#
# 1 0.018790 -0.008893 -0.005375 0.000000 0.000000 0.000000
# 2 -0.008893 0.018790 -0.005375 0.000000 0.000000 0.000000
# 3 -0.005375 -0.005375 0.017849 0.000000 0.000000 0.000000
# 4 0.000000 0.000000 0.000000 0.038242 0.000000 0.000000
# 5 0.000000 0.000000 0.000000 0.000000 0.038242 0.000000
# 6 0.000000 0.000000 0.000000 0.000000 0.000000 0.040850
#
#
# Mechanical properties :
#
#
# Convention : Reuss Voigt Hill
#
# Bulk Modulus (GPa) = 61.95423 62.72319 62.33871
# Shear Modulus (GPa) = 22.99594 23.49471 23.24533
#
# Velocity S-wave (km/s) = 3.63583 3.67505 3.65549
# Velocity P-wave (km/s) = 7.29658 7.35285 7.32477
#
# Compressibility (1/GPa) = 0.01614095
#
# Stress axis : x y z
#
# Youngs Moduli (GPa) = 53.22111 53.22111 56.02697
#
# Poissons Ratio (x) = 0.47328 0.30116
# Poissons Ratio (y) = 0.47328 0.30116
# Poissons Ratio (z) = 0.28608 0.28608
#
# Static dielectric constant tensor:
#      x y z
#    x 3.225880 0.000000 0.000000 
#    y 0.000000 3.225880 0.000000 
#    z 0.000000 0.000000 3.294780 
# 
# 
# High freq. dielectric constant tensor:
#      x y z
#    x 1.663050 0.000000 0.000000 
#    y 0.000000 1.663050 0.000000 
#    z 0.000000 0.000000 1.672920 
# 
# From -- ./inp_files/2054.got.cif
#   From: 2010.03.12/outbox.cif.g09.slc.cpg/sg136_2_cif.got.tgz:2054.got - 2010.04.06 18:39:43.
