data_PCOD8317861
_publ_section_title
;
Structure prediction by ZEFSAII (Michael W. Deem and Ramdas Pophale) SiO2 
 PCOD8317861
Probable space group: P 42/M N M
;
_chemical_formula_sum "Si O2"
_cell_formula_units_Z 128
_cell_length_a 25.900313
_cell_length_b 25.900313
_cell_length_c 10.166481
_cell_angle_alpha 90.000000
_cell_angle_beta 90.000000
_cell_angle_gamma 90.000000
_cell_volume 6819.941954
_symmetry_space_group_name_H-M "P 42/M N M"
_symmetry_group_IT_number 136
_symmetry_cell_setting 'tetragonal'
loop_
_space_group_symop_operation_xyz
x,y,z
1/2-y,1/2+x,1/2+z
-x,-y,z
1/2+y,1/2-x,1/2+z
1/2+x,1/2-y,1/2-z
1/2-x,1/2+y,1/2-z
y,x,-z
-y,-x,-z
-x,-y,-z
1/2+y,1/2-x,1/2-z
x,y,-z
1/2-y,1/2+x,1/2-z
1/2-x,1/2+y,1/2+z
1/2+x,1/2-y,1/2+z
-y,-x,z
y,x,z
loop_
_atom_site_type_symbol
_atom_site_label
_atom_site_fract_x
_atom_site_fract_y
_atom_site_fract_z
Si Si1 0.686121 0.171718 0.650804
Si Si2 0.522304 0.712420 0.655627
Si Si3 0.085350 0.604089 0.351599
Si Si4 0.725276 0.641010 0.349823
Si Si5 0.562882 0.360039 0.354267
Si Si6 0.721300 0.360660 0.732882
Si Si7 0.266767 0.045297 0.642930
Si Si8 0.969426 0.619019 0.356341
O O1 0.704649 0.163131 0.500000
O O2 0.644815 0.128522 0.692310
O O3 0.733659 0.165660 0.750558
O O4 0.661742 0.228613 0.659419
O O5 0.512586 0.722108 0.500000
O O6 0.582534 0.710370 0.689424
O O7 0.492117 0.659782 0.704139
O O8 0.495738 0.757295 0.740557
O O9 0.096109 0.585134 0.500000
O O10 0.083711 0.554055 0.257796
O O11 0.029876 0.630491 0.336239
O O12 0.746856 0.643220 0.500000
O O13 0.672566 0.672566 0.338167
O O14 0.551009 0.379175 0.500000
O O15 0.591082 0.408919 0.278860
O O16 0.603812 0.312720 0.364397
O O17 0.687121 0.312880 0.788327
O O18 0.737391 0.399845 0.848625
O O19 0.252710 0.020930 0.500000
O O20 0.326662 0.059740 0.649965
O O21 0.960323 0.592866 0.500000
#
# Coordination Sequence:
#
# PCOD8317861 Si02
#       8
#    16  16  16  16  16  16  16  16
#     4  11  22  37  57  81 110 144 185 228 270 319
#     4   9  18  33  54  77 103 142 186 224 266 319
#     4  10  22  38  58  81 105 136 180 229 272 322
#     4  10  22  38  54  76 110 150 188 225 268 321
#     4   8  14  26  47  76 105 130 163 212 265 313
#     4  10  19  31  51  79 110 141 173 210 262 325
#     4  10  20  35  55  79 110 141 175 221 272 322
#     4  10  21  38  56  77 105 138 176 222 276 326
#
# _framework density 18.768488000000001
#
# number of rings (size 3 to 8) (size 9 to 14) (size 15 to 20)
#    0.000    2.250    1.250    1.500    0.000    6.000 
#    0.000    1.250    0.000    0.375    0.000    2.625 
#    0.000    0.000    0.000    7.375    0.000    3.750 
#
# Total GULP energy -1585699.850985 kJ/mol
# GULP energy per Si atom -12388.280086 kJ/mol
# Density = 1.872577 g / cm^3
# Si number density = 18.768488 Si / 1000 Ang^3
#
#
#
# Elastic Constant Matrix: (Units=GPa)
#
#
# Indices 1 2 3 4 5 6 
#
# 1 77.7149 29.6152 34.5897 0.0000 0.0000 0.0000
# 2 29.6152 77.7149 34.5897 0.0000 0.0000 0.0000
# 3 34.5897 34.5897 86.6936 0.0000 0.0000 0.0000
# 4 0.0000 0.0000 0.0000 21.4582 0.0000 0.0000
# 5 0.0000 0.0000 0.0000 0.0000 21.4582 0.0000
# 6 0.0000 0.0000 0.0000 0.0000 0.0000 21.9439
#
#
#
# Elastic Compliance Matrix: (Units=1/GPa)
#
#
# Indices 1 2 3 4 5 6 
#
# 1 0.016666 -0.004124 -0.005004 0.000000 0.000000 0.000000
# 2 -0.004124 0.016666 -0.005004 0.000000 0.000000 0.000000
# 3 -0.005004 -0.005004 0.015528 0.000000 0.000000 0.000000
# 4 0.000000 0.000000 0.000000 0.046602 0.000000 0.000000
# 5 0.000000 0.000000 0.000000 0.000000 0.046602 0.000000
# 6 0.000000 0.000000 0.000000 0.000000 0.000000 0.045571
#
#
# Mechanical properties :
#
#
# Convention : Reuss Voigt Hill
#
# Bulk Modulus (GPa) = 48.55306 48.85697 48.70502
# Shear Modulus (GPa) = 22.44505 22.52733 22.48619
#
# Velocity S-wave (km/s) = 3.46192 3.46826 3.46509
# Velocity P-wave (km/s) = 6.47344 6.49048 6.48196
#
# Compressibility (1/GPa) = 0.02059602
#
# Stress axis : x y z
#
# Youngs Moduli (GPa) = 60.00109 60.00109 64.39885
#
# Poissons Ratio (x) = 0.24743 0.32227
# Poissons Ratio (y) = 0.24743 0.32227
# Poissons Ratio (z) = 0.30027 0.30027
#
# Static dielectric constant tensor:
#      x y z
#    x 3.442690 0.000000 0.000000 
#    y 0.000000 3.442690 0.000000 
#    z 0.000000 0.000000 3.418590 
# 
# 
# High freq. dielectric constant tensor:
#      x y z
#    x 1.720580 0.000000 0.000000 
#    y 0.000000 1.720580 0.000000 
#    z 0.000000 0.000000 1.717080 
# 
# From -- ./inp_files/4084.got.cif
#   From: 2010.03.12/outbox.cif.g09.slc.cpg/sg136_3_cif.got.tgz:4084.got - 2010.04.06 18:39:43.
