data_PCOD8317183
_publ_section_title
;
Structure prediction by ZEFSAII (Michael W. Deem and Ramdas Pophale) SiO2 
 PCOD8317183
Probable space group: P 42/N N M
;
_chemical_formula_sum "Si O2"
_cell_formula_units_Z 56
_cell_length_a 16.873685
_cell_length_b 16.873685
_cell_length_c 9.732863
_cell_angle_alpha 90.000000
_cell_angle_beta 90.000000
_cell_angle_gamma 90.000000
_cell_volume 2771.152875
_symmetry_space_group_name_H-M "P 42/N N M"
_symmetry_group_IT_number 134
_space_group.IT_coordinate_system_code '2'
_symmetry_cell_setting 'tetragonal'
loop_
_space_group_symop_operation_xyz
x,y,z
1/2-y,x,1/2+z
1/2-x,1/2-y,z
y,1/2-x,1/2+z
x,1/2-y,1/2-z
1/2-x,y,1/2-z
y,x,-z
1/2-y,1/2-x,-z
-x,-y,-z
1/2+y,-x,1/2-z
1/2+x,1/2+y,-z
-y,1/2+x,1/2-z
-x,1/2+y,1/2+z
1/2+x,-y,1/2+z
-y,-x,z
1/2+y,1/2+x,z
loop_
_atom_site_type_symbol
_atom_site_label
_atom_site_fract_x
_atom_site_fract_y
_atom_site_fract_z
Si Si1 0.058823 0.431401 0.778732
Si Si2 0.954527 0.777306 0.598226
Si Si3 0.306756 0.568954 0.375527
Si Si4 0.631572 0.868428 0.500000
O O1 0.130336 0.431647 0.889238
O O2 0.085268 0.402473 0.629805
O O3 0.018527 0.518527 0.770190
O O4 0.997124 0.368588 0.832179
O O5 0.976690 0.750000 0.750000
O O6 0.883404 0.725493 0.528194
O O7 0.033440 0.761433 0.507443
O O8 0.250000 0.589282 0.250000
O O9 0.350308 0.649693 0.418862
#
# Coordination Sequence:
#
# PCOD8317183 Si02
#       4
#    16  16  16   8
#     4  10  20  36  62  89 120 164 212 258 305 376
#     4  10  21  37  60  91 128 160 209 256 318 383
#     4  11  22  40  63  87 120 160 211 265 311 375
#     4  10  19  36  59  90 132 162 198 258 320 380
#
# _framework density 20.208195
#
# number of rings (size 3 to 8) (size 9 to 14) (size 15 to 20)
#    0.000    1.714    2.857    2.143    0.000    2.571 
#    0.000    4.286    0.000    0.000    0.000    0.000 
#    0.000    0.000    0.000    0.000    0.000    0.000 
#
# Total GULP energy -694141.314732 kJ/mol
# GULP energy per Si atom -12395.380620 kJ/mol
# Density = 2.016220 g / cm^3
# Si number density = 20.208195 Si / 1000 Ang^3
#
#
#
# Elastic Constant Matrix: (Units=GPa)
#
#
# Indices 1 2 3 4 5 6 
#
# 1 94.2139 65.2280 37.6940 0.0000 0.0000 0.0000
# 2 65.2280 94.2136 37.6930 0.0000 0.0000 0.0000
# 3 37.6940 37.6930 100.5792 0.0000 0.0000 0.0000
# 4 0.0000 0.0000 0.0000 24.6564 0.0000 0.0000
# 5 0.0000 0.0000 0.0000 0.0000 24.6568 0.0000
# 6 0.0000 0.0000 0.0000 0.0000 0.0000 30.0292
#
#
#
# Elastic Compliance Matrix: (Units=1/GPa)
#
#
# Indices 1 2 3 4 5 6 
#
# 1 0.021061 -0.013439 -0.002857 0.000000 0.000000 0.000000
# 2 -0.013439 0.021061 -0.002856 0.000000 0.000000 0.000000
# 3 -0.002857 -0.002856 0.012084 0.000000 0.000000 0.000000
# 4 0.000000 0.000000 0.000000 0.040557 0.000000 0.000000
# 5 0.000000 0.000000 0.000000 0.000000 0.040557 0.000000
# 6 0.000000 0.000000 0.000000 0.000000 0.000000 0.033301
#
#
# Mechanical properties :
#
#
# Convention : Reuss Voigt Hill
#
# Bulk Modulus (GPa) = 62.88503 63.35964 63.12234
# Shear Modulus (GPa) = 23.55984 25.76125 24.66055
#
# Velocity S-wave (km/s) = 3.41817 3.57430 3.49710
# Velocity P-wave (km/s) = 6.83847 6.96101 6.90001
#
# Compressibility (1/GPa) = 0.01590204
#
# Stress axis : x y z
#
# Youngs Moduli (GPa) = 47.48067 47.48092 82.75699
#
# Poissons Ratio (x) = 0.63808 0.23642
# Poissons Ratio (y) = 0.63807 0.23639
# Poissons Ratio (z) = 0.13564 0.13563
#
# Static dielectric constant tensor:
#      x y z
#    x 3.921150 0.000000 0.000000 
#    y 0.000000 3.921160 0.000000 
#    z 0.000000 0.000000 4.579040 
# 
# 
# High freq. dielectric constant tensor:
#      x y z
#    x 1.779210 0.000000 0.000000 
#    y 0.000000 1.779210 0.000000 
#    z 0.000000 0.000000 1.811200 
# 
# From -- ./inp_files/2349.got.cif
#   From: 2010.03.12/outbox.cif.g09.slc.cpg/sg134_2_cif.got.tgz:2349.got - 2010.04.06 18:17:22.
