data_PCOD8317766
_publ_section_title
;
Structure prediction by ZEFSAII (Michael W. Deem and Ramdas Pophale) SiO2 
 PCOD8317766
Probable space group: P 42/M N M
;
_chemical_formula_sum "Si O2"
_cell_formula_units_Z 112
_cell_length_a 15.847589
_cell_length_b 15.847589
_cell_length_c 25.299017
_cell_angle_alpha 90.000000
_cell_angle_beta 90.000000
_cell_angle_gamma 90.000000
_cell_volume 6353.748874
_symmetry_space_group_name_H-M "P 42/M N M"
_symmetry_group_IT_number 136
_symmetry_cell_setting 'tetragonal'
loop_
_space_group_symop_operation_xyz
x,y,z
1/2-y,1/2+x,1/2+z
-x,-y,z
1/2+y,1/2-x,1/2+z
1/2+x,1/2-y,1/2-z
1/2-x,1/2+y,1/2-z
y,x,-z
-y,-x,-z
-x,-y,-z
1/2+y,1/2-x,1/2-z
x,y,-z
1/2-y,1/2+x,1/2-z
1/2-x,1/2+y,1/2+z
1/2+x,1/2-y,1/2+z
-y,-x,z
y,x,z
loop_
_atom_site_type_symbol
_atom_site_label
_atom_site_fract_x
_atom_site_fract_y
_atom_site_fract_z
Si Si1 0.615911 0.934864 0.439773
Si Si2 0.428030 0.877936 0.561104
Si Si3 0.257324 0.115171 0.356651
Si Si4 0.183056 0.323065 0.745932
Si Si5 0.452756 0.315547 0.288690
Si Si6 0.368870 0.495383 0.821389
Si Si7 0.251650 0.108880 0.152845
O O1 0.643652 0.927188 0.500000
O O2 0.527199 0.889848 0.430259
O O3 0.683492 0.881909 0.407060
O O4 0.615355 0.033281 0.423342
O O5 0.408532 0.854784 0.500000
O O6 0.394397 0.802860 0.598044
O O7 0.191371 0.191371 0.360868
O O8 0.313228 0.120869 0.303771
O O9 0.212522 0.023122 0.354608
O O10 0.244753 0.244753 0.746562
O O11 0.233627 0.409749 0.738298
O O12 0.130878 0.319009 0.800716
O O13 0.381461 0.381461 0.310499
O O14 0.506863 0.356425 0.241530
O O15 0.517106 0.290256 0.335351
O O16 0.443019 0.556982 0.838488
O O17 0.398459 0.398459 0.834068
O O18 0.178418 0.178418 0.147060
#
# Coordination Sequence:
#
# PCOD8317766 Si02
#       7
#    16  16  16  16  16  16  16
#     4   9  19  37  57  75  97 132 178 218 261 317
#     4   9  20  38  56  73  98 135 177 221 265 312
#     4  10  18  31  51  76 108 133 164 213 259 307
#     4   9  19  31  44  73 108 135 164 208 257 298
#     4  10  19  32  50  72 105 143 174 206 253 312
#     4   9  17  29  46  69  99 135 167 193 235 302
#     4  11  21  33  52  79 108 137 176 220 260 308
#
# _framework density 17.627389000000001
#
# number of rings (size 3 to 8) (size 9 to 14) (size 15 to 20)
#    0.000    2.429    1.429    2.143    2.000    1.429 
#    0.000    0.000    0.000    4.286    0.000    3.000 
#    0.000    0.000    0.000    0.000    0.000    0.000 
#
# Total GULP energy -1388035.638089 kJ/mol
# GULP energy per Si atom -12393.175340 kJ/mol
# Density = 1.758727 g / cm^3
# Si number density = 17.627389 Si / 1000 Ang^3
#
#
#
# Elastic Constant Matrix: (Units=GPa)
#
#
# Indices 1 2 3 4 5 6 
#
# 1 71.6014 33.3278 45.7586 0.0000 0.0000 0.0000
# 2 33.3278 71.6014 45.7586 0.0000 0.0000 0.0000
# 3 45.7586 45.7586 97.8602 0.0000 0.0000 0.0000
# 4 0.0000 0.0000 0.0000 31.1470 0.0000 0.0000
# 5 0.0000 0.0000 0.0000 0.0000 31.1470 0.0000
# 6 0.0000 0.0000 0.0000 0.0000 0.0000 18.5239
#
#
#
# Elastic Compliance Matrix: (Units=1/GPa)
#
#
# Indices 1 2 3 4 5 6 
#
# 1 0.021111 -0.005017 -0.007525 0.000000 0.000000 0.000000
# 2 -0.005017 0.021111 -0.007525 0.000000 0.000000 0.000000
# 3 -0.007525 -0.007525 0.017256 0.000000 0.000000 0.000000
# 4 0.000000 0.000000 0.000000 0.032106 0.000000 0.000000
# 5 0.000000 0.000000 0.000000 0.000000 0.032106 0.000000
# 6 0.000000 0.000000 0.000000 0.000000 0.000000 0.053984
#
#
# Mechanical properties :
#
#
# Convention : Reuss Voigt Hill
#
# Bulk Modulus (GPa) = 51.69987 54.52808 53.11397
# Shear Modulus (GPa) = 22.29597 23.91145 23.10371
#
# Velocity S-wave (km/s) = 3.56033 3.68706 3.62425
# Velocity P-wave (km/s) = 6.80398 7.00905 6.90728
#
# Compressibility (1/GPa) = 0.01934241
#
# Stress axis : x y z
#
# Youngs Moduli (GPa) = 47.36951 47.36951 57.95049
#
# Poissons Ratio (x) = 0.23765 0.43609
# Poissons Ratio (y) = 0.23765 0.43609
# Poissons Ratio (z) = 0.35647 0.35647
#
# Static dielectric constant tensor:
#      x y z
#    x 3.293470 0.000000 0.000000 
#    y 0.000000 3.293470 0.000000 
#    z 0.000000 0.000000 3.082580 
# 
# 
# High freq. dielectric constant tensor:
#      x y z
#    x 1.679200 0.000000 0.000000 
#    y 0.000000 1.679200 0.000000 
#    z 0.000000 0.000000 1.658010 
# 
# From -- ./inp_files/8504.got.cif
#   From: 2010.03.12/outbox.cif.g09.slc.cpg/sg136_5_cif.got.tgz:8504.got - 2010.04.06 18:39:43.
