data_PCOD8317801
_publ_section_title
;
Structure prediction by ZEFSAII (Michael W. Deem and Ramdas Pophale) SiO2 
 PCOD8317801
Probable space group: P 42/M N M
;
_chemical_formula_sum "Si O2"
_cell_formula_units_Z 80
_cell_length_a 19.751718
_cell_length_b 19.751718
_cell_length_c 13.774901
_cell_angle_alpha 90.000000
_cell_angle_beta 90.000000
_cell_angle_gamma 90.000000
_cell_volume 5374.007141
_symmetry_space_group_name_H-M "P 42/M N M"
_symmetry_group_IT_number 136
_symmetry_cell_setting 'tetragonal'
loop_
_space_group_symop_operation_xyz
x,y,z
1/2-y,1/2+x,1/2+z
-x,-y,z
1/2+y,1/2-x,1/2+z
1/2+x,1/2-y,1/2-z
1/2-x,1/2+y,1/2-z
y,x,-z
-y,-x,-z
-x,-y,-z
1/2+y,1/2-x,1/2-z
x,y,-z
1/2-y,1/2+x,1/2-z
1/2-x,1/2+y,1/2+z
1/2+x,1/2-y,1/2+z
-y,-x,z
y,x,z
loop_
_atom_site_type_symbol
_atom_site_label
_atom_site_fract_x
_atom_site_fract_y
_atom_site_fract_z
Si Si1 0.183479 0.929110 0.797576
Si Si2 0.169038 0.717409 0.106604
Si Si3 0.815527 0.928192 0.886998
Si Si4 0.716545 0.830563 0.797200
Si Si5 0.234316 0.879257 0.393302
O O1 0.117204 0.882797 0.806907
O O2 0.244860 0.899739 0.861946
O O3 0.208853 0.933973 0.685613
O O4 0.163471 0.002672 0.835185
O O5 0.227340 0.772661 0.102849
O O6 0.190136 0.660612 0.185914
O O7 0.159130 0.683951 0.000000
O O8 0.876943 0.876943 0.870325
O O9 0.746400 0.900529 0.838002
O O10 0.801531 0.940240 0.000000
O O11 0.774107 0.774107 0.801876
O O12 0.653186 0.806484 0.862904
O O13 0.240766 0.913294 0.500000
O O14 0.181001 0.819000 0.395539
#
# Coordination Sequence:
#
# PCOD8317801 Si02
#       5
#    16  16  16  16  16
#     4   9  17  27  39  57  80 107 139 167 188 221
#     4   8  13  23  40  58  75  96 124 162 205 241
#     4  10  19  28  38  54  80 111 137 162 192 228
#     4   8  14  24  38  57  77  97 125 161 201 239
#     4   8  13  24  43  60  72  91 124 168 211 241
#
# _framework density 14.886471
#
# number of rings (size 3 to 8) (size 9 to 14) (size 15 to 20)
#    0.000    3.400    0.000    3.600    0.000    4.000 
#    0.000    2.000    0.000    1.800    0.000    2.800 
#    0.000   12.800    0.000   46.400    0.000    5.600 
#
# Total GULP energy -991264.140378 kJ/mol
# GULP energy per Si atom -12390.801755 kJ/mol
# Density = 1.485259 g / cm^3
# Si number density = 14.886471 Si / 1000 Ang^3
#
#
#
# Elastic Constant Matrix: (Units=GPa)
#
#
# Indices 1 2 3 4 5 6 
#
# 1 40.6071 37.2246 42.0058 0.0000 0.0000 0.0000
# 2 37.2246 40.6071 42.0058 0.0000 0.0000 0.0000
# 3 42.0058 42.0058 152.1196 0.0000 0.0000 0.0000
# 4 0.0000 0.0000 0.0000 18.3137 0.0000 0.0000
# 5 0.0000 0.0000 0.0000 0.0000 18.3137 0.0000
# 6 0.0000 0.0000 0.0000 0.0000 0.0000 8.8042
#
#
#
# Elastic Compliance Matrix: (Units=1/GPa)
#
#
# Indices 1 2 3 4 5 6 
#
# 1 0.156971 -0.138667 -0.005054 0.000000 0.000000 0.000000
# 2 -0.138667 0.156971 -0.005054 0.000000 0.000000 0.000000
# 3 -0.005054 -0.005054 0.009365 0.000000 0.000000 0.000000
# 4 0.000000 0.000000 0.000000 0.054604 0.000000 0.000000
# 5 0.000000 0.000000 0.000000 0.000000 0.054604 0.000000
# 6 0.000000 0.000000 0.000000 0.000000 0.000000 0.113582
#
#
# Mechanical properties :
#
#
# Convention : Reuss Voigt Hill
#
# Bulk Modulus (GPa) = 38.82667 52.86735 45.84701
# Shear Modulus (GPa) = 5.86695 16.55952 11.21323
#
# Velocity S-wave (km/s) = 1.98738 3.33886 2.74752
# Velocity P-wave (km/s) = 5.60399 7.10315 6.39764
#
# Compressibility (1/GPa) = 0.02575549
#
# Stress axis : x y z
#
# Youngs Moduli (GPa) = 6.37062 6.37062 106.77869
#
# Poissons Ratio (x) = 0.88339 0.53970
# Poissons Ratio (y) = 0.88339 0.53970
# Poissons Ratio (z) = 0.03220 0.03220
#
# Static dielectric constant tensor:
#      x y z
#    x 2.560430 0.000000 0.000000 
#    y 0.000000 2.560430 0.000000 
#    z 0.000000 0.000000 3.486490 
# 
# 
# High freq. dielectric constant tensor:
#      x y z
#    x 1.528600 0.000000 0.000000 
#    y 0.000000 1.528600 0.000000 
#    z 0.000000 0.000000 1.590590 
# 
# From -- ./inp_files/4874.got.cif
#   From: 2010.03.12/outbox.cif.g09.slc.cpg/sg136_3_cif.got.tgz:4874.got - 2010.04.06 18:39:43.
