data_PCOD8317620
_publ_section_title
;
Structure prediction by ZEFSAII (Michael W. Deem and Ramdas Pophale) SiO2 
 PCOD8317620
Probable space group: P 42/M B C
;
_chemical_formula_sum "Si O2"
_cell_formula_units_Z 112
_cell_length_a 18.965881
_cell_length_b 18.965881
_cell_length_c 18.285651
_cell_angle_alpha 90.000000
_cell_angle_beta 90.000000
_cell_angle_gamma 90.000000
_cell_volume 6577.433549
_symmetry_space_group_name_H-M "P 42/M B C"
_symmetry_group_IT_number 135
_symmetry_cell_setting 'tetragonal'
loop_
_space_group_symop_operation_xyz
x,y,z
-y,x,1/2+z
-x,-y,z
y,-x,1/2+z
1/2+x,1/2-y,-z
1/2-x,1/2+y,-z
1/2+y,1/2+x,1/2-z
1/2-y,1/2-x,1/2-z
-x,-y,-z
y,-x,1/2-z
x,y,-z
-y,x,1/2-z
1/2-x,1/2+y,z
1/2+x,1/2-y,z
1/2-y,1/2-x,1/2+z
1/2+y,1/2+x,1/2+z
loop_
_atom_site_type_symbol
_atom_site_label
_atom_site_fract_x
_atom_site_fract_y
_atom_site_fract_z
Si Si1 0.646313 0.733967 0.829838
Si Si2 0.880599 0.739919 0.670100
Si Si3 0.287567 0.019672 0.913843
Si Si4 0.875694 0.733470 0.838564
Si Si5 0.238350 0.152650 0.838757
Si Si6 0.288271 0.020335 0.413723
Si Si7 0.555514 0.943569 0.413086
O O1 0.687036 0.660733 0.842635
O O2 0.695363 0.797786 0.857381
O O3 0.627528 0.742729 0.744875
O O4 0.574490 0.733943 0.876140
O O5 0.901074 0.730932 0.754827
O O6 0.832914 0.674372 0.644226
O O7 0.950204 0.743923 0.622215
O O8 0.238887 0.085459 0.891621
O O9 0.366683 0.033256 0.884353
O O10 0.285950 0.009636 0.000000
O O11 0.833677 0.805502 0.853691
O O12 0.941307 0.732291 0.892795
O O13 0.282503 0.029703 0.500000
O O14 0.366912 0.036700 0.384305
O O15 0.554781 0.945285 0.500000
O O16 0.500000 0.000000 0.380972
#
# Coordination Sequence:
#
# PCOD8317620 Si02
#       7
#    16  16  16  16  16  16  16
#     4   9  18  34  54  73  98 134 175 216 254 300
#     4   9  19  35  53  74 101 135 175 215 254 301
#     4  11  20  31  50  76 106 138 169 209 257 306
#     4   9  19  35  53  74 101 135 175 215 254 301
#     4   9  18  34  54  73  98 134 175 216 254 300
#     4  11  20  31  50  76 106 138 169 209 257 306
#     4   9  18  30  43  67 107 143 165 192 243 304
#
# _framework density 17.027919000000001
#
# number of rings (size 3 to 8) (size 9 to 14) (size 15 to 20)
#    0.000    2.429    1.429    3.429    0.000    2.857 
#    0.000    2.857    0.000    4.286    0.000    6.000 
#    0.000    0.000    0.000    0.000    0.000    0.000 
#
# Total GULP energy -1389020.169848 kJ/mol
# GULP energy per Si atom -12401.965802 kJ/mol
# Density = 1.698916 g / cm^3
# Si number density = 17.027919 Si / 1000 Ang^3
#
#
#
# Elastic Constant Matrix: (Units=GPa)
#
#
# Indices 1 2 3 4 5 6 
#
# 1 69.1435 22.7774 11.7728 0.0000 0.0000 0.0000
# 2 22.7774 69.1435 11.7728 0.0000 0.0000 0.0000
# 3 11.7728 11.7728 23.6654 0.0000 0.0000 0.0000
# 4 0.0000 0.0000 0.0000 27.2355 0.0000 0.0000
# 5 0.0000 0.0000 0.0000 0.0000 27.2355 0.0000
# 6 0.0000 0.0000 0.0000 0.0000 0.0000 23.1362
#
#
#
# Elastic Compliance Matrix: (Units=1/GPa)
#
#
# Indices 1 2 3 4 5 6 
#
# 1 0.017018 -0.004550 -0.006202 0.000000 0.000000 0.000000
# 2 -0.004550 0.017018 -0.006202 0.000000 0.000000 0.000000
# 3 -0.006202 -0.006202 0.048427 0.000000 0.000000 0.000000
# 4 0.000000 0.000000 0.000000 0.036717 0.000000 0.000000
# 5 0.000000 0.000000 0.000000 0.000000 0.036717 0.000000
# 6 0.000000 0.000000 0.000000 0.000000 0.000000 0.043222
#
#
# Mechanical properties :
#
#
# Convention : Reuss Voigt Hill
#
# Bulk Modulus (GPa) = 20.59610 28.28871 24.44241
# Shear Modulus (GPa) = 20.06333 23.23007 21.64670
#
# Velocity S-wave (km/s) = 3.43630 3.69756 3.56932
# Velocity P-wave (km/s) = 5.27883 5.90580 5.60109
#
# Compressibility (1/GPa) = 0.04855288
#
# Stress axis : x y z
#
# Youngs Moduli (GPa) = 58.76277 58.76277 20.64977
#
# Poissons Ratio (x) = 0.26737 0.12808
# Poissons Ratio (y) = 0.26737 0.12808
# Poissons Ratio (z) = 0.36446 0.36446
#
# Static dielectric constant tensor:
#      x y z
#    x 3.100820 0.000000 0.000000 
#    y 0.000000 3.100820 0.000000 
#    z 0.000000 0.000000 2.974780 
# 
# 
# High freq. dielectric constant tensor:
#      x y z
#    x 1.649130 0.000000 0.000000 
#    y 0.000000 1.649130 0.000000 
#    z 0.000000 0.000000 1.647180 
# 
# From -- ./inp_files/5669.got.cif
#   From: 2010.03.12/outbox.cif.g09.slc.cpg/sg135_3_cif.got.tgz:5669.got - 2010.04.06 18:31:24.
