data_PCOD8317436
_publ_section_title
;
Structure prediction by ZEFSAII (Michael W. Deem and Ramdas Pophale) SiO2 
 PCOD8317436
Probable space group: P 42/M B C
;
_chemical_formula_sum "Si O2"
_cell_formula_units_Z 64
_cell_length_a 13.337550
_cell_length_b 13.337550
_cell_length_c 17.665984
_cell_angle_alpha 90.000000
_cell_angle_beta 90.000000
_cell_angle_gamma 90.000000
_cell_volume 3142.606134
_symmetry_space_group_name_H-M "P 42/M B C"
_symmetry_group_IT_number 135
_symmetry_cell_setting 'tetragonal'
loop_
_space_group_symop_operation_xyz
x,y,z
-y,x,1/2+z
-x,-y,z
y,-x,1/2+z
1/2+x,1/2-y,-z
1/2-x,1/2+y,-z
1/2+y,1/2+x,1/2-z
1/2-y,1/2-x,1/2-z
-x,-y,-z
y,-x,1/2-z
x,y,-z
-y,x,1/2-z
1/2-x,1/2+y,z
1/2+x,1/2-y,z
1/2-y,1/2-x,1/2+z
1/2+y,1/2+x,1/2+z
loop_
_atom_site_type_symbol
_atom_site_label
_atom_site_fract_x
_atom_site_fract_y
_atom_site_fract_z
Si Si1 0.213942 0.121656 0.183130
Si Si2 0.237652 0.392389 0.794982
Si Si3 0.523496 0.390733 0.087241
Si Si4 0.269143 0.676497 0.411601
O O1 0.178989 0.175535 0.259621
O O2 0.123482 0.145405 0.126673
O O3 0.310318 0.167921 0.139048
O O4 0.239071 0.008978 0.206995
O O5 0.133713 0.366288 0.750000
O O6 0.241459 0.352379 0.881978
O O7 0.500000 0.500000 0.122596
O O8 0.435230 0.311537 0.100990
O O9 0.548946 0.403523 0.000000
O O10 0.248147 0.696973 0.500000
#
# Coordination Sequence:
#
# PCOD8317436 Si02
#       4
#    16  16  16  16
#     4  11  21  36  60  86 124 163 200 250 314 363
#     4  10  22  36  57  91 120 159 204 254 307 371
#     4  10  19  33  58  90 120 159 211 253 295 356
#     4  10  21  36  56  88 124 158 207 259 303 359
#
# _framework density 20.365262999999999
#
# number of rings (size 3 to 8) (size 9 to 14) (size 15 to 20)
#    0.000    1.750    2.500    2.250    0.000    1.000 
#    0.000    0.000    0.000   35.250    0.000   24.500 
#    0.000    0.000    0.000    0.000    0.000    0.000 
#
# Total GULP energy -792912.222474 kJ/mol
# GULP energy per Si atom -12389.253476 kJ/mol
# Density = 2.031891 g / cm^3
# Si number density = 20.365263 Si / 1000 Ang^3
#
#
#
# Elastic Constant Matrix: (Units=GPa)
#
#
# Indices 1 2 3 4 5 6 
#
# 1 98.8595 56.9256 48.6965 0.0000 0.0000 0.0000
# 2 56.9256 98.8567 48.6968 0.0000 0.0000 0.0000
# 3 48.6965 48.6968 83.3919 0.0000 0.0000 0.0000
# 4 0.0000 0.0000 0.0000 28.8558 0.0000 0.0000
# 5 0.0000 0.0000 0.0000 0.0000 28.8559 0.0000
# 6 0.0000 0.0000 0.0000 0.0000 0.0000 25.9160
#
#
#
# Elastic Compliance Matrix: (Units=1/GPa)
#
#
# Indices 1 2 3 4 5 6 
#
# 1 0.016979 -0.006869 -0.005904 0.000000 0.000000 0.000000
# 2 -0.006869 0.016979 -0.005904 0.000000 0.000000 0.000000
# 3 -0.005904 -0.005904 0.018887 0.000000 0.000000 0.000000
# 4 0.000000 0.000000 0.000000 0.034655 0.000000 0.000000
# 5 0.000000 0.000000 0.000000 0.000000 0.034655 0.000000
# 6 0.000000 0.000000 0.000000 0.000000 0.000000 0.038586
#
#
# Mechanical properties :
#
#
# Convention : Reuss Voigt Hill
#
# Bulk Modulus (GPa) = 64.55088 65.52731 65.03910
# Shear Modulus (GPa) = 24.59935 25.17817 24.88876
#
# Velocity S-wave (km/s) = 3.47927 3.51996 3.49967
# Velocity P-wave (km/s) = 6.92140 6.98327 6.95240
#
# Compressibility (1/GPa) = 0.01549166
#
# Stress axis : x y z
#
# Youngs Moduli (GPa) = 58.89774 58.89501 52.94762
#
# Poissons Ratio (x) = 0.40454 0.31258
# Poissons Ratio (y) = 0.40456 0.31261
# Poissons Ratio (z) = 0.34770 0.34772
#
# Static dielectric constant tensor:
#      x y z
#    x 3.672660 0.000000 0.000000 
#    y 0.000000 3.672670 0.000000 
#    z 0.000000 0.000000 4.039900 
# 
# 
# High freq. dielectric constant tensor:
#      x y z
#    x 1.780880 0.000000 0.000000 
#    y 0.000000 1.780880 0.000000 
#    z 0.000000 0.000000 1.817960 
# 
# From -- ./inp_files/4141.got.cif
#   From: 2010.03.12/outbox.cif.g09.slc.cpg/sg135_3_cif.got.tgz:4141.got - 2010.04.06 18:31:24.
