data_PCOD8317651
_publ_section_title
;
Structure prediction by ZEFSAII (Michael W. Deem and Ramdas Pophale) SiO2 
 PCOD8317651
Probable space group: P 42/M B C
;
_chemical_formula_sum "Si O2"
_cell_formula_units_Z 64
_cell_length_a 14.163477
_cell_length_b 14.163477
_cell_length_c 14.694785
_cell_angle_alpha 90.000000
_cell_angle_beta 90.000000
_cell_angle_gamma 90.000000
_cell_volume 2947.833836
_symmetry_space_group_name_H-M "P 42/M B C"
_symmetry_group_IT_number 135
_symmetry_cell_setting 'tetragonal'
loop_
_space_group_symop_operation_xyz
x,y,z
-y,x,1/2+z
-x,-y,z
y,-x,1/2+z
1/2+x,1/2-y,-z
1/2-x,1/2+y,-z
1/2+y,1/2+x,1/2-z
1/2-y,1/2-x,1/2-z
-x,-y,-z
y,-x,1/2-z
x,y,-z
-y,x,1/2-z
1/2-x,1/2+y,z
1/2+x,1/2-y,z
1/2-y,1/2-x,1/2+z
1/2+y,1/2+x,1/2+z
loop_
_atom_site_type_symbol
_atom_site_label
_atom_site_fract_x
_atom_site_fract_y
_atom_site_fract_z
Si Si1 0.611237 0.406618 0.242416
Si Si2 0.532401 0.902340 0.151109
Si Si3 0.760076 0.844899 0.400208
Si Si4 0.874049 0.743250 0.894986
O O1 0.513389 0.384968 0.294393
O O2 0.692359 0.399318 0.317585
O O3 0.619358 0.343612 0.153407
O O4 0.568126 0.931875 0.250000
O O5 0.621486 0.850195 0.102804
O O6 0.440268 0.834087 0.153540
O O7 0.500000 0.000000 0.100502
O O8 0.798972 0.874007 0.500000
O O9 0.782874 0.735423 0.385342
O O10 0.904999 0.753412 0.000000
#
# Coordination Sequence:
#
# PCOD8317651 Si02
#       4
#    16  16  16  16
#     4  11  24  41  69  98 131 182 234 293 359 418
#     4  11  25  43  71 105 141 192 236 296 359 431
#     4  11  25  44  70 103 143 188 236 291 357 432
#     4  11  25  44  68 100 141 185 236 295 358 430
#
# _framework density 21.710858000000002
#
# number of rings (size 3 to 8) (size 9 to 14) (size 15 to 20)
#    0.000    1.000    2.500    3.000    7.000    3.000 
#    0.000    7.500    0.000    0.000    0.000    0.000 
#    0.000    0.000    0.000    0.000    0.000    0.000 
#
# Total GULP energy -792975.438088 kJ/mol
# GULP energy per Si atom -12390.241220 kJ/mol
# Density = 2.166144 g / cm^3
# Si number density = 21.710858 Si / 1000 Ang^3
#
#
#
# Elastic Constant Matrix: (Units=GPa)
#
#
# Indices 1 2 3 4 5 6 
#
# 1 107.3364 32.4516 41.9660 0.0000 0.0000 0.0000
# 2 32.4516 107.3364 41.9660 0.0000 0.0000 0.0000
# 3 41.9660 41.9660 106.5965 0.0000 0.0000 0.0000
# 4 0.0000 0.0000 0.0000 -22.6310 0.0000 0.0000
# 5 0.0000 0.0000 0.0000 0.0000 -22.6238 0.0000
# 6 0.0000 0.0000 0.0000 0.0000 0.0000 40.7326
#
#
#
# Elastic Compliance Matrix: (Units=1/GPa)
#
#
# Indices 1 2 3 4 5 6 
#
# 1 0.011361 -0.001993 -0.003688 0.000000 0.000000 0.000000
# 2 -0.001993 0.011361 -0.003688 0.000000 0.000000 0.000000
# 3 -0.003688 -0.003688 0.012285 0.000000 0.000000 0.000000
# 4 0.000000 0.000000 0.000000 -0.044187 0.000000 0.000000
# 5 0.000000 0.000000 0.000000 0.000000 -0.044201 0.000000
# 6 0.000000 0.000000 0.000000 0.000000 0.000000 0.024550
#
#
# Mechanical properties :
#
#
# Convention : Reuss Voigt Hill
#
# Bulk Modulus (GPa) = 61.46719 61.55962 61.51340
# Shear Modulus (GPa) = -1070.69803 12.75463 -528.97170
#
# Velocity S-wave (km/s) = -22.23135 2.42642 -15.62603
# Velocity P-wave (km/s) = 25.11184 6.02212 17.23860
#
# Compressibility (1/GPa) = 0.01626884
#
# Stress axis : x y z
#
# Youngs Moduli (GPa) = 88.02053 88.02043 81.39917
#
# Poissons Ratio (x) = 0.17541 0.30021
# Poissons Ratio (y) = 0.17541 0.30021
# Poissons Ratio (z) = 0.32463 0.32463
#
# Static dielectric constant tensor:
#      x y z
#    x 4.300290 0.000000 0.000000 
#    y 0.000000 4.300290 0.000000 
#    z 0.000000 0.000000 3.843670 
# 
# 
# High freq. dielectric constant tensor:
#      x y z
#    x 1.863860 0.000000 0.000000 
#    y 0.000000 1.863860 0.000000 
#    z 0.000000 0.000000 1.844810 
# 
# From -- ./inp_files/3140.got.cif
#   From: 2010.03.12/outbox.cif.g09.slc.cpg/sg135_2_cif.got.tgz:3140.got - 2010.04.06 18:31:24.
