data_PCOD8317475
_publ_section_title
;
Structure prediction by ZEFSAII (Michael W. Deem and Ramdas Pophale) SiO2 
 PCOD8317475
Probable space group: P 42/M B C
;
_chemical_formula_sum "Si O2"
_cell_formula_units_Z 96
_cell_length_a 23.964436
_cell_length_b 23.964436
_cell_length_c 8.988934
_cell_angle_alpha 90.000000
_cell_angle_beta 90.000000
_cell_angle_gamma 90.000000
_cell_volume 5162.292596
_symmetry_space_group_name_H-M "P 42/M B C"
_symmetry_group_IT_number 135
_symmetry_cell_setting 'tetragonal'
loop_
_space_group_symop_operation_xyz
x,y,z
-y,x,1/2+z
-x,-y,z
y,-x,1/2+z
1/2+x,1/2-y,-z
1/2-x,1/2+y,-z
1/2+y,1/2+x,1/2-z
1/2-y,1/2-x,1/2-z
-x,-y,-z
y,-x,1/2-z
x,y,-z
-y,x,1/2-z
1/2-x,1/2+y,z
1/2+x,1/2-y,z
1/2-y,1/2-x,1/2+z
1/2+y,1/2+x,1/2+z
loop_
_atom_site_type_symbol
_atom_site_label
_atom_site_fract_x
_atom_site_fract_y
_atom_site_fract_z
Si Si1 0.440076 0.450118 0.670936
Si Si2 0.227206 0.054415 0.326090
Si Si3 0.645447 0.061996 0.326747
Si Si4 0.851999 0.434830 0.329031
Si Si5 0.058893 0.238616 0.328975
Si Si6 0.373055 0.633855 0.332092
O O1 0.425931 0.512703 0.719563
O O2 0.458764 0.448108 0.500000
O O3 0.387023 0.412918 0.701149
O O4 0.228069 0.038404 0.500000
O O5 0.288626 0.072410 0.270833
O O6 0.188154 0.108779 0.295458
O O7 0.209536 0.997502 0.239184
O O8 0.599075 0.099075 0.250000
O O9 0.648403 0.076507 0.500000
O O10 0.705712 0.074747 0.258239
O O11 0.628116 0.997957 0.299321
O O12 0.892479 0.392479 0.250000
O O13 0.854603 0.419181 0.500000
O O14 0.045425 0.252578 0.500000
O O15 0.115220 0.200135 0.319532
O O16 0.389708 0.614606 0.500000
#
# Coordination Sequence:
#
# PCOD8317475 Si02
#       6
#    16  16  16  16  16  16
#     4  11  21  32  46  66  95 129 170 221 277 328
#     4   9  19  36  54  74 106 145 180 219 268 318
#     4  10  21  38  59  83 111 142 175 213 263 320
#     4   9  19  35  56  81 108 139 172 209 258 314
#     4  10  20  34  54  80 108 141 182 226 271 318
#     4  10  20  34  52  74 102 138 181 224 266 315
#
# _framework density 18.596387
#
# number of rings (size 3 to 8) (size 9 to 14) (size 15 to 20)
#    0.000    2.167    0.000    5.000    0.000    8.333 
#    0.000    2.500    0.000    2.000    0.000    0.000 
#    0.000    0.000    0.000    0.000    0.000    0.000 
#
# Total GULP energy -1189588.648458 kJ/mol
# GULP energy per Si atom -12391.548421 kJ/mol
# Density = 1.855406 g / cm^3
# Si number density = 18.596387 Si / 1000 Ang^3
#
#
#
# Elastic Constant Matrix: (Units=GPa)
#
#
# Indices 1 2 3 4 5 6 
#
# 1 100.4694 59.3319 45.6946 0.0000 0.0000 0.0000
# 2 59.3319 100.4694 45.6946 0.0000 0.0000 0.0000
# 3 45.6946 45.6946 98.3333 0.0000 0.0000 0.0000
# 4 0.0000 0.0000 0.0000 30.7569 0.0000 0.0000
# 5 0.0000 0.0000 0.0000 0.0000 30.7569 0.0000
# 6 0.0000 0.0000 0.0000 0.0000 0.0000 38.9342
#
#
#
# Elastic Compliance Matrix: (Units=1/GPa)
#
#
# Indices 1 2 3 4 5 6 
#
# 1 0.016416 -0.007893 -0.003960 0.000000 0.000000 0.000000
# 2 -0.007893 0.016416 -0.003960 0.000000 0.000000 0.000000
# 3 -0.003960 -0.003960 0.013850 0.000000 0.000000 0.000000
# 4 0.000000 0.000000 0.000000 0.032513 0.000000 0.000000
# 5 0.000000 0.000000 0.000000 0.000000 0.032513 0.000000
# 6 0.000000 0.000000 0.000000 0.000000 0.000000 0.025684
#
#
# Mechanical properties :
#
#
# Convention : Reuss Voigt Hill
#
# Bulk Modulus (GPa) = 66.42774 66.74606 66.58690
# Shear Modulus (GPa) = 28.72939 29.99299 29.36119
#
# Velocity S-wave (km/s) = 3.93477 4.02037 3.97780
# Velocity P-wave (km/s) = 7.51276 7.58427 7.54860
#
# Compressibility (1/GPa) = 0.01505395
#
# Stress axis : x y z
#
# Youngs Moduli (GPa) = 60.91723 60.91723 72.20085
#
# Poissons Ratio (x) = 0.48082 0.28595
# Poissons Ratio (y) = 0.48082 0.28595
# Poissons Ratio (z) = 0.24126 0.24126
#
# Static dielectric constant tensor:
#      x y z
#    x 3.410220 0.000000 0.000000 
#    y 0.000000 3.410220 0.000000 
#    z 0.000000 0.000000 3.569090 
# 
# 
# High freq. dielectric constant tensor:
#      x y z
#    x 1.710670 0.000000 0.000000 
#    y 0.000000 1.710670 0.000000 
#    z 0.000000 0.000000 1.729780 
# 
# From -- ./inp_files/1244.got.cif
#   From: 2010.03.12/outbox.cif.g09.slc.cpg/sg135_1_cif.got.tgz:1244.got - 2010.04.06 18:31:24.
