data_PCOD8317089
_publ_section_title
;
Structure prediction by ZEFSAII (Michael W. Deem and Ramdas Pophale) SiO2 
 PCOD8317089
Probable space group: P 42/N N M
;
_chemical_formula_sum "Si O2"
_cell_formula_units_Z 128
_cell_length_a 17.897264
_cell_length_b 17.897264
_cell_length_c 24.290155
_cell_angle_alpha 90.000000
_cell_angle_beta 90.000000
_cell_angle_gamma 90.000000
_cell_volume 7780.429554
_symmetry_space_group_name_H-M "P 42/N N M"
_symmetry_group_IT_number 134
_space_group.IT_coordinate_system_code '2'
_symmetry_cell_setting 'tetragonal'
loop_
_space_group_symop_operation_xyz
x,y,z
1/2-y,x,1/2+z
1/2-x,1/2-y,z
y,1/2-x,1/2+z
x,1/2-y,1/2-z
1/2-x,y,1/2-z
y,x,-z
1/2-y,1/2-x,-z
-x,-y,-z
1/2+y,-x,1/2-z
1/2+x,1/2+y,-z
-y,1/2+x,1/2-z
-x,1/2+y,1/2+z
1/2+x,-y,1/2+z
-y,-x,z
1/2+y,1/2+x,z
loop_
_atom_site_type_symbol
_atom_site_label
_atom_site_fract_x
_atom_site_fract_y
_atom_site_fract_z
Si Si1 0.411364 0.354727 0.585649
Si Si2 0.420734 0.040644 0.818153
Si Si3 0.190611 0.036117 0.525390
Si Si4 0.896000 0.830207 0.775799
Si Si5 0.713162 0.830572 0.626186
Si Si6 0.685705 0.432060 0.379065
Si Si7 0.576463 0.852120 0.548287
Si Si8 0.650862 0.030023 0.355136
O O1 0.448009 0.410275 0.629960
O O2 0.337059 0.391050 0.559232
O O3 0.470335 0.343359 0.535890
O O4 0.391324 0.277110 0.615176
O O5 0.393778 0.097769 0.770941
O O6 0.490514 0.990514 0.798153
O O7 0.350802 0.988305 0.834696
O O8 0.279041 0.043161 0.519704
O O9 0.168330 0.962431 0.559524
O O10 0.877833 0.750000 0.750000
O O11 0.829154 0.851666 0.817145
O O12 0.975587 0.827855 0.805765
O O13 0.750000 0.750000 0.631931
O O14 0.655722 0.832239 0.575676
O O15 0.649867 0.350133 0.373388
O O16 0.774039 0.425168 0.370249
O O17 0.586698 0.913303 0.500000
O O18 0.517342 0.881300 0.593383
O O19 0.588380 0.088380 0.335690
#
# Coordination Sequence:
#
# PCOD8317089 Si02
#       8
#    16  16  16  16  16  16  16  16
#     4  10  18  28  45  72  98 127 158 183 222 276
#     4  10  20  34  49  65  92 126 160 198 239 280
#     4   9  17  28  45  70 101 126 151 183 222 285
#     4  11  21  35  49  66  94 128 163 197 240 282
#     4  11  20  28  46  74 101 126 157 194 225 271
#     4   9  18  33  51  69  90 119 154 200 249 284
#     4  10  18  30  48  70  99 131 154 182 235 282
#     4  10  21  35  51  70  90 119 164 209 243 283
#
# _framework density 16.451533999999999
#
# number of rings (size 3 to 8) (size 9 to 14) (size 15 to 20)
#    0.000    2.000    3.750    1.125    0.000    3.000 
#    0.000    2.500    0.000    0.000    0.000    0.000 
#    0.000    0.000    0.000    0.000    0.000   11.000 
#
# Total GULP energy -1586902.003206 kJ/mol
# GULP energy per Si atom -12397.671900 kJ/mol
# Density = 1.641409 g / cm^3
# Si number density = 16.451534 Si / 1000 Ang^3
#
#
#
# Elastic Constant Matrix: (Units=GPa)
#
#
# Indices 1 2 3 4 5 6 
#
# 1 46.0920 17.0139 17.8709 0.0000 0.0000 0.0000
# 2 17.0139 46.0920 17.8707 0.0000 0.0000 0.0000
# 3 17.8709 17.8707 87.5341 0.0000 0.0000 0.0000
# 4 0.0000 0.0000 0.0000 15.9251 0.0000 0.0000
# 5 0.0000 0.0000 0.0000 0.0000 15.9253 0.0000
# 6 0.0000 0.0000 0.0000 0.0000 0.0000 19.8111
#
#
#
# Elastic Compliance Matrix: (Units=1/GPa)
#
#
# Indices 1 2 3 4 5 6 
#
# 1 0.026154 -0.008236 -0.003658 0.000000 0.000000 0.000000
# 2 -0.008236 0.026154 -0.003658 0.000000 0.000000 0.000000
# 3 -0.003658 -0.003658 0.012918 0.000000 0.000000 0.000000
# 4 0.000000 0.000000 0.000000 0.062794 0.000000 0.000000
# 5 0.000000 0.000000 0.000000 0.000000 0.062793 0.000000
# 6 0.000000 0.000000 0.000000 0.000000 0.000000 0.050477
#
#
# Mechanical properties :
#
#
# Convention : Reuss Voigt Hill
#
# Bulk Modulus (GPa) = 29.30685 31.69212 30.49948
# Shear Modulus (GPa) = 17.61999 18.79647 18.20823
#
# Velocity S-wave (km/s) = 3.27620 3.38381 3.33044
# Velocity P-wave (km/s) = 5.67134 5.87985 5.77653
#
# Compressibility (1/GPa) = 0.03412171
#
# Stress axis : x y z
#
# Youngs Moduli (GPa) = 38.23477 38.23481 77.41258
#
# Poissons Ratio (x) = 0.31490 0.28319
# Poissons Ratio (y) = 0.31490 0.28318
# Poissons Ratio (z) = 0.13987 0.13987
#
# Static dielectric constant tensor:
#      x y z
#    x 2.884720 0.000000 0.000000 
#    y 0.000000 2.884720 0.000000 
#    z 0.000000 0.000000 3.264670 
# 
# 
# High freq. dielectric constant tensor:
#      x y z
#    x 1.607680 0.000000 0.000000 
#    y 0.000000 1.607680 0.000000 
#    z 0.000000 0.000000 1.642900 
# 
# From -- ./inp_files/10293.got.cif
#   From: 2010.03.12/outbox.cif.g09.slc.cpg/sg134_6_cif.got.tgz:10293.got - 2010.04.06 18:17:22.
