data_PCOD8317780
_publ_section_title
;
Structure prediction by ZEFSAII (Michael W. Deem and Ramdas Pophale) SiO2 
 PCOD8317780
Probable space group: P 42/M N M
;
_chemical_formula_sum "Si O2"
_cell_formula_units_Z 96
_cell_length_a 24.661983
_cell_length_b 24.661983
_cell_length_c 9.075974
_cell_angle_alpha 90.000000
_cell_angle_beta 90.000000
_cell_angle_gamma 90.000000
_cell_volume 5520.129055
_symmetry_space_group_name_H-M "P 42/M N M"
_symmetry_group_IT_number 136
_symmetry_cell_setting 'tetragonal'
loop_
_space_group_symop_operation_xyz
x,y,z
1/2-y,1/2+x,1/2+z
-x,-y,z
1/2+y,1/2-x,1/2+z
1/2+x,1/2-y,1/2-z
1/2-x,1/2+y,1/2-z
y,x,-z
-y,-x,-z
-x,-y,-z
1/2+y,1/2-x,1/2-z
x,y,-z
1/2-y,1/2+x,1/2-z
1/2-x,1/2+y,1/2+z
1/2+x,1/2-y,1/2+z
-y,-x,z
y,x,z
loop_
_atom_site_type_symbol
_atom_site_label
_atom_site_fract_x
_atom_site_fract_y
_atom_site_fract_z
Si Si1 0.327239 0.586202 0.831668
Si Si2 0.797916 0.202085 0.824829
Si Si3 0.812270 0.646602 0.675515
Si Si4 0.482293 0.339672 0.667400
Si Si5 0.379999 0.379999 0.825788
Si Si6 0.796842 0.420077 0.827940
Si Si7 0.288378 0.972591 0.167115
O O1 0.356591 0.643410 0.806767
O O2 0.354645 0.542025 0.725268
O O3 0.264854 0.594762 0.789948
O O4 0.332830 0.566127 0.000000
O O5 0.737209 0.185710 0.771753
O O6 0.839501 0.160500 0.754159
O O7 0.803682 0.196319 0.000000
O O8 0.811203 0.646003 0.500000
O O9 0.869675 0.668622 0.735696
O O10 0.806470 0.585156 0.736110
O O11 0.475003 0.360342 0.500000
O O12 0.440871 0.368296 0.776365
O O13 0.473728 0.275865 0.677954
O O14 0.374033 0.374033 0.000000
O O15 0.814605 0.476878 0.754286
O O16 0.806904 0.427014 0.000000
O O17 0.308630 0.977730 0.000000
#
# Coordination Sequence:
#
# PCOD8317780 Si02
#       7
#    16   8  16  16   8  16  16
#     4   9  18  32  49  72 102 132 163 204 255 301
#     4  10  18  32  52  75 103 136 168 201 245 301
#     4   9  17  30  52  77 102 131 169 207 244 294
#     4  10  19  33  52  71  94 131 174 208 245 298
#     4  12  22  32  49  75 104 130 160 209 261 301
#     4   9  18  31  50  77 102 131 167 206 248 299
#     4   9  17  32  51  71  97 133 170 205 244 295
#
# _framework density 17.390896999999999
#
# number of rings (size 3 to 8) (size 9 to 14) (size 15 to 20)
#    0.000    2.500    1.667    1.250    1.167    1.000 
#    0.000    2.083    0.000    3.000    0.000    3.500 
#    0.000    0.000    0.000    0.000    0.000    0.000 
#
# Total GULP energy -1190163.711682 kJ/mol
# GULP energy per Si atom -12397.538663 kJ/mol
# Density = 1.735131 g / cm^3
# Si number density = 17.390897 Si / 1000 Ang^3
#
#
#
# Elastic Constant Matrix: (Units=GPa)
#
#
# Indices 1 2 3 4 5 6 
#
# 1 100.7216 70.6843 28.6861 0.0000 0.0000 0.0000
# 2 70.6843 100.7213 28.6852 0.0000 0.0000 0.0000
# 3 28.6861 28.6852 46.5393 0.0000 0.0000 0.0000
# 4 0.0000 0.0000 0.0000 23.9007 0.0000 0.0000
# 5 0.0000 0.0000 0.0000 0.0000 23.9007 0.0000
# 6 0.0000 0.0000 0.0000 0.0000 0.0000 22.9558
#
#
#
# Elastic Compliance Matrix: (Units=1/GPa)
#
#
# Indices 1 2 3 4 5 6 
#
# 1 0.020321 -0.012971 -0.004531 0.000000 0.000000 0.000000
# 2 -0.012971 0.020321 -0.004530 0.000000 0.000000 0.000000
# 3 -0.004531 -0.004530 0.027072 0.000000 0.000000 0.000000
# 4 0.000000 0.000000 0.000000 0.041840 0.000000 0.000000
# 5 0.000000 0.000000 0.000000 0.000000 0.041840 0.000000
# 6 0.000000 0.000000 0.000000 0.000000 0.000000 0.043562
#
#
# Mechanical properties :
#
#
# Convention : Reuss Voigt Hill
#
# Bulk Modulus (GPa) = 42.28192 56.01036 49.14614
# Shear Modulus (GPa) = 20.25072 22.14654 21.19863
#
# Velocity S-wave (km/s) = 3.41610 3.57242 3.49513
# Velocity P-wave (km/s) = 6.31863 7.02089 6.67900
#
# Compressibility (1/GPa) = 0.02365077
#
# Stress axis : x y z
#
# Youngs Moduli (GPa) = 49.20903 49.20952 36.93792
#
# Poissons Ratio (x) = 0.63829 0.16737
# Poissons Ratio (y) = 0.63828 0.16734
# Poissons Ratio (z) = 0.22297 0.22294
#
# Static dielectric constant tensor:
#      x y z
#    x 3.312720 0.000000 0.000000 
#    y 0.000000 3.312720 0.000000 
#    z 0.000000 0.000000 3.149530 
# 
# 
# High freq. dielectric constant tensor:
#      x y z
#    x 1.663930 0.000000 0.000000 
#    y 0.000000 1.663930 0.000000 
#    z 0.000000 0.000000 1.652460 
# 
# From -- ./inp_files/2045.got.cif
#   From: 2010.03.12/outbox.cif.g09.slc.cpg/sg136_2_cif.got.tgz:2045.got - 2010.04.06 18:39:43.
