data_PCOD8317298
_publ_section_title
;
Structure prediction by ZEFSAII (Michael W. Deem and Ramdas Pophale) SiO2 
 PCOD8317298
Probable space group: P 42/N N M
;
_chemical_formula_sum "Si O2"
_cell_formula_units_Z 88
_cell_length_a 16.812736
_cell_length_b 16.812736
_cell_length_c 15.900925
_cell_angle_alpha 90.000000
_cell_angle_beta 90.000000
_cell_angle_gamma 90.000000
_cell_volume 4494.684128
_symmetry_space_group_name_H-M "P 42/N N M"
_symmetry_group_IT_number 134
_space_group.IT_coordinate_system_code '2'
_symmetry_cell_setting 'tetragonal'
loop_
_space_group_symop_operation_xyz
x,y,z
1/2-y,x,1/2+z
1/2-x,1/2-y,z
y,1/2-x,1/2+z
x,1/2-y,1/2-z
1/2-x,y,1/2-z
y,x,-z
1/2-y,1/2-x,-z
-x,-y,-z
1/2+y,-x,1/2-z
1/2+x,1/2+y,-z
-y,1/2+x,1/2-z
-x,1/2+y,1/2+z
1/2+x,-y,1/2+z
-y,-x,z
1/2+y,1/2+x,z
loop_
_atom_site_type_symbol
_atom_site_label
_atom_site_fract_x
_atom_site_fract_y
_atom_site_fract_z
Si Si1 0.969180 0.906276 0.168779
Si Si2 0.854325 0.484624 0.929783
Si Si3 0.712342 0.606930 0.448497
Si Si4 0.372990 0.164747 0.795875
Si Si5 0.221161 0.596938 0.339308
Si Si6 0.608155 0.608155 0.000000
O O1 0.888012 0.898852 0.221662
O O2 0.015487 0.823985 0.183273
O O3 0.953321 0.915047 0.071133
O O4 0.018943 0.981058 0.202178
O O5 0.941576 0.441576 0.931376
O O6 0.840911 0.550430 0.857341
O O7 0.789913 0.416375 0.908425
O O8 0.837693 0.528562 0.019776
O O9 0.683994 0.683994 0.500000
O O10 0.701242 0.630674 0.349935
O O11 0.803681 0.592548 0.467298
O O12 0.356538 0.250000 0.750000
O O13 0.250000 0.631119 0.250000
O O14 0.160688 0.660688 0.380260
#
# Coordination Sequence:
#
# PCOD8317298 Si02
#       6
#    16  16  16  16  16   8
#     4  11  21  35  58  79 107 147 191 240 292 353
#     4  11  20  36  57  83 119 153 186 232 285 350
#     4  10  23  37  56  82 112 151 191 235 284 345
#     4  11  20  37  56  81 113 148 190 231 288 344
#     4  11  20  33  54  85 120 155 192 238 296 360
#     4  12  22  42  56  78 112 146 198 244 298 344
#
# _framework density 19.578683000000002
#
# number of rings (size 3 to 8) (size 9 to 14) (size 15 to 20)
#    0.000    1.091    5.455    2.727    0.000    6.000 
#    0.000    3.636    0.000    0.000    0.000    0.000 
#    0.000    0.000    0.000    0.364    0.000    0.000 
#
# Total GULP energy -1090402.285762 kJ/mol
# GULP energy per Si atom -12390.935065 kJ/mol
# Density = 1.953412 g / cm^3
# Si number density = 19.578683 Si / 1000 Ang^3
#
#
#
# Elastic Constant Matrix: (Units=GPa)
#
#
# Indices 1 2 3 4 5 6 
#
# 1 29.1570 22.8800 16.8776 0.0000 0.0000 0.0000
# 2 22.8800 29.1570 16.8776 0.0000 0.0000 0.0000
# 3 16.8776 16.8776 102.1023 0.0000 0.0000 0.0000
# 4 0.0000 0.0000 0.0000 29.3620 0.0000 0.0000
# 5 0.0000 0.0000 0.0000 0.0000 29.3620 0.0000
# 6 0.0000 0.0000 0.0000 0.0000 0.0000 11.1863
#
#
#
# Elastic Compliance Matrix: (Units=1/GPa)
#
#
# Indices 1 2 3 4 5 6 
#
# 1 0.090419 -0.068894 -0.003558 0.000000 0.000000 0.000000
# 2 -0.068894 0.090419 -0.003558 0.000000 0.000000 0.000000
# 3 -0.003558 -0.003558 0.010970 0.000000 0.000000 0.000000
# 4 0.000000 0.000000 0.000000 0.034058 0.000000 0.000000
# 5 0.000000 0.000000 0.000000 0.000000 0.034058 0.000000
# 6 0.000000 0.000000 0.000000 0.000000 0.000000 0.089395
#
#
# Mechanical properties :
#
#
# Convention : Reuss Voigt Hill
#
# Bulk Modulus (GPa) = 25.13306 30.40966 27.77136
# Shear Modulus (GPa) = 9.71624 20.90077 15.30851
#
# Velocity S-wave (km/s) = 2.23012 3.27085 2.79927
# Velocity P-wave (km/s) = 4.41544 5.46172 4.96621
#
# Compressibility (1/GPa) = 0.03978822
#
# Stress axis : x y z
#
# Youngs Moduli (GPa) = 11.05962 11.05962 91.15418
#
# Poissons Ratio (x) = 0.76194 0.32434
# Poissons Ratio (y) = 0.76194 0.32434
# Poissons Ratio (z) = 0.03935 0.03935
#
# Static dielectric constant tensor:
#      x y z
#    x 3.530850 0.000000 0.000000 
#    y 0.000000 3.530850 0.000000 
#    z 0.000000 0.000000 3.808500 
# 
# 
# High freq. dielectric constant tensor:
#      x y z
#    x 1.753930 0.000000 0.000000 
#    y 0.000000 1.753930 0.000000 
#    z 0.000000 0.000000 1.751740 
# 
# From -- ./inp_files/6478.got.cif
#   From: 2010.03.12/outbox.cif.g09.slc.cpg/sg134_4_cif.got.tgz:6478.got - 2010.04.06 18:17:22.
