data_PCOD8317348
_publ_section_title
;
Structure prediction by ZEFSAII (Michael W. Deem and Ramdas Pophale) SiO2 
 PCOD8317348
Probable space group: P 42/N N M
;
_chemical_formula_sum "Si O2"
_cell_formula_units_Z 72
_cell_length_a 14.479701
_cell_length_b 14.479701
_cell_length_c 24.428360
_cell_angle_alpha 90.000000
_cell_angle_beta 90.000000
_cell_angle_gamma 90.000000
_cell_volume 5121.692489
_symmetry_space_group_name_H-M "P 42/N N M"
_symmetry_group_IT_number 134
_space_group.IT_coordinate_system_code '2'
_symmetry_cell_setting 'tetragonal'
loop_
_space_group_symop_operation_xyz
x,y,z
1/2-y,x,1/2+z
1/2-x,1/2-y,z
y,1/2-x,1/2+z
x,1/2-y,1/2-z
1/2-x,y,1/2-z
y,x,-z
1/2-y,1/2-x,-z
-x,-y,-z
1/2+y,-x,1/2-z
1/2+x,1/2+y,-z
-y,1/2+x,1/2-z
-x,1/2+y,1/2+z
1/2+x,-y,1/2+z
-y,-x,z
1/2+y,1/2+x,z
loop_
_atom_site_type_symbol
_atom_site_label
_atom_site_fract_x
_atom_site_fract_y
_atom_site_fract_z
Si Si1 0.508617 0.342974 0.851297
Si Si2 0.219912 0.423850 0.993185
Si Si3 0.678397 0.676065 0.907666
Si Si4 0.599598 0.250000 0.750000
Si Si5 0.396130 0.751296 0.453086
O O1 0.555515 0.444486 0.848486
O O2 0.398009 0.353908 0.861488
O O3 0.530875 0.284575 0.797203
O O4 0.550497 0.284029 0.899992
O O5 0.265088 0.406320 0.933304
O O6 0.116311 0.383690 0.000000
O O7 0.278150 0.375909 0.040887
O O8 0.218572 0.533823 0.999961
O O9 0.750000 0.750000 0.881314
O O10 0.665445 0.334556 0.730264
O O11 0.333895 0.666106 0.434352
O O12 0.333964 0.833964 0.477608
#
# Coordination Sequence:
#
# PCOD8317348 Si02
#       5
#    16  16  16   8  16
#     4   9  16  25  38  54  71  94 123 151 180 217
#     4   8  14  24  37  51  69  96 122 145 176 213
#     4   8  14  25  38  52  72  94 118 148 180 213
#     4   9  16  26  39  54  74  98 121 146 178 215
#     4   9  16  24  34  51  74  96 120 151 182 212
#
# _framework density 14.057853
#
# number of rings (size 3 to 8) (size 9 to 14) (size 15 to 20)
#    0.000    3.444    0.000    2.000    0.000    4.000 
#    0.000    5.000    0.000    0.000    0.000    0.000 
#    0.000    0.000    0.000    0.000    0.000    0.444 
#
# Total GULP energy -891990.377827 kJ/mol
# GULP energy per Si atom -12388.755248 kJ/mol
# Density = 1.402586 g / cm^3
# Si number density = 14.057853 Si / 1000 Ang^3
#
#
#
# Elastic Constant Matrix: (Units=GPa)
#
#
# Indices 1 2 3 4 5 6 
#
# 1 80.8386 41.5641 33.3636 0.0000 0.0000 0.0000
# 2 41.5641 80.8382 33.3634 0.0000 0.0000 0.0000
# 3 33.3636 33.3634 49.0662 0.0000 0.0000 0.0000
# 4 0.0000 0.0000 0.0000 17.2097 0.0000 0.0000
# 5 0.0000 0.0000 0.0000 0.0000 17.2103 0.0000
# 6 0.0000 0.0000 0.0000 0.0000 0.0000 11.8765
#
#
#
# Elastic Compliance Matrix: (Units=1/GPa)
#
#
# Indices 1 2 3 4 5 6 
#
# 1 0.019222 -0.006240 -0.008827 0.000000 0.000000 0.000000
# 2 -0.006240 0.019222 -0.008827 0.000000 0.000000 0.000000
# 3 -0.008827 -0.008827 0.032385 0.000000 0.000000 0.000000
# 4 0.000000 0.000000 0.000000 0.058107 0.000000 0.000000
# 5 0.000000 0.000000 0.000000 0.000000 0.058105 0.000000
# 6 0.000000 0.000000 0.000000 0.000000 0.000000 0.084200
#
#
# Mechanical properties :
#
#
# Convention : Reuss Voigt Hill
#
# Bulk Modulus (GPa) = 43.40309 47.48057 45.44183
# Shear Modulus (GPa) = 15.30413 16.08944 15.69679
#
# Velocity S-wave (km/s) = 3.30305 3.38674 3.34516
# Velocity P-wave (km/s) = 6.74452 7.01012 6.87860
#
# Compressibility (1/GPa) = 0.02303984
#
# Stress axis : x y z
#
# Youngs Moduli (GPa) = 52.02397 52.02389 30.87835
#
# Poissons Ratio (x) = 0.32463 0.27257
# Poissons Ratio (y) = 0.32463 0.27257
# Poissons Ratio (z) = 0.45923 0.45923
#
# Static dielectric constant tensor:
#      x y z
#    x 2.940750 0.000000 0.000000 
#    y 0.000000 2.940750 0.000000 
#    z 0.000000 0.000000 2.563300 
# 
# 
# High freq. dielectric constant tensor:
#      x y z
#    x 1.528720 0.000000 0.000000 
#    y 0.000000 1.528720 0.000000 
#    z 0.000000 0.000000 1.497140 
# 
# From -- ./inp_files/9905.got.cif
#   From: 2010.03.12/outbox.cif.g09.slc.cpg/sg134_5_cif.got.tgz:9905.got - 2010.04.06 18:17:22.
