data_PCOD8317366
_publ_section_title
;
Structure prediction by ZEFSAII (Michael W. Deem and Ramdas Pophale) SiO2 
 PCOD8317366
Probable space group: P 42/M B C
;
_chemical_formula_sum "Si O2"
_cell_formula_units_Z 80
_cell_length_a 17.228374
_cell_length_b 17.228374
_cell_length_c 14.640314
_cell_angle_alpha 90.000000
_cell_angle_beta 90.000000
_cell_angle_gamma 90.000000
_cell_volume 4345.492187
_symmetry_space_group_name_H-M "P 42/M B C"
_symmetry_group_IT_number 135
_symmetry_cell_setting 'tetragonal'
loop_
_space_group_symop_operation_xyz
x,y,z
-y,x,1/2+z
-x,-y,z
y,-x,1/2+z
1/2+x,1/2-y,-z
1/2-x,1/2+y,-z
1/2+y,1/2+x,1/2-z
1/2-y,1/2-x,1/2-z
-x,-y,-z
y,-x,1/2-z
x,y,-z
-y,x,1/2-z
1/2-x,1/2+y,z
1/2+x,1/2-y,z
1/2-y,1/2-x,1/2+z
1/2+y,1/2+x,1/2+z
loop_
_atom_site_type_symbol
_atom_site_label
_atom_site_fract_x
_atom_site_fract_y
_atom_site_fract_z
Si Si1 0.537017 0.237425 0.395858
Si Si2 0.298899 0.324534 0.775921
Si Si3 0.537258 0.920761 0.391131
Si Si4 0.802526 0.360547 0.397912
Si Si5 0.690943 0.375498 0.098730
O O1 0.566039 0.228476 0.500000
O O2 0.604979 0.273605 0.337459
O O3 0.512097 0.153162 0.356072
O O4 0.467190 0.298660 0.389820
O O5 0.222145 0.277856 0.750000
O O6 0.361848 0.270373 0.829118
O O7 0.340065 0.357275 0.683566
O O8 0.536588 0.918903 0.500000
O O9 0.627793 0.915677 0.359846
O O10 0.500000 0.000000 0.351894
O O11 0.776324 0.386406 0.500000
O O12 0.835919 0.274517 0.401589
O O13 0.650329 0.358193 0.000000
#
# Coordination Sequence:
#
# PCOD8317366 Si02
#       5
#    16  16  16  16  16
#     4   9  17  31  51  74 100 132 169 208 255 311
#     4  10  18  29  48  74  99 124 171 221 254 297
#     4   8  14  27  47  72 106 145 172 192 242 321
#     4   8  14  26  46  71  97 133 170 202 245 298
#     4   8  16  31  49  66  93 130 165 203 252 306
#
# _framework density 18.409880999999999
#
# number of rings (size 3 to 8) (size 9 to 14) (size 15 to 20)
#    0.000    3.400    0.000    3.000    0.000    0.800 
#    3.600    0.000    0.000    3.000    0.000    7.000 
#    0.000    0.800    0.000    0.000    0.000    0.000 
#
# Total GULP energy -991311.046728 kJ/mol
# GULP energy per Si atom -12391.388084 kJ/mol
# Density = 1.836798 g / cm^3
# Si number density = 18.409881 Si / 1000 Ang^3
#
#
#
# Elastic Constant Matrix: (Units=GPa)
#
#
# Indices 1 2 3 4 5 6 
#
# 1 70.5728 41.9494 52.6166 0.0000 0.0000 0.0000
# 2 41.9494 70.5727 52.6166 0.0000 0.0000 0.0000
# 3 52.6166 52.6166 121.9670 0.0000 0.0000 0.0000
# 4 0.0000 0.0000 0.0000 14.7756 0.0000 0.0000
# 5 0.0000 0.0000 0.0000 0.0000 14.7757 0.0000
# 6 0.0000 0.0000 0.0000 0.0000 0.0000 22.7312
#
#
#
# Elastic Compliance Matrix: (Units=1/GPa)
#
#
# Indices 1 2 3 4 5 6 
#
# 1 0.024917 -0.010019 -0.006427 0.000000 0.000000 0.000000
# 2 -0.010019 0.024917 -0.006427 0.000000 0.000000 0.000000
# 3 -0.006427 -0.006427 0.013744 0.000000 0.000000 0.000000
# 4 0.000000 0.000000 0.000000 0.067679 0.000000 0.000000
# 5 0.000000 0.000000 0.000000 0.000000 0.067679 0.000000
# 6 0.000000 0.000000 0.000000 0.000000 0.000000 0.043992
#
#
# Mechanical properties :
#
#
# Convention : Reuss Voigt Hill
#
# Bulk Modulus (GPa) = 56.07910 61.94197 59.01053
# Shear Modulus (GPa) = 16.97108 18.18516 17.57812
#
# Velocity S-wave (km/s) = 3.03949 3.14633 3.09337
# Velocity P-wave (km/s) = 6.54565 6.84969 6.69939
#
# Compressibility (1/GPa) = 0.01783195
#
# Stress axis : x y z
#
# Youngs Moduli (GPa) = 40.13314 40.13310 72.75884
#
# Poissons Ratio (x) = 0.40211 0.46761
# Poissons Ratio (y) = 0.40211 0.46761
# Poissons Ratio (z) = 0.25793 0.25793
#
# Static dielectric constant tensor:
#      x y z
#    x 3.200820 0.000000 0.000000 
#    y 0.000000 3.200820 0.000000 
#    z 0.000000 0.000000 3.910900 
# 
# 
# High freq. dielectric constant tensor:
#      x y z
#    x 1.677880 0.000000 0.000000 
#    y 0.000000 1.677880 0.000000 
#    z 0.000000 0.000000 1.726550 
# 
# From -- ./inp_files/3379.got.cif
#   From: 2010.03.12/outbox.cif.g09.slc.cpg/sg135_2_cif.got.tgz:3379.got - 2010.04.06 18:31:24.
