data_PCOD8317175
_publ_section_title
;
Structure prediction by ZEFSAII (Michael W. Deem and Ramdas Pophale) SiO2 
 PCOD8317175
Probable space group: P 42/N N M
;
_chemical_formula_sum "Si O2"
_cell_formula_units_Z 96
_cell_length_a 21.372511
_cell_length_b 21.372511
_cell_length_c 10.991579
_cell_angle_alpha 90.000000
_cell_angle_beta 90.000000
_cell_angle_gamma 90.000000
_cell_volume 5020.779911
_symmetry_space_group_name_H-M "P 42/N N M"
_symmetry_group_IT_number 134
_space_group.IT_coordinate_system_code '2'
_symmetry_cell_setting 'tetragonal'
loop_
_space_group_symop_operation_xyz
x,y,z
1/2-y,x,1/2+z
1/2-x,1/2-y,z
y,1/2-x,1/2+z
x,1/2-y,1/2-z
1/2-x,y,1/2-z
y,x,-z
1/2-y,1/2-x,-z
-x,-y,-z
1/2+y,-x,1/2-z
1/2+x,1/2+y,-z
-y,1/2+x,1/2-z
-x,1/2+y,1/2+z
1/2+x,-y,1/2+z
-y,-x,z
1/2+y,1/2+x,z
loop_
_atom_site_type_symbol
_atom_site_label
_atom_site_fract_x
_atom_site_fract_y
_atom_site_fract_z
Si Si1 0.024931 0.074660 0.168793
Si Si2 0.317882 0.916394 0.230950
Si Si3 0.005318 0.360766 0.578276
Si Si4 0.176337 0.299943 0.856396
Si Si5 0.557889 0.810425 0.817029
Si Si6 0.279492 0.462313 0.420548
O O1 0.096086 0.050925 0.158520
O O2 0.025193 0.128546 0.266441
O O3 0.994879 0.101980 0.045923
O O4 0.982162 0.017839 0.215247
O O5 0.250000 0.883672 0.250000
O O6 0.365242 0.865242 0.171155
O O7 0.348813 0.938471 0.357814
O O8 0.305771 0.979367 0.154786
O O9 0.038865 0.294730 0.556390
O O10 0.200400 0.250000 0.750000
O O11 0.193422 0.367408 0.804205
O O12 0.101689 0.295923 0.853998
O O13 0.204565 0.295436 0.000000
O O14 0.529583 0.750000 0.750000
O O15 0.534490 0.814537 0.953397
#
# Coordination Sequence:
#
# PCOD8317175 Si02
#       6
#    16  16  16  16  16  16
#     4  11  21  33  56  83 108 138 185 240 287 339
#     4  10  20  34  56  82 112 145 182 226 284 349
#     4  10  19  35  56  81 109 140 183 233 287 332
#     4  10  21  38  59  84 116 158 206 244 290 346
#     4  11  22  38  54  78 114 151 187 235 286 338
#     4  10  20  37  58  79 113 153 188 232 286 349
#
# _framework density 19.120536000000001
#
# number of rings (size 3 to 8) (size 9 to 14) (size 15 to 20)
#    0.000    1.667    1.667    5.500    0.000    1.167 
#    0.000    2.500    0.000    5.000    0.000    0.000 
#    0.000    0.333    0.000    0.000    0.000    0.000 
#
# Total GULP energy -1189305.750037 kJ/mol
# GULP energy per Si atom -12388.601563 kJ/mol
# Density = 1.907702 g / cm^3
# Si number density = 19.120536 Si / 1000 Ang^3
#
#
#
# Elastic Constant Matrix: (Units=GPa)
#
#
# Indices 1 2 3 4 5 6 
#
# 1 83.1525 80.7639 34.4493 0.0000 0.0000 0.0000
# 2 80.7639 83.1533 34.4491 0.0000 0.0000 0.0000
# 3 34.4493 34.4491 78.0412 0.0000 0.0000 0.0000
# 4 0.0000 0.0000 0.0000 13.8887 0.0000 0.0000
# 5 0.0000 0.0000 0.0000 0.0000 13.8892 0.0000
# 6 0.0000 0.0000 0.0000 0.0000 0.0000 37.6262
#
#
#
# Elastic Compliance Matrix: (Units=1/GPa)
#
#
# Indices 1 2 3 4 5 6 
#
# 1 0.213043 -0.205551 -0.003308 0.000000 0.000000 0.000000
# 2 -0.205551 0.213040 -0.003305 0.000000 0.000000 0.000000
# 3 -0.003308 -0.003305 0.015733 0.000000 0.000000 0.000000
# 4 0.000000 0.000000 0.000000 0.072001 0.000000 0.000000
# 5 0.000000 0.000000 0.000000 0.000000 0.071999 0.000000
# 6 0.000000 0.000000 0.000000 0.000000 0.000000 0.026577
#
#
# Mechanical properties :
#
#
# Convention : Reuss Voigt Hill
#
# Bulk Modulus (GPa) = 57.18238 60.40795 58.79517
# Shear Modulus (GPa) = 4.79593 19.39311 12.09452
#
# Velocity S-wave (km/s) = 1.58547 3.18819 2.51776
# Velocity P-wave (km/s) = 5.77259 6.72418 6.26647
#
# Compressibility (1/GPa) = 0.01748790
#
# Stress axis : x y z
#
# Youngs Moduli (GPa) = 4.69388 4.69395 63.56131
#
# Poissons Ratio (x) = 0.96485 0.21023
# Poissons Ratio (y) = 0.96483 0.21009
# Poissons Ratio (z) = 0.01553 0.01552
#
# Static dielectric constant tensor:
#      x y z
#    x 3.559610 0.000000 0.000000 
#    y 0.000000 3.559600 0.000000 
#    z 0.000000 0.000000 3.752990 
# 
# 
# High freq. dielectric constant tensor:
#      x y z
#    x 1.739520 0.000000 0.000000 
#    y 0.000000 1.739520 0.000000 
#    z 0.000000 0.000000 1.740790 
# 
# From -- ./inp_files/5040.got.cif
#   From: 2010.03.12/outbox.cif.g09.slc.cpg/sg134_3_cif.got.tgz:5040.got - 2010.04.06 18:17:22.
