data_PCOD8317017
_publ_section_title
;
Structure prediction by ZEFSAII (Michael W. Deem and Ramdas Pophale) SiO2 
 PCOD8317017
Probable space group: P 42/N B C
;
_chemical_formula_sum "Si O2"
_cell_formula_units_Z 60
_cell_length_a 17.725302
_cell_length_b 17.725302
_cell_length_c 8.165363
_cell_angle_alpha 90.000000
_cell_angle_beta 90.000000
_cell_angle_gamma 90.000000
_cell_volume 2565.445442
_symmetry_space_group_name_H-M "P 42/N B C"
_symmetry_group_IT_number 133
_space_group.IT_coordinate_system_code '2'
_symmetry_cell_setting 'tetragonal'
loop_
_space_group_symop_operation_xyz
x,y,z
1/2-y,x,1/2+z
1/2-x,1/2-y,z
y,1/2-x,1/2+z
x,1/2-y,-z
1/2-x,y,-z
y,x,1/2-z
1/2-y,1/2-x,1/2-z
-x,-y,-z
1/2+y,-x,1/2-z
1/2+x,1/2+y,-z
-y,1/2+x,1/2-z
-x,1/2+y,z
1/2+x,-y,z
-y,-x,1/2+z
1/2+y,1/2+x,1/2+z
loop_
_atom_site_type_symbol
_atom_site_label
_atom_site_fract_x
_atom_site_fract_y
_atom_site_fract_z
Si Si1 0.007382 0.377010 0.797039
Si Si2 0.470499 0.875922 0.564716
Si Si3 0.250000 0.750000 0.250000
Si Si4 0.128965 0.128965 0.750000
Si Si5 0.080046 0.250000 0.000000
Si Si6 0.131543 0.750000 0.500000
O O1 0.087336 0.412665 0.750000
O O2 0.023000 0.303129 0.901930
O O3 0.958630 0.436813 0.901780
O O4 0.967025 0.358374 0.628806
O O5 0.552883 0.868484 0.643355
O O6 0.415643 0.808328 0.615550
O O7 0.185338 0.711552 0.363303
O O8 0.131731 0.200537 0.874373
#
# Coordination Sequence:
#
# PCOD8317017 Si02
#       6
#    16  16   4   8   8   8
#     4  12  24  47  74 113 145 199 247 321 377 454
#     4  12  24  44  78 110 154 190 252 307 382 461
#     4  10  24  46  64 110 152 186 236 294 384 442
#     4  12  26  50  75 112 142 201 250 326 378 466
#     4  12  28  48  79 101 152 192 260 308 396 449
#     4  11  24  42  70 103 148 196 234 297 368 460
#
# _framework density 23.387751000000002
#
# number of rings (size 3 to 8) (size 9 to 14) (size 15 to 20)
#    0.000    0.267    4.000    5.600    0.000    4.267 
#    0.000    2.000    0.000    0.000    0.000    0.000 
#    0.000    0.000    0.000    0.000    0.000    0.000 
#
# Total GULP energy -743651.016274 kJ/mol
# GULP energy per Si atom -12394.183605 kJ/mol
# Density = 2.333452 g / cm^3
# Si number density = 23.387751 Si / 1000 Ang^3
#
#
#
# Elastic Constant Matrix: (Units=GPa)
#
#
# Indices 1 2 3 4 5 6 
#
# 1 136.6783 57.3475 63.4187 0.0000 0.0000 0.0000
# 2 57.3475 136.6813 63.4185 0.0000 0.0000 0.0000
# 3 63.4187 63.4185 152.9688 0.0000 0.0000 0.0000
# 4 0.0000 0.0000 0.0000 41.7904 0.0000 0.0000
# 5 0.0000 0.0000 0.0000 0.0000 41.7896 0.0000
# 6 0.0000 0.0000 0.0000 0.0000 0.0000 31.2859
#
#
#
# Elastic Compliance Matrix: (Units=1/GPa)
#
#
# Indices 1 2 3 4 5 6 
#
# 1 0.009838 -0.002768 -0.002931 0.000000 0.000000 0.000000
# 2 -0.002768 0.009837 -0.002931 0.000000 0.000000 0.000000
# 3 -0.002931 -0.002931 0.008968 0.000000 0.000000 0.000000
# 4 0.000000 0.000000 0.000000 0.023929 0.000000 0.000000
# 5 0.000000 0.000000 0.000000 0.000000 0.023929 0.000000
# 6 0.000000 0.000000 0.000000 0.000000 0.000000 0.031963
#
#
# Mechanical properties :
#
#
# Convention : Reuss Voigt Hill
#
# Bulk Modulus (GPa) = 87.84865 88.29976 88.07421
# Shear Modulus (GPa) = 38.60448 39.11608 38.86028
#
# Velocity S-wave (km/s) = 4.06720 4.09406 4.08065
# Velocity P-wave (km/s) = 7.72655 7.75791 7.74224
#
# Compressibility (1/GPa) = 0.01138321
#
# Stress axis : x y z
#
# Youngs Moduli (GPa) = 101.64930 101.65209 111.51154
#
# Poissons Ratio (x) = 0.28133 0.32686
# Poissons Ratio (y) = 0.28132 0.32685
# Poissons Ratio (z) = 0.29795 0.29795
#
# Static dielectric constant tensor:
#      x y z
#    x 4.155750 0.000000 0.000000 
#    y 0.000000 4.155750 0.000000 
#    z 0.000000 0.000000 4.598050 
# 
# 
# High freq. dielectric constant tensor:
#      x y z
#    x 1.922610 0.000000 0.000000 
#    y 0.000000 1.922610 0.000000 
#    z 0.000000 0.000000 1.946000 
# 
# From -- ./inp_files/1383.got.cif
#   From: 2010.03.12/outbox.cif.g09.slc.cpg/sg133_1_cif.got.tgz:1383.got - 2010.04.06 18:08:06.
