data_PCOD8317225
_publ_section_title
;
Structure prediction by ZEFSAII (Michael W. Deem and Ramdas Pophale) SiO2 
 PCOD8317225
Probable space group: P 42/N N M
;
_chemical_formula_sum "Si O2"
_cell_formula_units_Z 88
_cell_length_a 11.122280
_cell_length_b 11.122280
_cell_length_c 33.072472
_cell_angle_alpha 90.000000
_cell_angle_beta 90.000000
_cell_angle_gamma 90.000000
_cell_volume 4091.233866
_symmetry_space_group_name_H-M "P 42/N N M"
_symmetry_group_IT_number 134
_space_group.IT_coordinate_system_code '2'
_symmetry_cell_setting 'tetragonal'
loop_
_space_group_symop_operation_xyz
x,y,z
1/2-y,x,1/2+z
1/2-x,1/2-y,z
y,1/2-x,1/2+z
x,1/2-y,1/2-z
1/2-x,y,1/2-z
y,x,-z
1/2-y,1/2-x,-z
-x,-y,-z
1/2+y,-x,1/2-z
1/2+x,1/2+y,-z
-y,1/2+x,1/2-z
-x,1/2+y,1/2+z
1/2+x,-y,1/2+z
-y,-x,z
1/2+y,1/2+x,z
loop_
_atom_site_type_symbol
_atom_site_label
_atom_site_fract_x
_atom_site_fract_y
_atom_site_fract_z
Si Si1 0.436036 0.369462 0.277813
Si Si2 0.319681 0.007811 0.404978
Si Si3 0.057090 0.750375 0.010094
Si Si4 0.903828 0.902590 0.365138
Si Si5 0.892228 0.762101 0.936324
Si Si6 0.250000 0.559690 0.250000
O O1 0.420372 0.250000 0.250000
O O2 0.562382 0.437619 0.267254
O O3 0.430220 0.326381 0.324574
O O4 0.326864 0.467061 0.277231
O O5 0.387531 0.887531 0.390107
O O6 0.231994 0.981545 0.443393
O O7 0.238796 0.061985 0.368965
O O8 0.419485 0.104122 0.419609
O O9 0.120239 0.879762 0.005489
O O10 0.145468 0.645468 0.996718
O O11 0.943411 0.742990 0.980894
O O12 0.829533 0.948508 0.403894
O O13 0.028893 0.971108 0.362448
O O14 0.750000 0.750000 0.938647
O O15 0.150055 0.650055 0.271345
#
# Coordination Sequence:
#
# PCOD8317225 Si02
#       6
#    16  16  16  16  16   8
#     4  10  22  41  65  90 119 157 198 245 302 366
#     4  10  21  36  55  82 116 153 193 237 288 347
#     4  10  20  35  55  77 107 152 200 242 286 337
#     4  10  22  39  58  83 113 145 187 236 286 345
#     4  10  21  35  53  80 113 151 193 241 291 339
#     4   9  19  36  60  92 123 151 188 234 290 359
#
# _framework density 21.509404
#
# number of rings (size 3 to 8) (size 9 to 14) (size 15 to 20)
#    0.000    2.091    0.000    2.455    0.000   12.909 
#    0.000   10.000    0.000    2.182    0.000    0.000 
#    0.000    0.000    0.000    0.000    0.000    0.000 
#
# Total GULP energy -1090180.584496 kJ/mol
# GULP energy per Si atom -12388.415733 kJ/mol
# Density = 2.146045 g / cm^3
# Si number density = 21.509404 Si / 1000 Ang^3
#
#
#
# Elastic Constant Matrix: (Units=GPa)
#
#
# Indices 1 2 3 4 5 6 
#
# 1 90.3436 31.0815 41.9037 0.0000 0.0000 0.0000
# 2 31.0815 90.3436 41.9037 0.0000 0.0000 0.0000
# 3 41.9037 41.9037 88.7206 0.0000 0.0000 0.0000
# 4 0.0000 0.0000 0.0000 28.1710 0.0000 0.0000
# 5 0.0000 0.0000 0.0000 0.0000 28.1710 0.0000
# 6 0.0000 0.0000 0.0000 0.0000 0.0000 23.8858
#
#
#
# Elastic Compliance Matrix: (Units=1/GPa)
#
#
# Indices 1 2 3 4 5 6 
#
# 1 0.014546 -0.002328 -0.005771 0.000000 0.000000 0.000000
# 2 -0.002328 0.014546 -0.005771 0.000000 0.000000 0.000000
# 3 -0.005771 -0.005771 0.016723 0.000000 0.000000 0.000000
# 4 0.000000 0.000000 0.000000 0.035498 0.000000 0.000000
# 5 0.000000 0.000000 0.000000 0.000000 0.035498 0.000000
# 6 0.000000 0.000000 0.000000 0.000000 0.000000 0.041866
#
#
# Mechanical properties :
#
#
# Convention : Reuss Voigt Hill
#
# Bulk Modulus (GPa) = 55.32175 55.46503 55.39339
# Shear Modulus (GPa) = 25.98194 26.34682 26.16438
#
# Velocity S-wave (km/s) = 3.47930 3.50365 3.49150
# Velocity P-wave (km/s) = 6.47429 6.49691 6.48561
#
# Compressibility (1/GPa) = 0.01807607
#
# Stress axis : x y z
#
# Youngs Moduli (GPa) = 68.74539 68.74539 59.79874
#
# Poissons Ratio (x) = 0.16002 0.34510
# Poissons Ratio (y) = 0.16002 0.34510
# Poissons Ratio (z) = 0.39673 0.39673
#
# Static dielectric constant tensor:
#      x y z
#    x 4.065170 0.000000 0.000000 
#    y 0.000000 4.065170 0.000000 
#    z 0.000000 0.000000 3.787720 
# 
# 
# High freq. dielectric constant tensor:
#      x y z
#    x 1.844250 0.000000 0.000000 
#    y 0.000000 1.844250 0.000000 
#    z 0.000000 0.000000 1.824240 
# 
# From -- ./inp_files/11408.got.cif
#   From: 2010.03.12/outbox.cif.g09.slc.cpg/sg134_6_cif.got.tgz:11408.got - 2010.04.06 18:17:22.
