data_PCOD8317657
_publ_section_title
;
Structure prediction by ZEFSAII (Michael W. Deem and Ramdas Pophale) SiO2 
 PCOD8317657
Probable space group: P 42/M B C
;
_chemical_formula_sum "Si O2"
_cell_formula_units_Z 64
_cell_length_a 13.144497
_cell_length_b 13.144497
_cell_length_c 17.127338
_cell_angle_alpha 90.000000
_cell_angle_beta 90.000000
_cell_angle_gamma 90.000000
_cell_volume 2959.223803
_symmetry_space_group_name_H-M "P 42/M B C"
_symmetry_group_IT_number 135
_symmetry_cell_setting 'tetragonal'
loop_
_space_group_symop_operation_xyz
x,y,z
-y,x,1/2+z
-x,-y,z
y,-x,1/2+z
1/2+x,1/2-y,-z
1/2-x,1/2+y,-z
1/2+y,1/2+x,1/2-z
1/2-y,1/2-x,1/2-z
-x,-y,-z
y,-x,1/2-z
x,y,-z
-y,x,1/2-z
1/2-x,1/2+y,z
1/2+x,1/2-y,z
1/2-y,1/2-x,1/2+z
1/2+y,1/2+x,1/2+z
loop_
_atom_site_type_symbol
_atom_site_label
_atom_site_fract_x
_atom_site_fract_y
_atom_site_fract_z
Si Si1 0.726143 0.631473 0.586908
Si Si2 0.388014 0.550463 0.656810
Si Si3 0.397800 0.244245 0.295567
Si Si4 0.431307 0.767501 0.412030
O O1 0.686033 0.656034 0.500000
O O2 0.690651 0.518917 0.609004
O O3 0.686446 0.714403 0.646607
O O4 0.847468 0.643612 0.590653
O O5 0.500000 0.500000 0.661571
O O6 0.339594 0.563746 0.743237
O O7 0.389820 0.656253 0.611000
O O8 0.350245 0.149756 0.250000
O O9 0.487570 0.198422 0.347725
O O10 0.476278 0.760356 0.500000
#
# Coordination Sequence:
#
# PCOD8317657 Si02
#       4
#    16  16  16  16
#     4  11  25  43  66 101 140 180 229 286 346 406
#     4  12  25  40  70 106 136 172 231 289 339 403
#     4  12  25  42  68 102 137 182 227 283 345 417
#     4  11  25  45  69  99 139 183 226 283 350 410
#
# _framework density 21.627293999999999
#
# number of rings (size 3 to 8) (size 9 to 14) (size 15 to 20)
#    0.000    0.500    5.000    3.000    3.500    1.000 
#    0.000    2.500    0.000    3.000    0.000    0.000 
#    0.000    0.000    0.000    0.000    0.000    0.000 
#
# Total GULP energy -793543.198568 kJ/mol
# GULP energy per Si atom -12399.112478 kJ/mol
# Density = 2.157807 g / cm^3
# Si number density = 21.627294 Si / 1000 Ang^3
#
#
#
# Elastic Constant Matrix: (Units=GPa)
#
#
# Indices 1 2 3 4 5 6 
#
# 1 99.4664 59.7523 60.9571 0.0000 0.0000 0.0000
# 2 59.7523 99.4662 60.9575 0.0000 0.0000 0.0000
# 3 60.9571 60.9575 182.9740 0.0000 0.0000 0.0000
# 4 0.0000 0.0000 0.0000 34.4759 0.0000 0.0000
# 5 0.0000 0.0000 0.0000 0.0000 34.4746 0.0000
# 6 0.0000 0.0000 0.0000 0.0000 0.0000 41.5181
#
#
#
# Elastic Compliance Matrix: (Units=1/GPa)
#
#
# Indices 1 2 3 4 5 6 
#
# 1 0.016806 -0.008374 -0.002809 0.000000 0.000000 0.000000
# 2 -0.008374 0.016806 -0.002809 0.000000 0.000000 0.000000
# 3 -0.002809 -0.002809 0.007337 0.000000 0.000000 0.000000
# 4 0.000000 0.000000 0.000000 0.029006 0.000000 0.000000
# 5 0.000000 0.000000 0.000000 0.000000 0.029007 0.000000
# 6 0.000000 0.000000 0.000000 0.000000 0.000000 0.024086
#
#
# Mechanical properties :
#
#
# Convention : Reuss Voigt Hill
#
# Bulk Modulus (GPa) = 77.13611 82.80448 79.97029
# Shear Modulus (GPa) = 32.18487 35.44302 33.81394
#
# Velocity S-wave (km/s) = 3.86185 4.05261 3.95838
# Velocity P-wave (km/s) = 7.45847 7.76327 7.61239
#
# Compressibility (1/GPa) = 0.01296410
#
# Stress axis : x y z
#
# Youngs Moduli (GPa) = 59.50359 59.50329 136.29863
#
# Poissons Ratio (x) = 0.49830 0.38285
# Poissons Ratio (y) = 0.49830 0.38286
# Poissons Ratio (z) = 0.16714 0.16714
#
# Static dielectric constant tensor:
#      x y z
#    x 3.847450 0.000000 0.000000 
#    y 0.000000 3.847450 0.000000 
#    z 0.000000 0.000000 4.154440 
# 
# 
# High freq. dielectric constant tensor:
#      x y z
#    x 1.842180 0.000000 0.000000 
#    y 0.000000 1.842180 0.000000 
#    z 0.000000 0.000000 1.876360 
# 
# From -- ./inp_files/3169.got.cif
#   From: 2010.03.12/outbox.cif.g09.slc.cpg/sg135_2_cif.got.tgz:3169.got - 2010.04.06 18:31:24.
