data_PCOD8317430
_publ_section_title
;
Structure prediction by ZEFSAII (Michael W. Deem and Ramdas Pophale) SiO2 
 PCOD8317430
Probable space group: P 42/M B C
;
_chemical_formula_sum "Si O2"
_cell_formula_units_Z 96
_cell_length_a 24.076984
_cell_length_b 24.076984
_cell_length_c 8.537247
_cell_angle_alpha 90.000000
_cell_angle_beta 90.000000
_cell_angle_gamma 90.000000
_cell_volume 4949.051977
_symmetry_space_group_name_H-M "P 42/M B C"
_symmetry_group_IT_number 135
_symmetry_cell_setting 'tetragonal'
loop_
_space_group_symop_operation_xyz
x,y,z
-y,x,1/2+z
-x,-y,z
y,-x,1/2+z
1/2+x,1/2-y,-z
1/2-x,1/2+y,-z
1/2+y,1/2+x,1/2-z
1/2-y,1/2-x,1/2-z
-x,-y,-z
y,-x,1/2-z
x,y,-z
-y,x,1/2-z
1/2-x,1/2+y,z
1/2+x,1/2-y,z
1/2-y,1/2-x,1/2+z
1/2+y,1/2+x,1/2+z
loop_
_atom_site_type_symbol
_atom_site_label
_atom_site_fract_x
_atom_site_fract_y
_atom_site_fract_z
Si Si1 0.639692 0.222224 0.814488
Si Si2 0.699649 0.430895 0.313600
Si Si3 0.515158 0.208961 0.814089
Si Si4 0.968216 0.078520 0.814431
Si Si5 0.775544 0.807902 0.314790
Si Si6 0.000558 0.584630 0.186014
O O1 0.665066 0.165066 0.750000
O O2 0.576470 0.225468 0.757658
O O3 0.671077 0.274461 0.742439
O O4 0.645944 0.223455 0.000000
O O5 0.699932 0.432620 0.500000
O O6 0.745227 0.473337 0.244149
O O7 0.638500 0.447775 0.253265
O O8 0.717082 0.370292 0.251568
O O9 0.499354 0.147807 0.752095
O O10 0.512317 0.208792 0.000000
O O11 0.929668 0.032373 0.732842
O O12 0.962330 0.072570 0.000000
O O13 0.718574 0.781427 0.250000
O O14 0.772890 0.805996 0.500000
O O15 0.056259 0.556259 0.250000
O O16 0.946020 0.553981 0.250000
O O17 0.999627 0.581062 0.000000
#
# Coordination Sequence:
#
# PCOD8317430 Si02
#       6
#    16  16  16  16  16  16
#     4  10  19  33  56  80 105 136 175 217 262 309
#     4   9  20  36  54  78 109 144 177 216 268 318
#     4   9  19  34  52  77 105 139 175 212 259 312
#     4  10  20  36  58  81 108 141 178 222 271 322
#     4  10  20  36  56  77 105 139 176 216 262 313
#     4  10  19  33  54  77 105 138 176 215 260 311
#
# _framework density 19.397655
#
# number of rings (size 3 to 8) (size 9 to 14) (size 15 to 20)
#    0.000    2.333    0.000    4.500    2.333    0.667 
#    0.000    5.000    0.000   11.000    0.000    0.000 
#    0.000    0.000    0.000    0.000    0.000    0.000 
#
# Total GULP energy -1190437.867375 kJ/mol
# GULP energy per Si atom -12400.394452 kJ/mol
# Density = 1.935351 g / cm^3
# Si number density = 19.397655 Si / 1000 Ang^3
#
#
#
# Elastic Constant Matrix: (Units=GPa)
#
#
# Indices 1 2 3 4 5 6 
#
# 1 178.6619 102.7946 21.5020 0.0000 0.0000 0.0000
# 2 102.7946 178.6611 21.5025 0.0000 0.0000 0.0000
# 3 21.5020 21.5025 51.0454 0.0000 0.0000 0.0000
# 4 0.0000 0.0000 0.0000 19.7225 0.0000 0.0000
# 5 0.0000 0.0000 0.0000 0.0000 19.7229 0.0000
# 6 0.0000 0.0000 0.0000 0.0000 0.0000 23.6829
#
#
#
# Elastic Compliance Matrix: (Units=1/GPa)
#
#
# Indices 1 2 3 4 5 6 
#
# 1 0.008489 -0.004692 -0.001600 0.000000 0.000000 0.000000
# 2 -0.004692 0.008489 -0.001600 0.000000 0.000000 0.000000
# 3 -0.001600 -0.001600 0.020938 0.000000 0.000000 0.000000
# 4 0.000000 0.000000 0.000000 0.050704 0.000000 0.000000
# 5 0.000000 0.000000 0.000000 0.000000 0.050702 0.000000
# 6 0.000000 0.000000 0.000000 0.000000 0.000000 0.042225
#
#
# Mechanical properties :
#
#
# Convention : Reuss Voigt Hill
#
# Bulk Modulus (GPa) = 45.17857 77.77406 61.47632
# Shear Modulus (GPa) = 24.42515 30.13027 27.27771
#
# Velocity S-wave (km/s) = 3.55234 3.94546 3.75405
# Velocity P-wave (km/s) = 6.33773 7.80623 7.10999
#
# Compressibility (1/GPa) = 0.02213439
#
# Stress axis : x y z
#
# Youngs Moduli (GPa) = 117.79747 117.79667 47.75996
#
# Poissons Ratio (x) = 0.55268 0.07639
# Poissons Ratio (y) = 0.55268 0.07640
# Poissons Ratio (z) = 0.18842 0.18843
#
# Static dielectric constant tensor:
#      x y z
#    x 3.798930 0.000000 0.000000 
#    y 0.000000 3.798940 0.000000 
#    z 0.000000 0.000000 3.302740 
# 
# 
# High freq. dielectric constant tensor:
#      x y z
#    x 1.762860 0.000000 0.000000 
#    y 0.000000 1.762860 0.000000 
#    z 0.000000 0.000000 1.735770 
# 
# From -- ./inp_files/1235.got.cif
#   From: 2010.03.12/outbox.cif.g09.slc.cpg/sg135_1_cif.got.tgz:1235.got - 2010.04.06 18:31:24.
