data_PCOD8317528
_publ_section_title
;
Structure prediction by ZEFSAII (Michael W. Deem and Ramdas Pophale) SiO2 
 PCOD8317528
Probable space group: P 42/M B C
;
_chemical_formula_sum "Si O2"
_cell_formula_units_Z 64
_cell_length_a 12.638078
_cell_length_b 12.638078
_cell_length_c 18.040371
_cell_angle_alpha 90.000000
_cell_angle_beta 90.000000
_cell_angle_gamma 90.000000
_cell_volume 2881.426377
_symmetry_space_group_name_H-M "P 42/M B C"
_symmetry_group_IT_number 135
_symmetry_cell_setting 'tetragonal'
loop_
_space_group_symop_operation_xyz
x,y,z
-y,x,1/2+z
-x,-y,z
y,-x,1/2+z
1/2+x,1/2-y,-z
1/2-x,1/2+y,-z
1/2+y,1/2+x,1/2-z
1/2-y,1/2-x,1/2-z
-x,-y,-z
y,-x,1/2-z
x,y,-z
-y,x,1/2-z
1/2-x,1/2+y,z
1/2+x,1/2-y,z
1/2-y,1/2-x,1/2+z
1/2+y,1/2+x,1/2+z
loop_
_atom_site_type_symbol
_atom_site_label
_atom_site_fract_x
_atom_site_fract_y
_atom_site_fract_z
Si Si1 0.894489 0.054960 0.916813
Si Si2 0.282226 0.930957 0.296753
Si Si3 0.230685 0.092225 0.821292
Si Si4 0.695541 0.916566 0.585051
O O1 0.897650 0.179787 0.912346
O O2 0.801615 0.012698 0.865617
O O3 0.873967 0.014904 0.000000
O O4 0.000000 0.000000 0.885900
O O5 0.369235 0.869235 0.250000
O O6 0.177442 0.861563 0.308100
O O7 0.261861 0.045720 0.258623
O O8 0.327203 0.968118 0.377296
O O9 0.324660 0.141597 0.868273
O O10 0.654657 0.918381 0.500000
#
# Coordination Sequence:
#
# PCOD8317528 Si02
#       4
#    16  16  16  16
#     4  10  20  39  68  98 129 171 220 272 331 400
#     4  12  26  44  67  98 136 177 226 280 337 404
#     4  12  24  42  68 101 136 175 223 278 338 407
#     4  11  25  45  69  99 135 179 226 280 341 403
#
# _framework density 22.211223
#
# number of rings (size 3 to 8) (size 9 to 14) (size 15 to 20)
#    0.000    0.750    2.500    6.000    0.000    3.000 
#    0.000    3.750    0.000    0.000    0.000    0.000 
#    0.000    0.000    0.000    0.000    0.000    0.000 
#
# Total GULP energy -793451.811848 kJ/mol
# GULP energy per Si atom -12397.684560 kJ/mol
# Density = 2.216067 g / cm^3
# Si number density = 22.211223 Si / 1000 Ang^3
#
#
#
# Elastic Constant Matrix: (Units=GPa)
#
#
# Indices 1 2 3 4 5 6 
#
# 1 70.5744 39.2338 52.7283 0.0000 0.0000 0.0000
# 2 39.2338 70.5744 52.7283 0.0000 0.0000 0.0000
# 3 52.7283 52.7283 122.0639 0.0000 0.0000 0.0000
# 4 0.0000 0.0000 0.0000 36.5046 0.0000 0.0000
# 5 0.0000 0.0000 0.0000 0.0000 36.5046 0.0000
# 6 0.0000 0.0000 0.0000 0.0000 0.0000 41.5043
#
#
#
# Elastic Compliance Matrix: (Units=1/GPa)
#
#
# Indices 1 2 3 4 5 6 
#
# 1 0.023735 -0.008172 -0.006723 0.000000 0.000000 0.000000
# 2 -0.008172 0.023735 -0.006723 0.000000 0.000000 0.000000
# 3 -0.006723 -0.006723 0.014001 0.000000 0.000000 0.000000
# 4 0.000000 0.000000 0.000000 0.027394 0.000000 0.000000
# 5 0.000000 0.000000 0.000000 0.000000 0.027394 0.000000
# 6 0.000000 0.000000 0.000000 0.000000 0.000000 0.024094
#
#
# Mechanical properties :
#
#
# Convention : Reuss Voigt Hill
#
# Bulk Modulus (GPa) = 54.83788 61.39927 58.11858
# Shear Modulus (GPa) = 26.36192 30.80417 28.58304
#
# Velocity S-wave (km/s) = 3.44884 3.72812 3.59119
# Velocity P-wave (km/s) = 6.37199 6.79964 6.58929
#
# Compressibility (1/GPa) = 0.01823557
#
# Stress axis : x y z
#
# Youngs Moduli (GPa) = 42.13112 42.13112 71.42511
#
# Poissons Ratio (x) = 0.34430 0.48019
# Poissons Ratio (y) = 0.34430 0.48019
# Poissons Ratio (z) = 0.28324 0.28324
#
# Static dielectric constant tensor:
#      x y z
#    x 3.986130 0.000000 0.000000 
#    y 0.000000 3.986130 0.000000 
#    z 0.000000 0.000000 4.561540 
# 
# 
# High freq. dielectric constant tensor:
#      x y z
#    x 1.872780 0.000000 0.000000 
#    y 0.000000 1.872780 0.000000 
#    z 0.000000 0.000000 1.898000 
# 
# From -- ./inp_files/3164.got.cif
#   From: 2010.03.12/outbox.cif.g09.slc.cpg/sg135_2_cif.got.tgz:3164.got - 2010.04.06 18:31:24.
