data_PCOD8317093
_publ_section_title
;
Structure prediction by ZEFSAII (Michael W. Deem and Ramdas Pophale) SiO2 
 PCOD8317093
Probable space group: P 42/N N M
;
_chemical_formula_sum "Si O2"
_cell_formula_units_Z 128
_cell_length_a 18.075183
_cell_length_b 18.075183
_cell_length_c 25.805382
_cell_angle_alpha 90.000000
_cell_angle_beta 90.000000
_cell_angle_gamma 90.000000
_cell_volume 8430.934170
_symmetry_space_group_name_H-M "P 42/N N M"
_symmetry_group_IT_number 134
_space_group.IT_coordinate_system_code '2'
_symmetry_cell_setting 'tetragonal'
loop_
_space_group_symop_operation_xyz
x,y,z
1/2-y,x,1/2+z
1/2-x,1/2-y,z
y,1/2-x,1/2+z
x,1/2-y,1/2-z
1/2-x,y,1/2-z
y,x,-z
1/2-y,1/2-x,-z
-x,-y,-z
1/2+y,-x,1/2-z
1/2+x,1/2+y,-z
-y,1/2+x,1/2-z
-x,1/2+y,1/2+z
1/2+x,-y,1/2+z
-y,-x,z
1/2+y,1/2+x,z
loop_
_atom_site_type_symbol
_atom_site_label
_atom_site_fract_x
_atom_site_fract_y
_atom_site_fract_z
Si Si1 0.661073 0.455954 0.465450
Si Si2 0.187720 0.562542 0.705456
Si Si3 0.155493 0.133844 0.696566
Si Si4 0.953828 0.927320 0.615578
Si Si5 0.367545 0.749247 0.893025
Si Si6 0.914653 0.677499 0.039135
Si Si7 0.234129 0.335087 0.378493
Si Si8 0.396950 0.173489 0.308049
O O1 0.594603 0.405398 0.489470
O O2 0.631557 0.494895 0.413463
O O3 0.729343 0.407290 0.446430
O O4 0.696055 0.512140 0.506663
O O5 0.250000 0.560098 0.750000
O O6 0.125182 0.625182 0.717288
O O7 0.231808 0.577082 0.653037
O O8 0.148491 0.482852 0.695352
O O9 0.103655 0.071136 0.671191
O O10 0.143353 0.212159 0.668845
O O11 0.138328 0.143055 0.757501
O O12 0.238417 0.104921 0.691252
O O13 0.883729 0.941220 0.579439
O O14 0.995717 0.004284 0.625159
O O15 0.322927 0.677074 0.908858
O O16 0.314912 0.814912 0.872864
O O17 0.884007 0.748854 0.070275
O O18 0.851677 0.648324 0.000000
O O19 0.250000 0.250000 0.393467
O O20 0.149900 0.351684 0.359193
#
# Coordination Sequence:
#
# PCOD8317093 Si02
#       8
#    16  16  16  16  16  16  16  16
#     4   9  16  26  44  65  89 116 139 175 222 269
#     4  11  21  32  46  65  91 118 146 181 217 259
#     4   9  16  28  43  62  84 114 149 183 215 255
#     4   9  16  25  41  65  93 116 137 171 221 279
#     4   9  18  31  45  62  84 112 144 174 208 251
#     4   9  17  29  43  65  89 112 143 179 226 273
#     4   9  18  30  46  60  83 113 147 189 225 254
#     4  10  18  30  42  62  84 114 153 183 215 252
#
# _framework density 15.182183999999999
#
# number of rings (size 3 to 8) (size 9 to 14) (size 15 to 20)
#    0.000    2.625    1.250    1.875    0.000    5.375 
#    0.000    0.000    0.000    0.750    0.000    1.750 
#    0.000    0.000    0.000    0.000    0.000    0.000 
#
# Total GULP energy -1586153.491773 kJ/mol
# GULP energy per Si atom -12391.824154 kJ/mol
# Density = 1.514763 g / cm^3
# Si number density = 15.182184 Si / 1000 Ang^3
#
#
#
# Elastic Constant Matrix: (Units=GPa)
#
#
# Indices 1 2 3 4 5 6 
#
# 1 67.2470 33.0972 43.2107 0.0000 0.0000 0.0000
# 2 33.0972 67.2468 43.2112 0.0000 0.0000 0.0000
# 3 43.2107 43.2112 84.9054 0.0000 0.0000 0.0000
# 4 0.0000 0.0000 0.0000 18.7889 0.0000 0.0000
# 5 0.0000 0.0000 0.0000 0.0000 18.7889 0.0000
# 6 0.0000 0.0000 0.0000 0.0000 0.0000 17.7979
#
#
#
# Elastic Compliance Matrix: (Units=1/GPa)
#
#
# Indices 1 2 3 4 5 6 
#
# 1 0.023513 -0.005770 -0.009030 0.000000 0.000000 0.000000
# 2 -0.005770 0.023513 -0.009030 0.000000 0.000000 0.000000
# 3 -0.009030 -0.009030 0.020969 0.000000 0.000000 0.000000
# 4 0.000000 0.000000 0.000000 0.053223 0.000000 0.000000
# 5 0.000000 0.000000 0.000000 0.000000 0.053223 0.000000
# 6 0.000000 0.000000 0.000000 0.000000 0.000000 0.056186
#
#
# Mechanical properties :
#
#
# Convention : Reuss Voigt Hill
#
# Bulk Modulus (GPa) = 49.17614 50.93748 50.05681
# Shear Modulus (GPa) = 17.53991 17.73381 17.63686
#
# Velocity S-wave (km/s) = 3.40265 3.42141 3.41204
# Velocity P-wave (km/s) = 6.92087 7.01653 6.96886
#
# Compressibility (1/GPa) = 0.02033506
#
# Stress axis : x y z
#
# Youngs Moduli (GPa) = 42.53049 42.52979 47.68982
#
# Poissons Ratio (x) = 0.24540 0.43062
# Poissons Ratio (y) = 0.24541 0.43064
# Poissons Ratio (z) = 0.38403 0.38404
#
# Static dielectric constant tensor:
#      x y z
#    x 2.879420 0.000000 0.000000 
#    y 0.000000 2.879420 0.000000 
#    z 0.000000 0.000000 3.010610 
# 
# 
# High freq. dielectric constant tensor:
#      x y z
#    x 1.562430 0.000000 0.000000 
#    y 0.000000 1.562430 0.000000 
#    z 0.000000 0.000000 1.576570 
# 
# From -- ./inp_files/10320.got.cif
#   From: 2010.03.12/outbox.cif.g09.slc.cpg/sg134_6_cif.got.tgz:10320.got - 2010.04.06 18:17:22.
