data_PCOD8317518
_publ_section_title
;
Structure prediction by ZEFSAII (Michael W. Deem and Ramdas Pophale) SiO2 
 PCOD8317518
Probable space group: P 42/M B C
;
_chemical_formula_sum "Si O2"
_cell_formula_units_Z 112
_cell_length_a 14.929326
_cell_length_b 14.929326
_cell_length_c 25.485576
_cell_angle_alpha 90.000000
_cell_angle_beta 90.000000
_cell_angle_gamma 90.000000
_cell_volume 5680.346868
_symmetry_space_group_name_H-M "P 42/M B C"
_symmetry_group_IT_number 135
_symmetry_cell_setting 'tetragonal'
loop_
_space_group_symop_operation_xyz
x,y,z
-y,x,1/2+z
-x,-y,z
y,-x,1/2+z
1/2+x,1/2-y,-z
1/2-x,1/2+y,-z
1/2+y,1/2+x,1/2-z
1/2-y,1/2-x,1/2-z
-x,-y,-z
y,-x,1/2-z
x,y,-z
-y,x,1/2-z
1/2-x,1/2+y,z
1/2+x,1/2-y,z
1/2-y,1/2-x,1/2+z
1/2+y,1/2+x,1/2+z
loop_
_atom_site_type_symbol
_atom_site_label
_atom_site_fract_x
_atom_site_fract_y
_atom_site_fract_z
Si Si1 0.774208 0.034150 0.216033
Si Si2 0.963253 0.197044 0.939009
Si Si3 0.349984 0.283631 0.225645
Si Si4 0.095101 0.537120 0.193710
Si Si5 0.661636 0.806888 0.121292
Si Si6 0.024474 0.099598 0.383888
Si Si7 0.159072 0.147747 0.938777
O O1 0.800984 0.125983 0.245004
O O2 0.787296 0.952892 0.256614
O O3 0.669527 0.040948 0.199402
O O4 0.837387 0.021190 0.166305
O O5 0.913991 0.289232 0.922884
O O6 0.068307 0.201707 0.923297
O O7 0.905111 0.119970 0.911528
O O8 0.955945 0.179416 0.000000
O O9 0.302386 0.197615 0.250000
O O10 0.342358 0.275337 0.162737
O O11 0.084262 0.584262 0.250000
O O12 0.134987 0.602765 0.150477
O O13 0.000000 0.500000 0.173792
O O14 0.760009 0.813846 0.096125
O O15 0.955946 0.139563 0.426699
O O16 0.000000 0.000000 0.364748
O O17 0.183432 0.158549 0.000000
#
# Coordination Sequence:
#
# PCOD8317518 Si02
#       7
#    16  16  16  16  16  16  16
#     4  12  24  41  61  92 132 164 210 265 318 382
#     4  10  22  39  62  94 124 160 213 265 326 392
#     4  12  26  40  61  93 128 170 216 262 315 385
#     4  11  24  44  64  87 124 173 216 253 310 381
#     4  12  21  42  62  90 127 164 216 261 315 383
#     4  10  20  37  61  89 121 160 203 256 324 385
#     4  10  21  38  64  89 122 163 205 266 328 378
#
# _framework density 19.717103999999999
#
# number of rings (size 3 to 8) (size 9 to 14) (size 15 to 20)
#    0.000    1.000    5.714    0.857    4.000    4.000 
#    0.000    0.000    0.000    1.714    0.000    0.000 
#    0.000    0.000    0.000    0.000    0.000    0.000 
#
# Total GULP energy -1388507.539023 kJ/mol
# GULP energy per Si atom -12397.388741 kJ/mol
# Density = 1.967223 g / cm^3
# Si number density = 19.717104 Si / 1000 Ang^3
#
#
#
# Elastic Constant Matrix: (Units=GPa)
#
#
# Indices 1 2 3 4 5 6 
#
# 1 115.2025 45.4222 42.1454 0.0000 0.0000 0.0000
# 2 45.4222 115.2040 42.1457 0.0000 0.0000 0.0000
# 3 42.1454 42.1457 92.0793 0.0000 0.0000 0.0000
# 4 0.0000 0.0000 0.0000 28.5911 0.0000 0.0000
# 5 0.0000 0.0000 0.0000 0.0000 28.5911 0.0000
# 6 0.0000 0.0000 0.0000 0.0000 0.0000 32.9324
#
#
#
# Elastic Compliance Matrix: (Units=1/GPa)
#
#
# Indices 1 2 3 4 5 6 
#
# 1 0.011262 -0.003068 -0.003750 0.000000 0.000000 0.000000
# 2 -0.003068 0.011262 -0.003750 0.000000 0.000000 0.000000
# 3 -0.003750 -0.003750 0.014293 0.000000 0.000000 0.000000
# 4 0.000000 0.000000 0.000000 0.034976 0.000000 0.000000
# 5 0.000000 0.000000 0.000000 0.000000 0.034976 0.000000
# 6 0.000000 0.000000 0.000000 0.000000 0.000000 0.030365
#
#
# Mechanical properties :
#
#
# Convention : Reuss Voigt Hill
#
# Bulk Modulus (GPa) = 63.77789 64.65692 64.21741
# Shear Modulus (GPa) = 30.58118 30.87444 30.72781
#
# Velocity S-wave (km/s) = 3.94254 3.96140 3.95198
# Velocity P-wave (km/s) = 7.28983 7.33397 7.31193
#
# Compressibility (1/GPa) = 0.01567941
#
# Stress axis : x y z
#
# Youngs Moduli (GPa) = 88.79261 88.79372 69.96264
#
# Poissons Ratio (x) = 0.27246 0.26238
# Poissons Ratio (y) = 0.27245 0.26238
# Poissons Ratio (z) = 0.33300 0.33301
#
# Static dielectric constant tensor:
#      x y z
#    x 3.803060 0.000000 0.000000 
#    y 0.000000 3.803050 0.000000 
#    z 0.000000 0.000000 3.642430 
# 
# 
# High freq. dielectric constant tensor:
#      x y z
#    x 1.772830 0.000000 0.000000 
#    y 0.000000 1.772830 0.000000 
#    z 0.000000 0.000000 1.764440 
# 
# From -- ./inp_files/6138.got.cif
#   From: 2010.03.12/outbox.cif.g09.slc.cpg/sg135_4_cif.got.tgz:6138.got - 2010.04.06 18:31:24.
