data_PCOD8317687
_publ_section_title
;
Structure prediction by ZEFSAII (Michael W. Deem and Ramdas Pophale) SiO2 
 PCOD8317687
Probable space group: P 42/M N M
;
_chemical_formula_sum "Si O2"
_cell_formula_units_Z 104
_cell_length_a 25.106837
_cell_length_b 25.106837
_cell_length_c 13.867247
_cell_angle_alpha 90.000000
_cell_angle_beta 90.000000
_cell_angle_gamma 90.000000
_cell_volume 8741.264411
_symmetry_space_group_name_H-M "P 42/M N M"
_symmetry_group_IT_number 136
_symmetry_cell_setting 'tetragonal'
loop_
_space_group_symop_operation_xyz
x,y,z
1/2-y,1/2+x,1/2+z
-x,-y,z
1/2+y,1/2-x,1/2+z
1/2+x,1/2-y,1/2-z
1/2-x,1/2+y,1/2-z
y,x,-z
-y,-x,-z
-x,-y,-z
1/2+y,1/2-x,1/2-z
x,y,-z
1/2-y,1/2+x,1/2-z
1/2-x,1/2+y,1/2+z
1/2+x,1/2-y,1/2+z
-y,-x,z
y,x,z
loop_
_atom_site_type_symbol
_atom_site_label
_atom_site_fract_x
_atom_site_fract_y
_atom_site_fract_z
Si Si1 0.880879 0.207758 0.205869
Si Si2 0.660438 0.749673 0.106298
Si Si3 0.981358 0.160413 0.886311
Si Si4 0.541829 0.541829 0.614363
Si Si5 0.195816 0.715007 0.105783
Si Si6 0.734536 0.824246 0.792757
Si Si7 0.101352 0.188046 0.887666
O O1 0.845729 0.154272 0.194603
O O2 0.882769 0.228004 0.316877
O O3 0.940699 0.197758 0.171168
O O4 0.857242 0.254772 0.140050
O O5 0.708213 0.708213 0.103010
O O6 0.685140 0.806329 0.139668
O O7 0.634213 0.755844 0.000000
O O8 0.973666 0.100319 0.849504
O O9 0.040632 0.178031 0.858933
O O10 0.970043 0.165123 0.000000
O O11 0.500000 0.500000 0.659474
O O12 0.539044 0.539044 0.500000
O O13 0.242503 0.757498 0.100399
O O14 0.212753 0.669615 0.182943
O O15 0.186256 0.689240 0.000000
O O16 0.779247 0.779247 0.798235
O O17 0.759876 0.879452 0.828884
O O18 0.135748 0.135748 0.860733
O O19 0.107612 0.200938 0.000000
#
# Coordination Sequence:
#
# PCOD8317687 Si02
#       7
#    16  16  16   8  16  16  16
#     4   9  15  22  32  48  67  85 106 132 166 204
#     4   8  13  21  34  50  65  79  98 127 163 202
#     4  10  17  23  32  45  64  89 112 140 174 204
#     4   9  16  24  32  42  59  85 117 147 176 206
#     4   8  13  20  32  49  67  83 100 123 156 200
#     4   8  13  21  33  48  64  82 102 130 163 195
#     4   9  16  24  33  45  62  85 114 143 170 198
#
# _framework density 11.897593000000001
#
# number of rings (size 3 to 8) (size 9 to 14) (size 15 to 20)
#    0.000    3.308    0.769    3.231    0.000    4.308 
#    0.000    0.000    0.000    0.923    0.000    0.000 
#    0.000    2.462    0.000    0.000    0.000   12.615 
#
# Total GULP energy -1288767.286908 kJ/mol
# GULP energy per Si atom -12391.993143 kJ/mol
# Density = 1.187051 g / cm^3
# Si number density = 11.897593 Si / 1000 Ang^3
#
#
#
# Elastic Constant Matrix: (Units=GPa)
#
#
# Indices 1 2 3 4 5 6 
#
# 1 53.4829 46.7227 35.8522 0.0000 0.0000 0.0000
# 2 46.7227 53.4829 35.8522 0.0000 0.0000 0.0000
# 3 35.8522 35.8522 86.5184 0.0000 0.0000 0.0000
# 4 0.0000 0.0000 0.0000 14.3312 0.0000 0.0000
# 5 0.0000 0.0000 0.0000 0.0000 14.3312 0.0000
# 6 0.0000 0.0000 0.0000 0.0000 0.0000 17.5317
#
#
#
# Elastic Compliance Matrix: (Units=1/GPa)
#
#
# Indices 1 2 3 4 5 6 
#
# 1 0.081056 -0.066870 -0.005879 0.000000 0.000000 0.000000
# 2 -0.066870 0.081056 -0.005879 0.000000 0.000000 0.000000
# 3 -0.005879 -0.005879 0.016430 0.000000 0.000000 0.000000
# 4 0.000000 0.000000 0.000000 0.069778 0.000000 0.000000
# 5 0.000000 0.000000 0.000000 0.000000 0.069778 0.000000
# 6 0.000000 0.000000 0.000000 0.000000 0.000000 0.057039
#
#
# Mechanical properties :
#
#
# Convention : Reuss Voigt Hill
#
# Bulk Modulus (GPa) = 46.97450 47.81539 47.39494
# Shear Modulus (GPa) = 9.26807 14.24264 11.75535
#
# Velocity S-wave (km/s) = 2.79406 3.46367 3.14673
# Velocity P-wave (km/s) = 7.06945 7.50149 7.28867
#
# Compressibility (1/GPa) = 0.02128815
#
# Stress axis : x y z
#
# Youngs Moduli (GPa) = 12.33716 12.33716 60.86352
#
# Poissons Ratio (x) = 0.82499 0.35779
# Poissons Ratio (y) = 0.82499 0.35779
# Poissons Ratio (z) = 0.07252 0.07252
#
# Static dielectric constant tensor:
#      x y z
#    x 2.282470 0.000000 0.000000 
#    y 0.000000 2.282470 0.000000 
#    z 0.000000 0.000000 2.766970 
# 
# 
# High freq. dielectric constant tensor:
#      x y z
#    x 1.420490 0.000000 0.000000 
#    y 0.000000 1.420490 0.000000 
#    z 0.000000 0.000000 1.446180 
# 
# From -- ./inp_files/5348.got.cif
#   From: 2010.03.12/outbox.cif.g09.slc.cpg/sg136_3_cif.got.tgz:5348.got - 2010.04.06 18:39:43.
