data_PCOD8317964
_publ_section_title
;
Structure prediction by ZEFSAII (Michael W. Deem and Ramdas Pophale) SiO2 
 PCOD8317964
Probable space group: P 42/M N M
;
_chemical_formula_sum "Si O2"
_cell_formula_units_Z 120
_cell_length_a 26.218284
_cell_length_b 26.218284
_cell_length_c 9.263957
_cell_angle_alpha 90.000000
_cell_angle_beta 90.000000
_cell_angle_gamma 90.000000
_cell_volume 6368.029367
_symmetry_space_group_name_H-M "P 42/M N M"
_symmetry_group_IT_number 136
_symmetry_cell_setting 'tetragonal'
loop_
_space_group_symop_operation_xyz
x,y,z
1/2-y,1/2+x,1/2+z
-x,-y,z
1/2+y,1/2-x,1/2+z
1/2+x,1/2-y,1/2-z
1/2-x,1/2+y,1/2-z
y,x,-z
-y,-x,-z
-x,-y,-z
1/2+y,1/2-x,1/2-z
x,y,-z
1/2-y,1/2+x,1/2-z
1/2-x,1/2+y,1/2+z
1/2+x,1/2-y,1/2+z
-y,-x,z
y,x,z
loop_
_atom_site_type_symbol
_atom_site_label
_atom_site_fract_x
_atom_site_fract_y
_atom_site_fract_z
Si Si1 0.535733 0.725610 0.827248
Si Si2 0.957383 0.957383 0.158030
Si Si3 0.878548 0.289905 0.163411
Si Si4 0.314308 0.766374 0.828527
Si Si5 0.392118 0.934111 0.157350
Si Si6 0.227366 0.571756 0.169802
Si Si7 0.631116 0.953663 0.163819
Si Si8 0.035957 0.879530 0.169748
O O1 0.581374 0.760377 0.765024
O O2 0.478545 0.742208 0.774299
O O3 0.544887 0.669531 0.766549
O O4 0.539642 0.726100 0.000000
O O5 0.984441 0.908179 0.231648
O O6 0.939633 0.939633 0.000000
O O7 0.000000 0.000000 0.139999
O O8 0.820623 0.290784 0.226919
O O9 0.891320 0.349270 0.159742
O O10 0.881268 0.266880 0.000000
O O11 0.278330 0.721671 0.766800
O O12 0.372574 0.751122 0.781781
O O13 0.312733 0.769168 0.000000
O O14 0.434007 0.923893 0.280828
O O15 0.363850 0.986678 0.188235
O O16 0.419088 0.936207 0.000000
O O17 0.171458 0.572906 0.234502
O O18 0.222715 0.567822 0.000000
O O19 0.640004 0.937008 0.000000
O O20 0.084937 0.915064 0.191804
O O21 0.029619 0.866037 0.000000
#
# Coordination Sequence:
#
# PCOD8317964 Si02
#       8
#    16   8  16  16  16  16  16  16
#     4  11  23  35  53  85 120 151 183 230 291 345
#     4   7  12  28  55  81 101 133 183 227 265 317
#     4  10  19  35  58  80 106 144 190 235 274 326
#     4   9  18  35  60  84 105 140 191 237 277 330
#     4  10  21  37  55  79 110 142 179 225 275 327
#     4  10  20  37  57  80 112 149 186 229 280 336
#     4  11  22  35  57  83 107 144 186 226 276 333
#     4   9  18  35  59  82 108 146 189 231 276 334
#
# _framework density 18.844132999999999
#
# number of rings (size 3 to 8) (size 9 to 14) (size 15 to 20)
#    0.000    2.200    2.667    1.600    0.000    3.200 
#    1.200    3.000    0.000    2.400    0.000    0.000 
#    0.000    0.000    0.000    0.000    0.000    0.000 
#
# Total GULP energy -1486591.587423 kJ/mol
# GULP energy per Si atom -12388.263229 kJ/mol
# Density = 1.880124 g / cm^3
# Si number density = 18.844133 Si / 1000 Ang^3
#
#
#
# Elastic Constant Matrix: (Units=GPa)
#
#
# Indices 1 2 3 4 5 6 
#
# 1 103.9639 46.3246 32.7873 0.0000 0.0000 0.0000
# 2 46.3246 103.9639 32.7873 0.0000 0.0000 0.0000
# 3 32.7873 32.7873 24.7278 0.0000 0.0000 0.0000
# 4 0.0000 0.0000 0.0000 22.6618 0.0000 0.0000
# 5 0.0000 0.0000 0.0000 0.0000 22.6618 0.0000
# 6 0.0000 0.0000 0.0000 0.0000 0.0000 29.8419
#
#
#
# Elastic Compliance Matrix: (Units=1/GPa)
#
#
# Indices 1 2 3 4 5 6 
#
# 1 0.016568 -0.000781 -0.020933 0.000000 0.000000 0.000000
# 2 -0.000781 0.016568 -0.020933 0.000000 0.000000 0.000000
# 3 -0.020933 -0.020933 0.095952 0.000000 0.000000 0.000000
# 4 0.000000 0.000000 0.000000 0.044127 0.000000 0.000000
# 5 0.000000 0.000000 0.000000 0.000000 0.044127 0.000000
# 6 0.000000 0.000000 0.000000 0.000000 0.000000 0.033510
#
#
# Mechanical properties :
#
#
# Convention : Reuss Voigt Hill
#
# Bulk Modulus (GPa) = 22.83395 50.71712 36.77553
# Shear Modulus (GPa) = 14.25539 23.08353 18.66946
#
# Velocity S-wave (km/s) = 2.75342 3.50376 3.15100
# Velocity P-wave (km/s) = 4.71720 6.58338 5.72682
#
# Compressibility (1/GPa) = 0.04379445
#
# Stress axis : x y z
#
# Youngs Moduli (GPa) = 60.35597 60.35597 10.42191
#
# Poissons Ratio (x) = 0.04713 0.21816
# Poissons Ratio (y) = 0.04713 0.21816
# Poissons Ratio (z) = 1.26343 1.26343
#
# Static dielectric constant tensor:
#      x y z
#    x 3.585070 0.000000 0.000000 
#    y 0.000000 3.585070 0.000000 
#    z 0.000000 0.000000 3.280450 
# 
# 
# High freq. dielectric constant tensor:
#      x y z
#    x 1.732470 0.000000 0.000000 
#    y 0.000000 1.732470 0.000000 
#    z 0.000000 0.000000 1.704500 
# 
# From -- ./inp_files/2286.got.cif
#   From: 2010.03.12/outbox.cif.g09.slc.cpg/sg136_2_cif.got.tgz:2286.got - 2010.04.06 18:39:43.
