data_PCOD8317658
_publ_section_title
;
Structure prediction by ZEFSAII (Michael W. Deem and Ramdas Pophale) SiO2 
 PCOD8317658
Probable space group: P 42/M B C
;
_chemical_formula_sum "Si O2"
_cell_formula_units_Z 48
_cell_length_a 10.467599
_cell_length_b 10.467599
_cell_length_c 17.553153
_cell_angle_alpha 90.000000
_cell_angle_beta 90.000000
_cell_angle_gamma 90.000000
_cell_volume 1923.310012
_symmetry_space_group_name_H-M "P 42/M B C"
_symmetry_group_IT_number 135
_symmetry_cell_setting 'tetragonal'
loop_
_space_group_symop_operation_xyz
x,y,z
-y,x,1/2+z
-x,-y,z
y,-x,1/2+z
1/2+x,1/2-y,-z
1/2-x,1/2+y,-z
1/2+y,1/2+x,1/2-z
1/2-y,1/2-x,1/2-z
-x,-y,-z
y,-x,1/2-z
x,y,-z
-y,x,1/2-z
1/2-x,1/2+y,z
1/2+x,1/2-y,z
1/2-y,1/2-x,1/2+z
1/2+y,1/2+x,1/2+z
loop_
_atom_site_type_symbol
_atom_site_label
_atom_site_fract_x
_atom_site_fract_y
_atom_site_fract_z
Si Si1 0.516287 0.306708 0.225263
Si Si2 0.488578 0.148052 0.361326
Si Si3 0.756325 0.186916 0.586543
O O1 0.383753 0.382290 0.222650
O O2 0.497591 0.173640 0.270115
O O3 0.564343 0.284512 0.139982
O O4 0.350939 0.197134 0.391057
O O5 0.606302 0.222059 0.403120
O O6 0.500000 0.000000 0.380621
O O7 0.783494 0.146399 0.500000
#
# Coordination Sequence:
#
# PCOD8317658 Si02
#       3
#    16  16  16
#     4   9  21  45  73 105 141 191 247 296 359 447
#     4  11  26  49  75 106 150 199 248 303 373 453
#     4  11  25  46  74 109 148 191 245 311 372 432
#
# _framework density 24.956973000000001
#
# number of rings (size 3 to 8) (size 9 to 14) (size 15 to 20)
#    0.000    1.667    0.000    2.000    4.667    5.333 
#    6.000   13.333    0.000    0.000    0.000    0.000 
#    0.000    0.000    0.000    0.000    0.000    0.000 
#
# Total GULP energy -595000.507057 kJ/mol
# GULP energy per Si atom -12395.843897 kJ/mol
# Density = 2.490017 g / cm^3
# Si number density = 24.956973 Si / 1000 Ang^3
#
#
#
# Elastic Constant Matrix: (Units=GPa)
#
#
# Indices 1 2 3 4 5 6 
#
# 1 149.8428 65.2079 41.8015 0.0000 0.0000 0.0000
# 2 65.2079 149.8428 41.8015 0.0000 0.0000 0.0000
# 3 41.8015 41.8015 152.0388 0.0000 0.0000 0.0000
# 4 0.0000 0.0000 0.0000 22.4734 0.0000 0.0000
# 5 0.0000 0.0000 0.0000 0.0000 22.4734 0.0000
# 6 0.0000 0.0000 0.0000 0.0000 0.0000 32.4015
#
#
#
# Elastic Compliance Matrix: (Units=1/GPa)
#
#
# Indices 1 2 3 4 5 6 
#
# 1 0.008511 -0.003304 -0.001431 0.000000 0.000000 0.000000
# 2 -0.003304 0.008511 -0.001431 0.000000 0.000000 0.000000
# 3 -0.001431 -0.001431 0.007364 0.000000 0.000000 0.000000
# 4 0.000000 0.000000 0.000000 0.044497 0.000000 0.000000
# 5 0.000000 0.000000 0.000000 0.000000 0.044497 0.000000
# 6 0.000000 0.000000 0.000000 0.000000 0.000000 0.030863
#
#
# Mechanical properties :
#
#
# Convention : Reuss Voigt Hill
#
# Bulk Modulus (GPa) = 82.97662 83.26070 83.11866
# Shear Modulus (GPa) = 31.13411 35.66387 33.39899
#
# Velocity S-wave (km/s) = 3.53584 3.78433 3.66220
# Velocity P-wave (km/s) = 7.07034 7.24769 7.15956
#
# Compressibility (1/GPa) = 0.01205159
#
# Stress axis : x y z
#
# Youngs Moduli (GPa) = 117.49484 117.49484 135.78805
#
# Poissons Ratio (x) = 0.38825 0.19438
# Poissons Ratio (y) = 0.38825 0.19438
# Poissons Ratio (z) = 0.16819 0.16819
#
# Static dielectric constant tensor:
#      x y z
#    x 4.815820 0.000000 0.000000 
#    y 0.000000 4.815820 0.000000 
#    z 0.000000 0.000000 4.242260 
# 
# 
# High freq. dielectric constant tensor:
#      x y z
#    x 2.004580 0.000000 0.000000 
#    y 0.000000 2.004580 0.000000 
#    z 0.000000 0.000000 1.978020 
# 
# From -- ./inp_files/3993.got.cif
#   From: 2010.03.12/outbox.cif.g09.slc.cpg/sg135_2_cif.got.tgz:3993.got - 2010.04.06 18:31:24.
