data_PCOD8317570
_publ_section_title
;
Structure prediction by ZEFSAII (Michael W. Deem and Ramdas Pophale) SiO2 
 PCOD8317570
Probable space group: P 42/M B C
;
_chemical_formula_sum "Si O2"
_cell_formula_units_Z 80
_cell_length_a 14.382785
_cell_length_b 14.382785
_cell_length_c 18.808229
_cell_angle_alpha 90.000000
_cell_angle_beta 90.000000
_cell_angle_gamma 90.000000
_cell_volume 3890.754970
_symmetry_space_group_name_H-M "P 42/M B C"
_symmetry_group_IT_number 135
_symmetry_cell_setting 'tetragonal'
loop_
_space_group_symop_operation_xyz
x,y,z
-y,x,1/2+z
-x,-y,z
y,-x,1/2+z
1/2+x,1/2-y,-z
1/2-x,1/2+y,-z
1/2+y,1/2+x,1/2-z
1/2-y,1/2-x,1/2-z
-x,-y,-z
y,-x,1/2-z
x,y,-z
-y,x,1/2-z
1/2-x,1/2+y,z
1/2+x,1/2-y,z
1/2-y,1/2-x,1/2+z
1/2+y,1/2+x,1/2+z
loop_
_atom_site_type_symbol
_atom_site_label
_atom_site_fract_x
_atom_site_fract_y
_atom_site_fract_z
Si Si1 0.637425 0.813112 0.674507
Si Si2 0.744748 0.062502 0.811069
Si Si3 0.594094 0.553395 0.919416
Si Si4 0.735569 0.957787 0.579094
Si Si5 0.249480 0.359297 0.658549
O O1 0.689738 0.810263 0.750000
O O2 0.527623 0.821477 0.688832
O O3 0.665285 0.903800 0.630297
O O4 0.672219 0.717111 0.637823
O O5 0.829052 0.029185 0.861065
O O6 0.688478 0.149024 0.841137
O O7 0.777562 0.087282 0.731363
O O8 0.500000 0.500000 0.897752
O O9 0.585359 0.663281 0.914883
O O10 0.623467 0.523959 0.000000
O O11 0.695385 0.947951 0.500000
O O12 0.744103 0.066406 0.596127
#
# Coordination Sequence:
#
# PCOD8317570 Si02
#       5
#    16  16  16  16  16
#     4  12  22  42  66  91 132 169 218 272 327 383
#     4  11  23  39  65  93 126 172 213 268 320 381
#     4  10  21  41  65  96 132 167 214 269 324 381
#     4  11  24  42  66  96 132 172 213 266 328 387
#     4  11  23  42  63  95 130 169 219 265 322 385
#
# _framework density 20.561561999999999
#
# number of rings (size 3 to 8) (size 9 to 14) (size 15 to 20)
#    0.000    1.000    6.000    1.200    0.000    3.200 
#    0.000    1.000    0.000    0.000    0.000    0.000 
#    0.000    0.000    0.000    0.000    0.000    0.000 
#
# Total GULP energy -992080.931318 kJ/mol
# GULP energy per Si atom -12401.011641 kJ/mol
# Density = 2.051476 g / cm^3
# Si number density = 20.561562 Si / 1000 Ang^3
#
#
#
# Elastic Constant Matrix: (Units=GPa)
#
#
# Indices 1 2 3 4 5 6 
#
# 1 87.6852 8.2525 27.4079 0.0000 0.0000 0.0000
# 2 8.2525 87.6859 27.4081 0.0000 0.0000 0.0000
# 3 27.4079 27.4081 88.9074 0.0000 0.0000 0.0000
# 4 0.0000 0.0000 0.0000 23.3382 0.0000 0.0000
# 5 0.0000 0.0000 0.0000 0.0000 23.3378 0.0000
# 6 0.0000 0.0000 0.0000 0.0000 0.0000 29.1852
#
#
#
# Elastic Compliance Matrix: (Units=1/GPa)
#
#
# Indices 1 2 3 4 5 6 
#
# 1 0.012621 0.000031 -0.003900 0.000000 0.000000 0.000000
# 2 0.000031 0.012621 -0.003900 0.000000 0.000000 0.000000
# 3 -0.003900 -0.003900 0.013652 0.000000 0.000000 0.000000
# 4 0.000000 0.000000 0.000000 0.042848 0.000000 0.000000
# 5 0.000000 0.000000 0.000000 0.000000 0.042849 0.000000
# 6 0.000000 0.000000 0.000000 0.000000 0.000000 0.034264
#
#
# Mechanical properties :
#
#
# Convention : Reuss Voigt Hill
#
# Bulk Modulus (GPa) = 42.81725 43.37949 43.09837
# Shear Modulus (GPa) = 27.44568 28.58624 28.01596
#
# Velocity S-wave (km/s) = 3.65746 3.73269 3.69527
# Velocity P-wave (km/s) = 6.22135 6.30241 6.26201
#
# Compressibility (1/GPa) = 0.02335507
#
# Stress axis : x y z
#
# Youngs Moduli (GPa) = 79.23559 79.23611 73.24732
#
# Poissons Ratio (x) = -0.00248 0.28568
# Poissons Ratio (y) = -0.00248 0.28568
# Poissons Ratio (z) = 0.30904 0.30904
#
# Static dielectric constant tensor:
#      x y z
#    x 3.693150 0.000000 0.000000 
#    y 0.000000 3.693150 0.000000 
#    z 0.000000 0.000000 3.780370 
# 
# 
# High freq. dielectric constant tensor:
#      x y z
#    x 1.806140 0.000000 0.000000 
#    y 0.000000 1.806140 0.000000 
#    z 0.000000 0.000000 1.799880 
# 
# From -- ./inp_files/5176.got.cif
#   From: 2010.03.12/outbox.cif.g09.slc.cpg/sg135_3_cif.got.tgz:5176.got - 2010.04.06 18:31:24.
