data_PCOD8317005
_publ_section_title
;
Structure prediction by ZEFSAII (Michael W. Deem and Ramdas Pophale) SiO2 
 PCOD8317005
Probable space group: P 42/N B C
;
_chemical_formula_sum "Si O2"
_cell_formula_units_Z 52
_cell_length_a 13.635742
_cell_length_b 13.635742
_cell_length_c 12.175108
_cell_angle_alpha 90.000000
_cell_angle_beta 90.000000
_cell_angle_gamma 90.000000
_cell_volume 2263.759955
_symmetry_space_group_name_H-M "P 42/N B C"
_symmetry_group_IT_number 133
_space_group.IT_coordinate_system_code '2'
_symmetry_cell_setting 'tetragonal'
loop_
_space_group_symop_operation_xyz
x,y,z
1/2-y,x,1/2+z
1/2-x,1/2-y,z
y,1/2-x,1/2+z
x,1/2-y,-z
1/2-x,y,-z
y,x,1/2-z
1/2-y,1/2-x,1/2-z
-x,-y,-z
1/2+y,-x,1/2-z
1/2+x,1/2+y,-z
-y,1/2+x,1/2-z
-x,1/2+y,z
1/2+x,-y,z
-y,-x,1/2+z
1/2+y,1/2+x,1/2+z
loop_
_atom_site_type_symbol
_atom_site_label
_atom_site_fract_x
_atom_site_fract_y
_atom_site_fract_z
Si Si1 0.250000 0.495201 0.000000
Si Si2 0.640749 0.921540 0.515646
Si Si3 0.049953 0.450047 0.250000
Si Si4 0.124523 0.888008 0.369958
Si Si5 0.750000 0.250000 0.250000
O O1 0.341696 0.429252 0.044291
O O2 0.290623 0.565045 0.904819
O O3 0.750000 0.882681 0.500000
O O4 0.614385 0.920206 0.644458
O O5 0.632671 0.031643 0.466707
O O6 0.062897 0.565440 0.229272
O O7 0.228223 0.846389 0.325378
#
# Coordination Sequence:
#
# PCOD8317005 Si02
#       5
#     8  16   8  16   4
#     4  10  23  43  70  94 134 190 226 293 371 426
#     4  11  24  46  70 101 143 180 240 306 364 443
#     4  10  22  46  67 102 133 190 232 290 376 432
#     4  11  26  42  72  99 145 183 242 302 361 450
#     4  12  28  42  68 112 142 196 252 298 392 440
#
# _framework density 22.970632999999999
#
# number of rings (size 3 to 8) (size 9 to 14) (size 15 to 20)
#    0.000    1.231    0.000    6.000   12.923    0.000 
#    0.000    6.154    0.000    0.000    0.000    0.000 
#    0.000    0.000    0.000    0.000    0.000    0.000 
#
# Total GULP energy -644470.476822 kJ/mol
# GULP energy per Si atom -12393.663016 kJ/mol
# Density = 2.291835 g / cm^3
# Si number density = 22.970633 Si / 1000 Ang^3
#
#
#
# Elastic Constant Matrix: (Units=GPa)
#
#
# Indices 1 2 3 4 5 6 
#
# 1 118.3117 39.7184 45.4678 0.0000 0.0000 0.0000
# 2 39.7184 118.3132 45.4679 0.0000 0.0000 0.0000
# 3 45.4678 45.4679 101.5274 0.0000 0.0000 0.0000
# 4 0.0000 0.0000 0.0000 28.3952 0.0000 0.0000
# 5 0.0000 0.0000 0.0000 0.0000 28.3942 0.0000
# 6 0.0000 0.0000 0.0000 0.0000 0.0000 45.6469
#
#
#
# Elastic Compliance Matrix: (Units=1/GPa)
#
#
# Indices 1 2 3 4 5 6 
#
# 1 0.010624 -0.002099 -0.003818 0.000000 0.000000 0.000000
# 2 -0.002099 0.010624 -0.003818 0.000000 0.000000 0.000000
# 3 -0.003818 -0.003818 0.013269 0.000000 0.000000 0.000000
# 4 0.000000 0.000000 0.000000 0.035217 0.000000 0.000000
# 5 0.000000 0.000000 0.000000 0.000000 0.035218 0.000000
# 6 0.000000 0.000000 0.000000 0.000000 0.000000 0.021907
#
#
# Mechanical properties :
#
#
# Convention : Reuss Voigt Hill
#
# Bulk Modulus (GPa) = 66.45572 66.60674 66.53123
# Shear Modulus (GPa) = 33.03693 34.32046 33.67869
#
# Velocity S-wave (km/s) = 3.79651 3.86955 3.83320
# Velocity P-wave (km/s) = 6.94345 7.00172 6.97264
#
# Compressibility (1/GPa) = 0.01504761
#
# Stress axis : x y z
#
# Youngs Moduli (GPa) = 94.12453 94.12581 75.36378
#
# Poissons Ratio (x) = 0.19761 0.28772
# Poissons Ratio (y) = 0.19761 0.28771
# Poissons Ratio (z) = 0.35934 0.35934
#
# Static dielectric constant tensor:
#      x y z
#    x 4.422320 0.000000 0.000000 
#    y 0.000000 4.422310 0.000000 
#    z 0.000000 0.000000 3.820020 
# 
# 
# High freq. dielectric constant tensor:
#      x y z
#    x 1.917620 0.000000 0.000000 
#    y 0.000000 1.917620 0.000000 
#    z 0.000000 0.000000 1.888930 
# 
# From -- ./inp_files/2798.got.cif
#   From: 2010.03.12/outbox.cif.g09.slc.cpg/sg133_2_cif.got.tgz:2798.got - 2010.04.06 18:08:06.
