data_PCOD8317603
_publ_section_title
;
Structure prediction by ZEFSAII (Michael W. Deem and Ramdas Pophale) SiO2 
 PCOD8317603
Probable space group: P 42/M B C
;
_chemical_formula_sum "Si O2"
_cell_formula_units_Z 112
_cell_length_a 15.225334
_cell_length_b 15.225334
_cell_length_c 22.772537
_cell_angle_alpha 90.000000
_cell_angle_beta 90.000000
_cell_angle_gamma 90.000000
_cell_volume 5278.919916
_symmetry_space_group_name_H-M "P 42/M B C"
_symmetry_group_IT_number 135
_symmetry_cell_setting 'tetragonal'
loop_
_space_group_symop_operation_xyz
x,y,z
-y,x,1/2+z
-x,-y,z
y,-x,1/2+z
1/2+x,1/2-y,-z
1/2-x,1/2+y,-z
1/2+y,1/2+x,1/2-z
1/2-y,1/2-x,1/2-z
-x,-y,-z
y,-x,1/2-z
x,y,-z
-y,x,1/2-z
1/2-x,1/2+y,z
1/2+x,1/2-y,z
1/2-y,1/2-x,1/2+z
1/2+y,1/2+x,1/2+z
loop_
_atom_site_type_symbol
_atom_site_label
_atom_site_fract_x
_atom_site_fract_y
_atom_site_fract_z
Si Si1 0.755677 0.560311 0.157258
Si Si2 0.916497 0.439827 0.816619
Si Si3 0.912679 0.950459 0.830192
Si Si4 0.822844 0.055017 0.567039
Si Si5 0.686577 0.327106 0.736001
Si Si6 0.736838 0.896150 0.623923
Si Si7 0.293105 0.777559 0.568327
O O1 0.825764 0.485977 0.168480
O O2 0.658217 0.522251 0.151608
O O3 0.753323 0.626140 0.213030
O O4 0.779712 0.611084 0.097699
O O5 0.908336 0.408336 0.750000
O O6 0.928093 0.360244 0.861124
O O7 0.000000 0.500000 0.827074
O O8 0.940457 0.905520 0.890589
O O9 0.866389 0.879660 0.786362
O O10 0.000000 0.000000 0.803897
O O11 0.855448 0.062177 0.500000
O O12 0.755047 0.131937 0.582591
O O13 0.775224 0.962417 0.576241
O O14 0.781296 0.281296 0.750000
O O15 0.704277 0.396239 0.683287
O O16 0.733668 0.799383 0.595880
O O17 0.307104 0.761707 0.500000
#
# Coordination Sequence:
#
# PCOD8317603 Si02
#       7
#    16  16  16  16  16  16  16
#     4  11  24  40  63  96 132 170 213 277 340 394
#     4  11  24  38  62  94 131 172 212 267 334 401
#     4  12  26  40  64  98 134 172 222 280 342 415
#     4  11  25  44  68  92 127 179 224 275 337 404
#     4  11  25  41  66  93 134 179 218 269 340 411
#     4  11  22  43  64  92 130 169 224 272 327 407
#     4  10  22  43  68  92 122 171 227 272 330 400
#
# _framework density 21.216460000000001
#
# number of rings (size 3 to 8) (size 9 to 14) (size 15 to 20)
#    0.000    1.000    0.000    7.714    8.000    0.857 
#    0.000    1.429    0.000    3.857    0.000    0.000 
#    0.000    0.000    0.000    0.000    0.000    0.000 
#
# Total GULP energy -1388881.511226 kJ/mol
# GULP energy per Si atom -12400.727779 kJ/mol
# Density = 2.116817 g / cm^3
# Si number density = 21.216460 Si / 1000 Ang^3
#
#
#
# Elastic Constant Matrix: (Units=GPa)
#
#
# Indices 1 2 3 4 5 6 
#
# 1 112.5377 33.4118 41.3335 0.0000 0.0000 0.0000
# 2 33.4118 112.5377 41.3335 0.0000 0.0000 0.0000
# 3 41.3335 41.3335 109.8766 0.0000 0.0000 0.0000
# 4 0.0000 0.0000 0.0000 -68.0746 0.0000 0.0000
# 5 0.0000 0.0000 0.0000 0.0000 -68.0746 0.0000
# 6 0.0000 0.0000 0.0000 0.0000 0.0000 40.9956
#
#
#
# Elastic Compliance Matrix: (Units=1/GPa)
#
#
# Indices 1 2 3 4 5 6 
#
# 1 0.010672 -0.001966 -0.003275 0.000000 0.000000 0.000000
# 2 -0.001966 0.010672 -0.003275 0.000000 0.000000 0.000000
# 3 -0.003275 -0.003275 0.011565 0.000000 0.000000 0.000000
# 4 0.000000 0.000000 0.000000 -0.014690 0.000000 0.000000
# 5 0.000000 0.000000 0.000000 0.000000 -0.014690 0.000000
# 6 0.000000 0.000000 0.000000 0.000000 0.000000 0.024393
#
#
# Mechanical properties :
#
#
# Convention : Reuss Voigt Hill
#
# Bulk Modulus (GPa) = 62.98149 63.01218 62.99683
# Shear Modulus (GPa) = 99.50465 -4.43919 47.53273
#
# Velocity S-wave (km/s) = 6.85577 -1.44806 4.73839
# Velocity P-wave (km/s) = 9.61345 5.19310 7.72615
#
# Compressibility (1/GPa) = 0.01587768
#
# Stress axis : x y z
#
# Youngs Moduli (GPa) = 93.69889 93.69889 86.46489
#
# Poissons Ratio (x) = 0.18417 0.28320
# Poissons Ratio (y) = 0.18417 0.28320
# Poissons Ratio (z) = 0.30690 0.30690
#
# Static dielectric constant tensor:
#      x y z
#    x 4.660490 0.000000 0.000000 
#    y 0.000000 4.660490 0.000000 
#    z 0.000000 0.000000 4.381230 
# 
# 
# High freq. dielectric constant tensor:
#      x y z
#    x 1.844000 0.000000 0.000000 
#    y 0.000000 1.844000 0.000000 
#    z 0.000000 0.000000 1.827440 
# 
# From -- ./inp_files/6126.got.cif
#   From: 2010.03.12/outbox.cif.g09.slc.cpg/sg135_4_cif.got.tgz:6126.got - 2010.04.06 18:31:24.
