data_PCOD8317021
_publ_section_title
;
Structure prediction by ZEFSAII (Michael W. Deem and Ramdas Pophale) SiO2 
 PCOD8317021
Probable space group: P 42/N B C
;
_chemical_formula_sum "Si O2"
_cell_formula_units_Z 64
_cell_length_a 18.955406
_cell_length_b 18.955406
_cell_length_c 9.948603
_cell_angle_alpha 90.000000
_cell_angle_beta 90.000000
_cell_angle_gamma 90.000000
_cell_volume 3574.606843
_symmetry_space_group_name_H-M "P 42/N B C"
_symmetry_group_IT_number 133
_space_group.IT_coordinate_system_code '2'
_symmetry_cell_setting 'tetragonal'
loop_
_space_group_symop_operation_xyz
x,y,z
1/2-y,x,1/2+z
1/2-x,1/2-y,z
y,1/2-x,1/2+z
x,1/2-y,-z
1/2-x,y,-z
y,x,1/2-z
1/2-y,1/2-x,1/2-z
-x,-y,-z
1/2+y,-x,1/2-z
1/2+x,1/2+y,-z
-y,1/2+x,1/2-z
-x,1/2+y,z
1/2+x,-y,z
-y,-x,1/2+z
1/2+y,1/2+x,1/2+z
loop_
_atom_site_type_symbol
_atom_site_label
_atom_site_fract_x
_atom_site_fract_y
_atom_site_fract_z
Si Si1 0.183539 0.657023 0.066473
Si Si2 0.443785 0.887260 0.915188
Si Si3 0.399267 0.996733 0.705761
Si Si4 0.067243 0.747226 0.212272
O O1 0.136732 0.715013 0.141425
O O2 0.211212 0.592928 0.157430
O O3 0.250000 0.696384 0.000000
O O4 0.139116 0.618760 0.949793
O O5 0.447767 0.941270 0.790413
O O6 0.470246 0.807748 0.878678
O O7 0.486392 0.913592 0.046533
O O8 0.316060 0.988171 0.738966
O O9 0.425278 0.074723 0.750000
#
# Coordination Sequence:
#
# PCOD8317021 Si02
#       4
#    16  16  16  16
#     4  11  19  31  47  71 108 140 179 210 254 310
#     4  11  21  36  51  74 104 143 179 216 260 323
#     4  11  22  36  52  72 104 148 181 219 259 310
#     4  11  21  33  51  76 106 146 179 219 260 320
#
# _framework density 17.904067000000001
#
# number of rings (size 3 to 8) (size 9 to 14) (size 15 to 20)
#    0.000    1.000    7.500    3.750    0.000    6.500 
#    0.000    0.000    0.000    0.000    0.000    0.000 
#    0.000    1.000    2.000    0.500    0.000    0.000 
#
# Total GULP energy -793004.588256 kJ/mol
# GULP energy per Si atom -12390.696692 kJ/mol
# Density = 1.786332 g / cm^3
# Si number density = 17.904067 Si / 1000 Ang^3
#
#
#
# Elastic Constant Matrix: (Units=GPa)
#
#
# Indices 1 2 3 4 5 6 
#
# 1 67.5856 45.8159 31.2696 0.0000 0.0000 0.0000
# 2 45.8159 67.5820 31.2692 0.0000 0.0000 0.0000
# 3 31.2696 31.2692 83.0741 0.0000 0.0000 0.0000
# 4 0.0000 0.0000 0.0000 21.9359 0.0000 0.0000
# 5 0.0000 0.0000 0.0000 0.0000 21.9358 0.0000
# 6 0.0000 0.0000 0.0000 0.0000 0.0000 29.0959
#
#
#
# Elastic Compliance Matrix: (Units=1/GPa)
#
#
# Indices 1 2 3 4 5 6 
#
# 1 0.028533 -0.017405 -0.004189 0.000000 0.000000 0.000000
# 2 -0.017405 0.028535 -0.004189 0.000000 0.000000 0.000000
# 3 -0.004189 -0.004189 0.015191 0.000000 0.000000 0.000000
# 4 0.000000 0.000000 0.000000 0.045587 0.000000 0.000000
# 5 0.000000 0.000000 0.000000 0.000000 0.045588 0.000000
# 6 0.000000 0.000000 0.000000 0.000000 0.000000 0.034369
#
#
# Mechanical properties :
#
#
# Convention : Reuss Voigt Hill
#
# Bulk Modulus (GPa) = 48.32661 48.32789 48.32725
# Shear Modulus (GPa) = 19.51098 21.91933 20.71516
#
# Velocity S-wave (km/s) = 3.30472 3.50275 3.40517
# Velocity P-wave (km/s) = 6.45075 6.58865 6.52006
#
# Compressibility (1/GPa) = 0.02069253
#
# Stress axis : x y z
#
# Youngs Moduli (GPa) = 35.04715 35.04505 65.82931
#
# Poissons Ratio (x) = 0.60997 0.27573
# Poissons Ratio (y) = 0.61001 0.27576
# Poissons Ratio (z) = 0.14680 0.14680
#
# Static dielectric constant tensor:
#      x y z
#    x 3.146900 0.000000 0.000000 
#    y 0.000000 3.146900 0.000000 
#    z 0.000000 0.000000 3.678550 
# 
# 
# High freq. dielectric constant tensor:
#      x y z
#    x 1.654000 0.000000 0.000000 
#    y 0.000000 1.654000 0.000000 
#    z 0.000000 0.000000 1.720650 
# 
# From -- ./inp_files/2980.got.cif
#   From: 2010.03.12/outbox.cif.g09.slc.cpg/sg133_2_cif.got.tgz:2980.got - 2010.04.06 18:08:06.
