data_PCOD8317424
_publ_section_title
;
Structure prediction by ZEFSAII (Michael W. Deem and Ramdas Pophale) SiO2 
 PCOD8317424
Probable space group: P 42/M B C
;
_chemical_formula_sum "Si O2"
_cell_formula_units_Z 96
_cell_length_a 21.847023
_cell_length_b 21.847023
_cell_length_c 9.081392
_cell_angle_alpha 90.000000
_cell_angle_beta 90.000000
_cell_angle_gamma 90.000000
_cell_volume 4334.479510
_symmetry_space_group_name_H-M "P 42/M B C"
_symmetry_group_IT_number 135
_symmetry_cell_setting 'tetragonal'
loop_
_space_group_symop_operation_xyz
x,y,z
-y,x,1/2+z
-x,-y,z
y,-x,1/2+z
1/2+x,1/2-y,-z
1/2-x,1/2+y,-z
1/2+y,1/2+x,1/2-z
1/2-y,1/2-x,1/2-z
-x,-y,-z
y,-x,1/2-z
x,y,-z
-y,x,1/2-z
1/2-x,1/2+y,z
1/2+x,1/2-y,z
1/2-y,1/2-x,1/2+z
1/2+y,1/2+x,1/2+z
loop_
_atom_site_type_symbol
_atom_site_label
_atom_site_fract_x
_atom_site_fract_y
_atom_site_fract_z
Si Si1 0.952416 0.625922 0.661216
Si Si2 0.441191 0.664822 0.674767
Si Si3 0.079686 0.855429 0.330292
Si Si4 0.273085 0.854312 0.160720
Si Si5 0.343249 0.237408 0.328436
Si Si6 0.064664 0.648500 0.825527
O O1 0.935859 0.564142 0.750000
O O2 0.979932 0.609638 0.500000
O O3 0.892594 0.665810 0.637980
O O4 0.998731 0.665363 0.760497
O O5 0.437916 0.664837 0.500000
O O6 0.513063 0.669702 0.724027
O O7 0.414594 0.600766 0.737469
O O8 0.398914 0.721298 0.734784
O O9 0.074045 0.874705 0.500000
O O10 0.135251 0.806950 0.309932
O O11 0.292790 0.792790 0.250000
O O12 0.249758 0.831763 0.000000
O O13 0.277118 0.222883 0.250000
O O14 0.344212 0.217306 0.500000
O O15 0.389982 0.199910 0.229522
O O16 0.084031 0.584031 0.750000
O O17 0.063646 0.644247 0.000000
#
# Coordination Sequence:
#
# PCOD8317424 Si02
#       6
#    16  16  16  16  16  16
#     4  10  19  33  51  73 104 143 188 239 294 351
#     4  10  22  41  63  88 121 161 203 248 302 359
#     4  10  23  42  63  89 122 161 203 250 304 359
#     4   9  19  36  59  86 117 152 190 237 293 354
#     4  10  20  37  60  86 118 153 192 240 295 355
#     4  11  21  33  50  74 104 142 189 238 292 352
#
# _framework density 22.147987000000001
#
# number of rings (size 3 to 8) (size 9 to 14) (size 15 to 20)
#    0.000    2.000    0.000    4.500    0.000    7.333 
#    0.000    8.333    0.000    0.000    0.000    0.000 
#    0.000    0.000    0.000    0.000    0.000    0.000 
#
# Total GULP energy -1189286.350545 kJ/mol
# GULP energy per Si atom -12388.399485 kJ/mol
# Density = 2.209758 g / cm^3
# Si number density = 22.147987 Si / 1000 Ang^3
#
#
#
# Elastic Constant Matrix: (Units=GPa)
#
#
# Indices 1 2 3 4 5 6 
#
# 1 32.1885 87.3725 34.8626 0.0000 0.0000 0.0000
# 2 87.3725 32.1889 34.8610 0.0000 0.0000 0.0000
# 3 34.8626 34.8610 134.0085 0.0000 0.0000 0.0000
# 4 0.0000 0.0000 0.0000 31.6778 0.0000 0.0000
# 5 0.0000 0.0000 0.0000 0.0000 31.6779 0.0000
# 6 0.0000 0.0000 0.0000 0.0000 0.0000 30.0378
#
#
#
# Elastic Compliance Matrix: (Units=1/GPa)
#
#
# Indices 1 2 3 4 5 6 
#
# 1 -0.004131 0.013990 -0.002565 0.000000 0.000000 0.000000
# 2 0.013990 -0.004131 -0.002565 0.000000 0.000000 0.000000
# 3 -0.002565 -0.002565 0.008797 0.000000 0.000000 0.000000
# 4 0.000000 0.000000 0.000000 0.031568 0.000000 0.000000
# 5 0.000000 0.000000 0.000000 0.000000 0.031568 0.000000
# 6 0.000000 0.000000 0.000000 0.000000 0.000000 0.033291
#
#
# Mechanical properties :
#
#
# Convention : Reuss Voigt Hill
#
# Bulk Modulus (GPa) = 54.77560 56.95311 55.86436
# Shear Modulus (GPa) = 58.59841 21.43135 40.01488
#
# Velocity S-wave (km/s) = 5.14928 3.11407 4.25515
# Velocity P-wave (km/s) = 7.75492 6.22098 7.02991
#
# Compressibility (1/GPa) = 0.01825630
#
# Stress axis : x y z
#
# Youngs Moduli (GPa) = -242.07913 -242.09226 113.67841
#
# Poissons Ratio (x) = 3.38699 0.29157
# Poissons Ratio (y) = 3.38680 0.29160
# Poissons Ratio (z) = -0.62089 -0.62099
#
# Static dielectric constant tensor:
#      x y z
#    x 4.212490 0.000000 0.000000 
#    y 0.000000 4.212480 0.000000 
#    z 0.000000 0.000000 4.365240 
# 
# 
# High freq. dielectric constant tensor:
#      x y z
#    x 1.868280 0.000000 0.000000 
#    y 0.000000 1.868280 0.000000 
#    z 0.000000 0.000000 1.868630 
# 
# From -- ./inp_files/1278.got.cif
#   From: 2010.03.12/outbox.cif.g09.slc.cpg/sg135_1_cif.got.tgz:1278.got - 2010.04.06 18:31:24.
