data_PCOD8317976
_publ_section_title
;
Structure prediction by ZEFSAII (Michael W. Deem and Ramdas Pophale) SiO2 
 PCOD8317976
Probable space group: P 42/M N M
;
_chemical_formula_sum "Si O2"
_cell_formula_units_Z 80
_cell_length_a 12.060778
_cell_length_b 12.060778
_cell_length_c 27.688772
_cell_angle_alpha 90.000000
_cell_angle_beta 90.000000
_cell_angle_gamma 90.000000
_cell_volume 4027.674286
_symmetry_space_group_name_H-M "P 42/M N M"
_symmetry_group_IT_number 136
_symmetry_cell_setting 'tetragonal'
loop_
_space_group_symop_operation_xyz
x,y,z
1/2-y,1/2+x,1/2+z
-x,-y,z
1/2+y,1/2-x,1/2+z
1/2+x,1/2-y,1/2-z
1/2-x,1/2+y,1/2-z
y,x,-z
-y,-x,-z
-x,-y,-z
1/2+y,1/2-x,1/2-z
x,y,-z
1/2-y,1/2+x,1/2-z
1/2-x,1/2+y,1/2+z
1/2+x,1/2-y,1/2+z
-y,-x,z
y,x,z
loop_
_atom_site_type_symbol
_atom_site_label
_atom_site_fract_x
_atom_site_fract_y
_atom_site_fract_z
Si Si1 0.517480 0.168784 0.849832
Si Si2 0.996577 0.820227 0.090703
Si Si3 0.514983 0.178991 0.679232
Si Si4 0.176983 0.997337 0.731859
Si Si5 0.409168 0.094032 0.447122
O O1 0.396370 0.114879 0.841339
O O2 0.513125 0.288023 0.824237
O O3 0.557826 0.179626 0.905926
O O4 0.610801 0.097497 0.823561
O O5 0.881297 0.881297 0.074431
O O6 0.988578 0.790383 0.147253
O O7 0.024926 0.708842 0.061335
O O8 0.096853 0.903148 0.081893
O O9 0.522625 0.216180 0.734824
O O10 0.084445 0.084445 0.745486
O O11 0.126411 0.873590 0.739222
O O12 0.351070 0.099227 0.500000
O O13 0.500000 0.000000 0.445692
#
# Coordination Sequence:
#
# PCOD8317976 Si02
#       5
#    16  16  16  16  16
#     4  10  20  37  57  86 109 147 195 245 285 342
#     4  10  20  34  57  91 126 154 187 242 308 362
#     4  10  19  36  57  85 114 152 191 231 285 353
#     4  11  24  37  52  80 118 155 191 235 287 348
#     4  10  20  40  62  82 112 153 198 242 288 350
#
# _framework density 19.862580000000001
#
# number of rings (size 3 to 8) (size 9 to 14) (size 15 to 20)
#    0.000    1.800    4.000    2.400    0.000   11.200 
#    0.000    1.000    0.000    0.600    0.000    1.400 
#    0.000    0.000    0.000    0.000    0.000    0.000 
#
# Total GULP energy -991248.648366 kJ/mol
# GULP energy per Si atom -12390.608105 kJ/mol
# Density = 1.981737 g / cm^3
# Si number density = 19.862580 Si / 1000 Ang^3
#
#
#
# Elastic Constant Matrix: (Units=GPa)
#
#
# Indices 1 2 3 4 5 6 
#
# 1 90.4893 27.9122 34.5883 0.0000 0.0000 0.0000
# 2 27.9122 90.4893 34.5883 0.0000 0.0000 0.0000
# 3 34.5883 34.5883 152.2515 0.0000 0.0000 0.0000
# 4 0.0000 0.0000 0.0000 -29.5007 0.0000 0.0000
# 5 0.0000 0.0000 0.0000 0.0000 -29.5007 0.0000
# 6 0.0000 0.0000 0.0000 0.0000 0.0000 9.0541
#
#
#
# Elastic Compliance Matrix: (Units=1/GPa)
#
#
# Indices 1 2 3 4 5 6 
#
# 1 0.012859 -0.003121 -0.002212 0.000000 0.000000 0.000000
# 2 -0.003121 0.012859 -0.002212 0.000000 0.000000 0.000000
# 3 -0.002212 -0.002212 0.007573 0.000000 0.000000 0.000000
# 4 0.000000 0.000000 0.000000 -0.033897 0.000000 0.000000
# 5 0.000000 0.000000 0.000000 0.000000 -0.033897 0.000000
# 6 0.000000 0.000000 0.000000 0.000000 0.000000 0.110447
#
#
# Mechanical properties :
#
#
# Convention : Reuss Voigt Hill
#
# Bulk Modulus (GPa) = 54.94301 58.60085 56.77193
# Shear Modulus (GPa) = 51.49218 5.75330 28.62274
#
# Velocity S-wave (km/s) = 5.09711 1.70377 3.80022
# Velocity P-wave (km/s) = 7.89698 5.78253 6.92098
#
# Compressibility (1/GPa) = 0.01820068
#
# Stress axis : x y z
#
# Youngs Moduli (GPa) = 77.76443 77.76443 132.04316
#
# Poissons Ratio (x) = 0.24270 0.29213
# Poissons Ratio (y) = 0.24270 0.29213
# Poissons Ratio (z) = 0.17204 0.17204
#
# Static dielectric constant tensor:
#      x y z
#    x 3.636540 0.000000 0.000000 
#    y 0.000000 3.636540 0.000000 
#    z 0.000000 0.000000 4.108030 
# 
# 
# High freq. dielectric constant tensor:
#      x y z
#    x 1.762960 0.000000 0.000000 
#    y 0.000000 1.762960 0.000000 
#    z 0.000000 0.000000 1.774210 
# 
# From -- ./inp_files/9534.got.cif
#   From: 2010.03.12/outbox.cif.g09.slc.cpg/sg136_5_cif.got.tgz:9534.got - 2010.04.06 18:39:43.
