data_PCOD8317983
_publ_section_title
;
Structure prediction by ZEFSAII (Michael W. Deem and Ramdas Pophale) SiO2 
 PCOD8317983
Probable space group: P 42/M N M
;
_chemical_formula_sum "Si O2"
_cell_formula_units_Z 96
_cell_length_a 28.518717
_cell_length_b 28.518717
_cell_length_c 9.197871
_cell_angle_alpha 90.000000
_cell_angle_beta 90.000000
_cell_angle_gamma 90.000000
_cell_volume 7480.786865
_symmetry_space_group_name_H-M "P 42/M N M"
_symmetry_group_IT_number 136
_symmetry_cell_setting 'tetragonal'
loop_
_space_group_symop_operation_xyz
x,y,z
1/2-y,1/2+x,1/2+z
-x,-y,z
1/2+y,1/2-x,1/2+z
1/2+x,1/2-y,1/2-z
1/2-x,1/2+y,1/2-z
y,x,-z
-y,-x,-z
-x,-y,-z
1/2+y,1/2-x,1/2-z
x,y,-z
1/2-y,1/2+x,1/2-z
1/2-x,1/2+y,1/2+z
1/2+x,1/2-y,1/2+z
-y,-x,z
y,x,z
loop_
_atom_site_type_symbol
_atom_site_label
_atom_site_fract_x
_atom_site_fract_y
_atom_site_fract_z
Si Si1 0.047106 0.874982 0.168847
Si Si2 0.546881 0.374553 0.833449
Si Si3 0.190665 0.888225 0.335794
Si Si4 0.238012 0.683147 0.663541
Si Si5 0.254464 0.824719 0.163612
Si Si6 0.389921 0.688847 0.663080
O O1 0.081210 0.918791 0.191752
O O2 0.067304 0.828758 0.247320
O O3 0.998126 0.889076 0.240686
O O4 0.040185 0.863266 0.000000
O O5 0.583394 0.416607 0.817023
O O6 0.568643 0.325936 0.772240
O O7 0.532579 0.366289 0.000000
O O8 0.203178 0.903532 0.500000
O O9 0.152103 0.847898 0.336816
O O10 0.237406 0.869247 0.257217
O O11 0.218462 0.677709 0.500000
O O12 0.276214 0.723787 0.666681
O O13 0.195261 0.697114 0.769051
O O14 0.262328 0.634319 0.714636
O O15 0.214884 0.785117 0.165149
O O16 0.264676 0.841482 0.000000
O O17 0.410380 0.694492 0.500000
O O18 0.350809 0.649191 0.662296
#
# Coordination Sequence:
#
# PCOD8317983 Si02
#       6
#    16  16  16  16  16  16
#     4  10  20  32  44  55  66  82 107 140 178 219
#     4  10  20  31  42  55  69  85 107 138 177 219
#     4   9  16  26  39  52  67  86 106 130 162 200
#     4   8  13  21  33  49  68  89 110 129 152 185
#     4   9  15  21  31  49  71  91 109 128 151 184
#     4   8  14  25  39  52  67  87 109 133 162 198
#
# _framework density 12.832875
#
# number of rings (size 3 to 8) (size 9 to 14) (size 15 to 20)
#    0.000    3.000    0.000    3.000    0.000    7.000 
#    0.000    5.000    0.000    0.000    0.000    0.000 
#    0.000    0.000    0.000    0.000    0.000    0.000 
#
# Total GULP energy -1189933.330537 kJ/mol
# GULP energy per Si atom -12395.138860 kJ/mol
# Density = 1.280367 g / cm^3
# Si number density = 12.832875 Si / 1000 Ang^3
#
#
#
# Elastic Constant Matrix: (Units=GPa)
#
#
# Indices 1 2 3 4 5 6 
#
# 1 34.2667 33.3156 39.3052 0.0000 0.0000 0.0000
# 2 33.3156 34.2667 39.3052 0.0000 0.0000 0.0000
# 3 39.3052 39.3052 114.3671 0.0000 0.0000 0.0000
# 4 0.0000 0.0000 0.0000 19.0204 0.0000 0.0000
# 5 0.0000 0.0000 0.0000 0.0000 19.0204 0.0000
# 6 0.0000 0.0000 0.0000 0.0000 0.0000 10.3199
#
#
#
# Elastic Compliance Matrix: (Units=1/GPa)
#
#
# Indices 1 2 3 4 5 6 
#
# 1 0.537987 -0.513335 -0.008472 0.000000 0.000000 0.000000
# 2 -0.513335 0.537987 -0.008472 0.000000 0.000000 0.000000
# 3 -0.008472 -0.008472 0.014567 0.000000 0.000000 0.000000
# 4 0.000000 0.000000 0.000000 0.052575 0.000000 0.000000
# 5 0.000000 0.000000 0.000000 0.000000 0.052575 0.000000
# 6 0.000000 0.000000 0.000000 0.000000 0.000000 0.096900
#
#
# Mechanical properties :
#
#
# Convention : Reuss Voigt Hill
#
# Bulk Modulus (GPa) = 33.35397 45.19474 39.27436
# Shear Modulus (GPa) = 2.11583 14.40376 8.25980
#
# Velocity S-wave (km/s) = 1.28543 3.35388 2.53977
# Velocity P-wave (km/s) = 5.31513 7.09171 6.26670
#
# Compressibility (1/GPa) = 0.02998144
#
# Stress axis : x y z
#
# Youngs Moduli (GPa) = 1.85878 1.85878 68.64796
#
# Poissons Ratio (x) = 0.95418 0.58159
# Poissons Ratio (y) = 0.95418 0.58159
# Poissons Ratio (z) = 0.01575 0.01575
#
# Static dielectric constant tensor:
#      x y z
#    x 2.437920 0.000000 0.000000 
#    y 0.000000 2.437920 0.000000 
#    z 0.000000 0.000000 2.821950 
# 
# 
# High freq. dielectric constant tensor:
#      x y z
#    x 1.448320 0.000000 0.000000 
#    y 0.000000 1.448320 0.000000 
#    z 0.000000 0.000000 1.505370 
# 
# From -- ./inp_files/2165.got.cif
#   From: 2010.03.12/outbox.cif.g09.slc.cpg/sg136_2_cif.got.tgz:2165.got - 2010.04.06 18:39:43.
