data_PCOD8317852
_publ_section_title
;
Structure prediction by ZEFSAII (Michael W. Deem and Ramdas Pophale) SiO2 
 PCOD8317852
Probable space group: P 42/M N M
;
_chemical_formula_sum "Si O2"
_cell_formula_units_Z 96
_cell_length_a 15.269978
_cell_length_b 15.269978
_cell_length_c 25.256746
_cell_angle_alpha 90.000000
_cell_angle_beta 90.000000
_cell_angle_gamma 90.000000
_cell_volume 5889.171740
_symmetry_space_group_name_H-M "P 42/M N M"
_symmetry_group_IT_number 136
_symmetry_cell_setting 'tetragonal'
loop_
_space_group_symop_operation_xyz
x,y,z
1/2-y,1/2+x,1/2+z
-x,-y,z
1/2+y,1/2-x,1/2+z
1/2+x,1/2-y,1/2-z
1/2-x,1/2+y,1/2-z
y,x,-z
-y,-x,-z
-x,-y,-z
1/2+y,1/2-x,1/2-z
x,y,-z
1/2-y,1/2+x,1/2-z
1/2-x,1/2+y,1/2+z
1/2+x,1/2-y,1/2+z
-y,-x,z
y,x,z
loop_
_atom_site_type_symbol
_atom_site_label
_atom_site_fract_x
_atom_site_fract_y
_atom_site_fract_z
Si Si1 0.930094 0.069907 0.282922
Si Si2 0.249895 0.388398 0.751849
Si Si3 0.131531 0.436358 0.345858
Si Si4 0.759905 0.515167 0.059186
Si Si5 0.938777 0.373413 0.345401
Si Si6 0.569767 0.569767 0.091357
Si Si7 0.176206 0.318505 0.439579
O O1 0.954620 0.167896 0.262287
O O2 0.928537 0.071463 0.345750
O O3 0.000000 0.000000 0.260748
O O4 0.289162 0.289162 0.747868
O O5 0.202407 0.415139 0.698427
O O6 0.183377 0.393042 0.800370
O O7 0.117865 0.539371 0.351612
O O8 0.170313 0.402370 0.401444
O O9 0.039630 0.391600 0.329681
O O10 0.824600 0.565847 0.098564
O O11 0.662350 0.545347 0.067994
O O12 0.761129 0.410951 0.068055
O O13 0.790999 0.539184 0.000000
O O14 0.500000 0.500000 0.070220
O O15 0.185314 0.351956 0.500000
O O16 0.258438 0.258438 0.423440
#
# Coordination Sequence:
#
# PCOD8317852 Si02
#       7
#     8  16  16  16  16   8  16
#     4   9  20  35  54  73 105 134 163 209 258 292
#     4  10  19  34  54  72 101 129 168 209 252 303
#     4  10  20  33  54  74  99 135 172 203 256 308
#     4  10  19  31  48  72 103 139 173 208 247 301
#     4  10  20  35  49  74 104 134 167 212 251 299
#     4  11  19  32  51  72 104 143 176 208 251 306
#     4   9  18  32  49  74 103 126 164 215 257 298
#
# _framework density 16.301103000000001
#
# number of rings (size 3 to 8) (size 9 to 14) (size 15 to 20)
#    0.500    1.667    1.667    2.250    0.000    3.333 
#    0.000    6.667    0.000    0.000    0.000    0.000 
#    0.000    0.667    0.000    0.000    0.000    0.000 
#
# Total GULP energy -1190158.251270 kJ/mol
# GULP energy per Si atom -12397.481784 kJ/mol
# Density = 1.626400 g / cm^3
# Si number density = 16.301103 Si / 1000 Ang^3
#
#
#
# Elastic Constant Matrix: (Units=GPa)
#
#
# Indices 1 2 3 4 5 6 
#
# 1 102.2570 53.0282 59.8020 0.0000 0.0000 0.0000
# 2 53.0282 102.2570 59.8020 0.0000 0.0000 0.0000
# 3 59.8020 59.8020 118.2448 0.0000 0.0000 0.0000
# 4 0.0000 0.0000 0.0000 29.6123 0.0000 0.0000
# 5 0.0000 0.0000 0.0000 0.0000 29.6123 0.0000
# 6 0.0000 0.0000 0.0000 0.0000 0.0000 25.3984
#
#
#
# Elastic Compliance Matrix: (Units=1/GPa)
#
#
# Indices 1 2 3 4 5 6 
#
# 1 0.015431 -0.004882 -0.005335 0.000000 0.000000 0.000000
# 2 -0.004882 0.015431 -0.005335 0.000000 0.000000 0.000000
# 3 -0.005335 -0.005335 0.013853 0.000000 0.000000 0.000000
# 4 0.000000 0.000000 0.000000 0.033770 0.000000 0.000000
# 5 0.000000 0.000000 0.000000 0.000000 0.033770 0.000000
# 6 0.000000 0.000000 0.000000 0.000000 0.000000 0.039372
#
#
# Mechanical properties :
#
#
# Convention : Reuss Voigt Hill
#
# Bulk Modulus (GPa) = 73.47017 74.22479 73.84748
# Shear Modulus (GPa) = 26.69947 26.93305 26.81626
#
# Velocity S-wave (km/s) = 4.05148 4.06916 4.06033
# Velocity P-wave (km/s) = 8.18868 8.22860 8.20867
#
# Compressibility (1/GPa) = 0.01361097
#
# Stress axis : x y z
#
# Youngs Moduli (GPa) = 64.80400 64.80400 72.18400
#
# Poissons Ratio (x) = 0.31638 0.38511
# Poissons Ratio (y) = 0.31638 0.38511
# Poissons Ratio (z) = 0.34574 0.34574
#
# Static dielectric constant tensor:
#      x y z
#    x 2.993430 0.000000 0.000000 
#    y 0.000000 2.993430 0.000000 
#    z 0.000000 0.000000 3.196030 
# 
# 
# High freq. dielectric constant tensor:
#      x y z
#    x 1.617530 0.000000 0.000000 
#    y 0.000000 1.617530 0.000000 
#    z 0.000000 0.000000 1.637270 
# 
# From -- ./inp_files/8418.got.cif
#   From: 2010.03.12/outbox.cif.g09.slc.cpg/sg136_5_cif.got.tgz:8418.got - 2010.04.06 18:39:43.
