data_PCOD8317797
_publ_section_title
;
Structure prediction by ZEFSAII (Michael W. Deem and Ramdas Pophale) SiO2 
 PCOD8317797
Probable space group: P 42/M N M
;
_chemical_formula_sum "Si O2"
_cell_formula_units_Z 112
_cell_length_a 14.695640
_cell_length_b 14.695640
_cell_length_c 27.171929
_cell_angle_alpha 90.000000
_cell_angle_beta 90.000000
_cell_angle_gamma 90.000000
_cell_volume 5868.099648
_symmetry_space_group_name_H-M "P 42/M N M"
_symmetry_group_IT_number 136
_symmetry_cell_setting 'tetragonal'
loop_
_space_group_symop_operation_xyz
x,y,z
1/2-y,1/2+x,1/2+z
-x,-y,z
1/2+y,1/2-x,1/2+z
1/2+x,1/2-y,1/2-z
1/2-x,1/2+y,1/2-z
y,x,-z
-y,-x,-z
-x,-y,-z
1/2+y,1/2-x,1/2-z
x,y,-z
1/2-y,1/2+x,1/2-z
1/2-x,1/2+y,1/2+z
1/2+x,1/2-y,1/2+z
-y,-x,z
y,x,z
loop_
_atom_site_type_symbol
_atom_site_label
_atom_site_fract_x
_atom_site_fract_y
_atom_site_fract_z
Si Si1 0.074727 0.925274 0.446166
Si Si2 0.714557 0.132659 0.209075
Si Si3 0.506810 0.183369 0.794000
Si Si4 0.756452 0.534581 0.103687
Si Si5 0.857332 0.706198 0.942878
Si Si6 0.039301 0.688434 0.108800
Si Si7 0.148544 0.292996 0.556429
Si Si8 0.000000 0.500000 0.155674
O O1 0.109089 0.890912 0.500000
O O2 0.155431 0.969187 0.416193
O O3 0.000000 0.000000 0.454476
O O4 0.793720 0.206281 0.220427
O O5 0.716234 0.047255 0.246181
O O6 0.617023 0.185154 0.211744
O O7 0.734617 0.083918 0.156952
O O8 0.470268 0.248823 0.837405
O O9 0.475110 0.082059 0.808007
O O10 0.809940 0.621070 0.083347
O O11 0.805861 0.443294 0.086772
O O12 0.792066 0.792066 0.939600
O O13 0.947090 0.733660 0.911832
O O14 0.879557 0.682513 0.000000
O O15 0.112236 0.700768 0.064831
O O16 0.019987 0.583219 0.119957
O O17 0.125332 0.276701 0.500000
O O18 0.209444 0.209444 0.576560
#
# Coordination Sequence:
#
# PCOD8317797 Si02
#       8
#     8  16  16  16  16  16  16   8
#     4  11  24  40  58  84 128 180 215 245 296 374
#     4  11  24  42  67  92 122 158 203 254 312 375
#     4  11  23  39  64  91 120 157 199 249 307 371
#     4  12  22  37  61  88 124 164 207 253 304 365
#     4  11  23  39  61  90 127 166 208 258 310 368
#     4  11  20  38  60  89 119 160 199 257 313 363
#     4  11  22  36  58  87 121 158 199 245 300 366
#     4  10  18  37  57  88 118 152 187 244 305 368
#
# _framework density 19.086248000000001
#
# number of rings (size 3 to 8) (size 9 to 14) (size 15 to 20)
#    0.000    0.929    5.000    4.286    1.000    2.286 
#    0.000    2.143    0.000    2.571    0.000    5.000 
#    0.000    0.000    0.000    0.000    0.000    0.000 
#
# Total GULP energy -1388386.992852 kJ/mol
# GULP energy per Si atom -12396.312436 kJ/mol
# Density = 1.904281 g / cm^3
# Si number density = 19.086248 Si / 1000 Ang^3
#
#
#
# Elastic Constant Matrix: (Units=GPa)
#
#
# Indices 1 2 3 4 5 6 
#
# 1 85.3681 29.0245 32.4607 0.0000 0.0000 0.0000
# 2 29.0245 85.3681 32.4606 0.0000 0.0000 0.0000
# 3 32.4607 32.4606 86.6006 0.0000 0.0000 0.0000
# 4 0.0000 0.0000 0.0000 28.9307 0.0000 0.0000
# 5 0.0000 0.0000 0.0000 0.0000 28.9307 0.0000
# 6 0.0000 0.0000 0.0000 0.0000 0.0000 22.9024
#
#
#
# Elastic Compliance Matrix: (Units=1/GPa)
#
#
# Indices 1 2 3 4 5 6 
#
# 1 0.014426 -0.003322 -0.004162 0.000000 0.000000 0.000000
# 2 -0.003322 0.014426 -0.004162 0.000000 0.000000 0.000000
# 3 -0.004162 -0.004162 0.014667 0.000000 0.000000 0.000000
# 4 0.000000 0.000000 0.000000 0.034565 0.000000 0.000000
# 5 0.000000 0.000000 0.000000 0.000000 0.034565 0.000000
# 6 0.000000 0.000000 0.000000 0.000000 0.000000 0.043664
#
#
# Mechanical properties :
#
#
# Convention : Reuss Voigt Hill
#
# Bulk Modulus (GPa) = 49.43911 49.46981 49.45446
# Shear Modulus (GPa) = 26.83139 27.04551 26.93845
#
# Velocity S-wave (km/s) = 3.75346 3.76841 3.76094
# Velocity P-wave (km/s) = 6.68909 6.70149 6.69529
#
# Compressibility (1/GPa) = 0.02022690
#
# Stress axis : x y z
#
# Youngs Moduli (GPa) = 69.31885 69.31882 68.17825
#
# Poissons Ratio (x) = 0.23029 0.28377
# Poissons Ratio (y) = 0.23029 0.28376
# Poissons Ratio (z) = 0.28851 0.28851
#
# Static dielectric constant tensor:
#      x y z
#    x 3.730410 0.000000 0.000000 
#    y 0.000000 3.730410 0.000000 
#    z 0.000000 0.000000 3.689790 
# 
# 
# High freq. dielectric constant tensor:
#      x y z
#    x 1.734110 0.000000 0.000000 
#    y 0.000000 1.734110 0.000000 
#    z 0.000000 0.000000 1.753180 
# 
# From -- ./inp_files/9236.got.cif
#   From: 2010.03.12/outbox.cif.g09.slc.cpg/sg136_5_cif.got.tgz:9236.got - 2010.04.06 18:39:43.
