data_PCOD8317616
_publ_section_title
;
Structure prediction by ZEFSAII (Michael W. Deem and Ramdas Pophale) SiO2 
 PCOD8317616
Probable space group: P 42/M B C
;
_chemical_formula_sum "Si O2"
_cell_formula_units_Z 56
_cell_length_a 12.561738
_cell_length_b 12.561738
_cell_length_c 14.118952
_cell_angle_alpha 90.000000
_cell_angle_beta 90.000000
_cell_angle_gamma 90.000000
_cell_volume 2227.931962
_symmetry_space_group_name_H-M "P 42/M B C"
_symmetry_group_IT_number 135
_symmetry_cell_setting 'tetragonal'
loop_
_space_group_symop_operation_xyz
x,y,z
-y,x,1/2+z
-x,-y,z
y,-x,1/2+z
1/2+x,1/2-y,-z
1/2-x,1/2+y,-z
1/2+y,1/2+x,1/2-z
1/2-y,1/2-x,1/2-z
-x,-y,-z
y,-x,1/2-z
x,y,-z
-y,x,1/2-z
1/2-x,1/2+y,z
1/2+x,1/2-y,z
1/2-y,1/2-x,1/2+z
1/2+y,1/2+x,1/2+z
loop_
_atom_site_type_symbol
_atom_site_label
_atom_site_fract_x
_atom_site_fract_y
_atom_site_fract_z
Si Si1 0.493359 0.278041 0.646262
Si Si2 0.333447 0.372549 0.500000
Si Si3 0.426693 0.206624 0.000000
Si Si4 0.718611 0.349908 0.313437
Si Si5 0.907964 0.630006 0.500000
O O1 0.400346 0.342431 0.592848
O O2 0.453697 0.250701 0.751624
O O3 0.294779 0.147358 0.593453
O O4 0.528159 0.170909 0.591725
O O5 0.313744 0.500453 0.500000
O O6 0.213406 0.320336 0.500000
O O7 0.353232 0.403678 0.844080
O O8 0.500939 0.100463 0.000000
O O9 0.745728 0.245728 0.250000
#
# Coordination Sequence:
#
# PCOD8317616 Si02
#       5
#    16   8   8  16   8
#     4  11  23  42  71 107 144 182 233 305 359 427
#     4   9  20  42  73 102 136 183 237 293 365 416
#     4  10  24  46  68 104 141 186 245 292 354 432
#     4  12  27  43  70 104 145 189 241 291 367 427
#     4   9  22  44  74  96 145 184 230 302 359 415
#
# _framework density 25.135415999999999
#
# number of rings (size 3 to 8) (size 9 to 14) (size 15 to 20)
#    0.857    0.571    0.000    5.143    4.000    7.429 
#    0.000    4.286    0.000    0.000    0.000    0.000 
#    0.000    0.000    0.000    0.000    0.000    0.000 
#
# Total GULP energy -694323.380311 kJ/mol
# GULP energy per Si atom -12398.631791 kJ/mol
# Density = 2.507821 g / cm^3
# Si number density = 25.135416 Si / 1000 Ang^3
#
#
#
# Elastic Constant Matrix: (Units=GPa)
#
#
# Indices 1 2 3 4 5 6 
#
# 1 66.0242 -33.1064 -5.8609 0.0000 0.0000 0.0000
# 2 -33.1064 66.0242 -5.8609 0.0000 0.0000 0.0000
# 3 -5.8609 -5.8609 131.1110 0.0000 0.0000 0.0000
# 4 0.0000 0.0000 0.0000 38.0268 0.0000 0.0000
# 5 0.0000 0.0000 0.0000 0.0000 38.0268 0.0000
# 6 0.0000 0.0000 0.0000 0.0000 0.0000 34.0972
#
#
#
# Elastic Compliance Matrix: (Units=1/GPa)
#
#
# Indices 1 2 3 4 5 6 
#
# 1 0.020479 0.010391 0.001380 0.000000 0.000000 0.000000
# 2 0.010391 0.020479 0.001380 0.000000 0.000000 0.000000
# 3 0.001380 0.001380 0.007750 0.000000 0.000000 0.000000
# 4 0.000000 0.000000 0.000000 0.026297 0.000000 0.000000
# 5 0.000000 0.000000 0.000000 0.000000 0.026297 0.000000
# 6 0.000000 0.000000 0.000000 0.000000 0.000000 0.029328
#
#
# Mechanical properties :
#
#
# Convention : Reuss Voigt Hill
#
# Bulk Modulus (GPa) = 13.33148 19.27811 16.30480
# Shear Modulus (GPa) = 38.66020 42.56267 40.61143
#
# Velocity S-wave (km/s) = 3.92609 4.11948 4.02394
# Velocity P-wave (km/s) = 5.08602 5.50574 5.30004
#
# Compressibility (1/GPa) = 0.07501041
#
# Stress axis : x y z
#
# Youngs Moduli (GPa) = 48.83081 48.83081 129.02395
#
# Poissons Ratio (x) = -0.50741 -0.17805
# Poissons Ratio (y) = -0.50741 -0.17805
# Poissons Ratio (z) = -0.06738 -0.06738
#
# Static dielectric constant tensor:
#      x y z
#    x 4.372760 0.000000 0.000000 
#    y 0.000000 4.372760 0.000000 
#    z 0.000000 0.000000 4.698390 
# 
# 
# High freq. dielectric constant tensor:
#      x y z
#    x 2.000630 0.000000 0.000000 
#    y 0.000000 2.000630 0.000000 
#    z 0.000000 0.000000 2.010280 
# 
# From -- ./inp_files/4120.got.cif
#   From: 2010.03.12/outbox.cif.g09.slc.cpg/sg135_3_cif.got.tgz:4120.got - 2010.04.06 18:31:24.
