data_PCOD8317811
_publ_section_title
;
Structure prediction by ZEFSAII (Michael W. Deem and Ramdas Pophale) SiO2 
 PCOD8317811
Probable space group: P 42/M N M
;
_chemical_formula_sum "Si O2"
_cell_formula_units_Z 96
_cell_length_a 24.189194
_cell_length_b 24.189194
_cell_length_c 8.397991
_cell_angle_alpha 90.000000
_cell_angle_beta 90.000000
_cell_angle_gamma 90.000000
_cell_volume 4913.808193
_symmetry_space_group_name_H-M "P 42/M N M"
_symmetry_group_IT_number 136
_symmetry_cell_setting 'tetragonal'
loop_
_space_group_symop_operation_xyz
x,y,z
1/2-y,1/2+x,1/2+z
-x,-y,z
1/2+y,1/2-x,1/2+z
1/2+x,1/2-y,1/2-z
1/2-x,1/2+y,1/2-z
y,x,-z
-y,-x,-z
-x,-y,-z
1/2+y,1/2-x,1/2-z
x,y,-z
1/2-y,1/2+x,1/2-z
1/2-x,1/2+y,1/2+z
1/2+x,1/2-y,1/2+z
-y,-x,z
y,x,z
loop_
_atom_site_type_symbol
_atom_site_label
_atom_site_fract_x
_atom_site_fract_y
_atom_site_fract_z
Si Si1 0.776198 0.689373 0.810325
Si Si2 0.973991 0.419168 0.687754
Si Si3 0.789387 0.986060 0.189709
Si Si4 0.722956 0.363223 0.310944
Si Si5 0.087158 0.999902 0.810841
Si Si6 0.068841 0.698806 0.687567
O O1 0.719685 0.719685 0.750350
O O2 0.829276 0.723925 0.749823
O O3 0.782649 0.627931 0.738472
O O4 0.775460 0.687947 0.000000
O O5 0.930361 0.467423 0.727576
O O6 0.984106 0.417461 0.500000
O O7 0.950242 0.360997 0.753795
O O8 0.775122 0.925151 0.255296
O O9 0.850431 0.001535 0.254245
O O10 0.745391 0.025837 0.267598
O O11 0.785878 0.990097 0.000000
O O12 0.722549 0.364872 0.500000
O O13 0.667177 0.332824 0.251074
O O14 0.054097 0.054097 0.748139
O O15 0.088309 0.002345 0.000000
O O16 0.055388 0.944613 0.752742
O O17 0.074601 0.693981 0.500000
#
# Coordination Sequence:
#
# PCOD8317811 Si02
#       6
#    16  16  16  16  16  16
#     4   8  15  30  50  69  92 126 165 203 243 286
#     4  10  21  37  57  78 103 133 169 211 257 308
#     4  10  19  29  48  76 101 128 166 209 248 292
#     4   8  14  26  48  75  95 116 158 212 249 276
#     4   8  14  26  45  71 104 137 168 208 257 302
#     4  10  22  35  49  74 105 136 166 203 252 305
#
# _framework density 19.536781000000001
#
# number of rings (size 3 to 8) (size 9 to 14) (size 15 to 20)
#    0.000    3.000    0.000    3.000    2.333    4.000 
#    0.000    0.000    0.000    2.000    0.000    3.500 
#    0.000    0.000    0.000    0.000    0.000    0.000 
#
# Total GULP energy -1189852.481090 kJ/mol
# GULP energy per Si atom -12394.296678 kJ/mol
# Density = 1.949231 g / cm^3
# Si number density = 19.536781 Si / 1000 Ang^3
#
#
#
# Elastic Constant Matrix: (Units=GPa)
#
#
# Indices 1 2 3 4 5 6 
#
# 1 170.9856 108.5045 0.0262 0.0000 0.0000 0.0000
# 2 108.5045 170.9856 0.0262 0.0000 0.0000 0.0000
# 3 0.0262 0.0262 4.8784 0.0000 0.0000 0.0000
# 4 0.0000 0.0000 0.0000 15.4421 0.0000 0.0000
# 5 0.0000 0.0000 0.0000 0.0000 15.4421 0.0000
# 6 0.0000 0.0000 0.0000 0.0000 0.0000 28.3795
#
#
#
# Elastic Compliance Matrix: (Units=1/GPa)
#
#
# Indices 1 2 3 4 5 6 
#
# 1 0.009791 -0.006213 -0.000019 0.000000 0.000000 0.000000
# 2 -0.006213 0.009791 -0.000019 0.000000 0.000000 0.000000
# 3 -0.000019 -0.000019 0.204985 0.000000 0.000000 0.000000
# 4 0.000000 0.000000 0.000000 0.064758 0.000000 0.000000
# 5 0.000000 0.000000 0.000000 0.000000 0.064758 0.000000
# 6 0.000000 0.000000 0.000000 0.000000 0.000000 0.035237
#
#
# Mechanical properties :
#
#
# Convention : Reuss Voigt Hill
#
# Bulk Modulus (GPa) = 4.71556 62.66261 33.68909
# Shear Modulus (GPa) = 10.58175 27.73894 19.16034
#
# Velocity S-wave (km/s) = 2.32982 3.77215 3.13506
# Velocity P-wave (km/s) = 3.10747 7.14955 5.51237
#
# Compressibility (1/GPa) = 0.21206376
#
# Stress axis : x y z
#
# Youngs Moduli (GPa) = 102.13059 102.13059 4.87841
#
# Poissons Ratio (x) = 0.63458 0.00009
# Poissons Ratio (y) = 0.63458 0.00009
# Poissons Ratio (z) = 0.00196 0.00196
#
# Static dielectric constant tensor:
#      x y z
#    x 3.891850 0.000000 0.000000 
#    y 0.000000 3.891850 0.000000 
#    z 0.000000 0.000000 2.954130 
# 
# 
# High freq. dielectric constant tensor:
#      x y z
#    x 1.770380 0.000000 0.000000 
#    y 0.000000 1.770380 0.000000 
#    z 0.000000 0.000000 1.703020 
# 
# From -- ./inp_files/1919.got.cif
#   From: 2010.03.12/outbox.cif.g09.slc.cpg/sg136_1_cif.got.tgz:1919.got - 2010.04.06 18:39:43.
