data_PCOD8317943
_publ_section_title
;
Structure prediction by ZEFSAII (Michael W. Deem and Ramdas Pophale) SiO2 
 PCOD8317943
Probable space group: P 42/M N M
;
_chemical_formula_sum "Si O2"
_cell_formula_units_Z 128
_cell_length_a 20.330640
_cell_length_b 20.330640
_cell_length_c 17.203470
_cell_angle_alpha 90.000000
_cell_angle_beta 90.000000
_cell_angle_gamma 90.000000
_cell_volume 7110.794945
_symmetry_space_group_name_H-M "P 42/M N M"
_symmetry_group_IT_number 136
_symmetry_cell_setting 'tetragonal'
loop_
_space_group_symop_operation_xyz
x,y,z
1/2-y,1/2+x,1/2+z
-x,-y,z
1/2+y,1/2-x,1/2+z
1/2+x,1/2-y,1/2-z
1/2-x,1/2+y,1/2-z
y,x,-z
-y,-x,-z
-x,-y,-z
1/2+y,1/2-x,1/2-z
x,y,-z
1/2-y,1/2+x,1/2-z
1/2-x,1/2+y,1/2+z
1/2+x,1/2-y,1/2+z
-y,-x,z
y,x,z
loop_
_atom_site_type_symbol
_atom_site_label
_atom_site_fract_x
_atom_site_fract_y
_atom_site_fract_z
Si Si1 0.852561 0.251291 0.412108
Si Si2 0.769784 0.872053 0.655917
Si Si3 0.509034 0.786450 0.849297
Si Si4 0.274646 0.830399 0.086081
Si Si5 0.309500 0.135817 0.804019
Si Si6 0.574381 0.828064 0.701271
Si Si7 0.489368 0.072281 0.913867
Si Si8 0.151072 0.532385 0.586643
O O1 0.839732 0.275388 0.500000
O O2 0.822666 0.177335 0.400951
O O3 0.930682 0.255401 0.397047
O O4 0.813555 0.297491 0.352733
O O5 0.844036 0.844036 0.643655
O O6 0.720713 0.833741 0.599129
O O7 0.751294 0.859129 0.745871
O O8 0.763718 0.949106 0.635986
O O9 0.525126 0.788851 0.757759
O O10 0.486444 0.861545 0.871152
O O11 0.204857 0.795144 0.093016
O O12 0.273799 0.885392 0.152698
O O13 0.283405 0.861035 0.000000
O O14 0.377082 0.125634 0.752460
O O15 0.297351 0.074294 0.862073
O O16 0.533965 0.868647 0.635040
O O17 0.410985 0.080826 0.921070
O O18 0.500000 0.000000 0.873132
O O19 0.522542 0.069466 0.000000
O O20 0.178063 0.515227 0.500000
#
# Coordination Sequence:
#
# PCOD8317943 Si02
#       8
#    16  16  16  16  16  16  16  16
#     4  10  20  35  57  81 104 135 174 222 277 326
#     4  10  21  36  55  76 102 140 181 223 271 319
#     4  11  21  36  53  76 107 137 179 221 269 321
#     4   9  19  35  53  75 103 136 180 228 270 314
#     4  10  19  34  53  74 104 139 180 223 261 310
#     4  10  20  31  49  74 100 141 175 215 262 308
#     4  10  22  35  49  71 104 147 184 216 253 303
#     4  11  20  32  48  73 107 141 178 213 255 312
#
# _framework density 18.000800999999999
#
# number of rings (size 3 to 8) (size 9 to 14) (size 15 to 20)
#    0.000    1.875    3.750    1.500    3.500    4.000 
#    0.000    0.000    0.000    0.375    0.000    0.875 
#    0.000    0.000    0.000    1.375    0.000    0.000 
#
# Total GULP energy -1585924.140208 kJ/mol
# GULP energy per Si atom -12390.032345 kJ/mol
# Density = 1.795983 g / cm^3
# Si number density = 18.000801 Si / 1000 Ang^3
#
#
#
# Elastic Constant Matrix: (Units=GPa)
#
#
# Indices 1 2 3 4 5 6 
#
# 1 69.0100 37.7865 31.8658 0.0000 0.0000 0.0000
# 2 37.7865 69.0100 31.8658 0.0000 0.0000 0.0000
# 3 31.8658 31.8658 113.1652 0.0000 0.0000 0.0000
# 4 0.0000 0.0000 0.0000 22.7940 0.0000 0.0000
# 5 0.0000 0.0000 0.0000 0.0000 22.7940 0.0000
# 6 0.0000 0.0000 0.0000 0.0000 0.0000 24.6519
#
#
#
# Elastic Compliance Matrix: (Units=1/GPa)
#
#
# Indices 1 2 3 4 5 6 
#
# 1 0.021641 -0.010386 -0.003169 0.000000 0.000000 0.000000
# 2 -0.010386 0.021641 -0.003169 0.000000 0.000000 0.000000
# 3 -0.003169 -0.003169 0.010621 0.000000 0.000000 0.000000
# 4 0.000000 0.000000 0.000000 0.043871 0.000000 0.000000
# 5 0.000000 0.000000 0.000000 0.000000 0.043871 0.000000
# 6 0.000000 0.000000 0.000000 0.000000 0.000000 0.040565
#
#
# Mechanical properties :
#
#
# Convention : Reuss Voigt Hill
#
# Bulk Modulus (GPa) = 48.88947 50.46905 49.67926
# Shear Modulus (GPa) = 22.47413 24.02579 23.24996
#
# Velocity S-wave (km/s) = 3.53726 3.65733 3.59779
# Velocity P-wave (km/s) = 6.62582 6.77737 6.70202
#
# Compressibility (1/GPa) = 0.02045430
#
# Stress axis : x y z
#
# Youngs Moduli (GPa) = 46.20850 46.20850 94.14910
#
# Poissons Ratio (x) = 0.47993 0.29838
# Poissons Ratio (y) = 0.47993 0.29838
# Poissons Ratio (z) = 0.14644 0.14644
#
# Static dielectric constant tensor:
#      x y z
#    x 3.141920 0.000000 0.000000 
#    y 0.000000 3.141920 0.000000 
#    z 0.000000 0.000000 3.646780 
# 
# 
# High freq. dielectric constant tensor:
#      x y z
#    x 1.661740 0.000000 0.000000 
#    y 0.000000 1.661740 0.000000 
#    z 0.000000 0.000000 1.720140 
# 
# From -- ./inp_files/6668.got.cif
#   From: 2010.03.12/outbox.cif.g09.slc.cpg/sg136_4_cif.got.tgz:6668.got - 2010.04.06 18:39:43.
