data_PCOD8317220
_publ_section_title
;
Structure prediction by ZEFSAII (Michael W. Deem and Ramdas Pophale) SiO2 
 PCOD8317220
Probable space group: P 42/N N M
;
_chemical_formula_sum "Si O2"
_cell_formula_units_Z 88
_cell_length_a 12.647924
_cell_length_b 12.647924
_cell_length_c 27.100052
_cell_angle_alpha 90.000000
_cell_angle_beta 90.000000
_cell_angle_gamma 90.000000
_cell_volume 4335.194817
_symmetry_space_group_name_H-M "P 42/N N M"
_symmetry_group_IT_number 134
_space_group.IT_coordinate_system_code '2'
_symmetry_cell_setting 'tetragonal'
loop_
_space_group_symop_operation_xyz
x,y,z
1/2-y,x,1/2+z
1/2-x,1/2-y,z
y,1/2-x,1/2+z
x,1/2-y,1/2-z
1/2-x,y,1/2-z
y,x,-z
1/2-y,1/2-x,-z
-x,-y,-z
1/2+y,-x,1/2-z
1/2+x,1/2+y,-z
-y,1/2+x,1/2-z
-x,1/2+y,1/2+z
1/2+x,-y,1/2+z
-y,-x,z
1/2+y,1/2+x,z
loop_
_atom_site_type_symbol
_atom_site_label
_atom_site_fract_x
_atom_site_fract_y
_atom_site_fract_z
Si Si1 0.923173 0.250491 0.917733
Si Si2 0.764575 0.921117 0.831427
Si Si3 0.748961 0.422050 0.389351
Si Si4 0.915605 0.735532 0.807476
Si Si5 0.416877 0.750000 0.250000
Si Si6 0.332229 0.007343 0.515467
O O1 0.850761 0.149240 0.904673
O O2 0.858225 0.358225 0.909390
O O3 0.029251 0.249552 0.885322
O O4 0.961540 0.245922 0.974053
O O5 0.858743 0.837093 0.831192
O O6 0.656839 0.867697 0.812686
O O7 0.794999 0.014652 0.794581
O O8 0.652578 0.347423 0.405823
O O9 0.853744 0.353744 0.379978
O O10 0.718363 0.477912 0.338099
O O11 0.767941 0.508625 0.432870
O O12 0.942630 0.750000 0.750000
O O13 0.344829 0.655172 0.270891
O O14 0.376487 0.123514 0.500000
O O15 0.431178 0.931178 0.523230
#
# Coordination Sequence:
#
# PCOD8317220 Si02
#       6
#    16  16  16  16   8  16
#     4  10  20  34  57  90 124 154 187 234 294 360
#     4  11  21  40  58  82 117 152 192 240 288 347
#     4  10  22  39  59  86 118 150 194 252 299 340
#     4  11  23  42  61  80 110 157 204 244 295 346
#     4  11  22  35  56  86 118 149 184 229 284 344
#     4   9  17  33  58  87 117 154 196 236 290 355
#
# _framework density 20.298971000000002
#
# number of rings (size 3 to 8) (size 9 to 14) (size 15 to 20)
#    0.000    1.727    1.818    3.273    0.000    8.727 
#    0.000    1.818    0.000    5.455    0.000    0.000 
#    0.000    0.000    0.000    0.000    0.000    0.000 
#
# Total GULP energy -1091365.032487 kJ/mol
# GULP energy per Si atom -12401.875369 kJ/mol
# Density = 2.025277 g / cm^3
# Si number density = 20.298971 Si / 1000 Ang^3
#
#
#
# Elastic Constant Matrix: (Units=GPa)
#
#
# Indices 1 2 3 4 5 6 
#
# 1 76.1730 20.2988 37.2311 0.0000 0.0000 0.0000
# 2 20.2988 76.1728 37.2308 0.0000 0.0000 0.0000
# 3 37.2311 37.2308 134.1903 0.0000 0.0000 0.0000
# 4 0.0000 0.0000 0.0000 30.9683 0.0000 0.0000
# 5 0.0000 0.0000 0.0000 0.0000 30.9692 0.0000
# 6 0.0000 0.0000 0.0000 0.0000 0.0000 14.3654
#
#
#
# Elastic Compliance Matrix: (Units=1/GPa)
#
#
# Indices 1 2 3 4 5 6 
#
# 1 0.015544 -0.002353 -0.003660 0.000000 0.000000 0.000000
# 2 -0.002353 0.015544 -0.003660 0.000000 0.000000 0.000000
# 3 -0.003660 -0.003660 0.009483 0.000000 0.000000 0.000000
# 4 0.000000 0.000000 0.000000 0.032291 0.000000 0.000000
# 5 0.000000 0.000000 0.000000 0.000000 0.032290 0.000000
# 6 0.000000 0.000000 0.000000 0.000000 0.000000 0.069612
#
#
# Mechanical properties :
#
#
# Convention : Reuss Voigt Hill
#
# Bulk Modulus (GPa) = 47.11412 52.89528 50.00470
# Shear Modulus (GPa) = 24.85284 28.04559 26.44922
#
# Velocity S-wave (km/s) = 3.50285 3.72106 3.61360
# Velocity P-wave (km/s) = 6.29448 6.67655 6.48833
#
# Compressibility (1/GPa) = 0.02122506
#
# Stress axis : x y z
#
# Youngs Moduli (GPa) = 64.33381 64.33376 105.45352
#
# Poissons Ratio (x) = 0.15141 0.38593
# Poissons Ratio (y) = 0.15141 0.38592
# Poissons Ratio (z) = 0.23544 0.23544
#
# Static dielectric constant tensor:
#      x y z
#    x 3.587710 0.000000 0.000000 
#    y 0.000000 3.587710 0.000000 
#    z 0.000000 0.000000 3.696410 
# 
# 
# High freq. dielectric constant tensor:
#      x y z
#    x 1.781120 0.000000 0.000000 
#    y 0.000000 1.781120 0.000000 
#    z 0.000000 0.000000 1.802270 
# 
# From -- ./inp_files/11433.got.cif
#   From: 2010.03.12/outbox.cif.g09.slc.cpg/sg134_6_cif.got.tgz:11433.got - 2010.04.06 18:17:22.
