data_PCOD8317537
_publ_section_title
;
Structure prediction by ZEFSAII (Michael W. Deem and Ramdas Pophale) SiO2 
 PCOD8317537
Probable space group: P 42/M B C
;
_chemical_formula_sum "Si O2"
_cell_formula_units_Z 96
_cell_length_a 21.271747
_cell_length_b 21.271747
_cell_length_c 14.265863
_cell_angle_alpha 90.000000
_cell_angle_beta 90.000000
_cell_angle_gamma 90.000000
_cell_volume 6455.120696
_symmetry_space_group_name_H-M "P 42/M B C"
_symmetry_group_IT_number 135
_symmetry_cell_setting 'tetragonal'
loop_
_space_group_symop_operation_xyz
x,y,z
-y,x,1/2+z
-x,-y,z
y,-x,1/2+z
1/2+x,1/2-y,-z
1/2-x,1/2+y,-z
1/2+y,1/2+x,1/2-z
1/2-y,1/2-x,1/2-z
-x,-y,-z
y,-x,1/2-z
x,y,-z
-y,x,1/2-z
1/2-x,1/2+y,z
1/2+x,1/2-y,z
1/2-y,1/2-x,1/2+z
1/2+y,1/2+x,1/2+z
loop_
_atom_site_type_symbol
_atom_site_label
_atom_site_fract_x
_atom_site_fract_y
_atom_site_fract_z
Si Si1 0.719887 0.114648 0.750000
Si Si2 0.257617 0.137454 0.250000
Si Si3 0.447365 0.052634 0.390642
Si Si4 0.185232 0.209077 0.896091
Si Si5 0.658954 0.979600 0.750000
Si Si6 0.709077 0.685232 0.103909
O O1 0.665286 0.165286 0.750000
O O2 0.763544 0.124491 0.658217
O O3 0.763544 0.124491 0.841783
O O4 0.688583 0.047571 0.750000
O O5 0.318161 0.181840 0.250000
O O6 0.214862 0.149627 0.158297
O O7 0.281741 0.066641 0.249999
O O8 0.214863 0.149627 0.341703
O O9 0.434777 0.065222 0.500000
O O10 0.382880 0.029682 0.343098
O O11 0.470319 0.117120 0.343099
O O12 0.500000 0.000000 0.374678
O O13 0.237247 0.262753 0.900466
O O14 0.164610 0.187726 0.000000
O O15 0.687726 0.664610 0.000000
#
# Coordination Sequence:
#
# PCOD8317537 Si02
#       6
#    16  16  16  16  16  16
#     4   9  17  28  44  63  84 114 151 182 218 259
#     4   9  16  28  42  64  84 110 145 177 226 267
#     4  10  21  33  42  57  87 130 167 191 216 243
#     4   8  15  28  45  61  81 107 139 181 226 272
#     4  11  19  31  45  63  90 118 153 194 222 258
#     4   8  15  28  45  61  81 107 139 181 226 272
#
# _framework density 14.871914
#
# number of rings (size 3 to 8) (size 9 to 14) (size 15 to 20)
#    0.000    2.833    1.667    4.000    0.000    2.667 
#    0.000    3.333    0.000    0.000    0.000    0.000 
#    0.000   10.667    0.000   12.000    0.000    0.000 
#
# Total GULP energy -1189928.023724 kJ/mol
# GULP energy per Si atom -12395.083580 kJ/mol
# Density = 1.483806 g / cm^3
# Si number density = 14.871914 Si / 1000 Ang^3
#
#
#
# Elastic Constant Matrix: (Units=GPa)
#
#
# Indices 1 2 3 4 5 6 
#
# 1 36.0022 49.9140 43.5404 0.0000 0.0000 0.0000
# 2 49.9140 35.9990 43.5391 0.0000 0.0000 0.0000
# 3 43.5404 43.5391 152.3268 0.0000 0.0000 0.0000
# 4 0.0000 0.0000 0.0000 8.1396 0.0000 0.0000
# 5 0.0000 0.0000 0.0000 0.0000 8.1396 0.0000
# 6 0.0000 0.0000 0.0000 0.0000 0.0000 31.4019
#
#
#
# Elastic Compliance Matrix: (Units=1/GPa)
#
#
# Indices 1 2 3 4 5 6 
#
# 1 -0.027742 0.044130 -0.004684 0.000000 0.000000 0.000000
# 2 0.044130 -0.027745 -0.004684 0.000000 0.000000 0.000000
# 3 -0.004684 -0.004684 0.009242 0.000000 0.000000 0.000000
# 4 0.000000 0.000000 0.000000 0.122855 0.000000 0.000000
# 5 0.000000 0.000000 0.000000 0.000000 0.122857 0.000000
# 6 0.000000 0.000000 0.000000 0.000000 0.000000 0.031845
#
#
# Mechanical properties :
#
#
# Convention : Reuss Voigt Hill
#
# Bulk Modulus (GPa) = 42.95419 55.36833 49.16126
# Shear Modulus (GPa) = 29.48991 15.35852 22.42421
#
# Velocity S-wave (km/s) = 4.45784 3.21708 3.88728
# Velocity P-wave (km/s) = 7.44593 7.14916 7.29905
#
# Compressibility (1/GPa) = 0.02328062
#
# Stress axis : x y z
#
# Youngs Moduli (GPa) = -36.04683 -36.04316 108.19679
#
# Poissons Ratio (x) = 1.59058 0.50679
# Poissons Ratio (y) = 1.59074 0.50677
# Poissons Ratio (z) = -0.16884 -0.16882
#
# Static dielectric constant tensor:
#      x y z
#    x 2.705640 0.000000 0.000000 
#    y 0.000000 2.705630 0.000000 
#    z 0.000000 0.000000 3.330690 
# 
# 
# High freq. dielectric constant tensor:
#      x y z
#    x 1.540420 0.000000 0.000000 
#    y 0.000000 1.540420 0.000000 
#    z 0.000000 0.000000 1.582620 
# 
# From -- ./inp_files/3654.got.cif
#   From: 2010.03.12/outbox.cif.g09.slc.cpg/sg135_2_cif.got.tgz:3654.got - 2010.04.06 18:31:24.
