data_PCOD8317140
_publ_section_title
;
Structure prediction by ZEFSAII (Michael W. Deem and Ramdas Pophale) SiO2 
 PCOD8317140
Probable space group: P 42/N N M
;
_chemical_formula_sum "Si O2"
_cell_formula_units_Z 64
_cell_length_a 19.253962
_cell_length_b 19.253962
_cell_length_c 10.350150
_cell_angle_alpha 90.000000
_cell_angle_beta 90.000000
_cell_angle_gamma 90.000000
_cell_volume 3836.956403
_symmetry_space_group_name_H-M "P 42/N N M"
_symmetry_group_IT_number 134
_space_group.IT_coordinate_system_code '2'
_symmetry_cell_setting 'tetragonal'
loop_
_space_group_symop_operation_xyz
x,y,z
1/2-y,x,1/2+z
1/2-x,1/2-y,z
y,1/2-x,1/2+z
x,1/2-y,1/2-z
1/2-x,y,1/2-z
y,x,-z
1/2-y,1/2-x,-z
-x,-y,-z
1/2+y,-x,1/2-z
1/2+x,1/2+y,-z
-y,1/2+x,1/2-z
-x,1/2+y,1/2+z
1/2+x,-y,1/2+z
-y,-x,z
1/2+y,1/2+x,z
loop_
_atom_site_type_symbol
_atom_site_label
_atom_site_fract_x
_atom_site_fract_y
_atom_site_fract_z
Si Si1 0.097019 0.015292 0.606160
Si Si2 0.514475 0.597961 0.898847
Si Si3 0.754248 0.361466 0.612423
Si Si4 0.252159 0.968530 0.894867
O O1 0.068243 0.068243 0.500000
O O2 0.081715 0.040633 0.752983
O O3 0.180149 0.016585 0.588880
O O4 0.060576 0.939425 0.585852
O O5 0.440544 0.559456 0.922978
O O6 0.507930 0.680351 0.924963
O O7 0.571225 0.571225 0.000000
O O8 0.750000 0.402841 0.750000
O O9 0.700846 0.299155 0.624187
O O10 0.831532 0.331532 0.589549
O O11 0.734006 0.407180 0.492460
O O12 0.250000 0.937622 0.750000
#
# Coordination Sequence:
#
# PCOD8317140 Si02
#       4
#    16  16  16  16
#     4   9  18  32  49  70  96 124 155 193 236 282
#     4   9  18  32  49  70  96 124 155 193 236 282
#     4   9  18  30  42  62  95 129 157 186 224 275
#     4  10  19  31  49  71  93 120 158 200 239 280
#
# _framework density 16.679887000000001
#
# number of rings (size 3 to 8) (size 9 to 14) (size 15 to 20)
#    0.000    2.750    0.000    2.250    0.000    5.000 
#    0.000    6.250    0.000    0.750    0.000    5.250 
#    0.000    0.000    0.000    0.000    0.000    0.000 
#
# Total GULP energy -793016.832667 kJ/mol
# GULP energy per Si atom -12390.888010 kJ/mol
# Density = 1.664192 g / cm^3
# Si number density = 16.679887 Si / 1000 Ang^3
#
#
#
# Elastic Constant Matrix: (Units=GPa)
#
#
# Indices 1 2 3 4 5 6 
#
# 1 89.3152 33.8472 60.5046 0.0000 0.0000 0.0000
# 2 33.8472 89.3152 60.5046 0.0000 0.0000 0.0000
# 3 60.5046 60.5046 131.9224 0.0000 0.0000 0.0000
# 4 0.0000 0.0000 0.0000 26.9579 0.0000 0.0000
# 5 0.0000 0.0000 0.0000 0.0000 26.9579 0.0000
# 6 0.0000 0.0000 0.0000 0.0000 0.0000 10.1521
#
#
#
# Elastic Compliance Matrix: (Units=1/GPa)
#
#
# Indices 1 2 3 4 5 6 
#
# 1 0.016404 -0.001625 -0.006778 0.000000 0.000000 0.000000
# 2 -0.001625 0.016404 -0.006778 0.000000 0.000000 0.000000
# 3 -0.006778 -0.006778 0.013798 0.000000 0.000000 0.000000
# 4 0.000000 0.000000 0.000000 0.037095 0.000000 0.000000
# 5 0.000000 0.000000 0.000000 0.000000 0.037095 0.000000
# 6 0.000000 0.000000 0.000000 0.000000 0.000000 0.098502
#
#
# Mechanical properties :
#
#
# Convention : Reuss Voigt Hill
#
# Bulk Modulus (GPa) = 61.56519 68.91841 65.24180
# Shear Modulus (GPa) = 19.60219 23.19335 21.39777
#
# Velocity S-wave (km/s) = 3.43184 3.73298 3.58557
# Velocity P-wave (km/s) = 7.25901 7.74520 7.50605
#
# Compressibility (1/GPa) = 0.01624295
#
# Stress axis : x y z
#
# Youngs Moduli (GPa) = 60.96157 60.96157 72.47548
#
# Poissons Ratio (x) = 0.09904 0.49126
# Poissons Ratio (y) = 0.09904 0.49126
# Poissons Ratio (z) = 0.41321 0.41321
#
# Static dielectric constant tensor:
#      x y z
#    x 3.013930 0.000000 0.000000 
#    y 0.000000 3.013930 0.000000 
#    z 0.000000 0.000000 3.527610 
# 
# 
# High freq. dielectric constant tensor:
#      x y z
#    x 1.616550 0.000000 0.000000 
#    y 0.000000 1.616550 0.000000 
#    z 0.000000 0.000000 1.666830 
# 
# From -- ./inp_files/2746.got.cif
#   From: 2010.03.12/outbox.cif.g09.slc.cpg/sg134_2_cif.got.tgz:2746.got - 2010.04.06 18:17:22.
