data_PCOD8317392
_publ_section_title
;
Structure prediction by ZEFSAII (Michael W. Deem and Ramdas Pophale) SiO2 
 PCOD8317392
Probable space group: P 42/M B C
;
_chemical_formula_sum "Si O2"
_cell_formula_units_Z 80
_cell_length_a 17.168158
_cell_length_b 17.168158
_cell_length_c 14.524388
_cell_angle_alpha 90.000000
_cell_angle_beta 90.000000
_cell_angle_gamma 90.000000
_cell_volume 4281.000169
_symmetry_space_group_name_H-M "P 42/M B C"
_symmetry_group_IT_number 135
_symmetry_cell_setting 'tetragonal'
loop_
_space_group_symop_operation_xyz
x,y,z
-y,x,1/2+z
-x,-y,z
y,-x,1/2+z
1/2+x,1/2-y,-z
1/2-x,1/2+y,-z
1/2+y,1/2+x,1/2-z
1/2-y,1/2-x,1/2-z
-x,-y,-z
y,-x,1/2-z
x,y,-z
-y,x,1/2-z
1/2-x,1/2+y,z
1/2+x,1/2-y,z
1/2-y,1/2-x,1/2+z
1/2+y,1/2+x,1/2+z
loop_
_atom_site_type_symbol
_atom_site_label
_atom_site_fract_x
_atom_site_fract_y
_atom_site_fract_z
Si Si1 0.753947 0.220220 0.500000
Si Si2 0.039032 0.278147 0.649850
Si Si3 0.195013 0.578648 0.702738
Si Si4 0.422607 0.236282 0.500000
Si Si5 0.789113 0.195579 0.182203
Si Si6 0.436132 0.140100 0.000000
Si Si7 0.612975 0.113599 0.500000
O O1 0.846846 0.208792 0.500000
O O2 0.736759 0.275212 0.414451
O O3 0.705021 0.139217 0.500000
O O4 0.102812 0.211502 0.669437
O O5 0.075379 0.350362 0.592632
O O6 0.005422 0.303397 0.748720
O O7 0.969893 0.239761 0.590885
O O8 0.123165 0.623165 0.750000
O O9 0.273958 0.628254 0.721279
O O10 0.189491 0.565730 0.593564
O O11 0.413662 0.141183 0.500000
O O12 0.718698 0.218698 0.250000
O O13 0.520825 0.097252 0.000000
#
# Coordination Sequence:
#
# PCOD8317392 Si02
#       7
#     8  16  16   8  16   8   8
#     4  10  18  38  59  79 105 149 196 244 262 330
#     4  10  22  36  55  85 113 150 186 233 289 341
#     4  11  21  38  58  82 111 153 195 233 282 349
#     4  11  18  38  60  80 114 148 195 224 296 349
#     4  10  20  36  58  81 110 143 199 241 272 329
#     4  12  22  36  56  86 120 150 184 232 294 353
#     4   9  24  37  55  87 119 144 191 234 286 347
#
# _framework density 18.687221999999998
#
# number of rings (size 3 to 8) (size 9 to 14) (size 15 to 20)
#    0.000    1.600    4.000    1.800    5.600    1.600 
#    0.000    1.000    0.000    0.600    0.000    1.400 
#    0.000    0.000    0.000    0.000    0.000    0.000 
#
# Total GULP energy -991406.091536 kJ/mol
# GULP energy per Si atom -12392.576144 kJ/mol
# Density = 1.864469 g / cm^3
# Si number density = 18.687222 Si / 1000 Ang^3
#
#
#
# Elastic Constant Matrix: (Units=GPa)
#
#
# Indices 1 2 3 4 5 6 
#
# 1 98.6077 41.1808 39.8165 0.0000 0.0000 0.0000
# 2 41.1808 98.6077 39.8165 0.0000 0.0000 0.0000
# 3 39.8165 39.8165 134.0750 0.0000 0.0000 0.0000
# 4 0.0000 0.0000 0.0000 23.2564 0.0000 0.0000
# 5 0.0000 0.0000 0.0000 0.0000 23.2564 0.0000
# 6 0.0000 0.0000 0.0000 0.0000 0.0000 19.8162
#
#
#
# Elastic Compliance Matrix: (Units=1/GPa)
#
#
# Indices 1 2 3 4 5 6 
#
# 1 0.013012 -0.004402 -0.002557 0.000000 0.000000 0.000000
# 2 -0.004402 0.013012 -0.002557 0.000000 0.000000 0.000000
# 3 -0.002557 -0.002557 0.008977 0.000000 0.000000 0.000000
# 4 0.000000 0.000000 0.000000 0.042999 0.000000 0.000000
# 5 0.000000 0.000000 0.000000 0.000000 0.042999 0.000000
# 6 0.000000 0.000000 0.000000 0.000000 0.000000 0.050464
#
#
# Mechanical properties :
#
#
# Convention : Reuss Voigt Hill
#
# Bulk Modulus (GPa) = 62.61827 63.65758 63.13792
# Shear Modulus (GPa) = 25.53404 27.29758 26.41581
#
# Velocity S-wave (km/s) = 3.70048 3.82614 3.76383
# Velocity P-wave (km/s) = 7.19996 7.32515 7.26283
#
# Compressibility (1/GPa) = 0.01596978
#
# Stress axis : x y z
#
# Youngs Moduli (GPa) = 76.85282 76.85282 111.39275
#
# Poissons Ratio (x) = 0.33827 0.28483
# Poissons Ratio (y) = 0.33827 0.28483
# Poissons Ratio (z) = 0.19651 0.19651
#
# Static dielectric constant tensor:
#      x y z
#    x 3.334700 0.000000 0.000000 
#    y 0.000000 3.334700 0.000000 
#    z 0.000000 0.000000 3.715040 
# 
# 
# High freq. dielectric constant tensor:
#      x y z
#    x 1.700010 0.000000 0.000000 
#    y 0.000000 1.700010 0.000000 
#    z 0.000000 0.000000 1.753040 
# 
# From -- ./inp_files/3477.got.cif
#   From: 2010.03.12/outbox.cif.g09.slc.cpg/sg135_2_cif.got.tgz:3477.got - 2010.04.06 18:31:24.
