data_PCOD8317058
_publ_section_title
;
Structure prediction by ZEFSAII (Michael W. Deem and Ramdas Pophale) SiO2 
 PCOD8317058
Probable space group: P 42/N B C
;
_chemical_formula_sum "Si O2"
_cell_formula_units_Z 48
_cell_length_a 13.035579
_cell_length_b 13.035579
_cell_length_c 13.924102
_cell_angle_alpha 90.000000
_cell_angle_beta 90.000000
_cell_angle_gamma 90.000000
_cell_volume 2366.071410
_symmetry_space_group_name_H-M "P 42/N B C"
_symmetry_group_IT_number 133
_space_group.IT_coordinate_system_code '2'
_symmetry_cell_setting 'tetragonal'
loop_
_space_group_symop_operation_xyz
x,y,z
1/2-y,x,1/2+z
1/2-x,1/2-y,z
y,1/2-x,1/2+z
x,1/2-y,-z
1/2-x,y,-z
y,x,1/2-z
1/2-y,1/2-x,1/2-z
-x,-y,-z
1/2+y,-x,1/2-z
1/2+x,1/2+y,-z
-y,1/2+x,1/2-z
-x,1/2+y,z
1/2+x,-y,z
-y,-x,1/2+z
1/2+y,1/2+x,1/2+z
loop_
_atom_site_type_symbol
_atom_site_label
_atom_site_fract_x
_atom_site_fract_y
_atom_site_fract_z
Si Si1 0.332202 0.617297 0.915882
Si Si2 0.508077 0.750000 0.000000
Si Si3 0.322787 0.382223 0.910749
Si Si4 0.250000 0.750000 0.750000
Si Si5 0.750000 0.750000 0.750000
O O1 0.358413 0.498685 0.901838
O O2 0.286354 0.656400 0.816006
O O3 0.250000 0.637412 0.000000
O O4 0.438712 0.672353 0.939247
O O5 0.576235 0.687748 0.077056
O O6 0.255655 0.350453 0.817737
O O7 0.250000 0.363983 0.000000
#
# Coordination Sequence:
#
# PCOD8317058 Si02
#       5
#    16   8  16   4   4
#     4  11  25  43  67  93 136 178 218 274 340 402
#     4  12  20  48  64 100 132 180 222 278 340 408
#     4  11  25  43  66  95 134 177 219 277 339 397
#     4  12  22  44  64  98 128 176 230 280 328 398
#     4  12  22  44  64  98 128 176 228 286 324 394
#
# _framework density 20.286792999999999
#
# number of rings (size 3 to 8) (size 9 to 14) (size 15 to 20)
#    0.000    0.667    6.667    1.000    4.667    0.000 
#    0.000    1.667    0.000    0.000    0.000    0.000 
#    0.000    0.000    0.000    0.000    0.000    0.000 
#
# Total GULP energy -595343.171798 kJ/mol
# GULP energy per Si atom -12402.982746 kJ/mol
# Density = 2.024062 g / cm^3
# Si number density = 20.286793 Si / 1000 Ang^3
#
#
#
# Elastic Constant Matrix: (Units=GPa)
#
#
# Indices 1 2 3 4 5 6 
#
# 1 149.3222 88.0921 64.2171 0.0000 0.0000 0.0000
# 2 88.0921 149.3222 64.2171 0.0000 0.0000 0.0000
# 3 64.2171 64.2171 151.1307 0.0000 0.0000 0.0000
# 4 0.0000 0.0000 0.0000 12.7351 0.0000 0.0000
# 5 0.0000 0.0000 0.0000 0.0000 12.7351 0.0000
# 6 0.0000 0.0000 0.0000 0.0000 0.0000 41.2863
#
#
#
# Elastic Compliance Matrix: (Units=1/GPa)
#
#
# Indices 1 2 3 4 5 6 
#
# 1 0.010901 -0.005431 -0.002324 0.000000 0.000000 0.000000
# 2 -0.005431 0.010901 -0.002324 0.000000 0.000000 0.000000
# 3 -0.002324 -0.002324 0.008592 0.000000 0.000000 0.000000
# 4 0.000000 0.000000 0.000000 0.078523 0.000000 0.000000
# 5 0.000000 0.000000 0.000000 0.000000 0.078523 0.000000
# 6 0.000000 0.000000 0.000000 0.000000 0.000000 0.024221
#
#
# Mechanical properties :
#
#
# Convention : Reuss Voigt Hill
#
# Bulk Modulus (GPa) = 97.70934 98.09195 97.90064
# Shear Modulus (GPa) = 21.25579 28.90122 25.07850
#
# Velocity S-wave (km/s) = 3.24043 3.77852 3.51978
# Velocity P-wave (km/s) = 7.89108 8.21547 8.05491
#
# Compressibility (1/GPa) = 0.01023444
#
# Stress axis : x y z
#
# Youngs Moduli (GPa) = 91.73868 91.73868 116.39108
#
# Poissons Ratio (x) = 0.49826 0.27049
# Poissons Ratio (y) = 0.49826 0.27049
# Poissons Ratio (z) = 0.21319 0.21319
#
# Static dielectric constant tensor:
#      x y z
#    x 3.855550 0.000000 0.000000 
#    y 0.000000 3.855550 0.000000 
#    z 0.000000 0.000000 3.845580 
# 
# 
# High freq. dielectric constant tensor:
#      x y z
#    x 1.800550 0.000000 0.000000 
#    y 0.000000 1.800550 0.000000 
#    z 0.000000 0.000000 1.795250 
# 
# From -- ./inp_files/2593.got.cif
#   From: 2010.03.12/outbox.cif.g09.slc.cpg/sg133_2_cif.got.tgz:2593.got - 2010.04.06 18:08:06.
