data_PCOD8317094
_publ_section_title
;
Structure prediction by ZEFSAII (Michael W. Deem and Ramdas Pophale) SiO2 
 PCOD8317094
Probable space group: P 42/N N M
;
_chemical_formula_sum "Si O2"
_cell_formula_units_Z 96
_cell_length_a 19.326613
_cell_length_b 19.326613
_cell_length_c 15.355411
_cell_angle_alpha 90.000000
_cell_angle_beta 90.000000
_cell_angle_gamma 90.000000
_cell_volume 5735.521946
_symmetry_space_group_name_H-M "P 42/N N M"
_symmetry_group_IT_number 134
_space_group.IT_coordinate_system_code '2'
_symmetry_cell_setting 'tetragonal'
loop_
_space_group_symop_operation_xyz
x,y,z
1/2-y,x,1/2+z
1/2-x,1/2-y,z
y,1/2-x,1/2+z
x,1/2-y,1/2-z
1/2-x,y,1/2-z
y,x,-z
1/2-y,1/2-x,-z
-x,-y,-z
1/2+y,-x,1/2-z
1/2+x,1/2+y,-z
-y,1/2+x,1/2-z
-x,1/2+y,1/2+z
1/2+x,-y,1/2+z
-y,-x,z
1/2+y,1/2+x,z
loop_
_atom_site_type_symbol
_atom_site_label
_atom_site_fract_x
_atom_site_fract_y
_atom_site_fract_z
Si Si1 0.767845 0.675537 0.350332
Si Si2 0.745952 0.361367 0.845090
Si Si3 0.510932 0.294086 0.568668
Si Si4 0.913648 0.971588 0.693569
Si Si5 0.918699 0.806258 0.176601
Si Si6 0.576258 0.843503 0.925143
O O1 0.750000 0.750000 0.392199
O O2 0.750000 0.674899 0.250000
O O3 0.849276 0.662089 0.365010
O O4 0.724416 0.615461 0.394515
O O5 0.750000 0.399972 0.750000
O O6 0.669446 0.330555 0.861415
O O7 0.799660 0.299660 0.841463
O O8 0.763206 0.412313 0.924265
O O9 0.509144 0.363289 0.626142
O O10 0.459701 0.233806 0.601481
O O11 0.494908 0.315851 0.469041
O O12 0.870770 0.961238 0.783044
O O13 0.937977 0.897373 0.653419
O O14 0.980684 0.019317 0.711297
O O15 0.897667 0.750000 0.250000
O O16 0.620857 0.879143 0.000000
#
# Coordination Sequence:
#
# PCOD8317094 Si02
#       6
#    16  16  16  16  16  16
#     4  11  17  30  52  67  91 126 157 198 233 266
#     4   9  17  30  49  71  93 123 162 196 231 282
#     4  10  20  29  44  68 101 125 152 191 240 285
#     4  10  19  31  47  67  96 128 156 190 231 284
#     4  10  18  30  45  70  91 123 163 188 226 281
#     4  10  21  32  44  73  98 120 156 195 235 286
#
# _framework density 16.737795999999999
#
# number of rings (size 3 to 8) (size 9 to 14) (size 15 to 20)
#    0.000    2.000    3.333    4.500    0.000    8.000 
#    0.000    0.000    0.000    1.000    0.000    2.333 
#    0.000    0.000    0.000    0.167    0.000    0.000 
#
# Total GULP energy -1189925.737776 kJ/mol
# GULP energy per Si atom -12395.059769 kJ/mol
# Density = 1.669970 g / cm^3
# Si number density = 16.737796 Si / 1000 Ang^3
#
#
#
# Elastic Constant Matrix: (Units=GPa)
#
#
# Indices 1 2 3 4 5 6 
#
# 1 84.5630 34.2661 18.0382 0.0000 0.0000 0.0000
# 2 34.2661 84.5630 18.0382 0.0000 0.0000 0.0000
# 3 18.0382 18.0382 28.5415 0.0000 0.0000 0.0000
# 4 0.0000 0.0000 0.0000 18.4197 0.0000 0.0000
# 5 0.0000 0.0000 0.0000 0.0000 18.4197 0.0000
# 6 0.0000 0.0000 0.0000 0.0000 0.0000 29.4090
#
#
#
# Elastic Compliance Matrix: (Units=1/GPa)
#
#
# Indices 1 2 3 4 5 6 
#
# 1 0.015148 -0.004734 -0.006581 0.000000 0.000000 0.000000
# 2 -0.004734 0.015148 -0.006581 0.000000 0.000000 0.000000
# 3 -0.006581 -0.006581 0.043356 0.000000 0.000000 0.000000
# 4 0.000000 0.000000 0.000000 0.054290 0.000000 0.000000
# 5 0.000000 0.000000 0.000000 0.000000 0.054290 0.000000
# 6 0.000000 0.000000 0.000000 0.000000 0.000000 0.034003
#
#
# Mechanical properties :
#
#
# Convention : Reuss Voigt Hill
#
# Bulk Modulus (GPa) = 26.41504 37.59474 32.00489
# Shear Modulus (GPa) = 18.89311 21.73800 20.31556
#
# Velocity S-wave (km/s) = 3.36336 3.60771 3.48768
# Velocity P-wave (km/s) = 5.55867 6.31378 5.94822
#
# Compressibility (1/GPa) = 0.03785722
#
# Stress axis : x y z
#
# Youngs Moduli (GPa) = 66.01645 66.01645 23.06509
#
# Poissons Ratio (x) = 0.31254 0.15180
# Poissons Ratio (y) = 0.31254 0.15180
# Poissons Ratio (z) = 0.43448 0.43448
#
# Static dielectric constant tensor:
#      x y z
#    x 3.260320 0.000000 0.000000 
#    y 0.000000 3.260320 0.000000 
#    z 0.000000 0.000000 3.352530 
# 
# 
# High freq. dielectric constant tensor:
#      x y z
#    x 1.637140 0.000000 0.000000 
#    y 0.000000 1.637140 0.000000 
#    z 0.000000 0.000000 1.605970 
# 
# From -- ./inp_files/7884.got.cif
#   From: 2010.03.12/outbox.cif.g09.slc.cpg/sg134_4_cif.got.tgz:7884.got - 2010.04.06 18:17:22.
