data_PCOD8317259
_publ_section_title
;
Structure prediction by ZEFSAII (Michael W. Deem and Ramdas Pophale) SiO2 
 PCOD8317259
Probable space group: P 42/N N M
;
_chemical_formula_sum "Si O2"
_cell_formula_units_Z 40
_cell_length_a 16.446670
_cell_length_b 16.446670
_cell_length_c 7.151886
_cell_angle_alpha 90.000000
_cell_angle_beta 90.000000
_cell_angle_gamma 90.000000
_cell_volume 1934.534771
_symmetry_space_group_name_H-M "P 42/N N M"
_symmetry_group_IT_number 134
_space_group.IT_coordinate_system_code '2'
_symmetry_cell_setting 'tetragonal'
loop_
_space_group_symop_operation_xyz
x,y,z
1/2-y,x,1/2+z
1/2-x,1/2-y,z
y,1/2-x,1/2+z
x,1/2-y,1/2-z
1/2-x,y,1/2-z
y,x,-z
1/2-y,1/2-x,-z
-x,-y,-z
1/2+y,-x,1/2-z
1/2+x,1/2+y,-z
-y,1/2+x,1/2-z
-x,1/2+y,1/2+z
1/2+x,-y,1/2+z
-y,-x,z
1/2+y,1/2+x,z
loop_
_atom_site_type_symbol
_atom_site_label
_atom_site_fract_x
_atom_site_fract_y
_atom_site_fract_z
Si Si1 0.250000 0.032062 0.750000
Si Si2 0.049286 0.817266 0.118197
Si Si3 0.840581 0.625524 0.712547
O O1 0.177104 0.091570 0.671577
O O2 0.278973 0.975816 0.580700
O O3 0.092979 0.750000 0.250000
O O4 0.108866 0.891135 0.076323
O O5 0.971750 0.848461 0.239894
O O6 0.750000 0.657222 0.750000
O O7 0.858265 0.641736 0.500000
#
# Coordination Sequence:
#
# PCOD8317259 Si02
#       3
#     8  16  16
#     4  10  21  36  60  89 116 148 188 232 286 347
#     4  10  23  41  59  83 116 153 194 240 287 335
#     4   9  19  34  56  86 119 151 184 228 286 348
#
# _framework density 20.676805000000002
#
# number of rings (size 3 to 8) (size 9 to 14) (size 15 to 20)
#    0.000    2.400    0.000    0.600    0.000   28.400 
#    0.000    2.000    0.000    0.000    0.000    0.000 
#    0.000    0.000    0.000    0.000    0.000    0.000 
#
# Total GULP energy -495701.051790 kJ/mol
# GULP energy per Si atom -12392.526295 kJ/mol
# Density = 2.062974 g / cm^3
# Si number density = 20.676805 Si / 1000 Ang^3
#
#
#
# Elastic Constant Matrix: (Units=GPa)
#
#
# Indices 1 2 3 4 5 6 
#
# 1 104.4844 76.6015 39.3327 0.0000 0.0000 0.0000
# 2 76.6015 104.4865 39.3340 0.0000 0.0000 0.0000
# 3 39.3327 39.3340 26.1249 0.0000 0.0000 0.0000
# 4 0.0000 0.0000 0.0000 24.4144 0.0000 0.0000
# 5 0.0000 0.0000 0.0000 0.0000 24.4136 0.0000
# 6 0.0000 0.0000 0.0000 0.0000 0.0000 57.7270
#
#
#
# Elastic Compliance Matrix: (Units=1/GPa)
#
#
# Indices 1 2 3 4 5 6 
#
# 1 0.025912 -0.009950 -0.024031 0.000000 0.000000 0.000000
# 2 -0.009950 0.025913 -0.024034 0.000000 0.000000 0.000000
# 3 -0.024031 -0.024034 0.110645 0.000000 0.000000 0.000000
# 4 0.000000 0.000000 0.000000 0.040960 0.000000 0.000000
# 5 0.000000 0.000000 0.000000 0.000000 0.040961 0.000000
# 6 0.000000 0.000000 0.000000 0.000000 0.000000 0.017323
#
#
# Mechanical properties :
#
#
# Convention : Reuss Voigt Hill
#
# Bulk Modulus (GPa) = 21.53399 60.62582 41.07991
# Shear Modulus (GPa) = 12.71539 26.63284 19.67412
#
# Velocity S-wave (km/s) = 2.48253 3.59284 3.08800
# Velocity P-wave (km/s) = 4.31908 6.82610 5.71183
#
# Compressibility (1/GPa) = 0.04643821
#
# Stress axis : x y z
#
# Youngs Moduli (GPa) = 38.59200 38.59045 9.03795
#
# Poissons Ratio (x) = 0.38398 0.21719
# Poissons Ratio (y) = 0.38400 0.21722
# Poissons Ratio (z) = 0.92741 0.92750
#
# Static dielectric constant tensor:
#      x y z
#    x 5.477060 0.000000 0.000000 
#    y 0.000000 5.477160 0.000000 
#    z 0.000000 0.000000 3.974210 
# 
# 
# High freq. dielectric constant tensor:
#      x y z
#    x 1.796510 0.000000 0.000000 
#    y 0.000000 1.796510 0.000000 
#    z 0.000000 0.000000 1.811980 
# 
# From -- ./inp_files/1802.got.cif
#   From: 2010.03.12/outbox.cif.g09.slc.cpg/sg134_1_cif.got.tgz:1802.got - 2010.04.06 18:17:22.
