data_PCOD8317509
_publ_section_title
;
Structure prediction by ZEFSAII (Michael W. Deem and Ramdas Pophale) SiO2 
 PCOD8317509
Probable space group: P 42/M B C
;
_chemical_formula_sum "Si O2"
_cell_formula_units_Z 88
_cell_length_a 14.155081
_cell_length_b 14.155081
_cell_length_c 23.352197
_cell_angle_alpha 90.000000
_cell_angle_beta 90.000000
_cell_angle_gamma 90.000000
_cell_volume 4678.993733
_symmetry_space_group_name_H-M "P 42/M B C"
_symmetry_group_IT_number 135
_symmetry_cell_setting 'tetragonal'
loop_
_space_group_symop_operation_xyz
x,y,z
-y,x,1/2+z
-x,-y,z
y,-x,1/2+z
1/2+x,1/2-y,-z
1/2-x,1/2+y,-z
1/2+y,1/2+x,1/2-z
1/2-y,1/2-x,1/2-z
-x,-y,-z
y,-x,1/2-z
x,y,-z
-y,x,1/2-z
1/2-x,1/2+y,z
1/2+x,1/2-y,z
1/2-y,1/2-x,1/2+z
1/2+y,1/2+x,1/2+z
loop_
_atom_site_type_symbol
_atom_site_label
_atom_site_fract_x
_atom_site_fract_y
_atom_site_fract_z
Si Si1 0.536047 0.683338 0.500000
Si Si2 0.184262 0.258755 0.000000
Si Si3 0.630364 0.160328 0.878043
Si Si4 0.809885 0.453314 0.893228
Si Si5 0.211942 0.727104 0.683198
Si Si6 0.665542 0.394853 0.500000
Si Si7 0.068511 0.716080 0.103500
O O1 0.647039 0.652939 0.500000
O O2 0.514288 0.739081 0.442370
O O3 0.449726 0.605892 0.500000
O O4 0.145764 0.309540 0.943804
O O5 0.296065 0.277005 0.000000
O O6 0.686709 0.220533 0.831720
O O7 0.524112 0.185822 0.862863
O O8 0.645811 0.049003 0.868070
O O9 0.757634 0.394872 0.841899
O O10 0.886727 0.382064 0.921726
O O11 0.208094 0.708094 0.750000
O O12 0.259928 0.637520 0.651545
O O13 0.704074 0.450771 0.444495
#
# Coordination Sequence:
#
# PCOD8317509 Si02
#       7
#     8   8  16  16  16   8  16
#     4  12  18  34  64  82 122 168 185 241 305 356
#     4  12  19  34  57  93 114 153 198 228 301 375
#     4  12  21  38  65  88 118 159 193 243 315 365
#     4  10  20  36  61  89 121 146 199 247 305 356
#     4  10  23  40  58  83 119 156 200 251 295 357
#     4  12  19  38  59  89 128 157 187 251 300 366
#     4  10  22  38  58  91 121 147 199 248 300 359
#
# _framework density 18.807462000000001
#
# number of rings (size 3 to 8) (size 9 to 14) (size 15 to 20)
#    1.091    0.000    7.273    1.091    0.000    1.455 
#    0.000    5.455    0.000    0.000    0.000    2.545 
#    0.000    0.000    0.000    0.000    0.000    0.000 
#
# Total GULP energy -1090168.789179 kJ/mol
# GULP energy per Si atom -12388.281695 kJ/mol
# Density = 1.876466 g / cm^3
# Si number density = 18.807462 Si / 1000 Ang^3
#
#
#
# Elastic Constant Matrix: (Units=GPa)
#
#
# Indices 1 2 3 4 5 6 
#
# 1 85.5895 29.9317 18.5918 0.0000 0.0000 0.0000
# 2 29.9317 85.5895 18.5918 0.0000 0.0000 0.0000
# 3 18.5918 18.5918 107.0555 0.0000 0.0000 0.0000
# 4 0.0000 0.0000 0.0000 8.9448 0.0000 0.0000
# 5 0.0000 0.0000 0.0000 0.0000 8.9448 0.0000
# 6 0.0000 0.0000 0.0000 0.0000 0.0000 16.5640
#
#
#
# Elastic Compliance Matrix: (Units=1/GPa)
#
#
# Indices 1 2 3 4 5 6 
#
# 1 0.013568 -0.004399 -0.001592 0.000000 0.000000 0.000000
# 2 -0.004399 0.013568 -0.001592 0.000000 0.000000 0.000000
# 3 -0.001592 -0.001592 0.009894 0.000000 0.000000 0.000000
# 4 0.000000 0.000000 0.000000 0.111797 0.000000 0.000000
# 5 0.000000 0.000000 0.000000 0.000000 0.111797 0.000000
# 6 0.000000 0.000000 0.000000 0.000000 0.000000 0.060372
#
#
# Mechanical properties :
#
#
# Convention : Reuss Voigt Hill
#
# Bulk Modulus (GPa) = 45.74022 45.82948 45.78485
# Shear Modulus (GPa) = 14.55813 20.96531 17.76172
#
# Velocity S-wave (km/s) = 2.78521 3.34238 3.07644
# Velocity P-wave (km/s) = 5.89205 6.27025 6.08409
#
# Compressibility (1/GPa) = 0.02186260
#
# Stress axis : x y z
#
# Youngs Moduli (GPa) = 73.70309 73.70309 101.07121
#
# Poissons Ratio (x) = 0.32422 0.16094
# Poissons Ratio (y) = 0.32422 0.16094
# Poissons Ratio (z) = 0.11736 0.11736
#
# Static dielectric constant tensor:
#      x y z
#    x 3.441510 0.000000 0.000000 
#    y 0.000000 3.441510 0.000000 
#    z 0.000000 0.000000 3.407700 
# 
# 
# High freq. dielectric constant tensor:
#      x y z
#    x 1.727240 0.000000 0.000000 
#    y 0.000000 1.727240 0.000000 
#    z 0.000000 0.000000 1.706840 
# 
# From -- ./inp_files/6039.got.cif
#   From: 2010.03.12/outbox.cif.g09.slc.cpg/sg135_4_cif.got.tgz:6039.got - 2010.04.06 18:31:24.
