data_PCOD8317701
_publ_section_title
;
Structure prediction by ZEFSAII (Michael W. Deem and Ramdas Pophale) SiO2 
 PCOD8317701
Probable space group: P 42/M N M
;
_chemical_formula_sum "Si O2"
_cell_formula_units_Z 96
_cell_length_a 17.089676
_cell_length_b 17.089676
_cell_length_c 22.878620
_cell_angle_alpha 90.000000
_cell_angle_beta 90.000000
_cell_angle_gamma 90.000000
_cell_volume 6681.861711
_symmetry_space_group_name_H-M "P 42/M N M"
_symmetry_group_IT_number 136
_symmetry_cell_setting 'tetragonal'
loop_
_space_group_symop_operation_xyz
x,y,z
1/2-y,1/2+x,1/2+z
-x,-y,z
1/2+y,1/2-x,1/2+z
1/2+x,1/2-y,1/2-z
1/2-x,1/2+y,1/2-z
y,x,-z
-y,-x,-z
-x,-y,-z
1/2+y,1/2-x,1/2-z
x,y,-z
1/2-y,1/2+x,1/2-z
1/2-x,1/2+y,1/2+z
1/2+x,1/2-y,1/2+z
-y,-x,z
y,x,z
loop_
_atom_site_type_symbol
_atom_site_label
_atom_site_fract_x
_atom_site_fract_y
_atom_site_fract_z
Si Si1 0.609602 0.390399 0.066938
Si Si2 0.452276 0.322700 0.066015
Si Si3 0.888998 0.558958 0.252389
Si Si4 0.670289 0.042225 0.630138
Si Si5 0.910220 0.476049 0.565372
Si Si6 0.739664 0.260337 0.931329
Si Si7 0.372718 0.136216 0.374728
O O1 0.529024 0.361249 0.095965
O O2 0.674524 0.325477 0.074367
O O3 0.590083 0.409918 0.000000
O O4 0.382897 0.382897 0.066032
O O5 0.425004 0.250147 0.104419
O O6 0.471695 0.294200 0.000000
O O7 0.905219 0.469976 0.272847
O O8 0.827411 0.556662 0.199564
O O9 0.853900 0.610036 0.305501
O O10 0.602345 0.096253 0.603184
O O11 0.662915 0.950078 0.613865
O O12 0.880758 0.458948 0.500000
O O13 0.856553 0.545060 0.591423
O O14 0.000000 0.500000 0.566347
O O15 0.705541 0.183511 0.898424
O O16 0.757694 0.242307 0.000000
#
# Coordination Sequence:
#
# PCOD8317701 Si02
#       7
#     8  16  16  16  16   8  16
#     4   9  17  30  43  58  84 118 150 180 217 260
#     4  10  19  30  44  62  85 114 149 186 225 265
#     4   9  16  29  46  62  84 111 147 180 219 272
#     4  10  17  28  45  63  84 113 146 186 220 264
#     4   9  16  25  40  63  86 108 137 174 218 266
#     4  11  20  29  44  65  92 120 152 193 225 263
#     4  10  18  29  43  63  86 118 148 181 222 265
#
# _framework density 14.367253
#
# number of rings (size 3 to 8) (size 9 to 14) (size 15 to 20)
#    0.000    2.333    3.333    1.250    0.000    2.333 
#    1.500    0.000    0.000    0.000    0.000    0.000 
#    0.000    0.000    0.000    0.750    0.000    8.250 
#
# Total GULP energy -1189935.720811 kJ/mol
# GULP energy per Si atom -12395.163758 kJ/mol
# Density = 1.433455 g / cm^3
# Si number density = 14.367253 Si / 1000 Ang^3
#
#
#
# Elastic Constant Matrix: (Units=GPa)
#
#
# Indices 1 2 3 4 5 6 
#
# 1 66.5931 36.3260 38.3331 0.0000 0.0000 0.0000
# 2 36.3260 66.5924 38.3330 0.0000 0.0000 0.0000
# 3 38.3331 38.3330 82.1586 0.0000 0.0000 0.0000
# 4 0.0000 0.0000 0.0000 15.7595 0.0000 0.0000
# 5 0.0000 0.0000 0.0000 0.0000 15.7591 0.0000
# 6 0.0000 0.0000 0.0000 0.0000 0.0000 21.0796
#
#
#
# Elastic Compliance Matrix: (Units=1/GPa)
#
#
# Indices 1 2 3 4 5 6 
#
# 1 0.023966 -0.009074 -0.006948 0.000000 0.000000 0.000000
# 2 -0.009074 0.023966 -0.006948 0.000000 0.000000 0.000000
# 3 -0.006948 -0.006948 0.018655 0.000000 0.000000 0.000000
# 4 0.000000 0.000000 0.000000 0.063454 0.000000 0.000000
# 5 0.000000 0.000000 0.000000 0.000000 0.063455 0.000000
# 6 0.000000 0.000000 0.000000 0.000000 0.000000 0.047439
#
#
# Mechanical properties :
#
#
# Convention : Reuss Voigt Hill
#
# Bulk Modulus (GPa) = 48.43402 49.03649 48.73525
# Shear Modulus (GPa) = 17.02076 17.34311 17.18193
#
# Velocity S-wave (km/s) = 3.44567 3.47814 3.46194
# Velocity P-wave (km/s) = 7.04377 7.09470 7.06928
#
# Compressibility (1/GPa) = 0.02064665
#
# Stress axis : x y z
#
# Youngs Moduli (GPa) = 41.72605 41.72553 53.60357
#
# Poissons Ratio (x) = 0.37860 0.37246
# Poissons Ratio (y) = 0.37860 0.37246
# Poissons Ratio (z) = 0.28993 0.28993
#
# Static dielectric constant tensor:
#      x y z
#    x 2.667870 0.000000 0.000000 
#    y 0.000000 2.667870 0.000000 
#    z 0.000000 0.000000 2.834550 
# 
# 
# High freq. dielectric constant tensor:
#      x y z
#    x 1.523750 0.000000 0.000000 
#    y 0.000000 1.523750 0.000000 
#    z 0.000000 0.000000 1.547490 
# 
# From -- ./inp_files/7683.got.cif
#   From: 2010.03.12/outbox.cif.g09.slc.cpg/sg136_4_cif.got.tgz:7683.got - 2010.04.06 18:39:43.
