data_PCOD8317894
_publ_section_title
;
Structure prediction by ZEFSAII (Michael W. Deem and Ramdas Pophale) SiO2 
 PCOD8317894
Probable space group: P 42/M N M
;
_chemical_formula_sum "Si O2"
_cell_formula_units_Z 96
_cell_length_a 20.171164
_cell_length_b 20.171164
_cell_length_c 13.574697
_cell_angle_alpha 90.000000
_cell_angle_beta 90.000000
_cell_angle_gamma 90.000000
_cell_volume 5523.216477
_symmetry_space_group_name_H-M "P 42/M N M"
_symmetry_group_IT_number 136
_symmetry_cell_setting 'tetragonal'
loop_
_space_group_symop_operation_xyz
x,y,z
1/2-y,1/2+x,1/2+z
-x,-y,z
1/2+y,1/2-x,1/2+z
1/2+x,1/2-y,1/2-z
1/2-x,1/2+y,1/2-z
y,x,-z
-y,-x,-z
-x,-y,-z
1/2+y,1/2-x,1/2-z
x,y,-z
1/2-y,1/2+x,1/2-z
1/2-x,1/2+y,1/2+z
1/2+x,1/2-y,1/2+z
-y,-x,z
y,x,z
loop_
_atom_site_type_symbol
_atom_site_label
_atom_site_fract_x
_atom_site_fract_y
_atom_site_fract_z
Si Si1 0.313468 0.883087 0.616568
Si Si2 0.503842 0.392500 0.890712
Si Si3 0.362670 0.741978 0.384341
Si Si4 0.773400 0.509252 0.384496
Si Si5 0.808763 0.082946 0.266159
Si Si6 0.396159 0.975742 0.247959
O O1 0.320159 0.889210 0.500000
O O2 0.339171 0.812743 0.657881
O O3 0.237135 0.886355 0.648876
O O4 0.354744 0.943489 0.663295
O O5 0.571964 0.428037 0.857745
O O6 0.445072 0.445072 0.895443
O O7 0.485829 0.337229 0.810468
O O8 0.512615 0.361158 0.000000
O O9 0.350969 0.742825 0.500000
O O10 0.318992 0.681009 0.338812
O O11 0.440454 0.735329 0.360210
O O12 0.776168 0.523495 0.500000
O O13 0.731956 0.567539 0.332724
O O14 0.848711 0.509171 0.344973
O O15 0.866038 0.133963 0.236864
O O16 0.454996 0.926714 0.213241
#
# Coordination Sequence:
#
# PCOD8317894 Si02
#       6
#    16  16  16  16  16  16
#     4  10  19  32  52  80 107 131 168 217 265 311
#     4   8  14  26  45  70 101 134 166 206 259 309
#     4   9  17  31  51  72  97 132 170 209 256 304
#     4  10  21  36  51  73 107 141 178 216 257 313
#     4  10  20  32  50  76 104 136 177 221 259 300
#     4  10  20  34  54  79 107 137 170 211 264 324
#
# _framework density 17.381176
#
# number of rings (size 3 to 8) (size 9 to 14) (size 15 to 20)
#    0.000    2.500    1.667    1.500    0.000    3.333 
#    0.000    1.667    0.000    0.000    0.000    4.667 
#    0.000    0.000    0.000    0.000    0.000    0.000 
#
# Total GULP energy -1190006.947478 kJ/mol
# GULP energy per Si atom -12395.905703 kJ/mol
# Density = 1.734162 g / cm^3
# Si number density = 17.381176 Si / 1000 Ang^3
#
#
#
# Elastic Constant Matrix: (Units=GPa)
#
#
# Indices 1 2 3 4 5 6 
#
# 1 79.4073 33.3991 32.5261 0.0000 0.0000 0.0000
# 2 33.3991 79.4073 32.5261 0.0000 0.0000 0.0000
# 3 32.5261 32.5261 75.3883 0.0000 0.0000 0.0000
# 4 0.0000 0.0000 0.0000 18.9614 0.0000 0.0000
# 5 0.0000 0.0000 0.0000 0.0000 18.9614 0.0000
# 6 0.0000 0.0000 0.0000 0.0000 0.0000 32.1197
#
#
#
# Elastic Compliance Matrix: (Units=1/GPa)
#
#
# Indices 1 2 3 4 5 6 
#
# 1 0.016768 -0.004967 -0.005091 0.000000 0.000000 0.000000
# 2 -0.004967 0.016768 -0.005091 0.000000 0.000000 0.000000
# 3 -0.005091 -0.005091 0.017658 0.000000 0.000000 0.000000
# 4 0.000000 0.000000 0.000000 0.052739 0.000000 0.000000
# 5 0.000000 0.000000 0.000000 0.000000 0.052739 0.000000
# 6 0.000000 0.000000 0.000000 0.000000 0.000000 0.031134
#
#
# Mechanical properties :
#
#
# Convention : Reuss Voigt Hill
#
# Bulk Modulus (GPa) = 47.86078 47.90062 47.88070
# Shear Modulus (GPa) = 22.21529 23.05858 22.63693
#
# Velocity S-wave (km/s) = 3.57896 3.64626 3.61277
# Velocity P-wave (km/s) = 6.68389 6.73392 6.70895
#
# Compressibility (1/GPa) = 0.02089393
#
# Stress axis : x y z
#
# Youngs Moduli (GPa) = 59.63724 59.63724 56.63140
#
# Poissons Ratio (x) = 0.29623 0.28834
# Poissons Ratio (y) = 0.29623 0.28834
# Poissons Ratio (z) = 0.30364 0.30364
#
# Static dielectric constant tensor:
#      x y z
#    x 3.329300 0.000000 0.000000 
#    y 0.000000 3.329300 0.000000 
#    z 0.000000 0.000000 2.966740 
# 
# 
# High freq. dielectric constant tensor:
#      x y z
#    x 1.673460 0.000000 0.000000 
#    y 0.000000 1.673460 0.000000 
#    z 0.000000 0.000000 1.645560 
# 
# From -- ./inp_files/3780.got.cif
#   From: 2010.03.12/outbox.cif.g09.slc.cpg/sg136_2_cif.got.tgz:3780.got - 2010.04.06 18:39:43.
