data_PCOD8317841
_publ_section_title
;
Structure prediction by ZEFSAII (Michael W. Deem and Ramdas Pophale) SiO2 
 PCOD8317841
Probable space group: P 42/M N M
;
_chemical_formula_sum "Si O2"
_cell_formula_units_Z 96
_cell_length_a 17.067297
_cell_length_b 17.067297
_cell_length_c 18.534366
_cell_angle_alpha 90.000000
_cell_angle_beta 90.000000
_cell_angle_gamma 90.000000
_cell_volume 5398.924160
_symmetry_space_group_name_H-M "P 42/M N M"
_symmetry_group_IT_number 136
_symmetry_cell_setting 'tetragonal'
loop_
_space_group_symop_operation_xyz
x,y,z
1/2-y,1/2+x,1/2+z
-x,-y,z
1/2+y,1/2-x,1/2+z
1/2+x,1/2-y,1/2-z
1/2-x,1/2+y,1/2-z
y,x,-z
-y,-x,-z
-x,-y,-z
1/2+y,1/2-x,1/2-z
x,y,-z
1/2-y,1/2+x,1/2-z
1/2-x,1/2+y,1/2+z
1/2+x,1/2-y,1/2+z
-y,-x,z
y,x,z
loop_
_atom_site_type_symbol
_atom_site_label
_atom_site_fract_x
_atom_site_fract_y
_atom_site_fract_z
Si Si1 0.544674 0.669886 0.082038
Si Si2 0.113965 0.554293 0.081246
Si Si3 0.605790 0.055066 0.220341
Si Si4 0.119205 0.665024 0.580646
Si Si5 0.676348 0.196901 0.278235
Si Si6 0.772239 0.896234 0.353277
O O1 0.591213 0.591213 0.100607
O O2 0.602878 0.742981 0.089863
O O3 0.473374 0.674291 0.138726
O O4 0.511811 0.668002 0.000000
O O5 0.050203 0.595057 0.133664
O O6 0.117685 0.461068 0.096099
O O7 0.197953 0.594337 0.094415
O O8 0.086597 0.571022 0.000000
O O9 0.530880 0.107210 0.247284
O O10 0.680782 0.107812 0.244364
O O11 0.150443 0.646464 0.500000
O O12 0.186439 0.644117 0.639561
O O13 0.761720 0.238281 0.276764
O O14 0.614793 0.247138 0.230619
O O15 0.820210 0.820210 0.379345
#
# Coordination Sequence:
#
# PCOD8317841 Si02
#       6
#    16  16  16  16  16  16
#     4   9  17  28  44  67  93 122 153 188 235 288
#     4   9  17  30  48  67  92 123 157 195 235 284
#     4  10  19  33  50  69  94 126 159 197 241 283
#     4   9  16  29  47  68  91 117 155 199 238 281
#     4  10  19  31  47  67  93 126 160 194 235 287
#     4   9  18  29  42  64  94 126 159 191 229 282
#
# _framework density 17.781320999999998
#
# number of rings (size 3 to 8) (size 9 to 14) (size 15 to 20)
#    0.000    2.667    1.667    2.000    0.000    2.667 
#    0.000    3.333    0.000    0.000    0.000    0.000 
#    0.000    0.667    0.000    3.667    0.000    0.000 
#
# Total GULP energy -1189529.322592 kJ/mol
# GULP energy per Si atom -12390.930444 kJ/mol
# Density = 1.774085 g / cm^3
# Si number density = 17.781321 Si / 1000 Ang^3
#
#
#
# Elastic Constant Matrix: (Units=GPa)
#
#
# Indices 1 2 3 4 5 6 
#
# 1 29.6979 2.8553 21.9234 0.0000 0.0000 0.0000
# 2 2.8553 29.6979 21.9234 0.0000 0.0000 0.0000
# 3 21.9234 21.9234 113.9742 0.0000 0.0000 0.0000
# 4 0.0000 0.0000 0.0000 24.6897 0.0000 0.0000
# 5 0.0000 0.0000 0.0000 0.0000 24.6897 0.0000
# 6 0.0000 0.0000 0.0000 0.0000 0.0000 19.5036
#
#
#
# Elastic Compliance Matrix: (Units=1/GPa)
#
#
# Indices 1 2 3 4 5 6 
#
# 1 0.039358 0.002103 -0.007975 0.000000 0.000000 0.000000
# 2 0.002103 0.039358 -0.007975 0.000000 0.000000 0.000000
# 3 -0.007975 -0.007975 0.011842 0.000000 0.000000 0.000000
# 4 0.000000 0.000000 0.000000 0.040503 0.000000 0.000000
# 5 0.000000 0.000000 0.000000 0.000000 0.040503 0.000000
# 6 0.000000 0.000000 0.000000 0.000000 0.000000 0.051272
#
#
# Mechanical properties :
#
#
# Convention : Reuss Voigt Hill
#
# Bulk Modulus (GPa) = 15.90756 29.64156 22.77456
# Shear Modulus (GPa) = 18.41732 22.22113 20.31922
#
# Velocity S-wave (km/s) = 3.22183 3.53893 3.38409
# Velocity P-wave (km/s) = 4.77555 5.77970 5.30145
#
# Compressibility (1/GPa) = 0.06286321
#
# Stress axis : x y z
#
# Youngs Moduli (GPa) = 25.40806 25.40806 84.44508
#
# Poissons Ratio (x) = -0.05344 0.67346
# Poissons Ratio (y) = -0.05344 0.67346
# Poissons Ratio (z) = 0.20263 0.20263
#
# Static dielectric constant tensor:
#      x y z
#    x 3.190920 0.000000 0.000000 
#    y 0.000000 3.190920 0.000000 
#    z 0.000000 0.000000 3.527940 
# 
# 
# High freq. dielectric constant tensor:
#      x y z
#    x 1.661760 0.000000 0.000000 
#    y 0.000000 1.661760 0.000000 
#    z 0.000000 0.000000 1.694500 
# 
# From -- ./inp_files/7651.got.cif
#   From: 2010.03.12/outbox.cif.g09.slc.cpg/sg136_4_cif.got.tgz:7651.got - 2010.04.06 18:39:43.
