data_PCOD8317890
_publ_section_title
;
Structure prediction by ZEFSAII (Michael W. Deem and Ramdas Pophale) SiO2 
 PCOD8317890
Probable space group: P 42/M N M
;
_chemical_formula_sum "Si O2"
_cell_formula_units_Z 88
_cell_length_a 13.649466
_cell_length_b 13.649466
_cell_length_c 25.043437
_cell_angle_alpha 90.000000
_cell_angle_beta 90.000000
_cell_angle_gamma 90.000000
_cell_volume 4665.790709
_symmetry_space_group_name_H-M "P 42/M N M"
_symmetry_group_IT_number 136
_symmetry_cell_setting 'tetragonal'
loop_
_space_group_symop_operation_xyz
x,y,z
1/2-y,1/2+x,1/2+z
-x,-y,z
1/2+y,1/2-x,1/2+z
1/2+x,1/2-y,1/2-z
1/2-x,1/2+y,1/2-z
y,x,-z
-y,-x,-z
-x,-y,-z
1/2+y,1/2-x,1/2-z
x,y,-z
1/2-y,1/2+x,1/2-z
1/2-x,1/2+y,1/2+z
1/2+x,1/2-y,1/2+z
-y,-x,z
y,x,z
loop_
_atom_site_type_symbol
_atom_site_label
_atom_site_fract_x
_atom_site_fract_y
_atom_site_fract_z
Si Si1 0.672311 0.825394 0.560072
Si Si2 0.297237 0.859638 0.356515
Si Si3 0.091139 0.369113 0.750838
Si Si4 0.921904 0.921904 0.063223
Si Si5 0.799522 0.449480 0.437581
Si Si6 0.727934 0.427332 0.155235
O O1 0.689440 0.863183 0.500000
O O2 0.713581 0.713581 0.565697
O O3 0.558920 0.833660 0.574636
O O4 0.732114 0.896014 0.598089
O O5 0.226449 0.773552 0.374492
O O6 0.352749 0.829809 0.302536
O O7 0.376667 0.870087 0.404180
O O8 0.230463 0.955300 0.346009
O O9 0.128996 0.476460 0.734790
O O10 0.114361 0.297533 0.701794
O O11 0.812343 0.944976 0.082689
O O12 0.928752 0.928752 0.000000
O O13 0.000000 0.000000 0.087992
O O14 0.808608 0.422203 0.500000
O O15 0.618565 0.381435 0.163595
#
# Coordination Sequence:
#
# PCOD8317890 Si02
#       6
#    16  16  16   8  16  16
#     4   9  18  33  54  80 107 135 171 215 265 321
#     4  11  22  35  53  77 105 141 180 220 263 311
#     4   9  18  34  57  83 105 128 165 215 271 328
#     4   9  16  28  48  74 107 145 173 195 243 317
#     4  10  19  32  51  78 110 141 172 213 262 317
#     4  10  21  37  55  75 102 139 180 223 266 311
#
# _framework density 18.860683000000002
#
# number of rings (size 3 to 8) (size 9 to 14) (size 15 to 20)
#    0.000    2.273    0.909    2.182    0.000    5.455 
#    0.000    1.818    0.000    1.091    0.000    3.818 
#    0.000    0.000    0.000    0.000    0.000    0.000 
#
# Total GULP energy -1090965.279997 kJ/mol
# GULP energy per Si atom -12397.332727 kJ/mol
# Density = 1.881776 g / cm^3
# Si number density = 18.860683 Si / 1000 Ang^3
#
#
#
# Elastic Constant Matrix: (Units=GPa)
#
#
# Indices 1 2 3 4 5 6 
#
# 1 62.4758 24.4026 28.3904 0.0000 0.0000 0.0000
# 2 24.4026 62.4758 28.3904 0.0000 0.0000 0.0000
# 3 28.3904 28.3904 81.5808 0.0000 0.0000 0.0000
# 4 0.0000 0.0000 0.0000 26.0197 0.0000 0.0000
# 5 0.0000 0.0000 0.0000 0.0000 26.0197 0.0000
# 6 0.0000 0.0000 0.0000 0.0000 0.0000 29.5570
#
#
#
# Elastic Compliance Matrix: (Units=1/GPa)
#
#
# Indices 1 2 3 4 5 6 
#
# 1 0.020582 -0.005683 -0.005185 0.000000 0.000000 0.000000
# 2 -0.005683 0.020582 -0.005185 0.000000 0.000000 0.000000
# 3 -0.005185 -0.005185 0.015867 0.000000 0.000000 0.000000
# 4 0.000000 0.000000 0.000000 0.038432 0.000000 0.000000
# 5 0.000000 0.000000 0.000000 0.000000 0.038432 0.000000
# 6 0.000000 0.000000 0.000000 0.000000 0.000000 0.033833
#
#
# Mechanical properties :
#
#
# Convention : Reuss Voigt Hill
#
# Bulk Modulus (GPa) = 40.12050 40.98882 40.55466
# Shear Modulus (GPa) = 24.02199 24.67588 24.34894
#
# Velocity S-wave (km/s) = 3.57270 3.62100 3.59693
# Velocity P-wave (km/s) = 6.19170 6.26592 6.22892
#
# Compressibility (1/GPa) = 0.02492491
#
# Stress axis : x y z
#
# Youngs Moduli (GPa) = 48.58593 48.58593 63.02585
#
# Poissons Ratio (x) = 0.27612 0.32678
# Poissons Ratio (y) = 0.27612 0.32678
# Poissons Ratio (z) = 0.25191 0.25191
#
# Static dielectric constant tensor:
#      x y z
#    x 3.408650 0.000000 0.000000 
#    y 0.000000 3.408650 0.000000 
#    z 0.000000 0.000000 3.394300 
# 
# 
# High freq. dielectric constant tensor:
#      x y z
#    x 1.724310 0.000000 0.000000 
#    y 0.000000 1.724310 0.000000 
#    z 0.000000 0.000000 1.729610 
# 
# From -- ./inp_files/7388.got.cif
#   From: 2010.03.12/outbox.cif.g09.slc.cpg/sg136_4_cif.got.tgz:7388.got - 2010.04.06 18:39:43.
