data_PCOD8317301
_publ_section_title
;
Structure prediction by ZEFSAII (Michael W. Deem and Ramdas Pophale) SiO2 
 PCOD8317301
Probable space group: P 42/N N M
;
_chemical_formula_sum "Si O2"
_cell_formula_units_Z 88
_cell_length_a 12.674280
_cell_length_b 12.674280
_cell_length_c 27.139971
_cell_angle_alpha 90.000000
_cell_angle_beta 90.000000
_cell_angle_gamma 90.000000
_cell_volume 4359.693659
_symmetry_space_group_name_H-M "P 42/N N M"
_symmetry_group_IT_number 134
_space_group.IT_coordinate_system_code '2'
_symmetry_cell_setting 'tetragonal'
loop_
_space_group_symop_operation_xyz
x,y,z
1/2-y,x,1/2+z
1/2-x,1/2-y,z
y,1/2-x,1/2+z
x,1/2-y,1/2-z
1/2-x,y,1/2-z
y,x,-z
1/2-y,1/2-x,-z
-x,-y,-z
1/2+y,-x,1/2-z
1/2+x,1/2+y,-z
-y,1/2+x,1/2-z
-x,1/2+y,1/2+z
1/2+x,-y,1/2+z
-y,-x,z
1/2+y,1/2+x,z
loop_
_atom_site_type_symbol
_atom_site_label
_atom_site_fract_x
_atom_site_fract_y
_atom_site_fract_z
Si Si1 0.167024 0.007920 0.151582
Si Si2 0.264330 0.124058 0.632201
Si Si3 0.088253 0.250903 0.019130
Si Si4 0.469797 0.150085 0.221109
Si Si5 0.920530 0.255423 0.942002
Si Si6 0.561333 0.750000 0.250000
O O1 0.086351 0.913650 0.153047
O O2 0.239391 0.004017 0.102433
O O3 0.101681 0.116957 0.150661
O O4 0.242332 0.994178 0.199557
O O5 0.250000 0.250000 0.636087
O O6 0.247918 0.080279 0.577621
O O7 0.181603 0.058580 0.665061
O O8 0.148379 0.148379 0.000000
O O9 0.143905 0.356096 0.000000
O O10 0.972709 0.247374 0.995671
O O11 0.521036 0.250000 0.250000
O O12 0.358513 0.127491 0.248438
O O13 0.550534 0.050534 0.222101
O O14 0.832515 0.167486 0.938521
O O15 0.870636 0.370636 0.935465
#
# Coordination Sequence:
#
# PCOD8317301 Si02
#       6
#    16  16  16  16  16   8
#     4  11  23  39  64  94 124 166 215 265 324 387
#     4  12  21  41  66  96 129 167 218 271 315 387
#     4  11  21  37  63  95 125 162 214 267 315 378
#     4  12  26  44  70  99 131 174 217 269 332 389
#     4  10  23  42  61  88 129 171 211 263 329 391
#     4  12  23  42  66  95 126 165 220 268 309 392
#
# _framework density 20.184905000000001
#
# number of rings (size 3 to 8) (size 9 to 14) (size 15 to 20)
#    0.000    0.727    7.273    0.818    0.000    3.818 
#    0.000    0.000    0.000    2.455    0.000    0.000 
#    0.000    0.000    0.000    0.000    0.000    0.000 
#
# Total GULP energy -1091080.748218 kJ/mol
# GULP energy per Si atom -12398.644866 kJ/mol
# Density = 2.013896 g / cm^3
# Si number density = 20.184905 Si / 1000 Ang^3
#
#
#
# Elastic Constant Matrix: (Units=GPa)
#
#
# Indices 1 2 3 4 5 6 
#
# 1 65.6441 53.5862 47.2717 0.0000 0.0000 0.0000
# 2 53.5862 65.6076 47.2745 0.0000 0.0000 0.0000
# 3 47.2717 47.2745 174.3184 0.0000 0.0000 0.0000
# 4 0.0000 0.0000 0.0000 27.1658 0.0000 0.0000
# 5 0.0000 0.0000 0.0000 0.0000 27.1657 0.0000
# 6 0.0000 0.0000 0.0000 0.0000 0.0000 15.4073
#
#
#
# Elastic Compliance Matrix: (Units=1/GPa)
#
#
# Indices 1 2 3 4 5 6 
#
# 1 0.046856 -0.036186 -0.002893 0.000000 0.000000 0.000000
# 2 -0.036186 0.046890 -0.002903 0.000000 0.000000 0.000000
# 3 -0.002893 -0.002903 0.007309 0.000000 0.000000 0.000000
# 4 0.000000 0.000000 0.000000 0.036811 0.000000 0.000000
# 5 0.000000 0.000000 0.000000 0.000000 0.036811 0.000000
# 6 0.000000 0.000000 0.000000 0.000000 0.000000 0.064904
#
#
# Mechanical properties :
#
#
# Convention : Reuss Voigt Hill
#
# Bulk Modulus (GPa) = 58.51475 66.87056 62.69265
# Shear Modulus (GPa) = 15.18639 24.44361 19.81500
#
# Velocity S-wave (km/s) = 2.74590 3.48370 3.13657
# Velocity P-wave (km/s) = 6.25345 7.02726 6.65162
#
# Compressibility (1/GPa) = 0.01708971
#
# Stress axis : x y z
#
# Youngs Moduli (GPa) = 21.34197 21.32658 136.82645
#
# Poissons Ratio (x) = 0.77172 0.39583
# Poissons Ratio (y) = 0.77228 0.39727
# Poissons Ratio (z) = 0.06174 0.06192
#
# Static dielectric constant tensor:
#      x y z
#    x 3.619760 0.000000 0.000000 
#    y 0.000000 3.619760 0.000000 
#    z 0.000000 0.000000 4.002850 
# 
# 
# High freq. dielectric constant tensor:
#      x y z
#    x 1.772860 0.000000 0.000000 
#    y 0.000000 1.772860 0.000000 
#    z 0.000000 0.000000 1.812920 
# 
# From -- ./inp_files/11481.got.cif
#   From: 2010.03.12/outbox.cif.g09.slc.cpg/sg134_6_cif.got.tgz:11481.got - 2010.04.06 18:17:22.
