data_PCOD8317902
_publ_section_title
;
Structure prediction by ZEFSAII (Michael W. Deem and Ramdas Pophale) SiO2 
 PCOD8317902
Probable space group: P 42/M N M
;
_chemical_formula_sum "Si O2"
_cell_formula_units_Z 112
_cell_length_a 16.084898
_cell_length_b 16.084898
_cell_length_c 22.768324
_cell_angle_alpha 90.000000
_cell_angle_beta 90.000000
_cell_angle_gamma 90.000000
_cell_volume 5890.710576
_symmetry_space_group_name_H-M "P 42/M N M"
_symmetry_group_IT_number 136
_symmetry_cell_setting 'tetragonal'
loop_
_space_group_symop_operation_xyz
x,y,z
1/2-y,1/2+x,1/2+z
-x,-y,z
1/2+y,1/2-x,1/2+z
1/2+x,1/2-y,1/2-z
1/2-x,1/2+y,1/2-z
y,x,-z
-y,-x,-z
-x,-y,-z
1/2+y,1/2-x,1/2-z
x,y,-z
1/2-y,1/2+x,1/2-z
1/2-x,1/2+y,1/2+z
1/2+x,1/2-y,1/2+z
-y,-x,z
y,x,z
loop_
_atom_site_type_symbol
_atom_site_label
_atom_site_fract_x
_atom_site_fract_y
_atom_site_fract_z
Si Si1 0.634832 0.501522 0.287919
Si Si2 0.321894 0.193336 0.930993
Si Si3 0.938271 0.623370 0.250002
Si Si4 0.992071 0.726530 0.566115
Si Si5 0.281781 0.582288 0.819991
Si Si6 0.419916 0.950985 0.065894
Si Si7 0.713601 0.961838 0.863053
O O1 0.568566 0.431435 0.303978
O O2 0.591496 0.591496 0.284005
O O3 0.676958 0.482777 0.225168
O O4 0.701056 0.503170 0.341010
O O5 0.274190 0.274190 0.906358
O O6 0.417510 0.198142 0.910886
O O7 0.273694 0.111187 0.909820
O O8 0.318063 0.190471 0.000000
O O9 0.889108 0.537607 0.252824
O O10 0.910496 0.683363 0.303936
O O11 0.913784 0.668999 0.190313
O O12 0.995764 0.766410 0.500000
O O13 0.953518 0.790531 0.613588
O O14 0.933594 0.646616 0.563928
O O15 0.328643 0.671357 0.816501
O O16 0.500000 0.000000 0.091812
O O17 0.342393 0.966180 0.108408
O O18 0.402082 0.985472 0.000000
#
# Coordination Sequence:
#
# PCOD8317902 Si02
#       7
#    16  16  16  16  16  16  16
#     4   9  20  39  59  79 107 148 194 238 282 329
#     4  10  20  33  52  80 110 136 172 228 279 316
#     4  10  21  34  53  80 109 140 177 222 277 327
#     4  10  20  35  55  81 110 143 182 222 275 337
#     4  10  21  38  56  78 109 144 183 228 278 332
#     4  10  19  32  54  83 114 148 178 212 266 336
#     4  11  19  31  56  82 110 141 185 222 271 333
#
# _framework density 19.012985
#
# number of rings (size 3 to 8) (size 9 to 14) (size 15 to 20)
#    0.000    2.000    1.429    2.571    2.000    1.429 
#    0.000    6.429    0.000    2.571    0.000    9.000 
#    0.000    0.000    0.000    0.000    0.000    0.000 
#
# Total GULP energy -1388593.373890 kJ/mol
# GULP energy per Si atom -12398.155124 kJ/mol
# Density = 1.896971 g / cm^3
# Si number density = 19.012985 Si / 1000 Ang^3
#
#
#
# Elastic Constant Matrix: (Units=GPa)
#
#
# Indices 1 2 3 4 5 6 
#
# 1 96.7698 46.7092 41.5750 0.0000 0.0000 0.0000
# 2 46.7092 96.7698 41.5750 0.0000 0.0000 0.0000
# 3 41.5750 41.5750 59.3585 0.0000 0.0000 0.0000
# 4 0.0000 0.0000 0.0000 25.7124 0.0000 0.0000
# 5 0.0000 0.0000 0.0000 0.0000 25.7124 0.0000
# 6 0.0000 0.0000 0.0000 0.0000 0.0000 28.2543
#
#
#
# Elastic Compliance Matrix: (Units=1/GPa)
#
#
# Indices 1 2 3 4 5 6 
#
# 1 0.015854 -0.004122 -0.008217 0.000000 0.000000 0.000000
# 2 -0.004122 0.015854 -0.008217 0.000000 0.000000 0.000000
# 3 -0.008217 -0.008217 0.028357 0.000000 0.000000 0.000000
# 4 0.000000 0.000000 0.000000 0.038892 0.000000 0.000000
# 5 0.000000 0.000000 0.000000 0.000000 0.038892 0.000000
# 6 0.000000 0.000000 0.000000 0.000000 0.000000 0.035393
#
#
# Mechanical properties :
#
#
# Convention : Reuss Voigt Hill
#
# Bulk Modulus (GPa) = 52.76275 56.95738 54.86007
# Shear Modulus (GPa) = 22.65829 24.13842 23.39835
#
# Velocity S-wave (km/s) = 3.45588 3.56698 3.51187
# Velocity P-wave (km/s) = 6.61327 6.85467 6.73505
#
# Compressibility (1/GPa) = 0.01895276
#
# Stress axis : x y z
#
# Youngs Moduli (GPa) = 63.07686 63.07686 35.26461
#
# Poissons Ratio (x) = 0.26001 0.28976
# Poissons Ratio (y) = 0.26001 0.28976
# Poissons Ratio (z) = 0.51829 0.51829
#
# Static dielectric constant tensor:
#      x y z
#    x 3.462610 0.000000 0.000000 
#    y 0.000000 3.462610 0.000000 
#    z 0.000000 0.000000 3.701090 
# 
# 
# High freq. dielectric constant tensor:
#      x y z
#    x 1.723160 0.000000 0.000000 
#    y 0.000000 1.723160 0.000000 
#    z 0.000000 0.000000 1.748820 
# 
# From -- ./inp_files/8515.got.cif
#   From: 2010.03.12/outbox.cif.g09.slc.cpg/sg136_5_cif.got.tgz:8515.got - 2010.04.06 18:39:43.
