data_PCOD8317714
_publ_section_title
;
Structure prediction by ZEFSAII (Michael W. Deem and Ramdas Pophale) SiO2 
 PCOD8317714
Probable space group: P 42/M N M
;
_chemical_formula_sum "Si O2"
_cell_formula_units_Z 104
_cell_length_a 26.948007
_cell_length_b 26.948007
_cell_length_c 7.942796
_cell_angle_alpha 90.000000
_cell_angle_beta 90.000000
_cell_angle_gamma 90.000000
_cell_volume 5768.019387
_symmetry_space_group_name_H-M "P 42/M N M"
_symmetry_group_IT_number 136
_symmetry_cell_setting 'tetragonal'
loop_
_space_group_symop_operation_xyz
x,y,z
1/2-y,1/2+x,1/2+z
-x,-y,z
1/2+y,1/2-x,1/2+z
1/2+x,1/2-y,1/2-z
1/2-x,1/2+y,1/2-z
y,x,-z
-y,-x,-z
-x,-y,-z
1/2+y,1/2-x,1/2-z
x,y,-z
1/2-y,1/2+x,1/2-z
1/2-x,1/2+y,1/2+z
1/2+x,1/2-y,1/2+z
-y,-x,z
y,x,z
loop_
_atom_site_type_symbol
_atom_site_label
_atom_site_fract_x
_atom_site_fract_y
_atom_site_fract_z
Si Si1 0.581667 0.499086 0.000000
Si Si2 0.209551 0.638780 0.805533
Si Si3 0.364446 0.635555 0.689312
Si Si4 0.963183 0.743628 0.194690
Si Si5 0.851809 0.979755 0.807634
Si Si6 0.359248 0.995769 0.801255
Si Si7 0.106852 0.599921 0.802986
Si Si8 0.289584 0.710417 0.809377
O O1 0.613848 0.506407 0.830160
O O2 0.542444 0.542444 0.000000
O O3 0.554274 0.445727 0.000000
O O4 0.242832 0.589200 0.791127
O O5 0.155199 0.628157 0.722437
O O6 0.239755 0.686059 0.723342
O O7 0.202419 0.651117 0.000000
O O8 0.349340 0.650661 0.500000
O O9 0.354549 0.578376 0.721605
O O10 0.331834 0.668167 0.814583
O O11 0.993845 0.794278 0.227294
O O12 0.997983 0.698147 0.253299
O O13 0.949081 0.738446 0.000000
O O14 0.867928 0.994170 0.000000
O O15 0.391365 0.041163 0.729414
O O16 0.378596 0.943861 0.722867
O O17 0.365941 0.995449 0.000000
O O18 0.107317 0.610119 0.000000
O O19 0.276151 0.723850 0.000000
#
# Coordination Sequence:
#
# PCOD8317714 Si02
#       8
#     8  16   8  16  16  16  16   8
#     4  11  24  36  50  72 100 136 174 207 252 306
#     4   9  17  27  41  65  95 121 147 185 233 289
#     4  10  18  26  40  67  98 127 153 187 244 303
#     4   9  17  29  46  69  92 118 155 196 240 290
#     4  10  20  33  50  72 100 131 166 208 252 303
#     4   9  18  32  49  68  94 127 160 198 245 293
#     4   9  18  32  47  66  94 125 160 201 240 287
#     4  10  18  24  40  66  95 125 147 181 237 300
#
# _framework density 18.030453000000001
#
# number of rings (size 3 to 8) (size 9 to 14) (size 15 to 20)
#    0.000    2.538    2.308    0.000    2.154    1.231 
#    0.000    2.308    0.000    0.000    2.000    0.000 
#    0.000    0.000    0.000    0.000    0.000    0.000 
#
# Total GULP energy -1288531.148497 kJ/mol
# GULP energy per Si atom -12389.722582 kJ/mol
# Density = 1.798941 g / cm^3
# Si number density = 18.030453 Si / 1000 Ang^3
#
#
#
# Elastic Constant Matrix: (Units=GPa)
#
#
# Indices 1 2 3 4 5 6 
#
# 1 109.8349 62.2647 24.9705 0.0000 0.0000 0.0000
# 2 62.2647 109.8304 24.9704 0.0000 0.0000 0.0000
# 3 24.9705 24.9704 44.5467 0.0000 0.0000 0.0000
# 4 0.0000 0.0000 0.0000 17.2248 0.0000 0.0000
# 5 0.0000 0.0000 0.0000 0.0000 17.2248 0.0000
# 6 0.0000 0.0000 0.0000 0.0000 0.0000 28.4758
#
#
#
# Elastic Compliance Matrix: (Units=1/GPa)
#
#
# Indices 1 2 3 4 5 6 
#
# 1 0.013981 -0.007042 -0.003890 0.000000 0.000000 0.000000
# 2 -0.007042 0.013981 -0.003890 0.000000 0.000000 0.000000
# 3 -0.003890 -0.003890 0.026809 0.000000 0.000000 0.000000
# 4 0.000000 0.000000 0.000000 0.058056 0.000000 0.000000
# 5 0.000000 0.000000 0.000000 0.000000 0.058056 0.000000
# 6 0.000000 0.000000 0.000000 0.000000 0.000000 0.035118
#
#
# Mechanical properties :
#
#
# Convention : Reuss Voigt Hill
#
# Bulk Modulus (GPa) = 39.79523 54.29148 47.04335
# Shear Modulus (GPa) = 20.49020 22.71885 21.60453
#
# Velocity S-wave (km/s) = 3.37474 3.55354 3.46529
# Velocity P-wave (km/s) = 6.10772 6.85662 6.49297
#
# Compressibility (1/GPa) = 0.02512864
#
# Stress axis : x y z
#
# Youngs Moduli (GPa) = 71.52723 71.52394 37.30056
#
# Poissons Ratio (x) = 0.50364 0.14509
# Poissons Ratio (y) = 0.50366 0.14510
# Poissons Ratio (z) = 0.27822 0.27823
#
# Static dielectric constant tensor:
#      x y z
#    x 3.682890 0.000000 0.000000 
#    y 0.000000 3.682900 0.000000 
#    z 0.000000 0.000000 3.233290 
# 
# 
# High freq. dielectric constant tensor:
#      x y z
#    x 1.679440 0.000000 0.000000 
#    y 0.000000 1.679440 0.000000 
#    z 0.000000 0.000000 1.686720 
# 
# From -- ./inp_files/2258.got.cif
#   From: 2010.03.12/outbox.cif.g09.slc.cpg/sg136_2_cif.got.tgz:2258.got - 2010.04.06 18:39:43.
