data_PCOD8317219
_publ_section_title
;
Structure prediction by ZEFSAII (Michael W. Deem and Ramdas Pophale) SiO2 
 PCOD8317219
Probable space group: P 42/N N M
;
_chemical_formula_sum "Si O2"
_cell_formula_units_Z 88
_cell_length_a 13.986339
_cell_length_b 13.986339
_cell_length_c 23.952151
_cell_angle_alpha 90.000000
_cell_angle_beta 90.000000
_cell_angle_gamma 90.000000
_cell_volume 4685.464177
_symmetry_space_group_name_H-M "P 42/N N M"
_symmetry_group_IT_number 134
_space_group.IT_coordinate_system_code '2'
_symmetry_cell_setting 'tetragonal'
loop_
_space_group_symop_operation_xyz
x,y,z
1/2-y,x,1/2+z
1/2-x,1/2-y,z
y,1/2-x,1/2+z
x,1/2-y,1/2-z
1/2-x,y,1/2-z
y,x,-z
1/2-y,1/2-x,-z
-x,-y,-z
1/2+y,-x,1/2-z
1/2+x,1/2+y,-z
-y,1/2+x,1/2-z
-x,1/2+y,1/2+z
1/2+x,-y,1/2+z
-y,-x,z
1/2+y,1/2+x,z
loop_
_atom_site_type_symbol
_atom_site_label
_atom_site_fract_x
_atom_site_fract_y
_atom_site_fract_z
Si Si1 0.498673 0.146721 0.747124
Si Si2 0.005318 0.279063 0.362624
Si Si3 0.327230 0.827230 0.566111
Si Si4 0.162801 0.180684 0.666295
Si Si5 0.750000 0.403938 0.250000
Si Si6 0.058127 0.351950 0.623148
Si Si7 0.570345 0.429656 0.967518
O O1 0.549806 0.250000 0.750000
O O2 0.397185 0.151368 0.778909
O O3 0.486150 0.121807 0.682639
O O4 0.567159 0.067159 0.775018
O O5 0.082164 0.191996 0.364810
O O6 0.062169 0.368334 0.387265
O O7 0.909907 0.271105 0.399522
O O8 0.971820 0.289765 0.298656
O O9 0.250000 0.750000 0.548854
O O10 0.368247 0.868247 0.509522
O O11 0.250000 0.250000 0.685479
O O12 0.100920 0.244566 0.623286
O O13 0.837176 0.337176 0.228213
O O14 0.985528 0.355188 0.571922
O O15 0.500000 0.500000 0.000000
#
# Coordination Sequence:
#
# PCOD8317219 Si02
#       7
#    16  16   8  16   8  16   8
#     4  10  20  34  56  89 126 162 204 252 315 377
#     4  11  20  36  59  87 127 166 200 255 307 381
#     4  12  26  42  62  92 126 164 216 264 323 370
#     4   9  21  37  60  95 133 167 201 252 321 388
#     4  11  22  32  49  86 134 176 207 236 313 394
#     4  10  20  37  62  90 114 158 217 262 303 364
#     4  12  22  42  68  86 112 168 224 272 307 362
#
# _framework density 18.781490000000002
#
# number of rings (size 3 to 8) (size 9 to 14) (size 15 to 20)
#    0.000    1.545    3.636    1.636    0.000   12.182 
#    0.000    4.545    0.000    1.091    0.000    0.000 
#    0.000    0.000    0.000    0.000    0.000    0.000 
#
# Total GULP energy -1090532.508810 kJ/mol
# GULP energy per Si atom -12392.414873 kJ/mol
# Density = 1.873874 g / cm^3
# Si number density = 18.781490 Si / 1000 Ang^3
#
#
#
# Elastic Constant Matrix: (Units=GPa)
#
#
# Indices 1 2 3 4 5 6 
#
# 1 113.1628 67.6256 51.8571 0.0000 0.0000 0.0000
# 2 67.6256 113.1628 51.8571 0.0000 0.0000 0.0000
# 3 51.8571 51.8571 115.9479 0.0000 0.0000 0.0000
# 4 0.0000 0.0000 0.0000 27.1229 0.0000 0.0000
# 5 0.0000 0.0000 0.0000 0.0000 27.1229 0.0000
# 6 0.0000 0.0000 0.0000 0.0000 0.0000 33.4362
#
#
#
# Elastic Compliance Matrix: (Units=1/GPa)
#
#
# Indices 1 2 3 4 5 6 
#
# 1 0.014700 -0.007260 -0.003328 0.000000 0.000000 0.000000
# 2 -0.007260 0.014700 -0.003328 0.000000 0.000000 0.000000
# 3 -0.003328 -0.003328 0.011601 0.000000 0.000000 0.000000
# 4 0.000000 0.000000 0.000000 0.036869 0.000000 0.000000
# 5 0.000000 0.000000 0.000000 0.000000 0.036869 0.000000
# 6 0.000000 0.000000 0.000000 0.000000 0.000000 0.029908
#
#
# Mechanical properties :
#
#
# Convention : Reuss Voigt Hill
#
# Bulk Modulus (GPa) = 75.92341 76.10591 76.01466
# Shear Modulus (GPa) = 28.26961 28.93198 28.60079
#
# Velocity S-wave (km/s) = 3.88388 3.92912 3.90656
# Velocity P-wave (km/s) = 7.78621 7.82264 7.80445
#
# Compressibility (1/GPa) = 0.01317117
#
# Stress axis : x y z
#
# Youngs Moduli (GPa) = 68.02623 68.02623 86.19861
#
# Poissons Ratio (x) = 0.49386 0.28684
# Poissons Ratio (y) = 0.49386 0.28684
# Poissons Ratio (z) = 0.22637 0.22637
#
# Static dielectric constant tensor:
#      x y z
#    x 3.590280 0.000000 0.000000 
#    y 0.000000 3.590280 0.000000 
#    z 0.000000 0.000000 3.186340 
# 
# 
# High freq. dielectric constant tensor:
#      x y z
#    x 1.732500 0.000000 0.000000 
#    y 0.000000 1.732500 0.000000 
#    z 0.000000 0.000000 1.701610 
# 
# From -- ./inp_files/9070.got.cif
#   From: 2010.03.12/outbox.cif.g09.slc.cpg/sg134_5_cif.got.tgz:9070.got - 2010.04.06 18:17:22.
