data_PCOD8317226
_publ_section_title
;
Structure prediction by ZEFSAII (Michael W. Deem and Ramdas Pophale) SiO2 
 PCOD8317226
Probable space group: P 42/N N M
;
_chemical_formula_sum "Si O2"
_cell_formula_units_Z 88
_cell_length_a 12.928053
_cell_length_b 12.928053
_cell_length_c 26.357124
_cell_angle_alpha 90.000000
_cell_angle_beta 90.000000
_cell_angle_gamma 90.000000
_cell_volume 4405.186174
_symmetry_space_group_name_H-M "P 42/N N M"
_symmetry_group_IT_number 134
_space_group.IT_coordinate_system_code '2'
_symmetry_cell_setting 'tetragonal'
loop_
_space_group_symop_operation_xyz
x,y,z
1/2-y,x,1/2+z
1/2-x,1/2-y,z
y,1/2-x,1/2+z
x,1/2-y,1/2-z
1/2-x,y,1/2-z
y,x,-z
1/2-y,1/2-x,-z
-x,-y,-z
1/2+y,-x,1/2-z
1/2+x,1/2+y,-z
-y,1/2+x,1/2-z
-x,1/2+y,1/2+z
1/2+x,-y,1/2+z
-y,-x,z
1/2+y,1/2+x,z
loop_
_atom_site_type_symbol
_atom_site_label
_atom_site_fract_x
_atom_site_fract_y
_atom_site_fract_z
Si Si1 0.179214 0.993244 0.147573
Si Si2 0.279443 0.131104 0.639306
Si Si3 0.097714 0.254700 0.023186
Si Si4 0.583941 0.250091 0.190050
Si Si5 0.917698 0.254989 0.953272
Si Si6 0.420479 0.750000 0.250000
O O1 0.102346 0.897655 0.148269
O O2 0.252017 0.987076 0.097844
O O3 0.245449 0.991436 0.199623
O O4 0.116064 0.098332 0.143850
O O5 0.250000 0.250000 0.656607
O O6 0.239958 0.110636 0.582955
O O7 0.235061 0.035105 0.671680
O O8 0.160227 0.160227 0.000000
O O9 0.137684 0.362317 0.000000
O O10 0.980459 0.239324 0.005314
O O11 0.579096 0.250000 0.250000
O O12 0.643658 0.356343 0.172100
O O13 0.651493 0.151493 0.171065
O O14 0.833876 0.166125 0.950943
O O15 0.867087 0.367087 0.954938
O O16 0.351655 0.648346 0.255614
#
# Coordination Sequence:
#
# PCOD8317226 Si02
#       6
#    16  16  16  16  16   8
#     4  10  20  35  56  83 115 156 195 238 296 357
#     4  12  23  38  62  90 121 155 201 253 305 367
#     4  11  21  41  59  78 114 159 199 239 297 362
#     4   9  21  44  69  92 124 166 209 256 309 363
#     4  10  21  36  57  87 117 148 196 252 300 353
#     4   9  18  34  55  78 112 154 191 228 278 355
#
# _framework density 19.976455000000001
#
# number of rings (size 3 to 8) (size 9 to 14) (size 15 to 20)
#    0.000    1.727    3.636    1.636    0.000    6.909 
#    0.000    7.273    0.000    0.000    0.000    0.000 
#    0.000    0.000    0.000    0.000    0.000    0.000 
#
# Total GULP energy -1090637.541223 kJ/mol
# GULP energy per Si atom -12393.608423 kJ/mol
# Density = 1.993099 g / cm^3
# Si number density = 19.976455 Si / 1000 Ang^3
#
#
#
# Elastic Constant Matrix: (Units=GPa)
#
#
# Indices 1 2 3 4 5 6 
#
# 1 97.8924 29.1902 39.8435 0.0000 0.0000 0.0000
# 2 29.1902 97.8879 39.8419 0.0000 0.0000 0.0000
# 3 39.8435 39.8419 80.0743 0.0000 0.0000 0.0000
# 4 0.0000 0.0000 0.0000 25.6720 0.0000 0.0000
# 5 0.0000 0.0000 0.0000 0.0000 25.6738 0.0000
# 6 0.0000 0.0000 0.0000 0.0000 0.0000 14.2550
#
#
#
# Elastic Compliance Matrix: (Units=1/GPa)
#
#
# Indices 1 2 3 4 5 6 
#
# 1 0.012997 -0.001559 -0.005691 0.000000 0.000000 0.000000
# 2 -0.001559 0.012997 -0.005691 0.000000 0.000000 0.000000
# 3 -0.005691 -0.005691 0.018152 0.000000 0.000000 0.000000
# 4 0.000000 0.000000 0.000000 0.038953 0.000000 0.000000
# 5 0.000000 0.000000 0.000000 0.000000 0.038950 0.000000
# 6 0.000000 0.000000 0.000000 0.000000 0.000000 0.070151
#
#
# Mechanical properties :
#
#
# Convention : Reuss Voigt Hill
#
# Bulk Modulus (GPa) = 54.75587 54.84505 54.80046
# Shear Modulus (GPa) = 22.30456 24.25210 23.27833
#
# Velocity S-wave (km/s) = 3.34510 3.48808 3.41734
# Velocity P-wave (km/s) = 6.51070 6.61337 6.56224
#
# Compressibility (1/GPa) = 0.01826288
#
# Stress axis : x y z
#
# Youngs Moduli (GPa) = 76.94339 76.94055 55.09111
#
# Poissons Ratio (x) = 0.11997 0.31352
# Poissons Ratio (y) = 0.11997 0.31352
# Poissons Ratio (z) = 0.43789 0.43787
#
# Static dielectric constant tensor:
#      x y z
#    x 3.632580 0.000000 0.000000 
#    y 0.000000 3.632590 0.000000 
#    z 0.000000 0.000000 3.540640 
# 
# 
# High freq. dielectric constant tensor:
#      x y z
#    x 1.774290 0.000000 0.000000 
#    y 0.000000 1.774290 0.000000 
#    z 0.000000 0.000000 1.780810 
# 
# From -- ./inp_files/11482.got.cif
#   From: 2010.03.12/outbox.cif.g09.slc.cpg/sg134_6_cif.got.tgz:11482.got - 2010.04.06 18:17:22.
