data_PCOD8317985
_publ_section_title
;
Structure prediction by ZEFSAII (Michael W. Deem and Ramdas Pophale) SiO2 
 PCOD8317985
Probable space group: P 42/M N M
;
_chemical_formula_sum "Si O2"
_cell_formula_units_Z 112
_cell_length_a 32.408082
_cell_length_b 32.408082
_cell_length_c 9.173467
_cell_angle_alpha 90.000000
_cell_angle_beta 90.000000
_cell_angle_gamma 90.000000
_cell_volume 9634.743587
_symmetry_space_group_name_H-M "P 42/M N M"
_symmetry_group_IT_number 136
_symmetry_cell_setting 'tetragonal'
loop_
_space_group_symop_operation_xyz
x,y,z
1/2-y,1/2+x,1/2+z
-x,-y,z
1/2+y,1/2-x,1/2+z
1/2+x,1/2-y,1/2-z
1/2-x,1/2+y,1/2-z
y,x,-z
-y,-x,-z
-x,-y,-z
1/2+y,1/2-x,1/2-z
x,y,-z
1/2-y,1/2+x,1/2-z
1/2-x,1/2+y,1/2+z
1/2+x,1/2-y,1/2+z
-y,-x,z
y,x,z
loop_
_atom_site_type_symbol
_atom_site_label
_atom_site_fract_x
_atom_site_fract_y
_atom_site_fract_z
Si Si1 0.109037 0.332356 0.168253
Si Si2 0.785710 0.214291 0.337996
Si Si3 0.887071 0.541018 0.830258
Si Si4 0.783912 0.783912 0.166187
Si Si5 0.541345 0.106031 0.665168
Si Si6 0.336301 0.898843 0.171360
Si Si7 0.160103 0.731065 0.838799
Si Si8 0.772439 0.340812 0.165879
O O1 0.061954 0.348351 0.182021
O O2 0.136432 0.368184 0.234779
O O3 0.117708 0.289822 0.255800
O O4 0.121608 0.325738 0.000000
O O5 0.797681 0.202320 0.500000
O O6 0.750961 0.249040 0.327986
O O7 0.768685 0.172226 0.266142
O O8 0.926019 0.570192 0.798105
O O9 0.898648 0.495328 0.779462
O O10 0.846906 0.556098 0.736799
O O11 0.875412 0.540927 0.000000
O O12 0.767883 0.824773 0.248590
O O13 0.795077 0.795077 0.000000
O O14 0.524974 0.100601 0.500000
O O15 0.288269 0.885281 0.195338
O O16 0.347532 0.896301 0.000000
O O17 0.192446 0.693769 0.827279
O O18 0.161133 0.749973 0.000000
O O19 0.760213 0.351282 0.000000
#
# Coordination Sequence:
#
# PCOD8317985 Si02
#       8
#    16   8  16   8  16  16  16  16
#     4   9  16  26  38  51  65  80  99 120 143 174
#     4   9  15  19  27  43  61  81 101 121 139 153
#     4  10  20  31  43  56  66  78  96 120 151 189
#     4   9  15  21  29  43  63  85 105 125 145 163
#     4   9  19  32  42  53  67  80  95 119 152 191
#     4   9  16  26  39  51  63  80  98 118 145 175
#     4   8  14  22  31  43  60  81 100 116 136 163
#     4   9  15  22  32  46  63  83 104 123 143 167
#
# _framework density 11.624596
#
# number of rings (size 3 to 8) (size 9 to 14) (size 15 to 20)
#    0.000    3.000    0.000    3.857    0.000    9.429 
#    0.000    1.429    0.000    0.000    0.000    0.000 
#    0.000    0.000    0.000    0.000    0.000    0.000 
#
# Total GULP energy -1387748.978021 kJ/mol
# GULP energy per Si atom -12390.615875 kJ/mol
# Density = 1.159814 g / cm^3
# Si number density = 11.624596 Si / 1000 Ang^3
#
#
#
# Elastic Constant Matrix: (Units=GPa)
#
#
# Indices 1 2 3 4 5 6 
#
# 1 34.3365 34.1326 34.1030 0.0000 0.0000 0.0000
# 2 34.1326 34.3365 34.1030 0.0000 0.0000 0.0000
# 3 34.1030 34.1030 95.5426 0.0000 0.0000 0.0000
# 4 0.0000 0.0000 0.0000 17.4286 0.0000 0.0000
# 5 0.0000 0.0000 0.0000 0.0000 17.4286 0.0000
# 6 0.0000 0.0000 0.0000 0.0000 0.0000 13.2477
#
#
#
# Elastic Compliance Matrix: (Units=1/GPa)
#
#
# Indices 1 2 3 4 5 6 
#
# 1 2.463373 -2.440706 -0.008092 0.000000 0.000000 0.000000
# 2 -2.440706 2.463367 -0.008087 0.000000 0.000000 0.000000
# 3 -0.008092 -0.008087 0.016241 0.000000 0.000000 0.000000
# 4 0.000000 0.000000 0.000000 0.057377 0.000000 0.000000
# 5 0.000000 0.000000 0.000000 0.000000 0.057377 0.000000
# 6 0.000000 0.000000 0.000000 0.000000 0.000000 0.075485
#
#
# Mechanical properties :
#
#
# Convention : Reuss Voigt Hill
#
# Bulk Modulus (GPa) = 34.23427 40.98808 37.61118
# Shear Modulus (GPa) = 0.49718 13.74610 7.12164
#
# Velocity S-wave (km/s) = 0.65469 3.44248 2.47783
# Velocity P-wave (km/s) = 5.48501 7.15103 6.37270
#
# Compressibility (1/GPa) = 0.02921050
#
# Stress axis : x y z
#
# Youngs Moduli (GPa) = 0.40595 0.40595 61.57069
#
# Poissons Ratio (x) = 0.99080 0.49821
# Poissons Ratio (y) = 0.99080 0.49794
# Poissons Ratio (z) = 0.00328 0.00328
#
# Static dielectric constant tensor:
#      x y z
#    x 2.359900 0.000000 0.000000 
#    y 0.000000 2.359900 0.000000 
#    z 0.000000 0.000000 2.612480 
# 
# 
# High freq. dielectric constant tensor:
#      x y z
#    x 1.399720 0.000000 0.000000 
#    y 0.000000 1.399720 0.000000 
#    z 0.000000 0.000000 1.461130 
# 
# From -- ./inp_files/2395.got.cif
#   From: 2010.03.12/outbox.cif.g09.slc.cpg/sg136_2_cif.got.tgz:2395.got - 2010.04.06 18:39:43.
