data_PCOD8317961
_publ_section_title
;
Structure prediction by ZEFSAII (Michael W. Deem and Ramdas Pophale) SiO2 
 PCOD8317961
Probable space group: P 42/M N M
;
_chemical_formula_sum "Si O2"
_cell_formula_units_Z 64
_cell_length_a 11.783981
_cell_length_b 11.783981
_cell_length_c 23.381271
_cell_angle_alpha 90.000000
_cell_angle_beta 90.000000
_cell_angle_gamma 90.000000
_cell_volume 3246.774922
_symmetry_space_group_name_H-M "P 42/M N M"
_symmetry_group_IT_number 136
_symmetry_cell_setting 'tetragonal'
loop_
_space_group_symop_operation_xyz
x,y,z
1/2-y,1/2+x,1/2+z
-x,-y,z
1/2+y,1/2-x,1/2+z
1/2+x,1/2-y,1/2-z
1/2-x,1/2+y,1/2-z
y,x,-z
-y,-x,-z
-x,-y,-z
1/2+y,1/2-x,1/2-z
x,y,-z
1/2-y,1/2+x,1/2-z
1/2-x,1/2+y,1/2+z
1/2+x,1/2-y,1/2+z
-y,-x,z
y,x,z
loop_
_atom_site_type_symbol
_atom_site_label
_atom_site_fract_x
_atom_site_fract_y
_atom_site_fract_z
Si Si1 0.457691 0.273362 0.000000
Si Si2 0.591913 0.591913 0.674868
Si Si3 0.407828 0.407828 0.189790
Si Si4 0.955268 0.331219 0.879725
Si Si5 0.453014 0.182519 0.876153
Si Si6 0.640128 0.818311 0.500000
O O1 0.417436 0.215145 0.941131
O O2 0.593627 0.248405 0.000000
O O3 0.404248 0.404248 0.000000
O O4 0.500000 0.500000 0.653660
O O5 0.596309 0.596309 0.742592
O O6 0.560318 0.713372 0.651004
O O7 0.500000 0.500000 0.167861
O O8 0.285030 0.438640 0.166854
O O9 0.854316 0.417705 0.864200
O O10 0.078087 0.372959 0.859493
O O11 0.947554 0.326683 0.948089
O O12 0.694037 0.694037 0.500000
#
# Coordination Sequence:
#
# PCOD8317961 Si02
#       6
#     8   8   8  16  16   8
#     4  10  19  34  59  97 129 161 204 251 315 380
#     4  11  26  43  63  90 125 165 218 271 303 367
#     4  11  26  43  63  94 125 161 214 271 317 359
#     4  10  22  42  65  92 126 168 211 252 322 376
#     4  10  22  41  66  92 128 167 205 261 314 389
#     4  10  19  36  63  94 130 167 204 254 309 382
#
# _framework density 19.711867999999999
#
# number of rings (size 3 to 8) (size 9 to 14) (size 15 to 20)
#    0.000    1.750    2.500    0.750    3.500    6.250 
#    0.000    3.750    0.000    0.000    0.000    0.000 
#    0.000    0.000    0.000    0.000    0.000    0.000 
#
# Total GULP energy -792869.734712 kJ/mol
# GULP energy per Si atom -12388.589605 kJ/mol
# Density = 1.966700 g / cm^3
# Si number density = 19.711868 Si / 1000 Ang^3
#
#
#
# Elastic Constant Matrix: (Units=GPa)
#
#
# Indices 1 2 3 4 5 6 
#
# 1 118.6542 95.3038 55.8090 0.0000 0.0000 0.0000
# 2 95.3038 118.6542 55.8090 0.0000 0.0000 0.0000
# 3 55.8090 55.8090 86.8529 0.0000 0.0000 0.0000
# 4 0.0000 0.0000 0.0000 65.9713 0.0000 0.0000
# 5 0.0000 0.0000 0.0000 0.0000 65.9713 0.0000
# 6 0.0000 0.0000 0.0000 0.0000 0.0000 19.6598
#
#
#
# Elastic Compliance Matrix: (Units=1/GPa)
#
#
# Indices 1 2 3 4 5 6 
#
# 1 0.024928 -0.017898 -0.004518 0.000000 0.000000 0.000000
# 2 -0.017898 0.024928 -0.004518 0.000000 0.000000 0.000000
# 3 -0.004518 -0.004518 0.017319 0.000000 0.000000 0.000000
# 4 0.000000 0.000000 0.000000 0.015158 0.000000 0.000000
# 5 0.000000 0.000000 0.000000 0.000000 0.015158 0.000000
# 6 0.000000 0.000000 0.000000 0.000000 0.000000 0.050865
#
#
# Mechanical properties :
#
#
# Convention : Reuss Voigt Hill
#
# Bulk Modulus (GPa) = 75.13075 82.00052 78.56563
# Shear Modulus (GPa) = 24.19435 38.13644 31.16539
#
# Velocity S-wave (km/s) = 3.50723 4.40329 3.98055
# Velocity P-wave (km/s) = 7.38905 8.21838 7.81473
#
# Compressibility (1/GPa) = 0.01331013
#
# Stress axis : x y z
#
# Youngs Moduli (GPa) = 40.11521 40.11521 57.73843
#
# Poissons Ratio (x) = 0.71797 0.26084
# Poissons Ratio (y) = 0.71797 0.26084
# Poissons Ratio (z) = 0.18123 0.18123
#
# Static dielectric constant tensor:
#      x y z
#    x 3.742210 0.000000 0.000000 
#    y 0.000000 3.742210 0.000000 
#    z 0.000000 0.000000 3.532160 
# 
# 
# High freq. dielectric constant tensor:
#      x y z
#    x 1.772650 0.000000 0.000000 
#    y 0.000000 1.772650 0.000000 
#    z 0.000000 0.000000 1.765080 
# 
# From -- ./inp_files/8205.got.cif
#   From: 2010.03.12/outbox.cif.g09.slc.cpg/sg136_5_cif.got.tgz:8205.got - 2010.04.06 18:39:43.
