data_PCOD8317574
_publ_section_title
;
Structure prediction by ZEFSAII (Michael W. Deem and Ramdas Pophale) SiO2 
 PCOD8317574
Probable space group: P 42/M B C
;
_chemical_formula_sum "Si O2"
_cell_formula_units_Z 96
_cell_length_a 14.425026
_cell_length_b 14.425026
_cell_length_c 21.243912
_cell_angle_alpha 90.000000
_cell_angle_beta 90.000000
_cell_angle_gamma 90.000000
_cell_volume 4420.462421
_symmetry_space_group_name_H-M "P 42/M B C"
_symmetry_group_IT_number 135
_symmetry_cell_setting 'tetragonal'
loop_
_space_group_symop_operation_xyz
x,y,z
-y,x,1/2+z
-x,-y,z
y,-x,1/2+z
1/2+x,1/2-y,-z
1/2-x,1/2+y,-z
1/2+y,1/2+x,1/2-z
1/2-y,1/2-x,1/2-z
-x,-y,-z
y,-x,1/2-z
x,y,-z
-y,x,1/2-z
1/2-x,1/2+y,z
1/2+x,1/2-y,z
1/2-y,1/2-x,1/2+z
1/2+y,1/2+x,1/2+z
loop_
_atom_site_type_symbol
_atom_site_label
_atom_site_fract_x
_atom_site_fract_y
_atom_site_fract_z
Si Si1 0.309124 0.829998 0.574986
Si Si2 0.883576 0.244862 0.265647
Si Si3 0.761218 0.488485 0.638954
Si Si4 0.071646 0.072631 0.163223
Si Si5 0.351430 0.192155 0.396069
Si Si6 0.483219 0.714518 0.568254
O O1 0.310424 0.851347 0.500000
O O2 0.321545 0.923780 0.616178
O O3 0.213850 0.781763 0.595500
O O4 0.391217 0.761803 0.595941
O O5 0.777305 0.277305 0.250000
O O6 0.887237 0.134315 0.279155
O O7 0.905374 0.302214 0.328854
O O8 0.957683 0.273827 0.211939
O O9 0.653787 0.514316 0.628030
O O10 0.793217 0.402154 0.594831
O O11 0.133561 0.017980 0.113131
O O12 0.000000 0.000000 0.192822
O O13 0.437622 0.205681 0.443039
O O14 0.460138 0.671292 0.500000
#
# Coordination Sequence:
#
# PCOD8317574 Si02
#       6
#    16  16  16  16  16  16
#     4  11  23  41  66  96 130 181 223 264 337 405
#     4   9  21  41  62  90 133 173 215 272 338 399
#     4  11  23  39  66  94 128 173 225 271 334 406
#     4  11  23  38  63 100 130 167 219 283 341 404
#     4  10  21  43  63  93 135 174 219 281 332 400
#     4  10  22  42  65  92 133 176 221 276 334 397
#
# _framework density 21.717185000000001
#
# number of rings (size 3 to 8) (size 9 to 14) (size 15 to 20)
#    0.000    1.667    3.333    1.500    2.333    2.333 
#    3.000    5.000    0.000    8.000    0.000    0.000 
#    0.000    0.000    0.000    0.000    0.000    0.000 
#
# Total GULP energy -1189252.465526 kJ/mol
# GULP energy per Si atom -12388.046516 kJ/mol
# Density = 2.166776 g / cm^3
# Si number density = 21.717185 Si / 1000 Ang^3
#
#
#
# Elastic Constant Matrix: (Units=GPa)
#
#
# Indices 1 2 3 4 5 6 
#
# 1 106.3530 41.3165 39.8704 0.0000 0.0000 0.0000
# 2 41.3165 106.3530 39.8704 0.0000 0.0000 0.0000
# 3 39.8704 39.8704 86.3419 0.0000 0.0000 0.0000
# 4 0.0000 0.0000 0.0000 21.3963 0.0000 0.0000
# 5 0.0000 0.0000 0.0000 0.0000 21.3963 0.0000
# 6 0.0000 0.0000 0.0000 0.0000 0.0000 51.5491
#
#
#
# Elastic Compliance Matrix: (Units=1/GPa)
#
#
# Indices 1 2 3 4 5 6 
#
# 1 0.012199 -0.003177 -0.004166 0.000000 0.000000 0.000000
# 2 -0.003177 0.012199 -0.004166 0.000000 0.000000 0.000000
# 3 -0.004166 -0.004166 0.015429 0.000000 0.000000 0.000000
# 4 0.000000 0.000000 0.000000 0.046737 0.000000 0.000000
# 5 0.000000 0.000000 0.000000 0.000000 0.046737 0.000000
# 6 0.000000 0.000000 0.000000 0.000000 0.000000 0.019399
#
#
# Mechanical properties :
#
#
# Convention : Reuss Voigt Hill
#
# Bulk Modulus (GPa) = 59.49319 60.12918 59.81119
# Shear Modulus (GPa) = 27.57550 30.73441 29.15496
#
# Velocity S-wave (km/s) = 3.56723 3.76601 3.66797
# Velocity P-wave (km/s) = 6.66489 6.83066 6.74829
#
# Compressibility (1/GPa) = 0.01680865
#
# Stress axis : x y z
#
# Youngs Moduli (GPa) = 81.97600 81.97600 64.81211
#
# Poissons Ratio (x) = 0.26046 0.27000
# Poissons Ratio (y) = 0.26046 0.27000
# Poissons Ratio (z) = 0.34150 0.34150
#
# Static dielectric constant tensor:
#      x y z
#    x 4.056870 0.000000 0.000000 
#    y 0.000000 4.056870 0.000000 
#    z 0.000000 0.000000 3.998750 
# 
# 
# High freq. dielectric constant tensor:
#      x y z
#    x 1.848860 0.000000 0.000000 
#    y 0.000000 1.848860 0.000000 
#    z 0.000000 0.000000 1.852570 
# 
# From -- ./inp_files/5436.got.cif
#   From: 2010.03.12/outbox.cif.g09.slc.cpg/sg135_3_cif.got.tgz:5436.got - 2010.04.06 18:31:24.
