data_PCOD8317073
_publ_section_title
;
Structure prediction by ZEFSAII (Michael W. Deem and Ramdas Pophale) SiO2 
 PCOD8317073
Probable space group: P 42/N N M
;
_chemical_formula_sum "Si O2"
_cell_formula_units_Z 64
_cell_length_a 12.661577
_cell_length_b 12.661577
_cell_length_c 22.912242
_cell_angle_alpha 90.000000
_cell_angle_beta 90.000000
_cell_angle_gamma 90.000000
_cell_volume 3673.188268
_symmetry_space_group_name_H-M "P 42/N N M"
_symmetry_group_IT_number 134
_space_group.IT_coordinate_system_code '2'
_symmetry_cell_setting 'tetragonal'
loop_
_space_group_symop_operation_xyz
x,y,z
1/2-y,x,1/2+z
1/2-x,1/2-y,z
y,1/2-x,1/2+z
x,1/2-y,1/2-z
1/2-x,y,1/2-z
y,x,-z
1/2-y,1/2-x,-z
-x,-y,-z
1/2+y,-x,1/2-z
1/2+x,1/2+y,-z
-y,1/2+x,1/2-z
-x,1/2+y,1/2+z
1/2+x,-y,1/2+z
-y,-x,z
1/2+y,1/2+x,z
loop_
_atom_site_type_symbol
_atom_site_label
_atom_site_fract_x
_atom_site_fract_y
_atom_site_fract_z
Si Si1 0.839293 0.339293 0.514340
Si Si2 0.557223 0.733274 0.014441
Si Si3 0.661879 0.338122 0.117314
Si Si4 0.107929 0.066508 0.583192
Si Si5 0.975746 0.301663 0.191699
O O1 0.750000 0.250000 0.523452
O O2 0.809200 0.450241 0.543939
O O3 0.869296 0.369296 0.447876
O O4 0.601537 0.812115 0.063711
O O5 0.643595 0.643595 0.000000
O O6 0.519724 0.797225 0.956457
O O7 0.750000 0.250000 0.112689
O O8 0.561486 0.294838 0.151793
O O9 0.134944 0.060965 0.652362
O O10 0.001805 0.998196 0.570638
O O11 0.026314 0.250000 0.250000
O O12 0.877881 0.377881 0.209192
#
# Coordination Sequence:
#
# PCOD8317073 Si02
#       5
#     8  16   8  16  16
#     4  11  19  33  53  77 101 133 174 214 261 315
#     4  11  21  33  49  71 104 140 173 214 258 308
#     4   9  16  25  41  71 103 128 160 208 257 303
#     4  10  19  32  49  71 101 143 175 204 253 316
#     4  10  17  26  45  73 104 134 168 215 264 310
#
# _framework density 17.423556999999999
#
# number of rings (size 3 to 8) (size 9 to 14) (size 15 to 20)
#    0.000    1.750    3.750    4.875    0.000    0.000 
#    0.000    0.000    0.000    3.000    0.000    0.000 
#    0.000    0.000    0.000    1.250    2.000    0.000 
#
# Total GULP energy -792952.605615 kJ/mol
# GULP energy per Si atom -12389.884463 kJ/mol
# Density = 1.738390 g / cm^3
# Si number density = 17.423557 Si / 1000 Ang^3
#
#
#
# Elastic Constant Matrix: (Units=GPa)
#
#
# Indices 1 2 3 4 5 6 
#
# 1 96.8009 44.5110 18.0549 0.0000 0.0000 0.0000
# 2 44.5110 96.8009 18.0549 0.0000 0.0000 0.0000
# 3 18.0549 18.0549 82.1997 0.0000 0.0000 0.0000
# 4 0.0000 0.0000 0.0000 19.6402 0.0000 0.0000
# 5 0.0000 0.0000 0.0000 0.0000 19.6402 0.0000
# 6 0.0000 0.0000 0.0000 0.0000 0.0000 28.0416
#
#
#
# Elastic Compliance Matrix: (Units=1/GPa)
#
#
# Indices 1 2 3 4 5 6 
#
# 1 0.013311 -0.005813 -0.001647 0.000000 0.000000 0.000000
# 2 -0.005813 0.013311 -0.001647 0.000000 0.000000 0.000000
# 3 -0.001647 -0.001647 0.012889 0.000000 0.000000 0.000000
# 4 0.000000 0.000000 0.000000 0.050916 0.000000 0.000000
# 5 0.000000 0.000000 0.000000 0.000000 0.050916 0.000000
# 6 0.000000 0.000000 0.000000 0.000000 0.000000 0.035661
#
#
# Mechanical properties :
#
#
# Convention : Reuss Voigt Hill
#
# Bulk Modulus (GPa) = 46.95600 48.56034 47.75817
# Shear Modulus (GPa) = 24.71378 26.47645 25.59512
#
# Velocity S-wave (km/s) = 3.77027 3.90241 3.83691
# Velocity P-wave (km/s) = 6.77949 6.94522 6.86285
#
# Compressibility (1/GPa) = 0.02129653
#
# Stress axis : x y z
#
# Youngs Moduli (GPa) = 75.12728 75.12728 77.58603
#
# Poissons Ratio (x) = 0.43674 0.12777
# Poissons Ratio (y) = 0.43674 0.12777
# Poissons Ratio (z) = 0.12372 0.12372
#
# Static dielectric constant tensor:
#      x y z
#    x 3.136220 0.000000 0.000000 
#    y 0.000000 3.136220 0.000000 
#    z 0.000000 0.000000 3.096550 
# 
# 
# High freq. dielectric constant tensor:
#      x y z
#    x 1.660930 0.000000 0.000000 
#    y 0.000000 1.660930 0.000000 
#    z 0.000000 0.000000 1.644380 
# 
# From -- ./inp_files/9823.got.cif
#   From: 2010.03.12/outbox.cif.g09.slc.cpg/sg134_5_cif.got.tgz:9823.got - 2010.04.06 18:17:22.
