data_PCOD8317527
_publ_section_title
;
Structure prediction by ZEFSAII (Michael W. Deem and Ramdas Pophale) SiO2 
 PCOD8317527
Probable space group: P 42/M B C
;
_chemical_formula_sum "Si O2"
_cell_formula_units_Z 112
_cell_length_a 14.538122
_cell_length_b 14.538122
_cell_length_c 26.705284
_cell_angle_alpha 90.000000
_cell_angle_beta 90.000000
_cell_angle_gamma 90.000000
_cell_volume 5644.348478
_symmetry_space_group_name_H-M "P 42/M B C"
_symmetry_group_IT_number 135
_symmetry_cell_setting 'tetragonal'
loop_
_space_group_symop_operation_xyz
x,y,z
-y,x,1/2+z
-x,-y,z
y,-x,1/2+z
1/2+x,1/2-y,-z
1/2-x,1/2+y,-z
1/2+y,1/2+x,1/2-z
1/2-y,1/2-x,1/2-z
-x,-y,-z
y,-x,1/2-z
x,y,-z
-y,x,1/2-z
1/2-x,1/2+y,z
1/2+x,1/2-y,z
1/2-y,1/2-x,1/2+z
1/2+y,1/2+x,1/2+z
loop_
_atom_site_type_symbol
_atom_site_label
_atom_site_fract_x
_atom_site_fract_y
_atom_site_fract_z
Si Si1 0.331156 0.631634 0.899582
Si Si2 0.455359 0.216303 0.200461
Si Si3 0.023268 0.898478 0.140006
Si Si4 0.554566 0.336448 0.554250
Si Si5 0.160317 0.322262 0.944310
Si Si6 0.699199 0.928907 0.183802
Si Si7 0.579989 0.073783 0.355774
O O1 0.439398 0.641163 0.891466
O O2 0.309379 0.552132 0.939244
O O3 0.297838 0.727981 0.922104
O O4 0.286958 0.607054 0.846075
O O5 0.449547 0.321176 0.180557
O O6 0.373664 0.153558 0.178904
O O7 0.448911 0.227180 0.259588
O O8 0.546957 0.158934 0.184931
O O9 0.103815 0.909853 0.100087
O O10 0.000000 0.000000 0.163872
O O11 0.565796 0.386679 0.500000
O O12 0.608554 0.243044 0.552786
O O13 0.083702 0.367445 0.908480
O O14 0.117988 0.306652 0.000000
O O15 0.665994 0.027373 0.161804
O O16 0.500000 0.000000 0.361708
#
# Coordination Sequence:
#
# PCOD8317527 Si02
#       7
#    16  16  16  16  16  16  16
#     4  11  21  39  59  86 120 159 198 251 300 361
#     4  10  20  41  62  91 122 155 203 246 308 376
#     4  10  22  39  57  84 120 158 200 245 294 360
#     4  10  22  40  60  82 115 158 203 251 302 361
#     4  11  22  38  62  90 120 160 205 252 313 372
#     4  10  21  38  66  91 119 159 199 252 310 361
#     4  10  20  39  66  92 122 152 197 259 311 370
#
# _framework density 19.842856999999999
#
# number of rings (size 3 to 8) (size 9 to 14) (size 15 to 20)
#    0.000    1.714    2.857    1.714    0.000    5.143 
#    5.143    1.429    0.000    0.000    0.000    0.000 
#    0.000    0.000    0.000    0.000    0.000    0.000 
#
# Total GULP energy -1388243.418458 kJ/mol
# GULP energy per Si atom -12395.030522 kJ/mol
# Density = 1.979769 g / cm^3
# Si number density = 19.842857 Si / 1000 Ang^3
#
#
#
# Elastic Constant Matrix: (Units=GPa)
#
#
# Indices 1 2 3 4 5 6 
#
# 1 74.7951 20.4373 34.5594 0.0000 0.0000 0.0000
# 2 20.4373 74.7951 34.5594 0.0000 0.0000 0.0000
# 3 34.5594 34.5594 107.7782 0.0000 0.0000 0.0000
# 4 0.0000 0.0000 0.0000 36.8327 0.0000 0.0000
# 5 0.0000 0.0000 0.0000 0.0000 36.8327 0.0000
# 6 0.0000 0.0000 0.0000 0.0000 0.0000 19.8476
#
#
#
# Elastic Compliance Matrix: (Units=1/GPa)
#
#
# Indices 1 2 3 4 5 6 
#
# 1 0.016041 -0.002355 -0.004388 0.000000 0.000000 0.000000
# 2 -0.002355 0.016041 -0.004388 0.000000 0.000000 0.000000
# 3 -0.004388 -0.004388 0.012093 0.000000 0.000000 0.000000
# 4 0.000000 0.000000 0.000000 0.027150 0.000000 0.000000
# 5 0.000000 0.000000 0.000000 0.000000 0.027150 0.000000
# 6 0.000000 0.000000 0.000000 0.000000 0.000000 0.050384
#
#
# Mechanical properties :
#
#
# Convention : Reuss Voigt Hill
#
# Bulk Modulus (GPa) = 45.64022 48.49785 47.06904
# Shear Modulus (GPa) = 28.02279 29.89008 28.95643
#
# Velocity S-wave (km/s) = 3.76205 3.88537 3.82421
# Velocity P-wave (km/s) = 6.47468 6.67998 6.57813
#
# Compressibility (1/GPa) = 0.02191050
#
# Stress axis : x y z
#
# Youngs Moduli (GPa) = 62.33970 62.33970 82.69531
#
# Poissons Ratio (x) = 0.14684 0.36290
# Poissons Ratio (y) = 0.14684 0.36290
# Poissons Ratio (z) = 0.27357 0.27357
#
# Static dielectric constant tensor:
#      x y z
#    x 3.750500 0.000000 0.000000 
#    y 0.000000 3.750500 0.000000 
#    z 0.000000 0.000000 3.791850 
# 
# 
# High freq. dielectric constant tensor:
#      x y z
#    x 1.775770 0.000000 0.000000 
#    y 0.000000 1.775770 0.000000 
#    z 0.000000 0.000000 1.774060 
# 
# From -- ./inp_files/6540.got.cif
#   From: 2010.03.12/outbox.cif.g09.slc.cpg/sg135_4_cif.got.tgz:6540.got - 2010.04.06 18:31:24.
