data_PCOD8317034
_publ_section_title
;
Structure prediction by ZEFSAII (Michael W. Deem and Ramdas Pophale) SiO2 
 PCOD8317034
Probable space group: P 42/N B C
;
_chemical_formula_sum "Si O2"
_cell_formula_units_Z 68
_cell_length_a 16.355203
_cell_length_b 16.355203
_cell_length_c 12.982610
_cell_angle_alpha 90.000000
_cell_angle_beta 90.000000
_cell_angle_gamma 90.000000
_cell_volume 3472.752950
_symmetry_space_group_name_H-M "P 42/N B C"
_symmetry_group_IT_number 133
_space_group.IT_coordinate_system_code '2'
_symmetry_cell_setting 'tetragonal'
loop_
_space_group_symop_operation_xyz
x,y,z
1/2-y,x,1/2+z
1/2-x,1/2-y,z
y,1/2-x,1/2+z
x,1/2-y,-z
1/2-x,y,-z
y,x,1/2-z
1/2-y,1/2-x,1/2-z
-x,-y,-z
1/2+y,-x,1/2-z
1/2+x,1/2+y,-z
-y,1/2+x,1/2-z
-x,1/2+y,z
1/2+x,-y,z
-y,-x,1/2+z
1/2+y,1/2+x,1/2+z
loop_
_atom_site_type_symbol
_atom_site_label
_atom_site_fract_x
_atom_site_fract_y
_atom_site_fract_z
Si Si1 0.807338 0.364396 0.240131
Si Si2 0.635351 0.629317 0.875939
Si Si3 0.042216 0.830481 0.935069
Si Si4 0.159971 0.946966 0.043123
Si Si5 0.250000 0.250000 0.500000
O O1 0.847428 0.285867 0.293541
O O2 0.809519 0.439000 0.317751
O O3 0.856772 0.387600 0.139032
O O4 0.632400 0.632400 0.750000
O O5 0.553204 0.653066 0.935376
O O6 0.654086 0.539368 0.918171
O O7 0.700471 0.693117 0.920593
O O8 0.066172 0.750000 0.000000
O O9 0.090366 0.914415 0.965168
O O10 0.250000 0.932492 0.000000
#
# Coordination Sequence:
#
# PCOD8317034 Si02
#       5
#    16  16  16  16   4
#     4  11  22  37  64  99 132 173 218 252 313 397
#     4  12  26  46  70  92 128 170 220 274 322 380
#     4  12  24  41  67  97 132 173 213 263 325 385
#     4  12  24  41  67  97 132 173 213 263 325 385
#     4  12  26  48  72  98 116 172 222 268 332 382
#
# _framework density 19.581007
#
# number of rings (size 3 to 8) (size 9 to 14) (size 15 to 20)
#    0.000    0.235    9.412    1.059    0.000    0.471 
#    0.000    0.000    0.000    0.000    0.000    0.000 
#    0.000    0.000    0.000    0.000    0.000    0.000 
#
# Total GULP energy -842708.871402 kJ/mol
# GULP energy per Si atom -12392.777521 kJ/mol
# Density = 1.953644 g / cm^3
# Si number density = 19.581007 Si / 1000 Ang^3
#
#
#
# Elastic Constant Matrix: (Units=GPa)
#
#
# Indices 1 2 3 4 5 6 
#
# 1 112.7329 50.8986 37.3710 0.0000 0.0000 0.0000
# 2 50.8986 112.7329 37.3710 0.0000 0.0000 0.0000
# 3 37.3710 37.3710 91.0366 0.0000 0.0000 0.0000
# 4 0.0000 0.0000 0.0000 31.1414 0.0000 0.0000
# 5 0.0000 0.0000 0.0000 0.0000 31.1414 0.0000
# 6 0.0000 0.0000 0.0000 0.0000 0.0000 33.6576
#
#
#
# Elastic Compliance Matrix: (Units=1/GPa)
#
#
# Indices 1 2 3 4 5 6 
#
# 1 0.011847 -0.004325 -0.003088 0.000000 0.000000 0.000000
# 2 -0.004325 0.011847 -0.003088 0.000000 0.000000 0.000000
# 3 -0.003088 -0.003088 0.013520 0.000000 0.000000 0.000000
# 4 0.000000 0.000000 0.000000 0.032112 0.000000 0.000000
# 5 0.000000 0.000000 0.000000 0.000000 0.032112 0.000000
# 6 0.000000 0.000000 0.000000 0.000000 0.000000 0.029711
#
#
# Mechanical properties :
#
#
# Convention : Reuss Voigt Hill
#
# Bulk Modulus (GPa) = 61.68194 63.08707 62.38450
# Shear Modulus (GPa) = 31.73535 31.91221 31.82378
#
# Velocity S-wave (km/s) = 4.03019 4.04140 4.03580
# Velocity P-wave (km/s) = 7.29560 7.35294 7.32433
#
# Compressibility (1/GPa) = 0.01621220
#
# Stress axis : x y z
#
# Youngs Moduli (GPa) = 84.40988 84.40988 73.96663
#
# Poissons Ratio (x) = 0.36510 0.22839
# Poissons Ratio (y) = 0.36510 0.22839
# Poissons Ratio (z) = 0.26063 0.26063
#
# Static dielectric constant tensor:
#      x y z
#    x 3.592180 0.000000 0.000000 
#    y 0.000000 3.592180 0.000000 
#    z 0.000000 0.000000 3.607830 
# 
# 
# High freq. dielectric constant tensor:
#      x y z
#    x 1.768900 0.000000 0.000000 
#    y 0.000000 1.768900 0.000000 
#    z 0.000000 0.000000 1.773510 
# 
# From -- ./inp_files/3117.got.cif
#   From: 2010.03.12/outbox.cif.g09.slc.cpg/sg133_2_cif.got.tgz:3117.got - 2010.04.06 18:08:06.
