data_PCOD8317939
_publ_section_title
;
Structure prediction by ZEFSAII (Michael W. Deem and Ramdas Pophale) SiO2 
 PCOD8317939
Probable space group: P 42/M N M
;
_chemical_formula_sum "Si O2"
_cell_formula_units_Z 88
_cell_length_a 18.472958
_cell_length_b 18.472958
_cell_length_c 14.821723
_cell_angle_alpha 90.000000
_cell_angle_beta 90.000000
_cell_angle_gamma 90.000000
_cell_volume 5057.915601
_symmetry_space_group_name_H-M "P 42/M N M"
_symmetry_group_IT_number 136
_symmetry_cell_setting 'tetragonal'
loop_
_space_group_symop_operation_xyz
x,y,z
1/2-y,1/2+x,1/2+z
-x,-y,z
1/2+y,1/2-x,1/2+z
1/2+x,1/2-y,1/2-z
1/2-x,1/2+y,1/2-z
y,x,-z
-y,-x,-z
-x,-y,-z
1/2+y,1/2-x,1/2-z
x,y,-z
1/2-y,1/2+x,1/2-z
1/2-x,1/2+y,1/2+z
1/2+x,1/2-y,1/2+z
-y,-x,z
y,x,z
loop_
_atom_site_type_symbol
_atom_site_label
_atom_site_fract_x
_atom_site_fract_y
_atom_site_fract_z
Si Si1 0.685170 0.040777 0.321368
Si Si2 0.665003 0.930935 0.169637
Si Si3 0.818150 0.938692 0.103632
Si Si4 0.439322 0.560678 0.896599
Si Si5 0.373493 0.009522 0.500000
Si Si6 0.967234 0.153338 0.730130
Si Si7 0.500735 0.894265 0.500000
O O1 0.638871 0.114375 0.321631
O O2 0.767356 0.060579 0.297734
O O3 0.652562 0.980047 0.256557
O O4 0.680132 0.002850 0.417629
O O5 0.747109 0.905010 0.152329
O O6 0.651138 0.986063 0.088668
O O7 0.875944 0.875944 0.102425
O O8 0.846796 0.004135 0.166659
O O9 0.804554 0.965363 0.000000
O O10 0.500000 0.500000 0.900529
O O11 0.470422 0.629155 0.840792
O O12 0.417484 0.582517 0.000000
O O13 0.413277 0.087285 0.500000
O O14 0.443617 0.959099 0.500000
O O15 0.899147 0.100854 0.724889
#
# Coordination Sequence:
#
# PCOD8317939 Si02
#       7
#    16  16  16   8   8  16   8
#     4  10  21  33  53  78 110 142 181 221 265 322
#     4  10  19  34  52  79 108 145 180 219 270 324
#     4  10  20  35  56  81 110 142 178 228 283 329
#     4   9  18  34  55  77 105 139 174 222 275 318
#     4   9  18  30  47  76 104 138 176 218 260 309
#     4  10  21  37  56  81 107 139 184 230 275 329
#     4   9  16  30  51  71 104 138 177 218 259 312
#
# _framework density 17.398472000000002
#
# number of rings (size 3 to 8) (size 9 to 14) (size 15 to 20)
#    0.000    2.273    1.818    1.091    1.273    2.909 
#    0.000    0.909    0.000    0.000    0.000    0.000 
#    0.000    0.000    0.000    0.000    0.000    0.000 
#
# Total GULP energy -1090637.570958 kJ/mol
# GULP energy per Si atom -12393.608761 kJ/mol
# Density = 1.735887 g / cm^3
# Si number density = 17.398472 Si / 1000 Ang^3
#
#
#
# Elastic Constant Matrix: (Units=GPa)
#
#
# Indices 1 2 3 4 5 6 
#
# 1 78.9192 48.9174 42.4376 0.0000 0.0000 0.0000
# 2 48.9174 78.9192 42.4376 0.0000 0.0000 0.0000
# 3 42.4376 42.4376 145.5884 0.0000 0.0000 0.0000
# 4 0.0000 0.0000 0.0000 21.9413 0.0000 0.0000
# 5 0.0000 0.0000 0.0000 0.0000 21.9413 0.0000
# 6 0.0000 0.0000 0.0000 0.0000 0.0000 22.1136
#
#
#
# Elastic Compliance Matrix: (Units=1/GPa)
#
#
# Indices 1 2 3 4 5 6 
#
# 1 0.021516 -0.011816 -0.002827 0.000000 0.000000 0.000000
# 2 -0.011816 0.021516 -0.002827 0.000000 0.000000 0.000000
# 3 -0.002827 -0.002827 0.008517 0.000000 0.000000 0.000000
# 4 0.000000 0.000000 0.000000 0.045576 0.000000 0.000000
# 5 0.000000 0.000000 0.000000 0.000000 0.045576 0.000000
# 6 0.000000 0.000000 0.000000 0.000000 0.000000 0.045221
#
#
# Mechanical properties :
#
#
# Convention : Reuss Voigt Hill
#
# Bulk Modulus (GPa) = 60.21602 63.44578 61.83090
# Shear Modulus (GPa) = 21.89162 24.50820 23.19991
#
# Velocity S-wave (km/s) = 3.55103 3.75726 3.65560
# Velocity P-wave (km/s) = 7.17622 7.44098 7.30980
#
# Compressibility (1/GPa) = 0.01660688
#
# Stress axis : x y z
#
# Youngs Moduli (GPa) = 46.47806 46.47806 117.41258
#
# Poissons Ratio (x) = 0.54918 0.33197
# Poissons Ratio (y) = 0.54918 0.33197
# Poissons Ratio (z) = 0.13141 0.13141
#
# Static dielectric constant tensor:
#      x y z
#    x 3.121290 0.000000 0.000000 
#    y 0.000000 3.121290 0.000000 
#    z 0.000000 0.000000 3.403280 
# 
# 
# High freq. dielectric constant tensor:
#      x y z
#    x 1.659700 0.000000 0.000000 
#    y 0.000000 1.659700 0.000000 
#    z 0.000000 0.000000 1.692240 
# 
# From -- ./inp_files/5087.got.cif
#   From: 2010.03.12/outbox.cif.g09.slc.cpg/sg136_3_cif.got.tgz:5087.got - 2010.04.06 18:39:43.
