data_PCOD8317346
_publ_section_title
;
Structure prediction by ZEFSAII (Michael W. Deem and Ramdas Pophale) SiO2 
 PCOD8317346
Probable space group: P 42/N N M
;
_chemical_formula_sum "Si O2"
_cell_formula_units_Z 40
_cell_length_a 14.037665
_cell_length_b 14.037665
_cell_length_c 7.930127
_cell_angle_alpha 90.000000
_cell_angle_beta 90.000000
_cell_angle_gamma 90.000000
_cell_volume 1562.679413
_symmetry_space_group_name_H-M "P 42/N N M"
_symmetry_group_IT_number 134
_space_group.IT_coordinate_system_code '2'
_symmetry_cell_setting 'tetragonal'
loop_
_space_group_symop_operation_xyz
x,y,z
1/2-y,x,1/2+z
1/2-x,1/2-y,z
y,1/2-x,1/2+z
x,1/2-y,1/2-z
1/2-x,y,1/2-z
y,x,-z
1/2-y,1/2-x,-z
-x,-y,-z
1/2+y,-x,1/2-z
1/2+x,1/2+y,-z
-y,1/2+x,1/2-z
-x,1/2+y,1/2+z
1/2+x,-y,1/2+z
-y,-x,z
1/2+y,1/2+x,z
loop_
_atom_site_type_symbol
_atom_site_label
_atom_site_fract_x
_atom_site_fract_y
_atom_site_fract_z
Si Si1 0.143109 0.355820 0.303485
Si Si2 0.860895 0.360895 0.066715
Si Si3 0.859572 0.359572 0.449513
Si Si4 0.539526 0.460475 0.736311
O O1 0.113878 0.250000 0.250000
O O2 0.250000 0.383032 0.250000
O O3 0.137328 0.362673 0.500000
O O4 0.064376 0.427437 0.228299
O O5 0.888995 0.388995 0.258816
O O6 0.882149 0.250995 0.027872
O O7 0.921085 0.421085 0.937533
O O8 0.917217 0.417217 0.590795
#
# Coordination Sequence:
#
# PCOD8317346 Si02
#       4
#    16   8   8   8
#     4  11  25  51  78 109 152 206 260 320 396 466
#     4   9  18  35  63 105 163 199 246 307 393 468
#     4   9  18  35  61 110 156 205 242 309 390 473
#     4  12  23  43  77 113 146 194 266 322 376 462
#
# _framework density 25.597061
#
# number of rings (size 3 to 8) (size 9 to 14) (size 15 to 20)
#    0.000    1.600    0.000    7.800    0.000    1.600 
#   21.600    4.000    0.000    0.600    0.000    5.600 
#    0.000    0.000    0.000    0.000    0.000    0.000 
#
# Total GULP energy -496030.075759 kJ/mol
# GULP energy per Si atom -12400.751894 kJ/mol
# Density = 2.553880 g / cm^3
# Si number density = 25.597061 Si / 1000 Ang^3
#
#
#
# Elastic Constant Matrix: (Units=GPa)
#
#
# Indices 1 2 3 4 5 6 
#
# 1 187.6175 90.5661 54.6824 0.0000 0.0000 0.0000
# 2 90.5661 187.6170 54.6825 0.0000 0.0000 0.0000
# 3 54.6824 54.6825 160.6911 0.0000 0.0000 0.0000
# 4 0.0000 0.0000 0.0000 48.4342 0.0000 0.0000
# 5 0.0000 0.0000 0.0000 0.0000 48.4341 0.0000
# 6 0.0000 0.0000 0.0000 0.0000 0.0000 40.2662
#
#
#
# Elastic Compliance Matrix: (Units=1/GPa)
#
#
# Indices 1 2 3 4 5 6 
#
# 1 0.007227 -0.003077 -0.001412 0.000000 0.000000 0.000000
# 2 -0.003077 0.007227 -0.001412 0.000000 0.000000 0.000000
# 3 -0.001412 -0.001412 0.007184 0.000000 0.000000 0.000000
# 4 0.000000 0.000000 0.000000 0.020647 0.000000 0.000000
# 5 0.000000 0.000000 0.000000 0.000000 0.020647 0.000000
# 6 0.000000 0.000000 0.000000 0.000000 0.000000 0.024835
#
#
# Mechanical properties :
#
#
# Convention : Reuss Voigt Hill
#
# Bulk Modulus (GPa) = 101.67441 103.97641 102.82541
# Shear Modulus (GPa) = 48.61584 49.82653 49.22119
#
# Velocity S-wave (km/s) = 4.36279 4.41678 4.38987
# Velocity P-wave (km/s) = 8.07378 8.16819 8.12112
#
# Compressibility (1/GPa) = 0.00983532
#
# Stress axis : x y z
#
# Youngs Moduli (GPa) = 138.37221 138.37172 139.19323
#
# Poissons Ratio (x) = 0.42576 0.19657
# Poissons Ratio (y) = 0.42576 0.19657
# Poissons Ratio (z) = 0.19541 0.19541
#
# Static dielectric constant tensor:
#      x y z
#    x 4.658640 0.000000 0.000000 
#    y 0.000000 4.658630 0.000000 
#    z 0.000000 0.000000 4.821380 
# 
# 
# High freq. dielectric constant tensor:
#      x y z
#    x 2.038050 0.000000 0.000000 
#    y 0.000000 2.038050 0.000000 
#    z 0.000000 0.000000 2.040750 
# 
# From -- ./inp_files/1878.got.cif
#   From: 2010.03.12/outbox.cif.g09.slc.cpg/sg134_1_cif.got.tgz:1878.got - 2010.04.06 18:17:22.
