data_PCOD8317406
_publ_section_title
;
Structure prediction by ZEFSAII (Michael W. Deem and Ramdas Pophale) SiO2 
 PCOD8317406
Probable space group: P 42/M B C
;
_chemical_formula_sum "Si O2"
_cell_formula_units_Z 96
_cell_length_a 25.257544
_cell_length_b 25.257544
_cell_length_c 9.286830
_cell_angle_alpha 90.000000
_cell_angle_beta 90.000000
_cell_angle_gamma 90.000000
_cell_volume 5924.473103
_symmetry_space_group_name_H-M "P 42/M B C"
_symmetry_group_IT_number 135
_symmetry_cell_setting 'tetragonal'
loop_
_space_group_symop_operation_xyz
x,y,z
-y,x,1/2+z
-x,-y,z
y,-x,1/2+z
1/2+x,1/2-y,-z
1/2-x,1/2+y,-z
1/2+y,1/2+x,1/2-z
1/2-y,1/2-x,1/2-z
-x,-y,-z
y,-x,1/2-z
x,y,-z
-y,x,1/2-z
1/2-x,1/2+y,z
1/2+x,1/2-y,z
1/2-y,1/2-x,1/2+z
1/2+y,1/2+x,1/2+z
loop_
_atom_site_type_symbol
_atom_site_label
_atom_site_fract_x
_atom_site_fract_y
_atom_site_fract_z
Si Si1 0.301612 0.610970 0.167577
Si Si2 0.701616 0.000395 0.661814
Si Si3 0.307773 0.115436 0.334226
Si Si4 0.805104 0.006128 0.165129
Si Si5 0.188158 0.894098 0.668508
Si Si6 0.189798 0.385485 0.337158
O O1 0.250379 0.619431 0.266152
O O2 0.328652 0.552933 0.189386
O O3 0.344289 0.653852 0.219855
O O4 0.285667 0.618777 0.000000
O O5 0.727627 0.002775 0.500000
O O6 0.669822 0.945149 0.676771
O O7 0.744626 0.001274 0.786337
O O8 0.666986 0.054163 0.680665
O O9 0.347749 0.152252 0.250000
O O10 0.304531 0.133803 0.500000
O O11 0.833938 0.052279 0.256057
O O12 0.807670 0.023323 0.000000
O O13 0.182088 0.903119 0.500000
O O14 0.249041 0.884079 0.714261
O O15 0.155141 0.344860 0.250000
O O16 0.186278 0.365958 0.500000
#
# Coordination Sequence:
#
# PCOD8317406 Si02
#       6
#    16  16  16  16  16  16
#     4   9  18  32  48  67  92 122 154 188 226 268
#     4   8  16  31  47  62  85 120 155 183 219 269
#     4  10  19  31  48  69  93 120 151 187 227 272
#     4   9  16  27  46  69  88 110 151 197 225 256
#     4   9  18  32  47  64  92 125 150 178 224 275
#     4   9  17  29  45  65  88 115 147 181 219 264
#
# _framework density 16.203973000000001
#
# number of rings (size 3 to 8) (size 9 to 14) (size 15 to 20)
#    0.000    3.000    0.000    2.000    0.000    5.333 
#    0.000    1.667    0.000    1.000    0.000    7.000 
#    0.000    0.000    0.000    0.000    0.000    0.000 
#
# Total GULP energy -1189329.188198 kJ/mol
# GULP energy per Si atom -12388.845710 kJ/mol
# Density = 1.616709 g / cm^3
# Si number density = 16.203973 Si / 1000 Ang^3
#
#
#
# Elastic Constant Matrix: (Units=GPa)
#
#
# Indices 1 2 3 4 5 6 
#
# 1 96.0153 62.6599 49.3636 0.0000 0.0000 0.0000
# 2 62.6599 96.0192 49.3637 0.0000 0.0000 0.0000
# 3 49.3636 49.3637 73.9142 0.0000 0.0000 0.0000
# 4 0.0000 0.0000 0.0000 25.2602 0.0000 0.0000
# 5 0.0000 0.0000 0.0000 0.0000 25.2601 0.0000
# 6 0.0000 0.0000 0.0000 0.0000 0.0000 -0.9046
#
#
#
# Elastic Compliance Matrix: (Units=1/GPa)
#
#
# Indices 1 2 3 4 5 6 
#
# 1 0.020381 -0.009598 -0.007202 0.000000 0.000000 0.000000
# 2 -0.009598 0.020380 -0.007201 0.000000 0.000000 0.000000
# 3 -0.007202 -0.007201 0.023148 0.000000 0.000000 0.000000
# 4 0.000000 0.000000 0.000000 0.039588 0.000000 0.000000
# 5 0.000000 0.000000 0.000000 0.000000 0.039588 0.000000
# 6 0.000000 0.000000 0.000000 0.000000 0.000000 -1.105493
#
#
# Mechanical properties :
#
#
# Convention : Reuss Voigt Hill
#
# Bulk Modulus (GPa) = 62.86010 65.41367 64.13689
# Shear Modulus (GPa) = -5.49992 16.89391 5.69700
#
# Velocity S-wave (km/s) = -1.84433 3.23240 1.87708
# Velocity P-wave (km/s) = 5.86019 7.37481 6.66069
#
# Compressibility (1/GPa) = 0.01590834
#
# Stress axis : x y z
#
# Youngs Moduli (GPa) = 49.06502 49.06804 43.20057
#
# Poissons Ratio (x) = 0.47095 0.31111
# Poissons Ratio (y) = 0.47092 0.31108
# Poissons Ratio (z) = 0.35335 0.35333
#
# Static dielectric constant tensor:
#      x y z
#    x 3.107020 0.000000 0.000000 
#    y 0.000000 3.107020 0.000000 
#    z 0.000000 0.000000 3.141830 
# 
# 
# High freq. dielectric constant tensor:
#      x y z
#    x 1.605080 0.000000 0.000000 
#    y 0.000000 1.605080 0.000000 
#    z 0.000000 0.000000 1.632450 
# 
# From -- ./inp_files/1222.got.cif
#   From: 2010.03.12/outbox.cif.g09.slc.cpg/sg135_1_cif.got.tgz:1222.got - 2010.04.06 18:31:24.
