data_PCOD8317196
_publ_section_title
;
Structure prediction by ZEFSAII (Michael W. Deem and Ramdas Pophale) SiO2 
 PCOD8317196
Probable space group: P 42/N N M
;
_chemical_formula_sum "Si O2"
_cell_formula_units_Z 96
_cell_length_a 20.850637
_cell_length_b 20.850637
_cell_length_c 11.046380
_cell_angle_alpha 90.000000
_cell_angle_beta 90.000000
_cell_angle_gamma 90.000000
_cell_volume 4802.403358
_symmetry_space_group_name_H-M "P 42/N N M"
_symmetry_group_IT_number 134
_space_group.IT_coordinate_system_code '2'
_symmetry_cell_setting 'tetragonal'
loop_
_space_group_symop_operation_xyz
x,y,z
1/2-y,x,1/2+z
1/2-x,1/2-y,z
y,1/2-x,1/2+z
x,1/2-y,1/2-z
1/2-x,y,1/2-z
y,x,-z
1/2-y,1/2-x,-z
-x,-y,-z
1/2+y,-x,1/2-z
1/2+x,1/2+y,-z
-y,1/2+x,1/2-z
-x,1/2+y,1/2+z
1/2+x,-y,1/2+z
-y,-x,z
1/2+y,1/2+x,z
loop_
_atom_site_type_symbol
_atom_site_label
_atom_site_fract_x
_atom_site_fract_y
_atom_site_fract_z
Si Si1 0.126402 0.973457 0.371038
Si Si2 0.548683 0.250000 0.750000
Si Si3 0.411073 0.692763 0.007390
Si Si4 0.681592 0.081434 0.115607
Si Si5 0.821471 0.555027 0.213433
Si Si6 0.903079 0.596922 0.000000
Si Si7 0.490786 0.093923 0.412436
O O1 0.074384 0.925617 0.306512
O O2 0.186455 0.992295 0.284633
O O3 0.152650 0.938227 0.487723
O O4 0.090929 0.038412 0.407062
O O5 0.590990 0.270430 0.864465
O O6 0.348731 0.651270 0.002747
O O7 0.402278 0.743655 0.899020
O O8 0.475836 0.651636 0.987934
O O9 0.641616 0.141616 0.169196
O O10 0.676721 0.021768 0.204568
O O11 0.750000 0.579512 0.250000
O O12 0.875461 0.561146 0.317881
O O13 0.840106 0.592118 0.087328
O O14 0.447435 0.052566 0.500000
O O15 0.546425 0.046425 0.356489
#
# Coordination Sequence:
#
# PCOD8317196 Si02
#       7
#    16   8  16  16  16   8  16
#     4   9  18  33  53  82 117 148 190 246 297 347
#     4  10  20  32  52  79 117 162 198 242 298 358
#     4  10  20  35  53  80 120 165 212 255 301 359
#     4   9  18  34  55  80 115 159 202 245 293 350
#     4  11  21  40  63  88 124 157 194 249 310 376
#     4  10  23  36  60  94 115 148 200 244 303 370
#     4  10  22  38  58  88 123 158 199 257 322 373
#
# _framework density 19.989992000000001
#
# number of rings (size 3 to 8) (size 9 to 14) (size 15 to 20)
#    0.000    2.167    1.667    1.250    2.333    3.000 
#    0.000    0.000    0.000    3.250    0.000    5.833 
#    0.000    0.000    0.000    0.000    0.000    0.000 
#
# Total GULP energy -1189379.991884 kJ/mol
# GULP energy per Si atom -12389.374915 kJ/mol
# Density = 1.994449 g / cm^3
# Si number density = 19.989992 Si / 1000 Ang^3
#
#
#
# Elastic Constant Matrix: (Units=GPa)
#
#
# Indices 1 2 3 4 5 6 
#
# 1 94.5136 51.7496 28.0474 0.0000 0.0000 0.0000
# 2 51.7496 94.5148 28.0496 0.0000 0.0000 0.0000
# 3 28.0474 28.0496 56.8685 0.0000 0.0000 0.0000
# 4 0.0000 0.0000 0.0000 32.3764 0.0000 0.0000
# 5 0.0000 0.0000 0.0000 0.0000 32.3765 0.0000
# 6 0.0000 0.0000 0.0000 0.0000 0.0000 26.0222
#
#
#
# Elastic Compliance Matrix: (Units=1/GPa)
#
#
# Indices 1 2 3 4 5 6 
#
# 1 0.015908 -0.007476 -0.004158 0.000000 0.000000 0.000000
# 2 -0.007476 0.015908 -0.004159 0.000000 0.000000 0.000000
# 3 -0.004158 -0.004159 0.021687 0.000000 0.000000 0.000000
# 4 0.000000 0.000000 0.000000 0.030887 0.000000 0.000000
# 5 0.000000 0.000000 0.000000 0.000000 0.030887 0.000000
# 6 0.000000 0.000000 0.000000 0.000000 0.000000 0.038429
#
#
# Mechanical properties :
#
#
# Convention : Reuss Voigt Hill
#
# Bulk Modulus (GPa) = 45.62959 51.28778 48.45868
# Shear Modulus (GPa) = 25.96097 27.35839 26.65968
#
# Velocity S-wave (km/s) = 3.60766 3.70348 3.65588
# Velocity P-wave (km/s) = 6.34266 6.63326 6.48959
#
# Compressibility (1/GPa) = 0.02191560
#
# Stress axis : x y z
#
# Youngs Moduli (GPa) = 62.86215 62.86141 46.11098
#
# Poissons Ratio (x) = 0.46995 0.19174
# Poissons Ratio (y) = 0.46995 0.19179
# Poissons Ratio (z) = 0.26140 0.26146
#
# Static dielectric constant tensor:
#      x y z
#    x 3.691920 0.000000 0.000000 
#    y 0.000000 3.691910 0.000000 
#    z 0.000000 0.000000 3.729220 
# 
# 
# High freq. dielectric constant tensor:
#      x y z
#    x 1.763410 0.000000 0.000000 
#    y 0.000000 1.763410 0.000000 
#    z 0.000000 0.000000 1.785800 
# 
# From -- ./inp_files/5122.got.cif
#   From: 2010.03.12/outbox.cif.g09.slc.cpg/sg134_3_cif.got.tgz:5122.got - 2010.04.06 18:17:22.
