data_PCOD8317222
_publ_section_title
;
Structure prediction by ZEFSAII (Michael W. Deem and Ramdas Pophale) SiO2 
 PCOD8317222
Probable space group: P 42/N N M
;
_chemical_formula_sum "Si O2"
_cell_formula_units_Z 128
_cell_length_a 23.545324
_cell_length_b 23.545324
_cell_length_c 12.139091
_cell_angle_alpha 90.000000
_cell_angle_beta 90.000000
_cell_angle_gamma 90.000000
_cell_volume 6729.696973
_symmetry_space_group_name_H-M "P 42/N N M"
_symmetry_group_IT_number 134
_space_group.IT_coordinate_system_code '2'
_symmetry_cell_setting 'tetragonal'
loop_
_space_group_symop_operation_xyz
x,y,z
1/2-y,x,1/2+z
1/2-x,1/2-y,z
y,1/2-x,1/2+z
x,1/2-y,1/2-z
1/2-x,y,1/2-z
y,x,-z
1/2-y,1/2-x,-z
-x,-y,-z
1/2+y,-x,1/2-z
1/2+x,1/2+y,-z
-y,1/2+x,1/2-z
-x,1/2+y,1/2+z
1/2+x,-y,1/2+z
-y,-x,z
1/2+y,1/2+x,z
loop_
_atom_site_type_symbol
_atom_site_label
_atom_site_fract_x
_atom_site_fract_y
_atom_site_fract_z
Si Si1 0.093208 0.322820 0.560981
Si Si2 0.610256 0.018331 0.262110
Si Si3 0.497319 0.687455 0.564851
Si Si4 0.306945 0.897739 0.322642
Si Si5 0.420387 0.391670 0.723688
Si Si6 0.690117 0.027914 0.458827
Si Si7 0.885776 0.806386 0.461914
Si Si8 0.462021 0.626126 0.355060
O O1 0.143433 0.356568 0.500000
O O2 0.078911 0.347857 0.677857
O O3 0.112255 0.257742 0.581360
O O4 0.034741 0.327400 0.496098
O O5 0.548947 0.048947 0.257621
O O6 0.643483 0.044727 0.367208
O O7 0.643533 0.030795 0.149191
O O8 0.607411 0.949988 0.266523
O O9 0.476479 0.749353 0.601723
O O10 0.566117 0.685117 0.557437
O O11 0.474373 0.675708 0.441886
O O12 0.250000 0.890509 0.250000
O O13 0.335577 0.835577 0.335696
O O14 0.302341 0.925932 0.443682
O O15 0.347477 0.939397 0.256877
O O16 0.391175 0.356329 0.627618
O O17 0.482475 0.408757 0.679869
O O18 0.821286 0.821286 0.500000
O O19 0.417577 0.582424 0.408443
#
# Coordination Sequence:
#
# PCOD8317222 Si02
#       8
#    16  16  16  16  16  16  16  16
#     4  11  22  38  60  83 117 159 202 250 306 359
#     4  12  24  38  59  89 128 162 196 244 303 365
#     4  10  21  38  61  82 120 162 205 244 292 354
#     4  11  22  39  63  92 122 152 197 250 304 367
#     4  11  21  38  56  89 122 155 195 247 312 367
#     4  11  22  40  61  87 121 163 203 245 292 361
#     4  10  21  38  61  85 114 153 204 262 296 345
#     4  10  20  34  59  89 116 151 198 247 298 361
#
# _framework density 19.020173
#
# number of rings (size 3 to 8) (size 9 to 14) (size 15 to 20)
#    0.000    1.250    5.000    1.875    0.000    0.375 
#    0.000    3.125    0.000    1.500    0.000    0.000 
#    0.000    2.000    0.000    0.000    0.000    0.000 
#
# Total GULP energy -1585950.195374 kJ/mol
# GULP energy per Si atom -12390.235901 kJ/mol
# Density = 1.897688 g / cm^3
# Si number density = 19.020173 Si / 1000 Ang^3
#
#
#
# Elastic Constant Matrix: (Units=GPa)
#
#
# Indices 1 2 3 4 5 6 
#
# 1 82.1753 32.7408 33.9238 0.0000 0.0000 0.0000
# 2 32.7408 82.1773 33.9240 0.0000 0.0000 0.0000
# 3 33.9238 33.9240 78.8652 0.0000 0.0000 0.0000
# 4 0.0000 0.0000 0.0000 56.3003 0.0000 0.0000
# 5 0.0000 0.0000 0.0000 0.0000 56.2717 0.0000
# 6 0.0000 0.0000 0.0000 0.0000 0.0000 47.4408
#
#
#
# Elastic Compliance Matrix: (Units=1/GPa)
#
#
# Indices 1 2 3 4 5 6 
#
# 1 0.015946 -0.004282 -0.005017 0.000000 0.000000 0.000000
# 2 -0.004282 0.015946 -0.005017 0.000000 0.000000 0.000000
# 3 -0.005017 -0.005017 0.016996 0.000000 0.000000 0.000000
# 4 0.000000 0.000000 0.000000 0.017762 0.000000 0.000000
# 5 0.000000 0.000000 0.000000 0.000000 0.017771 0.000000
# 6 0.000000 0.000000 0.000000 0.000000 0.000000 0.021079
#
#
# Mechanical properties :
#
#
# Convention : Reuss Voigt Hill
#
# Bulk Modulus (GPa) = 49.36986 49.37721 49.37354
# Shear Modulus (GPa) = 35.48968 41.51116 38.50042
#
# Velocity S-wave (km/s) = 4.32429 4.67677 4.50398
# Velocity P-wave (km/s) = 7.13762 7.42831 7.28441
#
# Compressibility (1/GPa) = 0.02025527
#
# Stress axis : x y z
#
# Youngs Moduli (GPa) = 62.70971 62.71129 58.83626
#
# Poissons Ratio (x) = 0.26853 0.29521
# Poissons Ratio (y) = 0.26853 0.29520
# Poissons Ratio (z) = 0.31464 0.31464
#
# Static dielectric constant tensor:
#      x y z
#    x 3.463190 0.000000 0.000000 
#    y 0.000000 3.463200 0.000000 
#    z 0.000000 0.000000 3.421990 
# 
# 
# High freq. dielectric constant tensor:
#      x y z
#    x 1.735840 0.000000 0.000000 
#    y 0.000000 1.735840 0.000000 
#    z 0.000000 0.000000 1.740500 
# 
# From -- ./inp_files/5314.got.cif
#   From: 2010.03.12/outbox.cif.g09.slc.cpg/sg134_3_cif.got.tgz:5314.got - 2010.04.06 18:17:22.
