data_PCOD8317782
_publ_section_title
;
Structure prediction by ZEFSAII (Michael W. Deem and Ramdas Pophale) SiO2 
 PCOD8317782
Probable space group: P 42/M N M
;
_chemical_formula_sum "Si O2"
_cell_formula_units_Z 128
_cell_length_a 21.132639
_cell_length_b 21.132639
_cell_length_c 16.803569
_cell_angle_alpha 90.000000
_cell_angle_beta 90.000000
_cell_angle_gamma 90.000000
_cell_volume 7504.279517
_symmetry_space_group_name_H-M "P 42/M N M"
_symmetry_group_IT_number 136
_symmetry_cell_setting 'tetragonal'
loop_
_space_group_symop_operation_xyz
x,y,z
1/2-y,1/2+x,1/2+z
-x,-y,z
1/2+y,1/2-x,1/2+z
1/2+x,1/2-y,1/2-z
1/2-x,1/2+y,1/2-z
y,x,-z
-y,-x,-z
-x,-y,-z
1/2+y,1/2-x,1/2-z
x,y,-z
1/2-y,1/2+x,1/2-z
1/2-x,1/2+y,1/2+z
1/2+x,1/2-y,1/2+z
-y,-x,z
y,x,z
loop_
_atom_site_type_symbol
_atom_site_label
_atom_site_fract_x
_atom_site_fract_y
_atom_site_fract_z
Si Si1 0.146289 0.573942 0.671532
Si Si2 0.336789 0.152494 0.684503
Si Si3 0.230467 0.670901 0.592182
Si Si4 0.857355 0.242937 0.317049
Si Si5 0.052062 0.613088 0.091969
Si Si6 0.218218 0.118113 0.409222
Si Si7 0.890940 0.519076 0.911037
Si Si8 0.746840 0.518730 0.089616
O O1 0.150846 0.587221 0.765657
O O2 0.210216 0.605743 0.634832
O O3 0.143359 0.500472 0.649925
O O4 0.080448 0.604826 0.643757
O O5 0.349774 0.213523 0.739106
O O6 0.384704 0.152382 0.610287
O O7 0.266312 0.153424 0.650314
O O8 0.234278 0.656339 0.500000
O O9 0.297837 0.702164 0.621557
O O10 0.175513 0.721907 0.608726
O O11 0.824357 0.175644 0.299486
O O12 0.929425 0.230538 0.343385
O O13 0.061944 0.538526 0.111835
O O14 0.033375 0.622700 0.000000
O O15 0.243112 0.125068 0.500000
O O16 0.150377 0.150377 0.397852
O O17 0.207531 0.044245 0.388744
O O18 0.819297 0.494735 0.906707
O O19 0.908536 0.541703 0.000000
O O20 0.730779 0.543272 0.000000
#
# Coordination Sequence:
#
# PCOD8317782 Si02
#       8
#    16  16  16  16  16  16  16  16
#     4  11  22  31  48  69 102 134 174 216 263 294
#     4  11  22  33  51  72 101 135 178 219 250 297
#     4   9  16  28  46  67  94 129 167 203 247 302
#     4  10  20  32  49  75 103 129 161 207 259 306
#     4  11  23  35  49  69 100 142 182 214 251 302
#     4  10  21  38  58  75  98 136 177 215 257 308
#     4  10  18  33  49  66  97 139 175 210 247 299
#     4  10  18  32  54  75  99 128 167 210 257 316
#
# _framework density 17.056933000000001
#
# number of rings (size 3 to 8) (size 9 to 14) (size 15 to 20)
#    0.000    1.750    3.750    2.625    3.500    2.250 
#    0.000    0.000    0.000    0.375    0.000    1.750 
#    0.000    0.000    0.000    0.000    0.000    1.250 
#
# Total GULP energy -1586436.068562 kJ/mol
# GULP energy per Si atom -12394.031786 kJ/mol
# Density = 1.701811 g / cm^3
# Si number density = 17.056933 Si / 1000 Ang^3
#
#
#
# Elastic Constant Matrix: (Units=GPa)
#
#
# Indices 1 2 3 4 5 6 
#
# 1 67.6160 39.4622 25.8871 0.0000 0.0000 0.0000
# 2 39.4622 67.6160 25.8871 0.0000 0.0000 0.0000
# 3 25.8871 25.8871 60.3485 0.0000 0.0000 0.0000
# 4 0.0000 0.0000 0.0000 19.2286 0.0000 0.0000
# 5 0.0000 0.0000 0.0000 0.0000 19.2286 0.0000
# 6 0.0000 0.0000 0.0000 0.0000 0.0000 32.5277
#
#
#
# Elastic Compliance Matrix: (Units=1/GPa)
#
#
# Indices 1 2 3 4 5 6 
#
# 1 0.023651 -0.011868 -0.005054 0.000000 0.000000 0.000000
# 2 -0.011868 0.023651 -0.005054 0.000000 0.000000 0.000000
# 3 -0.005054 -0.005054 0.020907 0.000000 0.000000 0.000000
# 4 0.000000 0.000000 0.000000 0.052006 0.000000 0.000000
# 5 0.000000 0.000000 0.000000 0.000000 0.052006 0.000000
# 6 0.000000 0.000000 0.000000 0.000000 0.000000 0.030743
#
#
# Mechanical properties :
#
#
# Convention : Reuss Voigt Hill
#
# Bulk Modulus (GPa) = 41.22882 42.00592 41.61737
# Shear Modulus (GPa) = 19.60765 21.15324 20.38045
#
# Velocity S-wave (km/s) = 3.39417 3.52540 3.46041
# Velocity P-wave (km/s) = 6.29160 6.42274 6.35751
#
# Compressibility (1/GPa) = 0.02425488
#
# Stress axis : x y z
#
# Youngs Moduli (GPa) = 42.28147 42.28147 47.83168
#
# Poissons Ratio (x) = 0.50180 0.24176
# Poissons Ratio (y) = 0.50180 0.24176
# Poissons Ratio (z) = 0.21371 0.21371
#
# Static dielectric constant tensor:
#      x y z
#    x 3.101810 0.000000 0.000000 
#    y 0.000000 3.101810 0.000000 
#    z 0.000000 0.000000 3.208820 
# 
# 
# High freq. dielectric constant tensor:
#      x y z
#    x 1.635360 0.000000 0.000000 
#    y 0.000000 1.635360 0.000000 
#    z 0.000000 0.000000 1.661620 
# 
# From -- ./inp_files/6632.got.cif
#   From: 2010.03.12/outbox.cif.g09.slc.cpg/sg136_4_cif.got.tgz:6632.got - 2010.04.06 18:39:43.
