data_PCOD8317605
_publ_section_title
;
Structure prediction by ZEFSAII (Michael W. Deem and Ramdas Pophale) SiO2 
 PCOD8317605
Probable space group: P 42/M B C
;
_chemical_formula_sum "Si O2"
_cell_formula_units_Z 84
_cell_length_a 13.696809
_cell_length_b 13.696809
_cell_length_c 21.760599
_cell_angle_alpha 90.000000
_cell_angle_beta 90.000000
_cell_angle_gamma 90.000000
_cell_volume 4082.344445
_symmetry_space_group_name_H-M "P 42/M B C"
_symmetry_group_IT_number 135
_symmetry_cell_setting 'tetragonal'
loop_
_space_group_symop_operation_xyz
x,y,z
-y,x,1/2+z
-x,-y,z
y,-x,1/2+z
1/2+x,1/2-y,-z
1/2-x,1/2+y,-z
1/2+y,1/2+x,1/2-z
1/2-y,1/2-x,1/2-z
-x,-y,-z
y,-x,1/2-z
x,y,-z
-y,x,1/2-z
1/2-x,1/2+y,z
1/2+x,1/2-y,z
1/2-y,1/2-x,1/2+z
1/2+y,1/2+x,1/2+z
loop_
_atom_site_type_symbol
_atom_site_label
_atom_site_fract_x
_atom_site_fract_y
_atom_site_fract_z
Si Si1 0.346428 0.963584 0.705772
Si Si2 0.000000 0.000000 0.750000
Si Si3 0.397627 0.107601 0.000000
Si Si4 0.847977 0.722879 0.375762
Si Si5 0.296520 0.524115 0.192830
Si Si6 0.884128 0.621732 0.000000
Si Si7 0.841180 0.333774 0.868179
O O1 0.439706 0.939706 0.750000
O O2 0.321687 0.866202 0.668838
O O3 0.250164 0.988666 0.743608
O O4 0.369069 0.056001 0.661528
O O5 0.911922 0.967949 0.795144
O O6 0.338272 0.136645 0.060711
O O7 0.504026 0.161744 0.000000
O O8 0.402338 0.992295 0.000000
O O9 0.953532 0.767750 0.363163
O O10 0.840377 0.678514 0.443215
O O11 0.780749 0.818259 0.365733
O O12 0.249521 0.625355 0.171435
#
# Coordination Sequence:
#
# PCOD8317605 Si02
#       7
#    16   4   8  16  16   8  16
#     4  10  23  40  64  99 130 166 211 272 326 381
#     4  12  24  44  60  86 132 180 208 252 328 414
#     4  11  23  40  70  91 124 166 211 275 339 368
#     4  11  23  40  65  91 129 166 212 264 320 387
#     4  11  24  40  63  90 129 166 211 259 318 393
#     4  11  21  42  66  93 124 164 211 273 333 372
#     4  12  23  41  65  96 126 169 217 268 325 389
#
# _framework density 20.576412000000001
#
# number of rings (size 3 to 8) (size 9 to 14) (size 15 to 20)
#    0.000    0.952    3.810    3.429    0.000    8.381 
#    0.000    0.000    0.000    1.143    0.000    0.000 
#    0.000    0.000    0.000    0.000    0.000    0.000 
#
# Total GULP energy -1041261.066908 kJ/mol
# GULP energy per Si atom -12395.965082 kJ/mol
# Density = 2.052958 g / cm^3
# Si number density = 20.576412 Si / 1000 Ang^3
#
#
#
# Elastic Constant Matrix: (Units=GPa)
#
#
# Indices 1 2 3 4 5 6 
#
# 1 83.3219 17.5184 25.8589 0.0000 0.0000 0.0000
# 2 17.5184 83.3219 25.8589 0.0000 0.0000 0.0000
# 3 25.8589 25.8589 119.8861 0.0000 0.0000 0.0000
# 4 0.0000 0.0000 0.0000 36.2922 0.0000 0.0000
# 5 0.0000 0.0000 0.0000 0.0000 36.2922 0.0000
# 6 0.0000 0.0000 0.0000 0.0000 0.0000 33.9364
#
#
#
# Elastic Compliance Matrix: (Units=1/GPa)
#
#
# Indices 1 2 3 4 5 6 
#
# 1 0.013173 -0.002023 -0.002405 0.000000 0.000000 0.000000
# 2 -0.002023 0.013173 -0.002405 0.000000 0.000000 0.000000
# 3 -0.002405 -0.002405 0.009379 0.000000 0.000000 0.000000
# 4 0.000000 0.000000 0.000000 0.027554 0.000000 0.000000
# 5 0.000000 0.000000 0.000000 0.000000 0.027554 0.000000
# 6 0.000000 0.000000 0.000000 0.000000 0.000000 0.029467
#
#
# Mechanical properties :
#
#
# Convention : Reuss Voigt Hill
#
# Bulk Modulus (GPa) = 45.33319 47.22249 46.27784
# Shear Modulus (GPa) = 35.38055 35.79039 35.58547
#
# Velocity S-wave (km/s) = 4.15115 4.17512 4.16315
# Velocity P-wave (km/s) = 6.71234 6.80014 6.75638
#
# Compressibility (1/GPa) = 0.02205889
#
# Stress axis : x y z
#
# Youngs Moduli (GPa) = 75.91030 75.91030 106.62384
#
# Poissons Ratio (x) = 0.15359 0.25643
# Poissons Ratio (y) = 0.15359 0.25643
# Poissons Ratio (z) = 0.18257 0.18257
#
# Static dielectric constant tensor:
#      x y z
#    x 3.694450 0.000000 0.000000 
#    y 0.000000 3.694450 0.000000 
#    z 0.000000 0.000000 3.961340 
# 
# 
# High freq. dielectric constant tensor:
#      x y z
#    x 1.801680 0.000000 0.000000 
#    y 0.000000 1.801680 0.000000 
#    z 0.000000 0.000000 1.811120 
# 
# From -- ./inp_files/5388.got.cif
#   From: 2010.03.12/outbox.cif.g09.slc.cpg/sg135_3_cif.got.tgz:5388.got - 2010.04.06 18:31:24.
