data_PCOD8317323
_publ_section_title
;
Structure prediction by ZEFSAII (Michael W. Deem and Ramdas Pophale) SiO2 
 PCOD8317323
Probable space group: P 42/N N M
;
_chemical_formula_sum "Si O2"
_cell_formula_units_Z 48
_cell_length_a 12.833876
_cell_length_b 12.833876
_cell_length_c 14.715977
_cell_angle_alpha 90.000000
_cell_angle_beta 90.000000
_cell_angle_gamma 90.000000
_cell_volume 2423.844631
_symmetry_space_group_name_H-M "P 42/N N M"
_symmetry_group_IT_number 134
_space_group.IT_coordinate_system_code '2'
_symmetry_cell_setting 'tetragonal'
loop_
_space_group_symop_operation_xyz
x,y,z
1/2-y,x,1/2+z
1/2-x,1/2-y,z
y,1/2-x,1/2+z
x,1/2-y,1/2-z
1/2-x,y,1/2-z
y,x,-z
1/2-y,1/2-x,-z
-x,-y,-z
1/2+y,-x,1/2-z
1/2+x,1/2+y,-z
-y,1/2+x,1/2-z
-x,1/2+y,1/2+z
1/2+x,-y,1/2+z
-y,-x,z
1/2+y,1/2+x,z
loop_
_atom_site_type_symbol
_atom_site_label
_atom_site_fract_x
_atom_site_fract_y
_atom_site_fract_z
Si Si1 0.167135 0.995867 0.981976
Si Si2 0.137600 0.211062 0.351636
Si Si3 0.979226 0.193805 0.653900
O O1 0.249295 0.039369 0.909352
O O2 0.085313 0.085313 0.000000
O O3 0.221384 0.965194 0.075784
O O4 0.107007 0.892994 0.944527
O O5 0.250000 0.250000 0.390165
O O6 0.122887 0.250000 0.250000
O O7 0.132223 0.087079 0.356651
O O8 0.975933 0.250000 0.750000
O O9 0.886463 0.113538 0.645644
#
# Coordination Sequence:
#
# PCOD8317323 Si02
#       3
#    16  16  16
#     4  11  23  39  64  94 129 173 217 263 323 387
#     4  11  21  41  67  94 128 168 219 268 318 390
#     4  12  25  42  67  98 132 173 218 270 331 391
#
# _framework density 19.803250999999999
#
# number of rings (size 3 to 8) (size 9 to 14) (size 15 to 20)
#    0.000    0.667    6.667    2.000    0.000    9.000 
#    0.000    0.000    0.000    0.000    0.000    2.333 
#    0.000    0.000    0.000    0.000    0.000    0.000 
#
# Total GULP energy -595326.298244 kJ/mol
# GULP energy per Si atom -12402.631213 kJ/mol
# Density = 1.975818 g / cm^3
# Si number density = 19.803251 Si / 1000 Ang^3
#
#
#
# Elastic Constant Matrix: (Units=GPa)
#
#
# Indices 1 2 3 4 5 6 
#
# 1 458.8999 -245.5144 63.3779 0.0000 0.0000 0.0000
# 2 -245.5144 458.8999 63.3779 0.0000 0.0000 0.0000
# 3 63.3779 63.3779 110.6171 0.0000 0.0000 0.0000
# 4 0.0000 0.0000 0.0000 28.5221 0.0000 0.0000
# 5 0.0000 0.0000 0.0000 0.0000 28.5221 0.0000
# 6 0.0000 0.0000 0.0000 0.0000 0.0000 58.9124
#
#
#
# Elastic Compliance Matrix: (Units=1/GPa)
#
#
# Indices 1 2 3 4 5 6 
#
# 1 0.004262 0.002842 -0.004070 0.000000 0.000000 0.000000
# 2 0.002842 0.004262 -0.004070 0.000000 0.000000 0.000000
# 3 -0.004070 -0.004070 0.013704 0.000000 0.000000 0.000000
# 4 0.000000 0.000000 0.000000 0.035061 0.000000 0.000000
# 5 0.000000 0.000000 0.000000 0.000000 0.035061 0.000000
# 6 0.000000 0.000000 0.000000 0.000000 0.000000 0.016974
#
#
# Mechanical properties :
#
#
# Convention : Reuss Voigt Hill
#
# Bulk Modulus (GPa) = 85.97387 87.87772 86.92579
# Shear Modulus (GPa) = 40.38847 99.66968 70.02908
#
# Velocity S-wave (km/s) = 4.52097 7.10206 5.95308
# Velocity P-wave (km/s) = 8.41192 10.56996 9.55208
#
# Compressibility (1/GPa) = 0.01163144
#
# Stress axis : x y z
#
# Youngs Moduli (GPa) = 234.63536 234.63536 72.96917
#
# Poissons Ratio (x) = -0.66691 0.29701
# Poissons Ratio (y) = -0.66691 0.29701
# Poissons Ratio (z) = 0.95505 0.95505
#
# Static dielectric constant tensor:
#      x y z
#    x 3.803140 0.000000 0.000000 
#    y 0.000000 3.803140 0.000000 
#    z 0.000000 0.000000 3.661400 
# 
# 
# High freq. dielectric constant tensor:
#      x y z
#    x 1.773170 0.000000 0.000000 
#    y 0.000000 1.773170 0.000000 
#    z 0.000000 0.000000 1.778110 
# 
# From -- ./inp_files/5833.got.cif
#   From: 2010.03.12/outbox.cif.g09.slc.cpg/sg134_3_cif.got.tgz:5833.got - 2010.04.06 18:17:22.
