data_PCOD8317329
_publ_section_title
;
Structure prediction by ZEFSAII (Michael W. Deem and Ramdas Pophale) SiO2 
 PCOD8317329
Probable space group: P 42/N N M
;
_chemical_formula_sum "Si O2"
_cell_formula_units_Z 96
_cell_length_a 14.901392
_cell_length_b 14.901392
_cell_length_c 22.393724
_cell_angle_alpha 90.000000
_cell_angle_beta 90.000000
_cell_angle_gamma 90.000000
_cell_volume 4972.559636
_symmetry_space_group_name_H-M "P 42/N N M"
_symmetry_group_IT_number 134
_space_group.IT_coordinate_system_code '2'
_symmetry_cell_setting 'tetragonal'
loop_
_space_group_symop_operation_xyz
x,y,z
1/2-y,x,1/2+z
1/2-x,1/2-y,z
y,1/2-x,1/2+z
x,1/2-y,1/2-z
1/2-x,y,1/2-z
y,x,-z
1/2-y,1/2-x,-z
-x,-y,-z
1/2+y,-x,1/2-z
1/2+x,1/2+y,-z
-y,1/2+x,1/2-z
-x,1/2+y,1/2+z
1/2+x,-y,1/2+z
-y,-x,z
1/2+y,1/2+x,z
loop_
_atom_site_type_symbol
_atom_site_label
_atom_site_fract_x
_atom_site_fract_y
_atom_site_fract_z
Si Si1 0.926998 0.073003 0.166918
Si Si2 0.574843 0.074843 0.193889
Si Si3 0.426466 0.926466 0.187078
Si Si4 0.073334 0.573334 0.326968
Si Si5 0.487025 0.763309 0.882184
Si Si6 0.891270 0.248778 0.998402
Si Si7 0.825469 0.822524 0.567587
Si Si8 0.257756 0.502353 0.382484
O O1 0.911572 0.088429 0.236426
O O2 0.965611 0.162557 0.137363
O O3 0.000856 0.999145 0.155846
O O4 0.543569 0.170448 0.169748
O O5 0.501396 0.001396 0.174813
O O6 0.412152 0.912152 0.256985
O O7 0.333757 0.953447 0.157379
O O8 0.165006 0.533688 0.353318
O O9 0.427967 0.785566 0.939612
O O10 0.591099 0.778144 0.897650
O O11 0.852476 0.147525 0.004490
O O12 0.812670 0.312670 0.975598
O O13 0.969390 0.253836 0.950929
O O14 0.750000 0.750000 0.559302
O O15 0.854463 0.854463 0.500000
O O16 0.781484 0.897495 0.611158
#
# Coordination Sequence:
#
# PCOD8317329 Si02
#       8
#     8   8   8   8  16  16  16  16
#     4  11  26  44  63  90 130 174 215 263 313 376
#     4  11  24  42  67  92 126 165 215 271 316 373
#     4  11  24  42  67  92 126 165 215 271 316 373
#     4  11  26  44  63  90 130 174 215 263 313 376
#     4  12  22  42  66  94 128 166 215 261 325 383
#     4  11  22  37  60  95 131 161 195 262 332 385
#     4  11  24  39  63  97 133 172 211 259 319 392
#     4  12  22  42  66  94 128 166 215 261 325 383
#
# _framework density 19.305952999999999
#
# number of rings (size 3 to 8) (size 9 to 14) (size 15 to 20)
#    0.000    0.667    6.667    2.000    0.000    0.667 
#    0.000    5.000    0.000    0.000    0.000    0.000 
#    0.000    0.000    0.000    0.000    0.000    0.000 
#
# Total GULP energy -1190054.407502 kJ/mol
# GULP energy per Si atom -12396.400078 kJ/mol
# Density = 1.926201 g / cm^3
# Si number density = 19.305953 Si / 1000 Ang^3
#
#
#
# Elastic Constant Matrix: (Units=GPa)
#
#
# Indices 1 2 3 4 5 6 
#
# 1 178.1899 8.5741 65.7485 0.0000 0.0000 0.0000
# 2 8.5741 178.1899 65.7485 0.0000 0.0000 0.0000
# 3 65.7485 65.7485 87.2020 0.0000 0.0000 0.0000
# 4 0.0000 0.0000 0.0000 21.6579 0.0000 0.0000
# 5 0.0000 0.0000 0.0000 0.0000 21.6579 0.0000
# 6 0.0000 0.0000 0.0000 0.0000 0.0000 30.2975
#
#
#
# Elastic Compliance Matrix: (Units=1/GPa)
#
#
# Indices 1 2 3 4 5 6 
#
# 1 0.008654 0.002759 -0.008605 0.000000 0.000000 0.000000
# 2 0.002759 0.008654 -0.008605 0.000000 0.000000 0.000000
# 3 -0.008605 -0.008605 0.024444 0.000000 0.000000 0.000000
# 4 0.000000 0.000000 0.000000 0.046173 0.000000 0.000000
# 5 0.000000 0.000000 0.000000 0.000000 0.046173 0.000000
# 6 0.000000 0.000000 0.000000 0.000000 0.000000 0.033006
#
#
# Mechanical properties :
#
#
# Convention : Reuss Voigt Hill
#
# Bulk Modulus (GPa) = 77.82575 80.41379 79.11977
# Shear Modulus (GPa) = 24.96368 34.95669 29.96018
#
# Velocity S-wave (km/s) = 3.59981 4.25981 3.94364
# Velocity P-wave (km/s) = 7.59457 8.12019 7.86177
#
# Compressibility (1/GPa) = 0.01284922
#
# Stress axis : x y z
#
# Youngs Moduli (GPa) = 115.54771 115.54771 40.90969
#
# Poissons Ratio (x) = -0.31877 0.35204
# Poissons Ratio (y) = -0.31877 0.35204
# Poissons Ratio (z) = 0.99432 0.99432
#
# Static dielectric constant tensor:
#      x y z
#    x 2.469560 0.000000 0.000000 
#    y 0.000000 2.469560 0.000000 
#    z 0.000000 0.000000 3.626530 
# 
# 
# High freq. dielectric constant tensor:
#      x y z
#    x 1.761130 0.000000 0.000000 
#    y 0.000000 1.761130 0.000000 
#    z 0.000000 0.000000 1.761730 
# 
# From -- ./inp_files/9215.got.cif
#   From: 2010.03.12/outbox.cif.g09.slc.cpg/sg134_5_cif.got.tgz:9215.got - 2010.04.06 18:17:22.
