data_PCOD8317691
_publ_section_title
;
Structure prediction by ZEFSAII (Michael W. Deem and Ramdas Pophale) SiO2 
 PCOD8317691
Probable space group: P 42/M N M
;
_chemical_formula_sum "Si O2"
_cell_formula_units_Z 88
_cell_length_a 14.600939
_cell_length_b 14.600939
_cell_length_c 25.898039
_cell_angle_alpha 90.000000
_cell_angle_beta 90.000000
_cell_angle_gamma 90.000000
_cell_volume 5521.136109
_symmetry_space_group_name_H-M "P 42/M N M"
_symmetry_group_IT_number 136
_symmetry_cell_setting 'tetragonal'
loop_
_space_group_symop_operation_xyz
x,y,z
1/2-y,1/2+x,1/2+z
-x,-y,z
1/2+y,1/2-x,1/2+z
1/2+x,1/2-y,1/2-z
1/2-x,1/2+y,1/2-z
y,x,-z
-y,-x,-z
-x,-y,-z
1/2+y,1/2-x,1/2-z
x,y,-z
1/2-y,1/2+x,1/2-z
1/2-x,1/2+y,1/2+z
1/2+x,1/2-y,1/2+z
-y,-x,z
y,x,z
loop_
_atom_site_type_symbol
_atom_site_label
_atom_site_fract_x
_atom_site_fract_y
_atom_site_fract_z
Si Si1 0.848002 0.536985 0.000000
Si Si2 0.458249 0.142093 0.306838
Si Si3 0.481327 0.762382 0.596750
Si Si4 0.146648 0.466998 0.807123
Si Si5 0.541641 0.863628 0.500000
Si Si6 0.574851 0.425150 0.557022
Si Si7 0.364472 0.211197 0.901589
O O1 0.789473 0.566547 0.950074
O O2 0.868185 0.428152 0.000000
O O3 0.947428 0.581538 0.000000
O O4 0.463618 0.220406 0.350165
O O5 0.451072 0.188645 0.250165
O O6 0.549511 0.082413 0.309795
O O7 0.371511 0.075099 0.317527
O O8 0.544277 0.801860 0.551049
O O9 0.470420 0.654959 0.589992
O O10 0.380145 0.804527 0.597271
O O11 0.215624 0.425454 0.849505
O O12 0.500000 0.500000 0.547180
O O13 0.609667 0.390334 0.500000
O O14 0.299728 0.299728 0.904299
#
# Coordination Sequence:
#
# PCOD8317691 Si02
#       7
#     8  16  16  16   8   8  16
#     4   9  17  24  35  60  88 110 137 171 202 258
#     4   8  14  25  43  59  81 110 145 186 218 263
#     4  10  17  28  44  59  78 111 150 181 220 255
#     4   8  14  25  39  62  85 110 144 179 221 262
#     4   9  16  25  40  59  80 105 140 178 211 249
#     4  11  22  34  44  58  82 114 154 193 225 258
#     4  10  17  24  38  59  89 118 142 169 211 265
#
# _framework density 15.938749
#
# number of rings (size 3 to 8) (size 9 to 14) (size 15 to 20)
#    0.000    2.818    1.818    2.455    0.000    4.364 
#    0.000    0.909    0.000    0.000    0.000    0.000 
#    0.000    0.000    0.000    0.000    0.000   17.455 
#
# Total GULP energy -1090677.712390 kJ/mol
# GULP energy per Si atom -12394.064914 kJ/mol
# Density = 1.590247 g / cm^3
# Si number density = 15.938749 Si / 1000 Ang^3
#
#
#
# Elastic Constant Matrix: (Units=GPa)
#
#
# Indices 1 2 3 4 5 6 
#
# 1 54.5924 41.2500 52.1656 0.0000 0.0000 0.0000
# 2 41.2500 54.5923 52.1655 0.0000 0.0000 0.0000
# 3 52.1656 52.1655 160.0122 0.0000 0.0000 0.0000
# 4 0.0000 0.0000 0.0000 10.9279 0.0000 0.0000
# 5 0.0000 0.0000 0.0000 0.0000 10.9279 0.0000
# 6 0.0000 0.0000 0.0000 0.0000 0.0000 24.9528
#
#
#
# Elastic Compliance Matrix: (Units=1/GPa)
#
#
# Indices 1 2 3 4 5 6 
#
# 1 0.045562 -0.029388 -0.005273 0.000000 0.000000 0.000000
# 2 -0.029388 0.045562 -0.005273 0.000000 0.000000 0.000000
# 3 -0.005273 -0.005273 0.009687 0.000000 0.000000 0.000000
# 4 0.000000 0.000000 0.000000 0.091509 0.000000 0.000000
# 5 0.000000 0.000000 0.000000 0.000000 0.091509 0.000000
# 6 0.000000 0.000000 0.000000 0.000000 0.000000 0.040076
#
#
# Mechanical properties :
#
#
# Convention : Reuss Voigt Hill
#
# Bulk Modulus (GPa) = 47.74729 62.26212 55.00470
# Shear Modulus (GPa) = 12.17277 17.60275 14.88776
#
# Velocity S-wave (km/s) = 2.76655 3.32686 3.05956
# Velocity P-wave (km/s) = 6.34246 7.34203 6.86048
#
# Compressibility (1/GPa) = 0.02094360
#
# Stress axis : x y z
#
# Youngs Moduli (GPa) = 21.94831 21.94829 103.22638
#
# Poissons Ratio (x) = 0.64502 0.54429
# Poissons Ratio (y) = 0.64502 0.54428
# Poissons Ratio (z) = 0.11573 0.11573
#
# Static dielectric constant tensor:
#      x y z
#    x 2.733740 0.000000 0.000000 
#    y 0.000000 2.733740 0.000000 
#    z 0.000000 0.000000 3.441540 
# 
# 
# High freq. dielectric constant tensor:
#      x y z
#    x 1.569890 0.000000 0.000000 
#    y 0.000000 1.569890 0.000000 
#    z 0.000000 0.000000 1.631200 
# 
# From -- ./inp_files/8366.got.cif
#   From: 2010.03.12/outbox.cif.g09.slc.cpg/sg136_5_cif.got.tgz:8366.got - 2010.04.06 18:39:43.
