data_PCOD8317134
_publ_section_title
;
Structure prediction by ZEFSAII (Michael W. Deem and Ramdas Pophale) SiO2 
 PCOD8317134
Probable space group: P 42/N N M
;
_chemical_formula_sum "Si O2"
_cell_formula_units_Z 80
_cell_length_a 11.559149
_cell_length_b 11.559149
_cell_length_c 32.723807
_cell_angle_alpha 90.000000
_cell_angle_beta 90.000000
_cell_angle_gamma 90.000000
_cell_volume 4372.356314
_symmetry_space_group_name_H-M "P 42/N N M"
_symmetry_group_IT_number 134
_space_group.IT_coordinate_system_code '2'
_symmetry_cell_setting 'tetragonal'
loop_
_space_group_symop_operation_xyz
x,y,z
1/2-y,x,1/2+z
1/2-x,1/2-y,z
y,1/2-x,1/2+z
x,1/2-y,1/2-z
1/2-x,y,1/2-z
y,x,-z
1/2-y,1/2-x,-z
-x,-y,-z
1/2+y,-x,1/2-z
1/2+x,1/2+y,-z
-y,1/2+x,1/2-z
-x,1/2+y,1/2+z
1/2+x,-y,1/2+z
-y,-x,z
1/2+y,1/2+x,z
loop_
_atom_site_type_symbol
_atom_site_label
_atom_site_fract_x
_atom_site_fract_y
_atom_site_fract_z
Si Si1 0.436970 0.749171 0.514624
Si Si2 0.628806 0.944508 0.635726
Si Si3 0.255324 0.938281 0.204090
Si Si4 0.809949 0.492786 0.925741
Si Si5 0.379710 0.264448 0.417853
O O1 0.354050 0.645950 0.530200
O O2 0.362861 0.862861 0.504464
O O3 0.504734 0.709499 0.474208
O O4 0.527536 0.781337 0.549790
O O5 0.606973 0.809508 0.624418
O O6 0.506891 0.006891 0.645397
O O7 0.719941 0.957940 0.673328
O O8 0.686671 0.006264 0.596549
O O9 0.250000 0.988598 0.250000
O O10 0.163307 0.836694 0.198920
O O11 0.382665 0.882665 0.194739
O O12 0.872493 0.372493 0.915076
O O13 0.892528 0.598131 0.910118
O O14 0.250000 0.250000 0.435781
#
# Coordination Sequence:
#
# PCOD8317134 Si02
#       5
#    16  16  16  16  16
#     4  10  20  34  51  68  87 118 166 216 249 274
#     4  10  19  30  47  71  97 121 148 189 237 283
#     4   8  14  26  46  72  99 125 153 186 228 280
#     4  10  20  33  48  65  89 124 165 203 236 276
#     4  10  21  33  45  64  94 127 157 188 231 286
#
# _framework density 18.296769999999999
#
# number of rings (size 3 to 8) (size 9 to 14) (size 15 to 20)
#    0.000    2.400    0.000    3.600    0.000    9.200 
#    0.000    5.000    0.000    5.400    0.000    0.000 
#    0.000    0.000    0.000    0.000    0.000  182.600 
#
# Total GULP energy -991482.948463 kJ/mol
# GULP energy per Si atom -12393.536856 kJ/mol
# Density = 1.825513 g / cm^3
# Si number density = 18.296770 Si / 1000 Ang^3
#
#
#
# Elastic Constant Matrix: (Units=GPa)
#
#
# Indices 1 2 3 4 5 6 
#
# 1 70.4342 17.3694 33.3261 0.0000 0.0000 0.0000
# 2 17.3694 70.4342 33.3261 0.0000 0.0000 0.0000
# 3 33.3261 33.3261 97.0839 0.0000 0.0000 0.0000
# 4 0.0000 0.0000 0.0000 23.7472 0.0000 0.0000
# 5 0.0000 0.0000 0.0000 0.0000 23.7472 0.0000
# 6 0.0000 0.0000 0.0000 0.0000 0.0000 17.9659
#
#
#
# Elastic Compliance Matrix: (Units=1/GPa)
#
#
# Indices 1 2 3 4 5 6 
#
# 1 0.017124 -0.001721 -0.005287 0.000000 0.000000 0.000000
# 2 -0.001721 0.017124 -0.005287 0.000000 0.000000 0.000000
# 3 -0.005287 -0.005287 0.013930 0.000000 0.000000 0.000000
# 4 0.000000 0.000000 0.000000 0.042110 0.000000 0.000000
# 5 0.000000 0.000000 0.000000 0.000000 0.042110 0.000000
# 6 0.000000 0.000000 0.000000 0.000000 0.000000 0.055661
#
#
# Mechanical properties :
#
#
# Convention : Reuss Voigt Hill
#
# Bulk Modulus (GPa) = 42.39717 45.11062 43.75389
# Shear Modulus (GPa) = 22.67442 23.35411 23.01427
#
# Velocity S-wave (km/s) = 3.52413 3.57656 3.55044
# Velocity P-wave (km/s) = 6.30726 6.46252 6.38536
#
# Compressibility (1/GPa) = 0.02358648
#
# Stress axis : x y z
#
# Youngs Moduli (GPa) = 58.39839 58.39839 71.78595
#
# Poissons Ratio (x) = 0.10051 0.37955
# Poissons Ratio (y) = 0.10051 0.37955
# Poissons Ratio (z) = 0.30877 0.30877
#
# Static dielectric constant tensor:
#      x y z
#    x 3.378070 0.000000 0.000000 
#    y 0.000000 3.378070 0.000000 
#    z 0.000000 0.000000 3.354480 
# 
# 
# High freq. dielectric constant tensor:
#      x y z
#    x 1.697110 0.000000 0.000000 
#    y 0.000000 1.697110 0.000000 
#    z 0.000000 0.000000 1.683060 
# 
# From -- ./inp_files/11253.got.cif
#   From: 2010.03.12/outbox.cif.g09.slc.cpg/sg134_6_cif.got.tgz:11253.got - 2010.04.06 18:17:22.
