data_PCOD8317704
_publ_section_title
;
Structure prediction by ZEFSAII (Michael W. Deem and Ramdas Pophale) SiO2 
 PCOD8317704
Probable space group: P 42/M N M
;
_chemical_formula_sum "Si O2"
_cell_formula_units_Z 56
_cell_length_a 13.965455
_cell_length_b 13.965455
_cell_length_c 17.860890
_cell_angle_alpha 90.000000
_cell_angle_beta 90.000000
_cell_angle_gamma 90.000000
_cell_volume 3483.479630
_symmetry_space_group_name_H-M "P 42/M N M"
_symmetry_group_IT_number 136
_symmetry_cell_setting 'tetragonal'
loop_
_space_group_symop_operation_xyz
x,y,z
1/2-y,1/2+x,1/2+z
-x,-y,z
1/2+y,1/2-x,1/2+z
1/2+x,1/2-y,1/2-z
1/2-x,1/2+y,1/2-z
y,x,-z
-y,-x,-z
-x,-y,-z
1/2+y,1/2-x,1/2-z
x,y,-z
1/2-y,1/2+x,1/2-z
1/2-x,1/2+y,1/2+z
1/2+x,1/2-y,1/2+z
-y,-x,z
y,x,z
loop_
_atom_site_type_symbol
_atom_site_label
_atom_site_fract_x
_atom_site_fract_y
_atom_site_fract_z
Si Si1 0.901945 0.256931 0.374336
Si Si2 0.026937 0.389641 0.083402
Si Si3 0.505055 0.345270 0.000000
Si Si4 0.463448 0.149870 0.733237
O O1 0.808856 0.191145 0.381280
O O2 0.874534 0.360282 0.406545
O O3 0.988832 0.216906 0.424968
O O4 0.935559 0.261457 0.287161
O O5 0.969677 0.324316 0.144357
O O6 0.000000 0.500000 0.099799
O O7 0.995526 0.358787 0.000000
O O8 0.431960 0.431960 0.000000
O O9 0.613290 0.386711 0.000000
O O10 0.384795 0.068227 0.743169
#
# Coordination Sequence:
#
# PCOD8317704 Si02
#       4
#    16  16   8  16
#     4  10  18  29  47  71  97 127 166 206 240 284
#     4  10  17  28  50  70  89 123 165 199 241 296
#     4   9  18  32  47  66  98 134 161 192 246 309
#     4   9  15  29  45  66  91 122 159 193 242 293
#
# _framework density 16.075880000000002
#
# number of rings (size 3 to 8) (size 9 to 14) (size 15 to 20)
#    0.000    2.429    7.143    0.000    0.000    0.000 
#    0.000    5.714    0.000    0.857    0.000    0.000 
#    0.000    0.000    0.000   17.429    0.000    0.000 
#
# Total GULP energy -693786.373906 kJ/mol
# GULP energy per Si atom -12389.042391 kJ/mol
# Density = 1.603929 g / cm^3
# Si number density = 16.075880 Si / 1000 Ang^3
#
#
#
# Elastic Constant Matrix: (Units=GPa)
#
#
# Indices 1 2 3 4 5 6 
#
# 1 48.0572 23.9169 29.1846 0.0000 0.0000 0.0000
# 2 23.9169 48.0574 29.1847 0.0000 0.0000 0.0000
# 3 29.1846 29.1847 171.8406 0.0000 0.0000 0.0000
# 4 0.0000 0.0000 0.0000 19.4340 0.0000 0.0000
# 5 0.0000 0.0000 0.0000 0.0000 19.4331 0.0000
# 6 0.0000 0.0000 0.0000 0.0000 0.0000 15.4895
#
#
#
# Elastic Compliance Matrix: (Units=1/GPa)
#
#
# Indices 1 2 3 4 5 6 
#
# 1 0.028769 -0.012656 -0.002737 0.000000 0.000000 0.000000
# 2 -0.012656 0.028769 -0.002737 0.000000 0.000000 0.000000
# 3 -0.002737 -0.002737 0.006749 0.000000 0.000000 0.000000
# 4 0.000000 0.000000 0.000000 0.051456 0.000000 0.000000
# 5 0.000000 0.000000 0.000000 0.000000 0.051459 0.000000
# 6 0.000000 0.000000 0.000000 0.000000 0.000000 0.064560
#
#
# Mechanical properties :
#
#
# Convention : Reuss Voigt Hill
#
# Bulk Modulus (GPa) = 35.67753 48.05863 41.86808
# Shear Modulus (GPa) = 18.02699 23.24923 20.63811
#
# Velocity S-wave (km/s) = 3.35232 3.80704 3.58689
# Velocity P-wave (km/s) = 6.10126 7.02030 6.57685
#
# Compressibility (1/GPa) = 0.02802884
#
# Stress axis : x y z
#
# Youngs Moduli (GPa) = 34.75988 34.76001 148.17256
#
# Poissons Ratio (x) = 0.43991 0.40549
# Poissons Ratio (y) = 0.43991 0.40549
# Poissons Ratio (z) = 0.09512 0.09512
#
# Static dielectric constant tensor:
#      x y z
#    x 2.828140 0.000000 0.000000 
#    y 0.000000 2.828140 0.000000 
#    z 0.000000 0.000000 3.671530 
# 
# 
# High freq. dielectric constant tensor:
#      x y z
#    x 1.578250 0.000000 0.000000 
#    y 0.000000 1.578240 0.000000 
#    z 0.000000 0.000000 1.644510 
# 
# From -- ./inp_files/5834.got.cif
#   From: 2010.03.12/outbox.cif.g09.slc.cpg/sg136_3_cif.got.tgz:5834.got - 2010.04.06 18:39:43.
