data_PCOD8317060
_publ_section_title
;
Structure prediction by ZEFSAII (Michael W. Deem and Ramdas Pophale) SiO2 
 PCOD8317060
Probable space group: P 42/N B C
;
_chemical_formula_sum "Si O2"
_cell_formula_units_Z 56
_cell_length_a 18.411851
_cell_length_b 18.411851
_cell_length_c 7.385070
_cell_angle_alpha 90.000000
_cell_angle_beta 90.000000
_cell_angle_gamma 90.000000
_cell_volume 2503.511090
_symmetry_space_group_name_H-M "P 42/N B C"
_symmetry_group_IT_number 133
_space_group.IT_coordinate_system_code '2'
_symmetry_cell_setting 'tetragonal'
loop_
_space_group_symop_operation_xyz
x,y,z
1/2-y,x,1/2+z
1/2-x,1/2-y,z
y,1/2-x,1/2+z
x,1/2-y,-z
1/2-x,y,-z
y,x,1/2-z
1/2-y,1/2-x,1/2-z
-x,-y,-z
1/2+y,-x,1/2-z
1/2+x,1/2+y,-z
-y,1/2+x,1/2-z
-x,1/2+y,z
1/2+x,-y,z
-y,-x,1/2+z
1/2+y,1/2+x,1/2+z
loop_
_atom_site_type_symbol
_atom_site_label
_atom_site_fract_x
_atom_site_fract_y
_atom_site_fract_z
Si Si1 0.826891 0.894563 0.080703
Si Si2 0.050096 0.689754 0.747134
Si Si3 0.435190 0.849523 0.156894
Si Si4 0.921356 0.921356 0.750000
O O1 0.842567 0.842567 0.250000
O O2 0.828589 0.977559 0.141303
O O3 0.750000 0.871192 0.000000
O O4 0.887347 0.883568 0.926752
O O5 0.066793 0.775347 0.726760
O O6 0.115536 0.644604 0.656914
O O7 0.040442 0.667336 0.954511
O O8 0.492387 0.905780 0.247065
#
# Coordination Sequence:
#
# PCOD8317060 Si02
#       4
#    16  16  16   8
#     4  12  26  47  77 105 148 190 243 307 369 434
#     4  11  25  45  70 107 144 192 241 305 364 441
#     4  11  25  43  72 105 148 190 245 300 371 436
#     4  12  24  44  75 106 142 189 244 302 364 432
#
# _framework density 22.368583000000001
#
# number of rings (size 3 to 8) (size 9 to 14) (size 15 to 20)
#    0.000    0.571    5.714    1.714    2.000    4.000 
#    0.000    5.000    0.000    0.000    0.000    0.000 
#    0.000    0.000    0.000    0.000    0.000    0.000 
#
# Total GULP energy -694807.705908 kJ/mol
# GULP energy per Si atom -12407.280463 kJ/mol
# Density = 2.231767 g / cm^3
# Si number density = 22.368583 Si / 1000 Ang^3
#
#
#
# Elastic Constant Matrix: (Units=GPa)
#
#
# Indices 1 2 3 4 5 6 
#
# 1 121.3950 91.0926 42.1317 0.0000 0.0000 0.0000
# 2 91.0926 121.3950 42.1317 0.0000 0.0000 0.0000
# 3 42.1317 42.1317 103.3556 0.0000 0.0000 0.0000
# 4 0.0000 0.0000 0.0000 37.0591 0.0000 0.0000
# 5 0.0000 0.0000 0.0000 0.0000 37.0591 0.0000
# 6 0.0000 0.0000 0.0000 0.0000 0.0000 30.8975
#
#
#
# Elastic Compliance Matrix: (Units=1/GPa)
#
#
# Indices 1 2 3 4 5 6 
#
# 1 0.019307 -0.013694 -0.002288 0.000000 0.000000 0.000000
# 2 -0.013694 0.019307 -0.002288 0.000000 0.000000 0.000000
# 3 -0.002288 -0.002288 0.011541 0.000000 0.000000 0.000000
# 4 0.000000 0.000000 0.000000 0.026984 0.000000 0.000000
# 5 0.000000 0.000000 0.000000 0.000000 0.026984 0.000000
# 6 0.000000 0.000000 0.000000 0.000000 0.000000 0.032365
#
#
# Mechanical properties :
#
#
# Convention : Reuss Voigt Hill
#
# Bulk Modulus (GPa) = 73.44904 77.42859 75.43881
# Shear Modulus (GPa) = 28.15840 32.38910 30.27375
#
# Velocity S-wave (km/s) = 3.55186 3.80935 3.68286
# Velocity P-wave (km/s) = 7.05181 7.35107 7.20299
#
# Compressibility (1/GPa) = 0.01361488
#
# Stress axis : x y z
#
# Youngs Moduli (GPa) = 51.79430 51.79430 86.64804
#
# Poissons Ratio (x) = 0.70925 0.19828
# Poissons Ratio (y) = 0.70925 0.19828
# Poissons Ratio (z) = 0.11852 0.11852
#
# Static dielectric constant tensor:
#      x y z
#    x 4.008070 0.000000 0.000000 
#    y 0.000000 4.008070 0.000000 
#    z 0.000000 0.000000 4.484540 
# 
# 
# High freq. dielectric constant tensor:
#      x y z
#    x 1.876230 0.000000 0.000000 
#    y 0.000000 1.876230 0.000000 
#    z 0.000000 0.000000 1.906870 
# 
# From -- ./inp_files/1271.got.cif
#   From: 2010.03.12/outbox.cif.g09.slc.cpg/sg133_1_cif.got.tgz:1271.got - 2010.04.06 18:08:06.
