data_PCOD8317188
_publ_section_title
;
Structure prediction by ZEFSAII (Michael W. Deem and Ramdas Pophale) SiO2 
 PCOD8317188
Probable space group: P 42/N N M
;
_chemical_formula_sum "Si O2"
_cell_formula_units_Z 96
_cell_length_a 19.768431
_cell_length_b 19.768431
_cell_length_c 14.507543
_cell_angle_alpha 90.000000
_cell_angle_beta 90.000000
_cell_angle_gamma 90.000000
_cell_volume 5669.415266
_symmetry_space_group_name_H-M "P 42/N N M"
_symmetry_group_IT_number 134
_space_group.IT_coordinate_system_code '2'
_symmetry_cell_setting 'tetragonal'
loop_
_space_group_symop_operation_xyz
x,y,z
1/2-y,x,1/2+z
1/2-x,1/2-y,z
y,1/2-x,1/2+z
x,1/2-y,1/2-z
1/2-x,y,1/2-z
y,x,-z
1/2-y,1/2-x,-z
-x,-y,-z
1/2+y,-x,1/2-z
1/2+x,1/2+y,-z
-y,1/2+x,1/2-z
-x,1/2+y,1/2+z
1/2+x,-y,1/2+z
-y,-x,z
1/2+y,1/2+x,z
loop_
_atom_site_type_symbol
_atom_site_label
_atom_site_fract_x
_atom_site_fract_y
_atom_site_fract_z
Si Si1 0.546301 0.159297 0.081317
Si Si2 0.300823 0.590590 0.973576
Si Si3 0.980974 0.593363 0.572686
Si Si4 0.616060 0.277184 0.652277
Si Si5 0.418277 0.032300 0.777518
Si Si6 0.990296 0.379670 0.888427
O O1 0.607246 0.107246 0.073619
O O2 0.500953 0.146086 0.171145
O O3 0.580731 0.233223 0.086757
O O4 0.497860 0.150721 0.991129
O O5 0.345665 0.654336 0.937370
O O6 0.283237 0.602425 0.080975
O O7 0.342351 0.521586 0.964358
O O8 0.920868 0.579133 0.500000
O O9 0.949138 0.605939 0.674264
O O10 0.028638 0.528638 0.579350
O O11 0.640318 0.250000 0.750000
O O12 0.675648 0.324353 0.610381
O O13 0.549386 0.322602 0.669561
O O14 0.441526 0.100020 0.833115
O O15 0.479313 0.979313 0.774054
O O16 0.948010 0.448010 0.899384
#
# Coordination Sequence:
#
# PCOD8317188 Si02
#       6
#    16  16  16  16  16  16
#     4   9  17  29  46  71  97 124 159 195 236 286
#     4  10  20  32  45  63  96 134 165 199 234 278
#     4   9  19  32  46  64  85 119 163 201 243 287
#     4  10  20  30  44  68  98 134 171 200 234 287
#     4   9  16  28  48  67  89 119 156 203 249 286
#     4   8  15  27  44  67  93 120 151 197 249 285
#
# _framework density 16.932963999999998
#
# number of rings (size 3 to 8) (size 9 to 14) (size 15 to 20)
#    0.000    2.833    0.000    2.500    2.333    4.833 
#    0.000    0.000    0.000    1.000    0.000    9.333 
#    0.000   10.667    0.667    0.000    0.000    0.000 
#
# Total GULP energy -1189734.018283 kJ/mol
# GULP energy per Si atom -12393.062690 kJ/mol
# Density = 1.689442 g / cm^3
# Si number density = 16.932964 Si / 1000 Ang^3
#
#
#
# Elastic Constant Matrix: (Units=GPa)
#
#
# Indices 1 2 3 4 5 6 
#
# 1 57.5641 54.3744 43.2310 0.0000 0.0000 0.0000
# 2 54.3744 57.5639 43.2312 0.0000 0.0000 0.0000
# 3 43.2310 43.2312 117.6942 0.0000 0.0000 0.0000
# 4 0.0000 0.0000 0.0000 20.9231 0.0000 0.0000
# 5 0.0000 0.0000 0.0000 0.0000 20.9232 0.0000
# 6 0.0000 0.0000 0.0000 0.0000 0.0000 24.8081
#
#
#
# Elastic Compliance Matrix: (Units=1/GPa)
#
#
# Indices 1 2 3 4 5 6 
#
# 1 0.162994 -0.150522 -0.004581 0.000000 0.000000 0.000000
# 2 -0.150522 0.162995 -0.004582 0.000000 0.000000 0.000000
# 3 -0.004581 -0.004582 0.011862 0.000000 0.000000 0.000000
# 4 0.000000 0.000000 0.000000 0.047794 0.000000 0.000000
# 5 0.000000 0.000000 0.000000 0.000000 0.047794 0.000000
# 6 0.000000 0.000000 0.000000 0.000000 0.000000 0.040309
#
#
# Mechanical properties :
#
#
# Convention : Reuss Voigt Hill
#
# Bulk Modulus (GPa) = 54.10846 57.16616 55.63731
# Shear Modulus (GPa) = 6.25565 19.46326 12.85945
#
# Velocity S-wave (km/s) = 1.92416 3.39400 2.75877
# Velocity P-wave (km/s) = 6.07951 7.01374 6.56327
#
# Compressibility (1/GPa) = 0.01848140
#
# Stress axis : x y z
#
# Youngs Moduli (GPa) = 6.13521 6.13517 84.30210
#
# Poissons Ratio (x) = 0.92348 0.38617
# Poissons Ratio (y) = 0.92349 0.38624
# Poissons Ratio (z) = 0.02810 0.02811
#
# Static dielectric constant tensor:
#      x y z
#    x 3.007730 0.000000 0.000000 
#    y 0.000000 3.007730 0.000000 
#    z 0.000000 0.000000 3.354920 
# 
# 
# High freq. dielectric constant tensor:
#      x y z
#    x 1.620590 0.000000 0.000000 
#    y 0.000000 1.620590 0.000000 
#    z 0.000000 0.000000 1.658020 
# 
# From -- ./inp_files/6641.got.cif
#   From: 2010.03.12/outbox.cif.g09.slc.cpg/sg134_4_cif.got.tgz:6641.got - 2010.04.06 18:17:22.
