data_PCOD8317443
_publ_section_title
;
Structure prediction by ZEFSAII (Michael W. Deem and Ramdas Pophale) SiO2 
 PCOD8317443
Probable space group: P 42/M B C
;
_chemical_formula_sum "Si O2"
_cell_formula_units_Z 96
_cell_length_a 22.656844
_cell_length_b 22.656844
_cell_length_c 8.531059
_cell_angle_alpha 90.000000
_cell_angle_beta 90.000000
_cell_angle_gamma 90.000000
_cell_volume 4379.270527
_symmetry_space_group_name_H-M "P 42/M B C"
_symmetry_group_IT_number 135
_symmetry_cell_setting 'tetragonal'
loop_
_space_group_symop_operation_xyz
x,y,z
-y,x,1/2+z
-x,-y,z
y,-x,1/2+z
1/2+x,1/2-y,-z
1/2-x,1/2+y,-z
1/2+y,1/2+x,1/2-z
1/2-y,1/2-x,1/2-z
-x,-y,-z
y,-x,1/2-z
x,y,-z
-y,x,1/2-z
1/2-x,1/2+y,z
1/2+x,1/2-y,z
1/2-y,1/2-x,1/2+z
1/2+y,1/2+x,1/2+z
loop_
_atom_site_type_symbol
_atom_site_label
_atom_site_fract_x
_atom_site_fract_y
_atom_site_fract_z
Si Si1 0.886885 0.698899 0.677349
Si Si2 0.698977 0.292057 0.682307
Si Si3 0.913602 0.328974 0.816638
Si Si4 0.480286 0.888585 0.686356
Si Si5 0.086509 0.026259 0.315144
Si Si6 0.419321 0.296613 0.682789
O O1 0.830188 0.669813 0.750000
O O2 0.889123 0.678318 0.500000
O O3 0.869295 0.767549 0.696821
O O4 0.946965 0.671876 0.746670
O O5 0.749133 0.249133 0.750000
O O6 0.713732 0.305044 0.500000
O O7 0.695998 0.350697 0.782399
O O8 0.849213 0.349213 0.750000
O O9 0.937467 0.268723 0.739195
O O10 0.957397 0.382633 0.771968
O O11 0.908001 0.319492 0.000000
O O12 0.446069 0.946069 0.750000
O O13 0.489189 0.893424 0.500000
O O14 0.079244 0.031889 0.500000
O O15 0.153494 0.042022 0.268571
O O16 0.040754 0.071857 0.235384
O O17 0.432457 0.302088 0.500000
#
# Coordination Sequence:
#
# PCOD8317443 Si02
#       6
#    16  16  16  16  16  16
#     4   8  16  30  52  80 114 150 190 239 295 353
#     4  10  19  34  55  84 121 165 212 262 318 381
#     4  12  26  45  65  89 121 162 209 263 320 378
#     4  10  20  38  62  91 123 160 204 255 312 373
#     4  11  23  44  71 101 134 170 209 256 310 371
#     4  12  25  42  63  91 125 166 211 259 312 374
#
# _framework density 21.921458999999999
#
# number of rings (size 3 to 8) (size 9 to 14) (size 15 to 20)
#    0.000    1.500    0.000    6.500    0.000    3.000 
#    0.000    6.667    0.000    0.000    0.000    0.000 
#    0.000    0.000    0.000    0.000    0.000    0.000 
#
# Total GULP energy -1189447.244443 kJ/mol
# GULP energy per Si atom -12390.075463 kJ/mol
# Density = 2.187157 g / cm^3
# Si number density = 21.921459 Si / 1000 Ang^3
#
#
#
# Elastic Constant Matrix: (Units=GPa)
#
#
# Indices 1 2 3 4 5 6 
#
# 1 90.7590 39.6281 22.2488 0.0000 0.0000 0.0000
# 2 39.6281 90.7584 22.2489 0.0000 0.0000 0.0000
# 3 22.2488 22.2489 110.9020 0.0000 0.0000 0.0000
# 4 0.0000 0.0000 0.0000 34.0223 0.0000 0.0000
# 5 0.0000 0.0000 0.0000 0.0000 34.0225 0.0000
# 6 0.0000 0.0000 0.0000 0.0000 0.0000 38.7722
#
#
#
# Elastic Compliance Matrix: (Units=1/GPa)
#
#
# Indices 1 2 3 4 5 6 
#
# 1 0.013895 -0.005662 -0.001652 0.000000 0.000000 0.000000
# 2 -0.005662 0.013896 -0.001652 0.000000 0.000000 0.000000
# 3 -0.001652 -0.001652 0.009680 0.000000 0.000000 0.000000
# 4 0.000000 0.000000 0.000000 0.029393 0.000000 0.000000
# 5 0.000000 0.000000 0.000000 0.000000 0.029392 0.000000
# 6 0.000000 0.000000 0.000000 0.000000 0.000000 0.025792
#
#
# Mechanical properties :
#
#
# Convention : Reuss Voigt Hill
#
# Bulk Modulus (GPa) = 51.17923 51.18568 51.18246
# Shear Modulus (GPa) = 34.13164 35.24963 34.69063
#
# Velocity S-wave (km/s) = 3.95016 4.01433 3.98238
# Velocity P-wave (km/s) = 6.64848 6.69976 6.67417
#
# Compressibility (1/GPa) = 0.01953918
#
# Stress axis : x y z
#
# Youngs Moduli (GPa) = 71.96619 71.96566 103.30904
#
# Poissons Ratio (x) = 0.40749 0.17064
# Poissons Ratio (y) = 0.40749 0.17064
# Poissons Ratio (z) = 0.11887 0.11887
#
# Static dielectric constant tensor:
#      x y z
#    x 4.067250 0.000000 0.000000 
#    y 0.000000 4.067260 0.000000 
#    z 0.000000 0.000000 3.946460 
# 
# 
# High freq. dielectric constant tensor:
#      x y z
#    x 1.864510 0.000000 0.000000 
#    y 0.000000 1.864510 0.000000 
#    z 0.000000 0.000000 1.868200 
# 
# From -- ./inp_files/1273.got.cif
#   From: 2010.03.12/outbox.cif.g09.slc.cpg/sg135_1_cif.got.tgz:1273.got - 2010.04.06 18:31:24.
