data_PCOD8317705
_publ_section_title
;
Structure prediction by ZEFSAII (Michael W. Deem and Ramdas Pophale) SiO2 
 PCOD8317705
Probable space group: P 42/M N M
;
_chemical_formula_sum "Si O2"
_cell_formula_units_Z 112
_cell_length_a 15.876224
_cell_length_b 15.876224
_cell_length_c 28.297716
_cell_angle_alpha 90.000000
_cell_angle_beta 90.000000
_cell_angle_gamma 90.000000
_cell_volume 7132.566332
_symmetry_space_group_name_H-M "P 42/M N M"
_symmetry_group_IT_number 136
_symmetry_cell_setting 'tetragonal'
loop_
_space_group_symop_operation_xyz
x,y,z
1/2-y,1/2+x,1/2+z
-x,-y,z
1/2+y,1/2-x,1/2+z
1/2+x,1/2-y,1/2-z
1/2-x,1/2+y,1/2-z
y,x,-z
-y,-x,-z
-x,-y,-z
1/2+y,1/2-x,1/2-z
x,y,-z
1/2-y,1/2+x,1/2-z
1/2-x,1/2+y,1/2+z
1/2+x,1/2-y,1/2+z
-y,-x,z
y,x,z
loop_
_atom_site_type_symbol
_atom_site_label
_atom_site_fract_x
_atom_site_fract_y
_atom_site_fract_z
Si Si1 0.310808 0.826120 0.947054
Si Si2 0.256964 0.510737 0.052362
Si Si3 0.633564 0.495215 0.141517
Si Si4 0.376369 0.937159 0.387399
Si Si5 0.753524 0.611189 0.809801
Si Si6 0.877412 0.553744 0.264786
Si Si7 0.555783 0.882548 0.627394
O O1 0.228456 0.771545 0.936055
O O2 0.391812 0.766910 0.944762
O O3 0.316405 0.896655 0.906346
O O4 0.305014 0.866079 0.000000
O O5 0.331972 0.495231 0.088576
O O6 0.177150 0.450525 0.064763
O O7 0.287751 0.486380 0.000000
O O8 0.600309 0.399692 0.151603
O O9 0.555436 0.555436 0.145834
O O10 0.702952 0.524215 0.179577
O O11 0.324662 0.880017 0.350247
O O12 0.465099 0.892913 0.397798
O O13 0.394274 0.029997 0.366473
O O14 0.692953 0.692953 0.809955
O O15 0.799018 0.601061 0.759647
O O16 0.891358 0.461885 0.241945
O O17 0.849538 0.544942 0.319298
#
# Coordination Sequence:
#
# PCOD8317705 Si02
#       7
#    16  16  16  16  16  16  16
#     4   9  18  30  42  63  96 124 146 185 237 280
#     4   9  17  27  42  63  90 120 152 191 230 267
#     4   9  18  31  45  60  84 122 162 192 220 264
#     4   9  16  30  45  66  87 119 152 187 230 274
#     4  10  19  31  46  66  93 120 149 188 235 277
#     4  11  18  31  50  69  92 120 150 192 233 274
#     4  10  17  28  51  66  86 121 161 189 225 284
#
# _framework density 15.702622
#
# number of rings (size 3 to 8) (size 9 to 14) (size 15 to 20)
#    0.000    2.429    2.857    1.286    0.000    2.286 
#    0.000    4.286    0.000    0.000    0.000    0.000 
#    0.000    0.571    0.000    1.571    0.000    0.000 
#
# Total GULP energy -1388005.215166 kJ/mol
# GULP energy per Si atom -12392.903707 kJ/mol
# Density = 1.566688 g / cm^3
# Si number density = 15.702622 Si / 1000 Ang^3
#
#
#
# Elastic Constant Matrix: (Units=GPa)
#
#
# Indices 1 2 3 4 5 6 
#
# 1 60.6397 28.7160 26.4382 0.0000 0.0000 0.0000
# 2 28.7160 60.6397 26.4382 0.0000 0.0000 0.0000
# 3 26.4382 26.4382 69.3617 0.0000 0.0000 0.0000
# 4 0.0000 0.0000 0.0000 19.0063 0.0000 0.0000
# 5 0.0000 0.0000 0.0000 0.0000 19.0063 0.0000
# 6 0.0000 0.0000 0.0000 0.0000 0.0000 21.1970
#
#
#
# Elastic Compliance Matrix: (Units=1/GPa)
#
#
# Indices 1 2 3 4 5 6 
#
# 1 0.022888 -0.008437 -0.005508 0.000000 0.000000 0.000000
# 2 -0.008437 0.022888 -0.005508 0.000000 0.000000 0.000000
# 3 -0.005508 -0.005508 0.018616 0.000000 0.000000 0.000000
# 4 0.000000 0.000000 0.000000 0.052614 0.000000 0.000000
# 5 0.000000 0.000000 0.000000 0.000000 0.052614 0.000000
# 6 0.000000 0.000000 0.000000 0.000000 0.000000 0.047177
#
#
# Mechanical properties :
#
#
# Convention : Reuss Voigt Hill
#
# Bulk Modulus (GPa) = 39.23858 39.31402 39.27630
# Shear Modulus (GPa) = 18.92522 19.11182 19.01852
#
# Velocity S-wave (km/s) = 3.47540 3.49250 3.48396
# Velocity P-wave (km/s) = 6.41462 6.43073 6.42268
#
# Compressibility (1/GPa) = 0.02548512
#
# Stress axis : x y z
#
# Youngs Moduli (GPa) = 43.69168 43.69168 53.71679
#
# Poissons Ratio (x) = 0.36863 0.29588
# Poissons Ratio (y) = 0.36863 0.29588
# Poissons Ratio (z) = 0.24066 0.24066
#
# Static dielectric constant tensor:
#      x y z
#    x 3.405460 0.000000 0.000000 
#    y 0.000000 3.405460 0.000000 
#    z 0.000000 0.000000 3.036520 
# 
# 
# High freq. dielectric constant tensor:
#      x y z
#    x 1.583470 0.000000 0.000000 
#    y 0.000000 1.583470 0.000000 
#    z 0.000000 0.000000 1.600930 
# 
# From -- ./inp_files/9160.got.cif
#   From: 2010.03.12/outbox.cif.g09.slc.cpg/sg136_5_cif.got.tgz:9160.got - 2010.04.06 18:39:43.
