data_PCOD8317955
_publ_section_title
;
Structure prediction by ZEFSAII (Michael W. Deem and Ramdas Pophale) SiO2 
 PCOD8317955
Probable space group: P 42/M N M
;
_chemical_formula_sum "Si O2"
_cell_formula_units_Z 120
_cell_length_a 13.849683
_cell_length_b 13.849683
_cell_length_c 34.350528
_cell_angle_alpha 90.000000
_cell_angle_beta 90.000000
_cell_angle_gamma 90.000000
_cell_volume 6588.902532
_symmetry_space_group_name_H-M "P 42/M N M"
_symmetry_group_IT_number 136
_symmetry_cell_setting 'tetragonal'
loop_
_space_group_symop_operation_xyz
x,y,z
1/2-y,1/2+x,1/2+z
-x,-y,z
1/2+y,1/2-x,1/2+z
1/2+x,1/2-y,1/2-z
1/2-x,1/2+y,1/2-z
y,x,-z
-y,-x,-z
-x,-y,-z
1/2+y,1/2-x,1/2-z
x,y,-z
1/2-y,1/2+x,1/2-z
1/2-x,1/2+y,1/2+z
1/2+x,1/2-y,1/2+z
-y,-x,z
y,x,z
loop_
_atom_site_type_symbol
_atom_site_label
_atom_site_fract_x
_atom_site_fract_y
_atom_site_fract_z
Si Si1 0.159457 0.501438 0.248801
Si Si2 0.742907 0.591078 0.179614
Si Si3 0.393040 0.760018 0.598468
Si Si4 0.276850 0.947209 0.591100
Si Si5 0.419405 0.419405 0.953736
Si Si6 0.566677 0.092539 0.956206
Si Si7 0.751596 0.903445 0.817881
Si Si8 0.052935 0.790675 0.044447
O O1 0.094545 0.407891 0.257933
O O2 0.229579 0.490146 0.211355
O O3 0.230443 0.515906 0.285525
O O4 0.634837 0.634837 0.185604
O O5 0.750392 0.546206 0.136445
O O6 0.817862 0.675760 0.185975
O O7 0.295145 0.704856 0.609388
O O8 0.354001 0.861467 0.581709
O O9 0.451345 0.766610 0.639411
O O10 0.455059 0.695132 0.568728
O O11 0.182638 0.945331 0.564718
O O12 0.329477 0.043550 0.576799
O O13 0.500000 0.500000 0.943224
O O14 0.408781 0.408781 0.000000
O O15 0.678902 0.075116 0.949405
O O16 0.500000 0.000000 0.949272
O O17 0.549220 0.132186 0.000000
O O18 0.859860 0.859860 0.812537
O O19 0.140172 0.859828 0.059286
O O20 0.029831 0.815661 0.000000
#
# Coordination Sequence:
#
# PCOD8317955 Si02
#       8
#    16  16  16  16   8  16  16  16
#     4   9  17  30  50  80 107 134 174 219 265 323
#     4   9  17  32  53  76 106 138 172 221 277 323
#     4  10  19  34  57  83 106 140 186 229 271 323
#     4  11  19  36  58  81 105 142 189 230 278 330
#     4  11  24  38  54  80 113 145 185 239 290 334
#     4  10  20  34  54  81 108 140 184 229 272 328
#     4   8  16  31  52  76 107 138 173 217 266 322
#     4  10  22  38  53  76 113 147 177 223 282 331
#
# _framework density 18.212441999999999
#
# number of rings (size 3 to 8) (size 9 to 14) (size 15 to 20)
#    0.000    2.333    2.667    1.200    0.000    2.667 
#    2.400    3.333    0.000    4.000    0.000    0.000 
#    0.000    0.000    0.000    0.000    0.000    0.000 
#
# Total GULP energy -1486912.828609 kJ/mol
# GULP energy per Si atom -12390.940238 kJ/mol
# Density = 1.817099 g / cm^3
# Si number density = 18.212442 Si / 1000 Ang^3
#
#
#
# Elastic Constant Matrix: (Units=GPa)
#
#
# Indices 1 2 3 4 5 6 
#
# 1 59.7065 29.0478 46.7598 0.0000 0.0000 0.0000
# 2 29.0478 59.7065 46.7598 0.0000 0.0000 0.0000
# 3 46.7598 46.7598 117.2418 0.0000 0.0000 0.0000
# 4 0.0000 0.0000 0.0000 27.3290 0.0000 0.0000
# 5 0.0000 0.0000 0.0000 0.0000 27.3290 0.0000
# 6 0.0000 0.0000 0.0000 0.0000 0.0000 30.7073
#
#
#
# Elastic Compliance Matrix: (Units=1/GPa)
#
#
# Indices 1 2 3 4 5 6 
#
# 1 0.026026 -0.006591 -0.007751 0.000000 0.000000 0.000000
# 2 -0.006591 0.026026 -0.007751 0.000000 0.000000 0.000000
# 3 -0.007751 -0.007751 0.014712 0.000000 0.000000 0.000000
# 4 0.000000 0.000000 0.000000 0.036591 0.000000 0.000000
# 5 0.000000 0.000000 0.000000 0.000000 0.036591 0.000000
# 6 0.000000 0.000000 0.000000 0.000000 0.000000 0.032566
#
#
# Mechanical properties :
#
#
# Convention : Reuss Voigt Hill
#
# Bulk Modulus (GPa) = 44.29375 53.53217 48.91296
# Shear Modulus (GPa) = 22.29914 24.67887 23.48901
#
# Velocity S-wave (km/s) = 3.50293 3.68510 3.59517
# Velocity P-wave (km/s) = 6.38232 6.89664 6.64446
#
# Compressibility (1/GPa) = 0.02257655
#
# Stress axis : x y z
#
# Youngs Moduli (GPa) = 38.42356 38.42356 67.97131
#
# Poissons Ratio (x) = 0.25327 0.52685
# Poissons Ratio (y) = 0.25327 0.52685
# Poissons Ratio (z) = 0.29782 0.29782
#
# Static dielectric constant tensor:
#      x y z
#    x 3.518530 0.000000 0.000000 
#    y 0.000000 3.518530 0.000000 
#    z 0.000000 0.000000 3.644300 
# 
# 
# High freq. dielectric constant tensor:
#      x y z
#    x 1.688660 0.000000 0.000000 
#    y 0.000000 1.688660 0.000000 
#    z 0.000000 0.000000 1.713460 
# 
# From -- ./inp_files/10033.got.cif
#   From: 2010.03.12/outbox.cif.g09.slc.cpg/sg136_6_cif.got.tgz:10033.got - 2010.04.06 18:39:43.
