data_PCOD8317193
_publ_section_title
;
Structure prediction by ZEFSAII (Michael W. Deem and Ramdas Pophale) SiO2 
 PCOD8317193
Probable space group: P 42/N N M
;
_chemical_formula_sum "Si O2"
_cell_formula_units_Z 96
_cell_length_a 18.741785
_cell_length_b 18.741785
_cell_length_c 17.689113
_cell_angle_alpha 90.000000
_cell_angle_beta 90.000000
_cell_angle_gamma 90.000000
_cell_volume 6213.380630
_symmetry_space_group_name_H-M "P 42/N N M"
_symmetry_group_IT_number 134
_space_group.IT_coordinate_system_code '2'
_symmetry_cell_setting 'tetragonal'
loop_
_space_group_symop_operation_xyz
x,y,z
1/2-y,x,1/2+z
1/2-x,1/2-y,z
y,1/2-x,1/2+z
x,1/2-y,1/2-z
1/2-x,y,1/2-z
y,x,-z
1/2-y,1/2-x,-z
-x,-y,-z
1/2+y,-x,1/2-z
1/2+x,1/2+y,-z
-y,1/2+x,1/2-z
-x,1/2+y,1/2+z
1/2+x,-y,1/2+z
-y,-x,z
1/2+y,1/2+x,z
loop_
_atom_site_type_symbol
_atom_site_label
_atom_site_fract_x
_atom_site_fract_y
_atom_site_fract_z
Si Si1 0.350861 0.378961 0.582500
Si Si2 0.665826 0.759348 0.332366
Si Si3 0.359274 0.528671 0.863710
Si Si4 0.613627 0.681995 0.927620
Si Si5 0.381062 0.770582 0.836090
Si Si6 0.882660 0.003969 0.306574
O O1 0.387914 0.387914 0.500000
O O2 0.367106 0.298734 0.610495
O O3 0.266925 0.392251 0.574873
O O4 0.384536 0.431540 0.645127
O O5 0.750000 0.750000 0.328991
O O6 0.630900 0.750000 0.250000
O O7 0.650482 0.840003 0.358413
O O8 0.436513 0.563488 0.876739
O O9 0.349833 0.465797 0.924161
O O10 0.300539 0.591377 0.878055
O O11 0.354134 0.494223 0.779533
O O12 0.656077 0.656077 0.000000
O O13 0.366617 0.750000 0.750000
O O14 0.307002 0.807002 0.867453
O O15 0.442896 0.828355 0.847251
O O16 0.961862 0.038139 0.305848
#
# Coordination Sequence:
#
# PCOD8317193 Si02
#       6
#    16  16  16  16  16  16
#     4  11  19  30  48  67  90 120 154 193 235 273
#     4   9  18  28  44  65  84 116 155 192 234 268
#     4  10  20  32  48  68  92 125 155 184 229 278
#     4  11  20  32  46  64  93 119 153 201 231 267
#     4   9  16  27  44  66  91 117 145 179 217 262
#     4   9  18  31  47  69  95 121 150 184 226 277
#
# _framework density 15.450526
#
# number of rings (size 3 to 8) (size 9 to 14) (size 15 to 20)
#    0.000    2.167    3.333    2.500    0.000    3.167 
#    0.000    0.000    0.000    0.000    0.000    0.000 
#    0.000    0.000    0.000    0.000    0.000    0.000 
#
# Total GULP energy -1189511.652766 kJ/mol
# GULP energy per Si atom -12390.746383 kJ/mol
# Density = 1.541536 g / cm^3
# Si number density = 15.450526 Si / 1000 Ang^3
#
#
#
# Elastic Constant Matrix: (Units=GPa)
#
#
# Indices 1 2 3 4 5 6 
#
# 1 52.8192 32.7860 9.3385 0.0000 0.0000 0.0000
# 2 32.7860 52.8192 9.3385 0.0000 0.0000 0.0000
# 3 9.3385 9.3385 40.8409 0.0000 0.0000 0.0000
# 4 0.0000 0.0000 0.0000 17.6442 0.0000 0.0000
# 5 0.0000 0.0000 0.0000 0.0000 17.6442 0.0000
# 6 0.0000 0.0000 0.0000 0.0000 0.0000 15.3672
#
#
#
# Elastic Compliance Matrix: (Units=1/GPa)
#
#
# Indices 1 2 3 4 5 6 
#
# 1 0.031106 -0.018811 -0.002811 0.000000 0.000000 0.000000
# 2 -0.018811 0.031106 -0.002811 0.000000 0.000000 0.000000
# 3 -0.002811 -0.002811 0.025771 0.000000 0.000000 0.000000
# 4 0.000000 0.000000 0.000000 0.056676 0.000000 0.000000
# 5 0.000000 0.000000 0.000000 0.000000 0.056676 0.000000
# 6 0.000000 0.000000 0.000000 0.000000 0.000000 0.065074
#
#
# Mechanical properties :
#
#
# Convention : Reuss Voigt Hill
#
# Bulk Modulus (GPa) = 25.56530 27.71168 26.63849
# Shear Modulus (GPa) = 15.22933 16.46556 15.84744
#
# Velocity S-wave (km/s) = 3.14297 3.26804 3.20611
# Velocity P-wave (km/s) = 5.45467 5.67581 5.56634
#
# Compressibility (1/GPa) = 0.03911552
#
# Stress axis : x y z
#
# Youngs Moduli (GPa) = 32.14811 32.14811 38.80350
#
# Poissons Ratio (x) = 0.60474 0.10909
# Poissons Ratio (y) = 0.60474 0.10909
# Poissons Ratio (z) = 0.09038 0.09038
#
# Static dielectric constant tensor:
#      x y z
#    x 2.928970 0.000000 0.000000 
#    y 0.000000 2.928970 0.000000 
#    z 0.000000 0.000000 2.797500 
# 
# 
# High freq. dielectric constant tensor:
#      x y z
#    x 1.579780 0.000000 0.000000 
#    y 0.000000 1.579780 0.000000 
#    z 0.000000 0.000000 1.562910 
# 
# From -- ./inp_files/9283.got.cif
#   From: 2010.03.12/outbox.cif.g09.slc.cpg/sg134_5_cif.got.tgz:9283.got - 2010.04.06 18:17:22.
