data_PCOD8317685
_publ_section_title
;
Structure prediction by ZEFSAII (Michael W. Deem and Ramdas Pophale) SiO2 
 PCOD8317685
Probable space group: P 42/M N M
;
_chemical_formula_sum "Si O2"
_cell_formula_units_Z 104
_cell_length_a 22.879009
_cell_length_b 22.879009
_cell_length_c 12.641984
_cell_angle_alpha 90.000000
_cell_angle_beta 90.000000
_cell_angle_gamma 90.000000
_cell_volume 6617.434551
_symmetry_space_group_name_H-M "P 42/M N M"
_symmetry_group_IT_number 136
_symmetry_cell_setting 'tetragonal'
loop_
_space_group_symop_operation_xyz
x,y,z
1/2-y,1/2+x,1/2+z
-x,-y,z
1/2+y,1/2-x,1/2+z
1/2+x,1/2-y,1/2-z
1/2-x,1/2+y,1/2-z
y,x,-z
-y,-x,-z
-x,-y,-z
1/2+y,1/2-x,1/2-z
x,y,-z
1/2-y,1/2+x,1/2-z
1/2-x,1/2+y,1/2+z
1/2+x,1/2-y,1/2+z
-y,-x,z
y,x,z
loop_
_atom_site_type_symbol
_atom_site_label
_atom_site_fract_x
_atom_site_fract_y
_atom_site_fract_z
Si Si1 0.199903 0.623673 0.378308
Si Si2 0.873541 0.873541 0.874676
Si Si3 0.589381 0.756110 0.624873
Si Si4 0.470978 0.706065 0.376465
Si Si5 0.567550 0.990900 0.620925
Si Si6 0.218974 0.781027 0.123926
Si Si7 0.716359 0.283642 0.695712
Si Si8 0.878142 0.586392 0.736774
O O1 0.181848 0.614434 0.500000
O O2 0.243602 0.573144 0.336590
O O3 0.228778 0.688065 0.366029
O O4 0.144154 0.618403 0.305531
O O5 0.857468 0.941450 0.849286
O O6 0.833474 0.833474 0.798615
O O7 0.859554 0.859554 0.000000
O O8 0.585813 0.766960 0.500000
O O9 0.537246 0.712822 0.666727
O O10 0.651815 0.729694 0.655761
O O11 0.578392 0.815980 0.684201
O O12 0.475671 0.713267 0.500000
O O13 0.577822 0.006939 0.500000
O O14 0.587594 0.924777 0.641937
O O15 0.500000 0.000000 0.652958
O O16 0.609413 0.031842 0.688522
O O17 0.262024 0.737977 0.188416
O O18 0.230721 0.769280 0.000000
#
# Coordination Sequence:
#
# PCOD8317685 Si02
#       8
#    16   8  16  16  16   8   8  16
#     4  10  19  29  49  73  94 118 155 196 239 288
#     4   8  14  26  48  73  94 109 141 193 247 292
#     4  10  20  32  49  67  91 124 162 197 230 286
#     4   8  15  27  44  68  89 112 144 185 230 277
#     4  11  23  36  47  63  91 126 166 208 244 282
#     4  10  20  34  46  65  94 131 168 195 229 287
#     4  10  16  32  46  66  96 124 149 193 239 281
#     4  12  19  34  47  65  89 122 165 199 244 274
#
# _framework density 15.716060000000001
#
# number of rings (size 3 to 8) (size 9 to 14) (size 15 to 20)
#    0.000    2.000    3.077    3.462    0.000    0.000 
#    0.000    0.000    0.000    0.462    0.000    3.231 
#    0.000    0.000    0.000    0.000    0.000    1.769 
#
# Total GULP energy -1288710.322222 kJ/mol
# GULP energy per Si atom -12391.445406 kJ/mol
# Density = 1.568029 g / cm^3
# Si number density = 15.716060 Si / 1000 Ang^3
#
#
#
# Elastic Constant Matrix: (Units=GPa)
#
#
# Indices 1 2 3 4 5 6 
#
# 1 71.6671 38.5584 24.1931 0.0000 0.0000 0.0000
# 2 38.5584 71.6673 24.1932 0.0000 0.0000 0.0000
# 3 24.1931 24.1932 46.9987 0.0000 0.0000 0.0000
# 4 0.0000 0.0000 0.0000 4.9732 0.0000 0.0000
# 5 0.0000 0.0000 0.0000 0.0000 4.9730 0.0000
# 6 0.0000 0.0000 0.0000 0.0000 0.0000 24.5471
#
#
#
# Elastic Compliance Matrix: (Units=1/GPa)
#
#
# Indices 1 2 3 4 5 6 
#
# 1 0.020962 -0.009241 -0.006033 0.000000 0.000000 0.000000
# 2 -0.009241 0.020962 -0.006033 0.000000 0.000000 0.000000
# 3 -0.006033 -0.006033 0.027489 0.000000 0.000000 0.000000
# 4 0.000000 0.000000 0.000000 0.201077 0.000000 0.000000
# 5 0.000000 0.000000 0.000000 0.000000 0.201086 0.000000
# 6 0.000000 0.000000 0.000000 0.000000 0.000000 0.040738
#
#
# Mechanical properties :
#
#
# Convention : Reuss Voigt Hill
#
# Bulk Modulus (GPa) = 37.31810 40.46918 38.89364
# Shear Modulus (GPa) = 8.86741 13.79122 11.32932
#
# Velocity S-wave (km/s) = 2.37792 2.96552 2.68782
# Velocity P-wave (km/s) = 5.59787 6.12632 5.86805
#
# Compressibility (1/GPa) = 0.02679665
#
# Stress axis : x y z
#
# Youngs Moduli (GPa) = 47.70497 47.70509 36.37852
#
# Poissons Ratio (x) = 0.44086 0.21949
# Poissons Ratio (y) = 0.44086 0.21949
# Poissons Ratio (z) = 0.28782 0.28783
#
# Static dielectric constant tensor:
#      x y z
#    x 3.112100 0.000000 0.000000 
#    y 0.000000 3.112160 0.000000 
#    z 0.000000 0.000000 2.824010 
# 
# 
# High freq. dielectric constant tensor:
#      x y z
#    x 1.600150 0.000000 0.000000 
#    y 0.000000 1.600150 0.000000 
#    z 0.000000 0.000000 1.580840 
# 
# From -- ./inp_files/5293.got.cif
#   From: 2010.03.12/outbox.cif.g09.slc.cpg/sg136_3_cif.got.tgz:5293.got - 2010.04.06 18:39:43.
