data_PCOD8317440
_publ_section_title
;
Structure prediction by ZEFSAII (Michael W. Deem and Ramdas Pophale) SiO2 
 PCOD8317440
Probable space group: P 42/M B C
;
_chemical_formula_sum "Si O2"
_cell_formula_units_Z 80
_cell_length_a 16.491858
_cell_length_b 16.491858
_cell_length_c 15.215054
_cell_angle_alpha 90.000000
_cell_angle_beta 90.000000
_cell_angle_gamma 90.000000
_cell_volume 4138.211388
_symmetry_space_group_name_H-M "P 42/M B C"
_symmetry_group_IT_number 135
_symmetry_cell_setting 'tetragonal'
loop_
_space_group_symop_operation_xyz
x,y,z
-y,x,1/2+z
-x,-y,z
y,-x,1/2+z
1/2+x,1/2-y,-z
1/2-x,1/2+y,-z
1/2+y,1/2+x,1/2-z
1/2-y,1/2-x,1/2-z
-x,-y,-z
y,-x,1/2-z
x,y,-z
-y,x,1/2-z
1/2-x,1/2+y,z
1/2+x,1/2-y,z
1/2-y,1/2-x,1/2+z
1/2+y,1/2+x,1/2+z
loop_
_atom_site_type_symbol
_atom_site_label
_atom_site_fract_x
_atom_site_fract_y
_atom_site_fract_z
Si Si1 0.000698 0.868463 0.748742
Si Si2 0.929595 0.393079 0.153540
Si Si3 0.400616 0.931490 0.901082
Si Si4 0.088727 0.220674 0.601295
Si Si5 0.282993 0.587015 0.401670
O O1 0.982042 0.815468 0.662557
O O2 0.077256 0.923932 0.724141
O O3 0.019469 0.811477 0.832083
O O4 0.892530 0.392530 0.250000
O O5 0.897682 0.470733 0.100592
O O6 0.898112 0.312780 0.105561
O O7 0.028220 0.395812 0.160565
O O8 0.313992 0.895610 0.871473
O O9 0.421134 0.903799 0.000000
O O10 0.059068 0.215470 0.500000
O O11 0.172274 0.172362 0.616076
O O12 0.304031 0.556030 0.500000
#
# Coordination Sequence:
#
# PCOD8317440 Si02
#       5
#    16  16  16  16  16
#     4   9  18  33  53  78 108 143 185 226 266 321
#     4  11  21  34  53  77 104 138 178 216 259 316
#     4  10  19  34  54  76 102 135 173 215 263 321
#     4   9  19  35  56  80 109 141 177 225 277 321
#     4  10  20  36  56  80 111 145 179 223 274 321
#
# _framework density 19.332024000000001
#
# number of rings (size 3 to 8) (size 9 to 14) (size 15 to 20)
#    0.000    2.200    0.000    4.800    0.000    0.800 
#    0.000   12.000    0.000    2.400    0.000    0.000 
#    0.000    0.000    0.000    0.000    0.000    0.000 
#
# Total GULP energy -992027.285757 kJ/mol
# GULP energy per Si atom -12400.341072 kJ/mol
# Density = 1.928802 g / cm^3
# Si number density = 19.332024 Si / 1000 Ang^3
#
#
#
# Elastic Constant Matrix: (Units=GPa)
#
#
# Indices 1 2 3 4 5 6 
#
# 1 102.9319 39.1670 39.8665 0.0000 0.0000 0.0000
# 2 39.1670 102.9319 39.8665 0.0000 0.0000 0.0000
# 3 39.8665 39.8665 90.4921 0.0000 0.0000 0.0000
# 4 0.0000 0.0000 0.0000 24.5369 0.0000 0.0000
# 5 0.0000 0.0000 0.0000 0.0000 24.5369 0.0000
# 6 0.0000 0.0000 0.0000 0.0000 0.0000 15.4608
#
#
#
# Elastic Compliance Matrix: (Units=1/GPa)
#
#
# Indices 1 2 3 4 5 6 
#
# 1 0.012515 -0.003167 -0.004118 0.000000 0.000000 0.000000
# 2 -0.003167 0.012515 -0.004118 0.000000 0.000000 0.000000
# 3 -0.004118 -0.004118 0.014679 0.000000 0.000000 0.000000
# 4 0.000000 0.000000 0.000000 0.040755 0.000000 0.000000
# 5 0.000000 0.000000 0.000000 0.000000 0.040755 0.000000
# 6 0.000000 0.000000 0.000000 0.000000 0.000000 0.064680
#
#
# Mechanical properties :
#
#
# Convention : Reuss Voigt Hill
#
# Bulk Modulus (GPa) = 59.16347 59.35068 59.25707
# Shear Modulus (GPa) = 23.32722 24.73731 24.03227
#
# Velocity S-wave (km/s) = 3.47747 3.58103 3.52963
# Velocity P-wave (km/s) = 6.84062 6.91851 6.87967
#
# Compressibility (1/GPa) = 0.01690232
#
# Stress axis : x y z
#
# Youngs Moduli (GPa) = 79.90152 79.90152 68.12260
#
# Poissons Ratio (x) = 0.25306 0.28055
# Poissons Ratio (y) = 0.25306 0.28055
# Poissons Ratio (z) = 0.32906 0.32906
#
# Static dielectric constant tensor:
#      x y z
#    x 3.490600 0.000000 0.000000 
#    y 0.000000 3.490600 0.000000 
#    z 0.000000 0.000000 3.563880 
# 
# 
# High freq. dielectric constant tensor:
#      x y z
#    x 1.743240 0.000000 0.000000 
#    y 0.000000 1.743240 0.000000 
#    z 0.000000 0.000000 1.760350 
# 
# From -- ./inp_files/3420.got.cif
#   From: 2010.03.12/outbox.cif.g09.slc.cpg/sg135_2_cif.got.tgz:3420.got - 2010.04.06 18:31:24.
