data_PCOD8317231
_publ_section_title
;
Structure prediction by ZEFSAII (Michael W. Deem and Ramdas Pophale) SiO2 
 PCOD8317231
Probable space group: P 42/N N M
;
_chemical_formula_sum "Si O2"
_cell_formula_units_Z 88
_cell_length_a 12.343498
_cell_length_b 12.343498
_cell_length_c 27.723267
_cell_angle_alpha 90.000000
_cell_angle_beta 90.000000
_cell_angle_gamma 90.000000
_cell_volume 4223.970823
_symmetry_space_group_name_H-M "P 42/N N M"
_symmetry_group_IT_number 134
_space_group.IT_coordinate_system_code '2'
_symmetry_cell_setting 'tetragonal'
loop_
_space_group_symop_operation_xyz
x,y,z
1/2-y,x,1/2+z
1/2-x,1/2-y,z
y,1/2-x,1/2+z
x,1/2-y,1/2-z
1/2-x,y,1/2-z
y,x,-z
1/2-y,1/2-x,-z
-x,-y,-z
1/2+y,-x,1/2-z
1/2+x,1/2+y,-z
-y,1/2+x,1/2-z
-x,1/2+y,1/2+z
1/2+x,-y,1/2+z
-y,-x,z
1/2+y,1/2+x,z
loop_
_atom_site_type_symbol
_atom_site_label
_atom_site_fract_x
_atom_site_fract_y
_atom_site_fract_z
Si Si1 0.250000 0.086608 0.750000
Si Si2 0.256803 0.574398 0.567580
Si Si3 0.331252 0.487334 0.022996
Si Si4 0.982295 0.841536 0.284028
Si Si5 0.309309 0.512649 0.131105
Si Si6 0.514692 0.841746 0.655104
O O1 0.145052 0.153648 0.731075
O O2 0.223268 0.011886 0.795386
O O3 0.371181 0.628820 0.579628
O O4 0.159980 0.659980 0.567629
O O5 0.262079 0.526170 0.513593
O O6 0.236104 0.481778 0.607987
O O7 0.430826 0.569175 0.028218
O O8 0.281293 0.476010 0.076435
O O9 0.375798 0.375798 0.000000
O O10 0.036317 0.750000 0.250000
O O11 0.006134 0.802531 0.338990
O O12 0.043134 0.956867 0.275803
O O13 0.369436 0.630565 0.132872
O O14 0.385468 0.423300 0.155631
O O15 0.401455 0.901455 0.652079
#
# Coordination Sequence:
#
# PCOD8317231 Si02
#       6
#     8  16  16  16  16  16
#     4  12  25  42  66  89 118 167 216 256 303 384
#     4   9  17  29  49  82 122 161 204 259 320 376
#     4   9  15  28  53  84 120 162 208 257 312 381
#     4  12  26  43  64  93 127 165 210 262 322 383
#     4  10  20  35  60  93 125 162 207 261 323 383
#     4  10  20  36  59  88 121 157 208 265 316 375
#
# _framework density 20.833476999999998
#
# number of rings (size 3 to 8) (size 9 to 14) (size 15 to 20)
#    0.000    1.818    3.636    1.364    0.000    3.455 
#    0.000    1.818    0.000    3.545    0.000    2.545 
#    0.000    0.000    0.000    0.000    0.000    0.000 
#
# Total GULP energy -1090390.853839 kJ/mol
# GULP energy per Si atom -12390.805157 kJ/mol
# Density = 2.078606 g / cm^3
# Si number density = 20.833477 Si / 1000 Ang^3
#
#
#
# Elastic Constant Matrix: (Units=GPa)
#
#
# Indices 1 2 3 4 5 6 
#
# 1 66.4538 31.2825 33.1502 0.0000 0.0000 0.0000
# 2 31.2825 66.4538 33.1502 0.0000 0.0000 0.0000
# 3 33.1502 33.1502 172.8470 0.0000 0.0000 0.0000
# 4 0.0000 0.0000 0.0000 31.0646 0.0000 0.0000
# 5 0.0000 0.0000 0.0000 0.0000 31.0646 0.0000
# 6 0.0000 0.0000 0.0000 0.0000 0.0000 9.3898
#
#
#
# Elastic Compliance Matrix: (Units=1/GPa)
#
#
# Indices 1 2 3 4 5 6 
#
# 1 0.020097 -0.008335 -0.002256 0.000000 0.000000 0.000000
# 2 -0.008335 0.020097 -0.002256 0.000000 0.000000 0.000000
# 3 -0.002256 -0.002256 0.006651 0.000000 0.000000 0.000000
# 4 0.000000 0.000000 0.000000 0.032191 0.000000 0.000000
# 5 0.000000 0.000000 0.000000 0.000000 0.032191 0.000000
# 6 0.000000 0.000000 0.000000 0.000000 0.000000 0.106499
#
#
# Mechanical properties :
#
#
# Convention : Reuss Voigt Hill
#
# Bulk Modulus (GPa) = 47.27854 55.65783 51.46818
# Shear Modulus (GPa) = 19.96249 28.18192 24.07221
#
# Velocity S-wave (km/s) = 3.09883 3.68193 3.40289
# Velocity P-wave (km/s) = 5.96208 6.69694 6.34017
#
# Compressibility (1/GPa) = 0.02115125
#
# Stress axis : x y z
#
# Youngs Moduli (GPa) = 49.75853 49.75853 150.35930
#
# Poissons Ratio (x) = 0.41475 0.33918
# Poissons Ratio (y) = 0.41475 0.33918
# Poissons Ratio (z) = 0.11224 0.11224
#
# Static dielectric constant tensor:
#      x y z
#    x 3.458840 0.000000 0.000000 
#    y 0.000000 3.458840 0.000000 
#    z 0.000000 0.000000 4.111560 
# 
# 
# High freq. dielectric constant tensor:
#      x y z
#    x 1.779830 0.000000 0.000000 
#    y 0.000000 1.779830 0.000000 
#    z 0.000000 0.000000 1.842620 
# 
# From -- ./inp_files/11439.got.cif
#   From: 2010.03.12/outbox.cif.g09.slc.cpg/sg134_6_cif.got.tgz:11439.got - 2010.04.06 18:17:22.
