data_PCOD8317999
_publ_section_title
;
Structure prediction by ZEFSAII (Michael W. Deem and Ramdas Pophale) SiO2 
 PCOD8317999
Probable space group: P 42/M N M
;
_chemical_formula_sum "Si O2"
_cell_formula_units_Z 120
_cell_length_a 27.244628
_cell_length_b 27.244628
_cell_length_c 9.001103
_cell_angle_alpha 90.000000
_cell_angle_beta 90.000000
_cell_angle_gamma 90.000000
_cell_volume 6681.246517
_symmetry_space_group_name_H-M "P 42/M N M"
_symmetry_group_IT_number 136
_symmetry_cell_setting 'tetragonal'
loop_
_space_group_symop_operation_xyz
x,y,z
1/2-y,1/2+x,1/2+z
-x,-y,z
1/2+y,1/2-x,1/2+z
1/2+x,1/2-y,1/2-z
1/2-x,1/2+y,1/2-z
y,x,-z
-y,-x,-z
-x,-y,-z
1/2+y,1/2-x,1/2-z
x,y,-z
1/2-y,1/2+x,1/2-z
1/2-x,1/2+y,1/2+z
1/2+x,1/2-y,1/2+z
-y,-x,z
y,x,z
loop_
_atom_site_type_symbol
_atom_site_label
_atom_site_fract_x
_atom_site_fract_y
_atom_site_fract_z
Si Si1 0.344983 0.866057 0.822709
Si Si2 0.341286 0.056787 0.166609
Si Si3 0.535293 0.614671 0.325262
Si Si4 0.038209 0.038209 0.824411
Si Si5 0.703346 0.500459 0.166704
Si Si6 0.730647 0.809429 0.174968
Si Si7 0.186041 0.463704 0.829107
Si Si8 0.910402 0.769870 0.836981
O O1 0.399942 0.867541 0.757589
O O2 0.312976 0.819677 0.766526
O O3 0.318067 0.914492 0.766018
O O4 0.347330 0.864744 0.000000
O O5 0.284554 0.068702 0.153120
O O6 0.348200 0.005796 0.255853
O O7 0.363936 0.052278 0.000000
O O8 0.538894 0.621552 0.500000
O O9 0.579996 0.579996 0.270441
O O10 0.481607 0.591938 0.276740
O O11 0.538547 0.667991 0.251616
O O12 0.034687 0.034687 0.000000
O O13 0.000000 0.000000 0.754365
O O14 0.757723 0.520765 0.180114
O O15 0.698667 0.445061 0.229963
O O16 0.684869 0.497648 0.000000
O O17 0.758344 0.758344 0.211298
O O18 0.766798 0.854335 0.221388
O O19 0.718138 0.813925 0.000000
O O20 0.169758 0.455608 0.000000
O O21 0.911924 0.794614 0.000000
#
# Coordination Sequence:
#
# PCOD8317999 Si02
#       8
#    16  16  16   8  16  16  16  16
#     4  11  21  33  53  81 109 140 177 214 259 314
#     4   9  17  32  54  78 103 132 169 213 256 299
#     4   9  17  31  51  70  90 122 165 211 258 310
#     4   7  12  26  47  67  83 107 151 199 241 293
#     4  10  20  32  48  71 100 130 163 207 258 305
#     4   9  18  34  54  75 102 137 175 215 260 308
#     4  10  20  35  54  77 105 138 176 216 255 302
#     4   8  15  29  49  70  94 126 164 204 246 297
#
# _framework density 17.960722000000001
#
# number of rings (size 3 to 8) (size 9 to 14) (size 15 to 20)
#    0.000    2.733    0.000    4.000    0.000    5.333 
#    1.200    1.000    0.000    2.400    0.000    2.800 
#    0.000    0.000    0.000    0.000    0.000    0.000 
#
# Total GULP energy -1487074.334445 kJ/mol
# GULP energy per Si atom -12392.286120 kJ/mol
# Density = 1.791984 g / cm^3
# Si number density = 17.960722 Si / 1000 Ang^3
#
#
#
# Elastic Constant Matrix: (Units=GPa)
#
#
# Indices 1 2 3 4 5 6 
#
# 1 64.8324 23.7900 38.8626 0.0000 0.0000 0.0000
# 2 23.7900 64.8324 38.8626 0.0000 0.0000 0.0000
# 3 38.8626 38.8626 106.9776 0.0000 0.0000 0.0000
# 4 0.0000 0.0000 0.0000 25.1448 0.0000 0.0000
# 5 0.0000 0.0000 0.0000 0.0000 25.1448 0.0000
# 6 0.0000 0.0000 0.0000 0.0000 0.0000 15.0594
#
#
#
# Elastic Compliance Matrix: (Units=1/GPa)
#
#
# Indices 1 2 3 4 5 6 
#
# 1 0.020463 -0.003903 -0.006016 0.000000 0.000000 0.000000
# 2 -0.003903 0.020463 -0.006016 0.000000 0.000000 0.000000
# 3 -0.006016 -0.006016 0.013719 0.000000 0.000000 0.000000
# 4 0.000000 0.000000 0.000000 0.039770 0.000000 0.000000
# 5 0.000000 0.000000 0.000000 0.000000 0.039770 0.000000
# 6 0.000000 0.000000 0.000000 0.000000 0.000000 0.066404
#
#
# Mechanical properties :
#
#
# Convention : Reuss Voigt Hill
#
# Bulk Modulus (GPa) = 43.90761 48.85251 46.38006
# Shear Modulus (GPa) = 20.82926 22.07829 21.45378
#
# Velocity S-wave (km/s) = 3.40915 3.50988 3.45988
# Velocity P-wave (km/s) = 6.32423 6.60941 6.46839
#
# Compressibility (1/GPa) = 0.02277509
#
# Stress axis : x y z
#
# Youngs Moduli (GPa) = 48.86981 48.86981 72.89358
#
# Poissons Ratio (x) = 0.19072 0.43852
# Poissons Ratio (y) = 0.19072 0.43852
# Poissons Ratio (z) = 0.29400 0.29400
#
# Static dielectric constant tensor:
#      x y z
#    x 3.245750 0.000000 0.000000 
#    y 0.000000 3.245750 0.000000 
#    z 0.000000 0.000000 3.411980 
# 
# 
# High freq. dielectric constant tensor:
#      x y z
#    x 1.678100 0.000000 0.000000 
#    y 0.000000 1.678100 0.000000 
#    z 0.000000 0.000000 1.693770 
# 
# From -- ./inp_files/2292.got.cif
#   From: 2010.03.12/outbox.cif.g09.slc.cpg/sg136_2_cif.got.tgz:2292.got - 2010.04.06 18:39:43.
