data_PCOD8317248
_publ_section_title
;
Structure prediction by ZEFSAII (Michael W. Deem and Ramdas Pophale) SiO2 
 PCOD8317248
Probable space group: P 42/N N M
;
_chemical_formula_sum "Si O2"
_cell_formula_units_Z 80
_cell_length_a 16.524964
_cell_length_b 16.524964
_cell_length_c 14.168751
_cell_angle_alpha 90.000000
_cell_angle_beta 90.000000
_cell_angle_gamma 90.000000
_cell_volume 3869.123677
_symmetry_space_group_name_H-M "P 42/N N M"
_symmetry_group_IT_number 134
_space_group.IT_coordinate_system_code '2'
_symmetry_cell_setting 'tetragonal'
loop_
_space_group_symop_operation_xyz
x,y,z
1/2-y,x,1/2+z
1/2-x,1/2-y,z
y,1/2-x,1/2+z
x,1/2-y,1/2-z
1/2-x,y,1/2-z
y,x,-z
1/2-y,1/2-x,-z
-x,-y,-z
1/2+y,-x,1/2-z
1/2+x,1/2+y,-z
-y,1/2+x,1/2-z
-x,1/2+y,1/2+z
1/2+x,-y,1/2+z
-y,-x,z
1/2+y,1/2+x,z
loop_
_atom_site_type_symbol
_atom_site_label
_atom_site_fract_x
_atom_site_fract_y
_atom_site_fract_z
Si Si1 0.896120 0.621518 0.105133
Si Si2 0.267323 0.506302 0.144358
Si Si3 0.039260 0.262045 0.355067
Si Si4 0.933002 0.561511 0.690785
Si Si5 0.882027 0.250305 0.479109
O O1 0.798603 0.613740 0.118898
O O2 0.935754 0.574749 0.194383
O O3 0.928732 0.713699 0.110069
O O4 0.915819 0.584182 0.000000
O O5 0.250000 0.531271 0.250000
O O6 0.361278 0.484824 0.137962
O O7 0.249729 0.587655 0.086568
O O8 0.007443 0.250000 0.250000
O O9 0.069458 0.353338 0.363232
O O10 0.961980 0.244414 0.417859
O O11 0.016751 0.516751 0.668281
O O12 0.828802 0.171199 0.460074
O O13 0.830683 0.330683 0.456230
#
# Coordination Sequence:
#
# PCOD8317248 Si02
#       5
#    16  16  16  16  16
#     4  10  20  40  63  91 125 165 210 265 316 370
#     4  10  22  41  62  93 127 160 209 260 320 376
#     4  10  22  41  62  93 127 160 209 260 320 376
#     4  10  22  39  64  93 127 169 207 257 317 377
#     4  11  24  40  60  87 122 168 213 255 313 382
#
# _framework density 20.676517
#
# number of rings (size 3 to 8) (size 9 to 14) (size 15 to 20)
#    0.000    1.800    2.000    1.200    0.000   10.000 
#    0.000    9.000    0.000    0.000    0.000    0.000 
#    0.000    0.000    0.000    0.000    0.000    0.000 
#
# Total GULP energy -991327.491993 kJ/mol
# GULP energy per Si atom -12391.593650 kJ/mol
# Density = 2.062946 g / cm^3
# Si number density = 20.676517 Si / 1000 Ang^3
#
#
#
# Elastic Constant Matrix: (Units=GPa)
#
#
# Indices 1 2 3 4 5 6 
#
# 1 78.4540 18.3423 -0.6820 0.0000 0.0000 0.0000
# 2 18.3423 78.4538 -0.6820 0.0000 0.0000 0.0000
# 3 -0.6820 -0.6820 74.9678 0.0000 0.0000 0.0000
# 4 0.0000 0.0000 0.0000 23.1240 0.0000 0.0000
# 5 0.0000 0.0000 0.0000 0.0000 23.1242 0.0000
# 6 0.0000 0.0000 0.0000 0.0000 0.0000 26.6144
#
#
#
# Elastic Compliance Matrix: (Units=1/GPa)
#
#
# Indices 1 2 3 4 5 6 
#
# 1 0.013484 -0.003152 0.000094 0.000000 0.000000 0.000000
# 2 -0.003152 0.013484 0.000094 0.000000 0.000000 0.000000
# 3 0.000094 0.000094 0.013341 0.000000 0.000000 0.000000
# 4 0.000000 0.000000 0.000000 0.043245 0.000000 0.000000
# 5 0.000000 0.000000 0.000000 0.000000 0.043245 0.000000
# 6 0.000000 0.000000 0.000000 0.000000 0.000000 0.037574
#
#
# Mechanical properties :
#
#
# Convention : Reuss Voigt Hill
#
# Bulk Modulus (GPa) = 29.08551 29.53690 29.31121
# Shear Modulus (GPa) = 27.50875 28.89899 28.20387
#
# Velocity S-wave (km/s) = 3.65147 3.74260 3.69732
# Velocity P-wave (km/s) = 5.64580 5.74390 5.69506
#
# Compressibility (1/GPa) = 0.03438138
#
# Stress axis : x y z
#
# Youngs Moduli (GPa) = 74.16193 74.16178 74.95817
#
# Poissons Ratio (x) = 0.23374 -0.00705
# Poissons Ratio (y) = 0.23374 -0.00705
# Poissons Ratio (z) = -0.00697 -0.00697
#
# Static dielectric constant tensor:
#      x y z
#    x 3.776190 0.000000 0.000000 
#    y 0.000000 3.776200 0.000000 
#    z 0.000000 0.000000 4.083240 
# 
# 
# High freq. dielectric constant tensor:
#      x y z
#    x 1.802150 0.000000 0.000000 
#    y 0.000000 1.802150 0.000000 
#    z 0.000000 0.000000 1.822220 
# 
# From -- ./inp_files/6370.got.cif
#   From: 2010.03.12/outbox.cif.g09.slc.cpg/sg134_4_cif.got.tgz:6370.got - 2010.04.06 18:17:22.
