data_PCOD8317662
_publ_section_title
;
Structure prediction by ZEFSAII (Michael W. Deem and Ramdas Pophale) SiO2 
 PCOD8317662
Probable space group: P 42/M B C
;
_chemical_formula_sum "Si O2"
_cell_formula_units_Z 48
_cell_length_a 9.010926
_cell_length_b 9.010926
_cell_length_c 25.013717
_cell_angle_alpha 90.000000
_cell_angle_beta 90.000000
_cell_angle_gamma 90.000000
_cell_volume 2031.033461
_symmetry_space_group_name_H-M "P 42/M B C"
_symmetry_group_IT_number 135
_symmetry_cell_setting 'tetragonal'
loop_
_space_group_symop_operation_xyz
x,y,z
-y,x,1/2+z
-x,-y,z
y,-x,1/2+z
1/2+x,1/2-y,-z
1/2-x,1/2+y,-z
1/2+y,1/2+x,1/2-z
1/2-y,1/2-x,1/2-z
-x,-y,-z
y,-x,1/2-z
x,y,-z
-y,x,1/2-z
1/2-x,1/2+y,z
1/2+x,1/2-y,z
1/2-y,1/2-x,1/2+z
1/2+y,1/2+x,1/2+z
loop_
_atom_site_type_symbol
_atom_site_label
_atom_site_fract_x
_atom_site_fract_y
_atom_site_fract_z
Si Si1 0.925151 0.651186 0.383202
Si Si2 0.716106 0.569375 0.771898
Si Si3 0.870219 0.886486 0.938914
O O1 0.934223 0.773782 0.336072
O O2 0.756510 0.622277 0.400876
O O3 0.000000 0.500000 0.363289
O O4 0.024635 0.716094 0.431490
O O5 0.873411 0.626590 0.750000
O O6 0.684665 0.410285 0.746358
O O7 0.882869 0.832892 0.000000
O O8 0.000000 0.000000 0.923429
#
# Coordination Sequence:
#
# PCOD8317662 Si02
#       3
#    16  16  16
#     4  12  27  46  77 107 149 203 253 314 392 462
#     4  11  28  47  73 108 148 192 249 309 375 451
#     4  11  26  47  76 112 153 197 251 318 384 463
#
# _framework density 23.633286999999999
#
# number of rings (size 3 to 8) (size 9 to 14) (size 15 to 20)
#    0.000    0.667    0.000    5.000   18.667    5.333 
#    0.000    0.000    0.000    0.000    0.000    0.000 
#    0.000    0.000    0.000    0.000    0.000    0.000 
#
# Total GULP energy -595438.681506 kJ/mol
# GULP energy per Si atom -12404.972531 kJ/mol
# Density = 2.357950 g / cm^3
# Si number density = 23.633287 Si / 1000 Ang^3
#
#
#
# Elastic Constant Matrix: (Units=GPa)
#
#
# Indices 1 2 3 4 5 6 
#
# 1 132.3128 57.4275 66.4460 0.0000 0.0000 0.0000
# 2 57.4275 132.3153 66.4455 0.0000 0.0000 0.0000
# 3 66.4460 66.4455 125.0269 0.0000 0.0000 0.0000
# 4 0.0000 0.0000 0.0000 33.3963 0.0000 0.0000
# 5 0.0000 0.0000 0.0000 0.0000 33.3964 0.0000
# 6 0.0000 0.0000 0.0000 0.0000 0.0000 58.1740
#
#
#
# Elastic Compliance Matrix: (Units=1/GPa)
#
#
# Indices 1 2 3 4 5 6 
#
# 1 0.010875 -0.002479 -0.004462 0.000000 0.000000 0.000000
# 2 -0.002479 0.010874 -0.004462 0.000000 0.000000 0.000000
# 3 -0.004462 -0.004462 0.012741 0.000000 0.000000 0.000000
# 4 0.000000 0.000000 0.000000 0.029943 0.000000 0.000000
# 5 0.000000 0.000000 0.000000 0.000000 0.029943 0.000000
# 6 0.000000 0.000000 0.000000 0.000000 0.000000 0.017190
#
#
# Mechanical properties :
#
#
# Convention : Reuss Voigt Hill
#
# Bulk Modulus (GPa) = 85.58427 85.58809 85.58618
# Shear Modulus (GPa) = 36.16232 38.28242 37.22237
#
# Velocity S-wave (km/s) = 3.91595 4.02910 3.97293
# Velocity P-wave (km/s) = 7.53248 7.61174 7.57221
#
# Compressibility (1/GPa) = 0.01168439
#
# Stress axis : x y z
#
# Youngs Moduli (GPa) = 91.95812 91.96104 78.48956
#
# Poissons Ratio (x) = 0.22799 0.35020
# Poissons Ratio (y) = 0.22798 0.35018
# Poissons Ratio (z) = 0.41029 0.41028
#
# Static dielectric constant tensor:
#      x y z
#    x 4.304540 0.000000 0.000000 
#    y 0.000000 4.304540 0.000000 
#    z 0.000000 0.000000 4.156960 
# 
# 
# High freq. dielectric constant tensor:
#      x y z
#    x 1.946820 0.000000 0.000000 
#    y 0.000000 1.946820 0.000000 
#    z 0.000000 0.000000 1.939730 
# 
# From -- ./inp_files/6573.got.cif
#   From: 2010.03.12/outbox.cif.g09.slc.cpg/sg135_4_cif.got.tgz:6573.got - 2010.04.06 18:31:24.
