data_PCOD8317948
_publ_section_title
;
Structure prediction by ZEFSAII (Michael W. Deem and Ramdas Pophale) SiO2 
 PCOD8317948
Probable space group: P 42/M N M
;
_chemical_formula_sum "Si O2"
_cell_formula_units_Z 96
_cell_length_a 24.731007
_cell_length_b 24.731007
_cell_length_c 8.662715
_cell_angle_alpha 90.000000
_cell_angle_beta 90.000000
_cell_angle_gamma 90.000000
_cell_volume 5298.313200
_symmetry_space_group_name_H-M "P 42/M N M"
_symmetry_group_IT_number 136
_symmetry_cell_setting 'tetragonal'
loop_
_space_group_symop_operation_xyz
x,y,z
1/2-y,1/2+x,1/2+z
-x,-y,z
1/2+y,1/2-x,1/2+z
1/2+x,1/2-y,1/2-z
1/2-x,1/2+y,1/2-z
y,x,-z
-y,-x,-z
-x,-y,-z
1/2+y,1/2-x,1/2-z
x,y,-z
1/2-y,1/2+x,1/2-z
1/2-x,1/2+y,1/2+z
1/2+x,1/2-y,1/2+z
-y,-x,z
y,x,z
loop_
_atom_site_type_symbol
_atom_site_label
_atom_site_fract_x
_atom_site_fract_y
_atom_site_fract_z
Si Si1 0.317640 0.593886 0.824836
Si Si2 0.798822 0.201179 0.817582
Si Si3 0.809364 0.644152 0.684029
Si Si4 0.487088 0.341591 0.675097
Si Si5 0.382125 0.382125 0.178926
Si Si6 0.795983 0.409447 0.683171
Si Si7 0.285381 0.972573 0.173749
O O1 0.352053 0.647948 0.821832
O O2 0.352151 0.545738 0.748450
O O3 0.264714 0.606763 0.725930
O O4 0.301622 0.578309 0.000000
O O5 0.739712 0.182545 0.753095
O O6 0.843269 0.156732 0.775827
O O7 0.795896 0.204105 0.000000
O O8 0.805792 0.642677 0.500000
O O9 0.867730 0.664035 0.736520
O O10 0.804111 0.583239 0.755242
O O11 0.485645 0.363577 0.500000
O O12 0.444165 0.372292 0.779654
O O13 0.473647 0.278747 0.679509
O O14 0.371435 0.371435 0.000000
O O15 0.802519 0.406516 0.500000
O O16 0.808090 0.470920 0.745764
O O17 0.306768 0.970637 0.000000
#
# Coordination Sequence:
#
# PCOD8317948 Si02
#       7
#    16   8  16  16   8  16  16
#     4  10  21  37  55  76 105 141 180 223 269 319
#     4  10  20  34  54  77 107 144 182 219 271 329
#     4  10  19  34  55  79 107 142 179 219 271 323
#     4  10  19  35  56  76 102 140 182 224 270 322
#     4  12  22  32  51  81 112 140 176 223 273 325
#     4  10  21  35  53  81 110 140 178 221 267 322
#     4   8  16  33  55  74  99 137 178 216 260 318
#
# _framework density 18.118974000000001
#
# number of rings (size 3 to 8) (size 9 to 14) (size 15 to 20)
#    0.000    2.167    1.667    3.250    1.167    2.000 
#    0.000    2.083    0.000    3.000    0.000    3.500 
#    0.000    0.000    0.000    0.000    0.000    0.000 
#
# Total GULP energy -1189902.406395 kJ/mol
# GULP energy per Si atom -12394.816733 kJ/mol
# Density = 1.807773 g / cm^3
# Si number density = 18.118974 Si / 1000 Ang^3
#
#
#
# Elastic Constant Matrix: (Units=GPa)
#
#
# Indices 1 2 3 4 5 6 
#
# 1 94.8622 58.4383 10.2219 0.0000 0.0000 0.0000
# 2 58.4383 94.8619 10.2212 0.0000 0.0000 0.0000
# 3 10.2219 10.2212 12.0062 0.0000 0.0000 0.0000
# 4 0.0000 0.0000 0.0000 26.9407 0.0000 0.0000
# 5 0.0000 0.0000 0.0000 0.0000 26.9406 0.0000
# 6 0.0000 0.0000 0.0000 0.0000 0.0000 23.9241
#
#
#
# Elastic Compliance Matrix: (Units=1/GPa)
#
#
# Indices 1 2 3 4 5 6 
#
# 1 0.017407 -0.010048 -0.006266 0.000000 0.000000 0.000000
# 2 -0.010048 0.017407 -0.006264 0.000000 0.000000 0.000000
# 3 -0.006266 -0.006264 0.093957 0.000000 0.000000 0.000000
# 4 0.000000 0.000000 0.000000 0.037119 0.000000 0.000000
# 5 0.000000 0.000000 0.000000 0.000000 0.037119 0.000000
# 6 0.000000 0.000000 0.000000 0.000000 0.000000 0.041799
#
#
# Mechanical properties :
#
#
# Convention : Reuss Voigt Hill
#
# Bulk Modulus (GPa) = 11.95955 39.94368 25.95162
# Shear Modulus (GPa) = 15.73153 23.75101 19.74127
#
# Velocity S-wave (km/s) = 2.94978 3.62448 3.30439
# Velocity P-wave (km/s) = 4.26808 6.29356 5.37705
#
# Compressibility (1/GPa) = 0.08361518
#
# Stress axis : x y z
#
# Youngs Moduli (GPa) = 57.44913 57.44977 10.64316
#
# Poissons Ratio (x) = 0.57726 0.06669
# Poissons Ratio (y) = 0.57725 0.06667
# Poissons Ratio (z) = 0.35996 0.35985
#
# Static dielectric constant tensor:
#      x y z
#    x 3.461390 0.000000 0.000000 
#    y 0.000000 3.461390 0.000000 
#    z 0.000000 0.000000 3.282810 
# 
# 
# High freq. dielectric constant tensor:
#      x y z
#    x 1.694240 0.000000 0.000000 
#    y 0.000000 1.694240 0.000000 
#    z 0.000000 0.000000 1.689730 
# 
# From -- ./inp_files/2046.got.cif
#   From: 2010.03.12/outbox.cif.g09.slc.cpg/sg136_2_cif.got.tgz:2046.got - 2010.04.06 18:39:43.
