data_PCOD8317833
_publ_section_title
;
Structure prediction by ZEFSAII (Michael W. Deem and Ramdas Pophale) SiO2 
 PCOD8317833
Probable space group: P 42/M N M
;
_chemical_formula_sum "Si O2"
_cell_formula_units_Z 128
_cell_length_a 23.624393
_cell_length_b 23.624393
_cell_length_c 12.432551
_cell_angle_alpha 90.000000
_cell_angle_beta 90.000000
_cell_angle_gamma 90.000000
_cell_volume 6938.755215
_symmetry_space_group_name_H-M "P 42/M N M"
_symmetry_group_IT_number 136
_symmetry_cell_setting 'tetragonal'
loop_
_space_group_symop_operation_xyz
x,y,z
1/2-y,1/2+x,1/2+z
-x,-y,z
1/2+y,1/2-x,1/2+z
1/2+x,1/2-y,1/2-z
1/2-x,1/2+y,1/2-z
y,x,-z
-y,-x,-z
-x,-y,-z
1/2+y,1/2-x,1/2-z
x,y,-z
1/2-y,1/2+x,1/2-z
1/2-x,1/2+y,1/2+z
1/2+x,1/2-y,1/2+z
-y,-x,z
y,x,z
loop_
_atom_site_type_symbol
_atom_site_label
_atom_site_fract_x
_atom_site_fract_y
_atom_site_fract_z
Si Si1 0.139639 0.048515 0.874684
Si Si2 0.482535 0.252114 0.877765
Si Si3 0.081523 0.252507 0.217421
Si Si4 0.733377 0.822576 0.381722
Si Si5 0.429518 0.336520 0.268502
Si Si6 0.855290 0.557898 0.229646
Si Si7 0.546183 0.131166 0.626111
Si Si8 0.119731 0.731734 0.119518
O O1 0.085184 0.085184 0.837847
O O2 0.195824 0.086746 0.853623
O O3 0.139820 0.989236 0.811406
O O4 0.136106 0.034419 0.000000
O O5 0.537931 0.263650 0.809698
O O6 0.436202 0.298168 0.838698
O O7 0.464517 0.186802 0.862903
O O8 0.496448 0.264243 0.000000
O O9 0.137468 0.272515 0.278760
O O10 0.060601 0.302591 0.139888
O O11 0.725455 0.852668 0.500000
O O12 0.795171 0.795171 0.377832
O O13 0.687385 0.772491 0.370549
O O14 0.389346 0.389346 0.242413
O O15 0.400810 0.294939 0.354950
O O16 0.883661 0.508359 0.301234
O O17 0.903314 0.592788 0.169819
O O18 0.818010 0.595535 0.308018
O O19 0.535206 0.118528 0.500000
O O20 0.098058 0.718469 0.000000
#
# Coordination Sequence:
#
# PCOD8317833 Si02
#       8
#    16  16  16  16  16  16  16  16
#     4  10  21  36  55  81 112 147 186 229 280 336
#     4   9  19  35  56  78 106 145 186 228 273 327
#     4  10  19  35  56  80 109 142 185 226 273 331
#     4  10  19  30  50  81 113 142 175 222 275 325
#     4  10  21  35  55  81 111 147 188 234 280 331
#     4  10  21  37  55  82 110 141 186 225 272 328
#     4  11  22  38  59  81 109 146 183 228 278 327
#     4  10  19  34  54  79 110 143 181 226 275 326
#
# _framework density 18.447113000000002
#
# number of rings (size 3 to 8) (size 9 to 14) (size 15 to 20)
#    0.000    2.000    1.250    3.375    0.000    2.250 
#    0.000    3.125    0.000    3.375    0.000    3.500 
#    0.000    0.000    0.000    0.000    0.000    0.000 
#
# Total GULP energy -1586595.914902 kJ/mol
# GULP energy per Si atom -12395.280585 kJ/mol
# Density = 1.840513 g / cm^3
# Si number density = 18.447113 Si / 1000 Ang^3
#
#
#
# Elastic Constant Matrix: (Units=GPa)
#
#
# Indices 1 2 3 4 5 6 
#
# 1 85.3121 37.4518 28.7104 0.0000 0.0000 0.0000
# 2 37.4518 85.3121 28.7104 0.0000 0.0000 0.0000
# 3 28.7104 28.7104 84.1318 0.0000 0.0000 0.0000
# 4 0.0000 0.0000 0.0000 12.4732 0.0000 0.0000
# 5 0.0000 0.0000 0.0000 0.0000 12.4732 0.0000
# 6 0.0000 0.0000 0.0000 0.0000 0.0000 38.0055
#
#
#
# Elastic Compliance Matrix: (Units=1/GPa)
#
#
# Indices 1 2 3 4 5 6 
#
# 1 0.015294 -0.005601 -0.003308 0.000000 0.000000 0.000000
# 2 -0.005601 0.015294 -0.003308 0.000000 0.000000 0.000000
# 3 -0.003308 -0.003308 0.014144 0.000000 0.000000 0.000000
# 4 0.000000 0.000000 0.000000 0.080172 0.000000 0.000000
# 5 0.000000 0.000000 0.000000 0.000000 0.080172 0.000000
# 6 0.000000 0.000000 0.000000 0.000000 0.000000 0.026312
#
#
# Mechanical properties :
#
#
# Convention : Reuss Voigt Hill
#
# Bulk Modulus (GPa) = 49.26484 49.38900 49.32692
# Shear Modulus (GPa) = 19.04148 23.24929 21.14538
#
# Velocity S-wave (km/s) = 3.21630 3.55395 3.38933
# Velocity P-wave (km/s) = 6.36842 6.60849 6.48957
#
# Compressibility (1/GPa) = 0.02029845
#
# Stress axis : x y z
#
# Youngs Moduli (GPa) = 65.38720 65.38720 70.70304
#
# Poissons Ratio (x) = 0.36621 0.23387
# Poissons Ratio (y) = 0.36621 0.23387
# Poissons Ratio (z) = 0.21628 0.21628
#
# Static dielectric constant tensor:
#      x y z
#    x 3.410710 0.000000 0.000000 
#    y 0.000000 3.410710 0.000000 
#    z 0.000000 0.000000 3.868680 
# 
# 
# High freq. dielectric constant tensor:
#      x y z
#    x 1.713620 0.000000 0.000000 
#    y 0.000000 1.713620 0.000000 
#    z 0.000000 0.000000 1.712700 
# 
# From -- ./inp_files/4091.got.cif
#   From: 2010.03.12/outbox.cif.g09.slc.cpg/sg136_3_cif.got.tgz:4091.got - 2010.04.06 18:39:43.
