data_PCOD8317497
_publ_section_title
;
Structure prediction by ZEFSAII (Michael W. Deem and Ramdas Pophale) SiO2 
 PCOD8317497
Probable space group: P 42/M B C
;
_chemical_formula_sum "Si O2"
_cell_formula_units_Z 112
_cell_length_a 14.300668
_cell_length_b 14.300668
_cell_length_c 26.916428
_cell_angle_alpha 90.000000
_cell_angle_beta 90.000000
_cell_angle_gamma 90.000000
_cell_volume 5504.654607
_symmetry_space_group_name_H-M "P 42/M B C"
_symmetry_group_IT_number 135
_symmetry_cell_setting 'tetragonal'
loop_
_space_group_symop_operation_xyz
x,y,z
-y,x,1/2+z
-x,-y,z
y,-x,1/2+z
1/2+x,1/2-y,-z
1/2-x,1/2+y,-z
1/2+y,1/2+x,1/2-z
1/2-y,1/2-x,1/2-z
-x,-y,-z
y,-x,1/2-z
x,y,-z
-y,x,1/2-z
1/2-x,1/2+y,z
1/2+x,1/2-y,z
1/2-y,1/2-x,1/2+z
1/2+y,1/2+x,1/2+z
loop_
_atom_site_type_symbol
_atom_site_label
_atom_site_fract_x
_atom_site_fract_y
_atom_site_fract_z
Si Si1 0.381696 0.405616 0.260064
Si Si2 0.298617 0.879321 0.202987
Si Si3 0.895184 0.534188 0.053315
Si Si4 0.405279 0.054195 0.195599
Si Si5 0.348444 0.707378 0.137884
Si Si6 0.273053 0.975516 0.558043
Si Si7 0.643405 0.847323 0.604822
O O1 0.372249 0.517686 0.258655
O O2 0.307665 0.362031 0.221015
O O3 0.362549 0.369619 0.316212
O O4 0.367338 0.867338 0.250000
O O5 0.328916 0.810388 0.159260
O O6 0.316758 0.985810 0.186430
O O7 0.903843 0.641726 0.069612
O O8 0.839604 0.466601 0.090177
O O9 0.000000 0.500000 0.047630
O O10 0.843998 0.527711 0.000000
O O11 0.403117 0.096884 0.250000
O O12 0.393862 0.143484 0.159606
O O13 0.500000 0.000000 0.182202
O O14 0.435189 0.699259 0.098469
O O15 0.256896 0.681936 0.105955
O O16 0.240906 0.968750 0.500000
O O17 0.297090 0.084842 0.568519
#
# Coordination Sequence:
#
# PCOD8317497 Si02
#       7
#    16  16  16  16  16  16  16
#     4  10  23  41  60  82 122 170 210 254 305 376
#     4  10  20  36  53  84 122 152 202 248 306 374
#     4   8  15  32  57  82 110 149 193 248 316 375
#     4  11  20  32  56  86 118 160 187 255 318 382
#     4  11  24  36  60  91 120 168 205 263 309 387
#     4  10  22  39  59  86 125 159 203 269 323 375
#     4  11  21  33  57  86 116 155 202 249 317 375
#
# _framework density 20.346416999999999
#
# number of rings (size 3 to 8) (size 9 to 14) (size 15 to 20)
#    0.000    1.857    1.429    5.143    4.000    2.857 
#    0.000    0.000    0.000    0.000    0.000    2.000 
#    0.000    0.000    0.000    0.000    0.000    0.000 
#
# Total GULP energy -1387975.676304 kJ/mol
# GULP energy per Si atom -12392.639967 kJ/mol
# Density = 2.030011 g / cm^3
# Si number density = 20.346417 Si / 1000 Ang^3
#
#
#
# Elastic Constant Matrix: (Units=GPa)
#
#
# Indices 1 2 3 4 5 6 
#
# 1 61.9597 11.3052 32.3258 0.0000 0.0000 0.0000
# 2 11.3052 61.9594 32.3259 0.0000 0.0000 0.0000
# 3 32.3258 32.3259 107.3821 0.0000 0.0000 0.0000
# 4 0.0000 0.0000 0.0000 43.2793 0.0000 0.0000
# 5 0.0000 0.0000 0.0000 0.0000 43.2788 0.0000
# 6 0.0000 0.0000 0.0000 0.0000 0.0000 29.9611
#
#
#
# Elastic Compliance Matrix: (Units=1/GPa)
#
#
# Indices 1 2 3 4 5 6 
#
# 1 0.019164 -0.000578 -0.005595 0.000000 0.000000 0.000000
# 2 -0.000578 0.019164 -0.005595 0.000000 0.000000 0.000000
# 3 -0.005595 -0.005595 0.012681 0.000000 0.000000 0.000000
# 4 0.000000 0.000000 0.000000 0.023106 0.000000 0.000000
# 5 0.000000 0.000000 0.000000 0.000000 0.023106 0.000000
# 6 0.000000 0.000000 0.000000 0.000000 0.000000 0.033377
#
#
# Mechanical properties :
#
#
# Convention : Reuss Voigt Hill
#
# Bulk Modulus (GPa) = 36.39869 42.57946 39.48907
# Shear Modulus (GPa) = 30.62005 33.66012 32.14009
#
# Velocity S-wave (km/s) = 3.88356 4.07178 3.97878
# Velocity P-wave (km/s) = 6.16747 6.56343 6.36853
#
# Compressibility (1/GPa) = 0.02747352
#
# Stress axis : x y z
#
# Youngs Moduli (GPa) = 52.18105 52.18067 78.85648
#
# Poissons Ratio (x) = 0.03014 0.44122
# Poissons Ratio (y) = 0.03014 0.44122
# Poissons Ratio (z) = 0.29196 0.29196
#
# Static dielectric constant tensor:
#      x y z
#    x 3.589000 0.000000 0.000000 
#    y 0.000000 3.589000 0.000000 
#    z 0.000000 0.000000 3.848020 
# 
# 
# High freq. dielectric constant tensor:
#      x y z
#    x 1.769700 0.000000 0.000000 
#    y 0.000000 1.769700 0.000000 
#    z 0.000000 0.000000 1.806750 
# 
# From -- ./inp_files/6518.got.cif
#   From: 2010.03.12/outbox.cif.g09.slc.cpg/sg135_4_cif.got.tgz:6518.got - 2010.04.06 18:31:24.
