data_PCOD8317315
_publ_section_title
;
Structure prediction by ZEFSAII (Michael W. Deem and Ramdas Pophale) SiO2 
 PCOD8317315
Probable space group: P 42/N N M
;
_chemical_formula_sum "Si O2"
_cell_formula_units_Z 72
_cell_length_a 20.809263
_cell_length_b 20.809263
_cell_length_c 8.227443
_cell_angle_alpha 90.000000
_cell_angle_beta 90.000000
_cell_angle_gamma 90.000000
_cell_volume 3562.692015
_symmetry_space_group_name_H-M "P 42/N N M"
_symmetry_group_IT_number 134
_space_group.IT_coordinate_system_code '2'
_symmetry_cell_setting 'tetragonal'
loop_
_space_group_symop_operation_xyz
x,y,z
1/2-y,x,1/2+z
1/2-x,1/2-y,z
y,1/2-x,1/2+z
x,1/2-y,1/2-z
1/2-x,y,1/2-z
y,x,-z
1/2-y,1/2-x,-z
-x,-y,-z
1/2+y,-x,1/2-z
1/2+x,1/2+y,-z
-y,1/2+x,1/2-z
-x,1/2+y,1/2+z
1/2+x,-y,1/2+z
-y,-x,z
1/2+y,1/2+x,z
loop_
_atom_site_type_symbol
_atom_site_label
_atom_site_fract_x
_atom_site_fract_y
_atom_site_fract_z
Si Si1 0.023288 0.523288 0.250644
Si Si2 0.424933 0.376301 0.840525
Si Si3 0.571273 0.428728 0.428188
Si Si4 0.194149 0.123555 0.627946
Si Si5 0.250000 0.000093 0.250000
Si Si6 0.710507 0.021658 0.087606
O O1 0.072946 0.483088 0.358929
O O2 0.975773 0.475773 0.162475
O O3 0.064205 0.564205 0.121301
O O4 0.375821 0.393449 0.698814
O O5 0.453675 0.307101 0.807628
O O6 0.380323 0.380323 0.000000
O O7 0.642651 0.446566 0.374385
O O8 0.250000 0.147990 0.750000
O O9 0.181636 0.181636 0.500000
O O10 0.213941 0.055030 0.553700
O O11 0.235117 0.954380 0.408669
O O12 0.750000 0.040033 0.250000
#
# Coordination Sequence:
#
# PCOD8317315 Si02
#       6
#     8  16   8  16   8  16
#     4  11  21  38  64  96 125 161 213 266 339 382
#     4  12  24  39  61  91 129 169 218 266 322 388
#     4  11  20  40  66  95 131 163 211 270 336 392
#     4  11  21  40  63  85 123 169 216 267 322 367
#     4  12  24  40  61  88 132 175 212 266 324 378
#     4  11  23  42  67  96 128 170 210 265 332 394
#
# _framework density 20.209437000000001
#
# number of rings (size 3 to 8) (size 9 to 14) (size 15 to 20)
#    0.000    0.667    6.667    3.000    0.000    0.000 
#    0.000    1.667    4.889    0.333    0.000    0.000 
#    0.000    0.444    0.000    0.000    0.000    0.000 
#
# Total GULP energy -892129.105198 kJ/mol
# GULP energy per Si atom -12390.682017 kJ/mol
# Density = 2.016344 g / cm^3
# Si number density = 20.209437 Si / 1000 Ang^3
#
#
#
# Elastic Constant Matrix: (Units=GPa)
#
#
# Indices 1 2 3 4 5 6 
#
# 1 93.9330 38.7269 40.1637 0.0000 0.0000 0.0000
# 2 38.7269 93.9330 40.1637 0.0000 0.0000 0.0000
# 3 40.1637 40.1637 125.8578 0.0000 0.0000 0.0000
# 4 0.0000 0.0000 0.0000 25.5239 0.0000 0.0000
# 5 0.0000 0.0000 0.0000 0.0000 25.5239 0.0000
# 6 0.0000 0.0000 0.0000 0.0000 0.0000 20.3185
#
#
#
# Elastic Compliance Matrix: (Units=1/GPa)
#
#
# Indices 1 2 3 4 5 6 
#
# 1 0.013729 -0.004385 -0.002982 0.000000 0.000000 0.000000
# 2 -0.004385 0.013729 -0.002982 0.000000 0.000000 0.000000
# 3 -0.002982 -0.002982 0.009849 0.000000 0.000000 0.000000
# 4 0.000000 0.000000 0.000000 0.039179 0.000000 0.000000
# 5 0.000000 0.000000 0.000000 0.000000 0.039179 0.000000
# 6 0.000000 0.000000 0.000000 0.000000 0.000000 0.049216
#
#
# Mechanical properties :
#
#
# Convention : Reuss Voigt Hill
#
# Bulk Modulus (GPa) = 60.20915 61.31469 60.76192
# Shear Modulus (GPa) = 26.16245 27.25123 26.70684
#
# Velocity S-wave (km/s) = 3.60191 3.67610 3.63919
# Velocity P-wave (km/s) = 6.86699 6.95872 6.91301
#
# Compressibility (1/GPa) = 0.01660877
#
# Stress axis : x y z
#
# Youngs Moduli (GPa) = 72.83986 72.83986 101.53821
#
# Poissons Ratio (x) = 0.31942 0.30276
# Poissons Ratio (y) = 0.31942 0.30276
# Poissons Ratio (z) = 0.21719 0.21719
#
# Static dielectric constant tensor:
#      x y z
#    x 3.577200 0.000000 0.000000 
#    y 0.000000 3.577200 0.000000 
#    z 0.000000 0.000000 3.541240 
# 
# 
# High freq. dielectric constant tensor:
#      x y z
#    x 1.766950 0.000000 0.000000 
#    y 0.000000 1.766950 0.000000 
#    z 0.000000 0.000000 1.809180 
# 
# From -- ./inp_files/2964.got.cif
#   From: 2010.03.12/outbox.cif.g09.slc.cpg/sg134_2_cif.got.tgz:2964.got - 2010.04.06 18:17:22.
