data_PCOD8317239
_publ_section_title
;
Structure prediction by ZEFSAII (Michael W. Deem and Ramdas Pophale) SiO2 
 PCOD8317239
Probable space group: P 42/N N M
;
_chemical_formula_sum "Si O2"
_cell_formula_units_Z 72
_cell_length_a 17.686564
_cell_length_b 17.686564
_cell_length_c 12.752231
_cell_angle_alpha 90.000000
_cell_angle_beta 90.000000
_cell_angle_gamma 90.000000
_cell_volume 3989.083352
_symmetry_space_group_name_H-M "P 42/N N M"
_symmetry_group_IT_number 134
_space_group.IT_coordinate_system_code '2'
_symmetry_cell_setting 'tetragonal'
loop_
_space_group_symop_operation_xyz
x,y,z
1/2-y,x,1/2+z
1/2-x,1/2-y,z
y,1/2-x,1/2+z
x,1/2-y,1/2-z
1/2-x,y,1/2-z
y,x,-z
1/2-y,1/2-x,-z
-x,-y,-z
1/2+y,-x,1/2-z
1/2+x,1/2+y,-z
-y,1/2+x,1/2-z
-x,1/2+y,1/2+z
1/2+x,-y,1/2+z
-y,-x,z
1/2+y,1/2+x,z
loop_
_atom_site_type_symbol
_atom_site_label
_atom_site_fract_x
_atom_site_fract_y
_atom_site_fract_z
Si Si1 0.408092 0.408092 0.000000
Si Si2 0.323352 0.946317 0.188338
Si Si3 0.943876 0.940545 0.219198
Si Si4 0.186264 0.365330 0.832655
Si Si5 0.261719 0.075374 0.051460
O O1 0.425600 0.462039 0.902025
O O2 0.420450 0.327937 0.943181
O O3 0.250000 0.915385 0.250000
O O4 0.375347 0.875347 0.152262
O O5 0.368179 0.000899 0.268131
O O6 0.296692 0.994696 0.086527
O O7 0.866675 0.927878 0.279976
O O8 0.986479 0.013522 0.267684
O O9 0.250000 0.339672 0.750000
O O10 0.140928 0.291178 0.870055
O O11 0.218600 0.409050 0.931787
#
# Coordination Sequence:
#
# PCOD8317239 Si02
#       5
#     8  16  16  16  16
#     4  12  19  35  54  78 114 142 186 224 272 338
#     4  10  20  37  57  79 110 144 186 235 280 328
#     4  10  21  35  55  78 106 144 183 227 272 326
#     4  10  20  37  53  79 114 145 182 220 273 337
#     4  10  22  35  53  85 111 147 181 224 279 335
#
# _framework density 18.049258999999999
#
# number of rings (size 3 to 8) (size 9 to 14) (size 15 to 20)
#    0.000    1.778    4.444    0.333    0.000    2.889 
#    4.000    4.444    0.000    0.000    0.000    0.000 
#    0.000    0.444    0.000    0.000    0.000    0.000 
#
# Total GULP energy -892411.566517 kJ/mol
# GULP energy per Si atom -12394.605091 kJ/mol
# Density = 1.800818 g / cm^3
# Si number density = 18.049259 Si / 1000 Ang^3
#
#
#
# Elastic Constant Matrix: (Units=GPa)
#
#
# Indices 1 2 3 4 5 6 
#
# 1 80.7401 45.0161 28.2621 0.0000 0.0000 0.0000
# 2 45.0161 80.7401 28.2621 0.0000 0.0000 0.0000
# 3 28.2621 28.2621 97.4319 0.0000 0.0000 0.0000
# 4 0.0000 0.0000 0.0000 3.1535 0.0000 0.0000
# 5 0.0000 0.0000 0.0000 0.0000 3.1535 0.0000
# 6 0.0000 0.0000 0.0000 0.0000 0.0000 22.1774
#
#
#
# Elastic Compliance Matrix: (Units=1/GPa)
#
#
# Indices 1 2 3 4 5 6 
#
# 1 0.018568 -0.009424 -0.002652 0.000000 0.000000 0.000000
# 2 -0.009424 0.018568 -0.002652 0.000000 0.000000 0.000000
# 3 -0.002652 -0.002652 0.011802 0.000000 0.000000 0.000000
# 4 0.000000 0.000000 0.000000 0.317104 0.000000 0.000000
# 5 0.000000 0.000000 0.000000 0.000000 0.317104 0.000000
# 6 0.000000 0.000000 0.000000 0.000000 0.000000 0.045091
#
#
# Mechanical properties :
#
#
# Convention : Reuss Voigt Hill
#
# Bulk Modulus (GPa) = 51.33254 51.33255 51.33254
# Shear Modulus (GPa) = 6.54288 16.18835 11.36561
#
# Velocity S-wave (km/s) = 1.90601 2.99807 2.51210
# Velocity P-wave (km/s) = 5.77459 6.36291 6.07587
#
# Compressibility (1/GPa) = 0.01948082
#
# Stress axis : x y z
#
# Youngs Moduli (GPa) = 53.85537 53.85537 84.72873
#
# Poissons Ratio (x) = 0.50754 0.22474
# Poissons Ratio (y) = 0.50754 0.22474
# Poissons Ratio (z) = 0.14285 0.14285
#
# Static dielectric constant tensor:
#      x y z
#    x 3.314820 0.000000 0.000000 
#    y 0.000000 3.314820 0.000000 
#    z 0.000000 0.000000 3.378970 
# 
# 
# High freq. dielectric constant tensor:
#      x y z
#    x 1.686320 0.000000 0.000000 
#    y 0.000000 1.686320 0.000000 
#    z 0.000000 0.000000 1.706990 
# 
# From -- ./inp_files/4703.got.cif
#   From: 2010.03.12/outbox.cif.g09.slc.cpg/sg134_3_cif.got.tgz:4703.got - 2010.04.06 18:17:22.
