data_PCOD8317007
_publ_section_title
;
Structure prediction by ZEFSAII (Michael W. Deem and Ramdas Pophale) SiO2 
 PCOD8317007
Probable space group: P 42/N B C
;
_chemical_formula_sum "Si O2"
_cell_formula_units_Z 116
_cell_length_a 18.474535
_cell_length_b 18.474535
_cell_length_c 16.689765
_cell_angle_alpha 90.000000
_cell_angle_beta 90.000000
_cell_angle_gamma 90.000000
_cell_volume 5696.357714
_symmetry_space_group_name_H-M "P 42/N B C"
_symmetry_group_IT_number 133
_space_group.IT_coordinate_system_code '2'
_symmetry_cell_setting 'tetragonal'
loop_
_space_group_symop_operation_xyz
x,y,z
1/2-y,x,1/2+z
1/2-x,1/2-y,z
y,1/2-x,1/2+z
x,1/2-y,-z
1/2-x,y,-z
y,x,1/2-z
1/2-y,1/2-x,1/2-z
-x,-y,-z
1/2+y,-x,1/2-z
1/2+x,1/2+y,-z
-y,1/2+x,1/2-z
-x,1/2+y,z
1/2+x,-y,z
-y,-x,1/2+z
1/2+y,1/2+x,1/2+z
loop_
_atom_site_type_symbol
_atom_site_label
_atom_site_fract_x
_atom_site_fract_y
_atom_site_fract_z
Si Si1 0.973949 0.068101 0.397052
Si Si2 0.749968 0.908507 0.688587
Si Si3 0.516048 0.828471 0.532653
Si Si4 0.250000 0.250000 0.250000
Si Si5 0.788782 0.041277 0.202993
Si Si6 0.368853 0.015066 0.611297
Si Si7 0.864519 0.552262 0.558592
Si Si8 0.415658 0.862078 0.250991
O O1 0.967389 0.130017 0.465726
O O2 0.975569 0.100335 0.307683
O O3 0.047215 0.024121 0.408119
O O4 0.909644 0.011309 0.400699
O O5 0.746137 0.822997 0.699325
O O6 0.834005 0.923749 0.668472
O O7 0.702925 0.928819 0.612531
O O8 0.723825 0.959712 0.762201
O O9 0.540165 0.750000 0.500000
O O10 0.468141 0.817468 0.612598
O O11 0.588141 0.874777 0.548573
O O12 0.717527 0.091825 0.210095
O O13 0.844589 0.088645 0.255131
O O14 0.331854 0.020536 0.524346
O O15 0.356365 0.939787 0.657913
#
# Coordination Sequence:
#
# PCOD8317007 Si02
#       8
#    16  16  16   4  16  16  16  16
#     4  11  21  39  64  95 122 162 211 263 312 370
#     4  11  25  41  61  88 131 170 212 252 312 374
#     4  11  22  37  62  95 128 159 210 267 318 369
#     4  12  28  40  58  92 128 172 210 268 304 362
#     4  11  23  42  64  94 124 167 205 258 316 376
#     4  10  23  37  62  89 122 166 209 262 303 372
#     4  11  22  41  62  91 127 167 212 259 312 376
#     4  11  22  39  66  93 124 163 210 259 315 376
#
# _framework density 20.363889
#
# number of rings (size 3 to 8) (size 9 to 14) (size 15 to 20)
#    0.000    1.103    2.759    4.966    3.862    2.483 
#    0.000    0.690    0.000    0.000    0.000    0.000 
#    0.000    0.000    0.000    0.000    0.000    0.000 
#
# Total GULP energy -1437520.590270 kJ/mol
# GULP energy per Si atom -12392.418882 kJ/mol
# Density = 2.031754 g / cm^3
# Si number density = 20.363889 Si / 1000 Ang^3
#
#
#
# Elastic Constant Matrix: (Units=GPa)
#
#
# Indices 1 2 3 4 5 6 
#
# 1 86.8755 32.3565 31.6614 0.0000 0.0000 0.0000
# 2 32.3565 86.8755 31.6614 0.0000 0.0000 0.0000
# 3 31.6614 31.6614 110.1995 0.0000 0.0000 0.0000
# 4 0.0000 0.0000 0.0000 29.4378 0.0000 0.0000
# 5 0.0000 0.0000 0.0000 0.0000 29.4378 0.0000
# 6 0.0000 0.0000 0.0000 0.0000 0.0000 31.2388
#
#
#
# Elastic Compliance Matrix: (Units=1/GPa)
#
#
# Indices 1 2 3 4 5 6 
#
# 1 0.014120 -0.004223 -0.002844 0.000000 0.000000 0.000000
# 2 -0.004223 0.014120 -0.002844 0.000000 0.000000 0.000000
# 3 -0.002844 -0.002844 0.010708 0.000000 0.000000 0.000000
# 4 0.000000 0.000000 0.000000 0.033970 0.000000 0.000000
# 5 0.000000 0.000000 0.000000 0.000000 0.033970 0.000000
# 6 0.000000 0.000000 0.000000 0.000000 0.000000 0.032011
#
#
# Mechanical properties :
#
#
# Convention : Reuss Voigt Hill
#
# Bulk Modulus (GPa) = 52.27789 52.81216 52.54502
# Shear Modulus (GPa) = 30.28568 30.57431 30.43000
#
# Velocity S-wave (km/s) = 3.86064 3.87899 3.86983
# Velocity P-wave (km/s) = 6.75280 6.78621 6.76952
#
# Compressibility (1/GPa) = 0.01912855
#
# Stress axis : x y z
#
# Youngs Moduli (GPa) = 70.82300 70.82300 93.38446
#
# Poissons Ratio (x) = 0.29905 0.26554
# Poissons Ratio (y) = 0.29905 0.26554
# Poissons Ratio (z) = 0.20139 0.20139
#
# Static dielectric constant tensor:
#      x y z
#    x 3.697370 0.000000 0.000000 
#    y 0.000000 3.697370 0.000000 
#    z 0.000000 0.000000 3.997510 
# 
# 
# High freq. dielectric constant tensor:
#      x y z
#    x 1.789810 0.000000 0.000000 
#    y 0.000000 1.789810 0.000000 
#    z 0.000000 0.000000 1.811880 
# 
# From -- ./inp_files/5656.got.cif
#   From: 2010.03.12/outbox.cif.g09.slc.cpg/sg133_3_cif.got.tgz:5656.got - 2010.04.06 18:08:06.
