data_PCOD8317362
_publ_section_title
;
Structure prediction by ZEFSAII (Michael W. Deem and Ramdas Pophale) SiO2 
 PCOD8317362
Probable space group: P 42/M B C
;
_chemical_formula_sum "Si O2"
_cell_formula_units_Z 128
_cell_length_a 18.147843
_cell_length_b 18.147843
_cell_length_c 22.677420
_cell_angle_alpha 90.000000
_cell_angle_beta 90.000000
_cell_angle_gamma 90.000000
_cell_volume 7468.676874
_symmetry_space_group_name_H-M "P 42/M B C"
_symmetry_group_IT_number 135
_symmetry_cell_setting 'tetragonal'
loop_
_space_group_symop_operation_xyz
x,y,z
-y,x,1/2+z
-x,-y,z
y,-x,1/2+z
1/2+x,1/2-y,-z
1/2-x,1/2+y,-z
1/2+y,1/2+x,1/2-z
1/2-y,1/2-x,1/2-z
-x,-y,-z
y,-x,1/2-z
x,y,-z
-y,x,1/2-z
1/2-x,1/2+y,z
1/2+x,1/2-y,z
1/2-y,1/2-x,1/2+z
1/2+y,1/2+x,1/2+z
loop_
_atom_site_type_symbol
_atom_site_label
_atom_site_fract_x
_atom_site_fract_y
_atom_site_fract_z
Si Si1 0.953912 0.072972 0.933128
Si Si2 0.201463 0.181755 0.738205
Si Si3 0.290880 0.551748 0.650590
Si Si4 0.347450 0.771889 0.369322
Si Si5 0.364901 0.301265 0.431432
Si Si6 0.238305 0.670888 0.567373
Si Si7 0.473492 0.712783 0.566681
Si Si8 0.113527 0.230543 0.848619
O O1 0.968619 0.133165 0.882601
O O2 0.866816 0.063219 0.931618
O O3 0.976735 0.097843 0.000000
O O4 0.000000 0.000000 0.916148
O O5 0.283543 0.216458 0.750000
O O6 0.202798 0.098613 0.711550
O O7 0.156847 0.232703 0.693318
O O8 0.154661 0.184511 0.797614
O O9 0.237391 0.597665 0.607191
O O10 0.255937 0.472273 0.665431
O O11 0.307997 0.722384 0.419203
O O12 0.431292 0.773247 0.392664
O O13 0.311603 0.852422 0.361442
O O14 0.367063 0.318663 0.500000
O O15 0.331794 0.220886 0.417119
O O16 0.446258 0.297182 0.404847
O O17 0.319849 0.370329 0.405471
O O18 0.240633 0.645213 0.500000
O O19 0.477979 0.743633 0.500000
#
# Coordination Sequence:
#
# PCOD8317362 Si02
#       8
#    16  16  16  16  16  16  16  16
#     4  10  19  30  47  75 110 140 167 201 248 317
#     4   9  19  36  52  68  93 131 174 214 252 303
#     4  11  20  33  52  73 101 136 171 205 260 308
#     4   9  17  32  53  70  94 126 175 214 248 298
#     4   9  19  32  50  76 106 132 165 209 252 304
#     4   9  16  30  50  73  99 132 169 207 246 299
#     4  10  17  29  50  74 100 137 172 200 247 306
#     4  10  21  34  49  76 101 127 166 217 258 301
#
# _framework density 17.138242999999999
#
# number of rings (size 3 to 8) (size 9 to 14) (size 15 to 20)
#    0.000    2.375    2.500    2.250    0.000    3.500 
#    2.250    0.000    0.000    0.750    0.000    2.625 
#    0.000    0.000    0.000    0.000    0.000    0.000 
#
# Total GULP energy -1586173.077878 kJ/mol
# GULP energy per Si atom -12391.977171 kJ/mol
# Density = 1.709924 g / cm^3
# Si number density = 17.138243 Si / 1000 Ang^3
#
#
#
# Elastic Constant Matrix: (Units=GPa)
#
#
# Indices 1 2 3 4 5 6 
#
# 1 51.7095 25.2161 20.3874 0.0000 0.0000 0.0000
# 2 25.2161 51.7087 20.3870 0.0000 0.0000 0.0000
# 3 20.3874 20.3870 53.9653 0.0000 0.0000 0.0000
# 4 0.0000 0.0000 0.0000 19.5346 0.0000 0.0000
# 5 0.0000 0.0000 0.0000 0.0000 19.5341 0.0000
# 6 0.0000 0.0000 0.0000 0.0000 0.0000 20.7741
#
#
#
# Elastic Compliance Matrix: (Units=1/GPa)
#
#
# Indices 1 2 3 4 5 6 
#
# 1 0.027000 -0.010746 -0.006141 0.000000 0.000000 0.000000
# 2 -0.010746 0.027000 -0.006141 0.000000 0.000000 0.000000
# 3 -0.006141 -0.006141 0.023170 0.000000 0.000000 0.000000
# 4 0.000000 0.000000 0.000000 0.051191 0.000000 0.000000
# 5 0.000000 0.000000 0.000000 0.000000 0.051192 0.000000
# 6 0.000000 0.000000 0.000000 0.000000 0.000000 0.048137
#
#
# Mechanical properties :
#
#
# Convention : Reuss Voigt Hill
#
# Bulk Modulus (GPa) = 32.13739 32.15162 32.14451
# Shear Modulus (GPa) = 17.59837 18.06143 17.82990
#
# Velocity S-wave (km/s) = 3.20792 3.24985 3.22896
# Velocity P-wave (km/s) = 5.70207 5.73437 5.71824
#
# Compressibility (1/GPa) = 0.03111641
#
# Stress axis : x y z
#
# Youngs Moduli (GPa) = 37.03701 37.03661 43.15905
#
# Poissons Ratio (x) = 0.39798 0.26503
# Poissons Ratio (y) = 0.39799 0.26502
# Poissons Ratio (z) = 0.22744 0.22743
#
# Static dielectric constant tensor:
#      x y z
#    x 3.211230 0.000000 0.000000 
#    y 0.000000 3.211230 0.000000 
#    z 0.000000 0.000000 3.304120 
# 
# 
# High freq. dielectric constant tensor:
#      x y z
#    x 1.641820 0.000000 0.000000 
#    y 0.000000 1.641820 0.000000 
#    z 0.000000 0.000000 1.666100 
# 
# From -- ./inp_files/6274.got.cif
#   From: 2010.03.12/outbox.cif.g09.slc.cpg/sg135_4_cif.got.tgz:6274.got - 2010.04.06 18:31:24.
