data_PCOD8317065
_publ_section_title
;
Structure prediction by ZEFSAII (Michael W. Deem and Ramdas Pophale) SiO2 
 PCOD8317065
Probable space group: P 42/N B C
;
_chemical_formula_sum "Si O2"
_cell_formula_units_Z 88
_cell_length_a 11.357676
_cell_length_b 11.357676
_cell_length_c 30.490198
_cell_angle_alpha 90.000000
_cell_angle_beta 90.000000
_cell_angle_gamma 90.000000
_cell_volume 3933.138099
_symmetry_space_group_name_H-M "P 42/N B C"
_symmetry_group_IT_number 133
_space_group.IT_coordinate_system_code '2'
_symmetry_cell_setting 'tetragonal'
loop_
_space_group_symop_operation_xyz
x,y,z
1/2-y,x,1/2+z
1/2-x,1/2-y,z
y,1/2-x,1/2+z
x,1/2-y,-z
1/2-x,y,-z
y,x,1/2-z
1/2-y,1/2-x,1/2-z
-x,-y,-z
1/2+y,-x,1/2-z
1/2+x,1/2+y,-z
-y,1/2+x,1/2-z
-x,1/2+y,z
1/2+x,-y,z
-y,-x,1/2+z
1/2+y,1/2+x,1/2+z
loop_
_atom_site_type_symbol
_atom_site_label
_atom_site_fract_x
_atom_site_fract_y
_atom_site_fract_z
Si Si1 0.522834 0.688729 0.538712
Si Si2 0.692736 0.871763 0.882332
Si Si3 0.997958 0.502043 0.250000
Si Si4 0.833940 0.046497 0.415613
Si Si5 0.927833 0.750000 0.000000
Si Si6 0.746979 0.015021 0.800894
Si Si7 0.250000 0.750000 0.856152
O O1 0.443604 0.750000 0.500000
O O2 0.544279 0.783495 0.576694
O O3 0.457569 0.584131 0.563377
O O4 0.634888 0.648797 0.509544
O O5 0.750000 0.750000 0.895938
O O6 0.552372 0.860301 0.878889
O O7 0.749939 0.913844 0.837298
O O8 0.872165 0.500499 0.224224
O O9 0.999230 0.376131 0.274815
O O10 0.759904 0.141149 0.388848
O O11 0.755973 0.004223 0.455959
O O12 0.739379 0.140172 0.824104
#
# Coordination Sequence:
#
# PCOD8317065 Si02
#       7
#    16  16   8  16   8  16   8
#     4  12  24  46  66 109 147 207 257 320 374 444
#     4  12  26  46  75 106 148 200 258 312 381 463
#     4  12  30  54  84 120 154 200 252 326 414 494
#     4  12  28  41  71 104 148 203 256 314 377 448
#     4  12  25  41  68  94 156 199 261 312 370 430
#     4  12  29  51  84 113 156 194 252 321 398 488
#     4  12  28  50  72 112 158 194 244 322 399 461
#
# _framework density 22.373992999999999
#
# number of rings (size 3 to 8) (size 9 to 14) (size 15 to 20)
#    0.000    0.000    5.455    3.000   10.182    0.000 
#    0.000    0.000    0.000    0.000    0.000    0.000 
#    0.000    0.000    0.000    0.000    0.000    0.000 
#
# Total GULP energy -1090171.185735 kJ/mol
# GULP energy per Si atom -12388.308929 kJ/mol
# Density = 2.232307 g / cm^3
# Si number density = 22.373993 Si / 1000 Ang^3
#
#
#
# Elastic Constant Matrix: (Units=GPa)
#
#
# Indices 1 2 3 4 5 6 
#
# 1 127.1909 45.6431 57.2821 0.0000 0.0000 0.0000
# 2 45.6431 127.1910 57.2822 0.0000 0.0000 0.0000
# 3 57.2821 57.2822 144.4862 0.0000 0.0000 0.0000
# 4 0.0000 0.0000 0.0000 39.2694 0.0000 0.0000
# 5 0.0000 0.0000 0.0000 0.0000 39.2694 0.0000
# 6 0.0000 0.0000 0.0000 0.0000 0.0000 29.1733
#
#
#
# Elastic Compliance Matrix: (Units=1/GPa)
#
#
# Indices 1 2 3 4 5 6 
#
# 1 0.010056 -0.002207 -0.003112 0.000000 0.000000 0.000000
# 2 -0.002207 0.010056 -0.003112 0.000000 0.000000 0.000000
# 3 -0.003112 -0.003112 0.009388 0.000000 0.000000 0.000000
# 4 0.000000 0.000000 0.000000 0.025465 0.000000 0.000000
# 5 0.000000 0.000000 0.000000 0.000000 0.025465 0.000000
# 6 0.000000 0.000000 0.000000 0.000000 0.000000 0.034278
#
#
# Mechanical properties :
#
#
# Convention : Reuss Voigt Hill
#
# Bulk Modulus (GPa) = 79.12077 79.92034 79.52055
# Shear Modulus (GPa) = 36.82402 37.45314 37.13858
#
# Velocity S-wave (km/s) = 4.06130 4.09584 4.07861
# Velocity P-wave (km/s) = 7.57838 7.62664 7.60255
#
# Compressibility (1/GPa) = 0.01263891
#
# Stress axis : x y z
#
# Youngs Moduli (GPa) = 99.44736 99.44740 106.51632
#
# Poissons Ratio (x) = 0.21950 0.33143
# Poissons Ratio (y) = 0.21950 0.33143
# Poissons Ratio (z) = 0.30943 0.30943
#
# Static dielectric constant tensor:
#      x y z
#    x 4.470220 0.000000 0.000000 
#    y 0.000000 4.470220 0.000000 
#    z 0.000000 0.000000 4.054010 
# 
# 
# High freq. dielectric constant tensor:
#      x y z
#    x 1.892550 0.000000 0.000000 
#    y 0.000000 1.892550 0.000000 
#    z 0.000000 0.000000 1.898380 
# 
# From -- ./inp_files/7996.got.cif
#   From: 2010.03.12/outbox.cif.g09.slc.cpg/sg133_4_cif.got.tgz:7996.got - 2010.04.06 18:08:06.
