data_PCOD8317908
_publ_section_title
;
Structure prediction by ZEFSAII (Michael W. Deem and Ramdas Pophale) SiO2 
 PCOD8317908
Probable space group: P 42/M N M
;
_chemical_formula_sum "Si O2"
_cell_formula_units_Z 84
_cell_length_a 23.984784
_cell_length_b 23.984784
_cell_length_c 9.193151
_cell_angle_alpha 90.000000
_cell_angle_beta 90.000000
_cell_angle_gamma 90.000000
_cell_volume 5288.542721
_symmetry_space_group_name_H-M "P 42/M N M"
_symmetry_group_IT_number 136
_symmetry_cell_setting 'tetragonal'
loop_
_space_group_symop_operation_xyz
x,y,z
1/2-y,1/2+x,1/2+z
-x,-y,z
1/2+y,1/2-x,1/2+z
1/2+x,1/2-y,1/2-z
1/2-x,1/2+y,1/2-z
y,x,-z
-y,-x,-z
-x,-y,-z
1/2+y,1/2-x,1/2-z
x,y,-z
1/2-y,1/2+x,1/2-z
1/2-x,1/2+y,1/2+z
1/2+x,1/2-y,1/2+z
-y,-x,z
y,x,z
loop_
_atom_site_type_symbol
_atom_site_label
_atom_site_fract_x
_atom_site_fract_y
_atom_site_fract_z
Si Si1 0.000000 0.500000 0.250000
Si Si2 0.204134 0.449047 0.668967
Si Si3 0.085964 0.411560 0.662355
Si Si4 0.338549 0.751775 0.330892
Si Si5 0.742241 0.170066 0.834902
Si Si6 0.557666 0.210224 0.173188
O O1 0.956672 0.463852 0.156239
O O2 0.200878 0.466909 0.500000
O O3 0.142296 0.435496 0.734849
O O4 0.244649 0.396037 0.691963
O O5 0.230415 0.498585 0.763486
O O6 0.103436 0.395762 0.500000
O O7 0.067277 0.353105 0.734111
O O8 0.351445 0.761538 0.500000
O O9 0.306128 0.693873 0.304921
O O10 0.301977 0.803309 0.274398
O O11 0.395515 0.749218 0.239565
O O12 0.803533 0.196468 0.808402
O O13 0.721815 0.182246 0.000000
O O14 0.557027 0.214856 0.000000
#
# Coordination Sequence:
#
# PCOD8317908 Si02
#       6
#     4  16  16  16  16  16
#     4  12  18  32  40  54  88 128 170 204 234 268
#     4  10  19  33  47  65  92 122 158 201 243 282
#     4  10  20  30  41  59  85 120 161 201 237 273
#     4  10  20  33  50  72  95 122 158 200 248 295
#     4   9  17  31  51  71  93 124 160 200 246 295
#     4  11  21  34  48  68  93 123 163 201 243 289
#
# _framework density 15.883393
#
# number of rings (size 3 to 8) (size 9 to 14) (size 15 to 20)
#    0.000    1.905    3.810    1.429    0.000    1.905 
#    0.000    0.000    0.000    0.000    0.000    0.000 
#    0.000    0.762    0.000    8.762    0.000    2.476 
#
# Total GULP energy -1041322.031141 kJ/mol
# GULP energy per Si atom -12396.690847 kJ/mol
# Density = 1.584724 g / cm^3
# Si number density = 15.883393 Si / 1000 Ang^3
#
#
#
# Elastic Constant Matrix: (Units=GPa)
#
#
# Indices 1 2 3 4 5 6 
#
# 1 88.1844 50.6401 42.3482 0.0000 0.0000 0.0000
# 2 50.6401 88.1844 42.3482 0.0000 0.0000 0.0000
# 3 42.3482 42.3482 80.1919 0.0000 0.0000 0.0000
# 4 0.0000 0.0000 0.0000 21.8048 0.0000 0.0000
# 5 0.0000 0.0000 0.0000 0.0000 21.8048 0.0000
# 6 0.0000 0.0000 0.0000 0.0000 0.0000 26.3667
#
#
#
# Elastic Compliance Matrix: (Units=1/GPa)
#
#
# Indices 1 2 3 4 5 6 
#
# 1 0.018631 -0.008004 -0.005612 0.000000 0.000000 0.000000
# 2 -0.008004 0.018631 -0.005612 0.000000 0.000000 0.000000
# 3 -0.005612 -0.005612 0.018397 0.000000 0.000000 0.000000
# 4 0.000000 0.000000 0.000000 0.045861 0.000000 0.000000
# 5 0.000000 0.000000 0.000000 0.000000 0.045861 0.000000
# 6 0.000000 0.000000 0.000000 0.000000 0.000000 0.037927
#
#
# Mechanical properties :
#
#
# Convention : Reuss Voigt Hill
#
# Bulk Modulus (GPa) = 58.12758 58.58153 58.35456
# Shear Modulus (GPa) = 21.78646 22.07687 21.93167
#
# Velocity S-wave (km/s) = 3.70760 3.73223 3.71993
# Velocity P-wave (km/s) = 7.41649 7.45218 7.43436
#
# Compressibility (1/GPa) = 0.01720354
#
# Stress axis : x y z
#
# Youngs Moduli (GPa) = 53.67324 53.67324 54.35533
#
# Poissons Ratio (x) = 0.42960 0.30505
# Poissons Ratio (y) = 0.42960 0.30505
# Poissons Ratio (z) = 0.30122 0.30122
#
# Static dielectric constant tensor:
#      x y z
#    x 2.967680 0.000000 0.000000 
#    y 0.000000 2.967680 0.000000 
#    z 0.000000 0.000000 2.929210 
# 
# 
# High freq. dielectric constant tensor:
#      x y z
#    x 1.590080 0.000000 0.000000 
#    y 0.000000 1.590080 0.000000 
#    z 0.000000 0.000000 1.606270 
# 
# From -- ./inp_files/1867.got.cif
#   From: 2010.03.12/outbox.cif.g09.slc.cpg/sg136_1_cif.got.tgz:1867.got - 2010.04.06 18:39:43.
