data_PCOD8317564
_publ_section_title
;
Structure prediction by ZEFSAII (Michael W. Deem and Ramdas Pophale) SiO2 
 PCOD8317564
Probable space group: P 42/M B C
;
_chemical_formula_sum "Si O2"
_cell_formula_units_Z 96
_cell_length_a 15.178602
_cell_length_b 15.178602
_cell_length_c 18.403234
_cell_angle_alpha 90.000000
_cell_angle_beta 90.000000
_cell_angle_gamma 90.000000
_cell_volume 4239.920321
_symmetry_space_group_name_H-M "P 42/M B C"
_symmetry_group_IT_number 135
_symmetry_cell_setting 'tetragonal'
loop_
_space_group_symop_operation_xyz
x,y,z
-y,x,1/2+z
-x,-y,z
y,-x,1/2+z
1/2+x,1/2-y,-z
1/2-x,1/2+y,-z
1/2+y,1/2+x,1/2-z
1/2-y,1/2-x,1/2-z
-x,-y,-z
y,-x,1/2-z
x,y,-z
-y,x,1/2-z
1/2-x,1/2+y,z
1/2+x,1/2-y,z
1/2-y,1/2-x,1/2+z
1/2+y,1/2+x,1/2+z
loop_
_atom_site_type_symbol
_atom_site_label
_atom_site_fract_x
_atom_site_fract_y
_atom_site_fract_z
Si Si1 0.334823 0.701585 0.224472
Si Si2 0.568360 0.254153 0.639656
Si Si3 0.898259 0.330387 0.684282
Si Si4 0.068737 0.729558 0.917116
Si Si5 0.783502 0.626373 0.582172
Si Si6 0.071687 0.065856 0.417251
O O1 0.295159 0.795159 0.250000
O O2 0.411169 0.692301 0.284887
O O3 0.260952 0.626039 0.225822
O O4 0.369179 0.704958 0.141276
O O5 0.492935 0.180713 0.648332
O O6 0.646456 0.201465 0.600845
O O7 0.536987 0.333397 0.587513
O O8 0.902148 0.402148 0.750000
O O9 0.825339 0.356720 0.624954
O O10 0.061426 0.828861 0.883837
O O11 0.973999 0.679885 0.912044
O O12 0.101871 0.734565 0.000000
O O13 0.747702 0.642169 0.500000
O O14 0.080318 0.034780 0.500000
O O15 0.000000 0.000000 0.379016
#
# Coordination Sequence:
#
# PCOD8317564 Si02
#       6
#    16  16  16  16  16  16
#     4   9  20  38  59  86 121 165 216 264 318 383
#     4  11  23  40  64  97 128 172 217 274 327 401
#     4  11  23  40  63  90 129 171 215 269 327 396
#     4  10  22  40  64  93 130 173 215 269 334 398
#     4  10  21  39  65  92 126 169 214 267 326 396
#     4  10  22  41  63  95 135 170 218 277 331 391
#
# _framework density 22.641935
#
# number of rings (size 3 to 8) (size 9 to 14) (size 15 to 20)
#    0.000    1.833    0.000    4.500    2.333    4.000 
#    0.000    2.500    0.000    0.000    0.000    0.000 
#    0.000    0.000    0.000    0.000    0.000    0.000 
#
# Total GULP energy -1189504.690662 kJ/mol
# GULP energy per Si atom -12390.673861 kJ/mol
# Density = 2.259040 g / cm^3
# Si number density = 22.641935 Si / 1000 Ang^3
#
#
#
# Elastic Constant Matrix: (Units=GPa)
#
#
# Indices 1 2 3 4 5 6 
#
# 1 78.5129 15.3528 12.4689 0.0000 0.0000 0.0000
# 2 15.3528 78.5129 12.4689 0.0000 0.0000 0.0000
# 3 12.4689 12.4689 94.8585 0.0000 0.0000 0.0000
# 4 0.0000 0.0000 0.0000 28.3664 0.0000 0.0000
# 5 0.0000 0.0000 0.0000 0.0000 28.3664 0.0000
# 6 0.0000 0.0000 0.0000 0.0000 0.0000 41.0328
#
#
#
# Elastic Compliance Matrix: (Units=1/GPa)
#
#
# Indices 1 2 3 4 5 6 
#
# 1 0.013436 -0.002397 -0.001451 0.000000 0.000000 0.000000
# 2 -0.002397 0.013436 -0.001451 0.000000 0.000000 0.000000
# 3 -0.001451 -0.001451 0.010923 0.000000 0.000000 0.000000
# 4 0.000000 0.000000 0.000000 0.035253 0.000000 0.000000
# 5 0.000000 0.000000 0.000000 0.000000 0.035253 0.000000
# 6 0.000000 0.000000 0.000000 0.000000 0.000000 0.024371
#
#
# Mechanical properties :
#
#
# Convention : Reuss Voigt Hill
#
# Bulk Modulus (GPa) = 36.76829 36.94060 36.85444
# Shear Modulus (GPa) = 32.82222 33.65936 33.24079
#
# Velocity S-wave (km/s) = 3.81152 3.85982 3.83575
# Velocity P-wave (km/s) = 5.97030 6.01788 5.99414
#
# Compressibility (1/GPa) = 0.02719735
#
# Stress axis : x y z
#
# Youngs Moduli (GPa) = 74.42748 74.42748 91.54583
#
# Poissons Ratio (x) = 0.17839 0.13284
# Poissons Ratio (y) = 0.17839 0.13284
# Poissons Ratio (z) = 0.10800 0.10800
#
# Static dielectric constant tensor:
#      x y z
#    x 3.947360 0.000000 0.000000 
#    y 0.000000 3.947360 0.000000 
#    z 0.000000 0.000000 4.281620 
# 
# 
# High freq. dielectric constant tensor:
#      x y z
#    x 1.875330 0.000000 0.000000 
#    y 0.000000 1.875330 0.000000 
#    z 0.000000 0.000000 1.899010 
# 
# From -- ./inp_files/5492.got.cif
#   From: 2010.03.12/outbox.cif.g09.slc.cpg/sg135_3_cif.got.tgz:5492.got - 2010.04.06 18:31:24.
