data_PCOD8317898
_publ_section_title
;
Structure prediction by ZEFSAII (Michael W. Deem and Ramdas Pophale) SiO2 
 PCOD8317898
Probable space group: P 42/M N M
;
_chemical_formula_sum "Si O2"
_cell_formula_units_Z 64
_cell_length_a 14.950583
_cell_length_b 14.950583
_cell_length_c 14.762648
_cell_angle_alpha 90.000000
_cell_angle_beta 90.000000
_cell_angle_gamma 90.000000
_cell_volume 3299.746078
_symmetry_space_group_name_H-M "P 42/M N M"
_symmetry_group_IT_number 136
_symmetry_cell_setting 'tetragonal'
loop_
_space_group_symop_operation_xyz
x,y,z
1/2-y,1/2+x,1/2+z
-x,-y,z
1/2+y,1/2-x,1/2+z
1/2+x,1/2-y,1/2-z
1/2-x,1/2+y,1/2-z
y,x,-z
-y,-x,-z
-x,-y,-z
1/2+y,1/2-x,1/2-z
x,y,-z
1/2-y,1/2+x,1/2-z
1/2-x,1/2+y,1/2+z
1/2+x,1/2-y,1/2+z
-y,-x,z
y,x,z
loop_
_atom_site_type_symbol
_atom_site_label
_atom_site_fract_x
_atom_site_fract_y
_atom_site_fract_z
Si Si1 0.792967 0.058725 0.715714
Si Si2 0.145211 0.004324 0.099140
Si Si3 0.605888 0.248789 0.894885
Si Si4 0.108364 0.412572 0.734730
O O1 0.872658 0.127342 0.696747
O O2 0.696041 0.106139 0.702738
O O3 0.789146 0.020692 0.818889
O O4 0.804886 0.976238 0.647463
O O5 0.102684 0.102684 0.115585
O O6 0.193847 0.001705 0.000000
O O7 0.065867 0.934134 0.098798
O O8 0.697658 0.302343 0.876655
O O9 0.613271 0.149566 0.853775
O O10 0.586505 0.237756 0.000000
O O11 0.108767 0.518435 0.708023
#
# Coordination Sequence:
#
# PCOD8317898 Si02
#       4
#    16  16  16  16
#     4  10  19  32  53  80 112 148 180 218 272 332
#     4   8  14  25  43  71 106 140 174 213 260 316
#     4  10  21  36  56  83 112 142 178 220 267 325
#     4   9  19  37  56  76 100 135 185 234 273 306
#
# _framework density 19.395433000000001
#
# number of rings (size 3 to 8) (size 9 to 14) (size 15 to 20)
#    0.000    2.750    0.000    2.250    0.000    3.000 
#    0.000   13.750    0.000    6.000    0.000    0.000 
#    0.000    0.000    0.000    0.000    0.000    0.000 
#
# Total GULP energy -792955.576465 kJ/mol
# GULP energy per Si atom -12389.930882 kJ/mol
# Density = 1.935129 g / cm^3
# Si number density = 19.395433 Si / 1000 Ang^3
#
#
#
# Elastic Constant Matrix: (Units=GPa)
#
#
# Indices 1 2 3 4 5 6 
#
# 1 102.5881 48.7409 58.4243 0.0000 0.0000 0.0000
# 2 48.7409 102.5881 58.4243 0.0000 0.0000 0.0000
# 3 58.4243 58.4243 108.9759 0.0000 0.0000 0.0000
# 4 0.0000 0.0000 0.0000 24.3718 0.0000 0.0000
# 5 0.0000 0.0000 0.0000 0.0000 24.3718 0.0000
# 6 0.0000 0.0000 0.0000 0.0000 0.0000 24.3226
#
#
#
# Elastic Compliance Matrix: (Units=1/GPa)
#
#
# Indices 1 2 3 4 5 6 
#
# 1 0.014924 -0.003648 -0.006045 0.000000 0.000000 0.000000
# 2 -0.003648 0.014924 -0.006045 0.000000 0.000000 0.000000
# 3 -0.006045 -0.006045 0.015658 0.000000 0.000000 0.000000
# 4 0.000000 0.000000 0.000000 0.041031 0.000000 0.000000
# 5 0.000000 0.000000 0.000000 0.000000 0.041031 0.000000
# 6 0.000000 0.000000 0.000000 0.000000 0.000000 0.041114
#
#
# Mechanical properties :
#
#
# Convention : Reuss Voigt Hill
#
# Bulk Modulus (GPa) = 71.28015 71.70347 71.49181
# Shear Modulus (GPa) = 24.40997 24.51739 24.46368
#
# Velocity S-wave (km/s) = 3.55144 3.55925 3.55535
# Velocity P-wave (km/s) = 7.32446 7.34442 7.33445
#
# Compressibility (1/GPa) = 0.01402915
#
# Stress axis : x y z
#
# Youngs Moduli (GPa) = 67.00829 67.00829 63.86359
#
# Poissons Ratio (x) = 0.24442 0.38607
# Poissons Ratio (y) = 0.24442 0.38607
# Poissons Ratio (z) = 0.40509 0.40509
#
# Static dielectric constant tensor:
#      x y z
#    x 3.691860 0.000000 0.000000 
#    y 0.000000 3.691860 0.000000 
#    z 0.000000 0.000000 3.528810 
# 
# 
# High freq. dielectric constant tensor:
#      x y z
#    x 1.756050 0.000000 0.000000 
#    y 0.000000 1.756050 0.000000 
#    z 0.000000 0.000000 1.726890 
# 
# From -- ./inp_files/4707.got.cif
#   From: 2010.03.12/outbox.cif.g09.slc.cpg/sg136_3_cif.got.tgz:4707.got - 2010.04.06 18:39:43.
