data_PCOD8317415
_publ_section_title
;
Structure prediction by ZEFSAII (Michael W. Deem and Ramdas Pophale) SiO2 
 PCOD8317415
Probable space group: P 42/M B C
;
_chemical_formula_sum "Si O2"
_cell_formula_units_Z 88
_cell_length_a 18.278790
_cell_length_b 18.278790
_cell_length_c 14.253561
_cell_angle_alpha 90.000000
_cell_angle_beta 90.000000
_cell_angle_gamma 90.000000
_cell_volume 4762.316616
_symmetry_space_group_name_H-M "P 42/M B C"
_symmetry_group_IT_number 135
_symmetry_cell_setting 'tetragonal'
loop_
_space_group_symop_operation_xyz
x,y,z
-y,x,1/2+z
-x,-y,z
y,-x,1/2+z
1/2+x,1/2-y,-z
1/2-x,1/2+y,-z
1/2+y,1/2+x,1/2-z
1/2-y,1/2-x,1/2-z
-x,-y,-z
y,-x,1/2-z
x,y,-z
-y,x,1/2-z
1/2-x,1/2+y,z
1/2+x,1/2-y,z
1/2-y,1/2-x,1/2+z
1/2+y,1/2+x,1/2+z
loop_
_atom_site_type_symbol
_atom_site_label
_atom_site_fract_x
_atom_site_fract_y
_atom_site_fract_z
Si Si1 0.599327 0.723972 0.611188
Si Si2 0.270477 0.520647 0.393599
Si Si3 0.753059 0.148010 0.604755
Si Si4 0.345275 0.037577 0.758855
Si Si5 0.961828 0.113858 0.747793
Si Si6 0.629967 0.129967 0.250000
O O1 0.587095 0.727940 0.500000
O O2 0.683311 0.703934 0.637357
O O3 0.577509 0.800639 0.658300
O O4 0.547659 0.660487 0.652951
O O5 0.266729 0.550259 0.500000
O O6 0.284263 0.434000 0.390322
O O7 0.195699 0.542729 0.341218
O O8 0.337896 0.558127 0.339235
O O9 0.728961 0.167923 0.500000
O O10 0.680364 0.155508 0.664866
O O11 0.423380 0.076621 0.750000
O O12 0.357909 0.952892 0.784055
O O13 0.045899 0.091692 0.751168
#
# Coordination Sequence:
#
# PCOD8317415 Si02
#       6
#    16  16  16  16  16   8
#     4  10  21  37  56  81 119 157 192 239 294 350
#     4   9  18  35  55  77 110 151 189 227 282 347
#     4   9  18  35  58  80 108 151 189 229 286 347
#     4  10  22  38  59  86 115 148 196 247 297 343
#     4  10  19  31  53  83 115 154 193 235 288 344
#     4  10  21  38  64  84 114 151 194 244 294 348
#
# _framework density 18.478401000000002
#
# number of rings (size 3 to 8) (size 9 to 14) (size 15 to 20)
#    0.000    2.364    1.818    0.273    1.273    2.182 
#    0.000    1.818    0.000    5.455    0.000    0.000 
#    0.000    0.000    0.000    0.000    0.000    0.000 
#
# Total GULP energy -1091116.665551 kJ/mol
# GULP energy per Si atom -12399.053018 kJ/mol
# Density = 1.843634 g / cm^3
# Si number density = 18.478401 Si / 1000 Ang^3
#
#
#
# Elastic Constant Matrix: (Units=GPa)
#
#
# Indices 1 2 3 4 5 6 
#
# 1 75.8837 50.7265 45.3809 0.0000 0.0000 0.0000
# 2 50.7265 75.8783 45.3785 0.0000 0.0000 0.0000
# 3 45.3809 45.3785 126.8909 0.0000 0.0000 0.0000
# 4 0.0000 0.0000 0.0000 23.4434 0.0000 0.0000
# 5 0.0000 0.0000 0.0000 0.0000 23.4438 0.0000
# 6 0.0000 0.0000 0.0000 0.0000 0.0000 30.9715
#
#
#
# Elastic Compliance Matrix: (Units=1/GPa)
#
#
# Indices 1 2 3 4 5 6 
#
# 1 0.025187 -0.014566 -0.003799 0.000000 0.000000 0.000000
# 2 -0.014566 0.025189 -0.003798 0.000000 0.000000 0.000000
# 3 -0.003799 -0.003798 0.010598 0.000000 0.000000 0.000000
# 4 0.000000 0.000000 0.000000 0.042656 0.000000 0.000000
# 5 0.000000 0.000000 0.000000 0.000000 0.042655 0.000000
# 6 0.000000 0.000000 0.000000 0.000000 0.000000 0.032288
#
#
# Mechanical properties :
#
#
# Convention : Reuss Voigt Hill
#
# Bulk Modulus (GPa) = 60.07276 62.40273 61.23775
# Shear Modulus (GPa) = 21.88682 24.71621 23.30151
#
# Velocity S-wave (km/s) = 3.44532 3.66125 3.55493
# Velocity P-wave (km/s) = 6.95754 7.19145 7.07546
#
# Compressibility (1/GPa) = 0.01664648
#
# Stress axis : x y z
#
# Youngs Moduli (GPa) = 39.70288 39.70041 94.36012
#
# Poissons Ratio (x) = 0.57829 0.35844
# Poissons Ratio (y) = 0.57833 0.35842
# Poissons Ratio (z) = 0.15082 0.15080
#
# Static dielectric constant tensor:
#      x y z
#    x 3.343770 0.000000 0.000000 
#    y 0.000000 3.343770 0.000000 
#    z 0.000000 0.000000 3.464840 
# 
# 
# High freq. dielectric constant tensor:
#      x y z
#    x 1.713980 0.000000 0.000000 
#    y 0.000000 1.713980 0.000000 
#    z 0.000000 0.000000 1.715930 
# 
# From -- ./inp_files/3533.got.cif
#   From: 2010.03.12/outbox.cif.g09.slc.cpg/sg135_2_cif.got.tgz:3533.got - 2010.04.06 18:31:24.
