data_PCOD8317746
_publ_section_title
;
Structure prediction by ZEFSAII (Michael W. Deem and Ramdas Pophale) SiO2 
 PCOD8317746
Probable space group: P 42/M N M
;
_chemical_formula_sum "Si O2"
_cell_formula_units_Z 80
_cell_length_a 15.569893
_cell_length_b 15.569893
_cell_length_c 18.798418
_cell_angle_alpha 90.000000
_cell_angle_beta 90.000000
_cell_angle_gamma 90.000000
_cell_volume 4557.141968
_symmetry_space_group_name_H-M "P 42/M N M"
_symmetry_group_IT_number 136
_symmetry_cell_setting 'tetragonal'
loop_
_space_group_symop_operation_xyz
x,y,z
1/2-y,1/2+x,1/2+z
-x,-y,z
1/2+y,1/2-x,1/2+z
1/2+x,1/2-y,1/2-z
1/2-x,1/2+y,1/2-z
y,x,-z
-y,-x,-z
-x,-y,-z
1/2+y,1/2-x,1/2-z
x,y,-z
1/2-y,1/2+x,1/2-z
1/2-x,1/2+y,1/2+z
1/2+x,1/2-y,1/2+z
-y,-x,z
y,x,z
loop_
_atom_site_type_symbol
_atom_site_label
_atom_site_fract_x
_atom_site_fract_y
_atom_site_fract_z
Si Si1 0.192859 0.052704 0.776717
Si Si2 0.670146 0.077017 0.419012
Si Si3 0.975098 0.625735 0.719589
Si Si4 0.930255 0.069746 0.285023
Si Si5 0.603630 0.259950 0.422819
Si Si6 0.137776 0.862225 0.580479
O O1 0.131508 0.131508 0.752291
O O2 0.286332 0.068971 0.744269
O O3 0.197694 0.045303 0.862124
O O4 0.159143 0.960796 0.749361
O O5 0.666753 0.039268 0.500000
O O6 0.607104 0.157919 0.412120
O O7 0.764395 0.113701 0.401585
O O8 0.637598 0.006031 0.362420
O O9 0.901357 0.553024 0.727138
O O10 0.921315 0.078686 0.369633
O O11 0.000000 0.000000 0.264677
O O12 0.562491 0.280999 0.500000
O O13 0.700054 0.299947 0.419057
O O14 0.114531 0.885470 0.500000
#
# Coordination Sequence:
#
# PCOD8317746 Si02
#       6
#    16  16  16   8  16   8
#     4  10  20  35  54  77 109 145 179 220 267 316
#     4  10  18  31  52  79 108 139 177 221 268 316
#     4  11  22  36  53  80 112 137 179 224 266 321
#     4  10  20  33  51  78 112 139 178 223 258 317
#     4   9  16  29  51  78 103 134 182 225 259 307
#     4  10  18  29  52  79 105 137 176 221 262 315
#
# _framework density 17.554863000000001
#
# number of rings (size 3 to 8) (size 9 to 14) (size 15 to 20)
#    0.000    2.000    5.000    0.000    0.000    0.200 
#    1.800    3.500    0.000    3.600    0.000    0.000 
#    0.000    0.000    0.000    0.000    0.000    0.000 
#
# Total GULP energy -991398.892766 kJ/mol
# GULP energy per Si atom -12392.486160 kJ/mol
# Density = 1.751491 g / cm^3
# Si number density = 17.554863 Si / 1000 Ang^3
#
#
#
# Elastic Constant Matrix: (Units=GPa)
#
#
# Indices 1 2 3 4 5 6 
#
# 1 59.2574 27.9741 37.0701 0.0000 0.0000 0.0000
# 2 27.9741 59.2573 37.0701 0.0000 0.0000 0.0000
# 3 37.0701 37.0701 136.7389 0.0000 0.0000 0.0000
# 4 0.0000 0.0000 0.0000 27.9598 0.0000 0.0000
# 5 0.0000 0.0000 0.0000 0.0000 27.9598 0.0000
# 6 0.0000 0.0000 0.0000 0.0000 0.0000 20.9853
#
#
#
# Elastic Compliance Matrix: (Units=1/GPa)
#
#
# Indices 1 2 3 4 5 6 
#
# 1 0.023431 -0.008535 -0.004038 0.000000 0.000000 0.000000
# 2 -0.008535 0.023431 -0.004038 0.000000 0.000000 0.000000
# 3 -0.004038 -0.004038 0.009503 0.000000 0.000000 0.000000
# 4 0.000000 0.000000 0.000000 0.035766 0.000000 0.000000
# 5 0.000000 0.000000 0.000000 0.000000 0.035766 0.000000
# 6 0.000000 0.000000 0.000000 0.000000 0.000000 0.047652
#
#
# Mechanical properties :
#
#
# Convention : Reuss Voigt Hill
#
# Bulk Modulus (GPa) = 43.21234 51.05357 47.13295
# Shear Modulus (GPa) = 23.09622 25.59026 24.34324
#
# Velocity S-wave (km/s) = 3.63114 3.82217 3.72788
# Velocity P-wave (km/s) = 6.49994 6.97309 6.74067
#
# Compressibility (1/GPa) = 0.02314154
#
# Stress axis : x y z
#
# Youngs Moduli (GPa) = 42.67853 42.67851 105.23205
#
# Poissons Ratio (x) = 0.36426 0.42496
# Poissons Ratio (y) = 0.36426 0.42496
# Poissons Ratio (z) = 0.17235 0.17235
#
# Static dielectric constant tensor:
#      x y z
#    x 3.156510 0.000000 0.000000 
#    y 0.000000 3.156510 0.000000 
#    z 0.000000 0.000000 3.453270 
# 
# 
# High freq. dielectric constant tensor:
#      x y z
#    x 1.658890 0.000000 0.000000 
#    y 0.000000 1.658890 0.000000 
#    z 0.000000 0.000000 1.686980 
# 
# From -- ./inp_files/6243.got.cif
#   From: 2010.03.12/outbox.cif.g09.slc.cpg/sg136_4_cif.got.tgz:6243.got - 2010.04.06 18:39:43.
