data_PCOD8317832
_publ_section_title
;
Structure prediction by ZEFSAII (Michael W. Deem and Ramdas Pophale) SiO2 
 PCOD8317832
Probable space group: P 42/M N M
;
_chemical_formula_sum "Si O2"
_cell_formula_units_Z 96
_cell_length_a 24.092855
_cell_length_b 24.092855
_cell_length_c 8.396517
_cell_angle_alpha 90.000000
_cell_angle_beta 90.000000
_cell_angle_gamma 90.000000
_cell_volume 4873.889799
_symmetry_space_group_name_H-M "P 42/M N M"
_symmetry_group_IT_number 136
_symmetry_cell_setting 'tetragonal'
loop_
_space_group_symop_operation_xyz
x,y,z
1/2-y,1/2+x,1/2+z
-x,-y,z
1/2+y,1/2-x,1/2+z
1/2+x,1/2-y,1/2-z
1/2-x,1/2+y,1/2-z
y,x,-z
-y,-x,-z
-x,-y,-z
1/2+y,1/2-x,1/2-z
x,y,-z
1/2-y,1/2+x,1/2-z
1/2-x,1/2+y,1/2+z
1/2+x,1/2-y,1/2+z
-y,-x,z
y,x,z
loop_
_atom_site_type_symbol
_atom_site_label
_atom_site_fract_x
_atom_site_fract_y
_atom_site_fract_z
Si Si1 0.212028 0.986777 0.189957
Si Si2 0.587503 0.500003 0.310955
Si Si3 0.025695 0.419727 0.184708
Si Si4 0.932275 0.696106 0.686540
Si Si5 0.311291 0.775619 0.189393
Si Si6 0.723430 0.637094 0.689004
O O1 0.150372 0.002007 0.251849
O O2 0.225494 0.925200 0.252787
O O3 0.255538 0.024859 0.278803
O O4 0.217847 0.992870 0.000000
O O5 0.588315 0.502887 0.500000
O O6 0.555450 0.444551 0.253040
O O7 0.554499 0.554499 0.247343
O O8 0.070088 0.468028 0.222550
O O9 0.050909 0.360426 0.227505
O O10 0.011094 0.421035 0.000000
O O11 0.928689 0.683749 0.500000
O O12 0.873442 0.718018 0.755836
O O13 0.281039 0.718962 0.251189
O O14 0.276847 0.829001 0.250681
O O15 0.311799 0.774478 0.000000
O O16 0.722792 0.636129 0.500000
O O17 0.667496 0.667496 0.750091
#
# Coordination Sequence:
#
# PCOD8317832 Si02
#       6
#    16  16  16  16  16  16
#     4  10  19  30  49  78 106 137 179 229 279 332
#     4   8  14  26  46  74 108 143 181 231 290 347
#     4  11  23  42  65  89 116 148 187 231 282 336
#     4  11  23  36  53  81 115 153 190 230 279 334
#     4   8  16  32  52  73 100 138 185 231 272 316
#     4   8  14  27  50  77  98 123 171 231 276 313
#
# _framework density 19.696794000000001
#
# number of rings (size 3 to 8) (size 9 to 14) (size 15 to 20)
#    0.000    2.667    0.000    4.500    2.333    2.667 
#    0.000    0.000    0.000    3.500    0.000    5.833 
#    0.000    0.000    0.000    0.000    0.000    0.000 
#
# Total GULP energy -1189974.843199 kJ/mol
# GULP energy per Si atom -12395.571283 kJ/mol
# Density = 1.965196 g / cm^3
# Si number density = 19.696794 Si / 1000 Ang^3
#
#
#
# Elastic Constant Matrix: (Units=GPa)
#
#
# Indices 1 2 3 4 5 6 
#
# 1 151.1236 92.2001 10.3571 0.0000 0.0000 0.0000
# 2 92.2001 151.1236 10.3571 0.0000 0.0000 0.0000
# 3 10.3571 10.3571 32.4886 0.0000 0.0000 0.0000
# 4 0.0000 0.0000 0.0000 13.3167 0.0000 0.0000
# 5 0.0000 0.0000 0.0000 0.0000 13.3167 0.0000
# 6 0.0000 0.0000 0.0000 0.0000 0.0000 26.9735
#
#
#
# Elastic Compliance Matrix: (Units=1/GPa)
#
#
# Indices 1 2 3 4 5 6 
#
# 1 0.010598 -0.006373 -0.001347 0.000000 0.000000 0.000000
# 2 -0.006373 0.010598 -0.001347 0.000000 0.000000 0.000000
# 3 -0.001347 -0.001347 0.031639 0.000000 0.000000 0.000000
# 4 0.000000 0.000000 0.000000 0.075094 0.000000 0.000000
# 5 0.000000 0.000000 0.000000 0.000000 0.075094 0.000000
# 6 0.000000 0.000000 0.000000 0.000000 0.000000 0.037073
#
#
# Mechanical properties :
#
#
# Convention : Reuss Voigt Hill
#
# Bulk Modulus (GPa) = 28.81793 62.28494 45.55144
# Shear Modulus (GPa) = 18.53252 25.50946 22.02099
#
# Velocity S-wave (km/s) = 3.07072 3.60266 3.34728
# Velocity P-wave (km/s) = 5.21871 6.99972 6.17378
#
# Compressibility (1/GPa) = 0.03470062
#
# Stress axis : x y z
#
# Youngs Moduli (GPa) = 94.35946 94.35946 31.60692
#
# Poissons Ratio (x) = 0.60139 0.04257
# Poissons Ratio (y) = 0.60139 0.04257
# Poissons Ratio (z) = 0.12707 0.12707
#
# Static dielectric constant tensor:
#      x y z
#    x 3.873030 0.000000 0.000000 
#    y 0.000000 3.873030 0.000000 
#    z 0.000000 0.000000 3.076330 
# 
# 
# High freq. dielectric constant tensor:
#      x y z
#    x 1.776590 0.000000 0.000000 
#    y 0.000000 1.776590 0.000000 
#    z 0.000000 0.000000 1.718900 
# 
# From -- ./inp_files/2018.got.cif
#   From: 2010.03.12/outbox.cif.g09.slc.cpg/sg136_2_cif.got.tgz:2018.got - 2010.04.06 18:39:43.
