data_PCOD8317862
_publ_section_title
;
Structure prediction by ZEFSAII (Michael W. Deem and Ramdas Pophale) SiO2 
 PCOD8317862
Probable space group: P 42/M N M
;
_chemical_formula_sum "Si O2"
_cell_formula_units_Z 104
_cell_length_a 20.154905
_cell_length_b 20.154905
_cell_length_c 14.122714
_cell_angle_alpha 90.000000
_cell_angle_beta 90.000000
_cell_angle_gamma 90.000000
_cell_volume 5736.931643
_symmetry_space_group_name_H-M "P 42/M N M"
_symmetry_group_IT_number 136
_symmetry_cell_setting 'tetragonal'
loop_
_space_group_symop_operation_xyz
x,y,z
1/2-y,1/2+x,1/2+z
-x,-y,z
1/2+y,1/2-x,1/2+z
1/2+x,1/2-y,1/2-z
1/2-x,1/2+y,1/2-z
y,x,-z
-y,-x,-z
-x,-y,-z
1/2+y,1/2-x,1/2-z
x,y,-z
1/2-y,1/2+x,1/2-z
1/2-x,1/2+y,1/2+z
1/2+x,1/2-y,1/2+z
-y,-x,z
y,x,z
loop_
_atom_site_type_symbol
_atom_site_label
_atom_site_fract_x
_atom_site_fract_y
_atom_site_fract_z
Si Si1 0.409598 0.699362 0.771332
Si Si2 0.594605 0.946262 0.752134
Si Si3 0.445216 0.554785 0.397444
Si Si4 0.964890 0.139399 0.230546
Si Si5 0.319949 0.131062 0.610928
Si Si6 0.091635 0.752620 0.105882
Si Si7 0.555315 0.205630 0.607276
O O1 0.366315 0.633686 0.759068
O O2 0.486070 0.678459 0.803341
O O3 0.376859 0.744995 0.851863
O O4 0.411189 0.737204 0.670561
O O5 0.524727 0.910719 0.759121
O O6 0.633719 0.923495 0.659252
O O7 0.634518 0.926853 0.847229
O O8 0.500000 0.500000 0.412213
O O9 0.419912 0.580089 0.500000
O O10 0.479386 0.616239 0.344788
O O11 0.922879 0.077122 0.274469
O O12 0.911508 0.186978 0.180027
O O13 0.321582 0.117506 0.500000
O O14 0.347338 0.204806 0.634627
O O15 0.024056 0.711024 0.108926
O O16 0.103195 0.781181 0.000000
O O17 0.583059 0.209224 0.500000
#
# Coordination Sequence:
#
# PCOD8317862 Si02
#       7
#    16  16   8  16  16  16  16
#     4  10  21  36  53  78 108 142 184 225 275 332
#     4  10  19  31  52  81 110 139 179 226 273 326
#     4   9  16  26  44  76 113 143 171 211 264 325
#     4  10  19  32  51  76 107 142 179 223 273 326
#     4  10  21  37  56  78 110 146 183 226 273 325
#     4   9  17  31  50  74 105 139 176 217 264 321
#     4   9  18  33  51  74 107 142 177 218 266 324
#
# _framework density 18.128157000000002
#
# number of rings (size 3 to 8) (size 9 to 14) (size 15 to 20)
#    0.000    2.385    2.308    0.462    0.000    3.385 
#    0.000    3.077    0.000    0.462    0.000    1.077 
#    0.000    0.000    0.000    0.000    0.000    0.000 
#
# Total GULP energy -1288940.413406 kJ/mol
# GULP energy per Si atom -12393.657821 kJ/mol
# Density = 1.808690 g / cm^3
# Si number density = 18.128157 Si / 1000 Ang^3
#
#
#
# Elastic Constant Matrix: (Units=GPa)
#
#
# Indices 1 2 3 4 5 6 
#
# 1 87.9056 46.4760 31.2496 0.0000 0.0000 0.0000
# 2 46.4760 87.9054 31.2496 0.0000 0.0000 0.0000
# 3 31.2496 31.2496 73.7709 0.0000 0.0000 0.0000
# 4 0.0000 0.0000 0.0000 17.9839 0.0000 0.0000
# 5 0.0000 0.0000 0.0000 0.0000 17.9839 0.0000
# 6 0.0000 0.0000 0.0000 0.0000 0.0000 32.3355
#
#
#
# Elastic Compliance Matrix: (Units=1/GPa)
#
#
# Indices 1 2 3 4 5 6 
#
# 1 0.016702 -0.007435 -0.003926 0.000000 0.000000 0.000000
# 2 -0.007435 0.016702 -0.003926 0.000000 0.000000 0.000000
# 3 -0.003926 -0.003926 0.016881 0.000000 0.000000 0.000000
# 4 0.000000 0.000000 0.000000 0.055605 0.000000 0.000000
# 5 0.000000 0.000000 0.000000 0.000000 0.055605 0.000000
# 6 0.000000 0.000000 0.000000 0.000000 0.000000 0.030926
#
#
# Mechanical properties :
#
#
# Convention : Reuss Voigt Hill
#
# Bulk Modulus (GPa) = 50.72727 51.94805 51.33766
# Shear Modulus (GPa) = 21.78020 23.03443 22.40732
#
# Velocity S-wave (km/s) = 3.46996 3.56848 3.51957
# Velocity P-wave (km/s) = 6.64060 6.75995 6.70054
#
# Compressibility (1/GPa) = 0.01971326
#
# Stress axis : x y z
#
# Youngs Moduli (GPa) = 59.87191 59.87178 59.23708
#
# Poissons Ratio (x) = 0.44515 0.23254
# Poissons Ratio (y) = 0.44515 0.23254
# Poissons Ratio (z) = 0.23504 0.23504
#
# Static dielectric constant tensor:
#      x y z
#    x 3.411800 0.000000 0.000000 
#    y 0.000000 3.411800 0.000000 
#    z 0.000000 0.000000 3.216250 
# 
# 
# High freq. dielectric constant tensor:
#      x y z
#    x 1.706770 0.000000 0.000000 
#    y 0.000000 1.706770 0.000000 
#    z 0.000000 0.000000 1.663850 
# 
# From -- ./inp_files/5278.got.cif
#   From: 2010.03.12/outbox.cif.g09.slc.cpg/sg136_3_cif.got.tgz:5278.got - 2010.04.06 18:39:43.
