data_PCOD8317371
_publ_section_title
;
Structure prediction by ZEFSAII (Michael W. Deem and Ramdas Pophale) SiO2 
 PCOD8317371
Probable space group: P 42/M B C
;
_chemical_formula_sum "Si O2"
_cell_formula_units_Z 112
_cell_length_a 26.407605
_cell_length_b 26.407605
_cell_length_c 9.707768
_cell_angle_alpha 90.000000
_cell_angle_beta 90.000000
_cell_angle_gamma 90.000000
_cell_volume 6769.824643
_symmetry_space_group_name_H-M "P 42/M B C"
_symmetry_group_IT_number 135
_symmetry_cell_setting 'tetragonal'
loop_
_space_group_symop_operation_xyz
x,y,z
-y,x,1/2+z
-x,-y,z
y,-x,1/2+z
1/2+x,1/2-y,-z
1/2-x,1/2+y,-z
1/2+y,1/2+x,1/2-z
1/2-y,1/2-x,1/2-z
-x,-y,-z
y,-x,1/2-z
x,y,-z
-y,x,1/2-z
1/2-x,1/2+y,z
1/2+x,1/2-y,z
1/2-y,1/2-x,1/2+z
1/2+y,1/2+x,1/2+z
loop_
_atom_site_type_symbol
_atom_site_label
_atom_site_fract_x
_atom_site_fract_y
_atom_site_fract_z
Si Si1 0.614246 0.674787 0.841419
Si Si2 0.293495 0.505049 0.338189
Si Si3 0.859235 0.705735 0.157290
Si Si4 0.182677 0.895445 0.338104
Si Si5 0.877788 0.556746 0.341339
Si Si6 0.210237 0.643934 0.659505
Si Si7 0.534482 0.814047 0.163200
O O1 0.554387 0.672706 0.805846
O O2 0.640093 0.634482 0.743219
O O3 0.636343 0.730461 0.812420
O O4 0.623634 0.659909 0.000000
O O5 0.285597 0.498637 0.500000
O O6 0.319609 0.453613 0.284197
O O7 0.237743 0.512143 0.271083
O O8 0.812377 0.687624 0.250000
O O9 0.872789 0.762614 0.198742
O O10 0.908123 0.670964 0.183205
O O11 0.841378 0.702143 0.000000
O O12 0.171288 0.891021 0.500000
O O13 0.925069 0.574932 0.250000
O O14 0.895014 0.557627 0.500000
O O15 0.861890 0.500092 0.292239
O O16 0.190709 0.690709 0.750000
O O17 0.200143 0.656296 0.500000
O O18 0.179728 0.593168 0.706532
O O19 0.532055 0.807788 0.000000
#
# Coordination Sequence:
#
# PCOD8317371 Si02
#       7
#    16  16  16  16  16  16  16
#     4   9  19  33  49  70  94 121 152 186 227 272
#     4   8  14  29  50  67  86 117 156 189 220 267
#     4   9  17  27  41  64  93 122 148 178 218 267
#     4  10  18  30  50  71  91 120 155 188 223 265
#     4   9  15  25  42  64  90 116 147 185 226 269
#     4   9  18  32  50  69  91 122 157 192 227 265
#     4   8  13  26  48  67  84 116 160 193 222 267
#
# _framework density 16.544004000000001
#
# number of rings (size 3 to 8) (size 9 to 14) (size 15 to 20)
#    0.000    3.143    1.429    1.714    0.000    1.714 
#    0.000    4.286    0.000    2.571    0.000    6.000 
#    0.000    0.000    0.000    0.000    0.000    0.000 
#
# Total GULP energy -1388119.186227 kJ/mol
# GULP energy per Si atom -12393.921306 kJ/mol
# Density = 1.650635 g / cm^3
# Si number density = 16.544004 Si / 1000 Ang^3
#
#
#
# Elastic Constant Matrix: (Units=GPa)
#
#
# Indices 1 2 3 4 5 6 
#
# 1 79.7476 46.1096 38.8698 0.0000 0.0000 0.0000
# 2 46.1096 79.7475 38.8704 0.0000 0.0000 0.0000
# 3 38.8698 38.8704 48.1519 0.0000 0.0000 0.0000
# 4 0.0000 0.0000 0.0000 18.3441 0.0000 0.0000
# 5 0.0000 0.0000 0.0000 0.0000 18.3443 0.0000
# 6 0.0000 0.0000 0.0000 0.0000 0.0000 20.5524
#
#
#
# Elastic Compliance Matrix: (Units=1/GPa)
#
#
# Indices 1 2 3 4 5 6 
#
# 1 0.022788 -0.006941 -0.012792 0.000000 0.000000 0.000000
# 2 -0.006941 0.022788 -0.012793 0.000000 0.000000 0.000000
# 3 -0.012792 -0.012793 0.041421 0.000000 0.000000 0.000000
# 4 0.000000 0.000000 0.000000 0.054513 0.000000 0.000000
# 5 0.000000 0.000000 0.000000 0.000000 0.054513 0.000000
# 6 0.000000 0.000000 0.000000 0.000000 0.000000 0.048656
#
#
# Mechanical properties :
#
#
# Convention : Reuss Voigt Hill
#
# Bulk Modulus (GPa) = 45.56789 50.59408 48.08098
# Shear Modulus (GPa) = 15.77060 17.03463 16.40261
#
# Velocity S-wave (km/s) = 3.09083 3.21231 3.15215
# Velocity P-wave (km/s) = 6.35145 6.66382 6.50950
#
# Compressibility (1/GPa) = 0.02194528
#
# Stress axis : x y z
#
# Youngs Moduli (GPa) = 43.88351 43.88259 24.14236
#
# Poissons Ratio (x) = 0.30457 0.30883
# Poissons Ratio (y) = 0.30457 0.30885
# Poissons Ratio (z) = 0.56137 0.56139
#
# Static dielectric constant tensor:
#      x y z
#    x 3.124170 0.000000 0.000000 
#    y 0.000000 3.124170 0.000000 
#    z 0.000000 0.000000 2.823380 
# 
# 
# High freq. dielectric constant tensor:
#      x y z
#    x 1.627050 0.000000 0.000000 
#    y 0.000000 1.627060 0.000000 
#    z 0.000000 0.000000 1.606850 
# 
# From -- ./inp_files/2632.got.cif
#   From: 2010.03.12/outbox.cif.g09.slc.cpg/sg135_2_cif.got.tgz:2632.got - 2010.04.06 18:31:24.
