data_PCOD8317108
_publ_section_title
;
Structure prediction by ZEFSAII (Michael W. Deem and Ramdas Pophale) SiO2 
 PCOD8317108
Probable space group: P 42/N N M
;
_chemical_formula_sum "Si O2"
_cell_formula_units_Z 84
_cell_length_a 20.209287
_cell_length_b 20.209287
_cell_length_c 12.195808
_cell_angle_alpha 90.000000
_cell_angle_beta 90.000000
_cell_angle_gamma 90.000000
_cell_volume 4980.954352
_symmetry_space_group_name_H-M "P 42/N N M"
_symmetry_group_IT_number 134
_space_group.IT_coordinate_system_code '2'
_symmetry_cell_setting 'tetragonal'
loop_
_space_group_symop_operation_xyz
x,y,z
1/2-y,x,1/2+z
1/2-x,1/2-y,z
y,1/2-x,1/2+z
x,1/2-y,1/2-z
1/2-x,y,1/2-z
y,x,-z
1/2-y,1/2-x,-z
-x,-y,-z
1/2+y,-x,1/2-z
1/2+x,1/2+y,-z
-y,1/2+x,1/2-z
-x,1/2+y,1/2+z
1/2+x,-y,1/2+z
-y,-x,z
1/2+y,1/2+x,z
loop_
_atom_site_type_symbol
_atom_site_label
_atom_site_fract_x
_atom_site_fract_y
_atom_site_fract_z
Si Si1 0.339937 0.002224 0.476294
Si Si2 0.542027 0.565284 0.847798
Si Si3 0.350787 0.649214 0.326189
Si Si4 0.250000 0.750000 0.110127
Si Si5 0.787544 0.015075 0.636271
Si Si6 0.573634 0.967793 0.881134
Si Si7 0.854638 0.145363 0.928262
O O1 0.363784 0.032539 0.592746
O O2 0.389626 0.029540 0.382844
O O3 0.263278 0.019157 0.449984
O O4 0.334790 0.923385 0.482257
O O5 0.481572 0.518429 0.885896
O O6 0.541223 0.576160 0.716289
O O7 0.295289 0.704712 0.313663
O O8 0.412790 0.681153 0.392935
O O9 0.368365 0.631635 0.200950
O O10 0.200896 0.799105 0.041210
O O11 0.750000 0.023340 0.750000
O O12 0.848764 0.965576 0.642038
O O13 0.541920 0.041920 0.873806
O O14 0.561981 0.938020 0.000000
#
# Coordination Sequence:
#
# PCOD8317108 Si02
#       7
#    16  16   8   4  16  16   8
#     4  11  19  28  47  76 110 141 175 226 275 318
#     4  10  18  31  51  75 105 145 186 231 273 312
#     4  12  19  26  40  69 117 153 183 201 254 325
#     4  12  21  24  34  64 114 161 180 203 254 330
#     4  12  20  30  50  78 114 143 178 223 274 334
#     4  10  21  37  55  75 107 145 182 226 280 330
#     4  12  17  25  36  65 107 151 180 213 256 311
#
# _framework density 16.864238
#
# number of rings (size 3 to 8) (size 9 to 14) (size 15 to 20)
#    0.000    0.952    8.571    1.429    0.000    0.000 
#    0.000    0.952    0.000    0.000    0.000    2.667 
#    0.000    1.524    0.000    0.095    0.000    0.000 
#
# Total GULP energy -1040682.610860 kJ/mol
# GULP energy per Si atom -12389.078701 kJ/mol
# Density = 1.682585 g / cm^3
# Si number density = 16.864238 Si / 1000 Ang^3
#
#
#
# Elastic Constant Matrix: (Units=GPa)
#
#
# Indices 1 2 3 4 5 6 
#
# 1 77.4476 40.0266 36.2304 0.0000 0.0000 0.0000
# 2 40.0266 77.4493 36.2308 0.0000 0.0000 0.0000
# 3 36.2304 36.2308 106.2985 0.0000 0.0000 0.0000
# 4 0.0000 0.0000 0.0000 18.2403 0.0000 0.0000
# 5 0.0000 0.0000 0.0000 0.0000 18.2407 0.0000
# 6 0.0000 0.0000 0.0000 0.0000 0.0000 27.2825
#
#
#
# Elastic Compliance Matrix: (Units=1/GPa)
#
#
# Indices 1 2 3 4 5 6 
#
# 1 0.018751 -0.007972 -0.003674 0.000000 0.000000 0.000000
# 2 -0.007972 0.018750 -0.003674 0.000000 0.000000 0.000000
# 3 -0.003674 -0.003674 0.011912 0.000000 0.000000 0.000000
# 4 0.000000 0.000000 0.000000 0.054824 0.000000 0.000000
# 5 0.000000 0.000000 0.000000 0.000000 0.054822 0.000000
# 6 0.000000 0.000000 0.000000 0.000000 0.000000 0.036654
#
#
# Mechanical properties :
#
#
# Convention : Reuss Voigt Hill
#
# Bulk Modulus (GPa) = 53.26562 54.01901 53.64232
# Shear Modulus (GPa) = 21.49531 22.66654 22.08093
#
# Velocity S-wave (km/s) = 3.57404 3.67012 3.62240
# Velocity P-wave (km/s) = 6.97748 7.07538 7.02660
#
# Compressibility (1/GPa) = 0.01877384
#
# Stress axis : x y z
#
# Youngs Moduli (GPa) = 53.33158 53.33266 83.95070
#
# Poissons Ratio (x) = 0.42517 0.30841
# Poissons Ratio (y) = 0.42516 0.30841
# Poissons Ratio (z) = 0.19593 0.19593
#
# Static dielectric constant tensor:
#      x y z
#    x 3.195330 0.000000 0.000000 
#    y 0.000000 3.195330 0.000000 
#    z 0.000000 0.000000 2.952310 
# 
# 
# High freq. dielectric constant tensor:
#      x y z
#    x 1.637420 0.000000 0.000000 
#    y 0.000000 1.637420 0.000000 
#    z 0.000000 0.000000 1.617920 
# 
# From -- ./inp_files/5007.got.cif
#   From: 2010.03.12/outbox.cif.g09.slc.cpg/sg134_3_cif.got.tgz:5007.got - 2010.04.06 18:17:22.
