data_PCOD8317867
_publ_section_title
;
Structure prediction by ZEFSAII (Michael W. Deem and Ramdas Pophale) SiO2 
 PCOD8317867
Probable space group: P 42/M N M
;
_chemical_formula_sum "Si O2"
_cell_formula_units_Z 72
_cell_length_a 14.378932
_cell_length_b 14.378932
_cell_length_c 20.929697
_cell_angle_alpha 90.000000
_cell_angle_beta 90.000000
_cell_angle_gamma 90.000000
_cell_volume 4327.291990
_symmetry_space_group_name_H-M "P 42/M N M"
_symmetry_group_IT_number 136
_symmetry_cell_setting 'tetragonal'
loop_
_space_group_symop_operation_xyz
x,y,z
1/2-y,1/2+x,1/2+z
-x,-y,z
1/2+y,1/2-x,1/2+z
1/2+x,1/2-y,1/2-z
1/2-x,1/2+y,1/2-z
y,x,-z
-y,-x,-z
-x,-y,-z
1/2+y,1/2-x,1/2-z
x,y,-z
1/2-y,1/2+x,1/2-z
1/2-x,1/2+y,1/2+z
1/2+x,1/2-y,1/2+z
-y,-x,z
y,x,z
loop_
_atom_site_type_symbol
_atom_site_label
_atom_site_fract_x
_atom_site_fract_y
_atom_site_fract_z
Si Si1 0.117574 0.267153 0.000000
Si Si2 0.924701 0.075300 0.575250
Si Si3 0.615071 0.235470 0.637217
Si Si4 0.041660 0.718528 0.381491
Si Si5 0.151616 0.518285 0.751499
Si Si6 0.481956 0.110175 0.000000
O O1 0.066581 0.241064 0.932532
O O2 0.218637 0.218637 0.000000
O O3 0.136881 0.374988 0.000000
O O4 0.918670 0.081331 0.500000
O O5 0.825716 0.044126 0.601453
O O6 0.000000 0.000000 0.598143
O O7 0.678963 0.321038 0.659801
O O8 0.678515 0.144825 0.627745
O O9 0.537044 0.218331 0.690696
O O10 0.982293 0.658901 0.434639
O O11 0.985321 0.712150 0.315440
O O12 0.100938 0.421367 0.738949
O O13 0.500000 0.000000 0.000000
#
# Coordination Sequence:
#
# PCOD8317867 Si02
#       6
#     8   8  16  16  16   8
#     4   8  16  26  44  68  92 123 158 204 245 299
#     4  11  22  36  52  72  98 139 189 224 247 289
#     4   9  16  28  47  66  91 125 163 200 253 301
#     4  10  19  32  48  69  99 129 171 211 256 301
#     4   9  19  30  44  69 105 131 156 201 267 323
#     4  10  20  26  48  72  96 128 170 212 258 310
#
# _framework density 16.638582
#
# number of rings (size 3 to 8) (size 9 to 14) (size 15 to 20)
#    0.000    2.556    2.222    0.000   10.889    0.889 
#    0.000    0.000    0.000    0.000    0.000    0.000 
#    0.000    0.889    0.000    5.000    1.778    0.444 
#
# Total GULP energy -892012.430789 kJ/mol
# GULP energy per Si atom -12389.061539 kJ/mol
# Density = 1.660071 g / cm^3
# Si number density = 16.638582 Si / 1000 Ang^3
#
#
#
# Elastic Constant Matrix: (Units=GPa)
#
#
# Indices 1 2 3 4 5 6 
#
# 1 66.2667 26.9507 53.4641 0.0000 0.0000 0.0000
# 2 26.9507 66.2682 53.4653 0.0000 0.0000 0.0000
# 3 53.4641 53.4653 167.0017 0.0000 0.0000 0.0000
# 4 0.0000 0.0000 0.0000 22.5682 0.0000 0.0000
# 5 0.0000 0.0000 0.0000 0.0000 22.5682 0.0000
# 6 0.0000 0.0000 0.0000 0.0000 0.0000 13.0528
#
#
#
# Elastic Compliance Matrix: (Units=1/GPa)
#
#
# Indices 1 2 3 4 5 6 
#
# 1 0.021194 -0.004241 -0.005427 0.000000 0.000000 0.000000
# 2 -0.004241 0.021194 -0.005428 0.000000 0.000000 0.000000
# 3 -0.005427 -0.005428 0.009463 0.000000 0.000000 0.000000
# 4 0.000000 0.000000 0.000000 0.044310 0.000000 0.000000
# 5 0.000000 0.000000 0.000000 0.000000 0.044310 0.000000
# 6 0.000000 0.000000 0.000000 0.000000 0.000000 0.076612
#
#
# Mechanical properties :
#
#
# Convention : Reuss Voigt Hill
#
# Bulk Modulus (GPa) = 46.16855 63.03299 54.60077
# Shear Modulus (GPa) = 19.64680 22.68161 21.16420
#
# Velocity S-wave (km/s) = 3.44000 3.69615 3.57037
# Velocity P-wave (km/s) = 6.60199 7.49542 7.06284
#
# Compressibility (1/GPa) = 0.02165977
#
# Stress axis : x y z
#
# Youngs Moduli (GPa) = 47.18301 47.18375 105.67300
#
# Poissons Ratio (x) = 0.20008 0.57354
# Poissons Ratio (y) = 0.20008 0.57355
# Poissons Ratio (z) = 0.25609 0.25609
#
# Static dielectric constant tensor:
#      x y z
#    x 2.861760 0.000000 0.000000 
#    y 0.000000 2.861760 0.000000 
#    z 0.000000 0.000000 3.857390 
# 
# 
# High freq. dielectric constant tensor:
#      x y z
#    x 1.606630 0.000000 0.000000 
#    y 0.000000 1.606630 0.000000 
#    z 0.000000 0.000000 1.669750 
# 
# From -- ./inp_files/6120.got.cif
#   From: 2010.03.12/outbox.cif.g09.slc.cpg/sg136_4_cif.got.tgz:6120.got - 2010.04.06 18:39:43.
