data_PCOD8317159
_publ_section_title
;
Structure prediction by ZEFSAII (Michael W. Deem and Ramdas Pophale) SiO2 
 PCOD8317159
Probable space group: P 42/N N M
;
_chemical_formula_sum "Si O2"
_cell_formula_units_Z 72
_cell_length_a 27.869997
_cell_length_b 27.869997
_cell_length_c 5.082670
_cell_angle_alpha 90.000000
_cell_angle_beta 90.000000
_cell_angle_gamma 90.000000
_cell_volume 3947.896490
_symmetry_space_group_name_H-M "P 42/N N M"
_symmetry_group_IT_number 134
_space_group.IT_coordinate_system_code '2'
_symmetry_cell_setting 'tetragonal'
loop_
_space_group_symop_operation_xyz
x,y,z
1/2-y,x,1/2+z
1/2-x,1/2-y,z
y,1/2-x,1/2+z
x,1/2-y,1/2-z
1/2-x,y,1/2-z
y,x,-z
1/2-y,1/2-x,-z
-x,-y,-z
1/2+y,-x,1/2-z
1/2+x,1/2+y,-z
-y,1/2+x,1/2-z
-x,1/2+y,1/2+z
1/2+x,-y,1/2+z
-y,-x,z
1/2+y,1/2+x,z
loop_
_atom_site_type_symbol
_atom_site_label
_atom_site_fract_x
_atom_site_fract_y
_atom_site_fract_z
Si Si1 0.523192 0.023192 0.250180
Si Si2 0.097787 0.449661 0.750234
Si Si3 0.696983 0.052929 0.787515
Si Si4 0.305316 0.694685 0.706051
Si Si5 0.849937 0.349937 0.703919
Si Si6 0.009612 0.303230 0.287494
O O1 0.506127 0.079110 0.251147
O O2 0.500000 0.000000 0.500000
O O3 0.500000 0.000000 0.000000
O O4 0.079370 0.420631 0.500000
O O5 0.155635 0.450633 0.758322
O O6 0.078923 0.421078 0.000000
O O7 0.750000 0.075556 0.750000
O O8 0.657717 0.093693 0.743937
O O9 0.689699 0.009706 0.582754
O O10 0.691027 0.033855 0.082648
O O11 0.317255 0.750000 0.750000
O O12 0.318867 0.681134 0.408783
O O13 0.336368 0.663633 0.907383
O O14 0.032815 0.250000 0.250000
#
# Coordination Sequence:
#
# PCOD8317159 Si02
#       6
#     8  16  16   8   8  16
#     4   8  16  28  44  68  99 130 159 199 246 291
#     4  10  19  33  53  78 105 135 172 213 255 304
#     4  10  21  35  50  70  98 133 170 212 262 310
#     4  11  22  34  49  68  91 121 162 223 290 331
#     4  12  22  35  53  72  92 127 177 225 260 315
#     4  10  21  37  54  75 106 139 169 207 258 313
#
# _framework density 18.237559000000001
#
# number of rings (size 3 to 8) (size 9 to 14) (size 15 to 20)
#    0.000    1.889    0.000    4.667    0.000    4.444 
#    0.000    2.222    0.000    0.000    0.000    0.000 
#    0.000    2.667    0.000    0.000    0.000    0.000 
#
# Total GULP energy -892507.674768 kJ/mol
# GULP energy per Si atom -12395.939927 kJ/mol
# Density = 1.819605 g / cm^3
# Si number density = 18.237559 Si / 1000 Ang^3
#
#
#
# Elastic Constant Matrix: (Units=GPa)
#
#
# Indices 1 2 3 4 5 6 
#
# 1 93.2153 51.8571 16.4906 0.0000 0.0000 0.0000
# 2 51.8571 93.2149 16.4907 0.0000 0.0000 0.0000
# 3 16.4906 16.4907 91.9428 0.0000 0.0000 0.0000
# 4 0.0000 0.0000 0.0000 19.1641 0.0000 0.0000
# 5 0.0000 0.0000 0.0000 0.0000 19.1640 0.0000
# 6 0.0000 0.0000 0.0000 0.0000 0.0000 24.3019
#
#
#
# Elastic Compliance Matrix: (Units=1/GPa)
#
#
# Indices 1 2 3 4 5 6 
#
# 1 0.015683 -0.008496 -0.001289 0.000000 0.000000 0.000000
# 2 -0.008496 0.015683 -0.001289 0.000000 0.000000 0.000000
# 3 -0.001289 -0.001289 0.011339 0.000000 0.000000 0.000000
# 4 0.000000 0.000000 0.000000 0.052181 0.000000 0.000000
# 5 0.000000 0.000000 0.000000 0.000000 0.052181 0.000000
# 6 0.000000 0.000000 0.000000 0.000000 0.000000 0.041149
#
#
# Mechanical properties :
#
#
# Convention : Reuss Voigt Hill
#
# Bulk Modulus (GPa) = 48.64903 49.78332 49.21618
# Shear Modulus (GPa) = 23.01862 25.42830 24.22346
#
# Velocity S-wave (km/s) = 3.55654 3.73806 3.64843
# Velocity P-wave (km/s) = 6.60291 6.78139 6.69274
#
# Compressibility (1/GPa) = 0.02055539
#
# Stress axis : x y z
#
# Youngs Moduli (GPa) = 63.76496 63.76464 88.19371
#
# Poissons Ratio (x) = 0.54178 0.11367
# Poissons Ratio (y) = 0.54178 0.11367
# Poissons Ratio (z) = 0.08218 0.08219
#
# Static dielectric constant tensor:
#      x y z
#    x 3.199790 0.000000 0.000000 
#    y 0.000000 3.199780 0.000000 
#    z 0.000000 0.000000 3.511830 
# 
# 
# High freq. dielectric constant tensor:
#      x y z
#    x 1.675870 0.000000 0.000000 
#    y 0.000000 1.675870 0.000000 
#    z 0.000000 0.000000 1.737650 
# 
# From -- ./inp_files/1112.got.cif
#   From: 2010.03.12/outbox.cif.g09.slc.cpg/sg134_1_cif.got.tgz:1112.got - 2010.04.06 18:17:22.
