data_PCOD8317410
_publ_section_title
;
Structure prediction by ZEFSAII (Michael W. Deem and Ramdas Pophale) SiO2 
 PCOD8317410
Probable space group: P 42/M B C
;
_chemical_formula_sum "Si O2"
_cell_formula_units_Z 96
_cell_length_a 25.071313
_cell_length_b 25.071313
_cell_length_c 9.086408
_cell_angle_alpha 90.000000
_cell_angle_beta 90.000000
_cell_angle_gamma 90.000000
_cell_volume 5711.450160
_symmetry_space_group_name_H-M "P 42/M B C"
_symmetry_group_IT_number 135
_symmetry_cell_setting 'tetragonal'
loop_
_space_group_symop_operation_xyz
x,y,z
-y,x,1/2+z
-x,-y,z
y,-x,1/2+z
1/2+x,1/2-y,-z
1/2-x,1/2+y,-z
1/2+y,1/2+x,1/2-z
1/2-y,1/2-x,1/2-z
-x,-y,-z
y,-x,1/2-z
x,y,-z
-y,x,1/2-z
1/2-x,1/2+y,z
1/2+x,1/2-y,z
1/2-y,1/2-x,1/2+z
1/2+y,1/2+x,1/2+z
loop_
_atom_site_type_symbol
_atom_site_label
_atom_site_fract_x
_atom_site_fract_y
_atom_site_fract_z
Si Si1 0.114750 0.197748 0.331951
Si Si2 0.497800 0.297903 0.334336
Si Si3 0.889689 0.690093 0.172665
Si Si4 0.116106 0.814581 0.335152
Si Si5 0.388087 0.188359 0.330606
Si Si6 0.692245 0.991296 0.330891
O O1 0.128450 0.211779 0.500000
O O2 0.054821 0.172502 0.318535
O O3 0.120023 0.251475 0.238886
O O4 0.156188 0.153717 0.279131
O O5 0.494095 0.271820 0.500000
O O6 0.445430 0.335301 0.314809
O O7 0.495688 0.254266 0.207487
O O8 0.850727 0.649274 0.250000
O O9 0.949899 0.668234 0.201219
O O10 0.877273 0.693257 0.000000
O O11 0.136384 0.827019 0.500000
O O12 0.116898 0.751457 0.304285
O O13 0.338542 0.161459 0.250000
O O14 0.385936 0.172592 0.500000
O O15 0.444260 0.165873 0.265913
O O16 0.685538 0.975185 0.500000
#
# Coordination Sequence:
#
# PCOD8317410 Si02
#       6
#    16  16  16  16  16  16
#     4  10  19  31  49  72  97 125 158 196 238 283
#     4   8  16  31  48  66  91 124 159 194 233 278
#     4  10  20  33  50  72  98 128 159 193 234 280
#     4   9  18  32  48  68  96 127 158 194 236 281
#     4  10  20  33  50  71  97 128 159 194 236 281
#     4   9  17  30  49  71  93 120 158 197 232 275
#
# _framework density 16.808340999999999
#
# number of rings (size 3 to 8) (size 9 to 14) (size 15 to 20)
#    0.000    2.667    0.000    3.000    0.000    6.667 
#    0.000    1.667    0.000    1.000    0.000    7.000 
#    0.000    0.000    0.000    0.000    0.000    0.000 
#
# Total GULP energy -1189538.560482 kJ/mol
# GULP energy per Si atom -12391.026672 kJ/mol
# Density = 1.677008 g / cm^3
# Si number density = 16.808341 Si / 1000 Ang^3
#
#
#
# Elastic Constant Matrix: (Units=GPa)
#
#
# Indices 1 2 3 4 5 6 
#
# 1 77.9236 46.4772 51.2533 0.0000 0.0000 0.0000
# 2 46.4772 77.9181 51.2508 0.0000 0.0000 0.0000
# 3 51.2533 51.2508 109.6825 0.0000 0.0000 0.0000
# 4 0.0000 0.0000 0.0000 27.0103 0.0000 0.0000
# 5 0.0000 0.0000 0.0000 0.0000 27.0108 0.0000
# 6 0.0000 0.0000 0.0000 0.0000 0.0000 -1.5240
#
#
#
# Elastic Compliance Matrix: (Units=1/GPa)
#
#
# Indices 1 2 3 4 5 6 
#
# 1 0.022437 -0.009366 -0.006108 0.000000 0.000000 0.000000
# 2 -0.009366 0.022438 -0.006108 0.000000 0.000000 0.000000
# 3 -0.006108 -0.006108 0.014826 0.000000 0.000000 0.000000
# 4 0.000000 0.000000 0.000000 0.037023 0.000000 0.000000
# 5 0.000000 0.000000 0.000000 0.000000 0.037022 0.000000
# 6 0.000000 0.000000 0.000000 0.000000 0.000000 -0.656173
#
#
# Mechanical properties :
#
#
# Convention : Reuss Voigt Hill
#
# Bulk Modulus (GPa) = 60.47171 62.60965 61.54068
# Shear Modulus (GPa) = -10.55405 18.26895 3.85745
#
# Velocity S-wave (km/s) = -2.50852 3.30039 1.51656
# Velocity P-wave (km/s) = 5.25976 7.20093 6.30549
#
# Compressibility (1/GPa) = 0.01653666
#
# Stress axis : x y z
#
# Youngs Moduli (GPa) = 44.56980 44.56711 67.45077
#
# Poissons Ratio (x) = 0.41740 0.41200
# Poissons Ratio (y) = 0.41742 0.41200
# Poissons Ratio (z) = 0.27224 0.27222
#
# Static dielectric constant tensor:
#      x y z
#    x 3.122600 0.000000 0.000000 
#    y 0.000000 3.122600 0.000000 
#    z 0.000000 0.000000 3.285560 
# 
# 
# High freq. dielectric constant tensor:
#      x y z
#    x 1.628610 0.000000 0.000000 
#    y 0.000000 1.628610 0.000000 
#    z 0.000000 0.000000 1.665280 
# 
# From -- ./inp_files/1212.got.cif
#   From: 2010.03.12/outbox.cif.g09.slc.cpg/sg135_1_cif.got.tgz:1212.got - 2010.04.06 18:31:24.
