data_PCOD8317173
_publ_section_title
;
Structure prediction by ZEFSAII (Michael W. Deem and Ramdas Pophale) SiO2 
 PCOD8317173
Probable space group: P 42/N N M
;
_chemical_formula_sum "Si O2"
_cell_formula_units_Z 80
_cell_length_a 12.879820
_cell_length_b 12.879820
_cell_length_c 25.329507
_cell_angle_alpha 90.000000
_cell_angle_beta 90.000000
_cell_angle_gamma 90.000000
_cell_volume 4201.905919
_symmetry_space_group_name_H-M "P 42/N N M"
_symmetry_group_IT_number 134
_space_group.IT_coordinate_system_code '2'
_symmetry_cell_setting 'tetragonal'
loop_
_space_group_symop_operation_xyz
x,y,z
1/2-y,x,1/2+z
1/2-x,1/2-y,z
y,1/2-x,1/2+z
x,1/2-y,1/2-z
1/2-x,y,1/2-z
y,x,-z
1/2-y,1/2-x,-z
-x,-y,-z
1/2+y,-x,1/2-z
1/2+x,1/2+y,-z
-y,1/2+x,1/2-z
-x,1/2+y,1/2+z
1/2+x,-y,1/2+z
-y,-x,z
1/2+y,1/2+x,z
loop_
_atom_site_type_symbol
_atom_site_label
_atom_site_fract_x
_atom_site_fract_y
_atom_site_fract_z
Si Si1 0.977230 0.650473 0.892764
Si Si2 0.755294 0.080876 0.012428
Si Si3 0.320944 0.991623 0.301176
Si Si4 0.719520 0.633890 0.190427
Si Si5 0.690068 0.481556 0.595384
O O1 0.955303 0.723139 0.842723
O O2 0.871682 0.589234 0.904807
O O3 0.072930 0.572930 0.880163
O O4 0.000005 0.725486 0.941993
O O5 0.866149 0.133852 0.025045
O O6 0.667200 0.167200 0.009376
O O7 0.763669 0.020853 0.956345
O O8 0.250000 0.011433 0.250000
O O9 0.400509 0.900509 0.287558
O O10 0.382387 0.096377 0.315266
O O11 0.253026 0.961258 0.351445
O O12 0.750000 0.750000 0.171434
O O13 0.750000 0.614704 0.250000
O O14 0.611327 0.388674 0.590132
#
# Coordination Sequence:
#
# PCOD8317173 Si02
#       5
#    16  16  16  16  16
#     4  10  20  36  63  88 111 151 205 248 290 352
#     4   9  18  33  54  83 119 155 195 249 302 347
#     4  12  24  38  60  90 122 157 195 239 295 358
#     4  11  21  41  61  81 118 156 192 232 291 355
#     4  10  19  34  57  86 119 157 197 241 296 359
#
# _framework density 19.038979000000001
#
# number of rings (size 3 to 8) (size 9 to 14) (size 15 to 20)
#    0.000    1.600    4.000    1.800    0.000    7.800 
#    0.000    1.000    0.000    2.400    0.000    1.400 
#    0.000    0.000    0.000    0.000    0.000    0.000 
#
# Total GULP energy -992002.929946 kJ/mol
# GULP energy per Si atom -12400.036624 kJ/mol
# Density = 1.899565 g / cm^3
# Si number density = 19.038979 Si / 1000 Ang^3
#
#
#
# Elastic Constant Matrix: (Units=GPa)
#
#
# Indices 1 2 3 4 5 6 
#
# 1 73.4181 28.2089 33.8776 0.0000 0.0000 0.0000
# 2 28.2089 73.4181 33.8776 0.0000 0.0000 0.0000
# 3 33.8776 33.8776 114.8614 0.0000 0.0000 0.0000
# 4 0.0000 0.0000 0.0000 28.1465 0.0000 0.0000
# 5 0.0000 0.0000 0.0000 0.0000 28.1465 0.0000
# 6 0.0000 0.0000 0.0000 0.0000 0.0000 26.2181
#
#
#
# Elastic Compliance Matrix: (Units=1/GPa)
#
#
# Indices 1 2 3 4 5 6 
#
# 1 0.017184 -0.004935 -0.003613 0.000000 0.000000 0.000000
# 2 -0.004935 0.017184 -0.003613 0.000000 0.000000 0.000000
# 3 -0.003613 -0.003613 0.010837 0.000000 0.000000 0.000000
# 4 0.000000 0.000000 0.000000 0.035528 0.000000 0.000000
# 5 0.000000 0.000000 0.000000 0.000000 0.035528 0.000000
# 6 0.000000 0.000000 0.000000 0.000000 0.000000 0.038142
#
#
# Mechanical properties :
#
#
# Convention : Reuss Voigt Hill
#
# Bulk Modulus (GPa) = 47.88428 50.40284 49.14356
# Shear Modulus (GPa) = 26.92721 27.55115 27.23918
#
# Velocity S-wave (km/s) = 3.76482 3.80819 3.78657
# Velocity P-wave (km/s) = 6.64107 6.77255 6.70713
#
# Compressibility (1/GPa) = 0.02088368
#
# Stress axis : x y z
#
# Youngs Moduli (GPa) = 58.19395 58.19395 92.27509
#
# Poissons Ratio (x) = 0.28721 0.33335
# Poissons Ratio (y) = 0.28721 0.33335
# Poissons Ratio (z) = 0.21023 0.21023
#
# Static dielectric constant tensor:
#      x y z
#    x 3.474690 0.000000 0.000000 
#    y 0.000000 3.474690 0.000000 
#    z 0.000000 0.000000 3.660450 
# 
# 
# High freq. dielectric constant tensor:
#      x y z
#    x 1.728570 0.000000 0.000000 
#    y 0.000000 1.728570 0.000000 
#    z 0.000000 0.000000 1.751470 
# 
# From -- ./inp_files/11302.got.cif
#   From: 2010.03.12/outbox.cif.g09.slc.cpg/sg134_6_cif.got.tgz:11302.got - 2010.04.06 18:17:22.
