data_PCOD8317238
_publ_section_title
;
Structure prediction by ZEFSAII (Michael W. Deem and Ramdas Pophale) SiO2 
 PCOD8317238
Probable space group: P 42/N N M
;
_chemical_formula_sum "Si O2"
_cell_formula_units_Z 72
_cell_length_a 16.185382
_cell_length_b 16.185382
_cell_length_c 13.166369
_cell_angle_alpha 90.000000
_cell_angle_beta 90.000000
_cell_angle_gamma 90.000000
_cell_volume 3449.148796
_symmetry_space_group_name_H-M "P 42/N N M"
_symmetry_group_IT_number 134
_space_group.IT_coordinate_system_code '2'
_symmetry_cell_setting 'tetragonal'
loop_
_space_group_symop_operation_xyz
x,y,z
1/2-y,x,1/2+z
1/2-x,1/2-y,z
y,1/2-x,1/2+z
x,1/2-y,1/2-z
1/2-x,y,1/2-z
y,x,-z
1/2-y,1/2-x,-z
-x,-y,-z
1/2+y,-x,1/2-z
1/2+x,1/2+y,-z
-y,1/2+x,1/2-z
-x,1/2+y,1/2+z
1/2+x,-y,1/2+z
-y,-x,z
1/2+y,1/2+x,z
loop_
_atom_site_type_symbol
_atom_site_label
_atom_site_fract_x
_atom_site_fract_y
_atom_site_fract_z
Si Si1 0.220049 0.428561 0.863925
Si Si2 0.700085 0.431334 0.510542
Si Si3 0.596626 0.530755 0.658065
Si Si4 0.646628 0.853373 0.500000
Si Si5 0.017218 0.851354 0.128915
O O1 0.250000 0.432524 0.750000
O O2 0.229505 0.522072 0.907936
O O3 0.127092 0.397683 0.858983
O O4 0.270737 0.361025 0.931095
O O5 0.659569 0.340432 0.489717
O O6 0.630316 0.490763 0.555715
O O7 0.775794 0.425445 0.589925
O O8 0.502567 0.497434 0.676100
O O9 0.655103 0.500654 0.750749
O O10 0.570095 0.854975 0.424951
O O11 0.064647 0.935354 0.102695
#
# Coordination Sequence:
#
# PCOD8317238 Si02
#       5
#    16  16  16   8  16
#     4  11  21  38  62  89 123 160 208 252 304 376
#     4  10  22  39  61  89 122 160 203 255 308 365
#     4  10  20  38  64  88 118 159 205 256 302 361
#     4  10  21  38  59  88 124 164 196 246 306 366
#     4  10  20  36  61  89 121 160 204 251 304 362
#
# _framework density 20.874714999999998
#
# number of rings (size 3 to 8) (size 9 to 14) (size 15 to 20)
#    0.000    1.778    2.222    2.333    0.000    2.222 
#    0.000   10.000    0.000    4.000    0.000    0.000 
#    0.000    0.000    0.000    0.000    0.000    0.000 
#
# Total GULP energy -892445.400829 kJ/mol
# GULP energy per Si atom -12395.075012 kJ/mol
# Density = 2.082720 g / cm^3
# Si number density = 20.874715 Si / 1000 Ang^3
#
#
#
# Elastic Constant Matrix: (Units=GPa)
#
#
# Indices 1 2 3 4 5 6 
#
# 1 105.7790 45.6723 41.6090 0.0000 0.0000 0.0000
# 2 45.6723 105.7802 41.6079 0.0000 0.0000 0.0000
# 3 41.6090 41.6079 118.9320 0.0000 0.0000 0.0000
# 4 0.0000 0.0000 0.0000 28.0064 0.0000 0.0000
# 5 0.0000 0.0000 0.0000 0.0000 28.0067 0.0000
# 6 0.0000 0.0000 0.0000 0.0000 0.0000 33.2195
#
#
#
# Elastic Compliance Matrix: (Units=1/GPa)
#
#
# Indices 1 2 3 4 5 6 
#
# 1 0.012406 -0.004231 -0.002860 0.000000 0.000000 0.000000
# 2 -0.004231 0.012405 -0.002860 0.000000 0.000000 0.000000
# 3 -0.002860 -0.002860 0.010409 0.000000 0.000000 0.000000
# 4 0.000000 0.000000 0.000000 0.035706 0.000000 0.000000
# 5 0.000000 0.000000 0.000000 0.000000 0.035706 0.000000
# 6 0.000000 0.000000 0.000000 0.000000 0.000000 0.030103
#
#
# Mechanical properties :
#
#
# Convention : Reuss Voigt Hill
#
# Bulk Modulus (GPa) = 65.28093 65.36329 65.32211
# Shear Modulus (GPa) = 30.91333 31.28665 31.09999
#
# Velocity S-wave (km/s) = 3.85242 3.87561 3.86403
# Velocity P-wave (km/s) = 7.15044 7.16989 7.16017
#
# Compressibility (1/GPa) = 0.01531841
#
# Stress axis : x y z
#
# Youngs Moduli (GPa) = 80.60872 80.61035 96.06979
#
# Poissons Ratio (x) = 0.34110 0.27474
# Poissons Ratio (y) = 0.34109 0.27472
# Poissons Ratio (z) = 0.23053 0.23051
#
# Static dielectric constant tensor:
#      x y z
#    x 4.044130 0.000000 0.000000 
#    y 0.000000 4.044110 0.000000 
#    z 0.000000 0.000000 4.017040 
# 
# 
# High freq. dielectric constant tensor:
#      x y z
#    x 1.809900 0.000000 0.000000 
#    y 0.000000 1.809900 0.000000 
#    z 0.000000 0.000000 1.827430 
# 
# From -- ./inp_files/4741.got.cif
#   From: 2010.03.12/outbox.cif.g09.slc.cpg/sg134_3_cif.got.tgz:4741.got - 2010.04.06 18:17:22.
