data_PCOD8317028
_publ_section_title
;
Structure prediction by ZEFSAII (Michael W. Deem and Ramdas Pophale) SiO2 
 PCOD8317028
Probable space group: P 42/N B C
;
_chemical_formula_sum "Si O2"
_cell_formula_units_Z 96
_cell_length_a 14.461625
_cell_length_b 14.461625
_cell_length_c 21.883261
_cell_angle_alpha 90.000000
_cell_angle_beta 90.000000
_cell_angle_gamma 90.000000
_cell_volume 4576.634517
_symmetry_space_group_name_H-M "P 42/N B C"
_symmetry_group_IT_number 133
_space_group.IT_coordinate_system_code '2'
_symmetry_cell_setting 'tetragonal'
loop_
_space_group_symop_operation_xyz
x,y,z
1/2-y,x,1/2+z
1/2-x,1/2-y,z
y,1/2-x,1/2+z
x,1/2-y,-z
1/2-x,y,-z
y,x,1/2-z
1/2-y,1/2-x,1/2-z
-x,-y,-z
1/2+y,-x,1/2-z
1/2+x,1/2+y,-z
-y,1/2+x,1/2-z
-x,1/2+y,z
1/2+x,-y,z
-y,-x,1/2+z
1/2+y,1/2+x,1/2+z
loop_
_atom_site_type_symbol
_atom_site_label
_atom_site_fract_x
_atom_site_fract_y
_atom_site_fract_z
Si Si1 0.696024 0.615628 0.124430
Si Si2 0.492646 0.264280 0.733304
Si Si3 0.434654 0.558717 0.206301
Si Si4 0.154150 0.503487 0.015917
Si Si5 0.049270 0.020104 0.409192
Si Si6 0.887938 0.704538 0.156605
O O1 0.670834 0.539294 0.176156
O O2 0.696995 0.579928 0.055725
O O3 0.796262 0.644897 0.148682
O O4 0.622247 0.697855 0.122859
O O5 0.550920 0.176816 0.709420
O O6 0.547712 0.334152 0.777624
O O7 0.406969 0.223072 0.772106
O O8 0.484873 0.484873 0.250000
O O9 0.471460 0.537186 0.137525
O O10 0.079676 0.556826 0.057824
O O11 0.250000 0.560767 0.000000
O O12 0.103089 0.462799 0.957206
O O13 0.146584 0.028979 0.373950
#
# Coordination Sequence:
#
# PCOD8317028 Si02
#       6
#    16  16  16  16  16  16
#     4  11  22  38  64  98 131 167 219 283 351 410
#     4  12  23  39  66  96 136 176 220 274 350 414
#     4  12  23  42  65  95 134 178 224 278 340 414
#     4  11  22  41  64  92 129 181 225 270 335 412
#     4  11  23  40  62  93 133 175 224 276 337 410
#     4  11  21  38  62 100 135 165 215 288 346 407
#
# _framework density 20.976111
#
# number of rings (size 3 to 8) (size 9 to 14) (size 15 to 20)
#    0.000    0.667    5.000    4.000    0.000    2.333 
#    0.000    0.000    0.000    0.000    0.000   10.500 
#    0.000    0.000    0.000    0.000    0.000    0.000 
#
# Total GULP energy -1189726.098625 kJ/mol
# GULP energy per Si atom -12392.980194 kJ/mol
# Density = 2.092837 g / cm^3
# Si number density = 20.976111 Si / 1000 Ang^3
#
#
#
# Elastic Constant Matrix: (Units=GPa)
#
#
# Indices 1 2 3 4 5 6 
#
# 1 106.4424 31.2797 33.0524 0.0000 0.0000 0.0000
# 2 31.2797 106.4424 33.0524 0.0000 0.0000 0.0000
# 3 33.0524 33.0524 128.4480 0.0000 0.0000 0.0000
# 4 0.0000 0.0000 0.0000 25.4437 0.0000 0.0000
# 5 0.0000 0.0000 0.0000 0.0000 25.4437 0.0000
# 6 0.0000 0.0000 0.0000 0.0000 0.0000 26.5574
#
#
#
# Elastic Compliance Matrix: (Units=1/GPa)
#
#
# Indices 1 2 3 4 5 6 
#
# 1 0.010794 -0.002510 -0.002132 0.000000 0.000000 0.000000
# 2 -0.002510 0.010794 -0.002132 0.000000 0.000000 0.000000
# 3 -0.002132 -0.002132 0.008882 0.000000 0.000000 0.000000
# 4 0.000000 0.000000 0.000000 0.039302 0.000000 0.000000
# 5 0.000000 0.000000 0.000000 0.000000 0.039302 0.000000
# 6 0.000000 0.000000 0.000000 0.000000 0.000000 0.037654
#
#
# Mechanical properties :
#
#
# Convention : Reuss Voigt Hill
#
# Bulk Modulus (GPa) = 59.08804 59.56686 59.32745
# Shear Modulus (GPa) = 30.13530 31.75220 30.94375
#
# Velocity S-wave (km/s) = 3.79443 3.89489 3.84499
# Velocity P-wave (km/s) = 6.88675 6.97754 6.93229
#
# Compressibility (1/GPa) = 0.01692390
#
# Stress axis : x y z
#
# Youngs Moduli (GPa) = 92.64121 92.64121 112.58327
#
# Poissons Ratio (x) = 0.23254 0.23999
# Poissons Ratio (y) = 0.23254 0.23999
# Poissons Ratio (z) = 0.19748 0.19748
#
# Static dielectric constant tensor:
#      x y z
#    x 3.806090 0.000000 0.000000 
#    y 0.000000 3.806090 0.000000 
#    z 0.000000 0.000000 4.041280 
# 
# 
# High freq. dielectric constant tensor:
#      x y z
#    x 1.808850 0.000000 0.000000 
#    y 0.000000 1.808850 0.000000 
#    z 0.000000 0.000000 1.838690 
# 
# From -- ./inp_files/6540.got.cif
#   From: 2010.03.12/outbox.cif.g09.slc.cpg/sg133_4_cif.got.tgz:6540.got - 2010.04.06 18:08:06.
