data_PCOD8317645
_publ_section_title
;
Structure prediction by ZEFSAII (Michael W. Deem and Ramdas Pophale) SiO2 
 PCOD8317645
Probable space group: P 42/M B C
;
_chemical_formula_sum "Si O2"
_cell_formula_units_Z 96
_cell_length_a 14.704548
_cell_length_b 14.704548
_cell_length_c 21.683288
_cell_angle_alpha 90.000000
_cell_angle_beta 90.000000
_cell_angle_gamma 90.000000
_cell_volume 4688.441451
_symmetry_space_group_name_H-M "P 42/M B C"
_symmetry_group_IT_number 135
_symmetry_cell_setting 'tetragonal'
loop_
_space_group_symop_operation_xyz
x,y,z
-y,x,1/2+z
-x,-y,z
y,-x,1/2+z
1/2+x,1/2-y,-z
1/2-x,1/2+y,-z
1/2+y,1/2+x,1/2-z
1/2-y,1/2-x,1/2-z
-x,-y,-z
y,-x,1/2-z
x,y,-z
-y,x,1/2-z
1/2-x,1/2+y,z
1/2+x,1/2-y,z
1/2-y,1/2-x,1/2+z
1/2+y,1/2+x,1/2+z
loop_
_atom_site_type_symbol
_atom_site_label
_atom_site_fract_x
_atom_site_fract_y
_atom_site_fract_z
Si Si1 0.730717 0.313771 0.071679
Si Si2 0.164596 0.128522 0.430228
Si Si3 0.541833 0.268530 0.130348
Si Si4 0.010847 0.246395 0.385865
Si Si5 0.431649 0.917502 0.928062
Si Si6 0.849855 0.012667 0.244346
O O1 0.803762 0.241360 0.097523
O O2 0.639164 0.303736 0.109668
O O3 0.767766 0.414942 0.082068
O O4 0.711394 0.294847 0.000000
O O5 0.189916 0.106582 0.500000
O O6 0.064747 0.171662 0.425487
O O7 0.162050 0.033863 0.394444
O O8 0.520297 0.168997 0.103356
O O9 0.535405 0.274120 0.204160
O O10 0.066171 0.340442 0.388932
O O11 0.000146 0.209145 0.317013
O O12 0.500000 0.000000 0.921309
O O13 0.408344 0.898457 0.000000
O O14 0.920189 0.096388 0.239281
#
# Coordination Sequence:
#
# PCOD8317645 Si02
#       6
#    16  16  16  16  16  16
#     4  11  23  40  64  98 135 167 217 281 339 401
#     4  11  23  40  64  98 135 167 217 281 339 401
#     4  12  23  42  67  97 129 179 226 268 336 399
#     4  12  23  42  67  97 129 179 226 268 336 399
#     4  11  24  45  71 101 141 179 215 272 343 407
#     4  11  24  45  64  91 135 180 220 275 335 398
#
# _framework density 20.475885999999999
#
# number of rings (size 3 to 8) (size 9 to 14) (size 15 to 20)
#    0.000    0.667    5.000    4.000    0.000    4.000 
#    0.000    7.500    0.000    0.000    0.000    0.000 
#    0.000    0.000    0.000    0.000    0.000    0.000 
#
# Total GULP energy -1190819.796594 kJ/mol
# GULP energy per Si atom -12404.372881 kJ/mol
# Density = 2.042928 g / cm^3
# Si number density = 20.475886 Si / 1000 Ang^3
#
#
#
# Elastic Constant Matrix: (Units=GPa)
#
#
# Indices 1 2 3 4 5 6 
#
# 1 70.6151 -16.3063 25.5729 0.0000 0.0000 0.0000
# 2 -16.3063 70.6151 25.5729 0.0000 0.0000 0.0000
# 3 25.5729 25.5729 94.1054 0.0000 0.0000 0.0000
# 4 0.0000 0.0000 0.0000 92.7068 0.0000 0.0000
# 5 0.0000 0.0000 0.0000 0.0000 92.7068 0.0000
# 6 0.0000 0.0000 0.0000 0.0000 0.0000 30.6908
#
#
#
# Elastic Compliance Matrix: (Units=1/GPa)
#
#
# Indices 1 2 3 4 5 6 
#
# 1 0.018125 0.006621 -0.006725 0.000000 0.000000 0.000000
# 2 0.006621 0.018125 -0.006725 0.000000 0.000000 0.000000
# 3 -0.006725 -0.006725 0.014281 0.000000 0.000000 0.000000
# 4 0.000000 0.000000 0.000000 0.010787 0.000000 0.000000
# 5 0.000000 0.000000 0.000000 0.000000 0.010787 0.000000
# 6 0.000000 0.000000 0.000000 0.000000 0.000000 0.032583
#
#
# Mechanical properties :
#
#
# Convention : Reuss Voigt Hill
#
# Bulk Modulus (GPa) = 27.11871 33.89049 30.50460
# Shear Modulus (GPa) = 38.27380 56.58729 47.43055
#
# Velocity S-wave (km/s) = 4.32813 5.26270 4.81813
# Velocity P-wave (km/s) = 6.18465 7.31542 6.77368
#
# Compressibility (1/GPa) = 0.03687492
#
# Stress axis : x y z
#
# Youngs Moduli (GPa) = 55.17092 55.17092 70.02189
#
# Poissons Ratio (x) = -0.36528 0.47088
# Poissons Ratio (y) = -0.36528 0.47088
# Poissons Ratio (z) = 0.37101 0.37101
#
# Static dielectric constant tensor:
#      x y z
#    x 3.823140 0.000000 0.000000 
#    y 0.000000 3.823140 0.000000 
#    z 0.000000 0.000000 3.687290 
# 
# 
# High freq. dielectric constant tensor:
#      x y z
#    x 1.808760 0.000000 0.000000 
#    y 0.000000 1.808760 0.000000 
#    z 0.000000 0.000000 1.794440 
# 
# From -- ./inp_files/5408.got.cif
#   From: 2010.03.12/outbox.cif.g09.slc.cpg/sg135_3_cif.got.tgz:5408.got - 2010.04.06 18:31:24.
