data_PCOD8317212
_publ_section_title
;
Structure prediction by ZEFSAII (Michael W. Deem and Ramdas Pophale) SiO2 
 PCOD8317212
Probable space group: P 42/N N M
;
_chemical_formula_sum "Si O2"
_cell_formula_units_Z 80
_cell_length_a 17.610290
_cell_length_b 17.610290
_cell_length_c 13.105168
_cell_angle_alpha 90.000000
_cell_angle_beta 90.000000
_cell_angle_gamma 90.000000
_cell_volume 4064.205024
_symmetry_space_group_name_H-M "P 42/N N M"
_symmetry_group_IT_number 134
_space_group.IT_coordinate_system_code '2'
_symmetry_cell_setting 'tetragonal'
loop_
_space_group_symop_operation_xyz
x,y,z
1/2-y,x,1/2+z
1/2-x,1/2-y,z
y,1/2-x,1/2+z
x,1/2-y,1/2-z
1/2-x,y,1/2-z
y,x,-z
1/2-y,1/2-x,-z
-x,-y,-z
1/2+y,-x,1/2-z
1/2+x,1/2+y,-z
-y,1/2+x,1/2-z
-x,1/2+y,1/2+z
1/2+x,-y,1/2+z
-y,-x,z
1/2+y,1/2+x,z
loop_
_atom_site_type_symbol
_atom_site_label
_atom_site_fract_x
_atom_site_fract_y
_atom_site_fract_z
Si Si1 0.928519 0.810903 0.332587
Si Si2 0.952252 0.172582 0.182725
Si Si3 0.199333 0.038076 0.007877
Si Si4 0.733165 0.663662 0.366510
Si Si5 0.074915 0.453492 0.325330
O O1 0.895597 0.750000 0.250000
O O2 0.980777 0.769242 0.415991
O O3 0.856219 0.849224 0.387256
O O4 0.976679 0.874032 0.272187
O O5 0.952155 0.250000 0.250000
O O6 0.873535 0.126466 0.200639
O O7 0.025178 0.119740 0.207800
O O8 0.962548 0.190844 0.061873
O O9 0.125180 0.060691 0.073869
O O10 0.216788 0.109899 0.936895
O O11 0.750000 0.750000 0.395784
O O12 0.750000 0.642674 0.250000
O O13 0.023375 0.523375 0.355303
#
# Coordination Sequence:
#
# PCOD8317212 Si02
#       5
#    16  16  16  16  16
#     4  10  20  34  50  80 119 156 188 228 275 338
#     4  11  24  41  62  83 111 154 200 254 302 342
#     4  11  22  34  58  89 118 150 194 233 282 353
#     4  11  21  32  47  81 126 161 184 217 274 339
#     4  10  22  40  58  82 117 156 193 236 292 353
#
# _framework density 19.684045000000001
#
# number of rings (size 3 to 8) (size 9 to 14) (size 15 to 20)
#    0.000    1.400    2.000    4.800    5.600    2.600 
#    0.000    1.000    0.000    4.800    0.000    0.000 
#    0.000   19.600    0.000    0.000    0.000    0.000 
#
# Total GULP energy -991375.347561 kJ/mol
# GULP energy per Si atom -12392.191845 kJ/mol
# Density = 1.963924 g / cm^3
# Si number density = 19.684045 Si / 1000 Ang^3
#
#
#
# Elastic Constant Matrix: (Units=GPa)
#
#
# Indices 1 2 3 4 5 6 
#
# 1 97.0668 48.8912 63.5171 0.0000 0.0000 0.0000
# 2 48.8912 97.0668 63.5171 0.0000 0.0000 0.0000
# 3 63.5171 63.5171 119.6159 0.0000 0.0000 0.0000
# 4 0.0000 0.0000 0.0000 23.2130 0.0000 0.0000
# 5 0.0000 0.0000 0.0000 0.0000 23.2130 0.0000
# 6 0.0000 0.0000 0.0000 0.0000 0.0000 17.7603
#
#
#
# Elastic Compliance Matrix: (Units=1/GPa)
#
#
# Indices 1 2 3 4 5 6 
#
# 1 0.016748 -0.004009 -0.006764 0.000000 0.000000 0.000000
# 2 -0.004009 0.016748 -0.006764 0.000000 0.000000 0.000000
# 3 -0.006764 -0.006764 0.015544 0.000000 0.000000 0.000000
# 4 0.000000 0.000000 0.000000 0.043079 0.000000 0.000000
# 5 0.000000 0.000000 0.000000 0.000000 0.043079 0.000000
# 6 0.000000 0.000000 0.000000 0.000000 0.000000 0.056305
#
#
# Mechanical properties :
#
#
# Convention : Reuss Voigt Hill
#
# Bulk Modulus (GPa) = 71.61340 73.95556 72.78448
# Shear Modulus (GPa) = 21.62307 22.02553 21.82430
#
# Velocity S-wave (km/s) = 3.31797 3.34871 3.33337
# Velocity P-wave (km/s) = 7.15115 7.25291 7.20221
#
# Compressibility (1/GPa) = 0.01396387
#
# Stress axis : x y z
#
# Youngs Moduli (GPa) = 59.70869 59.70869 64.33398
#
# Poissons Ratio (x) = 0.23940 0.43517
# Poissons Ratio (y) = 0.23940 0.43517
# Poissons Ratio (z) = 0.40389 0.40389
#
# Static dielectric constant tensor:
#      x y z
#    x 3.493770 0.000000 0.000000 
#    y 0.000000 3.493770 0.000000 
#    z 0.000000 0.000000 3.883730 
# 
# 
# High freq. dielectric constant tensor:
#      x y z
#    x 1.742360 0.000000 0.000000 
#    y 0.000000 1.742360 0.000000 
#    z 0.000000 0.000000 1.782730 
# 
# From -- ./inp_files/6297.got.cif
#   From: 2010.03.12/outbox.cif.g09.slc.cpg/sg134_4_cif.got.tgz:6297.got - 2010.04.06 18:17:22.
