data_PCOD8317520
_publ_section_title
;
Structure prediction by ZEFSAII (Michael W. Deem and Ramdas Pophale) SiO2 
 PCOD8317520
Probable space group: P 42/M B C
;
_chemical_formula_sum "Si O2"
_cell_formula_units_Z 128
_cell_length_a 17.334156
_cell_length_b 17.334156
_cell_length_c 20.201670
_cell_angle_alpha 90.000000
_cell_angle_beta 90.000000
_cell_angle_gamma 90.000000
_cell_volume 6070.055667
_symmetry_space_group_name_H-M "P 42/M B C"
_symmetry_group_IT_number 135
_symmetry_cell_setting 'tetragonal'
loop_
_space_group_symop_operation_xyz
x,y,z
-y,x,1/2+z
-x,-y,z
y,-x,1/2+z
1/2+x,1/2-y,-z
1/2-x,1/2+y,-z
1/2+y,1/2+x,1/2-z
1/2-y,1/2-x,1/2-z
-x,-y,-z
y,-x,1/2-z
x,y,-z
-y,x,1/2-z
1/2-x,1/2+y,z
1/2+x,1/2-y,z
1/2-y,1/2-x,1/2+z
1/2+y,1/2+x,1/2+z
loop_
_atom_site_type_symbol
_atom_site_label
_atom_site_fract_x
_atom_site_fract_y
_atom_site_fract_z
Si Si1 0.342287 0.345942 0.257812
Si Si2 0.681884 0.488341 0.676246
Si Si3 0.557065 0.429225 0.425899
Si Si4 0.253154 0.769389 0.155782
Si Si5 0.348510 0.178452 0.424546
Si Si6 0.848533 0.624567 0.075534
Si Si7 0.494564 0.264659 0.578572
Si Si8 0.009934 0.677649 0.924378
O O1 0.427693 0.315888 0.237335
O O2 0.343895 0.430175 0.291583
O O3 0.304894 0.281266 0.304043
O O4 0.284865 0.341934 0.194230
O O5 0.621253 0.453711 0.625153
O O6 0.759995 0.497837 0.634459
O O7 0.500000 0.500000 0.430512
O O8 0.590593 0.412837 0.500000
O O9 0.514845 0.351653 0.398236
O O10 0.186988 0.735437 0.108344
O O11 0.326009 0.798247 0.114444
O O12 0.338487 0.201680 0.500000
O O13 0.412175 0.236336 0.392853
O O14 0.371289 0.088499 0.416262
O O15 0.799649 0.554109 0.105439
O O16 0.940678 0.615679 0.084036
O O17 0.824617 0.636737 0.000000
O O18 0.491715 0.261272 0.500000
O O19 0.006056 0.713608 0.000000
#
# Coordination Sequence:
#
# PCOD8317520 Si02
#       8
#    16  16  16  16  16  16  16  16
#     4  11  27  39  63  85 125 168 220 265 314 388
#     4  12  24  44  60  90 122 165 217 267 318 380
#     4  10  23  40  63  94 130 164 205 266 332 392
#     4  11  22  42  58  93 122 169 220 265 317 382
#     4  10  21  38  65  97 131 166 209 267 331 391
#     4  10  20  37  65  96 128 166 212 266 330 390
#     4   9  20  36  59  97 135 167 198 250 332 404
#     4  10  21  39  66  97 127 164 210 273 332 383
#
# _framework density 21.087121
#
# number of rings (size 3 to 8) (size 9 to 14) (size 15 to 20)
#    0.000    1.625    2.500    1.500    3.500    1.500 
#    0.000    2.500    0.000    0.000    0.000    0.000 
#    0.000    0.000    0.000    0.000    0.000    0.000 
#
# Total GULP energy -1585870.793137 kJ/mol
# GULP energy per Si atom -12389.615571 kJ/mol
# Density = 2.103913 g / cm^3
# Si number density = 21.087121 Si / 1000 Ang^3
#
#
#
# Elastic Constant Matrix: (Units=GPa)
#
#
# Indices 1 2 3 4 5 6 
#
# 1 113.0934 40.5641 37.6251 0.0000 0.0000 0.0000
# 2 40.5641 113.0934 37.6251 0.0000 0.0000 0.0000
# 3 37.6251 37.6251 59.7997 0.0000 0.0000 0.0000
# 4 0.0000 0.0000 0.0000 64.2411 0.0000 0.0000
# 5 0.0000 0.0000 0.0000 0.0000 64.2411 0.0000
# 6 0.0000 0.0000 0.0000 0.0000 0.0000 35.9280
#
#
#
# Elastic Compliance Matrix: (Units=1/GPa)
#
#
# Indices 1 2 3 4 5 6 
#
# 1 0.011597 -0.002191 -0.005918 0.000000 0.000000 0.000000
# 2 -0.002191 0.011597 -0.005918 0.000000 0.000000 0.000000
# 3 -0.005918 -0.005918 0.024170 0.000000 0.000000 0.000000
# 4 0.000000 0.000000 0.000000 0.015566 0.000000 0.000000
# 5 0.000000 0.000000 0.000000 0.000000 0.015566 0.000000
# 6 0.000000 0.000000 0.000000 0.000000 0.000000 0.027833
#
#
# Mechanical properties :
#
#
# Convention : Reuss Voigt Hill
#
# Bulk Modulus (GPa) = 51.78850 57.51276 54.65063
# Shear Modulus (GPa) = 35.50609 44.22684 39.86647
#
# Velocity S-wave (km/s) = 4.10784 4.58464 4.35277
# Velocity P-wave (km/s) = 6.86380 7.44032 7.15787
#
# Compressibility (1/GPa) = 0.01930931
#
# Stress axis : x y z
#
# Youngs Moduli (GPa) = 86.22966 86.22966 41.37376
#
# Poissons Ratio (x) = 0.18889 0.24486
# Poissons Ratio (y) = 0.18889 0.24486
# Poissons Ratio (z) = 0.51033 0.51033
#
# Static dielectric constant tensor:
#      x y z
#    x 3.920090 0.000000 0.000000 
#    y 0.000000 3.920090 0.000000 
#    z 0.000000 0.000000 4.003050 
# 
# 
# High freq. dielectric constant tensor:
#      x y z
#    x 1.824360 0.000000 0.000000 
#    y 0.000000 1.824360 0.000000 
#    z 0.000000 0.000000 1.823780 
# 
# From -- ./inp_files/6267.got.cif
#   From: 2010.03.12/outbox.cif.g09.slc.cpg/sg135_4_cif.got.tgz:6267.got - 2010.04.06 18:31:24.
