data_PCOD8317150
_publ_section_title
;
Structure prediction by ZEFSAII (Michael W. Deem and Ramdas Pophale) SiO2 
 PCOD8317150
Probable space group: P 42/N N M
;
_chemical_formula_sum "Si O2"
_cell_formula_units_Z 64
_cell_length_a 13.557111
_cell_length_b 13.557111
_cell_length_c 17.349330
_cell_angle_alpha 90.000000
_cell_angle_beta 90.000000
_cell_angle_gamma 90.000000
_cell_volume 3188.724595
_symmetry_space_group_name_H-M "P 42/N N M"
_symmetry_group_IT_number 134
_space_group.IT_coordinate_system_code '2'
_symmetry_cell_setting 'tetragonal'
loop_
_space_group_symop_operation_xyz
x,y,z
1/2-y,x,1/2+z
1/2-x,1/2-y,z
y,1/2-x,1/2+z
x,1/2-y,1/2-z
1/2-x,y,1/2-z
y,x,-z
1/2-y,1/2-x,-z
-x,-y,-z
1/2+y,-x,1/2-z
1/2+x,1/2+y,-z
-y,1/2+x,1/2-z
-x,1/2+y,1/2+z
1/2+x,-y,1/2+z
-y,-x,z
1/2+y,1/2+x,z
loop_
_atom_site_type_symbol
_atom_site_label
_atom_site_fract_x
_atom_site_fract_y
_atom_site_fract_z
Si Si1 0.532733 0.628652 0.434898
Si Si2 0.503766 0.166757 0.312481
Si Si3 0.861618 0.974336 0.735364
Si Si4 0.590676 0.250286 0.039411
O O1 0.617716 0.617716 0.500000
O O2 0.471866 0.528135 0.432500
O O3 0.577155 0.641214 0.349421
O O4 0.465085 0.720991 0.460781
O O5 0.511967 0.250000 0.250000
O O6 0.597213 0.097213 0.300451
O O7 0.403280 0.103770 0.298404
O O8 0.510020 0.217957 0.396353
O O9 0.750000 0.006116 0.750000
O O10 0.926332 0.073669 0.734987
O O11 0.657399 0.342602 0.016505
O O12 0.658523 0.158523 0.069605
#
# Coordination Sequence:
#
# PCOD8317150 Si02
#       4
#    16  16  16  16
#     4   9  17  32  54  77 102 135 176 219 261 310
#     4  10  19  32  52  79 110 141 173 215 269 324
#     4  10  22  38  56  79 107 142 184 225 265 312
#     4   9  17  29  49  79 109 136 170 214 265 318
#
# _framework density 20.070720999999999
#
# number of rings (size 3 to 8) (size 9 to 14) (size 15 to 20)
#    0.000    2.500    0.000    2.250    0.000    7.000 
#    0.000    3.750    0.000    6.000    0.000    0.000 
#    0.000    0.000    0.000    0.000    0.000    0.000 
#
# Total GULP energy -793055.953827 kJ/mol
# GULP energy per Si atom -12391.499279 kJ/mol
# Density = 2.002504 g / cm^3
# Si number density = 20.070721 Si / 1000 Ang^3
#
#
#
# Elastic Constant Matrix: (Units=GPa)
#
#
# Indices 1 2 3 4 5 6 
#
# 1 60.7758 14.9321 26.0058 0.0000 0.0000 0.0000
# 2 14.9321 60.7758 26.0058 0.0000 0.0000 0.0000
# 3 26.0058 26.0058 72.0508 0.0000 0.0000 0.0000
# 4 0.0000 0.0000 0.0000 20.3498 0.0000 0.0000
# 5 0.0000 0.0000 0.0000 0.0000 20.3498 0.0000
# 6 0.0000 0.0000 0.0000 0.0000 0.0000 8.9114
#
#
#
# Elastic Compliance Matrix: (Units=1/GPa)
#
#
# Indices 1 2 3 4 5 6 
#
# 1 0.019689 -0.002125 -0.006339 0.000000 0.000000 0.000000
# 2 -0.002125 0.019689 -0.006339 0.000000 0.000000 0.000000
# 3 -0.006339 -0.006339 0.018455 0.000000 0.000000 0.000000
# 4 0.000000 0.000000 0.000000 0.049140 0.000000 0.000000
# 5 0.000000 0.000000 0.000000 0.000000 0.049140 0.000000
# 6 0.000000 0.000000 0.000000 0.000000 0.000000 0.112216
#
#
# Mechanical properties :
#
#
# Convention : Reuss Voigt Hill
#
# Bulk Modulus (GPa) = 35.42917 36.38776 35.90846
# Shear Modulus (GPa) = 16.26833 18.36611 17.31722
#
# Velocity S-wave (km/s) = 2.85011 3.02829 2.94055
# Velocity P-wave (km/s) = 5.34053 5.51331 5.42761
#
# Compressibility (1/GPa) = 0.02822533
#
# Stress axis : x y z
#
# Youngs Moduli (GPa) = 50.79084 50.79084 54.18466
#
# Poissons Ratio (x) = 0.10791 0.34350
# Poissons Ratio (y) = 0.10791 0.34350
# Poissons Ratio (z) = 0.32199 0.32199
#
# Static dielectric constant tensor:
#      x y z
#    x 3.570810 0.000000 0.000000 
#    y 0.000000 3.570810 0.000000 
#    z 0.000000 0.000000 4.008110 
# 
# 
# High freq. dielectric constant tensor:
#      x y z
#    x 1.766920 0.000000 0.000000 
#    y 0.000000 1.766920 0.000000 
#    z 0.000000 0.000000 1.780080 
# 
# From -- ./inp_files/6103.got.cif
#   From: 2010.03.12/outbox.cif.g09.slc.cpg/sg134_4_cif.got.tgz:6103.got - 2010.04.06 18:17:22.
