data_PCOD8317767
_publ_section_title
;
Structure prediction by ZEFSAII (Michael W. Deem and Ramdas Pophale) SiO2 
 PCOD8317767
Probable space group: P 42/M N M
;
_chemical_formula_sum "Si O2"
_cell_formula_units_Z 112
_cell_length_a 14.854466
_cell_length_b 14.854466
_cell_length_c 28.019953
_cell_angle_alpha 90.000000
_cell_angle_beta 90.000000
_cell_angle_gamma 90.000000
_cell_volume 6182.747216
_symmetry_space_group_name_H-M "P 42/M N M"
_symmetry_group_IT_number 136
_symmetry_cell_setting 'tetragonal'
loop_
_space_group_symop_operation_xyz
x,y,z
1/2-y,1/2+x,1/2+z
-x,-y,z
1/2+y,1/2-x,1/2+z
1/2+x,1/2-y,1/2-z
1/2-x,1/2+y,1/2-z
y,x,-z
-y,-x,-z
-x,-y,-z
1/2+y,1/2-x,1/2-z
x,y,-z
1/2-y,1/2+x,1/2-z
1/2-x,1/2+y,1/2+z
1/2+x,1/2-y,1/2+z
-y,-x,z
y,x,z
loop_
_atom_site_type_symbol
_atom_site_label
_atom_site_fract_x
_atom_site_fract_y
_atom_site_fract_z
Si Si1 0.646561 0.496124 0.774437
Si Si2 0.250133 0.397080 0.299660
Si Si3 0.453917 0.304064 0.120682
Si Si4 0.391092 0.753802 0.946006
Si Si5 0.903183 0.604169 0.762642
Si Si6 0.879487 0.575276 0.384766
Si Si7 0.421960 0.110757 0.132909
O O1 0.604158 0.395843 0.770293
O O2 0.568042 0.568042 0.772522
O O3 0.713541 0.515005 0.729883
O O4 0.696330 0.508029 0.825341
O O5 0.330985 0.330985 0.310945
O O6 0.175126 0.345079 0.267222
O O7 0.206476 0.421887 0.350169
O O8 0.388368 0.388368 0.110120
O O9 0.537458 0.304465 0.084406
O O10 0.400762 0.209645 0.111818
O O11 0.296086 0.703915 0.943020
O O12 0.372068 0.855620 0.928525
O O13 0.427365 0.759041 0.000000
O O14 0.875864 0.499502 0.758765
O O15 0.901698 0.632236 0.817797
O O16 0.888763 0.470347 0.402193
O O17 0.970896 0.600892 0.356439
#
# Coordination Sequence:
#
# PCOD8317767 Si02
#       7
#    16  16  16  16  16  16  16
#     4   9  18  31  45  66 102 144 178 208 249 311
#     4  11  20  29  47  74 103 137 181 223 265 316
#     4  10  20  34  54  78 109 147 183 219 267 329
#     4  10  22  39  59  82 107 138 182 233 280 330
#     4  11  17  29  46  66  96 136 175 216 259 306
#     4  10  19  35  52  75 101 136 175 227 278 318
#     4  10  18  31  52  72 102 137 173 218 263 316
#
# _framework density 18.114924999999999
#
# number of rings (size 3 to 8) (size 9 to 14) (size 15 to 20)
#    0.000    1.857    4.286    1.714    0.000    1.143 
#    0.000    9.286    0.000    0.000    0.000    0.000 
#    0.000    1.714    0.000   10.143    0.000    0.000 
#
# Total GULP energy -1387643.713684 kJ/mol
# GULP energy per Si atom -12389.676015 kJ/mol
# Density = 1.807369 g / cm^3
# Si number density = 18.114925 Si / 1000 Ang^3
#
#
#
# Elastic Constant Matrix: (Units=GPa)
#
#
# Indices 1 2 3 4 5 6 
#
# 1 85.8281 30.5586 34.0323 0.0000 0.0000 0.0000
# 2 30.5586 85.8281 34.0323 0.0000 0.0000 0.0000
# 3 34.0323 34.0323 82.0902 0.0000 0.0000 0.0000
# 4 0.0000 0.0000 0.0000 19.9229 0.0000 0.0000
# 5 0.0000 0.0000 0.0000 0.0000 19.9229 0.0000
# 6 0.0000 0.0000 0.0000 0.0000 0.0000 14.0712
#
#
#
# Elastic Compliance Matrix: (Units=1/GPa)
#
#
# Indices 1 2 3 4 5 6 
#
# 1 0.014717 -0.003376 -0.004702 0.000000 0.000000 0.000000
# 2 -0.003376 0.014717 -0.004702 0.000000 0.000000 0.000000
# 3 -0.004702 -0.004702 0.016080 0.000000 0.000000 0.000000
# 4 0.000000 0.000000 0.000000 0.050194 0.000000 0.000000
# 5 0.000000 0.000000 0.000000 0.000000 0.050194 0.000000
# 6 0.000000 0.000000 0.000000 0.000000 0.000000 0.071067
#
#
# Mechanical properties :
#
#
# Convention : Reuss Voigt Hill
#
# Bulk Modulus (GPa) = 50.11020 50.11031 50.11026
# Shear Modulus (GPa) = 20.06574 21.12494 20.59534
#
# Velocity S-wave (km/s) = 3.33181 3.41862 3.37549
# Velocity P-wave (km/s) = 6.52102 6.58066 6.55091
#
# Compressibility (1/GPa) = 0.01995602
#
# Stress axis : x y z
#
# Youngs Moduli (GPa) = 67.94632 67.94632 62.18763
#
# Poissons Ratio (x) = 0.22936 0.29241
# Poissons Ratio (y) = 0.22936 0.29241
# Poissons Ratio (z) = 0.31948 0.31948
#
# Static dielectric constant tensor:
#      x y z
#    x 3.484200 0.000000 0.000000 
#    y 0.000000 3.484200 0.000000 
#    z 0.000000 0.000000 3.073430 
# 
# 
# High freq. dielectric constant tensor:
#      x y z
#    x 1.697470 0.000000 0.000000 
#    y 0.000000 1.697470 0.000000 
#    z 0.000000 0.000000 1.663710 
# 
# From -- ./inp_files/9975.got.cif
#   From: 2010.03.12/outbox.cif.g09.slc.cpg/sg136_5_cif.got.tgz:9975.got - 2010.04.06 18:39:43.
