data_PCOD8317775
_publ_section_title
;
Structure prediction by ZEFSAII (Michael W. Deem and Ramdas Pophale) SiO2 
 PCOD8317775
Probable space group: P 42/M N M
;
_chemical_formula_sum "Si O2"
_cell_formula_units_Z 80
_cell_length_a 12.969410
_cell_length_b 12.969410
_cell_length_c 27.367534
_cell_angle_alpha 90.000000
_cell_angle_beta 90.000000
_cell_angle_gamma 90.000000
_cell_volume 4603.372361
_symmetry_space_group_name_H-M "P 42/M N M"
_symmetry_group_IT_number 136
_symmetry_cell_setting 'tetragonal'
loop_
_space_group_symop_operation_xyz
x,y,z
1/2-y,1/2+x,1/2+z
-x,-y,z
1/2+y,1/2-x,1/2+z
1/2+x,1/2-y,1/2-z
1/2-x,1/2+y,1/2-z
y,x,-z
-y,-x,-z
-x,-y,-z
1/2+y,1/2-x,1/2-z
x,y,-z
1/2-y,1/2+x,1/2-z
1/2-x,1/2+y,1/2+z
1/2+x,1/2-y,1/2+z
-y,-x,z
y,x,z
loop_
_atom_site_type_symbol
_atom_site_label
_atom_site_fract_x
_atom_site_fract_y
_atom_site_fract_z
Si Si1 0.543765 0.109405 0.862768
Si Si2 0.806612 0.633453 0.555294
Si Si3 0.514194 0.788504 0.296914
Si Si4 0.336569 0.504936 0.391156
Si Si5 0.208693 0.377088 0.800434
O O1 0.598778 0.162259 0.909315
O O2 0.455587 0.188990 0.845333
O O3 0.500000 0.000000 0.880846
O O4 0.621576 0.087772 0.818047
O O5 0.846032 0.621299 0.500000
O O6 0.722968 0.722968 0.560081
O O7 0.758596 0.523586 0.573252
O O8 0.507436 0.694954 0.334829
O O9 0.563424 0.747011 0.246789
O O10 0.400249 0.828621 0.285446
O O11 0.378396 0.621605 0.400740
O O12 0.428044 0.428044 0.403155
O O13 0.290358 0.290358 0.817293
#
# Coordination Sequence:
#
# PCOD8317775 Si02
#       5
#    16  16  16  16  16
#     4   9  19  33  52  73 103 132 169 217 252 302
#     4   9  18  33  53  75  98 131 174 214 260 313
#     4  10  18  32  48  71 102 137 174 206 250 309
#     4   9  17  29  45  70 104 134 164 207 259 312
#     4  11  20  31  51  74 101 138 175 214 256 302
#
# _framework density 17.378563
#
# number of rings (size 3 to 8) (size 9 to 14) (size 15 to 20)
#    0.000    2.400    2.000    1.200    0.000    1.600 
#    0.000    2.000    0.000    3.600    0.000    1.400 
#    0.000    0.000    0.000    0.000    0.000    0.000 
#
# Total GULP energy -991701.986650 kJ/mol
# GULP energy per Si atom -12396.274833 kJ/mol
# Density = 1.733901 g / cm^3
# Si number density = 17.378563 Si / 1000 Ang^3
#
#
#
# Elastic Constant Matrix: (Units=GPa)
#
#
# Indices 1 2 3 4 5 6 
#
# 1 63.9248 31.5147 46.7433 0.0000 0.0000 0.0000
# 2 31.5147 63.9248 46.7433 0.0000 0.0000 0.0000
# 3 46.7433 46.7433 115.8154 0.0000 0.0000 0.0000
# 4 0.0000 0.0000 0.0000 20.6023 0.0000 0.0000
# 5 0.0000 0.0000 0.0000 0.0000 20.6023 0.0000
# 6 0.0000 0.0000 0.0000 0.0000 0.0000 26.4760
#
#
#
# Elastic Compliance Matrix: (Units=1/GPa)
#
#
# Indices 1 2 3 4 5 6 
#
# 1 0.024092 -0.006763 -0.006994 0.000000 0.000000 0.000000
# 2 -0.006763 0.024092 -0.006994 0.000000 0.000000 0.000000
# 3 -0.006994 -0.006994 0.014280 0.000000 0.000000 0.000000
# 4 0.000000 0.000000 0.000000 0.048538 0.000000 0.000000
# 5 0.000000 0.000000 0.000000 0.000000 0.048538 0.000000
# 6 0.000000 0.000000 0.000000 0.000000 0.000000 0.037770
#
#
# Mechanical properties :
#
#
# Convention : Reuss Voigt Hill
#
# Bulk Modulus (GPa) = 47.70614 54.85197 51.27906
# Shear Modulus (GPa) = 20.34188 21.44702 20.89445
#
# Velocity S-wave (km/s) = 3.42499 3.51680 3.47120
# Velocity P-wave (km/s) = 6.56898 6.93700 6.75550
#
# Compressibility (1/GPa) = 0.02096166
#
# Stress axis : x y z
#
# Youngs Moduli (GPa) = 41.50824 41.50824 70.02850
#
# Poissons Ratio (x) = 0.28072 0.48977
# Poissons Ratio (y) = 0.28072 0.48977
# Poissons Ratio (z) = 0.29030 0.29030
#
# Static dielectric constant tensor:
#      x y z
#    x 3.224520 0.000000 0.000000 
#    y 0.000000 3.224520 0.000000 
#    z 0.000000 0.000000 3.136810 
# 
# 
# High freq. dielectric constant tensor:
#      x y z
#    x 1.655890 0.000000 0.000000 
#    y 0.000000 1.655890 0.000000 
#    z 0.000000 0.000000 1.660270 
# 
# From -- ./inp_files/8252.got.cif
#   From: 2010.03.12/outbox.cif.g09.slc.cpg/sg136_5_cif.got.tgz:8252.got - 2010.04.06 18:39:43.
