data_PCOD8317915
_publ_section_title
;
Structure prediction by ZEFSAII (Michael W. Deem and Ramdas Pophale) SiO2 
 PCOD8317915
Probable space group: P 42/M N M
;
_chemical_formula_sum "Si O2"
_cell_formula_units_Z 72
_cell_length_a 19.909919
_cell_length_b 19.909919
_cell_length_c 9.922677
_cell_angle_alpha 90.000000
_cell_angle_beta 90.000000
_cell_angle_gamma 90.000000
_cell_volume 3933.397532
_symmetry_space_group_name_H-M "P 42/M N M"
_symmetry_group_IT_number 136
_symmetry_cell_setting 'tetragonal'
loop_
_space_group_symop_operation_xyz
x,y,z
1/2-y,1/2+x,1/2+z
-x,-y,z
1/2+y,1/2-x,1/2+z
1/2+x,1/2-y,1/2-z
1/2-x,1/2+y,1/2-z
y,x,-z
-y,-x,-z
-x,-y,-z
1/2+y,1/2-x,1/2-z
x,y,-z
1/2-y,1/2+x,1/2-z
1/2-x,1/2+y,1/2+z
1/2+x,1/2-y,1/2+z
-y,-x,z
y,x,z
loop_
_atom_site_type_symbol
_atom_site_label
_atom_site_fract_x
_atom_site_fract_y
_atom_site_fract_z
Si Si1 0.126630 0.367899 0.500000
Si Si2 0.999256 0.889053 0.000000
Si Si3 0.663659 0.138228 0.500000
Si Si4 0.505774 0.230005 0.000000
Si Si5 0.330119 0.012340 0.000000
Si Si6 0.835166 0.273078 0.769810
Si Si7 0.277993 0.480810 0.716213
O O1 0.055581 0.332526 0.500000
O O2 0.118150 0.449237 0.500000
O O3 0.166477 0.343140 0.371277
O O4 0.999514 0.845306 0.136691
O O5 0.064141 0.935860 0.000000
O O6 0.931031 0.931031 0.000000
O O7 0.582911 0.131395 0.500000
O O8 0.691924 0.178577 0.372902
O O9 0.692979 0.064490 0.500000
O O10 0.513435 0.276539 0.866350
O O11 0.285601 0.008295 0.134338
O O12 0.771565 0.228436 0.810521
O O13 0.900351 0.225234 0.771245
#
# Coordination Sequence:
#
# PCOD8317915 Si02
#       7
#     8   8   8   8   8  16  16
#     4  10  20  33  52  74 103 141 176 212 253 309
#     4  10  20  37  60  81 100 132 178 214 252 320
#     4  10  20  33  52  76 105 135 170 218 261 307
#     4  10  20  35  52  77 110 140 170 210 266 314
#     4   9  18  34  52  74 104 141 182 216 250 301
#     4  10  19  33  53  76  99 130 174 217 259 304
#     4   9  19  35  55  76 105 136 168 218 266 302
#
# _framework density 18.304787000000001
#
# number of rings (size 3 to 8) (size 9 to 14) (size 15 to 20)
#    0.000    2.333    0.000    3.333    0.000    0.444 
#    0.000   13.333    0.000    9.333    0.000    0.000 
#    0.000    0.000    0.000    0.000    0.000    0.000 
#
# Total GULP energy -892660.865885 kJ/mol
# GULP energy per Si atom -12398.067582 kJ/mol
# Density = 1.826312 g / cm^3
# Si number density = 18.304787 Si / 1000 Ang^3
#
#
#
# Elastic Constant Matrix: (Units=GPa)
#
#
# Indices 1 2 3 4 5 6 
#
# 1 71.5711 31.2931 25.2274 0.0000 0.0000 0.0000
# 2 31.2931 71.5709 25.2270 0.0000 0.0000 0.0000
# 3 25.2274 25.2270 136.7684 0.0000 0.0000 0.0000
# 4 0.0000 0.0000 0.0000 25.4327 0.0000 0.0000
# 5 0.0000 0.0000 0.0000 0.0000 25.4324 0.0000
# 6 0.0000 0.0000 0.0000 0.0000 0.0000 25.8469
#
#
#
# Elastic Compliance Matrix: (Units=1/GPa)
#
#
# Indices 1 2 3 4 5 6 
#
# 1 0.017758 -0.007069 -0.001972 0.000000 0.000000 0.000000
# 2 -0.007069 0.017758 -0.001971 0.000000 0.000000 0.000000
# 3 -0.001972 -0.001971 0.008039 0.000000 0.000000 0.000000
# 4 0.000000 0.000000 0.000000 0.039320 0.000000 0.000000
# 5 0.000000 0.000000 0.000000 0.000000 0.039320 0.000000
# 6 0.000000 0.000000 0.000000 0.000000 0.000000 0.038689
#
#
# Mechanical properties :
#
#
# Convention : Reuss Voigt Hill
#
# Bulk Modulus (GPa) = 46.44683 49.26727 47.85705
# Shear Modulus (GPa) = 26.30394 28.55324 27.42859
#
# Velocity S-wave (km/s) = 3.79489 3.95381 3.87517
# Velocity P-wave (km/s) = 6.68063 6.91498 6.79881
#
# Compressibility (1/GPa) = 0.02152999
#
# Stress axis : x y z
#
# Youngs Moduli (GPa) = 56.31250 56.31244 124.39459
#
# Poissons Ratio (x) = 0.39810 0.24525
# Poissons Ratio (y) = 0.39810 0.24524
# Poissons Ratio (z) = 0.11102 0.11102
#
# Static dielectric constant tensor:
#      x y z
#    x 3.200800 0.000000 0.000000 
#    y 0.000000 3.200800 0.000000 
#    z 0.000000 0.000000 3.799670 
# 
# 
# High freq. dielectric constant tensor:
#      x y z
#    x 1.695560 0.000000 0.000000 
#    y 0.000000 1.695560 0.000000 
#    z 0.000000 0.000000 1.729020 
# 
# From -- ./inp_files/1688.got.cif
#   From: 2010.03.12/outbox.cif.g09.slc.cpg/sg136_1_cif.got.tgz:1688.got - 2010.04.06 18:39:43.
