data_PCOD8317490
_publ_section_title
;
Structure prediction by ZEFSAII (Michael W. Deem and Ramdas Pophale) SiO2 
 PCOD8317490
Probable space group: P 42/M B C
;
_chemical_formula_sum "Si O2"
_cell_formula_units_Z 96
_cell_length_a 23.813743
_cell_length_b 23.813743
_cell_length_c 8.680707
_cell_angle_alpha 90.000000
_cell_angle_beta 90.000000
_cell_angle_gamma 90.000000
_cell_volume 4922.779943
_symmetry_space_group_name_H-M "P 42/M B C"
_symmetry_group_IT_number 135
_symmetry_cell_setting 'tetragonal'
loop_
_space_group_symop_operation_xyz
x,y,z
-y,x,1/2+z
-x,-y,z
y,-x,1/2+z
1/2+x,1/2-y,-z
1/2-x,1/2+y,-z
1/2+y,1/2+x,1/2-z
1/2-y,1/2-x,1/2-z
-x,-y,-z
y,-x,1/2-z
x,y,-z
-y,x,1/2-z
1/2-x,1/2+y,z
1/2+x,1/2-y,z
1/2-y,1/2-x,1/2+z
1/2+y,1/2+x,1/2+z
loop_
_atom_site_type_symbol
_atom_site_label
_atom_site_fract_x
_atom_site_fract_y
_atom_site_fract_z
Si Si1 0.362760 0.217964 0.180817
Si Si2 0.528418 0.420016 0.182381
Si Si3 0.308092 0.726196 0.681839
Si Si4 0.804020 0.068019 0.180742
Si Si5 0.510519 0.786680 0.819565
Si Si6 0.000018 0.583857 0.180819
O O1 0.340384 0.159617 0.250000
O O2 0.325257 0.269692 0.241763
O O3 0.426374 0.228337 0.231235
O O4 0.358706 0.211769 0.000000
O O5 0.465145 0.429538 0.242247
O O6 0.548022 0.358092 0.225908
O O7 0.529298 0.427658 0.000000
O O8 0.284810 0.784810 0.750000
O O9 0.306679 0.731417 0.500000
O O10 0.370572 0.713884 0.740678
O O11 0.751824 0.028251 0.215049
O O12 0.818120 0.067949 0.000000
O O13 0.497769 0.850863 0.777451
O O14 0.500369 0.774508 0.000000
O O15 0.056106 0.556106 0.250000
O O16 0.944429 0.555572 0.250000
O O17 0.001317 0.573738 0.000000
#
# Coordination Sequence:
#
# PCOD8317490 Si02
#       6
#    16  16  16  16  16  16
#     4   9  18  35  58  83 109 143 183 232 291 337
#     4  11  23  42  66  92 122 157 199 247 299 357
#     4   9  20  38  59  82 112 149 191 237 287 344
#     4  11  24  39  58  89 121 158 201 244 296 351
#     4  10  22  37  55  82 114 152 191 236 292 349
#     4  10  20  35  56  82 112 150 197 241 299 358
#
# _framework density 19.501176999999998
#
# number of rings (size 3 to 8) (size 9 to 14) (size 15 to 20)
#    0.000    2.000    0.000    4.000    2.333    4.000 
#    0.000    3.333    0.000    0.000    0.000    0.000 
#    0.000    0.000    0.000    0.000    0.000    0.000 
#
# Total GULP energy -1190688.296477 kJ/mol
# GULP energy per Si atom -12403.003088 kJ/mol
# Density = 1.945679 g / cm^3
# Si number density = 19.501177 Si / 1000 Ang^3
#
#
#
# Elastic Constant Matrix: (Units=GPa)
#
#
# Indices 1 2 3 4 5 6 
#
# 1 131.8066 68.1627 34.8803 0.0000 0.0000 0.0000
# 2 68.1627 131.8057 34.8792 0.0000 0.0000 0.0000
# 3 34.8803 34.8792 65.8126 0.0000 0.0000 0.0000
# 4 0.0000 0.0000 0.0000 30.4850 0.0000 0.0000
# 5 0.0000 0.0000 0.0000 0.0000 30.4848 0.0000
# 6 0.0000 0.0000 0.0000 0.0000 0.0000 27.4904
#
#
#
# Elastic Compliance Matrix: (Units=1/GPa)
#
#
# Indices 1 2 3 4 5 6 
#
# 1 0.010924 -0.004789 -0.003252 0.000000 0.000000 0.000000
# 2 -0.004789 0.010924 -0.003251 0.000000 0.000000 0.000000
# 3 -0.003252 -0.003251 0.018641 0.000000 0.000000 0.000000
# 4 0.000000 0.000000 0.000000 0.032803 0.000000 0.000000
# 5 0.000000 0.000000 0.000000 0.000000 0.032803 0.000000
# 6 0.000000 0.000000 0.000000 0.000000 0.000000 0.036376
#
#
# Mechanical properties :
#
#
# Convention : Reuss Voigt Hill
#
# Bulk Modulus (GPa) = 55.84941 67.25215 61.55078
# Shear Modulus (GPa) = 29.23577 30.45887 29.84732
#
# Velocity S-wave (km/s) = 3.87613 3.95637 3.91646
# Velocity P-wave (km/s) = 6.98095 7.44524 7.21683
#
# Compressibility (1/GPa) = 0.01790529
#
# Stress axis : x y z
#
# Youngs Moduli (GPa) = 91.54300 91.54325 53.64473
#
# Poissons Ratio (x) = 0.43838 0.17443
# Poissons Ratio (y) = 0.43838 0.17442
# Poissons Ratio (z) = 0.29767 0.29764
#
# Static dielectric constant tensor:
#      x y z
#    x 3.749740 0.000000 0.000000 
#    y 0.000000 3.749770 0.000000 
#    z 0.000000 0.000000 3.464560 
# 
# 
# High freq. dielectric constant tensor:
#      x y z
#    x 1.765590 0.000000 0.000000 
#    y 0.000000 1.765590 0.000000 
#    z 0.000000 0.000000 1.759640 
# 
# From -- ./inp_files/1254.got.cif
#   From: 2010.03.12/outbox.cif.g09.slc.cpg/sg135_1_cif.got.tgz:1254.got - 2010.04.06 18:31:24.
