data_PCOD8317307
_publ_section_title
;
Structure prediction by ZEFSAII (Michael W. Deem and Ramdas Pophale) SiO2 
 PCOD8317307
Probable space group: P 42/N N M
;
_chemical_formula_sum "Si O2"
_cell_formula_units_Z 80
_cell_length_a 11.527644
_cell_length_b 11.527644
_cell_length_c 28.258028
_cell_angle_alpha 90.000000
_cell_angle_beta 90.000000
_cell_angle_gamma 90.000000
_cell_volume 3755.112591
_symmetry_space_group_name_H-M "P 42/N N M"
_symmetry_group_IT_number 134
_space_group.IT_coordinate_system_code '2'
_symmetry_cell_setting 'tetragonal'
loop_
_space_group_symop_operation_xyz
x,y,z
1/2-y,x,1/2+z
1/2-x,1/2-y,z
y,1/2-x,1/2+z
x,1/2-y,1/2-z
1/2-x,y,1/2-z
y,x,-z
1/2-y,1/2-x,-z
-x,-y,-z
1/2+y,-x,1/2-z
1/2+x,1/2+y,-z
-y,1/2+x,1/2-z
-x,1/2+y,1/2+z
1/2+x,-y,1/2+z
-y,-x,z
1/2+y,1/2+x,z
loop_
_atom_site_type_symbol
_atom_site_label
_atom_site_fract_x
_atom_site_fract_y
_atom_site_fract_z
Si Si1 0.599322 0.588117 0.551988
Si Si2 0.196598 0.516806 0.602562
Si Si3 0.487203 0.327265 0.892280
Si Si4 0.805107 0.011227 0.299870
Si Si5 0.114133 0.275278 0.802876
O O1 0.635611 0.635611 0.500000
O O2 0.527095 0.472905 0.545380
O O3 0.518421 0.682447 0.578539
O O4 0.712639 0.543999 0.578933
O O5 0.142561 0.642561 0.586328
O O6 0.103866 0.420388 0.588954
O O7 0.209178 0.521859 0.659407
O O8 0.617593 0.382408 0.898943
O O9 0.468101 0.299380 0.836935
O O10 0.750000 0.972244 0.250000
O O11 0.865370 0.134631 0.293820
O O12 0.899352 0.912574 0.313635
O O13 0.250000 0.250000 0.812285
O O14 0.073053 0.250000 0.750000
#
# Coordination Sequence:
#
# PCOD8317307 Si02
#       5
#    16  16  16  16  16
#     4  11  25  45  68  94 127 168 214 269 330 390
#     4  11  23  40  64  95 129 165 210 266 327 386
#     4  11  23  41  67  96 129 169 218 271 322 392
#     4  12  23  36  59  92 129 169 212 262 325 391
#     4  11  19  37  62  88 127 173 222 265 320 389
#
# _framework density 21.304289000000001
#
# number of rings (size 3 to 8) (size 9 to 14) (size 15 to 20)
#    0.000    0.800    6.000    1.800    0.000    7.800 
#    0.000    4.000    0.000    0.000    0.000    1.400 
#    0.000    0.000    0.000    0.000    0.000    0.000 
#
# Total GULP energy -991406.212503 kJ/mol
# GULP energy per Si atom -12392.577656 kJ/mol
# Density = 2.125580 g / cm^3
# Si number density = 21.304289 Si / 1000 Ang^3
#
#
#
# Elastic Constant Matrix: (Units=GPa)
#
#
# Indices 1 2 3 4 5 6 
#
# 1 84.5553 70.6906 41.5395 0.0000 0.0000 0.0000
# 2 70.6906 84.5553 41.5395 0.0000 0.0000 0.0000
# 3 41.5395 41.5395 124.5857 0.0000 0.0000 0.0000
# 4 0.0000 0.0000 0.0000 18.1969 0.0000 0.0000
# 5 0.0000 0.0000 0.0000 0.0000 18.1969 0.0000
# 6 0.0000 0.0000 0.0000 0.0000 0.0000 41.3988
#
#
#
# Elastic Compliance Matrix: (Units=1/GPa)
#
#
# Indices 1 2 3 4 5 6 
#
# 1 0.039983 -0.032143 -0.002614 0.000000 0.000000 0.000000
# 2 -0.032143 0.039983 -0.002614 0.000000 0.000000 0.000000
# 3 -0.002614 -0.002614 0.009770 0.000000 0.000000 0.000000
# 4 0.000000 0.000000 0.000000 0.054955 0.000000 0.000000
# 5 0.000000 0.000000 0.000000 0.000000 0.054955 0.000000
# 6 0.000000 0.000000 0.000000 0.000000 0.000000 0.024155
#
#
# Mechanical properties :
#
#
# Convention : Reuss Voigt Hill
#
# Bulk Modulus (GPa) = 66.69356 66.80396 66.74876
# Shear Modulus (GPa) = 16.47226 24.88694 20.67960
#
# Velocity S-wave (km/s) = 2.78365 3.42155 3.11895
# Velocity P-wave (km/s) = 6.45792 6.85817 6.66105
#
# Compressibility (1/GPa) = 0.01499395
#
# Stress axis : x y z
#
# Youngs Moduli (GPa) = 25.01055 25.01055 102.35607
#
# Poissons Ratio (x) = 0.80391 0.26757
# Poissons Ratio (y) = 0.80391 0.26757
# Poissons Ratio (z) = 0.06538 0.06538
#
# Static dielectric constant tensor:
#      x y z
#    x 3.928150 0.000000 0.000000 
#    y 0.000000 3.928150 0.000000 
#    z 0.000000 0.000000 3.979290 
# 
# 
# High freq. dielectric constant tensor:
#      x y z
#    x 1.831380 0.000000 0.000000 
#    y 0.000000 1.831380 0.000000 
#    z 0.000000 0.000000 1.833310 
# 
# From -- ./inp_files/11313.got.cif
#   From: 2010.03.12/outbox.cif.g09.slc.cpg/sg134_6_cif.got.tgz:11313.got - 2010.04.06 18:17:22.
