data_PCOD8317753
_publ_section_title
;
Structure prediction by ZEFSAII (Michael W. Deem and Ramdas Pophale) SiO2 
 PCOD8317753
Probable space group: P 42/M N M
;
_chemical_formula_sum "Si O2"
_cell_formula_units_Z 128
_cell_length_a 17.498023
_cell_length_b 17.498023
_cell_length_c 24.578898
_cell_angle_alpha 90.000000
_cell_angle_beta 90.000000
_cell_angle_gamma 90.000000
_cell_volume 7525.586872
_symmetry_space_group_name_H-M "P 42/M N M"
_symmetry_group_IT_number 136
_symmetry_cell_setting 'tetragonal'
loop_
_space_group_symop_operation_xyz
x,y,z
1/2-y,1/2+x,1/2+z
-x,-y,z
1/2+y,1/2-x,1/2+z
1/2+x,1/2-y,1/2-z
1/2-x,1/2+y,1/2-z
y,x,-z
-y,-x,-z
-x,-y,-z
1/2+y,1/2-x,1/2-z
x,y,-z
1/2-y,1/2+x,1/2-z
1/2-x,1/2+y,1/2+z
1/2+x,1/2-y,1/2+z
-y,-x,z
y,x,z
loop_
_atom_site_type_symbol
_atom_site_label
_atom_site_fract_x
_atom_site_fract_y
_atom_site_fract_z
Si Si1 0.560148 0.226897 0.107204
Si Si2 0.333055 0.205943 0.559368
Si Si3 0.371520 0.888265 0.248233
Si Si4 0.896741 0.775336 0.725310
Si Si5 0.879136 0.999460 0.209707
Si Si6 0.499105 0.378279 0.935700
Si Si7 0.109941 0.764583 0.833025
Si Si8 0.996675 0.585165 0.662670
O O1 0.627734 0.215261 0.063998
O O2 0.599518 0.250545 0.163238
O O3 0.501837 0.293002 0.088576
O O4 0.517355 0.145748 0.114341
O O5 0.375149 0.204540 0.500000
O O6 0.276435 0.276435 0.560116
O O7 0.391370 0.215572 0.610543
O O8 0.394940 0.800956 0.261626
O O9 0.287680 0.895163 0.220997
O O10 0.428599 0.925092 0.205223
O O11 0.379865 0.930488 0.305656
O O12 0.817814 0.817814 0.736093
O O13 0.968372 0.828888 0.740241
O O14 0.935535 0.064466 0.233583
O O15 0.822509 0.037229 0.165206
O O16 0.930053 0.930053 0.183747
O O17 0.573738 0.426263 0.916622
O O18 0.422506 0.422506 0.915565
O O19 0.497795 0.372625 0.000000
O O20 0.188730 0.811271 0.828462
O O21 0.000000 0.500000 0.636795
#
# Coordination Sequence:
#
# PCOD8317753 Si02
#       8
#    16  16  16  16  16  16  16  16
#     4  11  20  30  49  71 100 133 166 204 252 296
#     4  10  19  30  48  75 101 125 158 201 252 302
#     4  11  18  31  49  68  96 131 163 198 245 292
#     4  10  19  29  46  71 101 130 162 197 235 290
#     4   9  19  33  48  69  99 134 164 194 241 301
#     4   9  18  33  53  76 102 133 167 201 242 300
#     4  10  18  30  49  73  98 126 161 202 243 295
#     4  11  21  32  47  69  93 129 168 207 247 294
#
# _framework density 17.008638999999999
#
# number of rings (size 3 to 8) (size 9 to 14) (size 15 to 20)
#    0.000    1.875    3.750    3.750    0.000    1.500 
#    0.000    2.500    0.000    1.875    0.000    2.625 
#    0.000    0.000    0.000    0.000    0.000    0.000 
#
# Total GULP energy -1586257.527635 kJ/mol
# GULP energy per Si atom -12392.636935 kJ/mol
# Density = 1.696993 g / cm^3
# Si number density = 17.008639 Si / 1000 Ang^3
#
#
#
# Elastic Constant Matrix: (Units=GPa)
#
#
# Indices 1 2 3 4 5 6 
#
# 1 90.7167 31.2269 25.1611 0.0000 0.0000 0.0000
# 2 31.2269 90.7167 25.1611 0.0000 0.0000 0.0000
# 3 25.1611 25.1611 54.1488 0.0000 0.0000 0.0000
# 4 0.0000 0.0000 0.0000 18.2274 0.0000 0.0000
# 5 0.0000 0.0000 0.0000 0.0000 18.2274 0.0000
# 6 0.0000 0.0000 0.0000 0.0000 0.0000 26.7076
#
#
#
# Elastic Compliance Matrix: (Units=1/GPa)
#
#
# Indices 1 2 3 4 5 6 
#
# 1 0.013478 -0.003332 -0.004715 0.000000 0.000000 0.000000
# 2 -0.003332 0.013478 -0.004715 0.000000 0.000000 0.000000
# 3 -0.004715 -0.004715 0.022849 0.000000 0.000000 0.000000
# 4 0.000000 0.000000 0.000000 0.054862 0.000000 0.000000
# 5 0.000000 0.000000 0.000000 0.000000 0.054862 0.000000
# 6 0.000000 0.000000 0.000000 0.000000 0.000000 0.037443
#
#
# Mechanical properties :
#
#
# Convention : Reuss Voigt Hill
#
# Bulk Modulus (GPa) = 41.18111 44.29783 42.73947
# Shear Modulus (GPa) = 21.68369 22.90135 22.29252
#
# Velocity S-wave (km/s) = 3.57440 3.67339 3.62423
# Velocity P-wave (km/s) = 6.42647 6.64022 6.53422
#
# Compressibility (1/GPa) = 0.02428298
#
# Stress axis : x y z
#
# Youngs Moduli (GPa) = 74.19592 74.19592 43.76561
#
# Poissons Ratio (x) = 0.24720 0.20633
# Poissons Ratio (y) = 0.24720 0.20633
# Poissons Ratio (z) = 0.34980 0.34980
#
# Static dielectric constant tensor:
#      x y z
#    x 3.441620 0.000000 0.000000 
#    y 0.000000 3.441620 0.000000 
#    z 0.000000 0.000000 3.045510 
# 
# 
# High freq. dielectric constant tensor:
#      x y z
#    x 1.658710 0.000000 0.000000 
#    y 0.000000 1.658710 0.000000 
#    z 0.000000 0.000000 1.614460 
# 
# From -- ./inp_files/8660.got.cif
#   From: 2010.03.12/outbox.cif.g09.slc.cpg/sg136_5_cif.got.tgz:8660.got - 2010.04.06 18:39:43.
