data_PCOD8317901
_publ_section_title
;
Structure prediction by ZEFSAII (Michael W. Deem and Ramdas Pophale) SiO2 
 PCOD8317901
Probable space group: P 42/M N M
;
_chemical_formula_sum "Si O2"
_cell_formula_units_Z 72
_cell_length_a 21.010726
_cell_length_b 21.010726
_cell_length_c 9.044426
_cell_angle_alpha 90.000000
_cell_angle_beta 90.000000
_cell_angle_gamma 90.000000
_cell_volume 3992.667348
_symmetry_space_group_name_H-M "P 42/M N M"
_symmetry_group_IT_number 136
_symmetry_cell_setting 'tetragonal'
loop_
_space_group_symop_operation_xyz
x,y,z
1/2-y,1/2+x,1/2+z
-x,-y,z
1/2+y,1/2-x,1/2+z
1/2+x,1/2-y,1/2-z
1/2-x,1/2+y,1/2-z
y,x,-z
-y,-x,-z
-x,-y,-z
1/2+y,1/2-x,1/2-z
x,y,-z
1/2-y,1/2+x,1/2-z
1/2-x,1/2+y,1/2+z
1/2+x,1/2-y,1/2+z
-y,-x,z
y,x,z
loop_
_atom_site_type_symbol
_atom_site_label
_atom_site_fract_x
_atom_site_fract_y
_atom_site_fract_z
Si Si1 0.181098 0.489601 0.667660
Si Si2 0.627322 0.871066 0.831431
Si Si3 0.813984 0.953629 0.173933
Si Si4 0.755069 0.344227 0.836631
Si Si5 0.946876 0.946876 0.674467
O O1 0.173323 0.465284 0.500000
O O2 0.143516 0.555128 0.689953
O O3 0.146083 0.443017 0.779683
O O4 0.256665 0.496151 0.705262
O O5 0.676104 0.831298 0.732306
O O6 0.635275 0.850215 0.000000
O O7 0.789588 0.886145 0.231658
O O8 0.879957 0.971103 0.255892
O O9 0.827741 0.948276 0.000000
O O10 0.725104 0.274897 0.850410
O O11 0.760669 0.375938 0.000000
O O12 0.936977 0.936977 0.500000
O O13 0.000000 0.000000 0.708383
#
# Coordination Sequence:
#
# PCOD8317901 Si02
#       5
#    16  16  16  16   8
#     4   9  20  37  54  78 110 143 182 227 278 328
#     4  10  21  35  54  80 108 145 187 227 276 330
#     4  10  20  35  57  81 108 141 179 226 273 324
#     4  10  19  32  54  81 107 137 176 223 275 326
#     4  11  23  37  55  83 115 147 187 229 275 334
#
# _framework density 18.033056999999999
#
# number of rings (size 3 to 8) (size 9 to 14) (size 15 to 20)
#    0.000    2.111    1.111    3.667    0.000    8.000 
#    0.000    3.333    0.000    1.333    0.000    0.000 
#    0.000    0.000    0.000    0.000    0.000    0.000 
#
# Total GULP energy -892536.392087 kJ/mol
# GULP energy per Si atom -12396.338779 kJ/mol
# Density = 1.799201 g / cm^3
# Si number density = 18.033057 Si / 1000 Ang^3
#
#
#
# Elastic Constant Matrix: (Units=GPa)
#
#
# Indices 1 2 3 4 5 6 
#
# 1 85.6861 53.0285 58.5940 0.0000 0.0000 0.0000
# 2 53.0285 85.6861 58.5940 0.0000 0.0000 0.0000
# 3 58.5940 58.5940 132.4067 0.0000 0.0000 0.0000
# 4 0.0000 0.0000 0.0000 32.6848 0.0000 0.0000
# 5 0.0000 0.0000 0.0000 0.0000 32.6848 0.0000
# 6 0.0000 0.0000 0.0000 0.0000 0.0000 25.8527
#
#
#
# Elastic Compliance Matrix: (Units=1/GPa)
#
#
# Indices 1 2 3 4 5 6 
#
# 1 0.021067 -0.009554 -0.005095 0.000000 0.000000 0.000000
# 2 -0.009554 0.021067 -0.005095 0.000000 0.000000 0.000000
# 3 -0.005095 -0.005095 0.012062 0.000000 0.000000 0.000000
# 4 0.000000 0.000000 0.000000 0.030595 0.000000 0.000000
# 5 0.000000 0.000000 0.000000 0.000000 0.030595 0.000000
# 6 0.000000 0.000000 0.000000 0.000000 0.000000 0.038681
#
#
# Mechanical properties :
#
#
# Convention : Reuss Voigt Hill
#
# Bulk Modulus (GPa) = 67.98755 71.57910 69.78332
# Shear Modulus (GPa) = 25.19429 27.14862 26.17145
#
# Velocity S-wave (km/s) = 3.74186 3.88428 3.81373
# Velocity P-wave (km/s) = 7.51346 7.73927 7.62720
#
# Compressibility (1/GPa) = 0.01470858
#
# Stress axis : x y z
#
# Youngs Moduli (GPa) = 47.46738 47.46738 82.90570
#
# Poissons Ratio (x) = 0.45349 0.42241
# Poissons Ratio (y) = 0.45349 0.42241
# Poissons Ratio (z) = 0.24185 0.24185
#
# Static dielectric constant tensor:
#      x y z
#    x 3.284060 0.000000 0.000000 
#    y 0.000000 3.284060 0.000000 
#    z 0.000000 0.000000 3.541850 
# 
# 
# High freq. dielectric constant tensor:
#      x y z
#    x 1.685690 0.000000 0.000000 
#    y 0.000000 1.685690 0.000000 
#    z 0.000000 0.000000 1.718850 
# 
# From -- ./inp_files/1555.got.cif
#   From: 2010.03.12/outbox.cif.g09.slc.cpg/sg136_1_cif.got.tgz:1555.got - 2010.04.06 18:39:43.
