data_PCOD8317787
_publ_section_title
;
Structure prediction by ZEFSAII (Michael W. Deem and Ramdas Pophale) SiO2 
 PCOD8317787
Probable space group: P 42/M N M
;
_chemical_formula_sum "Si O2"
_cell_formula_units_Z 48
_cell_length_a 21.409978
_cell_length_b 21.409978
_cell_length_c 5.361770
_cell_angle_alpha 90.000000
_cell_angle_beta 90.000000
_cell_angle_gamma 90.000000
_cell_volume 2457.766512
_symmetry_space_group_name_H-M "P 42/M N M"
_symmetry_group_IT_number 136
_symmetry_cell_setting 'tetragonal'
loop_
_space_group_symop_operation_xyz
x,y,z
1/2-y,1/2+x,1/2+z
-x,-y,z
1/2+y,1/2-x,1/2+z
1/2+x,1/2-y,1/2-z
1/2-x,1/2+y,1/2-z
y,x,-z
-y,-x,-z
-x,-y,-z
1/2+y,1/2-x,1/2-z
x,y,-z
1/2-y,1/2+x,1/2-z
1/2-x,1/2+y,1/2+z
1/2+x,1/2-y,1/2+z
-y,-x,z
y,x,z
loop_
_atom_site_type_symbol
_atom_site_label
_atom_site_fract_x
_atom_site_fract_y
_atom_site_fract_z
Si Si1 0.385811 0.785734 0.000000
Si Si2 0.183882 0.469293 0.000000
Si Si3 0.385765 0.714165 0.500000
Si Si4 0.829471 0.578780 0.500000
Si Si5 0.190938 0.968447 0.000000
Si Si6 0.681931 0.584491 0.000000
O O1 0.460244 0.792794 0.000000
O O2 0.364761 0.750455 0.749366
O O3 0.349797 0.850355 0.000000
O O4 0.143655 0.455159 0.249755
O O5 0.242874 0.421091 0.000000
O O6 0.353052 0.646949 0.500000
O O7 0.459132 0.705216 0.500000
O O8 0.754883 0.571504 0.500000
O O9 0.154251 0.949955 0.252662
O O10 0.656144 0.656144 0.000000
#
# Coordination Sequence:
#
# PCOD8317787 Si02
#       6
#     8   8   8   8   8   8
#     4  12  21  40  62  90 123 158 207 253 304 372
#     4  10  19  38  57  86 118 159 201 237 316 356
#     4  12  23  40  64  90 126 166 203 252 309 372
#     4  10  20  35  63  85 115 165 194 250 300 362
#     4  10  19  39  55  86 116 160 199 236 308 358
#     4  10  18  32  59  83 110 152 196 243 294 351
#
# _framework density 19.529927000000001
#
# number of rings (size 3 to 8) (size 9 to 14) (size 15 to 20)
#    0.000    1.333    6.667    2.000    0.000    0.000 
#    0.000   20.000    0.000    6.000    0.000    0.000 
#    0.000    0.000    0.000    0.000    0.000    0.000 
#
# Total GULP energy -594697.822938 kJ/mol
# GULP energy per Si atom -12389.537978 kJ/mol
# Density = 1.948548 g / cm^3
# Si number density = 19.529927 Si / 1000 Ang^3
#
#
#
# Elastic Constant Matrix: (Units=GPa)
#
#
# Indices 1 2 3 4 5 6 
#
# 1 27.1880 86.0814 26.2768 0.0000 0.0000 0.0000
# 2 86.0814 27.2069 26.2803 0.0000 0.0000 0.0000
# 3 26.2768 26.2803 228.3067 0.0000 0.0000 0.0000
# 4 0.0000 0.0000 0.0000 15.7403 0.0000 0.0000
# 5 0.0000 0.0000 0.0000 0.0000 15.7362 0.0000
# 6 0.0000 0.0000 0.0000 0.0000 0.0000 8.7653
#
#
#
# Elastic Compliance Matrix: (Units=1/GPa)
#
#
# Indices 1 2 3 4 5 6 
#
# 1 -0.003830 0.013154 -0.001073 0.000000 0.000000 0.000000
# 2 0.013154 -0.003827 -0.001073 0.000000 0.000000 0.000000
# 3 -0.001073 -0.001073 0.004627 0.000000 0.000000 0.000000
# 4 0.000000 0.000000 0.000000 0.063531 0.000000 0.000000
# 5 0.000000 0.000000 0.000000 0.000000 0.063548 0.000000
# 6 0.000000 0.000000 0.000000 0.000000 0.000000 0.114086
#
#
# Mechanical properties :
#
#
# Convention : Reuss Voigt Hill
#
# Bulk Modulus (GPa) = 52.67287 62.21984 57.44636
# Shear Modulus (GPa) = 22.47704 17.65257 20.06480
#
# Velocity S-wave (km/s) = 3.39618 3.00971 3.20877
# Velocity P-wave (km/s) = 6.51211 6.63368 6.57317
#
# Compressibility (1/GPa) = 0.01898510
#
# Stress axis : x y z
#
# Youngs Moduli (GPa) = -261.10970 -261.30502 216.11447
#
# Poissons Ratio (x) = 3.43725 0.23197
# Poissons Ratio (y) = 3.43468 0.23199
# Poissons Ratio (z) = -0.28027 -0.28050
#
# Static dielectric constant tensor:
#      x y z
#    x 3.243860 0.000000 0.000000 
#    y 0.000000 3.243870 0.000000 
#    z 0.000000 0.000000 5.297480 
# 
# 
# High freq. dielectric constant tensor:
#      x y z
#    x 1.720960 0.000000 0.000000 
#    y 0.000000 1.720960 0.000000 
#    z 0.000000 0.000000 1.815410 
# 
# From -- ./inp_files/207.got.cif
#   From: 2010.03.12/outbox.cif.g09.slc.cpg/sg136_1_cif.got.tgz:207.got - 2010.04.06 18:39:43.
