data_PCOD8317442
_publ_section_title
;
Structure prediction by ZEFSAII (Michael W. Deem and Ramdas Pophale) SiO2 
 PCOD8317442
Probable space group: P 42/M B C
;
_chemical_formula_sum "Si O2"
_cell_formula_units_Z 48
_cell_length_a 12.873053
_cell_length_b 12.873053
_cell_length_c 15.588894
_cell_angle_alpha 90.000000
_cell_angle_beta 90.000000
_cell_angle_gamma 90.000000
_cell_volume 2583.321263
_symmetry_space_group_name_H-M "P 42/M B C"
_symmetry_group_IT_number 135
_symmetry_cell_setting 'tetragonal'
loop_
_space_group_symop_operation_xyz
x,y,z
-y,x,1/2+z
-x,-y,z
y,-x,1/2+z
1/2+x,1/2-y,-z
1/2-x,1/2+y,-z
1/2+y,1/2+x,1/2-z
1/2-y,1/2-x,1/2-z
-x,-y,-z
y,-x,1/2-z
x,y,-z
-y,x,1/2-z
1/2-x,1/2+y,z
1/2+x,1/2-y,z
1/2-y,1/2-x,1/2+z
1/2+y,1/2+x,1/2+z
loop_
_atom_site_type_symbol
_atom_site_label
_atom_site_fract_x
_atom_site_fract_y
_atom_site_fract_z
Si Si1 0.993469 0.167622 0.240459
Si Si2 0.331156 0.978129 0.403289
Si Si3 0.370539 0.028604 0.832917
O O1 0.019648 0.225449 0.151549
O O2 0.895777 0.092756 0.226236
O O3 0.963128 0.248534 0.315241
O O4 0.301845 0.946248 0.500000
O O5 0.410582 0.894966 0.361413
O O6 0.389116 0.091266 0.405117
O O7 0.437478 0.062523 0.750000
#
# Coordination Sequence:
#
# PCOD8317442 Si02
#       3
#    16  16  16
#     4  10  21  37  53  72 105 146 177 204 249 312
#     4  10  19  34  55  82 105 127 168 223 262 297
#     4   9  17  32  56  78 103 138 171 206 257 313
#
# _framework density 18.580732000000001
#
# number of rings (size 3 to 8) (size 9 to 14) (size 15 to 20)
#    0.000    2.333    0.000    9.000    0.000    8.000 
#    0.000   13.333    0.000    0.000    0.000    0.000 
#    0.000    0.000    0.000    0.000    0.000    0.000 
#
# Total GULP energy -594681.552941 kJ/mol
# GULP energy per Si atom -12389.199020 kJ/mol
# Density = 1.853844 g / cm^3
# Si number density = 18.580732 Si / 1000 Ang^3
#
#
#
# Elastic Constant Matrix: (Units=GPa)
#
#
# Indices 1 2 3 4 5 6 
#
# 1 100.8628 31.3075 21.0409 0.0000 0.0000 0.0000
# 2 31.3075 100.8637 21.0408 0.0000 0.0000 0.0000
# 3 21.0409 21.0408 87.6849 0.0000 0.0000 0.0000
# 4 0.0000 0.0000 0.0000 8.8475 0.0000 0.0000
# 5 0.0000 0.0000 0.0000 0.0000 8.8471 0.0000
# 6 0.0000 0.0000 0.0000 0.0000 0.0000 16.2159
#
#
#
# Elastic Compliance Matrix: (Units=1/GPa)
#
#
# Indices 1 2 3 4 5 6 
#
# 1 0.011284 -0.003093 -0.001966 0.000000 0.000000 0.000000
# 2 -0.003093 0.011284 -0.001966 0.000000 0.000000 0.000000
# 3 -0.001966 -0.001966 0.012348 0.000000 0.000000 0.000000
# 4 0.000000 0.000000 0.000000 0.113026 0.000000 0.000000
# 5 0.000000 0.000000 0.000000 0.000000 0.113031 0.000000
# 6 0.000000 0.000000 0.000000 0.000000 0.000000 0.061668
#
#
# Mechanical properties :
#
#
# Convention : Reuss Voigt Hill
#
# Bulk Modulus (GPa) = 47.91870 48.46552 48.19211
# Shear Modulus (GPa) = 14.54986 21.18359 17.86672
#
# Velocity S-wave (km/s) = 2.80136 3.38018 3.10429
# Velocity P-wave (km/s) = 6.02569 6.43230 6.23231
#
# Compressibility (1/GPa) = 0.02086868
#
# Stress axis : x y z
#
# Youngs Moduli (GPa) = 88.61749 88.61837 80.98576
#
# Poissons Ratio (x) = 0.27406 0.15920
# Poissons Ratio (y) = 0.27406 0.15919
# Poissons Ratio (z) = 0.17420 0.17420
#
# Static dielectric constant tensor:
#      x y z
#    x 3.422080 0.000000 0.000000 
#    y 0.000000 3.422090 0.000000 
#    z 0.000000 0.000000 3.577390 
# 
# 
# High freq. dielectric constant tensor:
#      x y z
#    x 1.712290 0.000000 0.000000 
#    y 0.000000 1.712290 0.000000 
#    z 0.000000 0.000000 1.705960 
# 
# From -- ./inp_files/2972.got.cif
#   From: 2010.03.12/outbox.cif.g09.slc.cpg/sg135_2_cif.got.tgz:2972.got - 2010.04.06 18:31:24.
