data_PCOD8317860
_publ_section_title
;
Structure prediction by ZEFSAII (Michael W. Deem and Ramdas Pophale) SiO2 
 PCOD8317860
Probable space group: P 42/M N M
;
_chemical_formula_sum "Si O2"
_cell_formula_units_Z 72
_cell_length_a 21.037880
_cell_length_b 21.037880
_cell_length_c 9.336556
_cell_angle_alpha 90.000000
_cell_angle_beta 90.000000
_cell_angle_gamma 90.000000
_cell_volume 4132.288680
_symmetry_space_group_name_H-M "P 42/M N M"
_symmetry_group_IT_number 136
_symmetry_cell_setting 'tetragonal'
loop_
_space_group_symop_operation_xyz
x,y,z
1/2-y,1/2+x,1/2+z
-x,-y,z
1/2+y,1/2-x,1/2+z
1/2+x,1/2-y,1/2-z
1/2-x,1/2+y,1/2-z
y,x,-z
-y,-x,-z
-x,-y,-z
1/2+y,1/2-x,1/2-z
x,y,-z
1/2-y,1/2+x,1/2-z
1/2-x,1/2+y,1/2+z
1/2+x,1/2-y,1/2+z
-y,-x,z
y,x,z
loop_
_atom_site_type_symbol
_atom_site_label
_atom_site_fract_x
_atom_site_fract_y
_atom_site_fract_z
Si Si1 0.822479 0.490545 0.338877
Si Si2 0.306087 0.446880 0.666744
Si Si3 0.660301 0.760545 0.839938
Si Si4 0.630441 0.875816 0.336089
Si Si5 0.550154 0.550154 0.668406
O O1 0.832248 0.464451 0.500000
O O2 0.746684 0.498108 0.307468
O O3 0.855156 0.445143 0.224601
O O4 0.858698 0.556832 0.319966
O O5 0.305031 0.426282 0.500000
O O6 0.287592 0.386443 0.759931
O O7 0.377288 0.468082 0.713615
O O8 0.729291 0.729291 0.848654
O O9 0.670879 0.825646 0.754695
O O10 0.633941 0.774214 0.000000
O O11 0.652451 0.873135 0.500000
O O12 0.500000 0.500000 0.739241
O O13 0.544181 0.544181 0.500000
#
# Coordination Sequence:
#
# PCOD8317860 Si02
#       5
#    16  16  16  16   8
#     4   9  19  34  50  73 103 134 173 218 265 310
#     4   9  17  31  52  75 103 137 172 214 256 303
#     4  10  19  31  51  77 101 128 168 218 266 307
#     4  10  21  35  53  76 102 138 176 213 261 315
#     4   9  16  28  51  81 107 137 179 217 253 304
#
# _framework density 17.423757999999999
#
# number of rings (size 3 to 8) (size 9 to 14) (size 15 to 20)
#    0.000    2.556    1.111    2.667    0.000    6.222 
#    0.000    3.333    0.000    5.333    0.000    0.000 
#    0.000    0.000    0.000    0.000    0.000    0.000 
#
# Total GULP energy -892488.717110 kJ/mol
# GULP energy per Si atom -12395.676627 kJ/mol
# Density = 1.738410 g / cm^3
# Si number density = 17.423758 Si / 1000 Ang^3
#
#
#
# Elastic Constant Matrix: (Units=GPa)
#
#
# Indices 1 2 3 4 5 6 
#
# 1 83.4748 50.0115 46.4841 0.0000 0.0000 0.0000
# 2 50.0115 83.4748 46.4841 0.0000 0.0000 0.0000
# 3 46.4841 46.4841 111.7882 0.0000 0.0000 0.0000
# 4 0.0000 0.0000 0.0000 25.1580 0.0000 0.0000
# 5 0.0000 0.0000 0.0000 0.0000 25.1580 0.0000
# 6 0.0000 0.0000 0.0000 0.0000 0.0000 24.4081
#
#
#
# Elastic Compliance Matrix: (Units=1/GPa)
#
#
# Indices 1 2 3 4 5 6 
#
# 1 0.020214 -0.009669 -0.004385 0.000000 0.000000 0.000000
# 2 -0.009669 0.020214 -0.004385 0.000000 0.000000 0.000000
# 3 -0.004385 -0.004385 0.012592 0.000000 0.000000 0.000000
# 4 0.000000 0.000000 0.000000 0.039749 0.000000 0.000000
# 5 0.000000 0.000000 0.000000 0.000000 0.039749 0.000000
# 6 0.000000 0.000000 0.000000 0.000000 0.000000 0.040970
#
#
# Mechanical properties :
#
#
# Convention : Reuss Voigt Hill
#
# Bulk Modulus (GPa) = 61.94635 62.74413 62.34524
# Shear Modulus (GPa) = 23.17519 23.99536 23.58528
#
# Velocity S-wave (km/s) = 3.65100 3.71504 3.68316
# Velocity P-wave (km/s) = 7.30774 7.38179 7.34486
#
# Compressibility (1/GPa) = 0.01614300
#
# Stress axis : x y z
#
# Youngs Moduli (GPa) = 49.46959 49.46959 79.41381
#
# Poissons Ratio (x) = 0.47832 0.34823
# Poissons Ratio (y) = 0.47832 0.34823
# Poissons Ratio (z) = 0.21693 0.21693
#
# Static dielectric constant tensor:
#      x y z
#    x 3.233180 0.000000 0.000000 
#    y 0.000000 3.233180 0.000000 
#    z 0.000000 0.000000 3.297900 
# 
# 
# High freq. dielectric constant tensor:
#      x y z
#    x 1.661910 0.000000 0.000000 
#    y 0.000000 1.661910 0.000000 
#    z 0.000000 0.000000 1.673590 
# 
# From -- ./inp_files/1539.got.cif
#   From: 2010.03.12/outbox.cif.g09.slc.cpg/sg136_1_cif.got.tgz:1539.got - 2010.04.06 18:39:43.
