data_PCOD8317997
_publ_section_title
;
Structure prediction by ZEFSAII (Michael W. Deem and Ramdas Pophale) SiO2 
 PCOD8317997
Probable space group: P 42/M N M
;
_chemical_formula_sum "Si O2"
_cell_formula_units_Z 80
_cell_length_a 13.368670
_cell_length_b 13.368670
_cell_length_c 25.784654
_cell_angle_alpha 90.000000
_cell_angle_beta 90.000000
_cell_angle_gamma 90.000000
_cell_volume 4608.267852
_symmetry_space_group_name_H-M "P 42/M N M"
_symmetry_group_IT_number 136
_symmetry_cell_setting 'tetragonal'
loop_
_space_group_symop_operation_xyz
x,y,z
1/2-y,1/2+x,1/2+z
-x,-y,z
1/2+y,1/2-x,1/2+z
1/2+x,1/2-y,1/2-z
1/2-x,1/2+y,1/2-z
y,x,-z
-y,-x,-z
-x,-y,-z
1/2+y,1/2-x,1/2-z
x,y,-z
1/2-y,1/2+x,1/2-z
1/2-x,1/2+y,1/2+z
1/2+x,1/2-y,1/2+z
-y,-x,z
y,x,z
loop_
_atom_site_type_symbol
_atom_site_label
_atom_site_fract_x
_atom_site_fract_y
_atom_site_fract_z
Si Si1 0.261691 0.425306 0.138957
Si Si2 0.239134 0.596581 0.940781
Si Si3 0.618694 0.780943 0.363032
Si Si4 0.901798 0.737252 0.715819
Si Si5 0.396839 0.764863 0.664465
O O1 0.364805 0.364805 0.139120
O O2 0.256291 0.491516 0.087373
O O3 0.259111 0.490413 0.191266
O O4 0.167392 0.351625 0.138039
O O5 0.341494 0.658507 0.935787
O O6 0.149109 0.658504 0.914647
O O7 0.209582 0.576026 0.000000
O O8 0.675335 0.675335 0.360103
O O9 0.644631 0.848564 0.313005
O O10 0.501473 0.758190 0.365286
O O11 0.836162 0.836162 0.707236
O O12 0.914360 0.708658 0.775454
O O13 0.341446 0.658555 0.658971
#
# Coordination Sequence:
#
# PCOD8317997 Si02
#       5
#    16  16  16  16  16
#     4  10  20  33  49  74 108 135 161 205 252 294
#     4   9  19  36  57  78  98 126 164 203 250 306
#     4   9  18  34  52  70  96 128 166 210 247 287
#     4   9  18  31  48  71  99 134 170 200 239 293
#     4  10  20  32  47  71 102 134 167 202 244 292
#
# _framework density 17.360102000000001
#
# number of rings (size 3 to 8) (size 9 to 14) (size 15 to 20)
#    0.000    2.600    0.000    3.000    0.000    8.000 
#    0.000    9.000    0.000    1.800    0.000    2.800 
#    0.000    0.000    0.000    0.000    0.000    0.000 
#
# Total GULP energy -992164.250493 kJ/mol
# GULP energy per Si atom -12402.053131 kJ/mol
# Density = 1.732059 g / cm^3
# Si number density = 17.360102 Si / 1000 Ang^3
#
#
#
# Elastic Constant Matrix: (Units=GPa)
#
#
# Indices 1 2 3 4 5 6 
#
# 1 123.5796 49.2103 51.0120 0.0000 0.0000 0.0000
# 2 49.2103 123.5796 51.0120 0.0000 0.0000 0.0000
# 3 51.0120 51.0120 108.9015 0.0000 0.0000 0.0000
# 4 0.0000 0.0000 0.0000 19.7020 0.0000 0.0000
# 5 0.0000 0.0000 0.0000 0.0000 19.7020 0.0000
# 6 0.0000 0.0000 0.0000 0.0000 0.0000 14.5281
#
#
#
# Elastic Compliance Matrix: (Units=1/GPa)
#
#
# Indices 1 2 3 4 5 6 
#
# 1 0.010723 -0.002723 -0.003747 0.000000 0.000000 0.000000
# 2 -0.002723 0.010723 -0.003747 0.000000 0.000000 0.000000
# 3 -0.003747 -0.003747 0.012693 0.000000 0.000000 0.000000
# 4 0.000000 0.000000 0.000000 0.050756 0.000000 0.000000
# 5 0.000000 0.000000 0.000000 0.000000 0.050756 0.000000
# 6 0.000000 0.000000 0.000000 0.000000 0.000000 0.068832
#
#
# Mechanical properties :
#
#
# Convention : Reuss Voigt Hill
#
# Bulk Modulus (GPa) = 72.97242 73.16994 73.07118
# Shear Modulus (GPa) = 21.78759 24.44151 23.11455
#
# Velocity S-wave (km/s) = 3.54649 3.75629 3.65290
# Velocity P-wave (km/s) = 7.67437 7.81363 7.74431
#
# Compressibility (1/GPa) = 0.01370381
#
# Stress axis : x y z
#
# Youngs Moduli (GPa) = 93.25561 93.25561 78.78136
#
# Poissons Ratio (x) = 0.25395 0.29523
# Poissons Ratio (y) = 0.25395 0.29523
# Poissons Ratio (z) = 0.34947 0.34947
#
# Static dielectric constant tensor:
#      x y z
#    x 3.156550 0.000000 0.000000 
#    y 0.000000 3.156550 0.000000 
#    z 0.000000 0.000000 3.251050 
# 
# 
# High freq. dielectric constant tensor:
#      x y z
#    x 1.668680 0.000000 0.000000 
#    y 0.000000 1.668680 0.000000 
#    z 0.000000 0.000000 1.659720 
# 
# From -- ./inp_files/9525.got.cif
#   From: 2010.03.12/outbox.cif.g09.slc.cpg/sg136_5_cif.got.tgz:9525.got - 2010.04.06 18:39:43.
