data_PCOD8317268
_publ_section_title
;
Structure prediction by ZEFSAII (Michael W. Deem and Ramdas Pophale) SiO2 
 PCOD8317268
Probable space group: P 42/N N M
;
_chemical_formula_sum "Si O2"
_cell_formula_units_Z 112
_cell_length_a 14.795463
_cell_length_b 14.795463
_cell_length_c 24.792131
_cell_angle_alpha 90.000000
_cell_angle_beta 90.000000
_cell_angle_gamma 90.000000
_cell_volume 5427.139420
_symmetry_space_group_name_H-M "P 42/N N M"
_symmetry_group_IT_number 134
_space_group.IT_coordinate_system_code '2'
_symmetry_cell_setting 'tetragonal'
loop_
_space_group_symop_operation_xyz
x,y,z
1/2-y,x,1/2+z
1/2-x,1/2-y,z
y,1/2-x,1/2+z
x,1/2-y,1/2-z
1/2-x,y,1/2-z
y,x,-z
1/2-y,1/2-x,-z
-x,-y,-z
1/2+y,-x,1/2-z
1/2+x,1/2+y,-z
-y,1/2+x,1/2-z
-x,1/2+y,1/2+z
1/2+x,-y,1/2+z
-y,-x,z
1/2+y,1/2+x,z
loop_
_atom_site_type_symbol
_atom_site_label
_atom_site_fract_x
_atom_site_fract_y
_atom_site_fract_z
Si Si1 0.745121 0.392701 0.485882
Si Si2 0.240798 0.022982 0.189528
Si Si3 0.186582 0.171597 0.937048
Si Si4 0.417752 0.059713 0.817555
Si Si5 0.496810 0.253253 0.384084
Si Si6 0.953158 0.901601 0.802698
Si Si7 0.171208 0.521162 0.416156
O O1 0.643197 0.356804 0.495006
O O2 0.813921 0.313921 0.499429
O O3 0.756383 0.416970 0.422841
O O4 0.765317 0.467969 0.531369
O O5 0.250000 0.978222 0.250000
O O6 0.221791 0.951290 0.140516
O O7 0.331908 0.078095 0.175573
O O8 0.154673 0.090127 0.189371
O O9 0.250000 0.250000 0.911313
O O10 0.242416 0.082752 0.926270
O O11 0.087000 0.156968 0.911187
O O12 0.181691 0.181691 0.000000
O O13 0.353168 0.011961 0.860385
O O14 0.377698 0.031324 0.759633
O O15 0.518582 0.018582 0.824786
O O16 0.496434 0.178727 0.337241
O O17 0.004016 0.995985 0.818007
O O18 0.076592 0.576592 0.421713
#
# Coordination Sequence:
#
# PCOD8317268 Si02
#       7
#    16  16  16  16  16  16  16
#     4  10  23  41  60  87 122 161 208 261 312 369
#     4  10  21  38  61  88 122 162 200 255 316 371
#     4  11  23  38  58  92 131 160 195 256 319 373
#     4  10  23  40  57  86 127 167 207 250 306 378
#     4  12  21  36  64  89 120 163 209 246 314 377
#     4  10  21  37  60  92 125 156 203 264 315 367
#     4  11  22  40  64  91 122 162 212 265 316 372
#
# _framework density 20.637022999999999
#
# number of rings (size 3 to 8) (size 9 to 14) (size 15 to 20)
#    0.000    1.429    2.857    2.571    0.000    2.000 
#    0.000    2.143    0.000    3.857    0.000   14.000 
#    0.000    0.000    0.000    0.000    0.000    0.000 
#
# Total GULP energy -1387500.311588 kJ/mol
# GULP energy per Si atom -12388.395639 kJ/mol
# Density = 2.059005 g / cm^3
# Si number density = 20.637023 Si / 1000 Ang^3
#
#
#
# Elastic Constant Matrix: (Units=GPa)
#
#
# Indices 1 2 3 4 5 6 
#
# 1 79.2530 37.8489 36.4694 0.0000 0.0000 0.0000
# 2 37.8489 79.2530 36.4694 0.0000 0.0000 0.0000
# 3 36.4694 36.4694 128.4851 0.0000 0.0000 0.0000
# 4 0.0000 0.0000 0.0000 28.4413 0.0000 0.0000
# 5 0.0000 0.0000 0.0000 0.0000 28.4413 0.0000
# 6 0.0000 0.0000 0.0000 0.0000 0.0000 26.8877
#
#
#
# Elastic Compliance Matrix: (Units=1/GPa)
#
#
# Indices 1 2 3 4 5 6 
#
# 1 0.017263 -0.006889 -0.002944 0.000000 0.000000 0.000000
# 2 -0.006889 0.017263 -0.002944 0.000000 0.000000 0.000000
# 3 -0.002944 -0.002944 0.009455 0.000000 0.000000 0.000000
# 4 0.000000 0.000000 0.000000 0.035160 0.000000 0.000000
# 5 0.000000 0.000000 0.000000 0.000000 0.035160 0.000000
# 6 0.000000 0.000000 0.000000 0.000000 0.000000 0.037192
#
#
# Mechanical properties :
#
#
# Convention : Reuss Voigt Hill
#
# Bulk Modulus (GPa) = 54.27745 56.50740 55.39243
# Shear Modulus (GPa) = 27.29407 28.50095 27.89751
#
# Velocity S-wave (km/s) = 3.64067 3.72029 3.68070
# Velocity P-wave (km/s) = 6.63557 6.77459 6.70544
#
# Compressibility (1/GPa) = 0.01842386
#
# Stress axis : x y z
#
# Youngs Moduli (GPa) = 57.92774 57.92774 105.76947
#
# Poissons Ratio (x) = 0.39908 0.31143
# Poissons Ratio (y) = 0.39908 0.31143
# Poissons Ratio (z) = 0.17057 0.17057
#
# Static dielectric constant tensor:
#      x y z
#    x 3.743370 0.000000 0.000000 
#    y 0.000000 3.743370 0.000000 
#    z 0.000000 0.000000 4.182430 
# 
# 
# High freq. dielectric constant tensor:
#      x y z
#    x 1.789260 0.000000 0.000000 
#    y 0.000000 1.789260 0.000000 
#    z 0.000000 0.000000 1.835450 
# 
# From -- ./inp_files/10857.got.cif
#   From: 2010.03.12/outbox.cif.g09.slc.cpg/sg134_6_cif.got.tgz:10857.got - 2010.04.06 18:17:22.
