data_PCOD8317139
_publ_section_title
;
Structure prediction by ZEFSAII (Michael W. Deem and Ramdas Pophale) SiO2 
 PCOD8317139
Probable space group: P 42/N N M
;
_chemical_formula_sum "Si O2"
_cell_formula_units_Z 96
_cell_length_a 19.082759
_cell_length_b 19.082759
_cell_length_c 15.029362
_cell_angle_alpha 90.000000
_cell_angle_beta 90.000000
_cell_angle_gamma 90.000000
_cell_volume 5472.967588
_symmetry_space_group_name_H-M "P 42/N N M"
_symmetry_group_IT_number 134
_space_group.IT_coordinate_system_code '2'
_symmetry_cell_setting 'tetragonal'
loop_
_space_group_symop_operation_xyz
x,y,z
1/2-y,x,1/2+z
1/2-x,1/2-y,z
y,1/2-x,1/2+z
x,1/2-y,1/2-z
1/2-x,y,1/2-z
y,x,-z
1/2-y,1/2-x,-z
-x,-y,-z
1/2+y,-x,1/2-z
1/2+x,1/2+y,-z
-y,1/2+x,1/2-z
-x,1/2+y,1/2+z
1/2+x,-y,1/2+z
-y,-x,z
1/2+y,1/2+x,z
loop_
_atom_site_type_symbol
_atom_site_label
_atom_site_fract_x
_atom_site_fract_y
_atom_site_fract_z
Si Si1 0.060563 0.671990 0.410367
Si Si2 0.407740 0.022215 0.269706
Si Si3 0.576500 0.189346 0.390451
Si Si4 0.456727 0.327290 0.253060
Si Si5 0.658659 0.452714 0.414406
Si Si6 0.054693 0.832065 0.384774
O O1 0.135245 0.635245 0.391280
O O2 0.041760 0.667869 0.515042
O O3 0.066814 0.749786 0.370905
O O4 0.999476 0.630350 0.360367
O O5 0.409672 0.106771 0.274931
O O6 0.484509 0.984509 0.263298
O O7 0.360808 0.001216 0.185331
O O8 0.648613 0.148613 0.373043
O O9 0.524142 0.173426 0.310474
O O10 0.593635 0.271778 0.396010
O O11 0.419107 0.250000 0.250000
O O12 0.477793 0.340793 0.355216
O O13 0.592565 0.407436 0.385084
O O14 0.653226 0.475961 0.517036
O O15 0.129234 0.870767 0.372161
#
# Coordination Sequence:
#
# PCOD8317139 Si02
#       6
#    16  16  16  16  16  16
#     4   9  18  31  48  72  99 126 154 185 225 275
#     4  10  19  31  49  70  93 123 159 196 232 274
#     4   9  17  29  45  67  95 124 154 187 226 275
#     4  10  20  33  47  64  90 122 157 200 241 273
#     4   9  17  29  45  67  95 124 154 187 226 275
#     4   9  18  31  48  72  99 126 154 185 225 275
#
# _framework density 17.540756999999999
#
# number of rings (size 3 to 8) (size 9 to 14) (size 15 to 20)
#    0.000    2.667    0.000    2.000    0.000    2.000 
#    0.000    8.333    0.000    8.000    0.000    0.000 
#    0.000   16.000    0.000    0.000    0.000    0.667 
#
# Total GULP energy -1189932.879717 kJ/mol
# GULP energy per Si atom -12395.134164 kJ/mol
# Density = 1.750083 g / cm^3
# Si number density = 17.540757 Si / 1000 Ang^3
#
#
#
# Elastic Constant Matrix: (Units=GPa)
#
#
# Indices 1 2 3 4 5 6 
#
# 1 77.9599 22.4274 15.3308 0.0000 0.0000 0.0000
# 2 22.4274 77.9599 15.3308 0.0000 0.0000 0.0000
# 3 15.3308 15.3308 67.9390 0.0000 0.0000 0.0000
# 4 0.0000 0.0000 0.0000 19.6203 0.0000 0.0000
# 5 0.0000 0.0000 0.0000 0.0000 19.6203 0.0000
# 6 0.0000 0.0000 0.0000 0.0000 0.0000 19.9393
#
#
#
# Elastic Compliance Matrix: (Units=1/GPa)
#
#
# Indices 1 2 3 4 5 6 
#
# 1 0.014353 -0.003654 -0.002414 0.000000 0.000000 0.000000
# 2 -0.003654 0.014353 -0.002414 0.000000 0.000000 0.000000
# 3 -0.002414 -0.002414 0.015809 0.000000 0.000000 0.000000
# 4 0.000000 0.000000 0.000000 0.050968 0.000000 0.000000
# 5 0.000000 0.000000 0.000000 0.000000 0.050968 0.000000
# 6 0.000000 0.000000 0.000000 0.000000 0.000000 0.050152
#
#
# Mechanical properties :
#
#
# Convention : Reuss Voigt Hill
#
# Bulk Modulus (GPa) = 36.29855 36.67074 36.48464
# Shear Modulus (GPa) = 22.44660 23.22065 22.83363
#
# Velocity S-wave (km/s) = 3.58115 3.64237 3.61189
# Velocity P-wave (km/s) = 6.15128 6.21615 6.18380
#
# Compressibility (1/GPa) = 0.02754931
#
# Stress axis : x y z
#
# Youngs Moduli (GPa) = 69.67114 69.67114 63.25645
#
# Poissons Ratio (x) = 0.25460 0.15272
# Poissons Ratio (y) = 0.25460 0.15272
# Poissons Ratio (z) = 0.16820 0.16820
#
# Static dielectric constant tensor:
#      x y z
#    x 3.114710 0.000000 0.000000 
#    y 0.000000 3.114710 0.000000 
#    z 0.000000 0.000000 3.543920 
# 
# 
# High freq. dielectric constant tensor:
#      x y z
#    x 1.652550 0.000000 0.000000 
#    y 0.000000 1.652550 0.000000 
#    z 0.000000 0.000000 1.701190 
# 
# From -- ./inp_files/7916.got.cif
#   From: 2010.03.12/outbox.cif.g09.slc.cpg/sg134_4_cif.got.tgz:7916.got - 2010.04.06 18:17:22.
