data_PCOD8317911
_publ_section_title
;
Structure prediction by ZEFSAII (Michael W. Deem and Ramdas Pophale) SiO2 
 PCOD8317911
Probable space group: P 42/M N M
;
_chemical_formula_sum "Si O2"
_cell_formula_units_Z 64
_cell_length_a 13.401141
_cell_length_b 13.401141
_cell_length_c 20.314566
_cell_angle_alpha 90.000000
_cell_angle_beta 90.000000
_cell_angle_gamma 90.000000
_cell_volume 3648.304692
_symmetry_space_group_name_H-M "P 42/M N M"
_symmetry_group_IT_number 136
_symmetry_cell_setting 'tetragonal'
loop_
_space_group_symop_operation_xyz
x,y,z
1/2-y,1/2+x,1/2+z
-x,-y,z
1/2+y,1/2-x,1/2+z
1/2+x,1/2-y,1/2-z
1/2-x,1/2+y,1/2-z
y,x,-z
-y,-x,-z
-x,-y,-z
1/2+y,1/2-x,1/2-z
x,y,-z
1/2-y,1/2+x,1/2-z
1/2-x,1/2+y,1/2+z
1/2+x,1/2-y,1/2+z
-y,-x,z
y,x,z
loop_
_atom_site_type_symbol
_atom_site_label
_atom_site_fract_x
_atom_site_fract_y
_atom_site_fract_z
Si Si1 0.628846 0.901332 0.751352
Si Si2 0.865117 0.295255 0.384381
Si Si3 0.316242 0.842984 0.000000
Si Si4 0.254733 0.586969 0.875073
Si Si5 0.449687 0.891764 0.500000
O O1 0.518009 0.868068 0.731151
O O2 0.666878 0.841086 0.814591
O O3 0.700058 0.875750 0.690684
O O4 0.780445 0.219556 0.409144
O O5 0.877529 0.384437 0.435353
O O6 0.967973 0.234053 0.377255
O O7 0.378120 0.810110 0.063417
O O8 0.205682 0.794319 0.000000
O O9 0.308054 0.963018 0.000000
O O10 0.364876 0.635125 0.877626
O O11 0.500000 0.000000 0.500000
#
# Coordination Sequence:
#
# PCOD8317911 Si02
#       5
#    16  16   8  16   8
#     4   9  18  31  53  78 106 137 184 230 269 311
#     4  11  22  34  52  80 110 144 179 222 274 327
#     4  10  20  34  56  82 103 133 178 222 269 315
#     4  10  19  33  51  76 109 144 179 221 268 321
#     4  12  21  36  59  78 107 139 180 229 271 316
#
# _framework density 17.542394999999999
#
# number of rings (size 3 to 8) (size 9 to 14) (size 15 to 20)
#    0.000    1.750    2.500    2.625    3.500    0.500 
#    0.000    0.000    0.000    5.250    0.000    0.000 
#    0.000    0.000    0.000    0.000    0.000    0.000 
#
# Total GULP energy -793707.527438 kJ/mol
# GULP energy per Si atom -12401.680116 kJ/mol
# Density = 1.750247 g / cm^3
# Si number density = 17.542395 Si / 1000 Ang^3
#
#
#
# Elastic Constant Matrix: (Units=GPa)
#
#
# Indices 1 2 3 4 5 6 
#
# 1 94.7990 60.7351 47.1119 0.0000 0.0000 0.0000
# 2 60.7351 94.7990 47.1118 0.0000 0.0000 0.0000
# 3 47.1119 47.1118 121.8986 0.0000 0.0000 0.0000
# 4 0.0000 0.0000 0.0000 45.9275 0.0000 0.0000
# 5 0.0000 0.0000 0.0000 0.0000 45.9295 0.0000
# 6 0.0000 0.0000 0.0000 0.0000 0.0000 32.2616
#
#
#
# Elastic Compliance Matrix: (Units=1/GPa)
#
#
# Indices 1 2 3 4 5 6 
#
# 1 0.018876 -0.010481 -0.003245 0.000000 0.000000 0.000000
# 2 -0.010481 0.018876 -0.003245 0.000000 0.000000 0.000000
# 3 -0.003245 -0.003245 0.010711 0.000000 0.000000 0.000000
# 4 0.000000 0.000000 0.000000 0.021773 0.000000 0.000000
# 5 0.000000 0.000000 0.000000 0.000000 0.021773 0.000000
# 6 0.000000 0.000000 0.000000 0.000000 0.000000 0.030997
#
#
# Mechanical properties :
#
#
# Convention : Reuss Voigt Hill
#
# Bulk Modulus (GPa) = 68.85466 69.04603 68.95034
# Shear Modulus (GPa) = 30.90493 35.25957 33.08225
#
# Velocity S-wave (km/s) = 4.20185 4.48813 4.34734
# Velocity P-wave (km/s) = 7.92946 8.14264 8.03676
#
# Compressibility (1/GPa) = 0.01452335
#
# Stress axis : x y z
#
# Youngs Moduli (GPa) = 52.97782 52.97790 93.35794
#
# Poissons Ratio (x) = 0.55525 0.30291
# Poissons Ratio (y) = 0.55525 0.30290
# Poissons Ratio (z) = 0.17189 0.17189
#
# Static dielectric constant tensor:
#      x y z
#    x 3.211690 0.000000 0.000000 
#    y 0.000000 3.211690 0.000000 
#    z 0.000000 0.000000 3.474790 
# 
# 
# High freq. dielectric constant tensor:
#      x y z
#    x 1.666650 0.000000 0.000000 
#    y 0.000000 1.666650 0.000000 
#    z 0.000000 0.000000 1.698230 
# 
# From -- ./inp_files/5958.got.cif
#   From: 2010.03.12/outbox.cif.g09.slc.cpg/sg136_3_cif.got.tgz:5958.got - 2010.04.06 18:39:43.
