data_PCOD8317676
_publ_section_title
;
Structure prediction by ZEFSAII (Michael W. Deem and Ramdas Pophale) SiO2 
 PCOD8317676
Probable space group: P 42/M N M
;
_chemical_formula_sum "Si O2"
_cell_formula_units_Z 112
_cell_length_a 20.746029
_cell_length_b 20.746029
_cell_length_c 20.544212
_cell_angle_alpha 90.000000
_cell_angle_beta 90.000000
_cell_angle_gamma 90.000000
_cell_volume 8842.181989
_symmetry_space_group_name_H-M "P 42/M N M"
_symmetry_group_IT_number 136
_symmetry_cell_setting 'tetragonal'
loop_
_space_group_symop_operation_xyz
x,y,z
1/2-y,1/2+x,1/2+z
-x,-y,z
1/2+y,1/2-x,1/2+z
1/2+x,1/2-y,1/2-z
1/2-x,1/2+y,1/2-z
y,x,-z
-y,-x,-z
-x,-y,-z
1/2+y,1/2-x,1/2-z
x,y,-z
1/2-y,1/2+x,1/2-z
1/2-x,1/2+y,1/2+z
1/2+x,1/2-y,1/2+z
-y,-x,z
y,x,z
loop_
_atom_site_type_symbol
_atom_site_label
_atom_site_fract_x
_atom_site_fract_y
_atom_site_fract_z
Si Si1 0.639361 0.090938 0.377181
Si Si2 0.765547 0.132101 0.573940
Si Si3 0.440338 0.917531 0.500000
Si Si4 0.095127 0.197837 0.423504
Si Si5 0.583346 0.935969 0.749031
Si Si6 0.468612 0.370364 0.922868
Si Si7 0.559421 0.164017 0.877774
Si Si8 0.431016 0.917003 0.000000
O O1 0.702519 0.135196 0.381246
O O2 0.591608 0.110754 0.435133
O O3 0.604711 0.107329 0.310117
O O4 0.663300 0.017480 0.383815
O O5 0.745386 0.114304 0.500000
O O6 0.798074 0.201927 0.576797
O O7 0.813396 0.077838 0.601919
O O8 0.514568 0.894736 0.500000
O O9 0.432387 0.993856 0.500000
O O10 0.085996 0.213954 0.500000
O O11 0.164773 0.164773 0.410534
O O12 0.087375 0.263326 0.382092
O O13 0.041177 0.145555 0.400259
O O14 0.510863 0.915360 0.730310
O O15 0.631187 0.919759 0.689886
O O16 0.439257 0.439257 0.896755
O O17 0.465600 0.372709 0.000000
O O18 0.589936 0.122761 0.936362
#
# Coordination Sequence:
#
# PCOD8317676 Si02
#       8
#    16  16   8  16  16  16  16   8
#     4  10  16  25  41  56  75  97 124 151 191 227
#     4   9  15  23  37  57  77  96 120 150 183 220
#     4   9  16  22  37  60  72  87 119 161 185 224
#     4  10  18  26  38  56  76 100 132 160 190 223
#     4   9  18  29  40  56  77  99 122 155 196 231
#     4   8  14  23  36  53  75  98 123 154 189 220
#     4  10  17  27  40  52  75 100 126 155 192 222
#     4   9  16  24  37  54  72  92 122 158 192 216
#
# _framework density 12.666556
#
# number of rings (size 3 to 8) (size 9 to 14) (size 15 to 20)
#    0.000    2.714    2.857    1.714    0.000    3.714 
#    0.000    2.143    0.000    0.000    0.000    0.000 
#    0.000    0.000    0.000    0.000    0.000    0.000 
#
# Total GULP energy -1388050.045232 kJ/mol
# GULP energy per Si atom -12393.303975 kJ/mol
# Density = 1.263773 g / cm^3
# Si number density = 12.666556 Si / 1000 Ang^3
#
#
#
# Elastic Constant Matrix: (Units=GPa)
#
#
# Indices 1 2 3 4 5 6 
#
# 1 62.9129 30.9266 34.6796 0.0000 0.0000 0.0000
# 2 30.9266 62.9129 34.6796 0.0000 0.0000 0.0000
# 3 34.6796 34.6796 71.3973 0.0000 0.0000 0.0000
# 4 0.0000 0.0000 0.0000 12.2596 0.0000 0.0000
# 5 0.0000 0.0000 0.0000 0.0000 12.2596 0.0000
# 6 0.0000 0.0000 0.0000 0.0000 0.0000 12.2022
#
#
#
# Elastic Compliance Matrix: (Units=1/GPa)
#
#
# Indices 1 2 3 4 5 6 
#
# 1 0.023944 -0.007319 -0.008075 0.000000 0.000000 0.000000
# 2 -0.007319 0.023944 -0.008075 0.000000 0.000000 0.000000
# 3 -0.008075 -0.008075 0.021851 0.000000 0.000000 0.000000
# 4 0.000000 0.000000 0.000000 0.081569 0.000000 0.000000
# 5 0.000000 0.000000 0.000000 0.000000 0.081569 0.000000
# 6 0.000000 0.000000 0.000000 0.000000 0.000000 0.081953
#
#
# Mechanical properties :
#
#
# Convention : Reuss Voigt Hill
#
# Bulk Modulus (GPa) = 43.85951 44.19938 44.02945
# Shear Modulus (GPa) = 13.53660 13.80676 13.67168
#
# Velocity S-wave (km/s) = 3.27263 3.30512 3.28891
# Velocity P-wave (km/s) = 6.99868 7.03814 7.01844
#
# Compressibility (1/GPa) = 0.02280007
#
# Stress axis : x y z
#
# Youngs Moduli (GPa) = 41.76362 41.76362 45.76471
#
# Poissons Ratio (x) = 0.30567 0.36956
# Poissons Ratio (y) = 0.30567 0.36956
# Poissons Ratio (z) = 0.33725 0.33725
#
# Static dielectric constant tensor:
#      x y z
#    x 2.516830 0.000000 0.000000 
#    y 0.000000 2.516830 0.000000 
#    z 0.000000 0.000000 2.368070 
# 
# 
# High freq. dielectric constant tensor:
#      x y z
#    x 1.465570 0.000000 0.000000 
#    y 0.000000 1.465570 0.000000 
#    z 0.000000 0.000000 1.451770 
# 
# From -- ./inp_files/6598.got.cif
#   From: 2010.03.12/outbox.cif.g09.slc.cpg/sg136_4_cif.got.tgz:6598.got - 2010.04.06 18:39:43.
