data_PCOD8317751
_publ_section_title
;
Structure prediction by ZEFSAII (Michael W. Deem and Ramdas Pophale) SiO2 
 PCOD8317751
Probable space group: P 42/M N M
;
_chemical_formula_sum "Si O2"
_cell_formula_units_Z 72
_cell_length_a 23.034924
_cell_length_b 23.034924
_cell_length_c 9.339228
_cell_angle_alpha 90.000000
_cell_angle_beta 90.000000
_cell_angle_gamma 90.000000
_cell_volume 4955.466510
_symmetry_space_group_name_H-M "P 42/M N M"
_symmetry_group_IT_number 136
_symmetry_cell_setting 'tetragonal'
loop_
_space_group_symop_operation_xyz
x,y,z
1/2-y,1/2+x,1/2+z
-x,-y,z
1/2+y,1/2-x,1/2+z
1/2+x,1/2-y,1/2-z
1/2-x,1/2+y,1/2-z
y,x,-z
-y,-x,-z
-x,-y,-z
1/2+y,1/2-x,1/2-z
x,y,-z
1/2-y,1/2+x,1/2-z
1/2-x,1/2+y,1/2+z
1/2+x,1/2-y,1/2+z
-y,-x,z
y,x,z
loop_
_atom_site_type_symbol
_atom_site_label
_atom_site_fract_x
_atom_site_fract_y
_atom_site_fract_z
Si Si1 0.221474 0.130616 0.830834
Si Si2 0.485205 0.663871 0.330844
Si Si3 0.313583 0.215587 0.840012
Si Si4 0.389051 0.294595 0.666820
Si Si5 0.548562 0.451439 0.166022
O O1 0.167604 0.167604 0.766097
O O2 0.211825 0.063518 0.789711
O O3 0.283562 0.156505 0.776671
O O4 0.221578 0.139016 0.000000
O O5 0.483973 0.648923 0.500000
O O6 0.546046 0.691213 0.282901
O O7 0.474747 0.605690 0.243389
O O8 0.264159 0.264159 0.839632
O O9 0.367530 0.235796 0.743429
O O10 0.337643 0.205636 0.000000
O O11 0.386160 0.281925 0.500000
O O12 0.349233 0.349233 0.709979
O O13 0.500000 0.500000 0.181610
O O14 0.562071 0.437930 0.000000
#
# Coordination Sequence:
#
# PCOD8317751 Si02
#       5
#    16  16  16  16   8
#     4   8  13  24  43  63  77  96 134 175 205 239
#     4  10  18  30  47  61  78 108 146 181 205 238
#     4   8  14  25  42  59  76 101 131 163 204 250
#     4   9  17  27  39  59  83 106 135 168 203 242
#     4  11  23  33  39  55  85 117 147 179 211 244
#
# _framework density 14.529408999999999
#
# number of rings (size 3 to 8) (size 9 to 14) (size 15 to 20)
#    0.000    3.000    1.111    2.333    0.000    2.667 
#    0.000    3.333    0.000    0.000    0.000    0.000 
#    0.000    0.889    0.000   11.111    0.000    0.000 
#
# Total GULP energy -892250.007753 kJ/mol
# GULP energy per Si atom -12392.361219 kJ/mol
# Density = 1.449634 g / cm^3
# Si number density = 14.529409 Si / 1000 Ang^3
#
#
#
# Elastic Constant Matrix: (Units=GPa)
#
#
# Indices 1 2 3 4 5 6 
#
# 1 86.3251 78.0919 36.7552 0.0000 0.0000 0.0000
# 2 78.0919 86.3258 36.7553 0.0000 0.0000 0.0000
# 3 36.7552 36.7553 42.1072 0.0000 0.0000 0.0000
# 4 0.0000 0.0000 0.0000 17.7608 0.0000 0.0000
# 5 0.0000 0.0000 0.0000 0.0000 17.7608 0.0000
# 6 0.0000 0.0000 0.0000 0.0000 0.0000 24.9220
#
#
#
# Elastic Compliance Matrix: (Units=1/GPa)
#
#
# Indices 1 2 3 4 5 6 
#
# 1 0.065715 -0.055739 -0.008707 0.000000 0.000000 0.000000
# 2 -0.055739 0.065714 -0.008707 0.000000 0.000000 0.000000
# 3 -0.008707 -0.008707 0.038950 0.000000 0.000000 0.000000
# 4 0.000000 0.000000 0.000000 0.056304 0.000000 0.000000
# 5 0.000000 0.000000 0.000000 0.000000 0.056304 0.000000
# 6 0.000000 0.000000 0.000000 0.000000 0.000000 0.040125
#
#
# Mechanical properties :
#
#
# Convention : Reuss Voigt Hill
#
# Bulk Modulus (GPa) = 41.54346 57.55145 49.54746
# Shear Modulus (GPa) = 10.47245 16.29910 13.38578
#
# Velocity S-wave (km/s) = 2.68764 3.35296 3.03857
# Velocity P-wave (km/s) = 6.18756 7.39501 6.81807
#
# Compressibility (1/GPa) = 0.02407118
#
# Stress axis : x y z
#
# Youngs Moduli (GPa) = 15.21726 15.21742 25.67405
#
# Poissons Ratio (x) = 0.84821 0.22355
# Poissons Ratio (y) = 0.84820 0.22354
# Poissons Ratio (z) = 0.13250 0.13250
#
# Static dielectric constant tensor:
#      x y z
#    x 2.943870 0.000000 0.000000 
#    y 0.000000 2.943870 0.000000 
#    z 0.000000 0.000000 2.737430 
# 
# 
# High freq. dielectric constant tensor:
#      x y z
#    x 1.538160 0.000000 0.000000 
#    y 0.000000 1.538160 0.000000 
#    z 0.000000 0.000000 1.538090 
# 
# From -- ./inp_files/1719.got.cif
#   From: 2010.03.12/outbox.cif.g09.slc.cpg/sg136_1_cif.got.tgz:1719.got - 2010.04.06 18:39:43.
