data_PCOD8317730
_publ_section_title
;
Structure prediction by ZEFSAII (Michael W. Deem and Ramdas Pophale) SiO2 
 PCOD8317730
Probable space group: P 42/M N M
;
_chemical_formula_sum "Si O2"
_cell_formula_units_Z 72
_cell_length_a 14.520356
_cell_length_b 14.520356
_cell_length_c 20.512032
_cell_angle_alpha 90.000000
_cell_angle_beta 90.000000
_cell_angle_gamma 90.000000
_cell_volume 4324.771972
_symmetry_space_group_name_H-M "P 42/M N M"
_symmetry_group_IT_number 136
_symmetry_cell_setting 'tetragonal'
loop_
_space_group_symop_operation_xyz
x,y,z
1/2-y,1/2+x,1/2+z
-x,-y,z
1/2+y,1/2-x,1/2+z
1/2+x,1/2-y,1/2-z
1/2-x,1/2+y,1/2-z
y,x,-z
-y,-x,-z
-x,-y,-z
1/2+y,1/2-x,1/2-z
x,y,-z
1/2-y,1/2+x,1/2-z
1/2-x,1/2+y,1/2+z
1/2+x,1/2-y,1/2+z
-y,-x,z
y,x,z
loop_
_atom_site_type_symbol
_atom_site_label
_atom_site_fract_x
_atom_site_fract_y
_atom_site_fract_z
Si Si1 0.963350 0.654087 0.500000
Si Si2 0.736690 0.020448 0.121540
Si Si3 0.136139 0.541463 0.500000
Si Si4 0.634130 0.212167 0.875520
Si Si5 0.646177 0.964121 0.250432
Si Si6 0.924982 0.075019 0.928023
O O1 0.918526 0.553818 0.500000
O O2 0.934805 0.713948 0.562952
O O3 0.072419 0.632761 0.500000
O O4 0.697996 0.955197 0.064600
O O5 0.714080 0.971525 0.189439
O O6 0.697560 0.123163 0.117915
O O7 0.845262 0.028643 0.114195
O O8 0.696127 0.303874 0.874437
O O9 0.573343 0.206237 0.810301
O O10 0.563610 0.895242 0.231119
O O11 0.889651 0.110350 0.000000
O O12 0.000000 0.000000 0.941427
#
# Coordination Sequence:
#
# PCOD8317730 Si02
#       6
#     8  16   8  16  16   8
#     4   9  17  26  43  72  96 120 154 193 245 290
#     4  10  18  31  49  66  94 130 164 201 245 292
#     4   9  16  27  46  67  92 123 156 195 237 296
#     4  10  18  28  46  69  97 128 162 198 246 300
#     4   9  18  31  47  70 100 131 165 206 254 303
#     4  11  22  34  48  70  98 131 175 210 241 289
#
# _framework density 16.648275000000002
#
# number of rings (size 3 to 8) (size 9 to 14) (size 15 to 20)
#    0.000    2.333    2.222    1.667    0.000    6.222 
#    0.000    0.000    0.000    0.000    0.000    0.000 
#    0.000    0.111    0.000    3.111    0.667    0.111 
#
# Total GULP energy -892691.325848 kJ/mol
# GULP energy per Si atom -12398.490637 kJ/mol
# Density = 1.661038 g / cm^3
# Si number density = 16.648275 Si / 1000 Ang^3
#
#
#
# Elastic Constant Matrix: (Units=GPa)
#
#
# Indices 1 2 3 4 5 6 
#
# 1 75.0273 50.4147 65.9528 0.0000 0.0000 0.0000
# 2 50.4147 75.0273 65.9529 0.0000 0.0000 0.0000
# 3 65.9528 65.9529 157.2008 0.0000 0.0000 0.0000
# 4 0.0000 0.0000 0.0000 16.4043 0.0000 0.0000
# 5 0.0000 0.0000 0.0000 0.0000 16.4043 0.0000
# 6 0.0000 0.0000 0.0000 0.0000 0.0000 28.3883
#
#
#
# Elastic Compliance Matrix: (Units=1/GPa)
#
#
# Indices 1 2 3 4 5 6 
#
# 1 0.027447 -0.013182 -0.005985 0.000000 0.000000 0.000000
# 2 -0.013182 0.027447 -0.005985 0.000000 0.000000 0.000000
# 3 -0.005985 -0.005985 0.011383 0.000000 0.000000 0.000000
# 4 0.000000 0.000000 0.000000 0.060960 0.000000 0.000000
# 5 0.000000 0.000000 0.000000 0.000000 0.060960 0.000000
# 6 0.000000 0.000000 0.000000 0.000000 0.000000 0.035226
#
#
# Mechanical properties :
#
#
# Convention : Reuss Voigt Hill
#
# Bulk Modulus (GPa) = 62.60234 74.65514 68.62874
# Shear Modulus (GPa) = 17.91785 20.56838 19.24311
#
# Velocity S-wave (km/s) = 3.28420 3.51873 3.40349
# Velocity P-wave (km/s) = 7.21566 7.83891 7.53374
#
# Compressibility (1/GPa) = 0.01597384
#
# Stress axis : x y z
#
# Youngs Moduli (GPa) = 36.43339 36.43337 87.84960
#
# Poissons Ratio (x) = 0.48028 0.52576
# Poissons Ratio (y) = 0.48028 0.52576
# Poissons Ratio (z) = 0.21805 0.21805
#
# Static dielectric constant tensor:
#      x y z
#    x 2.919450 0.000000 0.000000 
#    y 0.000000 2.919450 0.000000 
#    z 0.000000 0.000000 3.256940 
# 
# 
# High freq. dielectric constant tensor:
#      x y z
#    x 1.616130 0.000000 0.000000 
#    y 0.000000 1.616130 0.000000 
#    z 0.000000 0.000000 1.654790 
# 
# From -- ./inp_files/6116.got.cif
#   From: 2010.03.12/outbox.cif.g09.slc.cpg/sg136_4_cif.got.tgz:6116.got - 2010.04.06 18:39:43.
