data_PCOD8317084
_publ_section_title
;
Structure prediction by ZEFSAII (Michael W. Deem and Ramdas Pophale) SiO2 
 PCOD8317084
Probable space group: P 42/N N M
;
_chemical_formula_sum "Si O2"
_cell_formula_units_Z 36
_cell_length_a 13.921781
_cell_length_b 13.921781
_cell_length_c 9.971355
_cell_angle_alpha 90.000000
_cell_angle_beta 90.000000
_cell_angle_gamma 90.000000
_cell_volume 1932.608003
_symmetry_space_group_name_H-M "P 42/N N M"
_symmetry_group_IT_number 134
_space_group.IT_coordinate_system_code '2'
_symmetry_cell_setting 'tetragonal'
loop_
_space_group_symop_operation_xyz
x,y,z
1/2-y,x,1/2+z
1/2-x,1/2-y,z
y,1/2-x,1/2+z
x,1/2-y,1/2-z
1/2-x,y,1/2-z
y,x,-z
1/2-y,1/2-x,-z
-x,-y,-z
1/2+y,-x,1/2-z
1/2+x,1/2+y,-z
-y,1/2+x,1/2-z
-x,1/2+y,1/2+z
1/2+x,-y,1/2+z
-y,-x,z
1/2+y,1/2+x,z
loop_
_atom_site_type_symbol
_atom_site_label
_atom_site_fract_x
_atom_site_fract_y
_atom_site_fract_z
Si Si1 0.250000 0.250000 0.000000
Si Si2 0.940186 0.692312 0.871377
Si Si3 0.505303 0.158499 0.844676
O O1 0.156284 0.249073 0.092939
O O2 0.991287 0.750000 0.750000
O O3 0.912902 0.584746 0.826161
O O4 0.010539 0.691262 0.999557
O O5 0.494299 0.250000 0.750000
O O6 0.602234 0.102234 0.806373
#
# Coordination Sequence:
#
# PCOD8317084 Si02
#       3
#     4  16  16
#     4   8  14  24  46  78 108 132 152 192 266 330
#     4  10  17  31  54  82 105 128 167 222 270 305
#     4  10  21  36  53  74 106 144 175 207 253 313
#
# _framework density 18.627679000000001
#
# number of rings (size 3 to 8) (size 9 to 14) (size 15 to 20)
#    0.000    2.667    0.000    8.667    0.000    0.444 
#    0.000    6.667    0.000    0.000    0.000    0.000 
#    0.000    0.000    0.000    0.000    0.000    0.000 
#
# Total GULP energy -446246.989696 kJ/mol
# GULP energy per Si atom -12395.749714 kJ/mol
# Density = 1.858528 g / cm^3
# Si number density = 18.627679 Si / 1000 Ang^3
#
#
#
# Elastic Constant Matrix: (Units=GPa)
#
#
# Indices 1 2 3 4 5 6 
#
# 1 48.9857 36.9767 39.5292 0.0000 0.0000 0.0000
# 2 36.9767 48.9857 39.5292 0.0000 0.0000 0.0000
# 3 39.5292 39.5292 125.2953 0.0000 0.0000 0.0000
# 4 0.0000 0.0000 0.0000 9.7251 0.0000 0.0000
# 5 0.0000 0.0000 0.0000 0.0000 9.7251 0.0000
# 6 0.0000 0.0000 0.0000 0.0000 0.0000 19.7715
#
#
#
# Elastic Compliance Matrix: (Units=1/GPa)
#
#
# Indices 1 2 3 4 5 6 
#
# 1 0.049829 -0.033441 -0.005170 0.000000 0.000000 0.000000
# 2 -0.033441 0.049829 -0.005170 0.000000 0.000000 0.000000
# 3 -0.005170 -0.005170 0.011243 0.000000 0.000000 0.000000
# 4 0.000000 0.000000 0.000000 0.102827 0.000000 0.000000
# 5 0.000000 0.000000 0.000000 0.000000 0.102827 0.000000
# 6 0.000000 0.000000 0.000000 0.000000 0.000000 0.050578
#
#
# Mechanical properties :
#
#
# Convention : Reuss Voigt Hill
#
# Bulk Modulus (GPa) = 42.84762 50.59300 46.72031
# Shear Modulus (GPa) = 10.81135 14.99310 12.90223
#
# Velocity S-wave (km/s) = 2.41175 2.84012 2.63466
# Velocity P-wave (km/s) = 5.55044 6.16232 5.86437
#
# Compressibility (1/GPa) = 0.02333852
#
# Stress axis : x y z
#
# Youngs Moduli (GPa) = 20.06844 20.06844 88.94073
#
# Poissons Ratio (x) = 0.67112 0.45984
# Poissons Ratio (y) = 0.67112 0.45984
# Poissons Ratio (z) = 0.10376 0.10376
#
# Static dielectric constant tensor:
#      x y z
#    x 3.149660 0.000000 0.000000 
#    y 0.000000 3.149660 0.000000 
#    z 0.000000 0.000000 3.560690 
# 
# 
# High freq. dielectric constant tensor:
#      x y z
#    x 1.694690 0.000000 0.000000 
#    y 0.000000 1.694690 0.000000 
#    z 0.000000 0.000000 1.732210 
# 
# From -- ./inp_files/1708.got.cif
#   From: 2010.03.12/outbox.cif.g09.slc.cpg/sg134_1_cif.got.tgz:1708.got - 2010.04.06 18:17:22.
