data_PCOD8317480
_publ_section_title
;
Structure prediction by ZEFSAII (Michael W. Deem and Ramdas Pophale) SiO2 
 PCOD8317480
Probable space group: P 42/M B C
;
_chemical_formula_sum "Si O2"
_cell_formula_units_Z 60
_cell_length_a 16.483176
_cell_length_b 16.483176
_cell_length_c 9.939906
_cell_angle_alpha 90.000000
_cell_angle_beta 90.000000
_cell_angle_gamma 90.000000
_cell_volume 2700.623666
_symmetry_space_group_name_H-M "P 42/M B C"
_symmetry_group_IT_number 135
_symmetry_cell_setting 'tetragonal'
loop_
_space_group_symop_operation_xyz
x,y,z
-y,x,1/2+z
-x,-y,z
y,-x,1/2+z
1/2+x,1/2-y,-z
1/2-x,1/2+y,-z
1/2+y,1/2+x,1/2-z
1/2-y,1/2-x,1/2-z
-x,-y,-z
y,-x,1/2-z
x,y,-z
-y,x,1/2-z
1/2-x,1/2+y,z
1/2+x,1/2-y,z
1/2-y,1/2-x,1/2+z
1/2+y,1/2+x,1/2+z
loop_
_atom_site_type_symbol
_atom_site_label
_atom_site_fract_x
_atom_site_fract_y
_atom_site_fract_z
Si Si1 0.500000 0.500000 0.250000
Si Si2 0.734122 0.358387 0.500000
Si Si3 0.739152 0.545909 0.500000
Si Si4 0.936394 0.102183 0.500000
Si Si5 0.660275 0.034645 0.760054
Si Si6 0.069215 0.234302 0.500000
Si Si7 0.847599 0.347599 0.250000
O O1 0.458329 0.438144 0.355210
O O2 0.712166 0.452744 0.500000
O O3 0.643696 0.326483 0.500000
O O4 0.785723 0.329664 0.370907
O O5 0.661509 0.606519 0.500000
O O6 0.795062 0.561470 0.373860
O O7 0.982089 0.188156 0.500000
O O8 0.568119 0.068119 0.750000
O O9 0.661395 0.940128 0.797040
O O10 0.708911 0.080960 0.873495
#
# Coordination Sequence:
#
# PCOD8317480 Si02
#       7
#     4   8   8   8  16   8   8
#     4  10  20  34  64  86 120 182 224 266 312 394
#     4  10  23  43  66 104 130 175 221 279 338 410
#     4  10  23  41  67  95 138 174 231 277 333 419
#     4  11  22  41  61  93 136 181 219 270 331 400
#     4  11  24  45  67 101 129 178 232 286 339 392
#     4  12  26  40  65 102 140 175 224 267 346 413
#     4  10  23  46  74  94 134 175 226 282 344 402
#
# _framework density 22.217091
#
# number of rings (size 3 to 8) (size 9 to 14) (size 15 to 20)
#    0.000    1.333    0.000    5.200    1.867    6.400 
#    4.800    5.333    0.000    0.000    0.000    0.000 
#    0.000    0.000    0.000    0.000    0.000    0.000 
#
# Total GULP energy -743589.087265 kJ/mol
# GULP energy per Si atom -12393.151454 kJ/mol
# Density = 2.216652 g / cm^3
# Si number density = 22.217091 Si / 1000 Ang^3
#
#
#
# Elastic Constant Matrix: (Units=GPa)
#
#
# Indices 1 2 3 4 5 6 
#
# 1 90.8804 37.7008 32.3555 0.0000 0.0000 0.0000
# 2 37.7008 90.8804 32.3555 0.0000 0.0000 0.0000
# 3 32.3555 32.3555 153.4779 0.0000 0.0000 0.0000
# 4 0.0000 0.0000 0.0000 9.6433 0.0000 0.0000
# 5 0.0000 0.0000 0.0000 0.0000 9.6433 0.0000
# 6 0.0000 0.0000 0.0000 0.0000 0.0000 43.7530
#
#
#
# Elastic Compliance Matrix: (Units=1/GPa)
#
#
# Indices 1 2 3 4 5 6 
#
# 1 0.013752 -0.005052 -0.001834 0.000000 0.000000 0.000000
# 2 -0.005052 0.013752 -0.001834 0.000000 0.000000 0.000000
# 3 -0.001834 -0.001834 0.007289 0.000000 0.000000 0.000000
# 4 0.000000 0.000000 0.000000 0.103699 0.000000 0.000000
# 5 0.000000 0.000000 0.000000 0.000000 0.103699 0.000000
# 6 0.000000 0.000000 0.000000 0.000000 0.000000 0.022856
#
#
# Mechanical properties :
#
#
# Convention : Reuss Voigt Hill
#
# Bulk Modulus (GPa) = 57.62743 60.00694 58.81719
# Shear Modulus (GPa) = 17.34479 28.12972 22.73725
#
# Velocity S-wave (km/s) = 2.79712 3.56213 3.20255
# Velocity P-wave (km/s) = 6.03544 6.63222 6.34086
#
# Compressibility (1/GPa) = 0.01735285
#
# Stress axis : x y z
#
# Youngs Moduli (GPa) = 72.71548 72.71548 137.19434
#
# Poissons Ratio (x) = 0.36736 0.25163
# Poissons Ratio (y) = 0.36736 0.25163
# Poissons Ratio (z) = 0.13337 0.13337
#
# Static dielectric constant tensor:
#      x y z
#    x 3.962340 0.000000 0.000000 
#    y 0.000000 3.962340 0.000000 
#    z 0.000000 0.000000 4.196060 
# 
# 
# High freq. dielectric constant tensor:
#      x y z
#    x 1.874490 0.000000 0.000000 
#    y 0.000000 1.874490 0.000000 
#    z 0.000000 0.000000 1.895390 
# 
# From -- ./inp_files/822.got.cif
#   From: 2010.03.12/outbox.cif.g09.slc.cpg/sg135_1_cif.got.tgz:822.got - 2010.04.06 18:31:24.
