data_PCOD8317445
_publ_section_title
;
Structure prediction by ZEFSAII (Michael W. Deem and Ramdas Pophale) SiO2 
 PCOD8317445
Probable space group: P 42/M B C
;
_chemical_formula_sum "Si O2"
_cell_formula_units_Z 112
_cell_length_a 14.865675
_cell_length_b 14.865675
_cell_length_c 28.524121
_cell_angle_alpha 90.000000
_cell_angle_beta 90.000000
_cell_angle_gamma 90.000000
_cell_volume 6303.496815
_symmetry_space_group_name_H-M "P 42/M B C"
_symmetry_group_IT_number 135
_symmetry_cell_setting 'tetragonal'
loop_
_space_group_symop_operation_xyz
x,y,z
-y,x,1/2+z
-x,-y,z
y,-x,1/2+z
1/2+x,1/2-y,-z
1/2-x,1/2+y,-z
1/2+y,1/2+x,1/2-z
1/2-y,1/2-x,1/2-z
-x,-y,-z
y,-x,1/2-z
x,y,-z
-y,x,1/2-z
1/2-x,1/2+y,z
1/2+x,1/2-y,z
1/2-y,1/2-x,1/2+z
1/2+y,1/2+x,1/2+z
loop_
_atom_site_type_symbol
_atom_site_label
_atom_site_fract_x
_atom_site_fract_y
_atom_site_fract_z
Si Si1 0.211195 0.270686 0.878036
Si Si2 0.240425 0.653322 0.705181
Si Si3 0.206169 0.911951 0.947239
Si Si4 0.471653 0.734184 0.162623
Si Si5 0.084188 0.112630 0.244522
Si Si6 0.099701 0.011768 0.584316
Si Si7 0.884251 0.181985 0.551822
O O1 0.271625 0.239189 0.834594
O O2 0.242271 0.358158 0.906577
O O3 0.107642 0.292135 0.862129
O O4 0.221411 0.185232 0.911492
O O5 0.178552 0.678552 0.750000
O O6 0.208996 0.553384 0.686653
O O7 0.344755 0.650840 0.718950
O O8 0.100292 0.889953 0.947104
O O9 0.220104 0.017126 0.935666
O O10 0.241749 0.889408 0.000000
O O11 0.416643 0.673944 0.199066
O O12 0.521695 0.669493 0.126422
O O13 0.988143 0.112449 0.270841
O O14 0.119678 0.926240 0.551862
O O15 0.000000 0.000000 0.606089
O O16 0.856439 0.214333 0.500000
#
# Coordination Sequence:
#
# PCOD8317445 Si02
#       7
#    16  16  16  16  16  16  16
#     4  11  21  35  55  84 108 146 184 229 271 325
#     4  11  21  36  52  79 110 146 183 226 272 329
#     4  10  19  34  56  82 112 148 180 220 278 334
#     4  10  20  33  51  79 114 143 182 226 269 322
#     4   9  19  31  52  81 109 140 174 221 280 334
#     4   9  17  28  51  83 117 139 169 215 282 340
#     4   9  19  34  53  82 115 144 179 224 275 334
#
# _framework density 17.767916
#
# number of rings (size 3 to 8) (size 9 to 14) (size 15 to 20)
#    0.000    2.143    2.857    0.857    4.000    2.857 
#    0.000    0.000    0.000    0.857    3.714    2.000 
#    0.000    0.000    0.000    0.000    0.000    0.000 
#
# Total GULP energy -1388070.622251 kJ/mol
# GULP energy per Si atom -12393.487699 kJ/mol
# Density = 1.772748 g / cm^3
# Si number density = 17.767916 Si / 1000 Ang^3
#
#
#
# Elastic Constant Matrix: (Units=GPa)
#
#
# Indices 1 2 3 4 5 6 
#
# 1 79.2728 42.2959 46.8874 0.0000 0.0000 0.0000
# 2 42.2959 79.2728 46.8874 0.0000 0.0000 0.0000
# 3 46.8874 46.8874 106.0392 0.0000 0.0000 0.0000
# 4 0.0000 0.0000 0.0000 25.8270 0.0000 0.0000
# 5 0.0000 0.0000 0.0000 0.0000 25.8270 0.0000
# 6 0.0000 0.0000 0.0000 0.0000 0.0000 27.4298
#
#
#
# Elastic Compliance Matrix: (Units=1/GPa)
#
#
# Indices 1 2 3 4 5 6 
#
# 1 0.019764 -0.007280 -0.005520 0.000000 0.000000 0.000000
# 2 -0.007280 0.019764 -0.005520 0.000000 0.000000 0.000000
# 3 -0.005520 -0.005520 0.014312 0.000000 0.000000 0.000000
# 4 0.000000 0.000000 0.000000 0.038719 0.000000 0.000000
# 5 0.000000 0.000000 0.000000 0.000000 0.038719 0.000000
# 6 0.000000 0.000000 0.000000 0.000000 0.000000 0.036457
#
#
# Mechanical properties :
#
#
# Convention : Reuss Voigt Hill
#
# Bulk Modulus (GPa) = 58.14055 59.63624 58.88840
# Shear Modulus (GPa) = 23.79729 24.38435 24.09082
#
# Velocity S-wave (km/s) = 3.66367 3.70858 3.68620
# Velocity P-wave (km/s) = 7.11968 7.20937 7.16467
#
# Compressibility (1/GPa) = 0.01719970
#
# Stress axis : x y z
#
# Youngs Moduli (GPa) = 50.59748 50.59748 69.87147
#
# Poissons Ratio (x) = 0.36835 0.38569
# Poissons Ratio (y) = 0.36835 0.38569
# Poissons Ratio (z) = 0.27930 0.27930
#
# Static dielectric constant tensor:
#      x y z
#    x 3.242470 0.000000 0.000000 
#    y 0.000000 3.242470 0.000000 
#    z 0.000000 0.000000 3.466870 
# 
# 
# High freq. dielectric constant tensor:
#      x y z
#    x 1.670250 0.000000 0.000000 
#    y 0.000000 1.670250 0.000000 
#    z 0.000000 0.000000 1.699390 
# 
# From -- ./inp_files/6876.got.cif
#   From: 2010.03.12/outbox.cif.g09.slc.cpg/sg135_4_cif.got.tgz:6876.got - 2010.04.06 18:31:24.
