data_PCOD8317079
_publ_section_title
;
Structure prediction by ZEFSAII (Michael W. Deem and Ramdas Pophale) SiO2 
 PCOD8317079
Probable space group: P 42/N N M
;
_chemical_formula_sum "Si O2"
_cell_formula_units_Z 56
_cell_length_a 13.012459
_cell_length_b 13.012459
_cell_length_c 17.201257
_cell_angle_alpha 90.000000
_cell_angle_beta 90.000000
_cell_angle_gamma 90.000000
_cell_volume 2912.587175
_symmetry_space_group_name_H-M "P 42/N N M"
_symmetry_group_IT_number 134
_space_group.IT_coordinate_system_code '2'
_symmetry_cell_setting 'tetragonal'
loop_
_space_group_symop_operation_xyz
x,y,z
1/2-y,x,1/2+z
1/2-x,1/2-y,z
y,1/2-x,1/2+z
x,1/2-y,1/2-z
1/2-x,y,1/2-z
y,x,-z
1/2-y,1/2-x,-z
-x,-y,-z
1/2+y,-x,1/2-z
1/2+x,1/2+y,-z
-y,1/2+x,1/2-z
-x,1/2+y,1/2+z
1/2+x,-y,1/2+z
-y,-x,z
1/2+y,1/2+x,z
loop_
_atom_site_type_symbol
_atom_site_label
_atom_site_fract_x
_atom_site_fract_y
_atom_site_fract_z
Si Si1 0.080946 0.229641 0.628057
Si Si2 0.586168 0.250000 0.750000
Si Si3 0.764566 0.590036 0.338259
Si Si4 0.164408 0.505255 0.514312
O O1 0.144221 0.326430 0.661818
O O2 0.158404 0.134251 0.627099
O O3 0.031479 0.245288 0.542975
O O4 0.983959 0.206400 0.681623
O O5 0.656585 0.343416 0.781147
O O6 0.750000 0.549676 0.250000
O O7 0.796235 0.498248 0.396331
O O8 0.072939 0.427062 0.500000
O O9 0.120574 0.620574 0.498385
#
# Coordination Sequence:
#
# PCOD8317079 Si02
#       4
#    16   8  16  16
#     4  10  17  33  50  74 104 139 179 224 271 325
#     4  11  22  33  50  76 108 147 182 223 284 342
#     4  10  17  30  51  78 105 140 176 224 276 320
#     4   9  18  29  48  77 107 138 174 220 274 328
#
# _framework density 19.226893
#
# number of rings (size 3 to 8) (size 9 to 14) (size 15 to 20)
#    0.000    2.143    2.857    2.571    0.000    4.571 
#    0.000    0.000    0.000    5.143    0.000    0.000 
#    0.000    0.000    0.000    0.000    0.000    0.000 
#
# Total GULP energy -694010.513633 kJ/mol
# GULP energy per Si atom -12393.044886 kJ/mol
# Density = 1.918313 g / cm^3
# Si number density = 19.226893 Si / 1000 Ang^3
#
#
#
# Elastic Constant Matrix: (Units=GPa)
#
#
# Indices 1 2 3 4 5 6 
#
# 1 64.1267 32.5082 31.4553 0.0000 0.0000 0.0000
# 2 32.5082 64.1265 31.4550 0.0000 0.0000 0.0000
# 3 31.4553 31.4550 153.6677 0.0000 0.0000 0.0000
# 4 0.0000 0.0000 0.0000 8.7877 0.0000 0.0000
# 5 0.0000 0.0000 0.0000 0.0000 8.7862 0.0000
# 6 0.0000 0.0000 0.0000 0.0000 0.0000 19.5746
#
#
#
# Elastic Compliance Matrix: (Units=1/GPa)
#
#
# Indices 1 2 3 4 5 6 
#
# 1 0.021783 -0.009844 -0.002444 0.000000 0.000000 0.000000
# 2 -0.009844 0.021783 -0.002444 0.000000 0.000000 0.000000
# 3 -0.002444 -0.002444 0.007508 0.000000 0.000000 0.000000
# 4 0.000000 0.000000 0.000000 0.113795 0.000000 0.000000
# 5 0.000000 0.000000 0.000000 0.000000 0.113815 0.000000
# 6 0.000000 0.000000 0.000000 0.000000 0.000000 0.051087
#
#
# Mechanical properties :
#
#
# Convention : Reuss Voigt Hill
#
# Bulk Modulus (GPa) = 46.27293 52.52865 49.40079
# Shear Modulus (GPa) = 13.64486 19.86319 16.75403
#
# Velocity S-wave (km/s) = 2.66686 3.21767 2.95513
# Velocity P-wave (km/s) = 5.79672 6.41749 6.11499
#
# Compressibility (1/GPa) = 0.02161091
#
# Stress axis : x y z
#
# Youngs Moduli (GPa) = 45.90691 45.90685 133.19011
#
# Poissons Ratio (x) = 0.45191 0.32551
# Poissons Ratio (y) = 0.45191 0.32550
# Poissons Ratio (z) = 0.11219 0.11219
#
# Static dielectric constant tensor:
#      x y z
#    x 3.389760 0.000000 0.000000 
#    y 0.000000 3.389760 0.000000 
#    z 0.000000 0.000000 3.637740 
# 
# 
# High freq. dielectric constant tensor:
#      x y z
#    x 1.714130 0.000000 0.000000 
#    y 0.000000 1.714130 0.000000 
#    z 0.000000 0.000000 1.757430 
# 
# From -- ./inp_files/6011.got.cif
#   From: 2010.03.12/outbox.cif.g09.slc.cpg/sg134_4_cif.got.tgz:6011.got - 2010.04.06 18:17:22.
