data_PCOD8317540
_publ_section_title
;
Structure prediction by ZEFSAII (Michael W. Deem and Ramdas Pophale) SiO2 
 PCOD8317540
Probable space group: P 42/M B C
;
_chemical_formula_sum "Si O2"
_cell_formula_units_Z 64
_cell_length_a 14.148493
_cell_length_b 14.148493
_cell_length_c 15.431917
_cell_angle_alpha 90.000000
_cell_angle_beta 90.000000
_cell_angle_gamma 90.000000
_cell_volume 3089.158895
_symmetry_space_group_name_H-M "P 42/M B C"
_symmetry_group_IT_number 135
_symmetry_cell_setting 'tetragonal'
loop_
_space_group_symop_operation_xyz
x,y,z
-y,x,1/2+z
-x,-y,z
y,-x,1/2+z
1/2+x,1/2-y,-z
1/2-x,1/2+y,-z
1/2+y,1/2+x,1/2-z
1/2-y,1/2-x,1/2-z
-x,-y,-z
y,-x,1/2-z
x,y,-z
-y,x,1/2-z
1/2-x,1/2+y,z
1/2+x,1/2-y,z
1/2-y,1/2-x,1/2+z
1/2+y,1/2+x,1/2+z
loop_
_atom_site_type_symbol
_atom_site_label
_atom_site_fract_x
_atom_site_fract_y
_atom_site_fract_z
Si Si1 0.597152 0.969469 0.343791
Si Si2 0.163723 0.755648 0.899423
Si Si3 0.765400 0.625668 0.601602
Si Si4 0.897015 0.989625 0.399312
O O1 0.567155 0.932846 0.250000
O O2 0.651988 0.882548 0.388395
O O3 0.500000 0.000000 0.393379
O O4 0.663016 0.062522 0.341993
O O5 0.268426 0.763752 0.859201
O O6 0.096805 0.836625 0.857258
O O7 0.174655 0.774267 0.000000
O O8 0.794569 0.619524 0.500000
O O9 0.659148 0.587072 0.613318
O O10 0.910649 0.965713 0.500000
O O11 0.000000 0.000000 0.354453
#
# Coordination Sequence:
#
# PCOD8317540 Si02
#       4
#    16  16  16  16
#     4  10  21  37  53  79 114 156 192 230 283 344
#     4   9  18  33  55  84 111 144 187 235 287 330
#     4   9  18  33  55  82 109 140 188 240 282 333
#     4   8  14  26  46  74 108 135 165 217 275 327
#
# _framework density 20.717613
#
# number of rings (size 3 to 8) (size 9 to 14) (size 15 to 20)
#    0.000    3.000    0.000    2.250    0.000    4.000 
#    4.500    5.000    0.000    0.000    0.000    0.000 
#    0.000    0.000    0.000    0.000    0.000    0.000 
#
# Total GULP energy -792942.223541 kJ/mol
# GULP energy per Si atom -12389.722243 kJ/mol
# Density = 2.067046 g / cm^3
# Si number density = 20.717613 Si / 1000 Ang^3
#
#
#
# Elastic Constant Matrix: (Units=GPa)
#
#
# Indices 1 2 3 4 5 6 
#
# 1 187.2166 84.0485 22.5832 0.0000 0.0000 0.0000
# 2 84.0485 187.2167 22.5833 0.0000 0.0000 0.0000
# 3 22.5832 22.5833 17.5348 0.0000 0.0000 0.0000
# 4 0.0000 0.0000 0.0000 17.5598 0.0000 0.0000
# 5 0.0000 0.0000 0.0000 0.0000 17.5593 0.0000
# 6 0.0000 0.0000 0.0000 0.0000 0.0000 27.8743
#
#
#
# Elastic Compliance Matrix: (Units=1/GPa)
#
#
# Indices 1 2 3 4 5 6 
#
# 1 0.007193 -0.002500 -0.006044 0.000000 0.000000 0.000000
# 2 -0.002500 0.007193 -0.006044 0.000000 0.000000 0.000000
# 3 -0.006044 -0.006044 0.072597 0.000000 0.000000 0.000000
# 4 0.000000 0.000000 0.000000 0.056948 0.000000 0.000000
# 5 0.000000 0.000000 0.000000 0.000000 0.056950 0.000000
# 6 0.000000 0.000000 0.000000 0.000000 0.000000 0.035875
#
#
# Mechanical properties :
#
#
# Convention : Reuss Voigt Hill
#
# Bulk Modulus (GPa) = 17.29885 72.26646 44.78265
# Shear Modulus (GPa) = 17.53151 30.11556 23.82354
#
# Velocity S-wave (km/s) = 2.91213 3.81677 3.39472
# Velocity P-wave (km/s) = 4.43568 7.37435 6.08508
#
# Compressibility (1/GPa) = 0.05780730
#
# Stress axis : x y z
#
# Youngs Moduli (GPa) = 139.02732 139.02736 13.77466
#
# Poissons Ratio (x) = 0.34758 0.08325
# Poissons Ratio (y) = 0.34758 0.08325
# Poissons Ratio (z) = 0.84026 0.84026
#
# Static dielectric constant tensor:
#      x y z
#    x 4.228390 0.000000 0.000000 
#    y 0.000000 4.228390 0.000000 
#    z 0.000000 0.000000 3.171160 
# 
# 
# High freq. dielectric constant tensor:
#      x y z
#    x 1.818820 0.000000 0.000000 
#    y 0.000000 1.818820 0.000000 
#    z 0.000000 0.000000 1.760100 
# 
# From -- ./inp_files/4143.got.cif
#   From: 2010.03.12/outbox.cif.g09.slc.cpg/sg135_3_cif.got.tgz:4143.got - 2010.04.06 18:31:24.
