data_PCOD8317308
_publ_section_title
;
Structure prediction by ZEFSAII (Michael W. Deem and Ramdas Pophale) SiO2 
 PCOD8317308
Probable space group: P 42/N N M
;
_chemical_formula_sum "Si O2"
_cell_formula_units_Z 64
_cell_length_a 21.684211
_cell_length_b 21.684211
_cell_length_c 6.529441
_cell_angle_alpha 90.000000
_cell_angle_beta 90.000000
_cell_angle_gamma 90.000000
_cell_volume 3070.175849
_symmetry_space_group_name_H-M "P 42/N N M"
_symmetry_group_IT_number 134
_space_group.IT_coordinate_system_code '2'
_symmetry_cell_setting 'tetragonal'
loop_
_space_group_symop_operation_xyz
x,y,z
1/2-y,x,1/2+z
1/2-x,1/2-y,z
y,1/2-x,1/2+z
x,1/2-y,1/2-z
1/2-x,y,1/2-z
y,x,-z
1/2-y,1/2-x,-z
-x,-y,-z
1/2+y,-x,1/2-z
1/2+x,1/2+y,-z
-y,1/2+x,1/2-z
-x,1/2+y,1/2+z
1/2+x,-y,1/2+z
-y,-x,z
1/2+y,1/2+x,z
loop_
_atom_site_type_symbol
_atom_site_label
_atom_site_fract_x
_atom_site_fract_y
_atom_site_fract_z
Si Si1 0.191229 0.500543 0.134352
Si Si2 0.323927 0.920455 0.775974
Si Si3 0.970074 0.621229 0.523074
Si Si4 0.689646 0.890308 0.153091
O O1 0.250000 0.528714 0.250000
O O2 0.144377 0.469316 0.289952
O O3 0.160216 0.555611 0.004480
O O4 0.214707 0.449042 0.974282
O O5 0.250000 0.919991 0.750000
O O6 0.351628 0.851628 0.751245
O O7 0.361246 0.963708 0.616612
O O8 0.952061 0.547940 0.500000
O O9 0.914176 0.647048 0.662331
O O10 0.750000 0.857442 0.250000
O O11 0.656276 0.843725 0.000000
#
# Coordination Sequence:
#
# PCOD8317308 Si02
#       4
#    16  16  16  16
#     4  11  19  39  66  91 123 165 218 268 326 391
#     4  11  25  43  66  98 131 170 219 271 330 401
#     4  11  21  38  67  96 128 163 212 269 332 392
#     4  11  21  33  59  92 123 167 222 272 326 394
#
# _framework density 20.845714000000001
#
# number of rings (size 3 to 8) (size 9 to 14) (size 15 to 20)
#    0.000    1.000    7.500    1.500    0.000    1.750 
#    0.000    1.250    0.000   15.000    0.000    0.000 
#    0.000    0.000    0.000    0.000    0.000    0.000 
#
# Total GULP energy -792977.971232 kJ/mol
# GULP energy per Si atom -12390.280801 kJ/mol
# Density = 2.079827 g / cm^3
# Si number density = 20.845714 Si / 1000 Ang^3
#
#
#
# Elastic Constant Matrix: (Units=GPa)
#
#
# Indices 1 2 3 4 5 6 
#
# 1 90.1091 76.2020 39.8043 0.0000 0.0000 0.0000
# 2 76.2020 90.1107 39.8052 0.0000 0.0000 0.0000
# 3 39.8043 39.8052 128.3807 0.0000 0.0000 0.0000
# 4 0.0000 0.0000 0.0000 16.5018 0.0000 0.0000
# 5 0.0000 0.0000 0.0000 0.0000 16.5009 0.0000
# 6 0.0000 0.0000 0.0000 0.0000 0.0000 32.6962
#
#
#
# Elastic Compliance Matrix: (Units=1/GPa)
#
#
# Indices 1 2 3 4 5 6 
#
# 1 0.039482 -0.032421 -0.002189 0.000000 0.000000 0.000000
# 2 -0.032421 0.039481 -0.002189 0.000000 0.000000 0.000000
# 3 -0.002189 -0.002189 0.009147 0.000000 0.000000 0.000000
# 4 0.000000 0.000000 0.000000 0.060600 0.000000 0.000000
# 5 0.000000 0.000000 0.000000 0.000000 0.060603 0.000000
# 6 0.000000 0.000000 0.000000 0.000000 0.000000 0.030585
#
#
# Mechanical properties :
#
#
# Convention : Reuss Voigt Hill
#
# Bulk Modulus (GPa) = 68.91079 68.91375 68.91227
# Shear Modulus (GPa) = 15.70691 23.32570 19.51631
#
# Velocity S-wave (km/s) = 2.74794 3.34873 3.06310
# Velocity P-wave (km/s) = 6.57249 6.93417 6.75575
#
# Compressibility (1/GPa) = 0.01451151
#
# Stress axis : x y z
#
# Youngs Moduli (GPa) = 25.32830 25.32867 109.32711
#
# Poissons Ratio (x) = 0.82117 0.23932
# Poissons Ratio (y) = 0.82116 0.23936
# Poissons Ratio (z) = 0.05544 0.05545
#
# Static dielectric constant tensor:
#      x y z
#    x 3.523430 0.000000 0.000000 
#    y 0.000000 3.523430 0.000000 
#    z 0.000000 0.000000 4.189610 
# 
# 
# High freq. dielectric constant tensor:
#      x y z
#    x 1.791710 0.000000 0.000000 
#    y 0.000000 1.791710 0.000000 
#    z 0.000000 0.000000 1.842520 
# 
# From -- ./inp_files/931.got.cif
#   From: 2010.03.12/outbox.cif.g09.slc.cpg/sg134_1_cif.got.tgz:931.got - 2010.04.06 18:17:22.
