data_PCOD8317573
_publ_section_title
;
Structure prediction by ZEFSAII (Michael W. Deem and Ramdas Pophale) SiO2 
 PCOD8317573
Probable space group: P 42/M B C
;
_chemical_formula_sum "Si O2"
_cell_formula_units_Z 96
_cell_length_a 14.786565
_cell_length_b 14.786565
_cell_length_c 19.671403
_cell_angle_alpha 90.000000
_cell_angle_beta 90.000000
_cell_angle_gamma 90.000000
_cell_volume 4301.004819
_symmetry_space_group_name_H-M "P 42/M B C"
_symmetry_group_IT_number 135
_symmetry_cell_setting 'tetragonal'
loop_
_space_group_symop_operation_xyz
x,y,z
-y,x,1/2+z
-x,-y,z
y,-x,1/2+z
1/2+x,1/2-y,-z
1/2-x,1/2+y,-z
1/2+y,1/2+x,1/2-z
1/2-y,1/2-x,1/2-z
-x,-y,-z
y,-x,1/2-z
x,y,-z
-y,x,1/2-z
1/2-x,1/2+y,z
1/2+x,1/2-y,z
1/2-y,1/2-x,1/2+z
1/2+y,1/2+x,1/2+z
loop_
_atom_site_type_symbol
_atom_site_label
_atom_site_fract_x
_atom_site_fract_y
_atom_site_fract_z
Si Si1 0.587911 0.052995 0.672332
Si Si2 0.982471 0.223238 0.804980
Si Si3 0.259214 0.162403 0.075943
Si Si4 0.836814 0.879359 0.575365
Si Si5 0.815175 0.180265 0.283427
Si Si6 0.291670 0.955014 0.923058
O O1 0.581169 0.081169 0.750000
O O2 0.598741 0.141666 0.626526
O O3 0.500000 0.000000 0.646534
O O4 0.676012 0.990849 0.664435
O O5 0.956986 0.156512 0.867473
O O6 0.905383 0.223343 0.747662
O O7 0.073772 0.190692 0.768021
O O8 0.337795 0.236414 0.081338
O O9 0.187537 0.185187 0.134684
O O10 0.297939 0.062255 0.089439
O O11 0.214850 0.166832 0.000000
O O12 0.851151 0.920573 0.500000
O O13 0.915984 0.807951 0.591332
O O14 0.728894 0.228894 0.250000
O O15 0.319973 0.930939 0.000000
#
# Coordination Sequence:
#
# PCOD8317573 Si02
#       6
#    16  16  16  16  16  16
#     4  11  24  38  64 102 135 172 225 289 354 415
#     4  12  27  43  68  99 138 184 228 281 340 413
#     4  10  21  41  71 100 134 180 226 283 347 407
#     4  10  22  42  67  98 135 177 228 281 340 409
#     4  12  27  46  70 101 141 180 232 283 343 407
#     4  10  22  42  69  99 136 179 228 287 345 407
#
# _framework density 22.320367000000001
#
# number of rings (size 3 to 8) (size 9 to 14) (size 15 to 20)
#    0.000    1.167    1.667    3.500    7.000    2.000 
#    0.000    0.000    0.000    3.000    0.000    0.000 
#    0.000    0.000    0.000    0.000    0.000    0.000 
#
# Total GULP energy -1190509.620278 kJ/mol
# GULP energy per Si atom -12401.141878 kJ/mol
# Density = 2.226956 g / cm^3
# Si number density = 22.320367 Si / 1000 Ang^3
#
#
#
# Elastic Constant Matrix: (Units=GPa)
#
#
# Indices 1 2 3 4 5 6 
#
# 1 87.9429 34.6895 22.9698 0.0000 0.0000 0.0000
# 2 34.6895 87.9429 22.9698 0.0000 0.0000 0.0000
# 3 22.9698 22.9698 124.8342 0.0000 0.0000 0.0000
# 4 0.0000 0.0000 0.0000 28.9243 0.0000 0.0000
# 5 0.0000 0.0000 0.0000 0.0000 28.9243 0.0000
# 6 0.0000 0.0000 0.0000 0.0000 0.0000 27.9932
#
#
#
# Elastic Compliance Matrix: (Units=1/GPa)
#
#
# Indices 1 2 3 4 5 6 
#
# 1 0.013768 -0.005010 -0.001612 0.000000 0.000000 0.000000
# 2 -0.005010 0.013768 -0.001612 0.000000 0.000000 0.000000
# 3 -0.001612 -0.001612 0.008604 0.000000 0.000000 0.000000
# 4 0.000000 0.000000 0.000000 0.034573 0.000000 0.000000
# 5 0.000000 0.000000 0.000000 0.000000 0.034573 0.000000
# 6 0.000000 0.000000 0.000000 0.000000 0.000000 0.035723
#
#
# Mechanical properties :
#
#
# Convention : Reuss Voigt Hill
#
# Bulk Modulus (GPa) = 50.82879 51.33090 51.07985
# Shear Modulus (GPa) = 30.48166 31.84107 31.16137
#
# Velocity S-wave (km/s) = 3.69947 3.78106 3.74049
# Velocity P-wave (km/s) = 6.40858 6.48916 6.44900
#
# Compressibility (1/GPa) = 0.01967389
#
# Stress axis : x y z
#
# Youngs Moduli (GPa) = 72.63143 72.63143 116.22939
#
# Poissons Ratio (x) = 0.36388 0.18731
# Poissons Ratio (y) = 0.36388 0.18731
# Poissons Ratio (z) = 0.11705 0.11705
#
# Static dielectric constant tensor:
#      x y z
#    x 3.924250 0.000000 0.000000 
#    y 0.000000 3.924250 0.000000 
#    z 0.000000 0.000000 4.303120 
# 
# 
# High freq. dielectric constant tensor:
#      x y z
#    x 1.868870 0.000000 0.000000 
#    y 0.000000 1.868870 0.000000 
#    z 0.000000 0.000000 1.898530 
# 
# From -- ./inp_files/5489.got.cif
#   From: 2010.03.12/outbox.cif.g09.slc.cpg/sg135_3_cif.got.tgz:5489.got - 2010.04.06 18:31:24.
