data_PCOD8317936
_publ_section_title
;
Structure prediction by ZEFSAII (Michael W. Deem and Ramdas Pophale) SiO2 
 PCOD8317936
Probable space group: P 42/M N M
;
_chemical_formula_sum "Si O2"
_cell_formula_units_Z 112
_cell_length_a 17.505158
_cell_length_b 17.505158
_cell_length_c 17.661397
_cell_angle_alpha 90.000000
_cell_angle_beta 90.000000
_cell_angle_gamma 90.000000
_cell_volume 5411.991713
_symmetry_space_group_name_H-M "P 42/M N M"
_symmetry_group_IT_number 136
_symmetry_cell_setting 'tetragonal'
loop_
_space_group_symop_operation_xyz
x,y,z
1/2-y,1/2+x,1/2+z
-x,-y,z
1/2+y,1/2-x,1/2+z
1/2+x,1/2-y,1/2-z
1/2-x,1/2+y,1/2-z
y,x,-z
-y,-x,-z
-x,-y,-z
1/2+y,1/2-x,1/2-z
x,y,-z
1/2-y,1/2+x,1/2-z
1/2-x,1/2+y,1/2+z
1/2+x,1/2-y,1/2+z
-y,-x,z
y,x,z
loop_
_atom_site_type_symbol
_atom_site_label
_atom_site_fract_x
_atom_site_fract_y
_atom_site_fract_z
Si Si1 0.262062 0.614236 0.412636
Si Si2 0.781130 0.101229 0.723648
Si Si3 0.604278 0.927646 0.153226
Si Si4 0.963407 0.290598 0.585156
Si Si5 0.868546 0.591579 0.686834
Si Si6 0.743985 0.380565 0.139815
Si Si7 0.454604 0.663470 0.723335
O O1 0.265119 0.588373 0.500000
O O2 0.303395 0.696606 0.400999
O O3 0.175074 0.618277 0.383854
O O4 0.305727 0.550279 0.362844
O O5 0.813917 0.186084 0.739200
O O6 0.712778 0.073666 0.776360
O O7 0.756985 0.096439 0.635875
O O8 0.845926 0.039743 0.744825
O O9 0.531824 0.878856 0.119240
O O10 0.606370 0.927927 0.244751
O O11 0.604863 0.018792 0.134705
O O12 0.932415 0.292965 0.500000
O O13 0.044415 0.245940 0.586623
O O14 0.853793 0.667741 0.637963
O O15 0.685975 0.314026 0.109315
O O16 0.721255 0.404315 0.224817
O O17 0.421235 0.578766 0.728347
#
# Coordination Sequence:
#
# PCOD8317936 Si02
#       7
#    16  16  16  16  16  16  16
#     4  10  19  33  57  86 117 154 191 235 301 367
#     4  10  20  34  58  90 116 149 194 242 296 353
#     4  11  21  35  54  86 124 154 190 243 299 354
#     4  10  23  40  57  84 120 155 193 243 305 366
#     4  11  20  35  56  85 115 153 195 248 294 351
#     4  10  20  37  61  82 109 154 204 247 293 357
#     4   9  17  34  55  82 115 150 194 242 289 346
#
# _framework density 20.694783000000001
#
# number of rings (size 3 to 8) (size 9 to 14) (size 15 to 20)
#    0.000    1.857    2.857    2.571    0.000    5.143 
#    0.000    2.143    0.000    0.429    0.000    6.000 
#    0.000    0.000    0.000    0.000    0.000    0.000 
#
# Total GULP energy -1387626.339614 kJ/mol
# GULP energy per Si atom -12389.520889 kJ/mol
# Density = 2.064768 g / cm^3
# Si number density = 20.694783 Si / 1000 Ang^3
#
#
#
# Elastic Constant Matrix: (Units=GPa)
#
#
# Indices 1 2 3 4 5 6 
#
# 1 75.4236 37.1203 8.7607 0.0000 0.0000 0.0000
# 2 37.1203 75.4236 8.7607 0.0000 0.0000 0.0000
# 3 8.7607 8.7607 72.9464 0.0000 0.0000 0.0000
# 4 0.0000 0.0000 0.0000 18.1495 0.0000 0.0000
# 5 0.0000 0.0000 0.0000 0.0000 18.1495 0.0000
# 6 0.0000 0.0000 0.0000 0.0000 0.0000 33.1822
#
#
#
# Elastic Compliance Matrix: (Units=1/GPa)
#
#
# Indices 1 2 3 4 5 6 
#
# 1 0.017581 -0.008526 -0.001087 0.000000 0.000000 0.000000
# 2 -0.008526 0.017581 -0.001087 0.000000 0.000000 0.000000
# 3 -0.001087 -0.001087 0.013970 0.000000 0.000000 0.000000
# 4 0.000000 0.000000 0.000000 0.055098 0.000000 0.000000
# 5 0.000000 0.000000 0.000000 0.000000 0.055098 0.000000
# 6 0.000000 0.000000 0.000000 0.000000 0.000000 0.030137
#
#
# Mechanical properties :
#
#
# Convention : Reuss Voigt Hill
#
# Bulk Modulus (GPa) = 36.06265 37.00857 36.53561
# Shear Modulus (GPa) = 22.71588 25.17302 23.94445
#
# Velocity S-wave (km/s) = 3.31669 3.49147 3.40520
# Velocity P-wave (km/s) = 5.66843 5.84600 5.75790
#
# Compressibility (1/GPa) = 0.02772952
#
# Stress axis : x y z
#
# Youngs Moduli (GPa) = 56.87929 56.87929 71.58251
#
# Poissons Ratio (x) = 0.48497 0.07784
# Poissons Ratio (y) = 0.48497 0.07784
# Poissons Ratio (z) = 0.06185 0.06185
#
# Static dielectric constant tensor:
#      x y z
#    x 3.708740 0.000000 0.000000 
#    y 0.000000 3.708740 0.000000 
#    z 0.000000 0.000000 3.453830 
# 
# 
# High freq. dielectric constant tensor:
#      x y z
#    x 1.805040 0.000000 0.000000 
#    y 0.000000 1.805040 0.000000 
#    z 0.000000 0.000000 1.776580 
# 
# From -- ./inp_files/7780.got.cif
#   From: 2010.03.12/outbox.cif.g09.slc.cpg/sg136_4_cif.got.tgz:7780.got - 2010.04.06 18:39:43.
