data_PCOD8317627
_publ_section_title
;
Structure prediction by ZEFSAII (Michael W. Deem and Ramdas Pophale) SiO2 
 PCOD8317627
Probable space group: P 42/M B C
;
_chemical_formula_sum "Si O2"
_cell_formula_units_Z 112
_cell_length_a 14.637815
_cell_length_b 14.637815
_cell_length_c 26.969412
_cell_angle_alpha 90.000000
_cell_angle_beta 90.000000
_cell_angle_gamma 90.000000
_cell_volume 5778.617998
_symmetry_space_group_name_H-M "P 42/M B C"
_symmetry_group_IT_number 135
_symmetry_cell_setting 'tetragonal'
loop_
_space_group_symop_operation_xyz
x,y,z
-y,x,1/2+z
-x,-y,z
y,-x,1/2+z
1/2+x,1/2-y,-z
1/2-x,1/2+y,-z
1/2+y,1/2+x,1/2-z
1/2-y,1/2-x,1/2-z
-x,-y,-z
y,-x,1/2-z
x,y,-z
-y,x,1/2-z
1/2-x,1/2+y,z
1/2+x,1/2-y,z
1/2-y,1/2-x,1/2+z
1/2+y,1/2+x,1/2+z
loop_
_atom_site_type_symbol
_atom_site_label
_atom_site_fract_x
_atom_site_fract_y
_atom_site_fract_z
Si Si1 0.291932 0.288700 0.797111
Si Si2 0.131200 0.053316 0.760359
Si Si3 0.141236 0.683305 0.619313
Si Si4 0.177387 0.242851 0.943585
Si Si5 0.724956 0.526658 0.147956
Si Si6 0.028754 0.726608 0.057000
Si Si7 0.387953 0.665466 0.554453
O O1 0.225884 0.274117 0.750000
O O2 0.393594 0.301540 0.776148
O O3 0.302285 0.201847 0.831904
O O4 0.251679 0.375455 0.827433
O O5 0.040318 0.112418 0.768456
O O6 0.168608 0.036798 0.814931
O O7 0.161200 0.771874 0.585044
O O8 0.157739 0.587005 0.591563
O O9 0.033417 0.685481 0.633845
O O10 0.240105 0.332447 0.939157
O O11 0.075366 0.265153 0.923008
O O12 0.167669 0.210091 0.000000
O O13 0.663474 0.538778 0.098479
O O14 0.077090 0.824594 0.060532
O O15 0.030820 0.690849 0.000000
O O16 0.434808 0.663443 0.500000
#
# Coordination Sequence:
#
# PCOD8317627 Si02
#       7
#    16  16  16  16  16  16  16
#     4  11  21  40  58  81 116 155 197 247 295 348
#     4   9  20  37  59  88 114 148 200 246 294 356
#     4  11  21  36  60  88 111 153 197 241 300 352
#     4   9  18  36  60  86 118 157 197 236 291 358
#     4  11  21  37  60  87 118 154 195 243 302 351
#     4   9  18  36  60  85 118 157 195 241 293 352
#     4   9  18  35  58  87 122 154 191 239 296 359
#
# _framework density 19.381798
#
# number of rings (size 3 to 8) (size 9 to 14) (size 15 to 20)
#    0.000    2.143    4.286    1.286    0.000    2.286 
#    5.143    0.714    0.000    5.143    0.000    0.000 
#    0.000    0.000    0.000    0.000    0.000    0.000 
#
# Total GULP energy -1388046.573010 kJ/mol
# GULP energy per Si atom -12393.272973 kJ/mol
# Density = 1.933768 g / cm^3
# Si number density = 19.381798 Si / 1000 Ang^3
#
#
#
# Elastic Constant Matrix: (Units=GPa)
#
#
# Indices 1 2 3 4 5 6 
#
# 1 65.6405 -3.3071 13.3144 0.0000 0.0000 0.0000
# 2 -3.3071 65.6411 13.3151 0.0000 0.0000 0.0000
# 3 13.3144 13.3151 91.0272 0.0000 0.0000 0.0000
# 4 0.0000 0.0000 0.0000 27.8527 0.0000 0.0000
# 5 0.0000 0.0000 0.0000 0.0000 27.8525 0.0000
# 6 0.0000 0.0000 0.0000 0.0000 0.0000 15.7755
#
#
#
# Elastic Compliance Matrix: (Units=1/GPa)
#
#
# Indices 1 2 3 4 5 6 
#
# 1 0.015808 0.001304 -0.002503 0.000000 0.000000 0.000000
# 2 0.001304 0.015808 -0.002503 0.000000 0.000000 0.000000
# 3 -0.002503 -0.002503 0.011718 0.000000 0.000000 0.000000
# 4 0.000000 0.000000 0.000000 0.035903 0.000000 0.000000
# 5 0.000000 0.000000 0.000000 0.000000 0.035903 0.000000
# 6 0.000000 0.000000 0.000000 0.000000 0.000000 0.063389
#
#
# Mechanical properties :
#
#
# Convention : Reuss Voigt Hill
#
# Bulk Modulus (GPa) = 27.83197 29.88373 28.85785
# Shear Modulus (GPa) = 25.26402 27.56191 26.41296
#
# Velocity S-wave (km/s) = 3.61431 3.77510 3.69558
# Velocity P-wave (km/s) = 5.63992 5.86973 5.75597
#
# Compressibility (1/GPa) = 0.03592991
#
# Stress axis : x y z
#
# Youngs Moduli (GPa) = 63.25948 63.25995 85.33901
#
# Poissons Ratio (x) = -0.08250 0.21360
# Poissons Ratio (y) = -0.08250 0.21361
# Poissons Ratio (z) = 0.15834 0.15834
#
# Static dielectric constant tensor:
#      x y z
#    x 3.438240 0.000000 0.000000 
#    y 0.000000 3.438240 0.000000 
#    z 0.000000 0.000000 3.838960 
# 
# 
# High freq. dielectric constant tensor:
#      x y z
#    x 1.734900 0.000000 0.000000 
#    y 0.000000 1.734900 0.000000 
#    z 0.000000 0.000000 1.772000 
# 
# From -- ./inp_files/6533.got.cif
#   From: 2010.03.12/outbox.cif.g09.slc.cpg/sg135_4_cif.got.tgz:6533.got - 2010.04.06 18:31:24.
