data_PCOD8317639
_publ_section_title
;
Structure prediction by ZEFSAII (Michael W. Deem and Ramdas Pophale) SiO2 
 PCOD8317639
Probable space group: P 42/M B C
;
_chemical_formula_sum "Si O2"
_cell_formula_units_Z 112
_cell_length_a 14.585238
_cell_length_b 14.585238
_cell_length_c 23.345694
_cell_angle_alpha 90.000000
_cell_angle_beta 90.000000
_cell_angle_gamma 90.000000
_cell_volume 4966.310050
_symmetry_space_group_name_H-M "P 42/M B C"
_symmetry_group_IT_number 135
_symmetry_cell_setting 'tetragonal'
loop_
_space_group_symop_operation_xyz
x,y,z
-y,x,1/2+z
-x,-y,z
y,-x,1/2+z
1/2+x,1/2-y,-z
1/2-x,1/2+y,-z
1/2+y,1/2+x,1/2-z
1/2-y,1/2-x,1/2-z
-x,-y,-z
y,-x,1/2-z
x,y,-z
-y,x,1/2-z
1/2-x,1/2+y,z
1/2+x,1/2-y,z
1/2-y,1/2-x,1/2+z
1/2+y,1/2+x,1/2+z
loop_
_atom_site_type_symbol
_atom_site_label
_atom_site_fract_x
_atom_site_fract_y
_atom_site_fract_z
Si Si1 0.789950 0.169502 0.936379
Si Si2 0.782692 0.151565 0.722609
Si Si3 0.730775 0.990266 0.125039
Si Si4 0.176219 0.834941 0.403944
Si Si5 0.759562 0.452337 0.258094
Si Si6 0.051661 0.591942 0.852192
Si Si7 0.752647 0.480059 0.566153
O O1 0.743059 0.094830 0.894687
O O2 0.725450 0.258250 0.943932
O O3 0.887729 0.202975 0.911434
O O4 0.802406 0.127030 0.000000
O O5 0.687042 0.187042 0.750000
O O6 0.789661 0.191591 0.659388
O O7 0.867405 0.189121 0.760783
O O8 0.786752 0.042094 0.714099
O O9 0.810714 0.931768 0.094497
O O10 0.722075 0.985718 0.193724
O O11 0.636046 0.941080 0.107697
O O12 0.179969 0.939250 0.424433
O O13 0.850801 0.423626 0.294127
O O14 0.995398 0.658359 0.895123
O O15 0.000000 0.500000 0.832681
O O16 0.781954 0.470999 0.500000
#
# Coordination Sequence:
#
# PCOD8317639 Si02
#       7
#    16  16  16  16  16  16  16
#     4  11  25  45  70 100 136 185 239 295 357 419
#     4  11  24  41  67  98 138 184 227 286 349 418
#     4  11  25  41  69 102 137 181 230 287 353 425
#     4  11  22  44  67  95 138 181 227 292 352 416
#     4  11  25  42  67 102 140 182 229 283 350 426
#     4  12  25  44  70 105 146 184 237 291 354 428
#     4  11  25  45  71 100 140 187 237 303 357 417
#
# _framework density 22.551956000000001
#
# number of rings (size 3 to 8) (size 9 to 14) (size 15 to 20)
#    0.000    0.857    2.857    4.286    4.000    3.429 
#    0.000    4.286    0.000    0.000    0.000    0.000 
#    0.000    0.000    0.000    0.000    0.000    0.000 
#
# Total GULP energy -1388496.531279 kJ/mol
# GULP energy per Si atom -12397.290458 kJ/mol
# Density = 2.250063 g / cm^3
# Si number density = 22.551956 Si / 1000 Ang^3
#
#
#
# Elastic Constant Matrix: (Units=GPa)
#
#
# Indices 1 2 3 4 5 6 
#
# 1 119.6193 42.7976 23.8143 0.0000 0.0000 0.0000
# 2 42.7976 119.6193 23.8143 0.0000 0.0000 0.0000
# 3 23.8143 23.8143 76.1307 0.0000 0.0000 0.0000
# 4 0.0000 0.0000 0.0000 31.9003 0.0000 0.0000
# 5 0.0000 0.0000 0.0000 0.0000 31.9003 0.0000
# 6 0.0000 0.0000 0.0000 0.0000 0.0000 38.0933
#
#
#
# Elastic Compliance Matrix: (Units=1/GPa)
#
#
# Indices 1 2 3 4 5 6 
#
# 1 0.009898 -0.003119 -0.002120 0.000000 0.000000 0.000000
# 2 -0.003119 0.009898 -0.002120 0.000000 0.000000 0.000000
# 3 -0.002120 -0.002120 0.014462 0.000000 0.000000 0.000000
# 4 0.000000 0.000000 0.000000 0.031348 0.000000 0.000000
# 5 0.000000 0.000000 0.000000 0.000000 0.031348 0.000000
# 6 0.000000 0.000000 0.000000 0.000000 0.000000 0.026251
#
#
# Mechanical properties :
#
#
# Convention : Reuss Voigt Hill
#
# Bulk Modulus (GPa) = 51.18317 55.13574 53.15945
# Shear Modulus (GPa) = 34.61708 35.37498 34.99603
#
# Velocity S-wave (km/s) = 3.92215 3.96485 3.94356
# Velocity P-wave (km/s) = 6.57692 6.74251 6.66023
#
# Compressibility (1/GPa) = 0.01953767
#
# Stress axis : x y z
#
# Youngs Moduli (GPa) = 101.03063 101.03063 69.14718
#
# Poissons Ratio (x) = 0.31513 0.14662
# Poissons Ratio (y) = 0.31513 0.14662
# Poissons Ratio (z) = 0.21423 0.21423
#
# Static dielectric constant tensor:
#      x y z
#    x 4.057490 0.000000 0.000000 
#    y 0.000000 4.057490 0.000000 
#    z 0.000000 0.000000 4.012310 
# 
# 
# High freq. dielectric constant tensor:
#      x y z
#    x 1.886370 0.000000 0.000000 
#    y 0.000000 1.886370 0.000000 
#    z 0.000000 0.000000 1.894170 
# 
# From -- ./inp_files/6130.got.cif
#   From: 2010.03.12/outbox.cif.g09.slc.cpg/sg135_4_cif.got.tgz:6130.got - 2010.04.06 18:31:24.
