data_PCOD8317287
_publ_section_title
;
Structure prediction by ZEFSAII (Michael W. Deem and Ramdas Pophale) SiO2 
 PCOD8317287
Probable space group: P 42/N N M
;
_chemical_formula_sum "Si O2"
_cell_formula_units_Z 120
_cell_length_a 20.938522
_cell_length_b 20.938522
_cell_length_c 14.324422
_cell_angle_alpha 90.000000
_cell_angle_beta 90.000000
_cell_angle_gamma 90.000000
_cell_volume 6280.137496
_symmetry_space_group_name_H-M "P 42/N N M"
_symmetry_group_IT_number 134
_space_group.IT_coordinate_system_code '2'
_symmetry_cell_setting 'tetragonal'
loop_
_space_group_symop_operation_xyz
x,y,z
1/2-y,x,1/2+z
1/2-x,1/2-y,z
y,1/2-x,1/2+z
x,1/2-y,1/2-z
1/2-x,y,1/2-z
y,x,-z
1/2-y,1/2-x,-z
-x,-y,-z
1/2+y,-x,1/2-z
1/2+x,1/2+y,-z
-y,1/2+x,1/2-z
-x,1/2+y,1/2+z
1/2+x,-y,1/2+z
-y,-x,z
1/2+y,1/2+x,z
loop_
_atom_site_type_symbol
_atom_site_label
_atom_site_fract_x
_atom_site_fract_y
_atom_site_fract_z
Si Si1 0.063289 0.382585 0.320902
Si Si2 0.461102 0.292798 0.016017
Si Si3 0.431346 0.466519 0.627135
Si Si4 0.925005 0.322149 0.787985
Si Si5 0.319081 0.319081 0.000000
Si Si6 0.488423 0.887316 0.378446
Si Si7 0.311010 0.186789 0.699411
Si Si8 0.509295 0.651771 0.460544
O O1 0.031766 0.323898 0.379588
O O2 0.025876 0.392896 0.224201
O O3 0.067673 0.448513 0.379100
O O4 0.136796 0.367503 0.297925
O O5 0.392696 0.309767 0.975742
O O6 0.511335 0.327402 0.948616
O O7 0.464810 0.216294 0.009506
O O8 0.501490 0.498511 0.637597
O O9 0.439769 0.391231 0.599240
O O10 0.392940 0.507373 0.549193
O O11 0.918461 0.250000 0.750000
O O12 0.855391 0.355391 0.782299
O O13 0.976234 0.360606 0.725578
O O14 0.950071 0.327637 0.894870
O O15 0.284434 0.297310 0.905328
O O16 0.430100 0.930100 0.413652
O O17 0.336145 0.250000 0.750000
O O18 0.250000 0.156781 0.750000
#
# Coordination Sequence:
#
# PCOD8317287 Si02
#       8
#    16  16  16  16   8  16  16  16
#     4  11  23  37  57  84 121 153 203 252 301 355
#     4  11  22  39  57  88 117 164 194 251 301 367
#     4  11  24  41  62  90 119 159 209 258 303 360
#     4  11  22  38  63  92 121 154 201 253 311 382
#     4  10  22  39  53  76 118 138 208 246 283 345
#     4  11  21  37  61  89 117 155 198 248 306 363
#     4  10  23  38  54  76 109 156 198 249 285 341
#     4  11  23  39  63  86 122 161 202 249 306 365
#
# _framework density 19.107861
#
# number of rings (size 3 to 8) (size 9 to 14) (size 15 to 20)
#    0.000    1.200    5.333    2.000    5.600    3.333 
#    0.000    0.000    0.000    0.000    0.000    0.000 
#    0.000    0.000    0.000    0.533    0.000    0.000 
#
# Total GULP energy -1486699.020231 kJ/mol
# GULP energy per Si atom -12389.158502 kJ/mol
# Density = 1.906437 g / cm^3
# Si number density = 19.107861 Si / 1000 Ang^3
#
#
#
# Elastic Constant Matrix: (Units=GPa)
#
#
# Indices 1 2 3 4 5 6 
#
# 1 91.6739 41.1867 40.1518 0.0000 0.0000 0.0000
# 2 41.1867 91.6739 40.1518 0.0000 0.0000 0.0000
# 3 40.1518 40.1518 141.6075 0.0000 0.0000 0.0000
# 4 0.0000 0.0000 0.0000 31.1196 0.0000 0.0000
# 5 0.0000 0.0000 0.0000 0.0000 31.1196 0.0000
# 6 0.0000 0.0000 0.0000 0.0000 0.0000 26.5468
#
#
#
# Elastic Compliance Matrix: (Units=1/GPa)
#
#
# Indices 1 2 3 4 5 6 
#
# 1 0.014445 -0.005362 -0.002576 0.000000 0.000000 0.000000
# 2 -0.005362 0.014445 -0.002576 0.000000 0.000000 0.000000
# 3 -0.002576 -0.002576 0.008522 0.000000 0.000000 0.000000
# 4 0.000000 0.000000 0.000000 0.032134 0.000000 0.000000
# 5 0.000000 0.000000 0.000000 0.000000 0.032134 0.000000
# 6 0.000000 0.000000 0.000000 0.000000 0.000000 0.037669
#
#
# Mechanical properties :
#
#
# Convention : Reuss Voigt Hill
#
# Bulk Modulus (GPa) = 61.02406 63.10399 62.06403
# Shear Modulus (GPa) = 30.14985 31.32152 30.73569
#
# Velocity S-wave (km/s) = 3.97656 4.05309 4.01501
# Velocity P-wave (km/s) = 7.28629 7.41621 7.35154
#
# Compressibility (1/GPa) = 0.01638698
#
# Stress axis : x y z
#
# Youngs Moduli (GPa) = 69.22715 69.22715 117.33888
#
# Poissons Ratio (x) = 0.37118 0.30221
# Poissons Ratio (y) = 0.37118 0.30221
# Poissons Ratio (z) = 0.17830 0.17830
#
# Static dielectric constant tensor:
#      x y z
#    x 3.360110 0.000000 0.000000 
#    y 0.000000 3.360110 0.000000 
#    z 0.000000 0.000000 3.759410 
# 
# 
# High freq. dielectric constant tensor:
#      x y z
#    x 1.722680 0.000000 0.000000 
#    y 0.000000 1.722680 0.000000 
#    z 0.000000 0.000000 1.759820 
# 
# From -- ./inp_files/6736.got.cif
#   From: 2010.03.12/outbox.cif.g09.slc.cpg/sg134_4_cif.got.tgz:6736.got - 2010.04.06 18:17:22.
