data_PCOD8317978
_publ_section_title
;
Structure prediction by ZEFSAII (Michael W. Deem and Ramdas Pophale) SiO2 
 PCOD8317978
Probable space group: P 42/M N M
;
_chemical_formula_sum "Si O2"
_cell_formula_units_Z 120
_cell_length_a 25.827310
_cell_length_b 25.827310
_cell_length_c 9.123816
_cell_angle_alpha 90.000000
_cell_angle_beta 90.000000
_cell_angle_gamma 90.000000
_cell_volume 6086.040932
_symmetry_space_group_name_H-M "P 42/M N M"
_symmetry_group_IT_number 136
_symmetry_cell_setting 'tetragonal'
loop_
_space_group_symop_operation_xyz
x,y,z
1/2-y,1/2+x,1/2+z
-x,-y,z
1/2+y,1/2-x,1/2+z
1/2+x,1/2-y,1/2-z
1/2-x,1/2+y,1/2-z
y,x,-z
-y,-x,-z
-x,-y,-z
1/2+y,1/2-x,1/2-z
x,y,-z
1/2-y,1/2+x,1/2-z
1/2-x,1/2+y,1/2+z
1/2+x,1/2-y,1/2+z
-y,-x,z
y,x,z
loop_
_atom_site_type_symbol
_atom_site_label
_atom_site_fract_x
_atom_site_fract_y
_atom_site_fract_z
Si Si1 0.976994 0.679600 0.170424
Si Si2 0.540231 0.459770 0.674660
Si Si3 0.265577 0.437229 0.665390
Si Si4 0.982321 0.846117 0.832078
Si Si5 0.286313 0.139051 0.829629
Si Si6 0.807618 0.890053 0.334954
Si Si7 0.924040 0.497033 0.176403
Si Si8 0.668412 0.752376 0.827389
O O1 0.916889 0.689873 0.211537
O O2 0.996740 0.635691 0.280520
O O3 0.015052 0.727470 0.203179
O O4 0.980787 0.662746 0.000000
O O5 0.500000 0.500000 0.743122
O O6 0.538766 0.461235 0.500000
O O7 0.522562 0.403709 0.733002
O O8 0.255695 0.418221 0.500000
O O9 0.324038 0.459553 0.683418
O O10 0.261399 0.388159 0.768998
O O11 0.944801 0.807949 0.745134
O O12 0.963819 0.844928 0.000000
O O13 0.233365 0.147392 0.742303
O O14 0.321802 0.187720 0.782326
O O15 0.273255 0.141810 0.000000
O O16 0.789714 0.899378 0.500000
O O17 0.863907 0.863907 0.325383
O O18 0.948173 0.549005 0.245267
O O19 0.931249 0.495940 0.000000
O O20 0.712925 0.712925 0.766019
O O21 0.666489 0.746608 0.000000
#
# Coordination Sequence:
#
# PCOD8317978 Si02
#       8
#    16   8  16  16  16  16  16  16
#     4  10  21  38  59  90 123 151 198 255 307 363
#     4   9  18  32  57  91 119 147 199 259 299 351
#     4  10  22  39  61  89 120 157 203 251 303 365
#     4  10  19  36  60  85 115 157 201 245 300 358
#     4  10  21  40  64  87 116 154 202 252 298 354
#     4  11  22  34  54  87 123 153 187 237 299 362
#     4  11  23  40  61  86 119 159 201 246 297 353
#     4  10  23  42  63  90 121 161 209 249 296 362
#
# _framework density 19.717251000000001
#
# number of rings (size 3 to 8) (size 9 to 14) (size 15 to 20)
#    0.000    1.800    2.000    2.400    1.867    4.267 
#    0.000    1.333    0.000    0.800    0.000    0.000 
#    0.000    0.000    0.000    0.000    0.000    0.000 
#
# Total GULP energy -1487688.872990 kJ/mol
# GULP energy per Si atom -12397.407275 kJ/mol
# Density = 1.967237 g / cm^3
# Si number density = 19.717251 Si / 1000 Ang^3
#
#
#
# Elastic Constant Matrix: (Units=GPa)
#
#
# Indices 1 2 3 4 5 6 
#
# 1 116.0847 48.2650 32.8292 0.0000 0.0000 0.0000
# 2 48.2650 116.0847 32.8292 0.0000 0.0000 0.0000
# 3 32.8292 32.8292 61.9453 0.0000 0.0000 0.0000
# 4 0.0000 0.0000 0.0000 27.8571 0.0000 0.0000
# 5 0.0000 0.0000 0.0000 0.0000 27.8571 0.0000
# 6 0.0000 0.0000 0.0000 0.0000 0.0000 25.7456
#
#
#
# Elastic Compliance Matrix: (Units=1/GPa)
#
#
# Indices 1 2 3 4 5 6 
#
# 1 0.011232 -0.003513 -0.004091 0.000000 0.000000 0.000000
# 2 -0.003513 0.011232 -0.004091 0.000000 0.000000 0.000000
# 3 -0.004091 -0.004091 0.020479 0.000000 0.000000 0.000000
# 4 0.000000 0.000000 0.000000 0.035898 0.000000 0.000000
# 5 0.000000 0.000000 0.000000 0.000000 0.035898 0.000000
# 6 0.000000 0.000000 0.000000 0.000000 0.000000 0.038842
#
#
# Mechanical properties :
#
#
# Convention : Reuss Voigt Hill
#
# Bulk Modulus (GPa) = 51.14072 57.99573 54.56823
# Shear Modulus (GPa) = 27.24989 28.30470 27.77730
#
# Velocity S-wave (km/s) = 3.72160 3.79295 3.75745
# Velocity P-wave (km/s) = 6.66787 6.97564 6.82349
#
# Compressibility (1/GPa) = 0.01955389
#
# Stress axis : x y z
#
# Youngs Moduli (GPa) = 89.03193 89.03193 48.82987
#
# Poissons Ratio (x) = 0.31277 0.19975
# Poissons Ratio (y) = 0.31277 0.19975
# Poissons Ratio (z) = 0.36421 0.36421
#
# Static dielectric constant tensor:
#      x y z
#    x 3.626300 0.000000 0.000000 
#    y 0.000000 3.626290 0.000000 
#    z 0.000000 0.000000 3.426690 
# 
# 
# High freq. dielectric constant tensor:
#      x y z
#    x 1.770990 0.000000 0.000000 
#    y 0.000000 1.770990 0.000000 
#    z 0.000000 0.000000 1.753260 
# 
# From -- ./inp_files/2300.got.cif
#   From: 2010.03.12/outbox.cif.g09.slc.cpg/sg136_2_cif.got.tgz:2300.got - 2010.04.06 18:39:43.
