data_PCOD8317560
_publ_section_title
;
Structure prediction by ZEFSAII (Michael W. Deem and Ramdas Pophale) SiO2 
 PCOD8317560
Probable space group: P 42/M B C
;
_chemical_formula_sum "Si O2"
_cell_formula_units_Z 80
_cell_length_a 11.407381
_cell_length_b 11.407381
_cell_length_c 30.862945
_cell_angle_alpha 90.000000
_cell_angle_beta 90.000000
_cell_angle_gamma 90.000000
_cell_volume 4016.143840
_symmetry_space_group_name_H-M "P 42/M B C"
_symmetry_group_IT_number 135
_symmetry_cell_setting 'tetragonal'
loop_
_space_group_symop_operation_xyz
x,y,z
-y,x,1/2+z
-x,-y,z
y,-x,1/2+z
1/2+x,1/2-y,-z
1/2-x,1/2+y,-z
1/2+y,1/2+x,1/2-z
1/2-y,1/2-x,1/2-z
-x,-y,-z
y,-x,1/2-z
x,y,-z
-y,x,1/2-z
1/2-x,1/2+y,z
1/2+x,1/2-y,z
1/2-y,1/2-x,1/2+z
1/2+y,1/2+x,1/2+z
loop_
_atom_site_type_symbol
_atom_site_label
_atom_site_fract_x
_atom_site_fract_y
_atom_site_fract_z
Si Si1 0.447880 0.844330 0.091959
Si Si2 0.192965 0.959762 0.248043
Si Si3 0.904348 0.599053 0.810378
Si Si4 0.342267 0.042593 0.048619
Si Si5 0.608609 0.577684 0.450605
O O1 0.400197 0.876852 0.138868
O O2 0.579682 0.891304 0.084471
O O3 0.451905 0.707013 0.084091
O O4 0.360448 0.903653 0.056756
O O5 0.278722 0.942212 0.288681
O O6 0.274270 0.941808 0.205179
O O7 0.089924 0.862399 0.250216
O O8 0.000000 0.500000 0.798352
O O9 0.210155 0.073930 0.056093
O O10 0.382811 0.075154 0.000000
O O11 0.500000 0.500000 0.436809
O O12 0.647677 0.550459 0.500000
#
# Coordination Sequence:
#
# PCOD8317560 Si02
#       5
#    16  16  16  16  16
#     4  11  22  41  62  92 125 163 212 264 314 373
#     4  10  24  45  68  94 123 167 208 249 316 389
#     4  11  24  41  68  93 129 162 205 263 317 374
#     4  10  21  39  63  86 123 172 214 256 312 375
#     4  10  23  40  61  91 128 172 218 265 317 371
#
# _framework density 19.919605000000001
#
# number of rings (size 3 to 8) (size 9 to 14) (size 15 to 20)
#    0.000    1.600    2.000    3.600    8.400    3.200 
#    3.600    0.000    0.000    0.000    0.000    0.000 
#    0.000    0.000    0.000    0.000    0.000    0.000 
#
# Total GULP energy -991733.414570 kJ/mol
# GULP energy per Si atom -12396.667682 kJ/mol
# Density = 1.987427 g / cm^3
# Si number density = 19.919605 Si / 1000 Ang^3
#
#
#
# Elastic Constant Matrix: (Units=GPa)
#
#
# Indices 1 2 3 4 5 6 
#
# 1 129.6324 76.4996 68.0106 0.0000 0.0000 0.0000
# 2 76.4996 129.6324 68.0106 0.0000 0.0000 0.0000
# 3 68.0106 68.0106 111.2305 0.0000 0.0000 0.0000
# 4 0.0000 0.0000 0.0000 12.6651 0.0000 0.0000
# 5 0.0000 0.0000 0.0000 0.0000 12.6651 0.0000
# 6 0.0000 0.0000 0.0000 0.0000 0.0000 23.9884
#
#
#
# Elastic Compliance Matrix: (Units=1/GPa)
#
#
# Indices 1 2 3 4 5 6 
#
# 1 0.013477 -0.005344 -0.004973 0.000000 0.000000 0.000000
# 2 -0.005344 0.013477 -0.004973 0.000000 0.000000 0.000000
# 3 -0.004973 -0.004973 0.015071 0.000000 0.000000 0.000000
# 4 0.000000 0.000000 0.000000 0.078957 0.000000 0.000000
# 5 0.000000 0.000000 0.000000 0.000000 0.078957 0.000000
# 6 0.000000 0.000000 0.000000 0.000000 0.000000 0.041687
#
#
# Mechanical properties :
#
#
# Convention : Reuss Voigt Hill
#
# Bulk Modulus (GPa) = 87.36651 88.39296 87.87974
# Shear Modulus (GPa) = 18.11467 20.39536 19.25501
#
# Velocity S-wave (km/s) = 3.01888 3.20329 3.11245
# Velocity P-wave (km/s) = 7.49041 7.62579 7.55840
#
# Compressibility (1/GPa) = 0.01144603
#
# Stress axis : x y z
#
# Youngs Moduli (GPa) = 74.20252 74.20252 66.35212
#
# Poissons Ratio (x) = 0.39655 0.32994
# Poissons Ratio (y) = 0.39655 0.32994
# Poissons Ratio (z) = 0.36897 0.36897
#
# Static dielectric constant tensor:
#      x y z
#    x 3.765580 0.000000 0.000000 
#    y 0.000000 3.765580 0.000000 
#    z 0.000000 0.000000 3.713280 
# 
# 
# High freq. dielectric constant tensor:
#      x y z
#    x 1.785260 0.000000 0.000000 
#    y 0.000000 1.785260 0.000000 
#    z 0.000000 0.000000 1.772160 
# 
# From -- ./inp_files/6714.got.cif
#   From: 2010.03.12/outbox.cif.g09.slc.cpg/sg135_4_cif.got.tgz:6714.got - 2010.04.06 18:31:24.
