data_PCOD8317319
_publ_section_title
;
Structure prediction by ZEFSAII (Michael W. Deem and Ramdas Pophale) SiO2 
 PCOD8317319
Probable space group: P 42/N N M
;
_chemical_formula_sum "Si O2"
_cell_formula_units_Z 80
_cell_length_a 16.567781
_cell_length_b 16.567781
_cell_length_c 14.805337
_cell_angle_alpha 90.000000
_cell_angle_beta 90.000000
_cell_angle_gamma 90.000000
_cell_volume 4063.937196
_symmetry_space_group_name_H-M "P 42/N N M"
_symmetry_group_IT_number 134
_space_group.IT_coordinate_system_code '2'
_symmetry_cell_setting 'tetragonal'
loop_
_space_group_symop_operation_xyz
x,y,z
1/2-y,x,1/2+z
1/2-x,1/2-y,z
y,1/2-x,1/2+z
x,1/2-y,1/2-z
1/2-x,y,1/2-z
y,x,-z
1/2-y,1/2-x,-z
-x,-y,-z
1/2+y,-x,1/2-z
1/2+x,1/2+y,-z
-y,1/2+x,1/2-z
-x,1/2+y,1/2+z
1/2+x,-y,1/2+z
-y,-x,z
1/2+y,1/2+x,z
loop_
_atom_site_type_symbol
_atom_site_label
_atom_site_fract_x
_atom_site_fract_y
_atom_site_fract_z
Si Si1 0.447523 0.821803 0.180587
Si Si2 0.197831 0.562687 0.837438
Si Si3 0.038240 0.407252 0.586898
Si Si4 0.425566 0.440414 0.720623
Si Si5 0.781317 0.087549 0.977704
O O1 0.461282 0.750000 0.250000
O O2 0.385502 0.885502 0.227181
O O3 0.532157 0.869265 0.161853
O O4 0.407028 0.797111 0.085551
O O5 0.250000 0.585446 0.750000
O O6 0.132782 0.632782 0.855272
O O7 0.156719 0.474107 0.823944
O O8 0.257614 0.557223 0.922779
O O9 0.096959 0.403042 0.500000
O O10 0.089543 0.402069 0.679451
O O11 0.992936 0.492936 0.587263
O O12 0.976225 0.334483 0.577445
O O13 0.482862 0.517139 0.729470
O O14 0.826620 0.173381 0.986198
#
# Coordination Sequence:
#
# PCOD8317319 Si02
#       5
#    16  16  16  16  16
#     4  11  21  35  56  83 117 152 189 239 296 352
#     4  11  23  38  57  83 118 157 194 239 296 360
#     4   9  16  30  53  78 105 141 191 241 276 325
#     4   9  19  36  55  79 111 151 199 239 280 341
#     4  11  22  35  54  86 119 154 195 236 297 364
#
# _framework density 19.685343
#
# number of rings (size 3 to 8) (size 9 to 14) (size 15 to 20)
#    0.000    1.800    2.000    3.000    0.000    7.600 
#    0.000    3.000    0.000    0.600    0.000    1.400 
#    0.000    0.000    0.000    0.000    0.000    0.000 
#
# Total GULP energy -991412.991112 kJ/mol
# GULP energy per Si atom -12392.662389 kJ/mol
# Density = 1.964054 g / cm^3
# Si number density = 19.685343 Si / 1000 Ang^3
#
#
#
# Elastic Constant Matrix: (Units=GPa)
#
#
# Indices 1 2 3 4 5 6 
#
# 1 50.2057 46.7324 31.9355 0.0000 0.0000 0.0000
# 2 46.7324 50.2069 31.9356 0.0000 0.0000 0.0000
# 3 31.9355 31.9356 127.3995 0.0000 0.0000 0.0000
# 4 0.0000 0.0000 0.0000 33.5680 0.0000 0.0000
# 5 0.0000 0.0000 0.0000 0.0000 33.5680 0.0000
# 6 0.0000 0.0000 0.0000 0.0000 0.0000 38.1700
#
#
#
# Elastic Compliance Matrix: (Units=1/GPa)
#
#
# Indices 1 2 3 4 5 6 
#
# 1 0.150110 -0.137751 -0.003098 0.000000 0.000000 0.000000
# 2 -0.137751 0.150106 -0.003097 0.000000 0.000000 0.000000
# 3 -0.003098 -0.003097 0.009402 0.000000 0.000000 0.000000
# 4 0.000000 0.000000 0.000000 0.029790 0.000000 0.000000
# 5 0.000000 0.000000 0.000000 0.000000 0.029790 0.000000
# 6 0.000000 0.000000 0.000000 0.000000 0.000000 0.026199
#
#
# Mechanical properties :
#
#
# Convention : Reuss Voigt Hill
#
# Bulk Modulus (GPa) = 46.02853 49.89102 47.95977
# Shear Modulus (GPa) = 7.24081 28.87509 18.05795
#
# Velocity S-wave (km/s) = 1.91996 3.83408 3.03203
# Velocity P-wave (km/s) = 5.32428 6.70817 6.05588
#
# Compressibility (1/GPa) = 0.02172566
#
# Stress axis : x y z
#
# Youngs Moduli (GPa) = 6.66180 6.66198 106.35767
#
# Poissons Ratio (x) = 0.91769 0.32948
# Poissons Ratio (y) = 0.91767 0.32940
# Poissons Ratio (z) = 0.02064 0.02063
#
# Static dielectric constant tensor:
#      x y z
#    x 3.535080 0.000000 0.000000 
#    y 0.000000 3.535080 0.000000 
#    z 0.000000 0.000000 3.780390 
# 
# 
# High freq. dielectric constant tensor:
#      x y z
#    x 1.744700 0.000000 0.000000 
#    y 0.000000 1.744700 0.000000 
#    z 0.000000 0.000000 1.777480 
# 
# From -- ./inp_files/6316.got.cif
#   From: 2010.03.12/outbox.cif.g09.slc.cpg/sg134_4_cif.got.tgz:6316.got - 2010.04.06 18:17:22.
