data_PCOD8317002
_publ_section_title
;
Structure prediction by ZEFSAII (Michael W. Deem and Ramdas Pophale) SiO2 
 PCOD8317002
Probable space group: P 42/N B C
;
_chemical_formula_sum "Si O2"
_cell_formula_units_Z 52
_cell_length_a 15.376499
_cell_length_b 15.376499
_cell_length_c 8.830807
_cell_angle_alpha 90.000000
_cell_angle_beta 90.000000
_cell_angle_gamma 90.000000
_cell_volume 2087.927055
_symmetry_space_group_name_H-M "P 42/N B C"
_symmetry_group_IT_number 133
_space_group.IT_coordinate_system_code '2'
_symmetry_cell_setting 'tetragonal'
loop_
_space_group_symop_operation_xyz
x,y,z
1/2-y,x,1/2+z
1/2-x,1/2-y,z
y,1/2-x,1/2+z
x,1/2-y,-z
1/2-x,y,-z
y,x,1/2-z
1/2-y,1/2-x,1/2-z
-x,-y,-z
1/2+y,-x,1/2-z
1/2+x,1/2+y,-z
-y,1/2+x,1/2-z
-x,1/2+y,z
1/2+x,-y,z
-y,-x,1/2+z
1/2+y,1/2+x,1/2+z
loop_
_atom_site_type_symbol
_atom_site_label
_atom_site_fract_x
_atom_site_fract_y
_atom_site_fract_z
Si Si1 0.169251 0.908659 0.905687
Si Si2 0.916987 0.487016 0.639384
Si Si3 0.250000 0.750000 0.250000
Si Si4 0.838730 0.836739 0.422464
O O1 0.186980 0.808324 0.856724
O O2 0.163196 0.963443 0.750577
O O3 0.250000 0.945354 0.000000
O O4 0.083229 0.922540 0.007253
O O5 0.002838 0.497163 0.750000
O O6 0.904437 0.581847 0.562650
O O7 0.878994 0.750000 0.500000
O O8 0.750000 0.865032 0.500000
O O9 0.816365 0.816365 0.250000
#
# Coordination Sequence:
#
# PCOD8317002 Si02
#       4
#    16  16   4  16
#     4  12  26  46  78 117 160 208 258 328 401 494
#     4  11  27  47  71 110 159 207 259 320 395 476
#     4  12  26  44  82 120 162 208 270 312 430 468
#     4  10  22  42  71 103 139 194 257 316 383 456
#
# _framework density 24.905085
#
# number of rings (size 3 to 8) (size 9 to 14) (size 15 to 20)
#    0.000    0.923    3.077    3.231    4.308    4.923 
#    0.000    9.231    0.000    0.000    0.000    0.000 
#    0.000    0.000    0.000    0.000    0.000    0.000 
#
# Total GULP energy -644199.796791 kJ/mol
# GULP energy per Si atom -12388.457631 kJ/mol
# Density = 2.484840 g / cm^3
# Si number density = 24.905085 Si / 1000 Ang^3
#
#
#
# Elastic Constant Matrix: (Units=GPa)
#
#
# Indices 1 2 3 4 5 6 
#
# 1 156.8083 30.4070 65.5021 0.0000 0.0000 0.0000
# 2 30.4070 156.8089 65.5019 0.0000 0.0000 0.0000
# 3 65.5021 65.5019 157.9745 0.0000 0.0000 0.0000
# 4 0.0000 0.0000 0.0000 55.5097 0.0000 0.0000
# 5 0.0000 0.0000 0.0000 0.0000 55.5098 0.0000
# 6 0.0000 0.0000 0.0000 0.0000 0.0000 -15.4971
#
#
#
# Elastic Compliance Matrix: (Units=1/GPa)
#
#
# Indices 1 2 3 4 5 6 
#
# 1 0.007718 -0.000193 -0.003120 0.000000 0.000000 0.000000
# 2 -0.000193 0.007718 -0.003120 0.000000 0.000000 0.000000
# 3 -0.003120 -0.003120 0.008917 0.000000 0.000000 0.000000
# 4 0.000000 0.000000 0.000000 0.018015 0.000000 0.000000
# 5 0.000000 0.000000 0.000000 0.000000 0.018015 0.000000
# 6 0.000000 0.000000 0.000000 0.000000 0.000000 -0.064528
#
#
# Mechanical properties :
#
#
# Convention : Reuss Voigt Hill
#
# Bulk Modulus (GPa) = 87.05657 88.26819 87.66238
# Shear Modulus (GPa) = 398.39350 39.78320 219.08835
#
# Velocity S-wave (km/s) = 12.66144 4.00108 9.38937
# Velocity P-wave (km/s) = 15.77278 7.54079 12.36212
#
# Compressibility (1/GPa) = 0.01148678
#
# Stress axis : x y z
#
# Youngs Moduli (GPa) = 129.56736 129.56818 112.13950
#
# Poissons Ratio (x) = 0.02505 0.34988
# Poissons Ratio (y) = 0.02505 0.34987
# Poissons Ratio (z) = 0.40425 0.40425
#
# Static dielectric constant tensor:
#      x y z
#    x 4.577600 0.000000 0.000000 
#    y 0.000000 4.577600 0.000000 
#    z 0.000000 0.000000 4.506370 
# 
# 
# High freq. dielectric constant tensor:
#      x y z
#    x 1.990970 0.000000 0.000000 
#    y 0.000000 1.990970 0.000000 
#    z 0.000000 0.000000 2.015670 
# 
# From -- ./inp_files/1200.got.cif
#   From: 2010.03.12/outbox.cif.g09.slc.cpg/sg133_1_cif.got.tgz:1200.got - 2010.04.06 18:08:06.
