data_PCOD8317399
_publ_section_title
;
Structure prediction by ZEFSAII (Michael W. Deem and Ramdas Pophale) SiO2 
 PCOD8317399
Probable space group: P 42/M B C
;
_chemical_formula_sum "Si O2"
_cell_formula_units_Z 64
_cell_length_a 21.511221
_cell_length_b 21.511221
_cell_length_c 9.161064
_cell_angle_alpha 90.000000
_cell_angle_beta 90.000000
_cell_angle_gamma 90.000000
_cell_volume 4239.123228
_symmetry_space_group_name_H-M "P 42/M B C"
_symmetry_group_IT_number 135
_symmetry_cell_setting 'tetragonal'
loop_
_space_group_symop_operation_xyz
x,y,z
-y,x,1/2+z
-x,-y,z
y,-x,1/2+z
1/2+x,1/2-y,-z
1/2-x,1/2+y,-z
1/2+y,1/2+x,1/2-z
1/2-y,1/2-x,1/2-z
-x,-y,-z
y,-x,1/2-z
x,y,-z
-y,x,1/2-z
1/2-x,1/2+y,z
1/2+x,1/2-y,z
1/2-y,1/2-x,1/2+z
1/2+y,1/2+x,1/2+z
loop_
_atom_site_type_symbol
_atom_site_label
_atom_site_fract_x
_atom_site_fract_y
_atom_site_fract_z
Si Si1 0.347044 0.233400 0.659772
Si Si2 0.433652 0.338030 0.671285
Si Si3 0.244230 0.338977 0.336087
Si Si4 0.337972 0.421242 0.171391
O O1 0.327805 0.172196 0.750000
O O2 0.363163 0.208047 0.500000
O O3 0.406608 0.270808 0.723583
O O4 0.290395 0.281217 0.654763
O O5 0.417818 0.347371 0.500000
O O6 0.505963 0.340650 0.703649
O O7 0.400644 0.392427 0.762050
O O8 0.182042 0.317959 0.250000
O O9 0.226646 0.360977 0.500000
O O10 0.276373 0.395019 0.248478
O O11 0.334637 0.406246 0.000000
#
# Coordination Sequence:
#
# PCOD8317399 Si02
#       4
#    16  16  16  16
#     4   8  14  25  40  57  77 100 128 165 208 249
#     4   9  19  32  42  57  84 114 143 178 215 251
#     4   9  16  27  43  62  83 105 133 171 213 254
#     4  10  19  30  44  60  81 113 148 178 212 250
#
# _framework density 15.097462
#
# number of rings (size 3 to 8) (size 9 to 14) (size 15 to 20)
#    0.000    3.000    0.000    3.000    0.000    8.500 
#    0.000    2.500    0.000    0.000    0.000    0.000 
#    0.000    1.000    0.000   11.500    0.000    4.000 
#
# Total GULP energy -793224.529499 kJ/mol
# GULP energy per Si atom -12394.133273 kJ/mol
# Density = 1.506310 g / cm^3
# Si number density = 15.097462 Si / 1000 Ang^3
#
#
#
# Elastic Constant Matrix: (Units=GPa)
#
#
# Indices 1 2 3 4 5 6 
#
# 1 68.4565 69.7832 56.1429 0.0000 0.0000 0.0000
# 2 69.7832 68.4566 56.1432 0.0000 0.0000 0.0000
# 3 56.1429 56.1432 102.8301 0.0000 0.0000 0.0000
# 4 0.0000 0.0000 0.0000 19.0457 0.0000 0.0000
# 5 0.0000 0.0000 0.0000 0.0000 19.0456 0.0000
# 6 0.0000 0.0000 0.0000 0.0000 0.0000 14.3999
#
#
#
# Elastic Compliance Matrix: (Units=1/GPa)
#
#
# Indices 1 2 3 4 5 6 
#
# 1 -0.370398 0.383397 -0.007098 0.000000 0.000000 0.000000
# 2 0.383397 -0.370400 -0.007096 0.000000 0.000000 0.000000
# 3 -0.007098 -0.007096 0.017474 0.000000 0.000000 0.000000
# 4 0.000000 0.000000 0.000000 0.052505 0.000000 0.000000
# 5 0.000000 0.000000 0.000000 0.000000 0.052506 0.000000
# 6 0.000000 0.000000 0.000000 0.000000 0.000000 0.069445
#
#
# Mechanical properties :
#
#
# Convention : Reuss Voigt Hill
#
# Bulk Modulus (GPa) = 66.29741 67.09796 66.69769
# Shear Modulus (GPa) = -3.89940 14.34315 5.22187
#
# Velocity S-wave (km/s) = -1.60886 3.08561 1.86180
# Velocity P-wave (km/s) = 6.36844 7.56534 6.99255
#
# Compressibility (1/GPa) = 0.01508354
#
# Stress axis : x y z
#
# Youngs Moduli (GPa) = -2.69980 -2.69978 57.22750
#
# Poissons Ratio (x) = 1.03509 0.40620
# Poissons Ratio (y) = 1.03509 0.40606
# Poissons Ratio (z) = -0.01916 -0.01916
#
# Static dielectric constant tensor:
#      x y z
#    x 2.790690 0.000000 0.000000 
#    y 0.000000 2.790690 0.000000 
#    z 0.000000 0.000000 3.157990 
# 
# 
# High freq. dielectric constant tensor:
#      x y z
#    x 1.549670 0.000000 0.000000 
#    y 0.000000 1.549670 0.000000 
#    z 0.000000 0.000000 1.592060 
# 
# From -- ./inp_files/928.got.cif
#   From: 2010.03.12/outbox.cif.g09.slc.cpg/sg135_1_cif.got.tgz:928.got - 2010.04.06 18:31:24.
