data_PCOD8317023
_publ_section_title
;
Structure prediction by ZEFSAII (Michael W. Deem and Ramdas Pophale) SiO2 
 PCOD8317023
Probable space group: P 42/N B C
;
_chemical_formula_sum "Si O2"
_cell_formula_units_Z 96
_cell_length_a 22.108994
_cell_length_b 22.108994
_cell_length_c 9.363869
_cell_angle_alpha 90.000000
_cell_angle_beta 90.000000
_cell_angle_gamma 90.000000
_cell_volume 4577.130480
_symmetry_space_group_name_H-M "P 42/N B C"
_symmetry_group_IT_number 133
_space_group.IT_coordinate_system_code '2'
_symmetry_cell_setting 'tetragonal'
loop_
_space_group_symop_operation_xyz
x,y,z
1/2-y,x,1/2+z
1/2-x,1/2-y,z
y,1/2-x,1/2+z
x,1/2-y,-z
1/2-x,y,-z
y,x,1/2-z
1/2-y,1/2-x,1/2-z
-x,-y,-z
1/2+y,-x,1/2-z
1/2+x,1/2+y,-z
-y,1/2+x,1/2-z
-x,1/2+y,z
1/2+x,-y,z
-y,-x,1/2+z
1/2+y,1/2+x,1/2+z
loop_
_atom_site_type_symbol
_atom_site_label
_atom_site_fract_x
_atom_site_fract_y
_atom_site_fract_z
Si Si1 0.908606 0.044609 0.191995
Si Si2 0.597191 0.968374 0.366589
Si Si3 0.397025 0.750000 0.000000
Si Si4 0.535207 0.210915 0.740931
Si Si5 0.631679 0.380853 0.937288
Si Si6 0.126230 0.087631 0.889603
Si Si7 0.051727 0.250000 0.500000
O O1 0.896859 0.069182 0.353057
O O2 0.978920 0.046231 0.140329
O O3 0.884411 0.977592 0.178943
O O4 0.868337 0.085182 0.087358
O O5 0.582211 0.917790 0.250000
O O6 0.603452 0.932353 0.514840
O O7 0.658783 0.001278 0.326955
O O8 0.439091 0.745133 0.139509
O O9 0.357439 0.689177 0.017989
O O10 0.593238 0.187267 0.653118
O O11 0.488940 0.245829 0.640750
O O12 0.131214 0.131214 0.750000
O O13 0.189067 0.091714 0.979311
#
# Coordination Sequence:
#
# PCOD8317023 Si02
#       7
#    16  16   8  16  16  16   8
#     4  11  20  38  61  94 136 167 214 269 339 400
#     4  11  20  39  57  95 135 169 216 270 330 402
#     4  12  24  40  68  91 132 179 228 266 338 398
#     4  11  25  41  65  93 130 173 221 278 339 393
#     4  11  21  40  60  96 126 175 223 268 324 399
#     4  12  24  37  64 100 133 174 217 268 344 411
#     4  12  24  44  64  97 139 176 216 282 338 408
#
# _framework density 20.973839000000002
#
# number of rings (size 3 to 8) (size 9 to 14) (size 15 to 20)
#    0.000    0.667    6.667    4.000    2.333    0.000 
#    0.000    0.000    0.000    4.000    0.000    7.000 
#    0.000    0.000    0.000    0.000    0.000    0.000 
#
# Total GULP energy -1189983.232176 kJ/mol
# GULP energy per Si atom -12395.658668 kJ/mol
# Density = 2.092610 g / cm^3
# Si number density = 20.973839 Si / 1000 Ang^3
#
#
#
# Elastic Constant Matrix: (Units=GPa)
#
#
# Indices 1 2 3 4 5 6 
#
# 1 63.1638 17.5711 18.5096 0.0000 0.0000 0.0000
# 2 17.5711 63.1646 18.5085 0.0000 0.0000 0.0000
# 3 18.5096 18.5085 89.5766 0.0000 0.0000 0.0000
# 4 0.0000 0.0000 0.0000 32.0489 0.0000 0.0000
# 5 0.0000 0.0000 0.0000 0.0000 32.0599 0.0000
# 6 0.0000 0.0000 0.0000 0.0000 0.0000 6.4311
#
#
#
# Elastic Compliance Matrix: (Units=1/GPa)
#
#
# Indices 1 2 3 4 5 6 
#
# 1 0.017808 -0.004125 -0.002827 0.000000 0.000000 0.000000
# 2 -0.004125 0.017808 -0.002827 0.000000 0.000000 0.000000
# 3 -0.002827 -0.002827 0.012332 0.000000 0.000000 0.000000
# 4 0.000000 0.000000 0.000000 0.031202 0.000000 0.000000
# 5 0.000000 0.000000 0.000000 0.000000 0.031192 0.000000
# 6 0.000000 0.000000 0.000000 0.000000 0.000000 0.155494
#
#
# Mechanical properties :
#
#
# Convention : Reuss Voigt Hill
#
# Bulk Modulus (GPa) = 35.22593 36.12037 35.67315
# Shear Modulus (GPa) = 16.95731 24.86238 20.90985
#
# Velocity S-wave (km/s) = 2.84650 3.44670 3.16088
# Velocity P-wave (km/s) = 5.25690 5.75314 5.51061
#
# Compressibility (1/GPa) = 0.02838818
#
# Stress axis : x y z
#
# Youngs Moduli (GPa) = 56.15457 56.15582 81.09002
#
# Poissons Ratio (x) = 0.23166 0.22927
# Poissons Ratio (y) = 0.23166 0.22924
# Poissons Ratio (z) = 0.15877 0.15875
#
# Static dielectric constant tensor:
#      x y z
#    x 3.846250 0.000000 0.000000 
#    y 0.000000 3.846280 0.000000 
#    z 0.000000 0.000000 4.198900 
# 
# 
# High freq. dielectric constant tensor:
#      x y z
#    x 1.795360 0.000000 0.000000 
#    y 0.000000 1.795360 0.000000 
#    z 0.000000 0.000000 1.848560 
# 
# From -- ./inp_files/1965.got.cif
#   From: 2010.03.12/outbox.cif.g09.slc.cpg/sg133_1_cif.got.tgz:1965.got - 2010.04.06 18:08:06.
