data_PCOD8317195
_publ_section_title
;
Structure prediction by ZEFSAII (Michael W. Deem and Ramdas Pophale) SiO2 
 PCOD8317195
Probable space group: P 42/N N M
;
_chemical_formula_sum "Si O2"
_cell_formula_units_Z 68
_cell_length_a 18.970146
_cell_length_b 18.970146
_cell_length_c 11.269956
_cell_angle_alpha 90.000000
_cell_angle_beta 90.000000
_cell_angle_gamma 90.000000
_cell_volume 4055.678936
_symmetry_space_group_name_H-M "P 42/N N M"
_symmetry_group_IT_number 134
_space_group.IT_coordinate_system_code '2'
_symmetry_cell_setting 'tetragonal'
loop_
_space_group_symop_operation_xyz
x,y,z
1/2-y,x,1/2+z
1/2-x,1/2-y,z
y,1/2-x,1/2+z
x,1/2-y,1/2-z
1/2-x,y,1/2-z
y,x,-z
1/2-y,1/2-x,-z
-x,-y,-z
1/2+y,-x,1/2-z
1/2+x,1/2+y,-z
-y,1/2+x,1/2-z
-x,1/2+y,1/2+z
1/2+x,-y,1/2+z
-y,-x,z
1/2+y,1/2+x,z
loop_
_atom_site_type_symbol
_atom_site_label
_atom_site_fract_x
_atom_site_fract_y
_atom_site_fract_z
Si Si1 0.250000 0.250000 0.000000
Si Si2 0.096900 0.246923 0.430365
Si Si3 0.925641 0.866311 0.764227
Si Si4 0.039206 0.539206 0.824384
Si Si5 0.527163 0.811924 0.166853
Si Si6 0.570650 0.429351 0.575979
O O1 0.181221 0.252066 0.081808
O O2 0.067902 0.189662 0.340578
O O3 0.075822 0.326494 0.391035
O O4 0.068590 0.225076 0.558679
O O5 0.859790 0.918128 0.741202
O O6 0.998637 0.908314 0.762438
O O7 0.986666 0.486666 0.889801
O O8 0.078588 0.578588 0.933355
O O9 0.498477 0.750000 0.250000
O O10 0.457232 0.854660 0.126882
#
# Coordination Sequence:
#
# PCOD8317195 Si02
#       6
#     4  16  16   8  16   8
#     4  12  20  30  44  68 122 152 162 196 248 310
#     4  11  21  31  47  78 108 143 176 202 251 313
#     4  10  20  32  52  75 104 139 175 218 254 298
#     4   9  16  34  55  71  98 131 182 227 253 291
#     4  11  20  35  52  75 107 137 178 218 256 313
#     4   9  18  32  55  74  92 135 182 218 257 300
#
# _framework density 16.766614000000001
#
# number of rings (size 3 to 8) (size 9 to 14) (size 15 to 20)
#    0.000    1.647    4.706    1.412    0.000    0.941 
#    0.000    1.176    0.000    5.294    0.000    0.000 
#    0.000    7.529    0.000    0.000    0.000    0.000 
#
# Total GULP energy -842746.523318 kJ/mol
# GULP energy per Si atom -12393.331225 kJ/mol
# Density = 1.672845 g / cm^3
# Si number density = 16.766614 Si / 1000 Ang^3
#
#
#
# Elastic Constant Matrix: (Units=GPa)
#
#
# Indices 1 2 3 4 5 6 
#
# 1 99.7712 67.0903 42.8101 0.0000 0.0000 0.0000
# 2 67.0903 99.7712 42.8101 0.0000 0.0000 0.0000
# 3 42.8101 42.8101 45.6723 0.0000 0.0000 0.0000
# 4 0.0000 0.0000 0.0000 16.9850 0.0000 0.0000
# 5 0.0000 0.0000 0.0000 0.0000 16.9850 0.0000
# 6 0.0000 0.0000 0.0000 0.0000 0.0000 32.5340
#
#
#
# Elastic Compliance Matrix: (Units=1/GPa)
#
#
# Indices 1 2 3 4 5 6 
#
# 1 0.021073 -0.009526 -0.010823 0.000000 0.000000 0.000000
# 2 -0.009526 0.021073 -0.010823 0.000000 0.000000 0.000000
# 3 -0.010823 -0.010823 0.042184 0.000000 0.000000 0.000000
# 4 0.000000 0.000000 0.000000 0.058875 0.000000 0.000000
# 5 0.000000 0.000000 0.000000 0.000000 0.058875 0.000000
# 6 0.000000 0.000000 0.000000 0.000000 0.000000 0.030737
#
#
# Mechanical properties :
#
#
# Convention : Reuss Voigt Hill
#
# Bulk Modulus (GPa) = 45.48387 61.18174 53.33281
# Shear Modulus (GPa) = 16.52948 19.46776 17.99862
#
# Velocity S-wave (km/s) = 3.14324 3.41119 3.27995
# Velocity P-wave (km/s) = 6.35294 7.21695 6.79869
#
# Compressibility (1/GPa) = 0.02198581
#
# Stress axis : x y z
#
# Youngs Moduli (GPa) = 47.45491 47.45491 23.70550
#
# Poissons Ratio (x) = 0.45207 0.25656
# Poissons Ratio (y) = 0.45207 0.25656
# Poissons Ratio (z) = 0.51360 0.51360
#
# Static dielectric constant tensor:
#      x y z
#    x 3.199710 0.000000 0.000000 
#    y 0.000000 3.199710 0.000000 
#    z 0.000000 0.000000 3.112430 
# 
# 
# High freq. dielectric constant tensor:
#      x y z
#    x 1.631060 0.000000 0.000000 
#    y 0.000000 1.631060 0.000000 
#    z 0.000000 0.000000 1.640600 
# 
# From -- ./inp_files/4752.got.cif
#   From: 2010.03.12/outbox.cif.g09.slc.cpg/sg134_3_cif.got.tgz:4752.got - 2010.04.06 18:17:22.
