data_PCOD8317551
_publ_section_title
;
Structure prediction by ZEFSAII (Michael W. Deem and Ramdas Pophale) SiO2 
 PCOD8317551
Probable space group: P 42/M B C
;
_chemical_formula_sum "Si O2"
_cell_formula_units_Z 96
_cell_length_a 23.845347
_cell_length_b 23.845347
_cell_length_c 8.684752
_cell_angle_alpha 90.000000
_cell_angle_beta 90.000000
_cell_angle_gamma 90.000000
_cell_volume 4938.154968
_symmetry_space_group_name_H-M "P 42/M B C"
_symmetry_group_IT_number 135
_symmetry_cell_setting 'tetragonal'
loop_
_space_group_symop_operation_xyz
x,y,z
-y,x,1/2+z
-x,-y,z
y,-x,1/2+z
1/2+x,1/2-y,-z
1/2-x,1/2+y,-z
1/2+y,1/2+x,1/2-z
1/2-y,1/2-x,1/2-z
-x,-y,-z
y,-x,1/2-z
x,y,-z
-y,x,1/2-z
1/2-x,1/2+y,z
1/2+x,1/2-y,z
1/2-y,1/2-x,1/2+z
1/2+y,1/2+x,1/2+z
loop_
_atom_site_type_symbol
_atom_site_label
_atom_site_fract_x
_atom_site_fract_y
_atom_site_fract_z
Si Si1 0.364124 0.216680 0.180848
Si Si2 0.529440 0.421233 0.318770
Si Si3 0.306126 0.724263 0.681760
Si Si4 0.796870 0.067541 0.818737
Si Si5 0.510310 0.795824 0.819529
Si Si6 0.001413 0.584378 0.318001
O O1 0.341424 0.158577 0.250000
O O2 0.327668 0.268837 0.244573
O O3 0.428098 0.224684 0.231568
O O4 0.358339 0.212679 0.000000
O O5 0.465561 0.429662 0.264176
O O6 0.533530 0.431513 0.500000
O O7 0.549719 0.359511 0.272765
O O8 0.282631 0.782631 0.750000
O O9 0.303061 0.728243 0.500000
O O10 0.369100 0.713461 0.736577
O O11 0.754031 0.030852 0.722355
O O12 0.786258 0.059757 0.000000
O O13 0.493877 0.851117 0.726237
O O14 0.507221 0.809268 0.000000
O O15 0.948701 0.551300 0.250000
O O16 0.002238 0.577353 0.500000
O O17 0.059313 0.559313 0.250000
#
# Coordination Sequence:
#
# PCOD8317551 Si02
#       6
#    16  16  16  16  16  16
#     4   9  19  35  58  84 110 145 184 231 281 335
#     4  10  21  38  61  86 115 152 194 243 302 359
#     4   9  19  38  59  80 109 146 187 230 281 336
#     4  10  23  39  57  83 117 156 194 240 296 348
#     4  11  23  37  57  86 118 153 194 237 292 347
#     4  11  22  39  62  87 119 155 198 243 293 350
#
# _framework density 19.440460000000002
#
# number of rings (size 3 to 8) (size 9 to 14) (size 15 to 20)
#    0.000    2.000    0.000    4.000    2.333    5.333 
#    0.000    1.667    0.000    0.000    0.000    0.000 
#    0.000    0.000    0.000    0.000    0.000    0.000 
#
# Total GULP energy -1190707.419161 kJ/mol
# GULP energy per Si atom -12403.202283 kJ/mol
# Density = 1.939621 g / cm^3
# Si number density = 19.440460 Si / 1000 Ang^3
#
#
#
# Elastic Constant Matrix: (Units=GPa)
#
#
# Indices 1 2 3 4 5 6 
#
# 1 144.0760 76.3912 39.0587 0.0000 0.0000 0.0000
# 2 76.3912 144.0776 39.0560 0.0000 0.0000 0.0000
# 3 39.0587 39.0560 63.9894 0.0000 0.0000 0.0000
# 4 0.0000 0.0000 0.0000 28.1596 0.0000 0.0000
# 5 0.0000 0.0000 0.0000 0.0000 28.1594 0.0000
# 6 0.0000 0.0000 0.0000 0.0000 0.0000 26.9417
#
#
#
# Elastic Compliance Matrix: (Units=1/GPa)
#
#
# Indices 1 2 3 4 5 6 
#
# 1 0.010281 -0.004493 -0.003533 0.000000 0.000000 0.000000
# 2 -0.004493 0.010281 -0.003532 0.000000 0.000000 0.000000
# 3 -0.003533 -0.003532 0.019940 0.000000 0.000000 0.000000
# 4 0.000000 0.000000 0.000000 0.035512 0.000000 0.000000
# 5 0.000000 0.000000 0.000000 0.000000 0.035512 0.000000
# 6 0.000000 0.000000 0.000000 0.000000 0.000000 0.037117
#
#
# Mechanical properties :
#
#
# Convention : Reuss Voigt Hill
#
# Bulk Modulus (GPa) = 57.52165 73.46164 65.49164
# Shear Modulus (GPa) = 28.16041 29.82794 28.99417
#
# Velocity S-wave (km/s) = 3.81011 3.92129 3.86610
# Velocity P-wave (km/s) = 7.00062 7.64016 7.32737
#
# Compressibility (1/GPa) = 0.01738476
#
# Stress axis : x y z
#
# Youngs Moduli (GPa) = 97.26671 97.27068 50.15085
#
# Poissons Ratio (x) = 0.43708 0.17718
# Poissons Ratio (y) = 0.43706 0.17713
# Poissons Ratio (z) = 0.34364 0.34356
#
# Static dielectric constant tensor:
#      x y z
#    x 3.656840 0.000000 0.000000 
#    y 0.000000 3.656790 0.000000 
#    z 0.000000 0.000000 3.434800 
# 
# 
# High freq. dielectric constant tensor:
#      x y z
#    x 1.762580 0.000000 0.000000 
#    y 0.000000 1.762580 0.000000 
#    z 0.000000 0.000000 1.757020 
# 
# From -- ./inp_files/1253.got.cif
#   From: 2010.03.12/outbox.cif.g09.slc.cpg/sg135_1_cif.got.tgz:1253.got - 2010.04.06 18:31:24.
