data_PCOD8317142
_publ_section_title
;
Structure prediction by ZEFSAII (Michael W. Deem and Ramdas Pophale) SiO2 
 PCOD8317142
Probable space group: P 42/N N M
;
_chemical_formula_sum "Si O2"
_cell_formula_units_Z 96
_cell_length_a 14.071052
_cell_length_b 14.071052
_cell_length_c 25.752694
_cell_angle_alpha 90.000000
_cell_angle_beta 90.000000
_cell_angle_gamma 90.000000
_cell_volume 5098.891885
_symmetry_space_group_name_H-M "P 42/N N M"
_symmetry_group_IT_number 134
_space_group.IT_coordinate_system_code '2'
_symmetry_cell_setting 'tetragonal'
loop_
_space_group_symop_operation_xyz
x,y,z
1/2-y,x,1/2+z
1/2-x,1/2-y,z
y,1/2-x,1/2+z
x,1/2-y,1/2-z
1/2-x,y,1/2-z
y,x,-z
1/2-y,1/2-x,-z
-x,-y,-z
1/2+y,-x,1/2-z
1/2+x,1/2+y,-z
-y,1/2+x,1/2-z
-x,1/2+y,1/2+z
1/2+x,-y,1/2+z
-y,-x,z
1/2+y,1/2+x,z
loop_
_atom_site_type_symbol
_atom_site_label
_atom_site_fract_x
_atom_site_fract_y
_atom_site_fract_z
Si Si1 0.960502 0.615252 0.550854
Si Si2 0.637164 0.514288 0.750854
Si Si3 0.643393 0.859759 0.842961
Si Si4 0.461208 0.115473 0.949160
Si Si5 0.098600 0.750065 0.500388
Si Si6 0.651033 0.865949 0.341619
O O1 0.893431 0.606569 0.500000
O O2 0.893899 0.621645 0.600500
O O3 0.019146 0.519146 0.557448
O O4 0.031457 0.706035 0.545276
O O5 0.750000 0.498278 0.750000
O O6 0.588745 0.411256 0.754115
O O7 0.602712 0.564653 0.697855
O O8 0.596576 0.577498 0.798530
O O9 0.626388 0.891190 0.901536
O O10 0.594321 0.757625 0.831969
O O11 0.754266 0.848321 0.834690
O O12 0.519725 0.019725 0.940220
O O13 0.395378 0.104623 0.000000
O O14 0.532481 0.205950 0.954959
O O15 0.165344 0.834657 0.523886
O O16 0.165895 0.665895 0.476992
#
# Coordination Sequence:
#
# PCOD8317142 Si02
#       6
#    16  16  16  16  16  16
#     4  10  19  31  50  76 105 137 176 221 267 318
#     4  10  21  38  58  79 105 136 173 217 265 321
#     4  10  20  34  53  75 102 135 172 215 263 314
#     4  10  19  31  49  74 104 136 173 218 265 316
#     4   9  18  32  48  69 104 147 182 215 266 332
#     4  10  20  34  53  76 102 135 173 215 263 313
#
# _framework density 18.827618999999999
#
# number of rings (size 3 to 8) (size 9 to 14) (size 15 to 20)
#    0.000    2.167    0.000    3.500    0.000    2.167 
#    0.000    5.833    0.000    4.000    0.000    0.000 
#    0.000    4.000    0.000    0.000    0.000    0.000 
#
# Total GULP energy -1189950.488198 kJ/mol
# GULP energy per Si atom -12395.317585 kJ/mol
# Density = 1.878477 g / cm^3
# Si number density = 18.827619 Si / 1000 Ang^3
#
#
#
# Elastic Constant Matrix: (Units=GPa)
#
#
# Indices 1 2 3 4 5 6 
#
# 1 72.5479 45.1031 39.2986 0.0000 0.0000 0.0000
# 2 45.1031 72.5479 39.2990 0.0000 0.0000 0.0000
# 3 39.2986 39.2990 118.0023 0.0000 0.0000 0.0000
# 4 0.0000 0.0000 0.0000 21.9223 0.0000 0.0000
# 5 0.0000 0.0000 0.0000 0.0000 21.9226 0.0000
# 6 0.0000 0.0000 0.0000 0.0000 0.0000 24.8249
#
#
#
# Elastic Compliance Matrix: (Units=1/GPa)
#
#
# Indices 1 2 3 4 5 6 
#
# 1 0.023684 -0.012752 -0.003641 0.000000 0.000000 0.000000
# 2 -0.012752 0.023684 -0.003641 0.000000 0.000000 0.000000
# 3 -0.003641 -0.003641 0.010899 0.000000 0.000000 0.000000
# 4 0.000000 0.000000 0.000000 0.045616 0.000000 0.000000
# 5 0.000000 0.000000 0.000000 0.000000 0.045615 0.000000
# 6 0.000000 0.000000 0.000000 0.000000 0.000000 0.040282
#
#
# Mechanical properties :
#
#
# Convention : Reuss Voigt Hill
#
# Bulk Modulus (GPa) = 54.94387 56.72216 55.83301
# Shear Modulus (GPa) = 21.19404 23.02711 22.11058
#
# Velocity S-wave (km/s) = 3.35877 3.50101 3.43062
# Velocity P-wave (km/s) = 6.65490 6.82167 6.73880
#
# Compressibility (1/GPa) = 0.01820039
#
# Stress axis : x y z
#
# Youngs Moduli (GPa) = 42.22205 42.22187 91.74843
#
# Poissons Ratio (x) = 0.53843 0.33402
# Poissons Ratio (y) = 0.53843 0.33404
# Poissons Ratio (z) = 0.15371 0.15372
#
# Static dielectric constant tensor:
#      x y z
#    x 3.580170 0.000000 0.000000 
#    y 0.000000 3.580180 0.000000 
#    z 0.000000 0.000000 3.387650 
# 
# 
# High freq. dielectric constant tensor:
#      x y z
#    x 1.731160 0.000000 0.000000 
#    y 0.000000 1.731160 0.000000 
#    z 0.000000 0.000000 1.716810 
# 
# From -- ./inp_files/9144.got.cif
#   From: 2010.03.12/outbox.cif.g09.slc.cpg/sg134_5_cif.got.tgz:9144.got - 2010.04.06 18:17:22.
