data_PCOD8317361
_publ_section_title
;
Structure prediction by ZEFSAII (Michael W. Deem and Ramdas Pophale) SiO2 
 PCOD8317361
Probable space group: P 42/M B C
;
_chemical_formula_sum "Si O2"
_cell_formula_units_Z 112
_cell_length_a 20.760978
_cell_length_b 20.760978
_cell_length_c 16.740717
_cell_angle_alpha 90.000000
_cell_angle_beta 90.000000
_cell_angle_gamma 90.000000
_cell_volume 7215.553834
_symmetry_space_group_name_H-M "P 42/M B C"
_symmetry_group_IT_number 135
_symmetry_cell_setting 'tetragonal'
loop_
_space_group_symop_operation_xyz
x,y,z
-y,x,1/2+z
-x,-y,z
y,-x,1/2+z
1/2+x,1/2-y,-z
1/2-x,1/2+y,-z
1/2+y,1/2+x,1/2-z
1/2-y,1/2-x,1/2-z
-x,-y,-z
y,-x,1/2-z
x,y,-z
-y,x,1/2-z
1/2-x,1/2+y,z
1/2+x,1/2-y,z
1/2-y,1/2-x,1/2+z
1/2+y,1/2+x,1/2+z
loop_
_atom_site_type_symbol
_atom_site_label
_atom_site_fract_x
_atom_site_fract_y
_atom_site_fract_z
Si Si1 0.231932 0.647021 0.407084
Si Si2 0.700826 0.092973 0.236676
Si Si3 0.447381 0.054326 0.411213
Si Si4 0.540540 0.823248 0.814802
Si Si5 0.696584 0.302578 0.734664
Si Si6 0.991581 0.691392 0.410009
Si Si7 0.775461 0.387102 0.835503
O O1 0.248149 0.655576 0.500000
O O2 0.220698 0.571706 0.385115
O O3 0.293449 0.672615 0.356425
O O4 0.165892 0.684650 0.385154
O O5 0.640952 0.140952 0.250000
O O6 0.769524 0.127974 0.249701
O O7 0.701773 0.070341 0.145015
O O8 0.699063 0.032394 0.296395
O O9 0.415697 0.057934 0.500000
O O10 0.396328 0.037277 0.343730
O O11 0.481358 0.121007 0.390748
O O12 0.500000 0.000000 0.408551
O O13 0.587057 0.818731 0.738136
O O14 0.752482 0.252482 0.750000
O O15 0.708226 0.359404 0.799820
O O16 0.967505 0.700341 0.500000
O O17 0.051085 0.740374 0.391453
#
# Coordination Sequence:
#
# PCOD8317361 Si02
#       7
#    16  16  16  16  16  16  16
#     4  10  17  28  48  67  83 109 149 199 237 257
#     4  10  20  32  44  62  92 129 156 179 221 272
#     4  10  19  28  39  62  94 125 157 190 218 251
#     4  10  18  28  43  65  88 120 156 190 218 262
#     4   8  17  31  45  62  84 113 154 192 224 271
#     4  10  19  29  45  66  90 119 155 193 224 259
#     4   9  17  29  46  64  85 108 152 201 230 255
#
# _framework density 15.522024
#
# number of rings (size 3 to 8) (size 9 to 14) (size 15 to 20)
#    0.000    2.429    1.429    3.000    2.000    0.571 
#    0.000    2.857    0.000    8.571    0.000    0.000 
#    0.000   46.286    0.000   23.143    0.000    0.000 
#
# Total GULP energy -1387959.344413 kJ/mol
# GULP energy per Si atom -12392.494147 kJ/mol
# Density = 1.548670 g / cm^3
# Si number density = 15.522024 Si / 1000 Ang^3
#
#
#
# Elastic Constant Matrix: (Units=GPa)
#
#
# Indices 1 2 3 4 5 6 
#
# 1 62.3492 47.3016 35.3098 0.0000 0.0000 0.0000
# 2 47.3016 62.3492 35.3098 0.0000 0.0000 0.0000
# 3 35.3098 35.3098 83.8471 0.0000 0.0000 0.0000
# 4 0.0000 0.0000 0.0000 16.6662 0.0000 0.0000
# 5 0.0000 0.0000 0.0000 0.0000 16.6662 0.0000
# 6 0.0000 0.0000 0.0000 0.0000 0.0000 20.5480
#
#
#
# Elastic Compliance Matrix: (Units=1/GPa)
#
#
# Indices 1 2 3 4 5 6 
#
# 1 0.039485 -0.026971 -0.005270 0.000000 0.000000 0.000000
# 2 -0.026971 0.039485 -0.005270 0.000000 0.000000 0.000000
# 3 -0.005270 -0.005270 0.016365 0.000000 0.000000 0.000000
# 4 0.000000 0.000000 0.000000 0.060002 0.000000 0.000000
# 5 0.000000 0.000000 0.000000 0.000000 0.060002 0.000000
# 6 0.000000 0.000000 0.000000 0.000000 0.000000 0.048667
#
#
# Mechanical properties :
#
#
# Convention : Reuss Voigt Hill
#
# Bulk Modulus (GPa) = 49.22892 49.37646 49.30269
# Shear Modulus (GPa) = 14.45934 16.81768 15.63851
#
# Velocity S-wave (km/s) = 3.05542 3.29518 3.17756
# Velocity P-wave (km/s) = 6.65070 6.80862 6.73012
#
# Compressibility (1/GPa) = 0.02031326
#
# Stress axis : x y z
#
# Youngs Moduli (GPa) = 25.32615 25.32615 61.10611
#
# Poissons Ratio (x) = 0.68307 0.32202
# Poissons Ratio (y) = 0.68307 0.32202
# Poissons Ratio (z) = 0.13347 0.13347
#
# Static dielectric constant tensor:
#      x y z
#    x 3.102540 0.000000 0.000000 
#    y 0.000000 3.102540 0.000000 
#    z 0.000000 0.000000 3.237750 
# 
# 
# High freq. dielectric constant tensor:
#      x y z
#    x 1.568240 0.000000 0.000000 
#    y 0.000000 1.568240 0.000000 
#    z 0.000000 0.000000 1.605690 
# 
# From -- ./inp_files/4688.got.cif
#   From: 2010.03.12/outbox.cif.g09.slc.cpg/sg135_3_cif.got.tgz:4688.got - 2010.04.06 18:31:24.
