data_PCOD8317386
_publ_section_title
;
Structure prediction by ZEFSAII (Michael W. Deem and Ramdas Pophale) SiO2 
 PCOD8317386
Probable space group: P 42/M B C
;
_chemical_formula_sum "Si O2"
_cell_formula_units_Z 56
_cell_length_a 18.205353
_cell_length_b 18.205353
_cell_length_c 9.392262
_cell_angle_alpha 90.000000
_cell_angle_beta 90.000000
_cell_angle_gamma 90.000000
_cell_volume 3112.923209
_symmetry_space_group_name_H-M "P 42/M B C"
_symmetry_group_IT_number 135
_symmetry_cell_setting 'tetragonal'
loop_
_space_group_symop_operation_xyz
x,y,z
-y,x,1/2+z
-x,-y,z
y,-x,1/2+z
1/2+x,1/2-y,-z
1/2-x,1/2+y,-z
1/2+y,1/2+x,1/2-z
1/2-y,1/2-x,1/2-z
-x,-y,-z
y,-x,1/2-z
x,y,-z
-y,x,1/2-z
1/2-x,1/2+y,z
1/2+x,1/2-y,z
1/2-y,1/2-x,1/2+z
1/2+y,1/2+x,1/2+z
loop_
_atom_site_type_symbol
_atom_site_label
_atom_site_fract_x
_atom_site_fract_y
_atom_site_fract_z
Si Si1 0.796685 0.565880 0.500000
Si Si2 0.168455 0.331546 0.250000
Si Si3 0.652460 0.651839 0.500000
Si Si4 0.894079 0.949600 0.751410
Si Si5 0.719384 0.262446 0.500000
Si Si6 0.287016 0.566416 0.500000
O O1 0.832924 0.596573 0.352879
O O2 0.711263 0.587158 0.500000
O O3 0.792051 0.477117 0.500000
O O4 0.173727 0.262090 0.358515
O O5 0.599857 0.646099 0.633587
O O6 0.699033 0.727449 0.500000
O O7 0.834286 0.959041 0.631958
O O8 0.968714 0.912638 0.690427
O O9 0.731139 0.348317 0.500000
#
# Coordination Sequence:
#
# PCOD8317386 Si02
#       6
#     8   8   8  16   8   8
#     4  10  18  34  52  75 103 141 181 232 256 329
#     4   8  18  36  54  70 106 144 182 218 282 310
#     4  10  19  37  48  73 111 143 182 223 265 316
#     4  11  21  33  49  74 113 154 180 208 258 327
#     4  10  20  32  56  75 104 144 180 234 267 309
#     4  12  21  31  53  79 108 142 189 223 269 311
#
# _framework density 17.989522000000001
#
# number of rings (size 3 to 8) (size 9 to 14) (size 15 to 20)
#    0.000    2.000    2.857    4.286    0.000    2.286 
#    0.000    0.000    0.000    0.000    0.000    0.000 
#    0.000   40.000    0.000    0.000    0.000    0.000 
#
# Total GULP energy -693731.117691 kJ/mol
# GULP energy per Si atom -12388.055673 kJ/mol
# Density = 1.794858 g / cm^3
# Si number density = 17.989522 Si / 1000 Ang^3
#
#
#
# Elastic Constant Matrix: (Units=GPa)
#
#
# Indices 1 2 3 4 5 6 
#
# 1 64.3636 3.6714 0.4229 0.0000 0.0000 0.0000
# 2 3.6714 64.3637 0.4231 0.0000 0.0000 0.0000
# 3 0.4229 0.4231 87.8654 0.0000 0.0000 0.0000
# 4 0.0000 0.0000 0.0000 -251.8801 0.0000 0.0000
# 5 0.0000 0.0000 0.0000 0.0000 -251.3426 0.0000
# 6 0.0000 0.0000 0.0000 0.0000 0.0000 30.8758
#
#
#
# Elastic Compliance Matrix: (Units=1/GPa)
#
#
# Indices 1 2 3 4 5 6 
#
# 1 0.015588 -0.000889 -0.000071 0.000000 0.000000 0.000000
# 2 -0.000889 0.015588 -0.000071 0.000000 0.000000 0.000000
# 3 -0.000071 -0.000071 0.011382 0.000000 0.000000 0.000000
# 4 0.000000 0.000000 0.000000 -0.003970 0.000000 0.000000
# 5 0.000000 0.000000 0.000000 0.000000 -0.003979 0.000000
# 6 0.000000 0.000000 0.000000 0.000000 0.000000 0.032388
#
#
# Mechanical properties :
#
#
# Convention : Reuss Voigt Hill
#
# Bulk Modulus (GPa) = 24.69317 25.06973 24.88145
# Shear Modulus (GPa) = 60.56499 -80.33102 -9.88301
#
# Velocity S-wave (km/s) = 5.80861 -6.68964 -2.34642
# Velocity P-wave (km/s) = 7.66438 6.76035 2.55347
#
# Compressibility (1/GPa) = 0.04049702
#
# Stress axis : x y z
#
# Youngs Moduli (GPa) = 64.15240 64.15246 87.86017
#
# Poissons Ratio (x) = 0.05701 0.00622
# Poissons Ratio (y) = 0.05701 0.00622
# Poissons Ratio (z) = 0.00454 0.00454
#
# Static dielectric constant tensor:
#      x y z
#    x 3.249720 0.000000 0.000000 
#    y 0.000000 3.249710 0.000000 
#    z 0.000000 0.000000 3.302350 
# 
# 
# High freq. dielectric constant tensor:
#      x y z
#    x 1.674160 0.000000 0.000000 
#    y 0.000000 1.674160 0.000000 
#    z 0.000000 0.000000 1.712530 
# 
# From -- ./inp_files/818.got.cif
#   From: 2010.03.12/outbox.cif.g09.slc.cpg/sg135_1_cif.got.tgz:818.got - 2010.04.06 18:31:24.
