data_PCOD8317148
_publ_section_title
;
Structure prediction by ZEFSAII (Michael W. Deem and Ramdas Pophale) SiO2 
 PCOD8317148
Probable space group: P 42/N N M
;
_chemical_formula_sum "Si O2"
_cell_formula_units_Z 120
_cell_length_a 17.073896
_cell_length_b 17.073896
_cell_length_c 22.829719
_cell_angle_alpha 90.000000
_cell_angle_beta 90.000000
_cell_angle_gamma 90.000000
_cell_volume 6655.272303
_symmetry_space_group_name_H-M "P 42/N N M"
_symmetry_group_IT_number 134
_space_group.IT_coordinate_system_code '2'
_symmetry_cell_setting 'tetragonal'
loop_
_space_group_symop_operation_xyz
x,y,z
1/2-y,x,1/2+z
1/2-x,1/2-y,z
y,1/2-x,1/2+z
x,1/2-y,1/2-z
1/2-x,y,1/2-z
y,x,-z
1/2-y,1/2-x,-z
-x,-y,-z
1/2+y,-x,1/2-z
1/2+x,1/2+y,-z
-y,1/2+x,1/2-z
-x,1/2+y,1/2+z
1/2+x,-y,1/2+z
-y,-x,z
1/2+y,1/2+x,z
loop_
_atom_site_type_symbol
_atom_site_label
_atom_site_fract_x
_atom_site_fract_y
_atom_site_fract_z
Si Si1 0.664519 0.040099 0.058372
Si Si2 0.453271 0.828527 0.075769
Si Si3 0.841408 0.030185 0.068760
Si Si4 0.870481 0.868715 0.866478
Si Si5 0.250000 0.250000 0.842068
Si Si6 0.526687 0.346192 0.933397
Si Si7 0.063613 0.067471 0.364449
Si Si8 0.876735 0.667253 0.764678
O O1 0.614783 0.114783 0.079364
O O2 0.753451 0.061950 0.074263
O O3 0.635121 0.961442 0.090237
O O4 0.651372 0.022702 0.990305
O O5 0.375067 0.875067 0.094437
O O6 0.432959 0.736899 0.080669
O O7 0.527026 0.854916 0.115681
O O8 0.901749 0.098252 0.087686
O O9 0.848955 0.957589 0.112470
O O10 0.857365 0.004638 0.001638
O O11 0.809432 0.799059 0.883755
O O12 0.862351 0.877432 0.796386
O O13 0.846164 0.948906 0.895841
O O14 0.310203 0.202202 0.800325
O O15 0.585443 0.414558 0.912965
O O16 0.070892 0.108328 0.301798
O O17 0.998116 0.001885 0.360261
O O18 0.920741 0.750000 0.750000
#
# Coordination Sequence:
#
# PCOD8317148 Si02
#       8
#    16  16  16  16   8  16  16  16
#     4   9  17  31  52  76 102 133 165 202 251 299
#     4   9  18  32  52  76 101 131 165 205 254 301
#     4  10  21  35  50  71 101 135 170 207 242 286
#     4  11  20  34  54  73  99 131 164 203 250 300
#     4  10  21  36  55  78 101 126 160 206 255 302
#     4  10  21  35  51  72 100 135 171 206 243 289
#     4  10  19  32  51  78 107 129 161 210 257 301
#     4  10  20  34  52  74 100 131 164 200 244 297
#
# _framework density 18.030816999999999
#
# number of rings (size 3 to 8) (size 9 to 14) (size 15 to 20)
#    0.000    2.133    0.000    5.400    0.000    4.267 
#    0.000    5.333    0.000    0.000    0.000    0.000 
#    0.000    7.467    0.000    0.000    0.000    0.000 
#
# Total GULP energy -1487344.492063 kJ/mol
# GULP energy per Si atom -12394.537434 kJ/mol
# Density = 1.798978 g / cm^3
# Si number density = 18.030817 Si / 1000 Ang^3
#
#
#
# Elastic Constant Matrix: (Units=GPa)
#
#
# Indices 1 2 3 4 5 6 
#
# 1 94.7888 45.3145 35.2997 0.0000 0.0000 0.0000
# 2 45.3145 94.7888 35.2997 0.0000 0.0000 0.0000
# 3 35.2997 35.2997 58.0557 0.0000 0.0000 0.0000
# 4 0.0000 0.0000 0.0000 30.2738 0.0000 0.0000
# 5 0.0000 0.0000 0.0000 0.0000 30.2738 0.0000
# 6 0.0000 0.0000 0.0000 0.0000 0.0000 24.7552
#
#
#
# Elastic Compliance Matrix: (Units=1/GPa)
#
#
# Indices 1 2 3 4 5 6 
#
# 1 0.015252 -0.004961 -0.006257 0.000000 0.000000 0.000000
# 2 -0.004961 0.015252 -0.006257 0.000000 0.000000 0.000000
# 3 -0.006257 -0.006257 0.024834 0.000000 0.000000 0.000000
# 4 0.000000 0.000000 0.000000 0.033032 0.000000 0.000000
# 5 0.000000 0.000000 0.000000 0.000000 0.033032 0.000000
# 6 0.000000 0.000000 0.000000 0.000000 0.000000 0.040396
#
#
# Mechanical properties :
#
#
# Convention : Reuss Voigt Hill
#
# Bulk Modulus (GPa) = 49.05114 53.27346 51.16230
# Shear Modulus (GPa) = 24.56499 25.84183 25.20341
#
# Velocity S-wave (km/s) = 3.69506 3.78987 3.74277
# Velocity P-wave (km/s) = 6.74298 6.98289 6.86398
#
# Compressibility (1/GPa) = 0.02038689
#
# Stress axis : x y z
#
# Youngs Moduli (GPa) = 65.56717 65.56717 40.26782
#
# Poissons Ratio (x) = 0.32528 0.25196
# Poissons Ratio (y) = 0.32528 0.25196
# Poissons Ratio (z) = 0.41025 0.41025
#
# Static dielectric constant tensor:
#      x y z
#    x 3.422470 0.000000 0.000000 
#    y 0.000000 3.422470 0.000000 
#    z 0.000000 0.000000 3.267670 
# 
# 
# High freq. dielectric constant tensor:
#      x y z
#    x 1.699170 0.000000 0.000000 
#    y 0.000000 1.699170 0.000000 
#    z 0.000000 0.000000 1.681510 
# 
# From -- ./inp_files/9415.got.cif
#   From: 2010.03.12/outbox.cif.g09.slc.cpg/sg134_5_cif.got.tgz:9415.got - 2010.04.06 18:17:22.
