data_PCOD8317994
_publ_section_title
;
Structure prediction by ZEFSAII (Michael W. Deem and Ramdas Pophale) SiO2 
 PCOD8317994
Probable space group: P 42/M N M
;
_chemical_formula_sum "Si O2"
_cell_formula_units_Z 96
_cell_length_a 19.056969
_cell_length_b 19.056969
_cell_length_c 18.211460
_cell_angle_alpha 90.000000
_cell_angle_beta 90.000000
_cell_angle_gamma 90.000000
_cell_volume 6613.820734
_symmetry_space_group_name_H-M "P 42/M N M"
_symmetry_group_IT_number 136
_symmetry_cell_setting 'tetragonal'
loop_
_space_group_symop_operation_xyz
x,y,z
1/2-y,1/2+x,1/2+z
-x,-y,z
1/2+y,1/2-x,1/2+z
1/2+x,1/2-y,1/2-z
1/2-x,1/2+y,1/2-z
y,x,-z
-y,-x,-z
-x,-y,-z
1/2+y,1/2-x,1/2-z
x,y,-z
1/2-y,1/2+x,1/2-z
1/2-x,1/2+y,1/2+z
1/2+x,1/2-y,1/2+z
-y,-x,z
y,x,z
loop_
_atom_site_type_symbol
_atom_site_label
_atom_site_fract_x
_atom_site_fract_y
_atom_site_fract_z
Si Si1 0.602306 0.286219 0.085626
Si Si2 0.641611 0.535295 0.913422
Si Si3 0.242627 0.355735 0.084159
Si Si4 0.902705 0.382162 0.322484
Si Si5 0.418002 0.989000 0.919768
Si Si6 0.355483 0.068599 0.667202
O O1 0.678662 0.321339 0.097474
O O2 0.544696 0.344748 0.109960
O O3 0.592422 0.219969 0.137925
O O4 0.591439 0.265040 0.000000
O O5 0.568626 0.568626 0.881003
O O6 0.706634 0.582740 0.887121
O O7 0.636925 0.541125 0.000000
O O8 0.280633 0.280633 0.091051
O O9 0.175279 0.356382 0.135901
O O10 0.219462 0.369698 0.000000
O O11 0.887273 0.455233 0.363013
O O12 0.872139 0.390213 0.241540
O O13 0.984880 0.361739 0.321688
O O14 0.403259 0.910732 0.892129
O O15 0.500000 0.000000 0.926494
O O16 0.382757 0.998216 0.000000
#
# Coordination Sequence:
#
# PCOD8317994 Si02
#       6
#    16  16  16  16  16  16
#     4  10  20  32  47  67  92 123 154 186 229 279
#     4   8  14  26  44  65  87 112 143 178 217 261
#     4   9  17  29  47  69  90 115 148 183 222 270
#     4  11  19  30  47  65  90 120 152 193 231 265
#     4   9  18  28  43  64  85 116 154 190 229 264
#     4  11  20  31  45  64  92 120 152 194 229 268
#
# _framework density 14.515059000000001
#
# number of rings (size 3 to 8) (size 9 to 14) (size 15 to 20)
#    0.000    2.333    3.333    2.000    0.000    2.333 
#    0.000    1.667    0.000    0.000    0.000    0.000 
#    0.000    0.000    0.000    0.000    0.000    0.000 
#
# Total GULP energy -1189725.235915 kJ/mol
# GULP energy per Si atom -12392.971207 kJ/mol
# Density = 1.448202 g / cm^3
# Si number density = 14.515059 Si / 1000 Ang^3
#
#
#
# Elastic Constant Matrix: (Units=GPa)
#
#
# Indices 1 2 3 4 5 6 
#
# 1 70.3144 35.8931 34.8862 0.0000 0.0000 0.0000
# 2 35.8931 70.3144 34.8862 0.0000 0.0000 0.0000
# 3 34.8862 34.8862 81.4375 0.0000 0.0000 0.0000
# 4 0.0000 0.0000 0.0000 16.7151 0.0000 0.0000
# 5 0.0000 0.0000 0.0000 0.0000 16.7151 0.0000
# 6 0.0000 0.0000 0.0000 0.0000 0.0000 16.3270
#
#
#
# Elastic Compliance Matrix: (Units=1/GPa)
#
#
# Indices 1 2 3 4 5 6 
#
# 1 0.021077 -0.007974 -0.005613 0.000000 0.000000 0.000000
# 2 -0.007974 0.021077 -0.005613 0.000000 0.000000 0.000000
# 3 -0.005613 -0.005613 0.017088 0.000000 0.000000 0.000000
# 4 0.000000 0.000000 0.000000 0.059826 0.000000 0.000000
# 5 0.000000 0.000000 0.000000 0.000000 0.059826 0.000000
# 6 0.000000 0.000000 0.000000 0.000000 0.000000 0.061248
#
#
# Mechanical properties :
#
#
# Convention : Reuss Voigt Hill
#
# Bulk Modulus (GPa) = 47.97967 48.15523 48.06745
# Shear Modulus (GPa) = 17.51363 17.71151 17.61257
#
# Velocity S-wave (km/s) = 3.47736 3.49695 3.48717
# Velocity P-wave (km/s) = 7.01780 7.03938 7.02860
#
# Compressibility (1/GPa) = 0.02084216
#
# Stress axis : x y z
#
# Youngs Moduli (GPa) = 47.44423 47.44423 58.51931
#
# Poissons Ratio (x) = 0.37834 0.32847
# Poissons Ratio (y) = 0.37834 0.32847
# Poissons Ratio (z) = 0.26631 0.26631
#
# Static dielectric constant tensor:
#      x y z
#    x 2.972950 0.000000 0.000000 
#    y 0.000000 2.972950 0.000000 
#    z 0.000000 0.000000 2.743770 
# 
# 
# High freq. dielectric constant tensor:
#      x y z
#    x 1.542340 0.000000 0.000000 
#    y 0.000000 1.542340 0.000000 
#    z 0.000000 0.000000 1.535850 
# 
# From -- ./inp_files/6294.got.cif
#   From: 2010.03.12/outbox.cif.g09.slc.cpg/sg136_4_cif.got.tgz:6294.got - 2010.04.06 18:39:43.
