data_PCOD8317343
_publ_section_title
;
Structure prediction by ZEFSAII (Michael W. Deem and Ramdas Pophale) SiO2 
 PCOD8317343
Probable space group: P 42/N N M
;
_chemical_formula_sum "Si O2"
_cell_formula_units_Z 34
_cell_length_a 10.066135
_cell_length_b 10.066135
_cell_length_c 14.828051
_cell_angle_alpha 90.000000
_cell_angle_beta 90.000000
_cell_angle_gamma 90.000000
_cell_volume 1502.483019
_symmetry_space_group_name_H-M "P 42/N N M"
_symmetry_group_IT_number 134
_space_group.IT_coordinate_system_code '2'
_symmetry_cell_setting 'tetragonal'
loop_
_space_group_symop_operation_xyz
x,y,z
1/2-y,x,1/2+z
1/2-x,1/2-y,z
y,1/2-x,1/2+z
x,1/2-y,1/2-z
1/2-x,y,1/2-z
y,x,-z
1/2-y,1/2-x,-z
-x,-y,-z
1/2+y,-x,1/2-z
1/2+x,1/2+y,-z
-y,1/2+x,1/2-z
-x,1/2+y,1/2+z
1/2+x,-y,1/2+z
-y,-x,z
1/2+y,1/2+x,z
loop_
_atom_site_type_symbol
_atom_site_label
_atom_site_fract_x
_atom_site_fract_y
_atom_site_fract_z
Si Si1 0.049225 0.549225 0.405265
Si Si2 0.750000 0.250000 0.250000
Si Si3 0.956018 0.456018 0.218295
Si Si4 0.687875 0.605475 0.592806
O O1 0.205904 0.515131 0.402204
O O2 0.000000 0.500000 0.500000
O O3 0.971466 0.471466 0.325969
O O4 0.845829 0.345829 0.191841
O O5 0.911888 0.595850 0.178800
O O6 0.750000 0.750000 0.601024
O O7 0.601956 0.601956 0.500000
#
# Coordination Sequence:
#
# PCOD8317343 Si02
#       4
#     8   2   8  16
#     4  12  24  46  72 105 146 197 249 312 384 450
#     4  12  28  40  76 100 156 186 256 316 380 464
#     4  12  27  45  71 111 141 197 252 309 382 459
#     4  11  24  46  74 103 146 194 247 313 382 453
#
# _framework density 22.62921
#
# number of rings (size 3 to 8) (size 9 to 14) (size 15 to 20)
#    0.000    0.471    4.706    4.941    0.000    2.824 
#    0.000    2.353    0.000    0.000    0.000    0.000 
#    0.000    0.000    0.000    0.000    0.000    0.000 
#
# Total GULP energy -421541.661855 kJ/mol
# GULP energy per Si atom -12398.284172 kJ/mol
# Density = 2.257770 g / cm^3
# Si number density = 22.629210 Si / 1000 Ang^3
#
#
#
# Elastic Constant Matrix: (Units=GPa)
#
#
# Indices 1 2 3 4 5 6 
#
# 1 146.4620 75.7173 51.7066 0.0000 0.0000 0.0000
# 2 75.7173 146.4620 51.7066 0.0000 0.0000 0.0000
# 3 51.7066 51.7066 164.5200 0.0000 0.0000 0.0000
# 4 0.0000 0.0000 0.0000 -21.3447 0.0000 0.0000
# 5 0.0000 0.0000 0.0000 0.0000 -21.3447 0.0000
# 6 0.0000 0.0000 0.0000 0.0000 0.0000 62.3110
#
#
#
# Elastic Compliance Matrix: (Units=1/GPa)
#
#
# Indices 1 2 3 4 5 6 
#
# 1 0.009704 -0.004432 -0.001657 0.000000 0.000000 0.000000
# 2 -0.004432 0.009704 -0.001657 0.000000 0.000000 0.000000
# 3 -0.001657 -0.001657 0.007120 0.000000 0.000000 0.000000
# 4 0.000000 0.000000 0.000000 -0.046850 0.000000 0.000000
# 5 0.000000 0.000000 0.000000 0.000000 -0.046850 0.000000
# 6 0.000000 0.000000 0.000000 0.000000 0.000000 0.016049
#
#
# Mechanical properties :
#
#
# Convention : Reuss Voigt Hill
#
# Bulk Modulus (GPa) = 90.61104 90.63390 90.62247
# Shear Modulus (GPa) = -156.47306 22.47854 -66.99726
#
# Velocity S-wave (km/s) = -8.32446 3.15515 -5.44709
# Velocity P-wave (km/s) = 7.22959 7.30835 0.75666
#
# Compressibility (1/GPa) = 0.01103618
#
# Stress axis : x y z
#
# Youngs Moduli (GPa) = 103.05332 103.05332 140.45320
#
# Poissons Ratio (x) = 0.45669 0.23272
# Poissons Ratio (y) = 0.45669 0.23272
# Poissons Ratio (z) = 0.17075 0.17075
#
# Static dielectric constant tensor:
#      x y z
#    x -5.695580 0.000000 0.000000 
#    y 0.000000 -5.695580 0.000000 
#    z 0.000000 0.000000 4.355290 
# 
# 
# High freq. dielectric constant tensor:
#      x y z
#    x 1.896780 0.000000 0.000000 
#    y 0.000000 1.896780 0.000000 
#    z 0.000000 0.000000 1.901720 
# 
# From -- ./inp_files/5663.got.cif
#   From: 2010.03.12/outbox.cif.g09.slc.cpg/sg134_3_cif.got.tgz:5663.got - 2010.04.06 18:17:22.
