data_PCOD8317053
_publ_section_title
;
Structure prediction by ZEFSAII (Michael W. Deem and Ramdas Pophale) SiO2 
 PCOD8317053
Probable space group: P 42/N B C
;
_chemical_formula_sum "Si O2"
_cell_formula_units_Z 84
_cell_length_a 19.339296
_cell_length_b 19.339296
_cell_length_c 11.898585
_cell_angle_alpha 90.000000
_cell_angle_beta 90.000000
_cell_angle_gamma 90.000000
_cell_volume 4450.170378
_symmetry_space_group_name_H-M "P 42/N B C"
_symmetry_group_IT_number 133
_space_group.IT_coordinate_system_code '2'
_symmetry_cell_setting 'tetragonal'
loop_
_space_group_symop_operation_xyz
x,y,z
1/2-y,x,1/2+z
1/2-x,1/2-y,z
y,1/2-x,1/2+z
x,1/2-y,-z
1/2-x,y,-z
y,x,1/2-z
1/2-y,1/2-x,1/2-z
-x,-y,-z
1/2+y,-x,1/2-z
1/2+x,1/2+y,-z
-y,1/2+x,1/2-z
-x,1/2+y,z
1/2+x,-y,z
-y,-x,1/2+z
1/2+y,1/2+x,1/2+z
loop_
_atom_site_type_symbol
_atom_site_label
_atom_site_fract_x
_atom_site_fract_y
_atom_site_fract_z
Si Si1 0.357249 0.168299 0.621779
Si Si2 0.750000 0.750000 0.000000
Si Si3 0.489920 0.122908 0.233243
Si Si4 0.737728 0.993999 0.122655
Si Si5 0.531744 0.832219 0.010707
Si Si6 0.511267 0.104359 0.768474
O O1 0.357335 0.142666 0.750000
O O2 0.285882 0.201534 0.589643
O O3 0.413078 0.227427 0.602260
O O4 0.368870 0.104766 0.536672
O O5 0.415873 0.084128 0.250000
O O6 0.499488 0.194775 0.299425
O O7 0.553042 0.075294 0.269550
O O8 0.499493 0.137106 0.102121
O O9 0.665105 0.020795 0.175614
O O10 0.750000 0.029792 0.000000
O O11 0.483385 0.855156 0.113631
O O12 0.538620 0.750000 0.000000
O O13 0.440347 0.059654 0.750000
#
# Coordination Sequence:
#
# PCOD8317053 Si02
#       6
#    16   4  16  16  16  16
#     4  12  22  37  56  84 126 170 209 247 302 373
#     4  12  26  32  52  86 128 180 206 244 290 388
#     4  11  27  39  65  97 123 167 219 264 318 386
#     4  12  23  41  61  89 125 164 205 265 317 377
#     4  12  21  42  64  90 129 169 211 257 316 386
#     4  11  24  43  64  92 128 169 210 267 323 372
#
# _framework density 18.875681
#
# number of rings (size 3 to 8) (size 9 to 14) (size 15 to 20)
#    0.000    0.381    7.619    1.429    2.667    1.524 
#    0.000    0.000    0.000    0.571    0.000    2.667 
#    0.000    0.000    0.000    0.000    0.000    0.000 
#
# Total GULP energy -1040783.429633 kJ/mol
# GULP energy per Si atom -12390.278924 kJ/mol
# Density = 1.883272 g / cm^3
# Si number density = 18.875681 Si / 1000 Ang^3
#
#
#
# Elastic Constant Matrix: (Units=GPa)
#
#
# Indices 1 2 3 4 5 6 
#
# 1 88.9862 42.3081 33.5807 0.0000 0.0000 0.0000
# 2 42.3081 88.9860 33.5811 0.0000 0.0000 0.0000
# 3 33.5807 33.5811 137.1666 0.0000 0.0000 0.0000
# 4 0.0000 0.0000 0.0000 23.2653 0.0000 0.0000
# 5 0.0000 0.0000 0.0000 0.0000 23.2650 0.0000
# 6 0.0000 0.0000 0.0000 0.0000 0.0000 31.8161
#
#
#
# Elastic Compliance Matrix: (Units=1/GPa)
#
#
# Indices 1 2 3 4 5 6 
#
# 1 0.015065 -0.006358 -0.002132 0.000000 0.000000 0.000000
# 2 -0.006358 0.015065 -0.002132 0.000000 0.000000 0.000000
# 3 -0.002132 -0.002132 0.008334 0.000000 0.000000 0.000000
# 4 0.000000 0.000000 0.000000 0.042982 0.000000 0.000000
# 5 0.000000 0.000000 0.000000 0.000000 0.042983 0.000000
# 6 0.000000 0.000000 0.000000 0.000000 0.000000 0.031431
#
#
# Mechanical properties :
#
#
# Convention : Reuss Voigt Hill
#
# Bulk Modulus (GPa) = 58.06711 59.34208 58.70459
# Shear Modulus (GPa) = 27.34573 29.38054 28.36313
#
# Velocity S-wave (km/s) = 3.81035 3.94957 3.88058
# Velocity P-wave (km/s) = 7.08435 7.23225 7.15868
#
# Compressibility (1/GPa) = 0.01722145
#
# Stress axis : x y z
#
# Youngs Moduli (GPa) = 66.37870 66.37834 119.98873
#
# Poissons Ratio (x) = 0.42205 0.25576
# Poissons Ratio (y) = 0.42205 0.25577
# Poissons Ratio (z) = 0.14149 0.14149
#
# Static dielectric constant tensor:
#      x y z
#    x 3.346920 0.000000 0.000000 
#    y 0.000000 3.346950 0.000000 
#    z 0.000000 0.000000 3.562460 
# 
# 
# High freq. dielectric constant tensor:
#      x y z
#    x 1.720690 0.000000 0.000000 
#    y 0.000000 1.720690 0.000000 
#    z 0.000000 0.000000 1.755630 
# 
# From -- ./inp_files/3278.got.cif
#   From: 2010.03.12/outbox.cif.g09.slc.cpg/sg133_2_cif.got.tgz:3278.got - 2010.04.06 18:08:06.
