data_PCOD8317582
_publ_section_title
;
Structure prediction by ZEFSAII (Michael W. Deem and Ramdas Pophale) SiO2 
 PCOD8317582
Probable space group: P 42/M B C
;
_chemical_formula_sum "Si O2"
_cell_formula_units_Z 72
_cell_length_a 14.476318
_cell_length_b 14.476318
_cell_length_c 16.913443
_cell_angle_alpha 90.000000
_cell_angle_beta 90.000000
_cell_angle_gamma 90.000000
_cell_volume 3544.445096
_symmetry_space_group_name_H-M "P 42/M B C"
_symmetry_group_IT_number 135
_symmetry_cell_setting 'tetragonal'
loop_
_space_group_symop_operation_xyz
x,y,z
-y,x,1/2+z
-x,-y,z
y,-x,1/2+z
1/2+x,1/2-y,-z
1/2-x,1/2+y,-z
1/2+y,1/2+x,1/2-z
1/2-y,1/2-x,1/2-z
-x,-y,-z
y,-x,1/2-z
x,y,-z
-y,x,1/2-z
1/2-x,1/2+y,z
1/2+x,1/2-y,z
1/2-y,1/2-x,1/2+z
1/2+y,1/2+x,1/2+z
loop_
_atom_site_type_symbol
_atom_site_label
_atom_site_fract_x
_atom_site_fract_y
_atom_site_fract_z
Si Si1 0.093362 0.944714 0.910662
Si Si2 0.383203 0.247079 0.150551
Si Si3 0.954682 0.401356 0.588381
Si Si4 0.017479 0.253199 0.707534
Si Si5 0.718106 0.218106 0.750000
O O1 0.081905 0.834170 0.900490
O O2 0.162787 0.984162 0.846144
O O3 0.128112 0.963641 0.000000
O O4 0.000000 0.000000 0.894482
O O5 0.407468 0.154594 0.104144
O O6 0.429705 0.250009 0.236414
O O7 0.273146 0.251081 0.170226
O O8 0.968903 0.362340 0.500000
O O9 0.000000 0.500000 0.597572
O O10 0.010056 0.339955 0.649959
O O11 0.109123 0.262359 0.761351
#
# Coordination Sequence:
#
# PCOD8317582 Si02
#       5
#    16  16  16  16   8
#     4  10  24  41  60  89 125 165 206 256 316 372
#     4  11  22  39  64  91 122 160 208 259 311 378
#     4  11  23  40  62  90 124 162 203 256 321 379
#     4  11  22  38  64  87 122 156 205 255 310 370
#     4  10  22  38  58  92 114 154 202 256 308 366
#
# _framework density 20.313476000000001
#
# number of rings (size 3 to 8) (size 9 to 14) (size 15 to 20)
#    0.000    1.333    2.222    2.667    6.222    0.889 
#    0.000    0.000    0.000    2.667    0.000    0.000 
#    0.000    0.000    0.000    0.000    0.000    0.000 
#
# Total GULP energy -892892.727827 kJ/mol
# GULP energy per Si atom -12401.287886 kJ/mol
# Density = 2.026724 g / cm^3
# Si number density = 20.313476 Si / 1000 Ang^3
#
#
#
# Elastic Constant Matrix: (Units=GPa)
#
#
# Indices 1 2 3 4 5 6 
#
# 1 99.3061 54.3229 42.6605 0.0000 0.0000 0.0000
# 2 54.3229 99.3061 42.6605 0.0000 0.0000 0.0000
# 3 42.6605 42.6605 105.0243 0.0000 0.0000 0.0000
# 4 0.0000 0.0000 0.0000 60.5093 0.0000 0.0000
# 5 0.0000 0.0000 0.0000 0.0000 60.5093 0.0000
# 6 0.0000 0.0000 0.0000 0.0000 0.0000 31.3759
#
#
#
# Elastic Compliance Matrix: (Units=1/GPa)
#
#
# Indices 1 2 3 4 5 6 
#
# 1 0.015318 -0.006913 -0.003414 0.000000 0.000000 0.000000
# 2 -0.006913 0.015318 -0.003414 0.000000 0.000000 0.000000
# 3 -0.003414 -0.003414 0.012295 0.000000 0.000000 0.000000
# 4 0.000000 0.000000 0.000000 0.016526 0.000000 0.000000
# 5 0.000000 0.000000 0.000000 0.000000 0.016526 0.000000
# 6 0.000000 0.000000 0.000000 0.000000 0.000000 0.031872
#
#
# Mechanical properties :
#
#
# Convention : Reuss Voigt Hill
#
# Bulk Modulus (GPa) = 64.72868 64.76936 64.74902
# Shear Modulus (GPa) = 35.59040 41.41174 38.50107
#
# Velocity S-wave (km/s) = 4.19030 4.52002 4.35828
# Velocity P-wave (km/s) = 7.43946 7.69382 7.56771
#
# Compressibility (1/GPa) = 0.01544910
#
# Stress axis : x y z
#
# Youngs Moduli (GPa) = 65.28295 65.28295 81.33193
#
# Poissons Ratio (x) = 0.45127 0.27769
# Poissons Ratio (y) = 0.45127 0.27769
# Poissons Ratio (z) = 0.22289 0.22289
#
# Static dielectric constant tensor:
#      x y z
#    x 3.824240 0.000000 0.000000 
#    y 0.000000 3.824240 0.000000 
#    z 0.000000 0.000000 3.717710 
# 
# 
# High freq. dielectric constant tensor:
#      x y z
#    x 1.802650 0.000000 0.000000 
#    y 0.000000 1.802650 0.000000 
#    z 0.000000 0.000000 1.790880 
# 
# From -- ./inp_files/4292.got.cif
#   From: 2010.03.12/outbox.cif.g09.slc.cpg/sg135_3_cif.got.tgz:4292.got - 2010.04.06 18:31:24.
