data_PCOD8317927
_publ_section_title
;
Structure prediction by ZEFSAII (Michael W. Deem and Ramdas Pophale) SiO2 
 PCOD8317927
Probable space group: P 42/M N M
;
_chemical_formula_sum "Si O2"
_cell_formula_units_Z 88
_cell_length_a 14.931602
_cell_length_b 14.931602
_cell_length_c 21.575883
_cell_angle_alpha 90.000000
_cell_angle_beta 90.000000
_cell_angle_gamma 90.000000
_cell_volume 4810.402196
_symmetry_space_group_name_H-M "P 42/M N M"
_symmetry_group_IT_number 136
_symmetry_cell_setting 'tetragonal'
loop_
_space_group_symop_operation_xyz
x,y,z
1/2-y,1/2+x,1/2+z
-x,-y,z
1/2+y,1/2-x,1/2+z
1/2+x,1/2-y,1/2-z
1/2-x,1/2+y,1/2-z
y,x,-z
-y,-x,-z
-x,-y,-z
1/2+y,1/2-x,1/2-z
x,y,-z
1/2-y,1/2+x,1/2-z
1/2-x,1/2+y,1/2+z
1/2+x,1/2-y,1/2+z
-y,-x,z
y,x,z
loop_
_atom_site_type_symbol
_atom_site_label
_atom_site_fract_x
_atom_site_fract_y
_atom_site_fract_z
Si Si1 0.849912 0.999379 0.500000
Si Si2 0.311105 0.164982 0.931309
Si Si3 0.039269 0.359025 0.736812
Si Si4 0.709329 0.438463 0.663498
Si Si5 0.569998 0.569998 0.817144
Si Si6 0.021646 0.745459 0.375414
Si Si7 0.431006 0.431006 0.327264
O O1 0.920915 0.920915 0.500000
O O2 0.785191 0.986009 0.559354
O O3 0.903640 0.096361 0.500000
O O4 0.257658 0.257658 0.933935
O O5 0.252004 0.086169 0.902355
O O6 0.396447 0.179609 0.888627
O O7 0.340071 0.135075 0.000000
O O8 0.940215 0.390937 0.757333
O O9 0.043414 0.317702 0.666464
O O10 0.069451 0.281259 0.782631
O O11 0.629192 0.370809 0.682029
O O12 0.669933 0.539553 0.654593
O O13 0.500000 0.500000 0.850358
O O14 0.671282 0.548900 0.833716
O O15 0.559226 0.559226 0.745426
O O16 0.500000 0.500000 0.360116
#
# Coordination Sequence:
#
# PCOD8317927 Si02
#       7
#     8  16  16  16   8  16   8
#     4  11  22  34  56  91 130 163 192 239 298 359
#     4  10  19  33  54  84 111 145 194 238 279 339
#     4  11  24  40  58  82 120 155 199 245 292 349
#     4  10  20  36  60  85 112 145 189 245 298 344
#     4  11  20  29  52  86 124 152 183 235 291 348
#     4  12  20  33  56  82 117 160 196 231 288 349
#     4   9  18  32  52  84 116 142 176 235 303 349
#
# _framework density 18.293688
#
# number of rings (size 3 to 8) (size 9 to 14) (size 15 to 20)
#    0.000    1.364    6.364    0.545    0.000    0.727 
#    1.636    0.455    2.000    4.909    0.000    0.000 
#    0.000    0.000    0.000    0.000    0.000    0.000 
#
# Total GULP energy -1090452.480808 kJ/mol
# GULP energy per Si atom -12391.505464 kJ/mol
# Density = 1.825205 g / cm^3
# Si number density = 18.293688 Si / 1000 Ang^3
#
#
#
# Elastic Constant Matrix: (Units=GPa)
#
#
# Indices 1 2 3 4 5 6 
#
# 1 69.8254 31.9850 32.5065 0.0000 0.0000 0.0000
# 2 31.9850 69.8254 32.5066 0.0000 0.0000 0.0000
# 3 32.5065 32.5066 89.5534 0.0000 0.0000 0.0000
# 4 0.0000 0.0000 0.0000 25.6517 0.0000 0.0000
# 5 0.0000 0.0000 0.0000 0.0000 25.6517 0.0000
# 6 0.0000 0.0000 0.0000 0.0000 0.0000 29.9420
#
#
#
# Elastic Compliance Matrix: (Units=1/GPa)
#
#
# Indices 1 2 3 4 5 6 
#
# 1 0.019606 -0.006820 -0.004641 0.000000 0.000000 0.000000
# 2 -0.006820 0.019606 -0.004641 0.000000 0.000000 0.000000
# 3 -0.004641 -0.004641 0.014536 0.000000 0.000000 0.000000
# 4 0.000000 0.000000 0.000000 0.038984 0.000000 0.000000
# 5 0.000000 0.000000 0.000000 0.000000 0.038984 0.000000
# 6 0.000000 0.000000 0.000000 0.000000 0.000000 0.033398
#
#
# Mechanical properties :
#
#
# Convention : Reuss Voigt Hill
#
# Bulk Modulus (GPa) = 46.41837 47.02226 46.72031
# Shear Modulus (GPa) = 24.44986 25.06282 24.75634
#
# Velocity S-wave (km/s) = 3.65981 3.70540 3.68268
# Velocity P-wave (km/s) = 6.57936 6.63826 6.60888
#
# Compressibility (1/GPa) = 0.02154319
#
# Stress axis : x y z
#
# Youngs Moduli (GPa) = 51.00404 51.00396 68.79569
#
# Poissons Ratio (x) = 0.34787 0.31928
# Poissons Ratio (y) = 0.34787 0.31929
# Poissons Ratio (z) = 0.23671 0.23671
#
# Static dielectric constant tensor:
#      x y z
#    x 3.395610 0.000000 0.000000 
#    y 0.000000 3.395610 0.000000 
#    z 0.000000 0.000000 3.458130 
# 
# 
# High freq. dielectric constant tensor:
#      x y z
#    x 1.696690 0.000000 0.000000 
#    y 0.000000 1.696690 0.000000 
#    z 0.000000 0.000000 1.709680 
# 
# From -- ./inp_files/7413.got.cif
#   From: 2010.03.12/outbox.cif.g09.slc.cpg/sg136_4_cif.got.tgz:7413.got - 2010.04.06 18:39:43.
