data_PCOD8317859
_publ_section_title
;
Structure prediction by ZEFSAII (Michael W. Deem and Ramdas Pophale) SiO2 
 PCOD8317859
Probable space group: P 42/M N M
;
_chemical_formula_sum "Si O2"
_cell_formula_units_Z 96
_cell_length_a 16.325731
_cell_length_b 16.325731
_cell_length_c 19.485653
_cell_angle_alpha 90.000000
_cell_angle_beta 90.000000
_cell_angle_gamma 90.000000
_cell_volume 5193.501209
_symmetry_space_group_name_H-M "P 42/M N M"
_symmetry_group_IT_number 136
_symmetry_cell_setting 'tetragonal'
loop_
_space_group_symop_operation_xyz
x,y,z
1/2-y,1/2+x,1/2+z
-x,-y,z
1/2+y,1/2-x,1/2+z
1/2+x,1/2-y,1/2-z
1/2-x,1/2+y,1/2-z
y,x,-z
-y,-x,-z
-x,-y,-z
1/2+y,1/2-x,1/2-z
x,y,-z
1/2-y,1/2+x,1/2-z
1/2-x,1/2+y,1/2+z
1/2+x,1/2-y,1/2+z
-y,-x,z
y,x,z
loop_
_atom_site_type_symbol
_atom_site_label
_atom_site_fract_x
_atom_site_fract_y
_atom_site_fract_z
Si Si1 0.373176 0.500269 0.664246
Si Si2 0.969258 0.729397 0.920792
Si Si3 0.233936 0.101906 0.327378
Si Si4 0.072772 0.796011 0.704202
Si Si5 0.662653 0.204557 0.316047
Si Si6 0.340180 0.207876 0.420592
O O1 0.427694 0.572306 0.699638
O O2 0.432030 0.432030 0.631510
O O3 0.323833 0.540663 0.601566
O O4 0.313580 0.458869 0.719311
O O5 0.902822 0.679384 0.875268
O O6 0.063541 0.708296 0.904386
O O7 0.947138 0.716121 0.000000
O O8 0.151518 0.151518 0.342765
O O9 0.261879 0.112408 0.248726
O O10 0.304928 0.132397 0.377719
O O11 0.216254 0.006521 0.343942
O O12 0.128199 0.871802 0.677114
O O13 0.124071 0.712346 0.706076
O O14 0.725987 0.274014 0.342578
O O15 0.324377 0.189947 0.500000
O O16 0.293441 0.293441 0.399567
#
# Coordination Sequence:
#
# PCOD8317859 Si02
#       6
#    16  16  16  16  16  16
#     4  10  19  31  50  79 113 144 177 223 280 336
#     4  11  21  34  53  78 114 154 187 221 265 326
#     4  10  19  34  59  84 107 140 184 234 278 324
#     4  10  20  35  55  78 109 144 183 235 282 324
#     4  10  21  35  51  76 109 150 193 225 267 321
#     4   9  19  36  59  86 113 145 184 226 278 334
#
# _framework density 18.484641
#
# number of rings (size 3 to 8) (size 9 to 14) (size 15 to 20)
#    0.000    2.000    1.667    2.500    0.000    6.000 
#    0.000    2.500    0.000    3.500    0.000    2.333 
#    0.000    0.000    0.000    0.000    0.000    0.000 
#
# Total GULP energy -1189882.972678 kJ/mol
# GULP energy per Si atom -12394.614299 kJ/mol
# Density = 1.844257 g / cm^3
# Si number density = 18.484641 Si / 1000 Ang^3
#
#
#
# Elastic Constant Matrix: (Units=GPa)
#
#
# Indices 1 2 3 4 5 6 
#
# 1 114.9489 53.0655 38.4389 0.0000 0.0000 0.0000
# 2 53.0655 114.9489 38.4389 0.0000 0.0000 0.0000
# 3 38.4389 38.4389 67.0071 0.0000 0.0000 0.0000
# 4 0.0000 0.0000 0.0000 27.6474 0.0000 0.0000
# 5 0.0000 0.0000 0.0000 0.0000 27.6474 0.0000
# 6 0.0000 0.0000 0.0000 0.0000 0.0000 30.1740
#
#
#
# Elastic Compliance Matrix: (Units=1/GPa)
#
#
# Indices 1 2 3 4 5 6 
#
# 1 0.012115 -0.004045 -0.004629 0.000000 0.000000 0.000000
# 2 -0.004045 0.012115 -0.004629 0.000000 0.000000 0.000000
# 3 -0.004629 -0.004629 0.020235 0.000000 0.000000 0.000000
# 4 0.000000 0.000000 0.000000 0.036170 0.000000 0.000000
# 5 0.000000 0.000000 0.000000 0.000000 0.036170 0.000000
# 6 0.000000 0.000000 0.000000 0.000000 0.000000 0.033141
#
#
# Mechanical properties :
#
#
# Convention : Reuss Voigt Hill
#
# Bulk Modulus (GPa) = 55.99847 61.86574 58.93210
# Shear Modulus (GPa) = 27.39647 28.22454 27.81050
#
# Velocity S-wave (km/s) = 3.85401 3.91182 3.88302
# Velocity P-wave (km/s) = 7.08272 7.34469 7.21489
#
# Compressibility (1/GPa) = 0.01785763
#
# Stress axis : x y z
#
# Youngs Moduli (GPa) = 82.54366 82.54366 49.41867
#
# Poissons Ratio (x) = 0.33386 0.22878
# Poissons Ratio (y) = 0.33386 0.22878
# Poissons Ratio (z) = 0.38214 0.38214
#
# Static dielectric constant tensor:
#      x y z
#    x 3.500190 0.000000 0.000000 
#    y 0.000000 3.500190 0.000000 
#    z 0.000000 0.000000 3.201840 
# 
# 
# High freq. dielectric constant tensor:
#      x y z
#    x 1.716610 0.000000 0.000000 
#    y 0.000000 1.716610 0.000000 
#    z 0.000000 0.000000 1.689060 
# 
# From -- ./inp_files/7491.got.cif
#   From: 2010.03.12/outbox.cif.g09.slc.cpg/sg136_4_cif.got.tgz:7491.got - 2010.04.06 18:39:43.
