data_PCOD8317266
_publ_section_title
;
Structure prediction by ZEFSAII (Michael W. Deem and Ramdas Pophale) SiO2 
 PCOD8317266
Probable space group: P 42/N N M
;
_chemical_formula_sum "Si O2"
_cell_formula_units_Z 64
_cell_length_a 12.941462
_cell_length_b 12.941462
_cell_length_c 17.203488
_cell_angle_alpha 90.000000
_cell_angle_beta 90.000000
_cell_angle_gamma 90.000000
_cell_volume 2881.264921
_symmetry_space_group_name_H-M "P 42/N N M"
_symmetry_group_IT_number 134
_space_group.IT_coordinate_system_code '2'
_symmetry_cell_setting 'tetragonal'
loop_
_space_group_symop_operation_xyz
x,y,z
1/2-y,x,1/2+z
1/2-x,1/2-y,z
y,1/2-x,1/2+z
x,1/2-y,1/2-z
1/2-x,y,1/2-z
y,x,-z
1/2-y,1/2-x,-z
-x,-y,-z
1/2+y,-x,1/2-z
1/2+x,1/2+y,-z
-y,1/2+x,1/2-z
-x,1/2+y,1/2+z
1/2+x,-y,1/2+z
-y,-x,z
1/2+y,1/2+x,z
loop_
_atom_site_type_symbol
_atom_site_label
_atom_site_fract_x
_atom_site_fract_y
_atom_site_fract_z
Si Si1 0.747429 0.085855 0.553998
Si Si2 0.557633 0.608500 0.364809
Si Si3 0.357258 0.473358 0.786372
Si Si4 0.772535 0.595860 0.442933
O O1 0.831901 0.168100 0.525253
O O2 0.644524 0.144524 0.584291
O O3 0.792330 0.016203 0.624004
O O4 0.719059 0.017400 0.479679
O O5 0.497219 0.502782 0.387299
O O6 0.591089 0.605089 0.275133
O O7 0.653683 0.622944 0.423372
O O8 0.250000 0.515248 0.750000
O O9 0.428335 0.571666 0.804001
O O10 0.339778 0.406893 0.864134
O O11 0.817315 0.682686 0.500000
#
# Coordination Sequence:
#
# PCOD8317266 Si02
#       4
#    16  16  16  16
#     4  10  21  37  60  90 121 157 202 248 296 354
#     4   9  19  39  64  87 119 162 202 243 296 360
#     4   9  19  36  58  86 119 156 199 247 302 363
#     4  11  22  36  59  91 124 158 198 247 304 359
#
# _framework density 22.212465000000002
#
# number of rings (size 3 to 8) (size 9 to 14) (size 15 to 20)
#    0.000    2.250    0.000    2.250    0.000    7.250 
#    0.000    1.250    0.000   13.500    0.000    7.000 
#    0.000    0.000    0.000    0.000    0.000    0.250 
#
# Total GULP energy -793687.331083 kJ/mol
# GULP energy per Si atom -12401.364548 kJ/mol
# Density = 2.216191 g / cm^3
# Si number density = 22.212465 Si / 1000 Ang^3
#
#
#
# Elastic Constant Matrix: (Units=GPa)
#
#
# Indices 1 2 3 4 5 6 
#
# 1 117.0744 102.5032 75.2193 0.0000 0.0000 0.0000
# 2 102.5032 117.0752 75.2174 0.0000 0.0000 0.0000
# 3 75.2193 75.2174 142.7505 0.0000 0.0000 0.0000
# 4 0.0000 0.0000 0.0000 30.9527 0.0000 0.0000
# 5 0.0000 0.0000 0.0000 0.0000 30.9530 0.0000
# 6 0.0000 0.0000 0.0000 0.0000 0.0000 40.4564
#
#
#
# Elastic Compliance Matrix: (Units=1/GPa)
#
#
# Indices 1 2 3 4 5 6 
#
# 1 0.037878 -0.030750 -0.003756 0.000000 0.000000 0.000000
# 2 -0.030750 0.037876 -0.003755 0.000000 0.000000 0.000000
# 3 -0.003756 -0.003755 0.010963 0.000000 0.000000 0.000000
# 4 0.000000 0.000000 0.000000 0.032307 0.000000 0.000000
# 5 0.000000 0.000000 0.000000 0.000000 0.032307 0.000000
# 6 0.000000 0.000000 0.000000 0.000000 0.000000 0.024718
#
#
# Mechanical properties :
#
#
# Convention : Reuss Voigt Hill
#
# Bulk Modulus (GPa) = 98.08385 98.08666 98.08526
# Shear Modulus (GPa) = 19.53363 28.73643 24.13503
#
# Velocity S-wave (km/s) = 2.96868 3.60072 3.29987
# Velocity P-wave (km/s) = 7.48357 7.84482 7.66632
#
# Compressibility (1/GPa) = 0.01019536
#
# Stress axis : x y z
#
# Youngs Moduli (GPa) = 26.40082 26.40178 91.21706
#
# Poissons Ratio (x) = 0.81185 0.34263
# Poissons Ratio (y) = 0.81182 0.34248
# Poissons Ratio (z) = 0.09917 0.09913
#
# Static dielectric constant tensor:
#      x y z
#    x 4.097330 0.000000 0.000000 
#    y 0.000000 4.097340 0.000000 
#    z 0.000000 0.000000 3.947860 
# 
# 
# High freq. dielectric constant tensor:
#      x y z
#    x 1.879190 0.000000 0.000000 
#    y 0.000000 1.879190 0.000000 
#    z 0.000000 0.000000 1.868540 
# 
# From -- ./inp_files/6125.got.cif
#   From: 2010.03.12/outbox.cif.g09.slc.cpg/sg134_4_cif.got.tgz:6125.got - 2010.04.06 18:17:22.
