data_PCOD8317849
_publ_section_title
;
Structure prediction by ZEFSAII (Michael W. Deem and Ramdas Pophale) SiO2 
 PCOD8317849
Probable space group: P 42/M N M
;
_chemical_formula_sum "Si O2"
_cell_formula_units_Z 96
_cell_length_a 24.735803
_cell_length_b 24.735803
_cell_length_c 9.010909
_cell_angle_alpha 90.000000
_cell_angle_beta 90.000000
_cell_angle_gamma 90.000000
_cell_volume 5513.414331
_symmetry_space_group_name_H-M "P 42/M N M"
_symmetry_group_IT_number 136
_symmetry_cell_setting 'tetragonal'
loop_
_space_group_symop_operation_xyz
x,y,z
1/2-y,1/2+x,1/2+z
-x,-y,z
1/2+y,1/2-x,1/2+z
1/2+x,1/2-y,1/2-z
1/2-x,1/2+y,1/2-z
y,x,-z
-y,-x,-z
-x,-y,-z
1/2+y,1/2-x,1/2-z
x,y,-z
1/2-y,1/2+x,1/2-z
1/2-x,1/2+y,1/2+z
1/2+x,1/2-y,1/2+z
-y,-x,z
y,x,z
loop_
_atom_site_type_symbol
_atom_site_label
_atom_site_fract_x
_atom_site_fract_y
_atom_site_fract_z
Si Si1 0.421602 0.421602 0.323625
Si Si2 0.079745 0.634410 0.173220
Si Si3 0.464388 0.622027 0.675772
Si Si4 0.270098 0.515833 0.169990
Si Si5 0.665497 0.665497 0.324080
Si Si6 0.149347 0.529199 0.172342
Si Si7 0.606258 0.757780 0.172685
O O1 0.423018 0.423018 0.500000
O O2 0.404925 0.480474 0.261491
O O3 0.378136 0.378136 0.266756
O O4 0.114251 0.581361 0.206343
O O5 0.108247 0.682119 0.263044
O O6 0.019035 0.624614 0.230197
O O7 0.078558 0.648795 0.000000
O O8 0.466754 0.624425 0.500000
O O9 0.414087 0.585914 0.730829
O O10 0.456720 0.682905 0.733895
O O11 0.211902 0.540588 0.216038
O O12 0.269013 0.451933 0.201239
O O13 0.283196 0.528480 0.000000
O O14 0.668105 0.668105 0.500000
O O15 0.650794 0.723834 0.260184
O O16 0.147150 0.511505 0.000000
O O17 0.620787 0.759660 0.000000
#
# Coordination Sequence:
#
# PCOD8317849 Si02
#       7
#     8  16  16  16   8  16  16
#     4   9  17  29  46  71 103 133 165 213 261 305
#     4  10  20  35  57  82 107 139 178 214 256 320
#     4  10  19  31  48  71 100 134 173 216 261 306
#     4   9  18  33  51  70  98 135 170 206 254 309
#     4  11  19  30  53  79 102 136 182 223 263 322
#     4   9  20  37  55  79 110 139 170 212 263 315
#     4  10  20  34  52  76 107 137 170 218 271 312
#
# _framework density 17.412078999999999
#
# number of rings (size 3 to 8) (size 9 to 14) (size 15 to 20)
#    0.000    2.333    1.667    2.500    0.000    5.667 
#    0.000    2.083    1.833    1.000    0.000    0.000 
#    0.000    0.000    0.000    0.000    0.000    0.000 
#
# Total GULP energy -1190562.959631 kJ/mol
# GULP energy per Si atom -12401.697496 kJ/mol
# Density = 1.737245 g / cm^3
# Si number density = 17.412079 Si / 1000 Ang^3
#
#
#
# Elastic Constant Matrix: (Units=GPa)
#
#
# Indices 1 2 3 4 5 6 
#
# 1 104.7193 71.3660 48.3216 0.0000 0.0000 0.0000
# 2 71.3660 104.7193 48.3216 0.0000 0.0000 0.0000
# 3 48.3216 48.3216 71.9258 0.0000 0.0000 0.0000
# 4 0.0000 0.0000 0.0000 26.5151 0.0000 0.0000
# 5 0.0000 0.0000 0.0000 0.0000 26.5151 0.0000
# 6 0.0000 0.0000 0.0000 0.0000 0.0000 28.3237
#
#
#
# Elastic Compliance Matrix: (Units=1/GPa)
#
#
# Indices 1 2 3 4 5 6 
#
# 1 0.019489 -0.010493 -0.006044 0.000000 0.000000 0.000000
# 2 -0.010493 0.019489 -0.006044 0.000000 0.000000 0.000000
# 3 -0.006044 -0.006044 0.022024 0.000000 0.000000 0.000000
# 4 0.000000 0.000000 0.000000 0.037714 0.000000 0.000000
# 5 0.000000 0.000000 0.000000 0.000000 0.037714 0.000000
# 6 0.000000 0.000000 0.000000 0.000000 0.000000 0.035306
#
#
# Mechanical properties :
#
#
# Convention : Reuss Voigt Hill
#
# Bulk Modulus (GPa) = 63.12745 68.59812 65.86278
# Shear Modulus (GPa) = 22.50439 23.82780 23.16609
#
# Velocity S-wave (km/s) = 3.59898 3.70329 3.65151
# Velocity P-wave (km/s) = 7.32147 7.60054 7.46231
#
# Compressibility (1/GPa) = 0.01584097
#
# Stress axis : x y z
#
# Youngs Moduli (GPa) = 51.31069 51.31069 45.40474
#
# Poissons Ratio (x) = 0.53840 0.27442
# Poissons Ratio (y) = 0.53840 0.27442
# Poissons Ratio (z) = 0.31012 0.31012
#
# Static dielectric constant tensor:
#      x y z
#    x 3.192490 0.000000 0.000000 
#    y 0.000000 3.192490 0.000000 
#    z 0.000000 0.000000 3.168880 
# 
# 
# High freq. dielectric constant tensor:
#      x y z
#    x 1.664960 0.000000 0.000000 
#    y 0.000000 1.664960 0.000000 
#    z 0.000000 0.000000 1.669820 
# 
# From -- ./inp_files/2074.got.cif
#   From: 2010.03.12/outbox.cif.g09.slc.cpg/sg136_2_cif.got.tgz:2074.got - 2010.04.06 18:39:43.
