data_PCOD8317977
_publ_section_title
;
Structure prediction by ZEFSAII (Michael W. Deem and Ramdas Pophale) SiO2 
 PCOD8317977
Probable space group: P 42/M N M
;
_chemical_formula_sum "Si O2"
_cell_formula_units_Z 96
_cell_length_a 23.312704
_cell_length_b 23.312704
_cell_length_c 9.354226
_cell_angle_alpha 90.000000
_cell_angle_beta 90.000000
_cell_angle_gamma 90.000000
_cell_volume 5083.855024
_symmetry_space_group_name_H-M "P 42/M N M"
_symmetry_group_IT_number 136
_symmetry_cell_setting 'tetragonal'
loop_
_space_group_symop_operation_xyz
x,y,z
1/2-y,1/2+x,1/2+z
-x,-y,z
1/2+y,1/2-x,1/2+z
1/2+x,1/2-y,1/2-z
1/2-x,1/2+y,1/2-z
y,x,-z
-y,-x,-z
-x,-y,-z
1/2+y,1/2-x,1/2-z
x,y,-z
1/2-y,1/2+x,1/2-z
1/2-x,1/2+y,1/2+z
1/2+x,1/2-y,1/2+z
-y,-x,z
y,x,z
loop_
_atom_site_type_symbol
_atom_site_label
_atom_site_fract_x
_atom_site_fract_y
_atom_site_fract_z
Si Si1 0.746090 0.746090 0.830322
Si Si2 0.335383 0.335383 0.663637
Si Si3 0.925738 0.629627 0.661709
Si Si4 0.153204 0.063432 0.665117
Si Si5 0.707500 0.537699 0.334157
Si Si6 0.641959 0.242106 0.160980
Si Si7 0.338916 0.967819 0.168406
O O1 0.700516 0.700516 0.776113
O O2 0.728107 0.808086 0.771859
O O3 0.746808 0.746808 0.000000
O O4 0.319115 0.319115 0.500000
O O5 0.401463 0.321875 0.693792
O O6 0.943738 0.613849 0.500000
O O7 0.906780 0.694969 0.674250
O O8 0.873043 0.589708 0.711770
O O9 0.980901 0.624368 0.762191
O O10 0.158392 0.045544 0.500000
O O11 0.089940 0.089940 0.698473
O O12 0.197989 0.113496 0.702042
O O13 0.166180 0.007715 0.757883
O O14 0.708550 0.521891 0.500000
O O15 0.773204 0.536943 0.274643
O O16 0.667533 0.243415 0.000000
O O17 0.338400 0.977190 0.000000
#
# Coordination Sequence:
#
# PCOD8317977 Si02
#       7
#     8   8  16  16  16  16  16
#     4  12  24  34  54  91 123 147 187 249 300 340
#     4  10  22  42  63  83 116 163 201 233 294 368
#     4  10  21  37  57  79 107 152 197 234 286 349
#     4  10  20  36  60  88 116 151 190 231 288 352
#     4  10  21  39  63  87 114 151 194 245 294 345
#     4  10  19  36  58  79 112 154 191 229 287 364
#     4  10  21  36  55  82 113 144 189 245 292 334
#
# _framework density 18.883306999999999
#
# number of rings (size 3 to 8) (size 9 to 14) (size 15 to 20)
#    0.000    1.833    2.500    1.750    0.000    6.000 
#    0.000    3.750    0.000    2.500    0.000    0.000 
#    0.000    0.000    0.000    0.000    0.000    0.000 
#
# Total GULP energy -1190395.747912 kJ/mol
# GULP energy per Si atom -12399.955707 kJ/mol
# Density = 1.884033 g / cm^3
# Si number density = 18.883307 Si / 1000 Ang^3
#
#
#
# Elastic Constant Matrix: (Units=GPa)
#
#
# Indices 1 2 3 4 5 6 
#
# 1 98.8071 41.2336 45.6371 0.0000 0.0000 0.0000
# 2 41.2336 98.8071 45.6371 0.0000 0.0000 0.0000
# 3 45.6371 45.6371 78.5313 0.0000 0.0000 0.0000
# 4 0.0000 0.0000 0.0000 30.8501 0.0000 0.0000
# 5 0.0000 0.0000 0.0000 0.0000 30.8501 0.0000
# 6 0.0000 0.0000 0.0000 0.0000 0.0000 30.4461
#
#
#
# Elastic Compliance Matrix: (Units=1/GPa)
#
#
# Indices 1 2 3 4 5 6 
#
# 1 0.014432 -0.002937 -0.006680 0.000000 0.000000 0.000000
# 2 -0.002937 0.014432 -0.006680 0.000000 0.000000 0.000000
# 3 -0.006680 -0.006680 0.020498 0.000000 0.000000 0.000000
# 4 0.000000 0.000000 0.000000 0.032415 0.000000 0.000000
# 5 0.000000 0.000000 0.000000 0.000000 0.032415 0.000000
# 6 0.000000 0.000000 0.000000 0.000000 0.000000 0.032845
#
#
# Mechanical properties :
#
#
# Convention : Reuss Voigt Hill
#
# Bulk Modulus (GPa) = 59.64028 60.12899 59.88464
# Shear Modulus (GPa) = 26.99513 28.00510 27.50011
#
# Velocity S-wave (km/s) = 3.78508 3.85523 3.82031
# Velocity P-wave (km/s) = 7.12422 7.19226 7.15832
#
# Compressibility (1/GPa) = 0.01676719
#
# Stress axis : x y z
#
# Youngs Moduli (GPa) = 69.29142 69.29142 48.78640
#
# Poissons Ratio (x) = 0.20353 0.32588
# Poissons Ratio (y) = 0.20353 0.32588
# Poissons Ratio (z) = 0.46285 0.46285
#
# Static dielectric constant tensor:
#      x y z
#    x 3.389810 0.000000 0.000000 
#    y 0.000000 3.389810 0.000000 
#    z 0.000000 0.000000 3.362700 
# 
# 
# High freq. dielectric constant tensor:
#      x y z
#    x 1.734830 0.000000 0.000000 
#    y 0.000000 1.734830 0.000000 
#    z 0.000000 0.000000 1.720360 
# 
# From -- ./inp_files/2088.got.cif
#   From: 2010.03.12/outbox.cif.g09.slc.cpg/sg136_2_cif.got.tgz:2088.got - 2010.04.06 18:39:43.
