data_PCOD8317922
_publ_section_title
;
Structure prediction by ZEFSAII (Michael W. Deem and Ramdas Pophale) SiO2 
 PCOD8317922
Probable space group: P 42/M N M
;
_chemical_formula_sum "Si O2"
_cell_formula_units_Z 96
_cell_length_a 20.144851
_cell_length_b 20.144851
_cell_length_c 13.401487
_cell_angle_alpha 90.000000
_cell_angle_beta 90.000000
_cell_angle_gamma 90.000000
_cell_volume 5438.524739
_symmetry_space_group_name_H-M "P 42/M N M"
_symmetry_group_IT_number 136
_symmetry_cell_setting 'tetragonal'
loop_
_space_group_symop_operation_xyz
x,y,z
1/2-y,1/2+x,1/2+z
-x,-y,z
1/2+y,1/2-x,1/2+z
1/2+x,1/2-y,1/2-z
1/2-x,1/2+y,1/2-z
y,x,-z
-y,-x,-z
-x,-y,-z
1/2+y,1/2-x,1/2-z
x,y,-z
1/2-y,1/2+x,1/2-z
1/2-x,1/2+y,1/2+z
1/2+x,1/2-y,1/2+z
-y,-x,z
y,x,z
loop_
_atom_site_type_symbol
_atom_site_label
_atom_site_fract_x
_atom_site_fract_y
_atom_site_fract_z
Si Si1 0.190768 0.297745 0.391216
Si Si2 0.392787 0.985920 0.254556
Si Si3 0.792079 0.102042 0.792582
Si Si4 0.299130 0.904526 0.386511
Si Si5 0.485622 0.768753 0.384886
Si Si6 0.154222 0.266382 0.815096
O O1 0.158613 0.316359 0.500000
O O2 0.229734 0.229734 0.405759
O O3 0.240245 0.354501 0.355022
O O4 0.138620 0.286948 0.300902
O O5 0.446077 0.930789 0.216643
O O6 0.355035 0.956986 0.351131
O O7 0.338664 0.998392 0.168541
O O8 0.864798 0.135203 0.792499
O O9 0.767705 0.091348 0.679234
O O10 0.792083 0.031982 0.848773
O O11 0.280567 0.921501 0.500000
O O12 0.326150 0.829972 0.379794
O O13 0.495306 0.783246 0.500000
O O14 0.413238 0.739327 0.361331
O O15 0.212373 0.212373 0.822450
#
# Coordination Sequence:
#
# PCOD8317922 Si02
#       6
#    16  16  16  16  16  16
#     4   8  14  28  51  74  95 122 157 204 262 310
#     4  10  21  36  51  72 109 147 181 217 254 314
#     4   9  19  34  52  76 103 130 171 223 266 315
#     4  10  19  33  54  78 103 138 180 219 265 319
#     4  11  22  35  52  75 104 141 183 219 265 325
#     4  10  20  33  50  75 104 134 175 226 269 315
#
# _framework density 17.651845999999999
#
# number of rings (size 3 to 8) (size 9 to 14) (size 15 to 20)
#    0.000    2.333    1.667    2.500    0.000    4.000 
#    0.000    5.000    0.000    0.500    0.000    1.167 
#    0.000    0.000    0.000   10.167    0.000    0.000 
#
# Total GULP energy -1189648.238244 kJ/mol
# GULP energy per Si atom -12392.169148 kJ/mol
# Density = 1.761167 g / cm^3
# Si number density = 17.651846 Si / 1000 Ang^3
#
#
#
# Elastic Constant Matrix: (Units=GPa)
#
#
# Indices 1 2 3 4 5 6 
#
# 1 37.7488 15.9068 24.2813 0.0000 0.0000 0.0000
# 2 15.9068 37.7488 24.2813 0.0000 0.0000 0.0000
# 3 24.2813 24.2813 135.8270 0.0000 0.0000 0.0000
# 4 0.0000 0.0000 0.0000 15.1386 0.0000 0.0000
# 5 0.0000 0.0000 0.0000 0.0000 15.1386 0.0000
# 6 0.0000 0.0000 0.0000 0.0000 0.0000 25.9766
#
#
#
# Elastic Compliance Matrix: (Units=1/GPa)
#
#
# Indices 1 2 3 4 5 6 
#
# 1 0.034009 -0.011774 -0.003975 0.000000 0.000000 0.000000
# 2 -0.011774 0.034009 -0.003975 0.000000 0.000000 0.000000
# 3 -0.003975 -0.003975 0.008783 0.000000 0.000000 0.000000
# 4 0.000000 0.000000 0.000000 0.066056 0.000000 0.000000
# 5 0.000000 0.000000 0.000000 0.000000 0.066056 0.000000
# 6 0.000000 0.000000 0.000000 0.000000 0.000000 0.038496
#
#
# Mechanical properties :
#
#
# Convention : Reuss Voigt Hill
#
# Bulk Modulus (GPa) = 26.77099 37.80707 32.28903
# Shear Modulus (GPa) = 16.70510 21.04111 18.87310
#
# Velocity S-wave (km/s) = 3.07964 3.45629 3.27339
# Velocity P-wave (km/s) = 5.27680 6.11495 5.71127
#
# Compressibility (1/GPa) = 0.03735387
#
# Stress axis : x y z
#
# Youngs Moduli (GPa) = 29.40389 29.40389 113.85046
#
# Poissons Ratio (x) = 0.34621 0.45254
# Poissons Ratio (y) = 0.34621 0.45254
# Poissons Ratio (z) = 0.11688 0.11688
#
# Static dielectric constant tensor:
#      x y z
#    x 3.241130 0.000000 0.000000 
#    y 0.000000 3.241130 0.000000 
#    z 0.000000 0.000000 3.512100 
# 
# 
# High freq. dielectric constant tensor:
#      x y z
#    x 1.659470 0.000000 0.000000 
#    y 0.000000 1.659470 0.000000 
#    z 0.000000 0.000000 1.690520 
# 
# From -- ./inp_files/3805.got.cif
#   From: 2010.03.12/outbox.cif.g09.slc.cpg/sg136_2_cif.got.tgz:3805.got - 2010.04.06 18:39:43.
