data_PCOD8317393
_publ_section_title
;
Structure prediction by ZEFSAII (Michael W. Deem and Ramdas Pophale) SiO2 
 PCOD8317393
Probable space group: P 42/M B C
;
_chemical_formula_sum "Si O2"
_cell_formula_units_Z 96
_cell_length_a 23.900876
_cell_length_b 23.900876
_cell_length_c 9.322107
_cell_angle_alpha 90.000000
_cell_angle_beta 90.000000
_cell_angle_gamma 90.000000
_cell_volume 5325.271089
_symmetry_space_group_name_H-M "P 42/M B C"
_symmetry_group_IT_number 135
_symmetry_cell_setting 'tetragonal'
loop_
_space_group_symop_operation_xyz
x,y,z
-y,x,1/2+z
-x,-y,z
y,-x,1/2+z
1/2+x,1/2-y,-z
1/2-x,1/2+y,-z
1/2+y,1/2+x,1/2-z
1/2-y,1/2-x,1/2-z
-x,-y,-z
y,-x,1/2-z
x,y,-z
-y,x,1/2-z
1/2-x,1/2+y,z
1/2+x,1/2-y,z
1/2-y,1/2-x,1/2+z
1/2+y,1/2+x,1/2+z
loop_
_atom_site_type_symbol
_atom_site_label
_atom_site_fract_x
_atom_site_fract_y
_atom_site_fract_z
Si Si1 0.558211 0.454122 0.839426
Si Si2 0.235408 0.065526 0.170987
Si Si3 0.569039 0.148198 0.335730
Si Si4 0.861058 0.442696 0.169054
Si Si5 0.059243 0.222113 0.333782
Si Si6 0.358653 0.643439 0.159738
O O1 0.510014 0.424019 0.745853
O O2 0.610756 0.415270 0.851659
O O3 0.536823 0.468641 0.000000
O O4 0.299038 0.074621 0.222296
O O5 0.200612 0.120612 0.224605
O O6 0.212688 0.004363 0.226209
O O7 0.233690 0.061987 0.000000
O O8 0.616222 0.116222 0.250000
O O9 0.579074 0.133656 0.500000
O O10 0.507248 0.128169 0.289726
O O11 0.576025 0.213923 0.308374
O O12 0.906269 0.406269 0.250000
O O13 0.867120 0.433188 0.000000
O O14 0.061857 0.205470 0.500000
O O15 0.107243 0.186395 0.255784
O O16 0.351348 0.669564 0.000000
#
# Coordination Sequence:
#
# PCOD8317393 Si02
#       6
#    16  16  16  16  16  16
#     4  10  19  29  42  62  89 121 159 205 258 305
#     4   8  16  33  52  68  95 134 167 198 244 296
#     4   9  19  35  55  78 103 132 162 194 239 292
#     4   9  18  34  55  77 101 130 162 195 237 291
#     4   9  18  34  53  71  96 132 169 204 244 290
#     4  10  19  30  47  70  93 125 168 208 247 289
#
# _framework density 18.027252000000001
#
# number of rings (size 3 to 8) (size 9 to 14) (size 15 to 20)
#    0.000    2.833    0.000    4.000    0.000    4.333 
#    0.000    6.667    0.000    4.000    0.000    0.000 
#    0.000    0.000    0.000    0.000    0.000    0.000 
#
# Total GULP energy -1189299.080083 kJ/mol
# GULP energy per Si atom -12388.532084 kJ/mol
# Density = 1.798622 g / cm^3
# Si number density = 18.027252 Si / 1000 Ang^3
#
#
#
# Elastic Constant Matrix: (Units=GPa)
#
#
# Indices 1 2 3 4 5 6 
#
# 1 40.4980 54.4604 28.5091 0.0000 0.0000 0.0000
# 2 54.4604 40.4980 28.5091 0.0000 0.0000 0.0000
# 3 28.5091 28.5091 65.4691 0.0000 0.0000 0.0000
# 4 0.0000 0.0000 0.0000 22.0667 0.0000 0.0000
# 5 0.0000 0.0000 0.0000 0.0000 22.0667 0.0000
# 6 0.0000 0.0000 0.0000 0.0000 0.0000 38.9131
#
#
#
# Elastic Compliance Matrix: (Units=1/GPa)
#
#
# Indices 1 2 3 4 5 6 
#
# 1 -0.028681 0.042940 -0.006209 0.000000 0.000000 0.000000
# 2 0.042940 -0.028681 -0.006209 0.000000 0.000000 0.000000
# 3 -0.006209 -0.006209 0.020682 0.000000 0.000000 0.000000
# 4 0.000000 0.000000 0.000000 0.045317 0.000000 0.000000
# 5 0.000000 0.000000 0.000000 0.000000 0.045317 0.000000
# 6 0.000000 0.000000 0.000000 0.000000 0.000000 0.025698
#
#
# Mechanical properties :
#
#
# Convention : Reuss Voigt Hill
#
# Bulk Modulus (GPa) = 41.04500 41.04691 41.04596
# Shear Modulus (GPa) = 187.04172 18.94174 102.99173
#
# Velocity S-wave (km/s) = 10.19707 3.24501 7.56671
# Velocity P-wave (km/s) = 12.70661 6.07115 9.95783
#
# Compressibility (1/GPa) = 0.02436350
#
# Stress axis : x y z
#
# Youngs Moduli (GPa) = -34.86671 -34.86671 48.35072
#
# Poissons Ratio (x) = 1.49718 0.30023
# Poissons Ratio (y) = 1.49718 0.30023
# Poissons Ratio (z) = -0.21650 -0.21650
#
# Static dielectric constant tensor:
#      x y z
#    x 3.344810 0.000000 0.000000 
#    y 0.000000 3.344810 0.000000 
#    z 0.000000 0.000000 3.182500 
# 
# 
# High freq. dielectric constant tensor:
#      x y z
#    x 1.695210 0.000000 0.000000 
#    y 0.000000 1.695210 0.000000 
#    z 0.000000 0.000000 1.677290 
# 
# From -- ./inp_files/1242.got.cif
#   From: 2010.03.12/outbox.cif.g09.slc.cpg/sg135_1_cif.got.tgz:1242.got - 2010.04.06 18:31:24.
