data_PCOD8317660
_publ_section_title
;
Structure prediction by ZEFSAII (Michael W. Deem and Ramdas Pophale) SiO2 
 PCOD8317660
Probable space group: P 42/M B C
;
_chemical_formula_sum "Si O2"
_cell_formula_units_Z 88
_cell_length_a 11.566153
_cell_length_b 11.566153
_cell_length_c 28.686870
_cell_angle_alpha 90.000000
_cell_angle_beta 90.000000
_cell_angle_gamma 90.000000
_cell_volume 3837.611715
_symmetry_space_group_name_H-M "P 42/M B C"
_symmetry_group_IT_number 135
_symmetry_cell_setting 'tetragonal'
loop_
_space_group_symop_operation_xyz
x,y,z
-y,x,1/2+z
-x,-y,z
y,-x,1/2+z
1/2+x,1/2-y,-z
1/2-x,1/2+y,-z
1/2+y,1/2+x,1/2-z
1/2-y,1/2-x,1/2-z
-x,-y,-z
y,-x,1/2-z
x,y,-z
-y,x,1/2-z
1/2-x,1/2+y,z
1/2+x,1/2-y,z
1/2-y,1/2-x,1/2+z
1/2+y,1/2+x,1/2+z
loop_
_atom_site_type_symbol
_atom_site_label
_atom_site_fract_x
_atom_site_fract_y
_atom_site_fract_z
Si Si1 0.928694 0.391468 0.633354
Si Si2 0.082730 0.788842 0.801122
Si Si3 0.576911 0.320807 0.000000
Si Si4 0.681114 0.474670 0.075715
Si Si5 0.336789 0.692944 0.500000
Si Si6 0.000000 0.000000 0.651233
Si Si7 0.706529 0.058639 0.781142
O O1 0.809636 0.424243 0.659050
O O2 0.909412 0.300479 0.590585
O O3 0.000000 0.500000 0.612262
O O4 0.014011 0.336560 0.670185
O O5 0.211003 0.835865 0.794723
O O6 0.046231 0.757586 0.748738
O O7 0.991812 0.886752 0.816864
O O8 0.592145 0.395153 0.046814
O O9 0.439964 0.277382 0.000000
O O10 0.691098 0.240127 0.000000
O O11 0.709018 0.587980 0.046206
O O12 0.617351 0.512102 0.122521
O O13 0.601163 0.101163 0.750000
#
# Coordination Sequence:
#
# PCOD8317660 Si02
#       7
#    16  16   8  16   8   8  16
#     4  12  27  46  69 106 149 189 243 316 370 433
#     4  12  27  42  69 102 141 195 252 303 366 439
#     4  11  25  47  82 104 146 193 235 305 381 460
#     4  11  25  47  72 104 142 186 239 294 368 449
#     4  11  25  49  76 112 148 188 240 303 379 461
#     4  12  24  46  72 102 138 186 252 291 357 446
#     4  12  24  44  66  96 143 195 246 303 366 430
#
# _framework density 22.93093
#
# number of rings (size 3 to 8) (size 9 to 14) (size 15 to 20)
#    0.000    0.364    5.455    3.273    5.091    2.909 
#    0.000    1.818    0.000    0.000    0.000    0.000 
#    0.000    0.000    0.000    0.000    0.000    0.000 
#
# Total GULP energy -1090562.413101 kJ/mol
# GULP energy per Si atom -12392.754694 kJ/mol
# Density = 2.287874 g / cm^3
# Si number density = 22.930930 Si / 1000 Ang^3
#
#
#
# Elastic Constant Matrix: (Units=GPa)
#
#
# Indices 1 2 3 4 5 6 
#
# 1 102.8665 35.4508 11.1544 0.0000 0.0000 0.0000
# 2 35.4508 102.8665 11.1544 0.0000 0.0000 0.0000
# 3 11.1544 11.1544 52.4920 0.0000 0.0000 0.0000
# 4 0.0000 0.0000 0.0000 17.7274 0.0000 0.0000
# 5 0.0000 0.0000 0.0000 0.0000 17.7274 0.0000
# 6 0.0000 0.0000 0.0000 0.0000 0.0000 44.7032
#
#
#
# Elastic Compliance Matrix: (Units=1/GPa)
#
#
# Indices 1 2 3 4 5 6 
#
# 1 0.011160 -0.003674 -0.001591 0.000000 0.000000 0.000000
# 2 -0.003674 0.011160 -0.001591 0.000000 0.000000 0.000000
# 3 -0.001591 -0.001591 0.019727 0.000000 0.000000 0.000000
# 4 0.000000 0.000000 0.000000 0.056410 0.000000 0.000000
# 5 0.000000 0.000000 0.000000 0.000000 0.056410 0.000000
# 6 0.000000 0.000000 0.000000 0.000000 0.000000 0.022370
#
#
# Mechanical properties :
#
#
# Convention : Reuss Voigt Hill
#
# Bulk Modulus (GPa) = 35.29080 41.52712 38.40896
# Shear Modulus (GPa) = 24.95121 29.39598 27.17359
#
# Velocity S-wave (km/s) = 3.30222 3.58430 3.44615
# Velocity P-wave (km/s) = 5.47385 5.93958 5.71146
#
# Compressibility (1/GPa) = 0.02833600
#
# Stress axis : x y z
#
# Youngs Moduli (GPa) = 89.60705 89.60705 50.69294
#
# Poissons Ratio (x) = 0.32917 0.08064
# Poissons Ratio (y) = 0.32917 0.08064
# Poissons Ratio (z) = 0.14255 0.14255
#
# Static dielectric constant tensor:
#      x y z
#    x 4.087230 0.000000 0.000000 
#    y 0.000000 4.087230 0.000000 
#    z 0.000000 0.000000 4.413550 
# 
# 
# High freq. dielectric constant tensor:
#      x y z
#    x 1.908360 0.000000 0.000000 
#    y 0.000000 1.908360 0.000000 
#    z 0.000000 0.000000 1.914340 
# 
# From -- ./inp_files/6808.got.cif
#   From: 2010.03.12/outbox.cif.g09.slc.cpg/sg135_4_cif.got.tgz:6808.got - 2010.04.06 18:31:24.
