data_PCOD8317412
_publ_section_title
;
Structure prediction by ZEFSAII (Michael W. Deem and Ramdas Pophale) SiO2 
 PCOD8317412
Probable space group: P 42/M B C
;
_chemical_formula_sum "Si O2"
_cell_formula_units_Z 96
_cell_length_a 14.813239
_cell_length_b 14.813239
_cell_length_c 24.205576
_cell_angle_alpha 90.000000
_cell_angle_beta 90.000000
_cell_angle_gamma 90.000000
_cell_volume 5311.479155
_symmetry_space_group_name_H-M "P 42/M B C"
_symmetry_group_IT_number 135
_symmetry_cell_setting 'tetragonal'
loop_
_space_group_symop_operation_xyz
x,y,z
-y,x,1/2+z
-x,-y,z
y,-x,1/2+z
1/2+x,1/2-y,-z
1/2-x,1/2+y,-z
1/2+y,1/2+x,1/2-z
1/2-y,1/2-x,1/2-z
-x,-y,-z
y,-x,1/2-z
x,y,-z
-y,x,1/2-z
1/2-x,1/2+y,z
1/2+x,1/2-y,z
1/2-y,1/2-x,1/2+z
1/2+y,1/2+x,1/2+z
loop_
_atom_site_type_symbol
_atom_site_label
_atom_site_fract_x
_atom_site_fract_y
_atom_site_fract_z
Si Si1 0.805962 0.164456 0.864164
Si Si2 0.857732 0.332909 0.937088
Si Si3 0.284832 0.975994 0.063813
Si Si4 0.625910 0.203446 0.196961
Si Si5 0.466285 0.904896 0.891542
Si Si6 0.583886 0.383833 0.257564
O O1 0.846062 0.244673 0.900378
O O2 0.791770 0.073101 0.899898
O O3 0.714847 0.204596 0.839713
O O4 0.873065 0.138065 0.814736
O O5 0.795960 0.418690 0.918136
O O6 0.961654 0.362607 0.933381
O O7 0.834797 0.307526 0.000000
O O8 0.376409 0.919783 0.072925
O O9 0.257189 0.970294 0.000000
O O10 0.639525 0.139525 0.250000
O O11 0.545524 0.161688 0.160624
O O12 0.604489 0.305122 0.214204
O O13 0.500000 0.000000 0.866812
O O14 0.477045 0.384653 0.270416
#
# Coordination Sequence:
#
# PCOD8317412 Si02
#       6
#    16  16  16  16  16  16
#     4  10  20  33  53  76 104 137 174 222 267 317
#     4  10  19  31  52  79 104 138 177 214 266 323
#     4   9  18  32  50  76 107 136 170 215 263 318
#     4   9  19  34  50  74 104 132 171 219 264 318
#     4   9  17  31  51  75 106 137 169 212 268 316
#     4  10  21  36  54  74  99 138 182 220 267 322
#
# _framework density 18.074062000000001
#
# number of rings (size 3 to 8) (size 9 to 14) (size 15 to 20)
#    0.000    2.500    0.000    2.000    2.333    2.333 
#    0.000    0.000    0.000    0.000    0.000    5.833 
#    0.000    0.000    0.000    0.000    0.000    0.000 
#
# Total GULP energy -1190151.085386 kJ/mol
# GULP energy per Si atom -12397.407139 kJ/mol
# Density = 1.803292 g / cm^3
# Si number density = 18.074062 Si / 1000 Ang^3
#
#
#
# Elastic Constant Matrix: (Units=GPa)
#
#
# Indices 1 2 3 4 5 6 
#
# 1 81.1424 36.1345 39.7535 0.0000 0.0000 0.0000
# 2 36.1345 81.1424 39.7535 0.0000 0.0000 0.0000
# 3 39.7535 39.7535 85.6799 0.0000 0.0000 0.0000
# 4 0.0000 0.0000 0.0000 25.6899 0.0000 0.0000
# 5 0.0000 0.0000 0.0000 0.0000 25.6899 0.0000
# 6 0.0000 0.0000 0.0000 0.0000 0.0000 23.9359
#
#
#
# Elastic Compliance Matrix: (Units=1/GPa)
#
#
# Indices 1 2 3 4 5 6 
#
# 1 0.017329 -0.004889 -0.005772 0.000000 0.000000 0.000000
# 2 -0.004889 0.017329 -0.005772 0.000000 0.000000 0.000000
# 3 -0.005772 -0.005772 0.017027 0.000000 0.000000 0.000000
# 4 0.000000 0.000000 0.000000 0.038926 0.000000 0.000000
# 5 0.000000 0.000000 0.000000 0.000000 0.038926 0.000000
# 6 0.000000 0.000000 0.000000 0.000000 0.000000 0.041778
#
#
# Mechanical properties :
#
#
# Convention : Reuss Voigt Hill
#
# Bulk Modulus (GPa) = 53.13568 53.24974 53.19271
# Shear Modulus (GPa) = 23.75819 23.88472 23.82145
#
# Velocity S-wave (km/s) = 3.62952 3.63918 3.63435
# Velocity P-wave (km/s) = 6.85764 6.86907 6.86336
#
# Compressibility (1/GPa) = 0.01881974
#
# Stress axis : x y z
#
# Youngs Moduli (GPa) = 57.70666 57.70666 58.72935
#
# Poissons Ratio (x) = 0.28214 0.33897
# Poissons Ratio (y) = 0.28214 0.33897
# Poissons Ratio (z) = 0.33307 0.33307
#
# Static dielectric constant tensor:
#      x y z
#    x 3.300960 0.000000 0.000000 
#    y 0.000000 3.300960 0.000000 
#    z 0.000000 0.000000 3.357330 
# 
# 
# High freq. dielectric constant tensor:
#      x y z
#    x 1.694640 0.000000 0.000000 
#    y 0.000000 1.694640 0.000000 
#    z 0.000000 0.000000 1.699840 
# 
# From -- ./inp_files/5418.got.cif
#   From: 2010.03.12/outbox.cif.g09.slc.cpg/sg135_3_cif.got.tgz:5418.got - 2010.04.06 18:31:24.
