data_PCOD8317129
_publ_section_title
;
Structure prediction by ZEFSAII (Michael W. Deem and Ramdas Pophale) SiO2 
 PCOD8317129
Probable space group: P 42/N N M
;
_chemical_formula_sum "Si O2"
_cell_formula_units_Z 96
_cell_length_a 14.958710
_cell_length_b 14.958710
_cell_length_c 25.172976
_cell_angle_alpha 90.000000
_cell_angle_beta 90.000000
_cell_angle_gamma 90.000000
_cell_volume 5632.780751
_symmetry_space_group_name_H-M "P 42/N N M"
_symmetry_group_IT_number 134
_space_group.IT_coordinate_system_code '2'
_symmetry_cell_setting 'tetragonal'
loop_
_space_group_symop_operation_xyz
x,y,z
1/2-y,x,1/2+z
1/2-x,1/2-y,z
y,1/2-x,1/2+z
x,1/2-y,1/2-z
1/2-x,y,1/2-z
y,x,-z
1/2-y,1/2-x,-z
-x,-y,-z
1/2+y,-x,1/2-z
1/2+x,1/2+y,-z
-y,1/2+x,1/2-z
-x,1/2+y,1/2+z
1/2+x,-y,1/2+z
-y,-x,z
1/2+y,1/2+x,z
loop_
_atom_site_type_symbol
_atom_site_label
_atom_site_fract_x
_atom_site_fract_y
_atom_site_fract_z
Si Si1 0.403858 0.047771 0.374300
Si Si2 0.409312 0.304265 0.043688
Si Si3 0.017915 0.761222 0.048839
Si Si4 0.643612 0.745879 0.189544
Si Si5 0.628575 0.620995 0.595042
Si Si6 0.679383 0.320618 0.505764
Si Si7 0.046421 0.953580 0.551478
O O1 0.440619 0.123064 0.413554
O O2 0.347422 0.099236 0.329274
O O3 0.485904 0.985904 0.352043
O O4 0.339361 0.984551 0.408416
O O5 0.362095 0.222002 0.073883
O O6 0.338700 0.338700 0.000000
O O7 0.500912 0.286444 0.012744
O O8 0.118279 0.728843 0.048799
O O9 0.944182 0.684900 0.057823
O O10 0.750000 0.750000 0.185566
O O11 0.610853 0.750000 0.250000
O O12 0.610502 0.831043 0.154657
O O13 0.525421 0.592965 0.590285
O O14 0.750000 0.250000 0.478798
O O15 0.620687 0.379314 0.464254
O O16 0.000000 0.000000 0.500000
#
# Coordination Sequence:
#
# PCOD8317129 Si02
#       7
#    16  16  16  16  16   8   8
#     4  10  21  35  52  77 110 139 175 218 277 337
#     4  10  19  29  49  80 111 141 177 211 265 324
#     4  10  20  31  50  73 109 148 179 215 258 325
#     4  10  21  38  59  81 103 134 184 242 291 329
#     4  11  19  34  55  78 107 143 188 231 273 328
#     4  12  22  32  46  74 116 154 184 222 264 318
#     4  12  20  36  54  80 114 150 192 232 265 344
#
# _framework density 17.043092000000001
#
# number of rings (size 3 to 8) (size 9 to 14) (size 15 to 20)
#    0.000    1.500    5.000    1.000    0.000    7.000 
#    1.500    0.000    0.000    0.000    0.000    0.000 
#    0.000    0.000    0.000    0.000    0.000    0.000 
#
# Total GULP energy -1189307.725315 kJ/mol
# GULP energy per Si atom -12388.622139 kJ/mol
# Density = 1.700430 g / cm^3
# Si number density = 17.043092 Si / 1000 Ang^3
#
#
#
# Elastic Constant Matrix: (Units=GPa)
#
#
# Indices 1 2 3 4 5 6 
#
# 1 204.5646 -53.7466 39.1033 0.0000 0.0000 0.0000
# 2 -53.7466 204.5646 39.1033 0.0000 0.0000 0.0000
# 3 39.1033 39.1033 104.6468 0.0000 0.0000 0.0000
# 4 0.0000 0.0000 0.0000 16.5538 0.0000 0.0000
# 5 0.0000 0.0000 0.0000 0.0000 16.5538 0.0000
# 6 0.0000 0.0000 0.0000 0.0000 0.0000 37.1839
#
#
#
# Elastic Compliance Matrix: (Units=1/GPa)
#
#
# Indices 1 2 3 4 5 6 
#
# 1 0.006048 0.002176 -0.003073 0.000000 0.000000 0.000000
# 2 0.002176 0.006048 -0.003073 0.000000 0.000000 0.000000
# 3 -0.003073 -0.003073 0.011853 0.000000 0.000000 0.000000
# 4 0.000000 0.000000 0.000000 0.060409 0.000000 0.000000
# 5 0.000000 0.000000 0.000000 0.000000 0.060409 0.000000
# 6 0.000000 0.000000 0.000000 0.000000 0.000000 0.026893
#
#
# Mechanical properties :
#
#
# Convention : Reuss Voigt Hill
#
# Bulk Modulus (GPa) = 62.46729 62.52179 62.49454
# Shear Modulus (GPa) = 27.03646 46.67934 36.85790
#
# Velocity S-wave (km/s) = 3.98723 5.23913 4.65545
# Velocity P-wave (km/s) = 7.61114 8.56517 8.10221
#
# Compressibility (1/GPa) = 0.01600838
#
# Stress axis : x y z
#
# Youngs Moduli (GPa) = 165.35275 165.35275 84.36979
#
# Poissons Ratio (x) = -0.35987 0.25927
# Poissons Ratio (y) = -0.35987 0.25927
# Poissons Ratio (z) = 0.50814 0.50814
#
# Static dielectric constant tensor:
#      x y z
#    x 3.535990 0.000000 0.000000 
#    y 0.000000 3.535990 0.000000 
#    z 0.000000 0.000000 3.063400 
# 
# 
# High freq. dielectric constant tensor:
#      x y z
#    x 1.661080 0.000000 0.000000 
#    y 0.000000 1.661080 0.000000 
#    z 0.000000 0.000000 1.622220 
# 
# From -- ./inp_files/10800.got.cif
#   From: 2010.03.12/outbox.cif.g09.slc.cpg/sg134_6_cif.got.tgz:10800.got - 2010.04.06 18:17:22.
