data_PCOD8317946
_publ_section_title
;
Structure prediction by ZEFSAII (Michael W. Deem and Ramdas Pophale) SiO2 
 PCOD8317946
Probable space group: P 42/M N M
;
_chemical_formula_sum "Si O2"
_cell_formula_units_Z 98
_cell_length_a 14.925323
_cell_length_b 14.925323
_cell_length_c 24.616498
_cell_angle_alpha 90.000000
_cell_angle_beta 90.000000
_cell_angle_gamma 90.000000
_cell_volume 5483.700741
_symmetry_space_group_name_H-M "P 42/M N M"
_symmetry_group_IT_number 136
_symmetry_cell_setting 'tetragonal'
loop_
_space_group_symop_operation_xyz
x,y,z
1/2-y,1/2+x,1/2+z
-x,-y,z
1/2+y,1/2-x,1/2+z
1/2+x,1/2-y,1/2-z
1/2-x,1/2+y,1/2-z
y,x,-z
-y,-x,-z
-x,-y,-z
1/2+y,1/2-x,1/2-z
x,y,-z
1/2-y,1/2+x,1/2-z
1/2-x,1/2+y,1/2+z
1/2+x,1/2-y,1/2+z
-y,-x,z
y,x,z
loop_
_atom_site_type_symbol
_atom_site_label
_atom_site_fract_x
_atom_site_fract_y
_atom_site_fract_z
Si Si1 0.500000 0.500000 0.500000
Si Si2 0.061600 0.633274 0.249820
Si Si3 0.571579 0.926513 0.437037
Si Si4 0.069618 0.930383 0.564319
Si Si5 0.229568 0.445744 0.062723
Si Si6 0.930667 0.069334 0.109138
Si Si7 0.027232 0.730167 0.857023
Si Si8 0.826838 0.680379 0.847359
O O1 0.442647 0.442647 0.544328
O O2 0.113768 0.541684 0.236549
O O3 0.074334 0.699480 0.198861
O O4 0.102423 0.680379 0.302634
O O5 0.552851 0.905647 0.500000
O O6 0.560135 0.835336 0.404589
O O7 0.500000 0.000000 0.415466
O O8 0.672037 0.964161 0.427783
O O9 0.064061 0.935940 0.500000
O O10 0.040957 0.831134 0.583795
O O11 0.000000 0.000000 0.591067
O O12 0.187071 0.361847 0.093506
O O13 0.227958 0.417463 0.000000
O O14 0.829962 0.050770 0.127097
O O15 0.000000 0.000000 0.139086
O O16 0.921594 0.728363 0.848275
O O17 0.753071 0.753071 0.832919
#
# Coordination Sequence:
#
# PCOD8317946 Si02
#       8
#     2  16  16   8  16   8  16  16
#     4   8  24  48  60  76 116 160 220 246 268 348
#     4   9  20  36  59  85 114 147 185 238 301 362
#     4  10  20  33  56  89 122 145 180 240 299 354
#     4   9  18  34  54  74 114 159 192 221 267 346
#     4  10  19  34  54  85 117 151 188 234 292 355
#     4  10  24  44  61  81 118 161 208 243 286 345
#     4  11  22  38  62  82 116 157 196 243 304 346
#     4  11  21  34  58  87 113 144 196 247 291 349
#
# _framework density 17.871143
#
# number of rings (size 3 to 8) (size 9 to 14) (size 15 to 20)
#    0.245    1.714    2.449    1.469    4.571    0.000 
#    1.469    0.000    0.000    2.939    0.000    0.000 
#    0.000    0.000    0.000    0.000    0.000    0.000 
#
# Total GULP energy -1214149.154834 kJ/mol
# GULP energy per Si atom -12389.277090 kJ/mol
# Density = 1.783047 g / cm^3
# Si number density = 17.871143 Si / 1000 Ang^3
#
#
#
# Elastic Constant Matrix: (Units=GPa)
#
#
# Indices 1 2 3 4 5 6 
#
# 1 118.3949 60.8324 57.4764 0.0000 0.0000 0.0000
# 2 60.8324 118.3949 57.4765 0.0000 0.0000 0.0000
# 3 57.4764 57.4765 94.1478 0.0000 0.0000 0.0000
# 4 0.0000 0.0000 0.0000 17.6440 0.0000 0.0000
# 5 0.0000 0.0000 0.0000 0.0000 17.6440 0.0000
# 6 0.0000 0.0000 0.0000 0.0000 0.0000 28.9180
#
#
#
# Elastic Compliance Matrix: (Units=1/GPa)
#
#
# Indices 1 2 3 4 5 6 
#
# 1 0.013271 -0.004101 -0.005598 0.000000 0.000000 0.000000
# 2 -0.004101 0.013271 -0.005598 0.000000 0.000000 0.000000
# 3 -0.005598 -0.005598 0.017457 0.000000 0.000000 0.000000
# 4 0.000000 0.000000 0.000000 0.056677 0.000000 0.000000
# 5 0.000000 0.000000 0.000000 0.000000 0.056677 0.000000
# 6 0.000000 0.000000 0.000000 0.000000 0.000000 0.034581
#
#
# Mechanical properties :
#
#
# Convention : Reuss Voigt Hill
#
# Bulk Modulus (GPa) = 74.60389 75.83424 75.21906
# Shear Modulus (GPa) = 22.02675 23.18468 22.60572
#
# Velocity S-wave (km/s) = 3.51455 3.60575 3.56044
# Velocity P-wave (km/s) = 7.63580 7.73700 7.68657
#
# Compressibility (1/GPa) = 0.01340413
#
# Stress axis : x y z
#
# Youngs Moduli (GPa) = 75.35063 75.35061 57.28353
#
# Poissons Ratio (x) = 0.30902 0.32069
# Poissons Ratio (y) = 0.30902 0.32069
# Poissons Ratio (z) = 0.42183 0.42184
#
# Static dielectric constant tensor:
#      x y z
#    x 3.406580 0.000000 0.000000 
#    y 0.000000 3.406570 0.000000 
#    z 0.000000 0.000000 3.314120 
# 
# 
# High freq. dielectric constant tensor:
#      x y z
#    x 1.687430 0.000000 0.000000 
#    y 0.000000 1.687430 0.000000 
#    z 0.000000 0.000000 1.690530 
# 
# From -- ./inp_files/8459.got.cif
#   From: 2010.03.12/outbox.cif.g09.slc.cpg/sg136_5_cif.got.tgz:8459.got - 2010.04.06 18:39:43.
