data_PCOD8317482
_publ_section_title
;
Structure prediction by ZEFSAII (Michael W. Deem and Ramdas Pophale) SiO2 
 PCOD8317482
Probable space group: P 42/M B C
;
_chemical_formula_sum "Si O2"
_cell_formula_units_Z 96
_cell_length_a 24.131334
_cell_length_b 24.131334
_cell_length_c 8.633501
_cell_angle_alpha 90.000000
_cell_angle_beta 90.000000
_cell_angle_gamma 90.000000
_cell_volume 5027.471359
_symmetry_space_group_name_H-M "P 42/M B C"
_symmetry_group_IT_number 135
_symmetry_cell_setting 'tetragonal'
loop_
_space_group_symop_operation_xyz
x,y,z
-y,x,1/2+z
-x,-y,z
y,-x,1/2+z
1/2+x,1/2-y,-z
1/2-x,1/2+y,-z
1/2+y,1/2+x,1/2-z
1/2-y,1/2-x,1/2-z
-x,-y,-z
y,-x,1/2-z
x,y,-z
-y,x,1/2-z
1/2-x,1/2+y,z
1/2+x,1/2-y,z
1/2-y,1/2-x,1/2+z
1/2+y,1/2+x,1/2+z
loop_
_atom_site_type_symbol
_atom_site_label
_atom_site_fract_x
_atom_site_fract_y
_atom_site_fract_z
Si Si1 0.058836 0.939139 0.816005
Si Si2 0.850273 0.856589 0.816890
Si Si3 0.231239 0.349788 0.317632
Si Si4 0.768641 0.351007 0.683396
Si Si5 0.856809 0.562405 0.683588
Si Si6 0.939423 0.359499 0.181907
O O1 0.103016 0.892793 0.768574
O O2 0.998443 0.922299 0.751554
O O3 0.055461 0.943286 0.000000
O O4 0.862528 0.793618 0.763862
O O5 0.788076 0.869127 0.763977
O O6 0.856391 0.864932 0.000000
O O7 0.208241 0.291760 0.250000
O O8 0.228426 0.344208 0.500000
O O9 0.194134 0.400473 0.254548
O O10 0.793136 0.293136 0.750000
O O11 0.760796 0.345380 0.500000
O O12 0.809321 0.400345 0.733217
O O13 0.914268 0.585733 0.750000
O O14 0.859175 0.563532 0.500000
O O15 0.848075 0.500613 0.748008
O O16 0.917027 0.417027 0.250000
O O17 0.941011 0.365686 0.000000
#
# Coordination Sequence:
#
# PCOD8317482 Si02
#       6
#    16  16  16  16  16  16
#     4  11  23  42  64  86 114 147 182 225 275 328
#     4  11  22  36  57  86 113 143 183 225 270 330
#     4   9  19  34  53  76 108 144 180 223 272 322
#     4  10  20  35  54  78 109 147 185 229 280 330
#     4   9  18  34  52  73 100 135 175 217 264 315
#     4   9  19  34  52  73 102 138 178 220 268 320
#
# _framework density 19.095085999999998
#
# number of rings (size 3 to 8) (size 9 to 14) (size 15 to 20)
#    0.000    2.167    0.000    3.500    0.000    5.667 
#    0.000    5.000    0.000    0.000    0.000    0.000 
#    0.000    0.000    0.000    0.000    0.000    0.000 
#
# Total GULP energy -1190443.217941 kJ/mol
# GULP energy per Si atom -12400.450187 kJ/mol
# Density = 1.905162 g / cm^3
# Si number density = 19.095086 Si / 1000 Ang^3
#
#
#
# Elastic Constant Matrix: (Units=GPa)
#
#
# Indices 1 2 3 4 5 6 
#
# 1 136.3718 77.8736 40.0665 0.0000 0.0000 0.0000
# 2 77.8736 136.3714 40.0640 0.0000 0.0000 0.0000
# 3 40.0665 40.0640 66.9693 0.0000 0.0000 0.0000
# 4 0.0000 0.0000 0.0000 31.3591 0.0000 0.0000
# 5 0.0000 0.0000 0.0000 0.0000 31.3586 0.0000
# 6 0.0000 0.0000 0.0000 0.0000 0.0000 30.7227
#
#
#
# Elastic Compliance Matrix: (Units=1/GPa)
#
#
# Indices 1 2 3 4 5 6 
#
# 1 0.011554 -0.005541 -0.003598 0.000000 0.000000 0.000000
# 2 -0.005541 0.011554 -0.003597 0.000000 0.000000 0.000000
# 3 -0.003598 -0.003597 0.019237 0.000000 0.000000 0.000000
# 4 0.000000 0.000000 0.000000 0.031889 0.000000 0.000000
# 5 0.000000 0.000000 0.000000 0.000000 0.031889 0.000000
# 6 0.000000 0.000000 0.000000 0.000000 0.000000 0.032549
#
#
# Mechanical properties :
#
#
# Convention : Reuss Voigt Hill
#
# Bulk Modulus (GPa) = 59.26583 72.85784 66.06183
# Shear Modulus (GPa) = 29.45219 30.80197 30.12708
#
# Velocity S-wave (km/s) = 3.93160 4.02068 3.97639
# Velocity P-wave (km/s) = 7.19128 7.73257 7.46683
#
# Compressibility (1/GPa) = 0.01687313
#
# Stress axis : x y z
#
# Youngs Moduli (GPa) = 86.55053 86.55253 51.98438
#
# Poissons Ratio (x) = 0.47957 0.18703
# Poissons Ratio (y) = 0.47956 0.18699
# Poissons Ratio (z) = 0.31139 0.31133
#
# Static dielectric constant tensor:
#      x y z
#    x 3.796770 0.000000 0.000000 
#    y 0.000000 3.796770 0.000000 
#    z 0.000000 0.000000 3.464220 
# 
# 
# High freq. dielectric constant tensor:
#      x y z
#    x 1.746750 0.000000 0.000000 
#    y 0.000000 1.746750 0.000000 
#    z 0.000000 0.000000 1.742750 
# 
# From -- ./inp_files/1238.got.cif
#   From: 2010.03.12/outbox.cif.g09.slc.cpg/sg135_1_cif.got.tgz:1238.got - 2010.04.06 18:31:24.
