data_PCOD8317072
_publ_section_title
;
Structure prediction by ZEFSAII (Michael W. Deem and Ramdas Pophale) SiO2 
 PCOD8317072
Probable space group: P 42/N N M
;
_chemical_formula_sum "Si O2"
_cell_formula_units_Z 46
_cell_length_a 12.620419
_cell_length_b 12.620419
_cell_length_c 16.346203
_cell_angle_alpha 90.000000
_cell_angle_beta 90.000000
_cell_angle_gamma 90.000000
_cell_volume 2603.541086
_symmetry_space_group_name_H-M "P 42/N N M"
_symmetry_group_IT_number 134
_space_group.IT_coordinate_system_code '2'
_symmetry_cell_setting 'tetragonal'
loop_
_space_group_symop_operation_xyz
x,y,z
1/2-y,x,1/2+z
1/2-x,1/2-y,z
y,1/2-x,1/2+z
x,1/2-y,1/2-z
1/2-x,y,1/2-z
y,x,-z
1/2-y,1/2-x,-z
-x,-y,-z
1/2+y,-x,1/2-z
1/2+x,1/2+y,-z
-y,1/2+x,1/2-z
-x,1/2+y,1/2+z
1/2+x,-y,1/2+z
-y,-x,z
1/2+y,1/2+x,z
loop_
_atom_site_type_symbol
_atom_site_label
_atom_site_fract_x
_atom_site_fract_y
_atom_site_fract_z
Si Si1 0.750000 0.750000 0.500000
Si Si2 0.594594 0.094594 0.658660
Si Si3 0.972594 0.472594 0.827596
Si Si4 0.523342 0.730838 0.428680
Si Si5 0.580920 0.080920 0.042330
Si Si6 0.250000 0.750000 0.250000
O O1 0.647270 0.745084 0.443250
O O2 0.530984 0.030984 0.729376
O O3 0.512364 0.154573 0.601123
O O4 0.678180 0.178180 0.693035
O O5 0.855502 0.503921 0.858065
O O6 0.060003 0.560003 0.860443
O O7 0.455579 0.697191 0.510713
O O8 0.500000 0.000000 0.000000
#
# Coordination Sequence:
#
# PCOD8317072 Si02
#       6
#     4   8   8  16   8   2
#     4  12  20  36  54  72 112 160 186 208 252 368
#     4  12  20  30  53  87 108 129 180 252 278 313
#     4  10  16  34  52  77 105 142 169 231 283 344
#     4  10  19  32  54  78 108 141 182 219 279 324
#     4   8  15  32  52  72 102 146 174 212 278 357
#     4  12  16  28  56  72 108 124 164 230 300 308
#
# _framework density 17.668244000000001
#
# number of rings (size 3 to 8) (size 9 to 14) (size 15 to 20)
#    0.000    2.087    8.696    1.043    0.000    0.696 
#    0.000    3.478    0.000    0.000    0.000    0.000 
#    0.000    0.000    0.000    0.000    0.000    0.000 
#
# Total GULP energy -569984.947549 kJ/mol
# GULP energy per Si atom -12390.977121 kJ/mol
# Density = 1.762803 g / cm^3
# Si number density = 17.668244 Si / 1000 Ang^3
#
#
#
# Elastic Constant Matrix: (Units=GPa)
#
#
# Indices 1 2 3 4 5 6 
#
# 1 79.1531 63.5450 55.7951 0.0000 0.0000 0.0000
# 2 63.5450 79.1531 55.7951 0.0000 0.0000 0.0000
# 3 55.7951 55.7951 96.0989 0.0000 0.0000 0.0000
# 4 0.0000 0.0000 0.0000 29.1204 0.0000 0.0000
# 5 0.0000 0.0000 0.0000 0.0000 29.1204 0.0000
# 6 0.0000 0.0000 0.0000 0.0000 0.0000 28.8349
#
#
#
# Elastic Compliance Matrix: (Units=1/GPa)
#
#
# Indices 1 2 3 4 5 6 
#
# 1 0.038452 -0.025617 -0.007452 0.000000 0.000000 0.000000
# 2 -0.025617 0.038452 -0.007452 0.000000 0.000000 0.000000
# 3 -0.007452 -0.007452 0.019060 0.000000 0.000000 0.000000
# 4 0.000000 0.000000 0.000000 0.034340 0.000000 0.000000
# 5 0.000000 0.000000 0.000000 0.000000 0.034340 0.000000
# 6 0.000000 0.000000 0.000000 0.000000 0.000000 0.034680
#
#
# Mechanical properties :
#
#
# Convention : Reuss Voigt Hill
#
# Bulk Modulus (GPa) = 67.01793 67.18615 67.10204
# Shear Modulus (GPa) = 17.52285 22.69978 20.11132
#
# Velocity S-wave (km/s) = 3.15266 3.58827 3.37749
# Velocity P-wave (km/s) = 7.16002 7.43482 7.29872
#
# Compressibility (1/GPa) = 0.01492138
#
# Stress axis : x y z
#
# Youngs Moduli (GPa) = 26.00621 26.00621 52.46702
#
# Poissons Ratio (x) = 0.66620 0.39100
# Poissons Ratio (y) = 0.66620 0.39100
# Poissons Ratio (z) = 0.19381 0.19381
#
# Static dielectric constant tensor:
#      x y z
#    x 3.416180 0.000000 0.000000 
#    y 0.000000 3.416180 0.000000 
#    z 0.000000 0.000000 3.526480 
# 
# 
# High freq. dielectric constant tensor:
#      x y z
#    x 1.668770 0.000000 0.000000 
#    y 0.000000 1.668770 0.000000 
#    z 0.000000 0.000000 1.657480 
# 
# From -- ./inp_files/7320.got.cif
#   From: 2010.03.12/outbox.cif.g09.slc.cpg/sg134_4_cif.got.tgz:7320.got - 2010.04.06 18:17:22.
