data_PCOD8317016
_publ_section_title
;
Structure prediction by ZEFSAII (Michael W. Deem and Ramdas Pophale) SiO2 
 PCOD8317016
Probable space group: P 42/N B C
;
_chemical_formula_sum "Si O2"
_cell_formula_units_Z 68
_cell_length_a 9.941515
_cell_length_b 9.941515
_cell_length_c 30.547452
_cell_angle_alpha 90.000000
_cell_angle_beta 90.000000
_cell_angle_gamma 90.000000
_cell_volume 3019.118333
_symmetry_space_group_name_H-M "P 42/N B C"
_symmetry_group_IT_number 133
_space_group.IT_coordinate_system_code '2'
_symmetry_cell_setting 'tetragonal'
loop_
_space_group_symop_operation_xyz
x,y,z
1/2-y,x,1/2+z
1/2-x,1/2-y,z
y,1/2-x,1/2+z
x,1/2-y,-z
1/2-x,y,-z
y,x,1/2-z
1/2-y,1/2-x,1/2-z
-x,-y,-z
1/2+y,-x,1/2-z
1/2+x,1/2+y,-z
-y,1/2+x,1/2-z
-x,1/2+y,z
1/2+x,-y,z
-y,-x,1/2+z
1/2+y,1/2+x,1/2+z
loop_
_atom_site_type_symbol
_atom_site_label
_atom_site_fract_x
_atom_site_fract_y
_atom_site_fract_z
Si Si1 0.899222 0.382529 0.076601
Si Si2 0.250000 0.750000 0.500000
Si Si3 0.250000 0.750000 0.145083
Si Si4 0.825647 0.994751 0.195249
Si Si5 0.609060 0.691224 0.396387
Si Si6 0.575346 0.575346 0.750000
O O1 0.879031 0.260872 0.112032
O O2 0.804804 0.501783 0.093190
O O3 0.055809 0.423551 0.076064
O O4 0.850676 0.341055 0.028518
O O5 0.246806 0.624838 0.176734
O O6 0.730088 0.938810 0.234041
O O7 0.842517 0.888194 0.155727
O O8 0.972670 0.039988 0.211161
O O9 0.750000 0.750000 0.411780
#
# Coordination Sequence:
#
# PCOD8317016 Si02
#       6
#    16   4   8  16  16   8
#     4  10  24  45  73 105 136 186 230 284 359 422
#     4  10  24  48  80 102 152 170 230 296 352 428
#     4   9  20  42  68  85 130 186 234 271 350 438
#     4  11  24  40  63  92 134 181 235 297 351 416
#     4  11  26  44  73 101 141 189 241 282 348 446
#     4  12  26  38  62  94 132 176 240 304 366 394
#
# _framework density 22.523130999999999
#
# number of rings (size 3 to 8) (size 9 to 14) (size 15 to 20)
#    0.000    1.412    0.000    4.235   16.471    0.941 
#    0.000    0.000    0.000    0.000    0.000    0.000 
#    0.000    0.000    0.000    0.000    0.000    0.000 
#
# Total GULP energy -843128.577782 kJ/mol
# GULP energy per Si atom -12398.949673 kJ/mol
# Density = 2.247187 g / cm^3
# Si number density = 22.523131 Si / 1000 Ang^3
#
#
#
# Elastic Constant Matrix: (Units=GPa)
#
#
# Indices 1 2 3 4 5 6 
#
# 1 105.6112 34.4962 29.4285 0.0000 0.0000 0.0000
# 2 34.4962 105.6112 29.4285 0.0000 0.0000 0.0000
# 3 29.4285 29.4285 98.3555 0.0000 0.0000 0.0000
# 4 0.0000 0.0000 0.0000 23.8635 0.0000 0.0000
# 5 0.0000 0.0000 0.0000 0.0000 23.8635 0.0000
# 6 0.0000 0.0000 0.0000 0.0000 0.0000 32.6030
#
#
#
# Elastic Compliance Matrix: (Units=1/GPa)
#
#
# Indices 1 2 3 4 5 6 
#
# 1 0.011113 -0.002949 -0.002443 0.000000 0.000000 0.000000
# 2 -0.002949 0.011113 -0.002443 0.000000 0.000000 0.000000
# 3 -0.002443 -0.002443 0.011629 0.000000 0.000000 0.000000
# 4 0.000000 0.000000 0.000000 0.041905 0.000000 0.000000
# 5 0.000000 0.000000 0.000000 0.000000 0.041905 0.000000
# 6 0.000000 0.000000 0.000000 0.000000 0.000000 0.030672
#
#
# Mechanical properties :
#
#
# Convention : Reuss Voigt Hill
#
# Bulk Modulus (GPa) = 54.98868 55.14270 55.06569
# Shear Modulus (GPa) = 29.40026 30.48097 29.94062
#
# Velocity S-wave (km/s) = 3.61686 3.68274 3.64995
# Velocity P-wave (km/s) = 6.47376 6.52834 6.50111
#
# Compressibility (1/GPa) = 0.01818556
#
# Stress axis : x y z
#
# Youngs Moduli (GPa) = 89.98796 89.98796 85.99304
#
# Poissons Ratio (x) = 0.26539 0.21004
# Poissons Ratio (y) = 0.26539 0.21004
# Poissons Ratio (z) = 0.21980 0.21980
#
# Static dielectric constant tensor:
#      x y z
#    x 4.162080 0.000000 0.000000 
#    y 0.000000 4.162080 0.000000 
#    z 0.000000 0.000000 4.194970 
# 
# 
# High freq. dielectric constant tensor:
#      x y z
#    x 1.889140 0.000000 0.000000 
#    y 0.000000 1.889140 0.000000 
#    z 0.000000 0.000000 1.884480 
# 
# From -- ./inp_files/7539.got.cif
#   From: 2010.03.12/outbox.cif.g09.slc.cpg/sg133_4_cif.got.tgz:7539.got - 2010.04.06 18:08:06.
