data_PCOD8317438
_publ_section_title
;
Structure prediction by ZEFSAII (Michael W. Deem and Ramdas Pophale) SiO2 
 PCOD8317438
Probable space group: P 42/M B C
;
_chemical_formula_sum "Si O2"
_cell_formula_units_Z 112
_cell_length_a 17.481351
_cell_length_b 17.481351
_cell_length_c 19.749680
_cell_angle_alpha 90.000000
_cell_angle_beta 90.000000
_cell_angle_gamma 90.000000
_cell_volume 6035.455456
_symmetry_space_group_name_H-M "P 42/M B C"
_symmetry_group_IT_number 135
_symmetry_cell_setting 'tetragonal'
loop_
_space_group_symop_operation_xyz
x,y,z
-y,x,1/2+z
-x,-y,z
y,-x,1/2+z
1/2+x,1/2-y,-z
1/2-x,1/2+y,-z
1/2+y,1/2+x,1/2-z
1/2-y,1/2-x,1/2-z
-x,-y,-z
y,-x,1/2-z
x,y,-z
-y,x,1/2-z
1/2-x,1/2+y,z
1/2+x,1/2-y,z
1/2-y,1/2-x,1/2+z
1/2+y,1/2+x,1/2+z
loop_
_atom_site_type_symbol
_atom_site_label
_atom_site_fract_x
_atom_site_fract_y
_atom_site_fract_z
Si Si1 0.476564 0.754368 0.692642
Si Si2 0.512568 0.306873 0.836374
Si Si3 0.919685 0.682765 0.075902
Si Si4 0.830298 0.874830 0.172227
Si Si5 0.840423 0.171751 0.177922
Si Si6 0.255743 0.261116 0.577836
Si Si7 0.949471 0.576151 0.323116
O O1 0.482398 0.753108 0.774093
O O2 0.539552 0.697597 0.662663
O O3 0.398242 0.717173 0.666602
O O4 0.489945 0.841034 0.664078
O O5 0.532822 0.257915 0.902643
O O6 0.576792 0.372850 0.826872
O O7 0.429152 0.346332 0.840996
O O8 0.828337 0.693061 0.082253
O O9 0.943535 0.611173 0.120100
O O10 0.944303 0.664143 0.000000
O O11 0.800611 0.837527 0.243485
O O12 0.796516 0.833033 0.107094
O O13 0.811084 0.235485 0.125283
O O14 0.267406 0.234362 0.500000
O O15 0.910617 0.589384 0.250000
O O16 0.000000 0.500000 0.321348
#
# Coordination Sequence:
#
# PCOD8317438 Si02
#       7
#    16  16  16  16  16  16  16
#     4  10  19  36  57  82 112 147 190 235 287 343
#     4   9  19  34  55  84 112 144 187 238 293 336
#     4  10  20  36  57  79 111 150 192 234 283 344
#     4   9  20  35  55  83 114 146 186 237 290 345
#     4  10  19  33  59  83 108 148 192 234 286 353
#     4  10  20  35  55  80 108 149 195 237 278 334
#     4  11  22  36  57  81 114 151 188 237 287 342
#
# _framework density 18.557009000000001
#
# number of rings (size 3 to 8) (size 9 to 14) (size 15 to 20)
#    0.000    2.143    2.857    0.429    0.000    2.571 
#    2.571    4.286    0.000    0.000    0.000    5.000 
#    0.000    0.000    0.000    0.000    0.000    0.000 
#
# Total GULP energy -1387970.440647 kJ/mol
# GULP energy per Si atom -12392.593220 kJ/mol
# Density = 1.851477 g / cm^3
# Si number density = 18.557009 Si / 1000 Ang^3
#
#
#
# Elastic Constant Matrix: (Units=GPa)
#
#
# Indices 1 2 3 4 5 6 
#
# 1 86.9560 30.4024 25.1145 0.0000 0.0000 0.0000
# 2 30.4024 86.9556 25.1145 0.0000 0.0000 0.0000
# 3 25.1145 25.1145 104.6674 0.0000 0.0000 0.0000
# 4 0.0000 0.0000 0.0000 18.2957 0.0000 0.0000
# 5 0.0000 0.0000 0.0000 0.0000 18.2956 0.0000
# 6 0.0000 0.0000 0.0000 0.0000 0.0000 23.4704
#
#
#
# Elastic Compliance Matrix: (Units=1/GPa)
#
#
# Indices 1 2 3 4 5 6 
#
# 1 0.013589 -0.004093 -0.002279 0.000000 0.000000 0.000000
# 2 -0.004093 0.013589 -0.002279 0.000000 0.000000 0.000000
# 3 -0.002279 -0.002279 0.010648 0.000000 0.000000 0.000000
# 4 0.000000 0.000000 0.000000 0.054658 0.000000 0.000000
# 5 0.000000 0.000000 0.000000 0.000000 0.054658 0.000000
# 6 0.000000 0.000000 0.000000 0.000000 0.000000 0.042607
#
#
# Mechanical properties :
#
#
# Convention : Reuss Voigt Hill
#
# Bulk Modulus (GPa) = 48.71972 48.87133 48.79552
# Shear Modulus (GPa) = 23.37638 25.20883 24.29260
#
# Velocity S-wave (km/s) = 3.55308 3.68972 3.62205
# Velocity P-wave (km/s) = 6.56838 6.67420 6.62150
#
# Compressibility (1/GPa) = 0.02052557
#
# Stress axis : x y z
#
# Youngs Moduli (GPa) = 73.58762 73.58734 93.91848
#
# Poissons Ratio (x) = 0.30120 0.21400
# Poissons Ratio (y) = 0.30120 0.21400
# Poissons Ratio (z) = 0.16767 0.16767
#
# Static dielectric constant tensor:
#      x y z
#    x 3.272620 0.000000 0.000000 
#    y 0.000000 3.272620 0.000000 
#    z 0.000000 0.000000 3.419420 
# 
# 
# High freq. dielectric constant tensor:
#      x y z
#    x 1.709200 0.000000 0.000000 
#    y 0.000000 1.709200 0.000000 
#    z 0.000000 0.000000 1.711490 
# 
# From -- ./inp_files/5644.got.cif
#   From: 2010.03.12/outbox.cif.g09.slc.cpg/sg135_3_cif.got.tgz:5644.got - 2010.04.06 18:31:24.
