data_PCOD8317295
_publ_section_title
;
Structure prediction by ZEFSAII (Michael W. Deem and Ramdas Pophale) SiO2 
 PCOD8317295
Probable space group: P 42/N N M
;
_chemical_formula_sum "Si O2"
_cell_formula_units_Z 32
_cell_length_a 10.015650
_cell_length_b 10.015650
_cell_length_c 12.353798
_cell_angle_alpha 90.000000
_cell_angle_beta 90.000000
_cell_angle_gamma 90.000000
_cell_volume 1239.249564
_symmetry_space_group_name_H-M "P 42/N N M"
_symmetry_group_IT_number 134
_space_group.IT_coordinate_system_code '2'
_symmetry_cell_setting 'tetragonal'
loop_
_space_group_symop_operation_xyz
x,y,z
1/2-y,x,1/2+z
1/2-x,1/2-y,z
y,1/2-x,1/2+z
x,1/2-y,1/2-z
1/2-x,y,1/2-z
y,x,-z
1/2-y,1/2-x,-z
-x,-y,-z
1/2+y,-x,1/2-z
1/2+x,1/2+y,-z
-y,1/2+x,1/2-z
-x,1/2+y,1/2+z
1/2+x,-y,1/2+z
-y,-x,z
1/2+y,1/2+x,z
loop_
_atom_site_type_symbol
_atom_site_label
_atom_site_fract_x
_atom_site_fract_y
_atom_site_fract_z
Si Si1 0.286355 0.502083 0.470201
Si Si2 0.923259 0.629023 0.671851
O O1 0.399082 0.399082 0.500000
O O2 0.351543 0.648458 0.450575
O O3 0.212062 0.449007 0.362155
O O4 0.181435 0.504625 0.567685
O O5 0.885404 0.750000 0.750000
O O6 0.023036 0.523036 0.730681
#
# Coordination Sequence:
#
# PCOD8317295 Si02
#       2
#    16  16
#     4  10  22  41  67  97 133 180 229 283 347 411
#     4  11  23  39  65 101 141 183 228 281 338 405
#
# _framework density 25.822078000000001
#
# number of rings (size 3 to 8) (size 9 to 14) (size 15 to 20)
#    0.000    1.500    0.000    7.500    0.000   10.500 
#    0.000    0.000    0.000   12.000    0.000   28.000 
#    0.000    0.000    0.000    0.000    0.000    0.000 
#
# Total GULP energy -396731.538009 kJ/mol
# GULP energy per Si atom -12397.860563 kJ/mol
# Density = 2.576331 g / cm^3
# Si number density = 25.822078 Si / 1000 Ang^3
#
#
#
# Elastic Constant Matrix: (Units=GPa)
#
#
# Indices 1 2 3 4 5 6 
#
# 1 133.2038 121.8257 39.8200 0.0000 0.0000 0.0000
# 2 121.8257 133.2038 39.8200 0.0000 0.0000 0.0000
# 3 39.8200 39.8200 96.4602 0.0000 0.0000 0.0000
# 4 0.0000 0.0000 0.0000 34.0769 0.0000 0.0000
# 5 0.0000 0.0000 0.0000 0.0000 34.0769 0.0000
# 6 0.0000 0.0000 0.0000 0.0000 0.0000 81.5548
#
#
#
# Elastic Compliance Matrix: (Units=1/GPa)
#
#
# Indices 1 2 3 4 5 6 
#
# 1 0.046195 -0.041693 -0.001858 0.000000 0.000000 0.000000
# 2 -0.041693 0.046195 -0.001858 0.000000 0.000000 0.000000
# 3 -0.001858 -0.001858 0.011901 0.000000 0.000000 0.000000
# 4 0.000000 0.000000 0.000000 0.029345 0.000000 0.000000
# 5 0.000000 0.000000 0.000000 0.000000 0.029345 0.000000
# 6 0.000000 0.000000 0.000000 0.000000 0.000000 0.012262
#
#
# Mechanical properties :
#
#
# Convention : Reuss Voigt Hill
#
# Bulk Modulus (GPa) = 74.23334 85.08880 79.66107
# Shear Modulus (GPa) = 18.48066 40.70186 29.59126
#
# Velocity S-wave (km/s) = 2.67814 3.97450 3.38889
# Velocity P-wave (km/s) = 6.19465 7.35430 6.79924
#
# Compressibility (1/GPa) = 0.01347104
#
# Stress axis : x y z
#
# Youngs Moduli (GPa) = 21.64749 21.64749 84.02531
#
# Poissons Ratio (x) = 0.90256 0.15614
# Poissons Ratio (y) = 0.90256 0.15614
# Poissons Ratio (z) = 0.04023 0.04023
#
# Static dielectric constant tensor:
#      x y z
#    x 5.078660 0.000000 0.000000 
#    y 0.000000 5.078660 0.000000 
#    z 0.000000 0.000000 4.668850 
# 
# 
# High freq. dielectric constant tensor:
#      x y z
#    x 2.046240 0.000000 0.000000 
#    y 0.000000 2.046240 0.000000 
#    z 0.000000 0.000000 2.014000 
# 
# From -- ./inp_files/3643.got.cif
#   From: 2010.03.12/outbox.cif.g09.slc.cpg/sg134_2_cif.got.tgz:3643.got - 2010.04.06 18:17:22.
