data_PCOD8317508
_publ_section_title
;
Structure prediction by ZEFSAII (Michael W. Deem and Ramdas Pophale) SiO2 
 PCOD8317508
Probable space group: P 42/M B C
;
_chemical_formula_sum "Si O2"
_cell_formula_units_Z 112
_cell_length_a 14.224224
_cell_length_b 14.224224
_cell_length_c 26.493306
_cell_angle_alpha 90.000000
_cell_angle_beta 90.000000
_cell_angle_gamma 90.000000
_cell_volume 5360.352145
_symmetry_space_group_name_H-M "P 42/M B C"
_symmetry_group_IT_number 135
_symmetry_cell_setting 'tetragonal'
loop_
_space_group_symop_operation_xyz
x,y,z
-y,x,1/2+z
-x,-y,z
y,-x,1/2+z
1/2+x,1/2-y,-z
1/2-x,1/2+y,-z
1/2+y,1/2+x,1/2-z
1/2-y,1/2-x,1/2-z
-x,-y,-z
y,-x,1/2-z
x,y,-z
-y,x,1/2-z
1/2-x,1/2+y,z
1/2+x,1/2-y,z
1/2-y,1/2-x,1/2+z
1/2+y,1/2+x,1/2+z
loop_
_atom_site_type_symbol
_atom_site_label
_atom_site_fract_x
_atom_site_fract_y
_atom_site_fract_z
Si Si1 0.748055 0.156427 0.941461
Si Si2 0.759684 0.124469 0.721983
Si Si3 0.731123 0.969300 0.122023
Si Si4 0.190180 0.867214 0.390068
Si Si5 0.766765 0.421967 0.236219
Si Si6 0.069432 0.580505 0.943981
Si Si7 0.710726 0.456697 0.555496
O O1 0.677914 0.243250 0.932687
O O2 0.850687 0.194036 0.927504
O O3 0.727084 0.071519 0.903310
O O4 0.739438 0.124669 0.000000
O O5 0.671093 0.171093 0.750000
O O6 0.754886 0.145292 0.662484
O O7 0.856628 0.173509 0.741206
O O8 0.753586 0.011450 0.727941
O O9 0.826675 0.914795 0.110243
O O10 0.716068 0.970155 0.181943
O O11 0.650525 0.907070 0.096755
O O12 0.165898 0.974788 0.403384
O O13 0.859608 0.359608 0.250000
O O14 0.016552 0.679172 0.946132
O O15 0.000000 0.500000 0.924494
O O16 0.108468 0.554277 0.000000
O O17 0.666486 0.473453 0.500000
#
# Coordination Sequence:
#
# PCOD8317508 Si02
#       7
#    16  16  16  16  16  16  16
#     4  11  23  40  62  90 131 170 206 262 315 377
#     4  10  23  42  65  94 126 166 213 271 328 389
#     4  11  23  40  63  91 122 166 211 259 315 381
#     4  11  23  39  65  90 122 169 212 262 318 377
#     4  10  24  44  66  93 126 164 213 272 330 382
#     4  10  20  36  59  89 123 161 206 252 302 366
#     4  10  22  37  58  90 126 165 206 253 312 372
#
# _framework density 20.89415
#
# number of rings (size 3 to 8) (size 9 to 14) (size 15 to 20)
#    0.000    1.571    1.429    2.571    2.000    6.286 
#    0.000    4.286    0.000    0.000    0.000    0.000 
#    0.000    0.000    0.000    0.000    0.000    0.000 
#
# Total GULP energy -1388365.783387 kJ/mol
# GULP energy per Si atom -12396.123066 kJ/mol
# Density = 2.084659 g / cm^3
# Si number density = 20.894150 Si / 1000 Ang^3
#
#
#
# Elastic Constant Matrix: (Units=GPa)
#
#
# Indices 1 2 3 4 5 6 
#
# 1 77.4710 8.9023 20.1026 0.0000 0.0000 0.0000
# 2 8.9023 77.4710 20.1026 0.0000 0.0000 0.0000
# 3 20.1026 20.1026 65.1121 0.0000 0.0000 0.0000
# 4 0.0000 0.0000 0.0000 74.2297 0.0000 0.0000
# 5 0.0000 0.0000 0.0000 0.0000 74.2297 0.0000
# 6 0.0000 0.0000 0.0000 0.0000 0.0000 29.1464
#
#
#
# Elastic Compliance Matrix: (Units=1/GPa)
#
#
# Indices 1 2 3 4 5 6 
#
# 1 0.014052 -0.000532 -0.004174 0.000000 0.000000 0.000000
# 2 -0.000532 0.014052 -0.004174 0.000000 0.000000 0.000000
# 3 -0.004174 -0.004174 0.017936 0.000000 0.000000 0.000000
# 4 0.000000 0.000000 0.000000 0.013472 0.000000 0.000000
# 5 0.000000 0.000000 0.000000 0.000000 0.013472 0.000000
# 6 0.000000 0.000000 0.000000 0.000000 0.000000 0.034310
#
#
# Mechanical properties :
#
#
# Convention : Reuss Voigt Hill
#
# Bulk Modulus (GPa) = 35.36105 35.36324 35.36215
# Shear Modulus (GPa) = 37.18010 46.91761 42.04886
#
# Velocity S-wave (km/s) = 4.22293 4.74380 4.49092
# Velocity P-wave (km/s) = 6.38264 6.85322 6.62211
#
# Compressibility (1/GPa) = 0.02827970
#
# Stress axis : x y z
#
# Youngs Moduli (GPa) = 71.16252 71.16252 55.75470
#
# Poissons Ratio (x) = 0.03783 0.23274
# Poissons Ratio (y) = 0.03783 0.23274
# Poissons Ratio (z) = 0.29706 0.29706
#
# Static dielectric constant tensor:
#      x y z
#    x 3.725580 0.000000 0.000000 
#    y 0.000000 3.725580 0.000000 
#    z 0.000000 0.000000 3.792240 
# 
# 
# High freq. dielectric constant tensor:
#      x y z
#    x 1.817120 0.000000 0.000000 
#    y 0.000000 1.817120 0.000000 
#    z 0.000000 0.000000 1.819900 
# 
# From -- ./inp_files/6131.got.cif
#   From: 2010.03.12/outbox.cif.g09.slc.cpg/sg135_4_cif.got.tgz:6131.got - 2010.04.06 18:31:24.
