data_PCOD8317715
_publ_section_title
;
Structure prediction by ZEFSAII (Michael W. Deem and Ramdas Pophale) SiO2 
 PCOD8317715
Probable space group: P 42/M N M
;
_chemical_formula_sum "Si O2"
_cell_formula_units_Z 128
_cell_length_a 19.893099
_cell_length_b 19.893099
_cell_length_c 23.692337
_cell_angle_alpha 90.000000
_cell_angle_beta 90.000000
_cell_angle_gamma 90.000000
_cell_volume 9375.896171
_symmetry_space_group_name_H-M "P 42/M N M"
_symmetry_group_IT_number 136
_symmetry_cell_setting 'tetragonal'
loop_
_space_group_symop_operation_xyz
x,y,z
1/2-y,1/2+x,1/2+z
-x,-y,z
1/2+y,1/2-x,1/2+z
1/2+x,1/2-y,1/2-z
1/2-x,1/2+y,1/2-z
y,x,-z
-y,-x,-z
-x,-y,-z
1/2+y,1/2-x,1/2-z
x,y,-z
1/2-y,1/2+x,1/2-z
1/2-x,1/2+y,1/2+z
1/2+x,1/2-y,1/2+z
-y,-x,z
y,x,z
loop_
_atom_site_type_symbol
_atom_site_label
_atom_site_fract_x
_atom_site_fract_y
_atom_site_fract_z
Si Si1 0.755038 0.137141 0.726510
Si Si2 0.542742 0.656044 0.167092
Si Si3 0.250854 0.862406 0.062598
Si Si4 0.346474 0.766599 0.238089
Si Si5 0.815094 0.076508 0.837566
Si Si6 0.948565 0.836846 0.435146
Si Si7 0.838175 0.948216 0.771372
Si Si8 0.348552 0.764365 0.111458
O O1 0.801445 0.198556 0.708345
O O2 0.771408 0.077773 0.681511
O O3 0.678337 0.165792 0.728463
O O4 0.771824 0.111800 0.789080
O O5 0.595861 0.595861 0.175490
O O6 0.514460 0.655643 0.103775
O O7 0.482505 0.644986 0.211384
O O8 0.196053 0.803948 0.066188
O O9 0.229313 0.921491 0.105441
O O10 0.323002 0.830722 0.078961
O O11 0.255442 0.893358 0.000000
O O12 0.284850 0.715151 0.233662
O O13 0.409212 0.732941 0.269532
O O14 0.369652 0.785074 0.174726
O O15 0.885468 0.114533 0.845877
O O16 0.832333 0.000199 0.822514
O O17 0.972362 0.836717 0.500000
O O18 0.899045 0.899045 0.422934
O O19 0.912384 0.766374 0.421272
O O20 0.898008 0.898008 0.786213
O O21 0.290480 0.709521 0.112663
#
# Coordination Sequence:
#
# PCOD8317715 Si02
#       8
#    16  16  16  16  16  16  16  16
#     4   8  14  25  39  54  72  96 125 164 208 238
#     4  10  19  28  38  53  77 109 144 172 194 224
#     4   9  15  23  38  57  76 101 129 159 200 241
#     4   9  14  23  40  57  75  97 125 163 205 241
#     4   9  16  25  36  54  81 106 131 158 185 227
#     4  10  19  28  37  53  81 116 148 171 190 218
#     4  10  18  26  38  56  77 105 135 162 193 231
#     4   9  14  23  37  55  79 103 129 163 202 238
#
# _framework density 13.652029000000001
#
# number of rings (size 3 to 8) (size 9 to 14) (size 15 to 20)
#    0.000    2.750    2.500    1.875    0.000    3.500 
#    0.000    0.625    0.000    0.375    0.000    2.625 
#    0.000   20.000    0.000    2.375    0.000    0.250 
#
# Total GULP energy -1586242.415969 kJ/mol
# GULP energy per Si atom -12392.518875 kJ/mol
# Density = 1.362096 g / cm^3
# Si number density = 13.652029 Si / 1000 Ang^3
#
#
#
# Elastic Constant Matrix: (Units=GPa)
#
#
# Indices 1 2 3 4 5 6 
#
# 1 47.5300 45.8545 33.2897 0.0000 0.0000 0.0000
# 2 45.8545 47.5300 33.2897 0.0000 0.0000 0.0000
# 3 33.2897 33.2897 74.9777 0.0000 0.0000 0.0000
# 4 0.0000 0.0000 0.0000 17.6683 0.0000 0.0000
# 5 0.0000 0.0000 0.0000 0.0000 17.6683 0.0000
# 6 0.0000 0.0000 0.0000 0.0000 0.0000 17.1730
#
#
#
# Elastic Compliance Matrix: (Units=1/GPa)
#
#
# Indices 1 2 3 4 5 6 
#
# 1 0.306251 -0.290582 -0.006957 0.000000 0.000000 0.000000
# 2 -0.290582 0.306251 -0.006957 0.000000 0.000000 0.000000
# 3 -0.006957 -0.006957 0.019515 0.000000 0.000000 0.000000
# 4 0.000000 0.000000 0.000000 0.056598 0.000000 0.000000
# 5 0.000000 0.000000 0.000000 0.000000 0.056598 0.000000
# 6 0.000000 0.000000 0.000000 0.000000 0.000000 0.058231
#
#
# Mechanical properties :
#
#
# Convention : Reuss Voigt Hill
#
# Bulk Modulus (GPa) = 43.43165 43.87838 43.65502
# Shear Modulus (GPa) = 3.52085 14.34218 8.93152
#
# Velocity S-wave (km/s) = 1.60767 3.24474 2.56056
# Velocity P-wave (km/s) = 5.94378 6.80060 6.38657
#
# Compressibility (1/GPa) = 0.02302469
#
# Stress axis : x y z
#
# Youngs Moduli (GPa) = 3.26530 3.26530 51.24344
#
# Poissons Ratio (x) = 0.94884 0.35648
# Poissons Ratio (y) = 0.94884 0.35648
# Poissons Ratio (z) = 0.02272 0.02272
#
# Static dielectric constant tensor:
#      x y z
#    x 2.616860 0.000000 0.000000 
#    y 0.000000 2.616860 0.000000 
#    z 0.000000 0.000000 2.696260 
# 
# 
# High freq. dielectric constant tensor:
#      x y z
#    x 1.493380 0.000000 0.000000 
#    y 0.000000 1.493380 0.000000 
#    z 0.000000 0.000000 1.509250 
# 
# From -- ./inp_files/8680.got.cif
#   From: 2010.03.12/outbox.cif.g09.slc.cpg/sg136_5_cif.got.tgz:8680.got - 2010.04.06 18:39:43.
