data_PCOD8317567
_publ_section_title
;
Structure prediction by ZEFSAII (Michael W. Deem and Ramdas Pophale) SiO2 
 PCOD8317567
Probable space group: P 42/M B C
;
_chemical_formula_sum "Si O2"
_cell_formula_units_Z 88
_cell_length_a 13.832289
_cell_length_b 13.832289
_cell_length_c 22.749329
_cell_angle_alpha 90.000000
_cell_angle_beta 90.000000
_cell_angle_gamma 90.000000
_cell_volume 4352.679598
_symmetry_space_group_name_H-M "P 42/M B C"
_symmetry_group_IT_number 135
_symmetry_cell_setting 'tetragonal'
loop_
_space_group_symop_operation_xyz
x,y,z
-y,x,1/2+z
-x,-y,z
y,-x,1/2+z
1/2+x,1/2-y,-z
1/2-x,1/2+y,-z
1/2+y,1/2+x,1/2-z
1/2-y,1/2-x,1/2-z
-x,-y,-z
y,-x,1/2-z
x,y,-z
-y,x,1/2-z
1/2-x,1/2+y,z
1/2+x,1/2-y,z
1/2-y,1/2-x,1/2+z
1/2+y,1/2+x,1/2+z
loop_
_atom_site_type_symbol
_atom_site_label
_atom_site_fract_x
_atom_site_fract_y
_atom_site_fract_z
Si Si1 0.157117 0.206264 0.872536
Si Si2 0.395067 0.509285 0.432017
Si Si3 0.199322 0.438157 0.731142
Si Si4 0.787111 0.469591 0.147648
Si Si5 0.500000 0.000000 0.825161
Si Si6 0.631792 0.280653 0.430413
O O1 0.078777 0.223099 0.820142
O O2 0.247586 0.139272 0.855131
O O3 0.203167 0.304155 0.896033
O O4 0.088306 0.164459 0.922806
O O5 0.500000 0.500000 0.400108
O O6 0.414572 0.522775 0.500000
O O7 0.340034 0.608683 0.412886
O O8 0.170979 0.329021 0.750000
O O9 0.243824 0.492987 0.787331
O O10 0.099393 0.491428 0.712258
O O11 0.902799 0.481855 0.136825
O O12 0.735464 0.523921 0.093875
O O13 0.636847 0.261161 0.500000
#
# Coordination Sequence:
#
# PCOD8317567 Si02
#       6
#    16  16  16  16   8  16
#     4  12  24  39  68  96 127 166 222 264 311 389
#     4  10  22  43  64  87 125 170 209 258 323 372
#     4  10  21  40  63  91 126 167 208 256 325 382
#     4  11  23  41  64  95 128 167 212 266 322 378
#     4  10  21  44  65  88 129 172 202 255 328 381
#     4  11  24  42  65  92 127 168 217 265 317 380
#
# _framework density 20.21743
#
# number of rings (size 3 to 8) (size 9 to 14) (size 15 to 20)
#    0.000    1.273    5.455    3.000    2.545    3.636 
#    0.000    0.455    0.000    0.000    0.000    0.000 
#    0.000    0.000    0.000    0.000    0.000    0.000 
#
# Total GULP energy -1090191.675765 kJ/mol
# GULP energy per Si atom -12388.541770 kJ/mol
# Density = 2.017141 g / cm^3
# Si number density = 20.217430 Si / 1000 Ang^3
#
#
#
# Elastic Constant Matrix: (Units=GPa)
#
#
# Indices 1 2 3 4 5 6 
#
# 1 90.2944 25.9685 25.2046 0.0000 0.0000 0.0000
# 2 25.9685 90.2944 25.2046 0.0000 0.0000 0.0000
# 3 25.2046 25.2046 61.5903 0.0000 0.0000 0.0000
# 4 0.0000 0.0000 0.0000 24.0370 0.0000 0.0000
# 5 0.0000 0.0000 0.0000 0.0000 24.0370 0.0000
# 6 0.0000 0.0000 0.0000 0.0000 0.0000 41.4058
#
#
#
# Elastic Compliance Matrix: (Units=1/GPa)
#
#
# Indices 1 2 3 4 5 6 
#
# 1 0.013001 -0.002545 -0.004279 0.000000 0.000000 0.000000
# 2 -0.002545 0.013001 -0.004279 0.000000 0.000000 0.000000
# 3 -0.004279 -0.004279 0.019739 0.000000 0.000000 0.000000
# 4 0.000000 0.000000 0.000000 0.041603 0.000000 0.000000
# 5 0.000000 0.000000 0.000000 0.000000 0.041603 0.000000
# 6 0.000000 0.000000 0.000000 0.000000 0.000000 0.024151
#
#
# Mechanical properties :
#
#
# Convention : Reuss Voigt Hill
#
# Bulk Modulus (GPa) = 42.48959 43.88163 43.18561
# Shear Modulus (GPa) = 27.30029 28.94938 28.12484
#
# Velocity S-wave (km/s) = 3.67868 3.78815 3.73382
# Velocity P-wave (km/s) = 6.25344 6.39417 6.32420
#
# Compressibility (1/GPa) = 0.02353518
#
# Stress axis : x y z
#
# Youngs Moduli (GPa) = 76.91608 76.91608 50.66210
#
# Poissons Ratio (x) = 0.19572 0.21679
# Poissons Ratio (y) = 0.19572 0.21679
# Poissons Ratio (z) = 0.32913 0.32913
#
# Static dielectric constant tensor:
#      x y z
#    x 3.736470 0.000000 0.000000 
#    y 0.000000 3.736470 0.000000 
#    z 0.000000 0.000000 3.592690 
# 
# 
# High freq. dielectric constant tensor:
#      x y z
#    x 1.790590 0.000000 0.000000 
#    y 0.000000 1.790590 0.000000 
#    z 0.000000 0.000000 1.776900 
# 
# From -- ./inp_files/5343.got.cif
#   From: 2010.03.12/outbox.cif.g09.slc.cpg/sg135_3_cif.got.tgz:5343.got - 2010.04.06 18:31:24.
