data_PCOD8317879
_publ_section_title
;
Structure prediction by ZEFSAII (Michael W. Deem and Ramdas Pophale) SiO2 
 PCOD8317879
Probable space group: P 42/M N M
;
_chemical_formula_sum "Si O2"
_cell_formula_units_Z 104
_cell_length_a 19.512941
_cell_length_b 19.512941
_cell_length_c 15.720901
_cell_angle_alpha 90.000000
_cell_angle_beta 90.000000
_cell_angle_gamma 90.000000
_cell_volume 5985.809561
_symmetry_space_group_name_H-M "P 42/M N M"
_symmetry_group_IT_number 136
_symmetry_cell_setting 'tetragonal'
loop_
_space_group_symop_operation_xyz
x,y,z
1/2-y,1/2+x,1/2+z
-x,-y,z
1/2+y,1/2-x,1/2+z
1/2+x,1/2-y,1/2-z
1/2-x,1/2+y,1/2-z
y,x,-z
-y,-x,-z
-x,-y,-z
1/2+y,1/2-x,1/2-z
x,y,-z
1/2-y,1/2+x,1/2-z
1/2-x,1/2+y,1/2+z
1/2+x,1/2-y,1/2+z
-y,-x,z
y,x,z
loop_
_atom_site_type_symbol
_atom_site_label
_atom_site_fract_x
_atom_site_fract_y
_atom_site_fract_z
Si Si1 0.888077 0.997259 0.500000
Si Si2 0.007524 0.386920 0.500000
Si Si3 0.457410 0.169454 0.830349
Si Si4 0.001587 0.891804 0.178039
Si Si5 0.063432 0.824970 0.342272
Si Si6 0.159623 0.556664 0.670792
Si Si7 0.890031 0.499350 0.500000
Si Si8 0.206502 0.095900 0.904013
O O1 0.920172 0.920172 0.500000
O O2 0.841081 0.009780 0.582529
O O3 0.950193 0.049808 0.500000
O O4 0.000660 0.340476 0.583573
O O5 0.949991 0.444428 0.500000
O O6 0.081416 0.423302 0.500000
O O7 0.421905 0.243918 0.835632
O O8 0.400125 0.111725 0.819532
O O9 0.508586 0.161212 0.752186
O O10 0.942895 0.942895 0.212764
O O11 0.971238 0.841361 0.106877
O O12 0.027988 0.847738 0.256066
O O13 0.064005 0.935996 0.137673
O O14 0.135592 0.864409 0.357209
O O15 0.153504 0.510269 0.585947
O O16 0.231385 0.596575 0.662648
O O17 0.164218 0.164218 0.884405
O O18 0.234761 0.096226 0.000000
#
# Coordination Sequence:
#
# PCOD8317879 Si02
#       8
#     8   8  16  16  16  16   8  16
#     4   9  17  30  50  76 105 137 174 212 255 313
#     4   9  19  34  51  77 101 129 169 227 271 307
#     4  11  22  35  55  77 107 139 184 227 273 321
#     4   9  17  31  53  78 104 133 168 215 265 311
#     4  10  19  32  50  75 106 139 173 213 265 321
#     4  11  21  36  55  79 104 142 182 226 273 325
#     4   9  18  34  55  73 100 129 171 223 273 312
#     4  10  20  35  55  80 109 139 174 216 273 337
#
# _framework density 17.374424000000001
#
# number of rings (size 3 to 8) (size 9 to 14) (size 15 to 20)
#    0.000    2.077    2.308    1.846    0.000    4.308 
#    0.000    1.538    0.000    0.000    0.000    0.000 
#    0.000    4.923    0.000    0.000    0.000    0.000 
#
# Total GULP energy -1289420.947518 kJ/mol
# GULP energy per Si atom -12398.278342 kJ/mol
# Density = 1.733488 g / cm^3
# Si number density = 17.374424 Si / 1000 Ang^3
#
#
#
# Elastic Constant Matrix: (Units=GPa)
#
#
# Indices 1 2 3 4 5 6 
#
# 1 95.8679 48.0667 49.7056 0.0000 0.0000 0.0000
# 2 48.0667 95.8679 49.7056 0.0000 0.0000 0.0000
# 3 49.7056 49.7056 110.7709 0.0000 0.0000 0.0000
# 4 0.0000 0.0000 0.0000 24.8165 0.0000 0.0000
# 5 0.0000 0.0000 0.0000 0.0000 24.8163 0.0000
# 6 0.0000 0.0000 0.0000 0.0000 0.0000 21.4161
#
#
#
# Elastic Compliance Matrix: (Units=1/GPa)
#
#
# Indices 1 2 3 4 5 6 
#
# 1 0.015494 -0.005426 -0.004518 0.000000 0.000000 0.000000
# 2 -0.005426 0.015494 -0.004518 0.000000 0.000000 0.000000
# 3 -0.004518 -0.004518 0.013082 0.000000 0.000000 0.000000
# 4 0.000000 0.000000 0.000000 0.040296 0.000000 0.000000
# 5 0.000000 0.000000 0.000000 0.000000 0.040296 0.000000
# 6 0.000000 0.000000 0.000000 0.000000 0.000000 0.046694
#
#
# Mechanical properties :
#
#
# Convention : Reuss Voigt Hill
#
# Bulk Modulus (GPa) = 66.01984 66.38472 66.20228
# Shear Modulus (GPa) = 24.35137 24.54504 24.44821
#
# Velocity S-wave (km/s) = 3.74781 3.76268 3.75525
# Velocity P-wave (km/s) = 7.53717 7.56097 7.54908
#
# Compressibility (1/GPa) = 0.01514696
#
# Stress axis : x y z
#
# Youngs Moduli (GPa) = 64.54151 64.54156 76.44070
#
# Poissons Ratio (x) = 0.35021 0.34534
# Poissons Ratio (y) = 0.35021 0.34533
# Poissons Ratio (z) = 0.29158 0.29158
#
# Static dielectric constant tensor:
#      x y z
#    x 3.211210 0.000000 0.000000 
#    y 0.000000 3.211210 0.000000 
#    z 0.000000 0.000000 3.295290 
# 
# 
# High freq. dielectric constant tensor:
#      x y z
#    x 1.662900 0.000000 0.000000 
#    y 0.000000 1.662900 0.000000 
#    z 0.000000 0.000000 1.676390 
# 
# From -- ./inp_files/6464.got.cif
#   From: 2010.03.12/outbox.cif.g09.slc.cpg/sg136_4_cif.got.tgz:6464.got - 2010.04.06 18:39:43.
