data_PCOD8317895
_publ_section_title
;
Structure prediction by ZEFSAII (Michael W. Deem and Ramdas Pophale) SiO2 
 PCOD8317895
Probable space group: P 42/M N M
;
_chemical_formula_sum "Si O2"
_cell_formula_units_Z 96
_cell_length_a 24.785232
_cell_length_b 24.785232
_cell_length_c 8.841706
_cell_angle_alpha 90.000000
_cell_angle_beta 90.000000
_cell_angle_gamma 90.000000
_cell_volume 5431.528301
_symmetry_space_group_name_H-M "P 42/M N M"
_symmetry_group_IT_number 136
_symmetry_cell_setting 'tetragonal'
loop_
_space_group_symop_operation_xyz
x,y,z
1/2-y,1/2+x,1/2+z
-x,-y,z
1/2+y,1/2-x,1/2+z
1/2+x,1/2-y,1/2-z
1/2-x,1/2+y,1/2-z
y,x,-z
-y,-x,-z
-x,-y,-z
1/2+y,1/2-x,1/2-z
x,y,-z
1/2-y,1/2+x,1/2-z
1/2-x,1/2+y,1/2+z
1/2+x,1/2-y,1/2+z
-y,-x,z
y,x,z
loop_
_atom_site_type_symbol
_atom_site_label
_atom_site_fract_x
_atom_site_fract_y
_atom_site_fract_z
Si Si1 0.096980 0.249354 0.823951
Si Si2 0.128927 0.576445 0.675131
Si Si3 0.576655 0.423346 0.821961
Si Si4 0.228498 0.985675 0.678911
Si Si5 0.665613 0.334388 0.177994
Si Si6 0.379798 0.468213 0.676128
Si Si7 0.533784 0.848276 0.178838
O O1 0.103035 0.313002 0.797156
O O2 0.150180 0.222233 0.755260
O O3 0.047535 0.224857 0.729906
O O4 0.089264 0.235397 0.000000
O O5 0.118529 0.564639 0.500000
O O6 0.123307 0.519891 0.760118
O O7 0.084996 0.618420 0.739952
O O8 0.621062 0.378939 0.779018
O O9 0.593789 0.480578 0.755942
O O10 0.570638 0.429363 0.000000
O O11 0.221532 0.982474 0.500000
O O12 0.179317 0.954044 0.757119
O O13 0.286015 0.961307 0.733904
O O14 0.673031 0.326970 0.000000
O O15 0.374826 0.481229 0.500000
O O16 0.416217 0.416217 0.707695
O O17 0.530732 0.849193 0.000000
#
# Coordination Sequence:
#
# PCOD8317895 Si02
#       7
#    16  16   8  16   8  16  16
#     4  10  19  32  53  76 100 133 171 211 256 306
#     4   9  19  35  54  80 109 138 173 210 253 308
#     4  11  22  34  51  76 105 136 168 214 262 308
#     4  10  19  33  53  75  99 133 172 210 254 302
#     4  11  21  32  50  77 105 132 169 219 265 307
#     4  11  23  36  51  73 102 136 172 214 260 307
#     4   9  19  35  55  79 109 138 169 212 256 304
#
# _framework density 17.674582999999998
#
# number of rings (size 3 to 8) (size 9 to 14) (size 15 to 20)
#    0.000    2.000    1.667    2.250    0.000    5.333 
#    0.000    1.667    1.833    0.000    0.000    0.000 
#    0.000    0.000    0.000    0.000    0.000    0.000 
#
# Total GULP energy -1190583.485696 kJ/mol
# GULP energy per Si atom -12401.911309 kJ/mol
# Density = 1.763435 g / cm^3
# Si number density = 17.674583 Si / 1000 Ang^3
#
#
#
# Elastic Constant Matrix: (Units=GPa)
#
#
# Indices 1 2 3 4 5 6 
#
# 1 111.2505 72.1404 40.1932 0.0000 0.0000 0.0000
# 2 72.1404 111.2511 40.1938 0.0000 0.0000 0.0000
# 3 40.1932 40.1938 59.3312 0.0000 0.0000 0.0000
# 4 0.0000 0.0000 0.0000 25.0937 0.0000 0.0000
# 5 0.0000 0.0000 0.0000 0.0000 25.0937 0.0000
# 6 0.0000 0.0000 0.0000 0.0000 0.0000 31.3226
#
#
#
# Elastic Compliance Matrix: (Units=1/GPa)
#
#
# Indices 1 2 3 4 5 6 
#
# 1 0.016662 -0.008906 -0.005254 0.000000 0.000000 0.000000
# 2 -0.008906 0.016662 -0.005254 0.000000 0.000000 0.000000
# 3 -0.005254 -0.005254 0.023973 0.000000 0.000000 0.000000
# 4 0.000000 0.000000 0.000000 0.039851 0.000000 0.000000
# 5 0.000000 0.000000 0.000000 0.000000 0.039851 0.000000
# 6 0.000000 0.000000 0.000000 0.000000 0.000000 0.031926
#
#
# Mechanical properties :
#
#
# Convention : Reuss Voigt Hill
#
# Bulk Modulus (GPa) = 54.14646 65.20975 59.67810
# Shear Modulus (GPa) = 23.37423 24.92234 24.14829
#
# Velocity S-wave (km/s) = 3.64053 3.75916 3.70032
# Velocity P-wave (km/s) = 6.95507 7.47104 7.21767
#
# Compressibility (1/GPa) = 0.01846843
#
# Stress axis : x y z
#
# Youngs Moduli (GPa) = 60.01580 60.01567 41.71297
#
# Poissons Ratio (x) = 0.53452 0.21916
# Poissons Ratio (y) = 0.53452 0.21917
# Poissons Ratio (z) = 0.31533 0.31534
#
# Static dielectric constant tensor:
#      x y z
#    x 3.395710 0.000000 0.000000 
#    y 0.000000 3.395720 0.000000 
#    z 0.000000 0.000000 3.320540 
# 
# 
# High freq. dielectric constant tensor:
#      x y z
#    x 1.676010 0.000000 0.000000 
#    y 0.000000 1.676010 0.000000 
#    z 0.000000 0.000000 1.692550 
# 
# From -- ./inp_files/2043.got.cif
#   From: 2010.03.12/outbox.cif.g09.slc.cpg/sg136_2_cif.got.tgz:2043.got - 2010.04.06 18:39:43.
