data_PCOD8317178
_publ_section_title
;
Structure prediction by ZEFSAII (Michael W. Deem and Ramdas Pophale) SiO2 
 PCOD8317178
Probable space group: P 42/N N M
;
_chemical_formula_sum "Si O2"
_cell_formula_units_Z 96
_cell_length_a 15.713192
_cell_length_b 15.713192
_cell_length_c 19.427139
_cell_angle_alpha 90.000000
_cell_angle_beta 90.000000
_cell_angle_gamma 90.000000
_cell_volume 4796.646153
_symmetry_space_group_name_H-M "P 42/N N M"
_symmetry_group_IT_number 134
_space_group.IT_coordinate_system_code '2'
_symmetry_cell_setting 'tetragonal'
loop_
_space_group_symop_operation_xyz
x,y,z
1/2-y,x,1/2+z
1/2-x,1/2-y,z
y,1/2-x,1/2+z
x,1/2-y,1/2-z
1/2-x,y,1/2-z
y,x,-z
1/2-y,1/2-x,-z
-x,-y,-z
1/2+y,-x,1/2-z
1/2+x,1/2+y,-z
-y,1/2+x,1/2-z
-x,1/2+y,1/2+z
1/2+x,-y,1/2+z
-y,-x,z
1/2+y,1/2+x,z
loop_
_atom_site_type_symbol
_atom_site_label
_atom_site_fract_x
_atom_site_fract_y
_atom_site_fract_z
Si Si1 0.111122 0.750000 0.250000
Si Si2 0.703048 0.072339 0.608010
Si Si3 0.848124 0.850598 0.744175
Si Si4 0.067455 0.064607 0.872655
Si Si5 0.553722 0.912203 0.890422
Si Si6 0.858373 0.641628 0.500000
Si Si7 0.200162 0.034818 0.489839
O O1 0.164769 0.835232 0.242910
O O2 0.058079 0.742443 0.178901
O O3 0.669961 0.169961 0.601187
O O4 0.623614 0.011693 0.612303
O O5 0.755257 0.049910 0.539509
O O6 0.849060 0.750000 0.750000
O O7 0.750000 0.883295 0.750000
O O8 0.906964 0.885342 0.804431
O O9 0.892326 0.883106 0.675070
O O10 0.129038 0.073850 0.938212
O O11 0.032410 0.967591 0.865360
O O12 0.617160 0.955753 0.943536
O O13 0.476900 0.976900 0.870610
O O14 0.518614 0.828083 0.930914
O O15 0.760314 0.620100 0.520682
#
# Coordination Sequence:
#
# PCOD8317178 Si02
#       7
#     8  16  16  16  16   8  16
#     4   9  18  30  46  74 111 150 194 244 291 340
#     4   9  19  33  52  81 114 152 196 240 291 347
#     4  11  23  39  59  85 115 147 189 238 293 352
#     4  10  20  34  54  81 112 147 186 234 289 344
#     4  11  24  40  59  85 117 154 194 237 289 354
#     4  10  19  35  58  86 118 149 193 240 284 342
#     4  10  21  37  58  84 119 160 194 237 292 342
#
# _framework density 20.013985000000002
#
# number of rings (size 3 to 8) (size 9 to 14) (size 15 to 20)
#    0.000    1.917    0.000    4.750    3.500    4.667 
#    0.000    0.000    0.000    0.000    0.000    0.000 
#    0.000    4.333    0.000    0.000    0.000    0.000 
#
# Total GULP energy -1189416.317682 kJ/mol
# GULP energy per Si atom -12389.753309 kJ/mol
# Density = 1.996843 g / cm^3
# Si number density = 20.013985 Si / 1000 Ang^3
#
#
#
# Elastic Constant Matrix: (Units=GPa)
#
#
# Indices 1 2 3 4 5 6 
#
# 1 80.8607 30.1123 41.8402 0.0000 0.0000 0.0000
# 2 30.1123 80.8623 41.8395 0.0000 0.0000 0.0000
# 3 41.8402 41.8395 149.9331 0.0000 0.0000 0.0000
# 4 0.0000 0.0000 0.0000 16.5793 0.0000 0.0000
# 5 0.0000 0.0000 0.0000 0.0000 16.5778 0.0000
# 6 0.0000 0.0000 0.0000 0.0000 0.0000 29.3138
#
#
#
# Elastic Compliance Matrix: (Units=1/GPa)
#
#
# Indices 1 2 3 4 5 6 
#
# 1 0.015559 -0.004146 -0.003185 0.000000 0.000000 0.000000
# 2 -0.004146 0.015558 -0.003185 0.000000 0.000000 0.000000
# 3 -0.003185 -0.003185 0.008447 0.000000 0.000000 0.000000
# 4 0.000000 0.000000 0.000000 0.060316 0.000000 0.000000
# 5 0.000000 0.000000 0.000000 0.000000 0.060322 0.000000
# 6 0.000000 0.000000 0.000000 0.000000 0.000000 0.034114
#
#
# Mechanical properties :
#
#
# Convention : Reuss Voigt Hill
#
# Bulk Modulus (GPa) = 53.95707 59.91556 56.93632
# Shear Modulus (GPa) = 22.57080 25.68510 24.12795
#
# Velocity S-wave (km/s) = 3.36184 3.58628 3.47588
# Velocity P-wave (km/s) = 6.48749 6.86662 6.67974
#
# Compressibility (1/GPa) = 0.01853325
#
# Stress axis : x y z
#
# Youngs Moduli (GPa) = 64.27191 64.27372 118.38380
#
# Poissons Ratio (x) = 0.26648 0.37704
# Poissons Ratio (y) = 0.26648 0.37701
# Poissons Ratio (z) = 0.20470 0.20469
#
# Static dielectric constant tensor:
#      x y z
#    x 4.459950 0.000000 0.000000 
#    y 0.000000 4.459930 0.000000 
#    z 0.000000 0.000000 4.084040 
# 
# 
# High freq. dielectric constant tensor:
#      x y z
#    x 1.767850 0.000000 0.000000 
#    y 0.000000 1.767850 0.000000 
#    z 0.000000 0.000000 1.790280 
# 
# From -- ./inp_files/9197.got.cif
#   From: 2010.03.12/outbox.cif.g09.slc.cpg/sg134_5_cif.got.tgz:9197.got - 2010.04.06 18:17:22.
