data_PCOD8317066
_publ_section_title
;
Structure prediction by ZEFSAII (Michael W. Deem and Ramdas Pophale) SiO2 
 PCOD8317066
Probable space group: P 42/N N M
;
_chemical_formula_sum "Si O2"
_cell_formula_units_Z 96
_cell_length_a 13.771435
_cell_length_b 13.771435
_cell_length_c 30.441139
_cell_angle_alpha 90.000000
_cell_angle_beta 90.000000
_cell_angle_gamma 90.000000
_cell_volume 5773.235739
_symmetry_space_group_name_H-M "P 42/N N M"
_symmetry_group_IT_number 134
_space_group.IT_coordinate_system_code '2'
_symmetry_cell_setting 'tetragonal'
loop_
_space_group_symop_operation_xyz
x,y,z
1/2-y,x,1/2+z
1/2-x,1/2-y,z
y,1/2-x,1/2+z
x,1/2-y,1/2-z
1/2-x,y,1/2-z
y,x,-z
1/2-y,1/2-x,-z
-x,-y,-z
1/2+y,-x,1/2-z
1/2+x,1/2+y,-z
-y,1/2+x,1/2-z
-x,1/2+y,1/2+z
1/2+x,-y,1/2+z
-y,-x,z
1/2+y,1/2+x,z
loop_
_atom_site_type_symbol
_atom_site_label
_atom_site_fract_x
_atom_site_fract_y
_atom_site_fract_z
Si Si1 0.643791 0.700178 0.637686
Si Si2 0.354055 0.197363 0.954245
Si Si3 0.614799 0.535290 0.955284
Si Si4 0.659658 0.492857 0.800625
Si Si5 0.469387 0.126774 0.795041
Si Si6 0.389607 0.459954 0.867530
O O1 0.750000 0.750000 0.642039
O O2 0.633439 0.645262 0.590480
O O3 0.623896 0.629511 0.677993
O O4 0.555056 0.776606 0.642714
O O5 0.250000 0.250000 0.955315
O O6 0.447024 0.269884 0.950626
O O7 0.363993 0.136008 0.000000
O O8 0.578407 0.421594 0.953155
O O9 0.558263 0.596374 0.918804
O O10 0.583487 0.583487 0.000000
O O11 0.613733 0.386268 0.797758
O O12 0.628189 0.554062 0.757135
O O13 0.773653 0.474531 0.805779
O O14 0.623125 0.550312 0.842789
O O15 0.536239 0.036239 0.808688
O O16 0.432748 0.567252 0.854806
#
# Coordination Sequence:
#
# PCOD8317066 Si02
#       6
#    16  16  16  16  16  16
#     4  11  18  30  48  71  92 122 158 194 241 280
#     4  10  15  25  40  62  91 121 151 191 240 288
#     4  10  16  22  35  59  90 120 148 184 235 289
#     4   9  18  32  47  68  96 123 151 185 234 286
#     4  10  20  32  47  68  94 123 158 196 232 278
#     4  10  18  29  44  66  96 122 150 193 236 282
#
# _framework density 16.628457000000001
#
# number of rings (size 3 to 8) (size 9 to 14) (size 15 to 20)
#    0.000    2.000    6.667    0.000    0.000    1.000 
#    0.000    1.667    0.000    1.000    0.000    0.000 
#    0.000    4.000    0.000    0.000    0.000    0.000 
#
# Total GULP energy -1189294.301466 kJ/mol
# GULP energy per Si atom -12388.482307 kJ/mol
# Density = 1.659061 g / cm^3
# Si number density = 16.628457 Si / 1000 Ang^3
#
#
#
# Elastic Constant Matrix: (Units=GPa)
#
#
# Indices 1 2 3 4 5 6 
#
# 1 74.0350 49.3306 28.0961 0.0000 0.0000 0.0000
# 2 49.3306 74.0350 28.0961 0.0000 0.0000 0.0000
# 3 28.0961 28.0961 73.4811 0.0000 0.0000 0.0000
# 4 0.0000 0.0000 0.0000 13.2215 0.0000 0.0000
# 5 0.0000 0.0000 0.0000 0.0000 13.2215 0.0000
# 6 0.0000 0.0000 0.0000 0.0000 0.0000 35.0005
#
#
#
# Elastic Compliance Matrix: (Units=1/GPa)
#
#
# Indices 1 2 3 4 5 6 
#
# 1 0.025147 -0.015332 -0.003753 0.000000 0.000000 0.000000
# 2 -0.015332 0.025147 -0.003753 0.000000 0.000000 0.000000
# 3 -0.003753 -0.003753 0.016479 0.000000 0.000000 0.000000
# 4 0.000000 0.000000 0.000000 0.075634 0.000000 0.000000
# 5 0.000000 0.000000 0.000000 0.000000 0.075635 0.000000
# 6 0.000000 0.000000 0.000000 0.000000 0.000000 0.028571
#
#
# Mechanical properties :
#
#
# Convention : Reuss Voigt Hill
#
# Bulk Modulus (GPa) = 47.39836 48.06630 47.73233
# Shear Modulus (GPa) = 16.70449 20.02392 18.36420
#
# Velocity S-wave (km/s) = 3.17294 3.47392 3.32683
# Velocity P-wave (km/s) = 6.47994 6.71264 6.59732
#
# Compressibility (1/GPa) = 0.02109777
#
# Stress axis : x y z
#
# Youngs Moduli (GPa) = 39.76610 39.76614 60.68346
#
# Poissons Ratio (x) = 0.60968 0.22775
# Poissons Ratio (y) = 0.60968 0.22775
# Poissons Ratio (z) = 0.14924 0.14924
#
# Static dielectric constant tensor:
#      x y z
#    x 3.034530 0.000000 0.000000 
#    y 0.000000 3.034530 0.000000 
#    z 0.000000 0.000000 3.553820 
# 
# 
# High freq. dielectric constant tensor:
#      x y z
#    x 1.603930 0.000000 0.000000 
#    y 0.000000 1.603930 0.000000 
#    z 0.000000 0.000000 1.667620 
# 
# From -- ./inp_files/11581.got.cif
#   From: 2010.03.12/outbox.cif.g09.slc.cpg/sg134_6_cif.got.tgz:11581.got - 2010.04.06 18:17:22.
