data_PCOD8317597
_publ_section_title
;
Structure prediction by ZEFSAII (Michael W. Deem and Ramdas Pophale) SiO2 
 PCOD8317597
Probable space group: P 42/M B C
;
_chemical_formula_sum "Si O2"
_cell_formula_units_Z 96
_cell_length_a 15.593873
_cell_length_b 15.593873
_cell_length_c 18.589911
_cell_angle_alpha 90.000000
_cell_angle_beta 90.000000
_cell_angle_gamma 90.000000
_cell_volume 4520.487747
_symmetry_space_group_name_H-M "P 42/M B C"
_symmetry_group_IT_number 135
_symmetry_cell_setting 'tetragonal'
loop_
_space_group_symop_operation_xyz
x,y,z
-y,x,1/2+z
-x,-y,z
y,-x,1/2+z
1/2+x,1/2-y,-z
1/2-x,1/2+y,-z
1/2+y,1/2+x,1/2-z
1/2-y,1/2-x,1/2-z
-x,-y,-z
y,-x,1/2-z
x,y,-z
-y,x,1/2-z
1/2-x,1/2+y,z
1/2+x,1/2-y,z
1/2-y,1/2-x,1/2+z
1/2+y,1/2+x,1/2+z
loop_
_atom_site_type_symbol
_atom_site_label
_atom_site_fract_x
_atom_site_fract_y
_atom_site_fract_z
Si Si1 0.441233 0.251622 0.839711
Si Si2 0.598129 0.487712 0.919494
Si Si3 0.292080 0.390220 0.420130
Si Si4 0.425217 0.058890 0.165096
Si Si5 0.516652 0.250763 0.684435
Si Si6 0.207164 0.245374 0.676877
O O1 0.514821 0.292638 0.887397
O O2 0.437230 0.153533 0.864706
O O3 0.462472 0.269644 0.756016
O O4 0.348911 0.292706 0.859238
O O5 0.500000 0.500000 0.891305
O O6 0.632495 0.391289 0.922710
O O7 0.664897 0.529959 0.864490
O O8 0.604375 0.528350 0.000000
O O9 0.251907 0.391568 0.500000
O O10 0.242905 0.318054 0.375572
O O11 0.437646 0.062355 0.250000
O O12 0.500000 0.000000 0.130621
O O13 0.330657 0.024891 0.143239
O O14 0.613621 0.224650 0.703865
O O15 0.263341 0.236660 0.750000
#
# Coordination Sequence:
#
# PCOD8317597 Si02
#       6
#    16  16  16  16  16  16
#     4  11  22  39  61  93 127 164 216 274 324 387
#     4  10  22  42  62  86 125 169 210 260 327 394
#     4  11  24  42  64  93 131 174 217 269 338 403
#     4   9  18  33  57  83 118 158 200 250 319 380
#     4  11  22  37  63  92 123 166 212 268 328 382
#     4  12  23  40  64  95 132 167 222 280 330 392
#
# _framework density 21.236646
#
# number of rings (size 3 to 8) (size 9 to 14) (size 15 to 20)
#    0.000    1.333    1.667    5.500    2.333    1.333 
#    0.000    0.833    0.000    2.000    0.000    0.000 
#    0.000    0.000    0.000    0.000    0.000    0.000 
#
# Total GULP energy -1190113.487276 kJ/mol
# GULP energy per Si atom -12397.015492 kJ/mol
# Density = 2.118831 g / cm^3
# Si number density = 21.236646 Si / 1000 Ang^3
#
#
#
# Elastic Constant Matrix: (Units=GPa)
#
#
# Indices 1 2 3 4 5 6 
#
# 1 114.1867 7.3914 32.0328 0.0000 0.0000 0.0000
# 2 7.3914 114.1873 32.0327 0.0000 0.0000 0.0000
# 3 32.0328 32.0327 86.0172 0.0000 0.0000 0.0000
# 4 0.0000 0.0000 0.0000 21.6385 0.0000 0.0000
# 5 0.0000 0.0000 0.0000 0.0000 21.6384 0.0000
# 6 0.0000 0.0000 0.0000 0.0000 0.0000 35.8865
#
#
#
# Elastic Compliance Matrix: (Units=1/GPa)
#
#
# Indices 1 2 3 4 5 6 
#
# 1 0.009799 0.000435 -0.003811 0.000000 0.000000 0.000000
# 2 0.000435 0.009798 -0.003811 0.000000 0.000000 0.000000
# 3 -0.003811 -0.003811 0.014464 0.000000 0.000000 0.000000
# 4 0.000000 0.000000 0.000000 0.046214 0.000000 0.000000
# 5 0.000000 0.000000 0.000000 0.000000 0.046214 0.000000
# 6 0.000000 0.000000 0.000000 0.000000 0.000000 0.027866
#
#
# Mechanical properties :
#
#
# Convention : Reuss Voigt Hill
#
# Bulk Modulus (GPa) = 50.79495 50.81167 50.80331
# Shear Modulus (GPa) = 28.52406 32.02831 30.27619
#
# Velocity S-wave (km/s) = 3.66888 3.88772 3.77988
# Velocity P-wave (km/s) = 6.47441 6.64310 6.55930
#
# Compressibility (1/GPa) = 0.01968700
#
# Stress axis : x y z
#
# Youngs Moduli (GPa) = 102.05637 102.05700 69.13763
#
# Poissons Ratio (x) = -0.04437 0.26348
# Poissons Ratio (y) = -0.04437 0.26347
# Poissons Ratio (z) = 0.38892 0.38892
#
# Static dielectric constant tensor:
#      x y z
#    x 3.919610 0.000000 0.000000 
#    y 0.000000 3.919620 0.000000 
#    z 0.000000 0.000000 3.574590 
# 
# 
# High freq. dielectric constant tensor:
#      x y z
#    x 1.847120 0.000000 0.000000 
#    y 0.000000 1.847120 0.000000 
#    z 0.000000 0.000000 1.794670 
# 
# From -- ./inp_files/5468.got.cif
#   From: 2010.03.12/outbox.cif.g09.slc.cpg/sg135_3_cif.got.tgz:5468.got - 2010.04.06 18:31:24.
