data_PCOD8317512
_publ_section_title
;
Structure prediction by ZEFSAII (Michael W. Deem and Ramdas Pophale) SiO2 
 PCOD8317512
Probable space group: P 42/M B C
;
_chemical_formula_sum "Si O2"
_cell_formula_units_Z 96
_cell_length_a 17.225257
_cell_length_b 17.225257
_cell_length_c 17.488745
_cell_angle_alpha 90.000000
_cell_angle_beta 90.000000
_cell_angle_gamma 90.000000
_cell_volume 5189.076412
_symmetry_space_group_name_H-M "P 42/M B C"
_symmetry_group_IT_number 135
_symmetry_cell_setting 'tetragonal'
loop_
_space_group_symop_operation_xyz
x,y,z
-y,x,1/2+z
-x,-y,z
y,-x,1/2+z
1/2+x,1/2-y,-z
1/2-x,1/2+y,-z
1/2+y,1/2+x,1/2-z
1/2-y,1/2-x,1/2-z
-x,-y,-z
y,-x,1/2-z
x,y,-z
-y,x,1/2-z
1/2-x,1/2+y,z
1/2+x,1/2-y,z
1/2-y,1/2-x,1/2+z
1/2+y,1/2+x,1/2+z
loop_
_atom_site_type_symbol
_atom_site_label
_atom_site_fract_x
_atom_site_fract_y
_atom_site_fract_z
Si Si1 0.081329 0.964834 0.911620
Si Si2 0.798115 0.424189 0.760897
Si Si3 0.334211 0.337651 0.818908
Si Si4 0.274432 0.574463 0.915358
Si Si5 0.256490 0.796766 0.585663
Si Si6 0.908067 0.706324 0.785614
O O1 0.101774 0.888384 0.862942
O O2 0.146077 0.029762 0.898717
O O3 0.074237 0.939860 0.000000
O O4 0.000000 0.000000 0.881925
O O5 0.876027 0.376027 0.750000
O O6 0.723153 0.375619 0.736393
O O7 0.788476 0.447677 0.850489
O O8 0.806223 0.500117 0.708499
O O9 0.281338 0.291288 0.878602
O O10 0.281466 0.391944 0.766270
O O11 0.291986 0.664703 0.912477
O O12 0.242191 0.551541 0.000000
O O13 0.288784 0.804295 0.500000
O O14 0.282332 0.874025 0.629872
O O15 0.870284 0.629717 0.750000
#
# Coordination Sequence:
#
# PCOD8317512 Si02
#       6
#    16  16  16  16  16  16
#     4  10  22  37  55  87 124 153 184 231 294 358
#     4  12  22  39  60  85 118 151 199 248 290 349
#     4  11  20  36  60  85 116 152 198 232 289 351
#     4  10  20  37  57  82 116 157 190 232 289 341
#     4  10  20  38  60  85 115 153 197 244 291 347
#     4  10  22  39  59  85 113 152 200 244 290 347
#
# _framework density 18.500402000000001
#
# number of rings (size 3 to 8) (size 9 to 14) (size 15 to 20)
#    0.000    1.500    5.000    1.000    2.333    0.333 
#    0.000    1.667    0.000    0.000    0.000    3.500 
#    0.000    0.000    0.000    0.000    0.000    0.000 
#
# Total GULP energy -1190632.390977 kJ/mol
# GULP energy per Si atom -12402.420739 kJ/mol
# Density = 1.845829 g / cm^3
# Si number density = 18.500402 Si / 1000 Ang^3
#
#
#
# Elastic Constant Matrix: (Units=GPa)
#
#
# Indices 1 2 3 4 5 6 
#
# 1 77.8673 21.0000 23.6465 0.0000 0.0000 0.0000
# 2 21.0000 77.8679 23.6467 0.0000 0.0000 0.0000
# 3 23.6465 23.6467 107.0590 0.0000 0.0000 0.0000
# 4 0.0000 0.0000 0.0000 23.3548 0.0000 0.0000
# 5 0.0000 0.0000 0.0000 0.0000 23.3535 0.0000
# 6 0.0000 0.0000 0.0000 0.0000 0.0000 27.4980
#
#
#
# Elastic Compliance Matrix: (Units=1/GPa)
#
#
# Indices 1 2 3 4 5 6 
#
# 1 0.014447 -0.003138 -0.002498 0.000000 0.000000 0.000000
# 2 -0.003138 0.014447 -0.002498 0.000000 0.000000 0.000000
# 3 -0.002498 -0.002498 0.010444 0.000000 0.000000 0.000000
# 4 0.000000 0.000000 0.000000 0.042818 0.000000 0.000000
# 5 0.000000 0.000000 0.000000 0.000000 0.042820 0.000000
# 6 0.000000 0.000000 0.000000 0.000000 0.000000 0.036366
#
#
# Mechanical properties :
#
#
# Convention : Reuss Voigt Hill
#
# Bulk Modulus (GPa) = 43.34420 44.37560 43.85990
# Shear Modulus (GPa) = 26.98329 27.80800 27.39565
#
# Velocity S-wave (km/s) = 3.82321 3.88119 3.85231
# Velocity P-wave (km/s) = 6.55506 6.64253 6.59894
#
# Compressibility (1/GPa) = 0.02307114
#
# Stress axis : x y z
#
# Youngs Moduli (GPa) = 69.21792 69.21842 95.74763
#
# Poissons Ratio (x) = 0.21718 0.23917
# Poissons Ratio (y) = 0.21718 0.23918
# Poissons Ratio (z) = 0.17290 0.17291
#
# Static dielectric constant tensor:
#      x y z
#    x 3.280060 0.000000 0.000000 
#    y 0.000000 3.279960 0.000000 
#    z 0.000000 0.000000 4.192010 
# 
# 
# High freq. dielectric constant tensor:
#      x y z
#    x 1.710120 0.000000 0.000000 
#    y 0.000000 1.710120 0.000000 
#    z 0.000000 0.000000 1.727220 
# 
# From -- ./inp_files/4491.got.cif
#   From: 2010.03.12/outbox.cif.g09.slc.cpg/sg135_3_cif.got.tgz:4491.got - 2010.04.06 18:31:24.
