data_PCOD8317437
_publ_section_title
;
Structure prediction by ZEFSAII (Michael W. Deem and Ramdas Pophale) SiO2 
 PCOD8317437
Probable space group: P 42/M B C
;
_chemical_formula_sum "Si O2"
_cell_formula_units_Z 112
_cell_length_a 14.532386
_cell_length_b 14.532386
_cell_length_c 26.712341
_cell_angle_alpha 90.000000
_cell_angle_beta 90.000000
_cell_angle_gamma 90.000000
_cell_volume 5641.385783
_symmetry_space_group_name_H-M "P 42/M B C"
_symmetry_group_IT_number 135
_symmetry_cell_setting 'tetragonal'
loop_
_space_group_symop_operation_xyz
x,y,z
-y,x,1/2+z
-x,-y,z
y,-x,1/2+z
1/2+x,1/2-y,-z
1/2-x,1/2+y,-z
1/2+y,1/2+x,1/2-z
1/2-y,1/2-x,1/2-z
-x,-y,-z
y,-x,1/2-z
x,y,-z
-y,x,1/2-z
1/2-x,1/2+y,z
1/2+x,1/2-y,z
1/2-y,1/2-x,1/2+z
1/2+y,1/2+x,1/2+z
loop_
_atom_site_type_symbol
_atom_site_label
_atom_site_fract_x
_atom_site_fract_y
_atom_site_fract_z
Si Si1 0.088356 0.050333 0.390705
Si Si2 0.531745 0.247554 0.378486
Si Si3 0.568010 0.605060 0.222351
Si Si4 0.729107 0.941581 0.442642
Si Si5 0.251334 0.824671 0.202462
Si Si6 0.334545 0.860150 0.557178
Si Si7 0.743498 0.812499 0.113745
O O1 0.079288 0.159105 0.396464
O O2 0.102142 0.021340 0.332571
O O3 0.172403 0.020085 0.425165
O O4 0.000000 0.000000 0.413202
O O5 0.577078 0.226750 0.323975
O O6 0.570725 0.171128 0.416260
O O7 0.421758 0.259966 0.379137
O O8 0.619935 0.507597 0.234567
O O9 0.646610 0.681843 0.223164
O O10 0.732347 0.906996 0.500000
O O11 0.696720 0.860141 0.406418
O O12 0.663258 0.029587 0.436843
O O13 0.318723 0.818723 0.250000
O O14 0.260049 0.736623 0.166699
O O15 0.341567 0.829996 0.500000
O O16 0.239052 0.815156 0.577201
#
# Coordination Sequence:
#
# PCOD8317437 Si02
#       7
#    16  16  16  16  16  16  16
#     4  11  20  37  60  96 128 158 207 265 318 378
#     4  10  23  40  61  91 128 165 208 257 320 372
#     4  10  19  33  58  93 118 157 199 254 316 375
#     4  11  23  40  64  92 126 168 215 262 316 377
#     4  10  23  39  59  93 122 163 209 259 315 379
#     4  10  22  41  65  94 124 165 211 260 314 376
#     4  11  22  43  64  90 128 170 206 263 318 382
#
# _framework density 19.853279000000001
#
# number of rings (size 3 to 8) (size 9 to 14) (size 15 to 20)
#    0.000    1.571    5.714    1.286    4.000    4.286 
#    0.000    1.429    0.000    0.000    0.000    0.000 
#    0.000    0.000    0.000    0.000    0.000    0.000 
#
# Total GULP energy -1387951.875927 kJ/mol
# GULP energy per Si atom -12392.427464 kJ/mol
# Density = 1.980809 g / cm^3
# Si number density = 19.853279 Si / 1000 Ang^3
#
#
#
# Elastic Constant Matrix: (Units=GPa)
#
#
# Indices 1 2 3 4 5 6 
#
# 1 67.9889 -8.5604 24.5289 0.0000 0.0000 0.0000
# 2 -8.5604 67.9889 24.5289 0.0000 0.0000 0.0000
# 3 24.5289 24.5289 100.5985 0.0000 0.0000 0.0000
# 4 0.0000 0.0000 0.0000 23.2695 0.0000 0.0000
# 5 0.0000 0.0000 0.0000 0.0000 23.2695 0.0000
# 6 0.0000 0.0000 0.0000 0.0000 0.0000 31.0709
#
#
#
# Elastic Compliance Matrix: (Units=1/GPa)
#
#
# Indices 1 2 3 4 5 6 
#
# 1 0.017065 0.004002 -0.005137 0.000000 0.000000 0.000000
# 2 0.004002 0.017065 -0.005137 0.000000 0.000000 0.000000
# 3 -0.005137 -0.005137 0.012446 0.000000 0.000000 0.000000
# 4 0.000000 0.000000 0.000000 0.042975 0.000000 0.000000
# 5 0.000000 0.000000 0.000000 0.000000 0.042975 0.000000
# 6 0.000000 0.000000 0.000000 0.000000 0.000000 0.032184
#
#
# Mechanical properties :
#
#
# Convention : Reuss Voigt Hill
#
# Bulk Modulus (GPa) = 29.38337 35.28570 32.33454
# Shear Modulus (GPa) = 26.51140 28.59390 27.55265
#
# Velocity S-wave (km/s) = 3.65823 3.79919 3.72938
# Velocity P-wave (km/s) = 5.71629 6.08744 5.90478
#
# Compressibility (1/GPa) = 0.03403285
#
# Stress axis : x y z
#
# Youngs Moduli (GPa) = 58.59804 58.59804 80.35003
#
# Poissons Ratio (x) = -0.23451 0.41275
# Poissons Ratio (y) = -0.23451 0.41275
# Poissons Ratio (z) = 0.30101 0.30101
#
# Static dielectric constant tensor:
#      x y z
#    x 3.623000 0.000000 0.000000 
#    y 0.000000 3.623000 0.000000 
#    z 0.000000 0.000000 3.630400 
# 
# 
# High freq. dielectric constant tensor:
#      x y z
#    x 1.766770 0.000000 0.000000 
#    y 0.000000 1.766770 0.000000 
#    z 0.000000 0.000000 1.778370 
# 
# From -- ./inp_files/6096.got.cif
#   From: 2010.03.12/outbox.cif.g09.slc.cpg/sg135_4_cif.got.tgz:6096.got - 2010.04.06 18:31:24.
