data_PCOD8317102
_publ_section_title
;
Structure prediction by ZEFSAII (Michael W. Deem and Ramdas Pophale) SiO2 
 PCOD8317102
Probable space group: P 42/N N M
;
_chemical_formula_sum "Si O2"
_cell_formula_units_Z 128
_cell_length_a 23.369822
_cell_length_b 23.369822
_cell_length_c 12.173158
_cell_angle_alpha 90.000000
_cell_angle_beta 90.000000
_cell_angle_gamma 90.000000
_cell_volume 6648.352960
_symmetry_space_group_name_H-M "P 42/N N M"
_symmetry_group_IT_number 134
_space_group.IT_coordinate_system_code '2'
_symmetry_cell_setting 'tetragonal'
loop_
_space_group_symop_operation_xyz
x,y,z
1/2-y,x,1/2+z
1/2-x,1/2-y,z
y,1/2-x,1/2+z
x,1/2-y,1/2-z
1/2-x,y,1/2-z
y,x,-z
1/2-y,1/2-x,-z
-x,-y,-z
1/2+y,-x,1/2-z
1/2+x,1/2+y,-z
-y,1/2+x,1/2-z
-x,1/2+y,1/2+z
1/2+x,-y,1/2+z
-y,-x,z
1/2+y,1/2+x,z
loop_
_atom_site_type_symbol
_atom_site_label
_atom_site_fract_x
_atom_site_fract_y
_atom_site_fract_z
Si Si1 0.844767 0.931986 0.981695
Si Si2 0.186687 0.382164 0.253469
Si Si3 0.544146 0.363550 0.240697
Si Si4 0.704247 0.115422 0.435807
Si Si5 0.923333 0.686625 0.712034
Si Si6 0.327144 0.918054 0.976871
Si Si7 0.505128 0.191072 0.813226
Si Si8 0.949151 0.139067 0.894594
O O1 0.815080 0.908513 0.874145
O O2 0.852553 0.999260 0.978469
O O3 0.908000 0.908000 0.000000
O O4 0.805187 0.912186 0.082650
O O5 0.250000 0.352741 0.250000
O O6 0.135084 0.337390 0.230603
O O7 0.181031 0.436715 0.170875
O O8 0.573740 0.426261 0.216234
O O9 0.573034 0.316720 0.161267
O O10 0.475091 0.359587 0.225465
O O11 0.551507 0.350425 0.368885
O O12 0.678371 0.178371 0.411454
O O13 0.772336 0.118515 0.438962
O O14 0.684470 0.096492 0.558456
O O15 0.939827 0.750000 0.750000
O O16 0.374246 0.874246 0.025261
O O17 0.311074 0.965844 0.067418
O O18 0.516429 0.250000 0.750000
O O19 0.534056 0.144616 0.733172
O O20 0.924694 0.075306 0.907706
#
# Coordination Sequence:
#
# PCOD8317102 Si02
#       8
#    16  16  16  16  16  16  16  16
#     4   9  19  35  54  82 110 137 177 231 283 329
#     4   9  21  38  58  84 114 146 185 230 281 334
#     4  10  22  37  56  84 114 147 188 234 281 335
#     4  10  19  33  54  79 108 139 185 241 288 335
#     4  11  21  36  61  87 114 150 188 230 284 340
#     4  11  22  36  54  78 111 152 193 232 282 346
#     4  10  19  36  56  74 106 145 190 230 274 337
#     4  10  18  30  53  80 104 137 178 229 285 330
#
# _framework density 19.252887999999999
#
# number of rings (size 3 to 8) (size 9 to 14) (size 15 to 20)
#    0.000    2.000    2.500    1.500    0.000    0.750 
#    0.000    8.125    0.000    6.000    0.000    0.000 
#    0.000    0.000    0.000    0.000    0.000    0.000 
#
# Total GULP energy -1585904.830480 kJ/mol
# GULP energy per Si atom -12389.881488 kJ/mol
# Density = 1.920907 g / cm^3
# Si number density = 19.252888 Si / 1000 Ang^3
#
#
#
# Elastic Constant Matrix: (Units=GPa)
#
#
# Indices 1 2 3 4 5 6 
#
# 1 79.9399 52.6372 16.4924 0.0000 0.0000 0.0000
# 2 52.6372 79.9399 16.4924 0.0000 0.0000 0.0000
# 3 16.4924 16.4924 67.0487 0.0000 0.0000 0.0000
# 4 0.0000 0.0000 0.0000 15.9881 0.0000 0.0000
# 5 0.0000 0.0000 0.0000 0.0000 15.9881 0.0000
# 6 0.0000 0.0000 0.0000 0.0000 0.0000 23.2106
#
#
#
# Elastic Compliance Matrix: (Units=1/GPa)
#
#
# Indices 1 2 3 4 5 6 
#
# 1 0.022330 -0.014296 -0.001976 0.000000 0.000000 0.000000
# 2 -0.014296 0.022330 -0.001976 0.000000 0.000000 0.000000
# 3 -0.001976 -0.001976 0.015887 0.000000 0.000000 0.000000
# 4 0.000000 0.000000 0.000000 0.062546 0.000000 0.000000
# 5 0.000000 0.000000 0.000000 0.000000 0.062546 0.000000
# 6 0.000000 0.000000 0.000000 0.000000 0.000000 0.043084
#
#
# Mechanical properties :
#
#
# Convention : Reuss Voigt Hill
#
# Bulk Modulus (GPa) = 41.57907 44.24139 42.91023
# Shear Modulus (GPa) = 18.29905 20.45780 19.37843
#
# Velocity S-wave (km/s) = 3.08629 3.26327 3.17601
# Velocity P-wave (km/s) = 5.86033 6.10144 5.98210
#
# Compressibility (1/GPa) = 0.02405056
#
# Stress axis : x y z
#
# Youngs Moduli (GPa) = 44.78200 44.78200 62.94541
#
# Poissons Ratio (x) = 0.64020 0.12440
# Poissons Ratio (y) = 0.64020 0.12440
# Poissons Ratio (z) = 0.08850 0.08850
#
# Static dielectric constant tensor:
#      x y z
#    x 3.518580 0.000000 0.000000 
#    y 0.000000 3.518580 0.000000 
#    z 0.000000 0.000000 3.858710 
# 
# 
# High freq. dielectric constant tensor:
#      x y z
#    x 1.736590 0.000000 0.000000 
#    y 0.000000 1.736590 0.000000 
#    z 0.000000 0.000000 1.752160 
# 
# From -- ./inp_files/5296.got.cif
#   From: 2010.03.12/outbox.cif.g09.slc.cpg/sg134_3_cif.got.tgz:5296.got - 2010.04.06 18:17:22.
