data_PCOD8317814
_publ_section_title
;
Structure prediction by ZEFSAII (Michael W. Deem and Ramdas Pophale) SiO2 
 PCOD8317814
Probable space group: P 42/M N M
;
_chemical_formula_sum "Si O2"
_cell_formula_units_Z 96
_cell_length_a 28.796933
_cell_length_b 28.796933
_cell_length_c 9.401812
_cell_angle_alpha 90.000000
_cell_angle_beta 90.000000
_cell_angle_gamma 90.000000
_cell_volume 7796.578117
_symmetry_space_group_name_H-M "P 42/M N M"
_symmetry_group_IT_number 136
_symmetry_cell_setting 'tetragonal'
loop_
_space_group_symop_operation_xyz
x,y,z
1/2-y,1/2+x,1/2+z
-x,-y,z
1/2+y,1/2-x,1/2+z
1/2+x,1/2-y,1/2-z
1/2-x,1/2+y,1/2-z
y,x,-z
-y,-x,-z
-x,-y,-z
1/2+y,1/2-x,1/2-z
x,y,-z
1/2-y,1/2+x,1/2-z
1/2-x,1/2+y,1/2+z
1/2+x,1/2-y,1/2+z
-y,-x,z
y,x,z
loop_
_atom_site_type_symbol
_atom_site_label
_atom_site_fract_x
_atom_site_fract_y
_atom_site_fract_z
Si Si1 0.952219 0.620128 0.834517
Si Si2 0.611128 0.199637 0.344005
Si Si3 0.812520 0.620053 0.159704
Si Si4 0.670395 0.257869 0.840981
Si Si5 0.179200 0.747885 0.159699
Si Si6 0.438956 0.119057 0.333211
O O1 0.006418 0.616549 0.808509
O O2 0.934627 0.671925 0.790351
O O3 0.927285 0.582154 0.736154
O O4 0.938819 0.610991 0.000000
O O5 0.602390 0.220428 0.500000
O O6 0.652480 0.162736 0.347081
O O7 0.624493 0.243614 0.246654
O O8 0.764572 0.637169 0.233393
O O9 0.834809 0.579452 0.255133
O O10 0.801731 0.601930 0.000000
O O11 0.696178 0.303823 0.777703
O O12 0.706467 0.215975 0.841103
O O13 0.653580 0.268537 0.000000
O O14 0.204662 0.795339 0.210108
O O15 0.159419 0.754142 0.000000
O O16 0.425965 0.121257 0.500000
#
# Coordination Sequence:
#
# PCOD8317814 Si02
#       6
#    16  16  16  16  16  16
#     4   9  19  32  41  52  67  80 101 136 174 210
#     4   8  14  24  35  46  62  81  99 122 152 187
#     4   9  16  25  36  50  68  85 103 129 158 192
#     4   8  13  20  30  46  66  83  99 119 141 171
#     4   8  13  21  33  49  68  88 108 126 146 180
#     4  10  19  30  43  53  63  82 105 133 173 215
#
# _framework density 12.313094
#
# number of rings (size 3 to 8) (size 9 to 14) (size 15 to 20)
#    0.000    3.333    0.000    3.000    0.000    6.333 
#    0.000    5.000    0.000    0.000    0.000    0.000 
#    0.000    0.000    0.000    0.000    0.000    0.000 
#
# Total GULP energy -1189495.412127 kJ/mol
# GULP energy per Si atom -12390.577210 kJ/mol
# Density = 1.228507 g / cm^3
# Si number density = 12.313094 Si / 1000 Ang^3
#
#
#
# Elastic Constant Matrix: (Units=GPa)
#
#
# Indices 1 2 3 4 5 6 
#
# 1 44.2180 44.6918 43.4014 0.0000 0.0000 0.0000
# 2 44.6918 44.2180 43.4014 0.0000 0.0000 0.0000
# 3 43.4014 43.4014 87.4138 0.0000 0.0000 0.0000
# 4 0.0000 0.0000 0.0000 16.7439 0.0000 0.0000
# 5 0.0000 0.0000 0.0000 0.0000 16.7439 0.0000
# 6 0.0000 0.0000 0.0000 0.0000 0.0000 12.8615
#
#
#
# Elastic Compliance Matrix: (Units=1/GPa)
#
#
# Indices 1 2 3 4 5 6 
#
# 1 -1.044305 1.066133 -0.010838 0.000000 0.000000 0.000000
# 2 1.066133 -1.044305 -0.010838 0.000000 0.000000 0.000000
# 3 -0.010838 -0.010838 0.022202 0.000000 0.000000 0.000000
# 4 0.000000 0.000000 0.000000 0.059723 0.000000 0.000000
# 5 0.000000 0.000000 0.000000 0.000000 0.059723 0.000000
# 6 0.000000 0.000000 0.000000 0.000000 0.000000 0.077752
#
#
# Mechanical properties :
#
#
# Convention : Reuss Voigt Hill
#
# Bulk Modulus (GPa) = 44.43025 48.75989 46.59507
# Shear Modulus (GPa) = -1.26562 12.22685 5.48061
#
# Velocity S-wave (km/s) = -1.01494 3.15460 2.11204
# Velocity P-wave (km/s) = 5.89819 7.27700 6.62357
#
# Compressibility (1/GPa) = 0.02250719
#
# Stress axis : x y z
#
# Youngs Moduli (GPa) = -0.95758 -0.95758 45.04092
#
# Poissons Ratio (x) = 1.02090 0.48815
# Poissons Ratio (y) = 1.02090 0.48815
# Poissons Ratio (z) = -0.01038 -0.01038
#
# Static dielectric constant tensor:
#      x y z
#    x 2.399700 0.000000 0.000000 
#    y 0.000000 2.399700 0.000000 
#    z 0.000000 0.000000 2.789730 
# 
# 
# High freq. dielectric constant tensor:
#      x y z
#    x 1.429550 0.000000 0.000000 
#    y 0.000000 1.429550 0.000000 
#    z 0.000000 0.000000 1.480030 
# 
# From -- ./inp_files/2169.got.cif
#   From: 2010.03.12/outbox.cif.g09.slc.cpg/sg136_2_cif.got.tgz:2169.got - 2010.04.06 18:39:43.
