data_PCOD8317009
_publ_section_title
;
Structure prediction by ZEFSAII (Michael W. Deem and Ramdas Pophale) SiO2 
 PCOD8317009
Probable space group: P 42/N B C
;
_chemical_formula_sum "Si O2"
_cell_formula_units_Z 112
_cell_length_a 15.243595
_cell_length_b 15.243595
_cell_length_c 22.879732
_cell_angle_alpha 90.000000
_cell_angle_beta 90.000000
_cell_angle_gamma 90.000000
_cell_volume 5316.498999
_symmetry_space_group_name_H-M "P 42/N B C"
_symmetry_group_IT_number 133
_space_group.IT_coordinate_system_code '2'
_symmetry_cell_setting 'tetragonal'
loop_
_space_group_symop_operation_xyz
x,y,z
1/2-y,x,1/2+z
1/2-x,1/2-y,z
y,1/2-x,1/2+z
x,1/2-y,-z
1/2-x,y,-z
y,x,1/2-z
1/2-y,1/2-x,1/2-z
-x,-y,-z
1/2+y,-x,1/2-z
1/2+x,1/2+y,-z
-y,1/2+x,1/2-z
-x,1/2+y,z
1/2+x,-y,z
-y,-x,1/2+z
1/2+y,1/2+x,1/2+z
loop_
_atom_site_type_symbol
_atom_site_label
_atom_site_fract_x
_atom_site_fract_y
_atom_site_fract_z
Si Si1 0.618306 0.300543 0.745999
Si Si2 0.505552 0.151621 0.144256
Si Si3 0.802582 0.484813 0.443864
Si Si4 0.003771 0.760918 0.362498
Si Si5 0.932099 0.156804 0.526166
Si Si6 0.175791 0.188893 0.681694
Si Si7 0.925573 0.987353 0.918115
O O1 0.703512 0.358449 0.732189
O O2 0.557469 0.349188 0.794008
O O3 0.576514 0.291545 0.682692
O O4 0.540706 0.230396 0.104278
O O5 0.405754 0.177961 0.153686
O O6 0.506760 0.056070 0.112226
O O7 0.750000 0.527211 0.500000
O O8 0.840754 0.390834 0.461685
O O9 0.884896 0.543499 0.418098
O O10 0.913154 0.762445 0.330040
O O11 0.009217 0.828083 0.416449
O O12 0.011587 0.661259 0.382500
O O13 0.906153 0.250000 0.500000
O O14 0.989960 0.092738 0.485695
O O15 0.250000 0.250000 0.652476
O O16 0.186276 0.186276 0.750000
#
# Coordination Sequence:
#
# PCOD8317009 Si02
#       7
#    16  16  16  16  16  16  16
#     4  11  23  41  67 101 138 175 223 287 347 409
#     4  12  24  44  69  98 133 182 228 276 353 405
#     4  12  25  41  66  99 135 173 229 279 338 409
#     4  11  22  44  66  96 135 174 228 276 347 409
#     4  10  23  43  69  94 131 177 217 278 347 404
#     4  11  24  42  67  95 134 179 226 279 337 403
#     4  11  24  45  66  98 135 178 227 286 336 418
#
# _framework density 21.066495
#
# number of rings (size 3 to 8) (size 9 to 14) (size 15 to 20)
#    0.000    0.857    4.286    3.000    2.000    0.286 
#    0.000    0.000    0.000    0.000    0.000    0.000 
#    0.000    0.000    0.000    0.000    0.000    0.000 
#
# Total GULP energy -1388167.881806 kJ/mol
# GULP energy per Si atom -12394.356088 kJ/mol
# Density = 2.101855 g / cm^3
# Si number density = 21.066495 Si / 1000 Ang^3
#
#
#
# Elastic Constant Matrix: (Units=GPa)
#
#
# Indices 1 2 3 4 5 6 
#
# 1 103.9819 19.6649 34.2113 0.0000 0.0000 0.0000
# 2 19.6649 103.9819 34.2113 0.0000 0.0000 0.0000
# 3 34.2113 34.2113 106.3736 0.0000 0.0000 0.0000
# 4 0.0000 0.0000 0.0000 27.0167 0.0000 0.0000
# 5 0.0000 0.0000 0.0000 0.0000 27.0167 0.0000
# 6 0.0000 0.0000 0.0000 0.0000 0.0000 31.0140
#
#
#
# Elastic Compliance Matrix: (Units=1/GPa)
#
#
# Indices 1 2 3 4 5 6 
#
# 1 0.010849 -0.001011 -0.003164 0.000000 0.000000 0.000000
# 2 -0.001011 0.010849 -0.003164 0.000000 0.000000 0.000000
# 3 -0.003164 -0.003164 0.011436 0.000000 0.000000 0.000000
# 4 0.000000 0.000000 0.000000 0.037014 0.000000 0.000000
# 5 0.000000 0.000000 0.000000 0.000000 0.037014 0.000000
# 6 0.000000 0.000000 0.000000 0.000000 0.000000 0.032244
#
#
# Mechanical properties :
#
#
# Convention : Reuss Voigt Hill
#
# Bulk Modulus (GPa) = 54.18189 54.50138 54.34163
# Shear Modulus (GPa) = 31.20380 32.09281 31.64830
#
# Velocity S-wave (km/s) = 3.85282 3.90732 3.88016
# Velocity P-wave (km/s) = 6.75038 6.80319 6.77684
#
# Compressibility (1/GPa) = 0.01845635
#
# Stress axis : x y z
#
# Youngs Moduli (GPa) = 92.17210 92.17210 87.44198
#
# Poissons Ratio (x) = 0.09316 0.27669
# Poissons Ratio (y) = 0.09316 0.27669
# Poissons Ratio (z) = 0.29165 0.29165
#
# Static dielectric constant tensor:
#      x y z
#    x 3.917130 0.000000 0.000000 
#    y 0.000000 3.917130 0.000000 
#    z 0.000000 0.000000 4.053610 
# 
# 
# High freq. dielectric constant tensor:
#      x y z
#    x 1.831170 0.000000 0.000000 
#    y 0.000000 1.831170 0.000000 
#    z 0.000000 0.000000 1.835920 
# 
# From -- ./inp_files/7241.got.cif
#   From: 2010.03.12/outbox.cif.g09.slc.cpg/sg133_4_cif.got.tgz:7241.got - 2010.04.06 18:08:06.
