data_PCOD8317912
_publ_section_title
;
Structure prediction by ZEFSAII (Michael W. Deem and Ramdas Pophale) SiO2 
 PCOD8317912
Probable space group: P 42/M N M
;
_chemical_formula_sum "Si O2"
_cell_formula_units_Z 84
_cell_length_a 21.278457
_cell_length_b 21.278457
_cell_length_c 11.236174
_cell_angle_alpha 90.000000
_cell_angle_beta 90.000000
_cell_angle_gamma 90.000000
_cell_volume 5087.433203
_symmetry_space_group_name_H-M "P 42/M N M"
_symmetry_group_IT_number 136
_symmetry_cell_setting 'tetragonal'
loop_
_space_group_symop_operation_xyz
x,y,z
1/2-y,1/2+x,1/2+z
-x,-y,z
1/2+y,1/2-x,1/2+z
1/2+x,1/2-y,1/2-z
1/2-x,1/2+y,1/2-z
y,x,-z
-y,-x,-z
-x,-y,-z
1/2+y,1/2-x,1/2-z
x,y,-z
1/2-y,1/2+x,1/2-z
1/2-x,1/2+y,1/2+z
1/2+x,1/2-y,1/2+z
-y,-x,z
y,x,z
loop_
_atom_site_type_symbol
_atom_site_label
_atom_site_fract_x
_atom_site_fract_y
_atom_site_fract_z
Si Si1 0.092729 0.092729 0.500000
Si Si2 0.456679 0.350099 0.000000
Si Si3 0.153496 0.153496 0.267255
Si Si4 0.338389 0.338389 0.636854
Si Si5 0.930112 0.747221 0.141712
Si Si6 0.265407 0.442194 0.769945
Si Si7 0.751247 0.248754 0.734739
Si Si8 0.648366 0.831815 0.865790
O O1 0.123114 0.123114 0.383320
O O2 0.017976 0.105245 0.500000
O O3 0.458742 0.302342 0.889864
O O4 0.394289 0.394289 0.000000
O O5 0.101504 0.188670 0.188297
O O6 0.204967 0.204967 0.305562
O O7 0.350645 0.350645 0.500000
O O8 0.315208 0.402962 0.693840
O O9 0.285718 0.285718 0.657017
O O10 0.895581 0.681881 0.183032
O O11 0.998609 0.744050 0.195134
O O12 0.931347 0.750387 0.000000
O O13 0.197478 0.408699 0.790065
O O14 0.796831 0.280815 0.640303
O O15 0.624772 0.841231 0.000000
#
# Coordination Sequence:
#
# PCOD8317912 Si02
#       8
#     4   8   8   8  16  16   8  16
#     4  12  23  36  54  76 112 146 186 216 266 307
#     4  12  23  38  56  76 108 146 187 228 254 310
#     4  10  19  33  51  77 103 139 174 213 262 328
#     4  10  20  32  48  75 106 136 172 216 265 320
#     4  10  20  35  54  77 109 140 171 220 273 327
#     4  11  20  34  56  78 103 138 180 222 267 313
#     4   8  17  28  47  75 105 130 163 214 277 319
#     4   9  17  30  52  78 102 133 175 218 269 322
#
# _framework density 16.511272999999999
#
# number of rings (size 3 to 8) (size 9 to 14) (size 15 to 20)
#    0.000    1.905    3.810    1.286    0.667    2.286 
#    0.000    0.000    2.095    0.571    0.000    6.667 
#    0.000    0.000    0.000    0.000    0.000    0.000 
#
# Total GULP energy -1040755.478132 kJ/mol
# GULP energy per Si atom -12389.946168 kJ/mol
# Density = 1.647369 g / cm^3
# Si number density = 16.511273 Si / 1000 Ang^3
#
#
#
# Elastic Constant Matrix: (Units=GPa)
#
#
# Indices 1 2 3 4 5 6 
#
# 1 104.6142 49.4477 39.5188 0.0000 0.0000 0.0000
# 2 49.4477 104.6142 39.5188 0.0000 0.0000 0.0000
# 3 39.5188 39.5188 95.1774 0.0000 0.0000 0.0000
# 4 0.0000 0.0000 0.0000 16.5651 0.0000 0.0000
# 5 0.0000 0.0000 0.0000 0.0000 16.5651 0.0000
# 6 0.0000 0.0000 0.0000 0.0000 0.0000 27.1321
#
#
#
# Elastic Compliance Matrix: (Units=1/GPa)
#
#
# Indices 1 2 3 4 5 6 
#
# 1 0.013187 -0.004940 -0.003425 0.000000 0.000000 0.000000
# 2 -0.004940 0.013187 -0.003425 0.000000 0.000000 0.000000
# 3 -0.003425 -0.003425 0.013351 0.000000 0.000000 0.000000
# 4 0.000000 0.000000 0.000000 0.060368 0.000000 0.000000
# 5 0.000000 0.000000 0.000000 0.000000 0.060368 0.000000
# 6 0.000000 0.000000 0.000000 0.000000 0.000000 0.036857
#
#
# Mechanical properties :
#
#
# Convention : Reuss Voigt Hill
#
# Bulk Modulus (GPa) = 61.92789 62.37513 62.15151
# Shear Modulus (GPa) = 22.09676 23.78052 22.93864
#
# Velocity S-wave (km/s) = 3.66222 3.79919 3.73134
# Velocity P-wave (km/s) = 7.44784 7.55675 7.50249
#
# Compressibility (1/GPa) = 0.01614781
#
# Stress axis : x y z
#
# Youngs Moduli (GPa) = 75.83017 75.83017 74.90331
#
# Poissons Ratio (x) = 0.37457 0.25651
# Poissons Ratio (y) = 0.37457 0.25651
# Poissons Ratio (z) = 0.25969 0.25969
#
# Static dielectric constant tensor:
#      x y z
#    x 3.234200 0.000000 0.000000 
#    y 0.000000 3.234200 0.000000 
#    z 0.000000 0.000000 3.002590 
# 
# 
# High freq. dielectric constant tensor:
#      x y z
#    x 1.631510 0.000000 0.000000 
#    y 0.000000 1.631510 0.000000 
#    z 0.000000 0.000000 1.633890 
# 
# From -- ./inp_files/3764.got.cif
#   From: 2010.03.12/outbox.cif.g09.slc.cpg/sg136_2_cif.got.tgz:3764.got - 2010.04.06 18:39:43.
