data_PCOD8317200
_publ_section_title
;
Structure prediction by ZEFSAII (Michael W. Deem and Ramdas Pophale) SiO2 
 PCOD8317200
Probable space group: P 42/N N M
;
_chemical_formula_sum "Si O2"
_cell_formula_units_Z 90
_cell_length_a 26.197545
_cell_length_b 26.197545
_cell_length_c 9.014476
_cell_angle_alpha 90.000000
_cell_angle_beta 90.000000
_cell_angle_gamma 90.000000
_cell_volume 6186.737320
_symmetry_space_group_name_H-M "P 42/N N M"
_symmetry_group_IT_number 134
_space_group.IT_coordinate_system_code '2'
_symmetry_cell_setting 'tetragonal'
loop_
_space_group_symop_operation_xyz
x,y,z
1/2-y,x,1/2+z
1/2-x,1/2-y,z
y,1/2-x,1/2+z
x,1/2-y,1/2-z
1/2-x,y,1/2-z
y,x,-z
1/2-y,1/2-x,-z
-x,-y,-z
1/2+y,-x,1/2-z
1/2+x,1/2+y,-z
-y,1/2+x,1/2-z
-x,1/2+y,1/2+z
1/2+x,-y,1/2+z
-y,-x,z
1/2+y,1/2+x,z
loop_
_atom_site_type_symbol
_atom_site_label
_atom_site_fract_x
_atom_site_fract_y
_atom_site_fract_z
Si Si1 0.150799 0.933755 0.072903
Si Si2 0.250000 0.750000 0.250000
Si Si3 0.648505 0.064914 0.917209
Si Si4 0.096525 0.745045 0.917509
Si Si5 0.008496 0.424099 0.085851
Si Si6 0.920797 0.993021 0.081652
Si Si7 0.789692 0.210309 0.465479
O O1 0.110233 0.889768 0.045364
O O2 0.158620 0.945241 0.245318
O O3 0.202433 0.912834 0.001859
O O4 0.130289 0.985993 0.998474
O O5 0.214080 0.785921 0.353373
O O6 0.618155 0.118155 0.942225
O O7 0.702043 0.064496 0.999871
O O8 0.618013 0.018033 0.985260
O O9 0.076572 0.750000 0.750000
O O10 0.154942 0.727144 0.913075
O O11 0.021580 0.404339 0.250815
O O12 0.973249 0.473249 0.105870
O O13 0.060040 0.439961 0.000000
O O14 0.942480 0.942480 0.000000
O O15 0.963526 0.036475 0.077467
O O16 0.750000 0.250000 0.392654
#
# Coordination Sequence:
#
# PCOD8317200 Si02
#       7
#    16   2  16  16  16  16   8
#     4  10  21  32  48  63  81 110 142 181 221 268
#     4   8  24  36  50  60  72  96 146 180 248 260
#     4  10  20  33  47  62  82 109 143 177 224 265
#     4  12  24  33  46  61  84 108 144 186 233 266
#     4   9  16  27  45  65  87 107 131 166 209 261
#     4   9  16  28  45  66  88 105 131 166 212 262
#     4  10  24  33  50  57  77 102 145 189 234 271
#
# _framework density 14.547247
#
# number of rings (size 3 to 8) (size 9 to 14) (size 15 to 20)
#    0.267    1.778    0.889    3.200    4.978    5.689 
#    0.000    0.000    0.000    0.000    0.000    0.000 
#    0.000    0.000    0.000    0.000    0.000    0.889 
#
# Total GULP energy -1115789.684873 kJ/mol
# GULP energy per Si atom -12397.663165 kJ/mol
# Density = 1.451414 g / cm^3
# Si number density = 14.547247 Si / 1000 Ang^3
#
#
#
# Elastic Constant Matrix: (Units=GPa)
#
#
# Indices 1 2 3 4 5 6 
#
# 1 48.2896 45.6031 45.7372 0.0000 0.0000 0.0000
# 2 45.6031 48.2919 45.7379 0.0000 0.0000 0.0000
# 3 45.7372 45.7379 141.5322 0.0000 0.0000 0.0000
# 4 0.0000 0.0000 0.0000 -12.1901 0.0000 0.0000
# 5 0.0000 0.0000 0.0000 0.0000 -12.1652 0.0000
# 6 0.0000 0.0000 0.0000 0.0000 0.0000 22.5470
#
#
#
# Elastic Compliance Matrix: (Units=1/GPa)
#
#
# Indices 1 2 3 4 5 6 
#
# 1 0.193813 -0.178263 -0.005024 0.000000 0.000000 0.000000
# 2 -0.178263 0.193802 -0.005022 0.000000 0.000000 0.000000
# 3 -0.005024 -0.005022 0.010312 0.000000 0.000000 0.000000
# 4 0.000000 0.000000 0.000000 -0.082034 0.000000 0.000000
# 5 0.000000 0.000000 0.000000 0.000000 -0.082201 0.000000
# 6 0.000000 0.000000 0.000000 0.000000 0.000000 0.044352
#
#
# Mechanical properties :
#
#
# Convention : Reuss Voigt Hill
#
# Bulk Modulus (GPa) = 46.93183 56.91890 51.92537
# Shear Modulus (GPa) = 7.55556 6.37403 6.96480
#
# Velocity S-wave (km/s) = 2.28147 2.09550 2.19046
# Velocity P-wave (km/s) = 6.26672 6.71317 6.49379
#
# Compressibility (1/GPa) = 0.02130750
#
# Stress axis : x y z
#
# Youngs Moduli (GPa) = 5.15963 5.15992 96.97288
#
# Poissons Ratio (x) = 0.91982 0.48721
# Poissons Ratio (y) = 0.91977 0.48703
# Poissons Ratio (z) = 0.02592 0.02592
#
# Static dielectric constant tensor:
#      x y z
#    x 1.442820 0.000000 0.000000 
#    y 0.000000 1.437330 0.000000 
#    z 0.000000 0.000000 2.920110 
# 
# 
# High freq. dielectric constant tensor:
#      x y z
#    x 1.522200 0.000000 0.000000 
#    y 0.000000 1.522200 0.000000 
#    z 0.000000 0.000000 1.583160 
# 
# From -- ./inp_files/3356.got.cif
#   From: 2010.03.12/outbox.cif.g09.slc.cpg/sg134_2_cif.got.tgz:3356.got - 2010.04.06 18:17:22.
