data_PCOD8317165
_publ_section_title
;
Structure prediction by ZEFSAII (Michael W. Deem and Ramdas Pophale) SiO2 
 PCOD8317165
Probable space group: P 42/N N M
;
_chemical_formula_sum "Si O2"
_cell_formula_units_Z 112
_cell_length_a 13.781979
_cell_length_b 13.781979
_cell_length_c 30.862702
_cell_angle_alpha 90.000000
_cell_angle_beta 90.000000
_cell_angle_gamma 90.000000
_cell_volume 5862.152513
_symmetry_space_group_name_H-M "P 42/N N M"
_symmetry_group_IT_number 134
_space_group.IT_coordinate_system_code '2'
_symmetry_cell_setting 'tetragonal'
loop_
_space_group_symop_operation_xyz
x,y,z
1/2-y,x,1/2+z
1/2-x,1/2-y,z
y,1/2-x,1/2+z
x,1/2-y,1/2-z
1/2-x,y,1/2-z
y,x,-z
1/2-y,1/2-x,-z
-x,-y,-z
1/2+y,-x,1/2-z
1/2+x,1/2+y,-z
-y,1/2+x,1/2-z
-x,1/2+y,1/2+z
1/2+x,-y,1/2+z
-y,-x,z
1/2+y,1/2+x,z
loop_
_atom_site_type_symbol
_atom_site_label
_atom_site_fract_x
_atom_site_fract_y
_atom_site_fract_z
Si Si1 0.091238 0.746080 0.488215
Si Si2 0.332687 0.992412 0.932328
Si Si3 0.112398 0.145826 0.272425
Si Si4 0.544449 0.297950 0.335296
Si Si5 0.897311 0.544172 0.314980
Si Si6 0.354827 0.483911 0.415714
Si Si7 0.253888 0.139397 0.345833
O O1 0.175960 0.824041 0.492293
O O2 0.138708 0.638708 0.484148
O O3 0.020880 0.750616 0.530581
O O4 0.026706 0.771062 0.446324
O O5 0.401473 0.901473 0.936982
O O6 0.285956 0.990323 0.884773
O O7 0.395899 0.089704 0.940057
O O8 0.113458 0.250000 0.250000
O O9 0.083428 0.074933 0.233288
O O10 0.215957 0.129281 0.295953
O O11 0.032958 0.134594 0.310638
O O12 0.651862 0.348139 0.331506
O O13 0.535017 0.191223 0.314101
O O14 0.880282 0.632133 0.347330
O O15 0.990777 0.490777 0.333443
O O16 0.432739 0.567262 0.401856
O O17 0.302558 0.439589 0.373960
O O18 0.250000 0.250000 0.363202
#
# Coordination Sequence:
#
# PCOD8317165 Si02
#       7
#    16  16  16  16  16  16  16
#     4   9  18  32  52  81 116 150 182 225 286 346
#     4   9  16  30  53  84 111 139 184 238 283 331
#     4  10  19  35  57  81 107 146 190 237 281 335
#     4  10  19  33  57  86 117 148 188 234 284 337
#     4  11  24  36  53  83 119 156 192 231 284 349
#     4  10  20  34  57  86 112 140 185 242 289 331
#     4  12  21  38  61  83 111 148 193 238 286 338
#
# _framework density 19.105609000000001
#
# number of rings (size 3 to 8) (size 9 to 14) (size 15 to 20)
#    0.000    1.857    4.286    1.286    0.000    3.714 
#    0.000    1.429    0.000    8.571    0.000    5.000 
#    0.000    0.000    0.000    0.000    0.000    0.000 
#
# Total GULP energy -1387565.067622 kJ/mol
# GULP energy per Si atom -12388.973818 kJ/mol
# Density = 1.906212 g / cm^3
# Si number density = 19.105609 Si / 1000 Ang^3
#
#
#
# Elastic Constant Matrix: (Units=GPa)
#
#
# Indices 1 2 3 4 5 6 
#
# 1 87.3836 60.2803 46.6748 0.0000 0.0000 0.0000
# 2 60.2803 87.3836 46.6748 0.0000 0.0000 0.0000
# 3 46.6748 46.6748 99.2722 0.0000 0.0000 0.0000
# 4 0.0000 0.0000 0.0000 8.9630 0.0000 0.0000
# 5 0.0000 0.0000 0.0000 0.0000 8.9630 0.0000
# 6 0.0000 0.0000 0.0000 0.0000 0.0000 33.3091
#
#
#
# Elastic Compliance Matrix: (Units=1/GPa)
#
#
# Indices 1 2 3 4 5 6 
#
# 1 0.023266 -0.013630 -0.004531 0.000000 0.000000 0.000000
# 2 -0.013630 0.023266 -0.004531 0.000000 0.000000 0.000000
# 3 -0.004531 -0.004531 0.014334 0.000000 0.000000 0.000000
# 4 0.000000 0.000000 0.000000 0.111570 0.000000 0.000000
# 5 0.000000 0.000000 0.000000 0.000000 0.111570 0.000000
# 6 0.000000 0.000000 0.000000 0.000000 0.000000 0.030022
#
#
# Mechanical properties :
#
#
# Convention : Reuss Voigt Hill
#
# Bulk Modulus (GPa) = 64.58470 64.58881 64.58676
# Shear Modulus (GPa) = 13.71474 18.27431 15.99453
#
# Velocity S-wave (km/s) = 2.68216 3.09607 2.89652
# Velocity P-wave (km/s) = 6.59313 6.83085 6.71304
#
# Compressibility (1/GPa) = 0.01548354
#
# Stress axis : x y z
#
# Youngs Moduli (GPa) = 42.98090 42.98090 69.76544
#
# Poissons Ratio (x) = 0.58582 0.31609
# Poissons Ratio (y) = 0.58582 0.31609
# Poissons Ratio (z) = 0.19473 0.19473
#
# Static dielectric constant tensor:
#      x y z
#    x 3.452400 0.000000 0.000000 
#    y 0.000000 3.452400 0.000000 
#    z 0.000000 0.000000 3.828890 
# 
# 
# High freq. dielectric constant tensor:
#      x y z
#    x 1.721420 0.000000 0.000000 
#    y 0.000000 1.721420 0.000000 
#    z 0.000000 0.000000 1.741920 
# 
# From -- ./inp_files/11638.got.cif
#   From: 2010.03.12/outbox.cif.g09.slc.cpg/sg134_6_cif.got.tgz:11638.got - 2010.04.06 18:17:22.
