data_PCOD8317242
_publ_section_title
;
Structure prediction by ZEFSAII (Michael W. Deem and Ramdas Pophale) SiO2 
 PCOD8317242
Probable space group: P 42/N N M
;
_chemical_formula_sum "Si O2"
_cell_formula_units_Z 76
_cell_length_a 10.496254
_cell_length_b 10.496254
_cell_length_c 33.875166
_cell_angle_alpha 90.000000
_cell_angle_beta 90.000000
_cell_angle_gamma 90.000000
_cell_volume 3732.072703
_symmetry_space_group_name_H-M "P 42/N N M"
_symmetry_group_IT_number 134
_space_group.IT_coordinate_system_code '2'
_symmetry_cell_setting 'tetragonal'
loop_
_space_group_symop_operation_xyz
x,y,z
1/2-y,x,1/2+z
1/2-x,1/2-y,z
y,1/2-x,1/2+z
x,1/2-y,1/2-z
1/2-x,y,1/2-z
y,x,-z
1/2-y,1/2-x,-z
-x,-y,-z
1/2+y,-x,1/2-z
1/2+x,1/2+y,-z
-y,1/2+x,1/2-z
-x,1/2+y,1/2+z
1/2+x,-y,1/2+z
-y,-x,z
1/2+y,1/2+x,z
loop_
_atom_site_type_symbol
_atom_site_label
_atom_site_fract_x
_atom_site_fract_y
_atom_site_fract_z
Si Si1 0.150475 0.045598 0.693078
Si Si2 0.250000 0.250000 0.250000
Si Si3 0.785542 0.890666 0.624023
Si Si4 0.078954 0.578954 0.469444
Si Si5 0.029736 0.529736 0.381485
Si Si6 0.839746 0.954668 0.535890
Si Si7 0.145736 0.854265 0.835198
O O1 0.162090 0.163573 0.722419
O O2 0.085894 0.091792 0.651580
O O3 0.283512 0.966970 0.688902
O O4 0.050384 0.949617 0.712750
O O5 0.750000 0.750000 0.637773
O O6 0.817559 0.886293 0.577621
O O7 0.671452 0.990967 0.633813
O O8 0.028749 0.528749 0.428136
O O9 0.228466 0.553863 0.474546
O O10 0.000000 0.500000 0.500000
O O11 0.924007 0.424007 0.371399
O O12 0.852340 0.852340 0.500000
O O13 0.971334 0.028667 0.540182
O O14 0.250000 0.750000 0.850278
#
# Coordination Sequence:
#
# PCOD8317242 Si02
#       7
#    16   4  16   8   8  16   8
#     4  11  24  42  67  98 128 163 204 256 311 366
#     4  12  24  44  66  94 122 168 204 250 302 372
#     4  11  21  39  64  90 124 162 206 254 308 374
#     4  10  23  35  56  82 117 160 207 254 306 365
#     4  10  20  37  60  89 117 165 210 248 305 368
#     4  10  23  39  59  86 120 159 204 258 309 368
#     4  10  20  38  63  95 127 153 197 252 308 369
#
# _framework density 20.364018000000002
#
# number of rings (size 3 to 8) (size 9 to 14) (size 15 to 20)
#    0.000    1.474    3.158    0.947    7.368    0.000 
#    1.895    2.632    0.000    0.000    0.000    0.000 
#    0.000    0.000    0.000    0.000    0.000    0.000 
#
# Total GULP energy -941948.901015 kJ/mol
# GULP energy per Si atom -12394.064487 kJ/mol
# Density = 2.031767 g / cm^3
# Si number density = 20.364018 Si / 1000 Ang^3
#
#
#
# Elastic Constant Matrix: (Units=GPa)
#
#
# Indices 1 2 3 4 5 6 
#
# 1 105.8727 51.5611 48.3370 0.0000 0.0000 0.0000
# 2 51.5611 105.8727 48.3370 0.0000 0.0000 0.0000
# 3 48.3370 48.3370 95.1809 0.0000 0.0000 0.0000
# 4 0.0000 0.0000 0.0000 18.7505 0.0000 0.0000
# 5 0.0000 0.0000 0.0000 0.0000 18.7505 0.0000
# 6 0.0000 0.0000 0.0000 0.0000 0.0000 41.0709
#
#
#
# Elastic Compliance Matrix: (Units=1/GPa)
#
#
# Indices 1 2 3 4 5 6 
#
# 1 0.013821 -0.004591 -0.004688 0.000000 0.000000 0.000000
# 2 -0.004591 0.013821 -0.004688 0.000000 0.000000 0.000000
# 3 -0.004688 -0.004688 0.015267 0.000000 0.000000 0.000000
# 4 0.000000 0.000000 0.000000 0.053332 0.000000 0.000000
# 5 0.000000 0.000000 0.000000 0.000000 0.053332 0.000000
# 6 0.000000 0.000000 0.000000 0.000000 0.000000 0.024348
#
#
# Mechanical properties :
#
#
# Convention : Reuss Voigt Hill
#
# Bulk Modulus (GPa) = 66.76542 67.04406 66.90474
# Shear Modulus (GPa) = 24.17246 26.29378 25.23312
#
# Velocity S-wave (km/s) = 3.44905 3.59721 3.52391
# Velocity P-wave (km/s) = 6.97986 7.08855 7.03441
#
# Compressibility (1/GPa) = 0.01497781
#
# Stress axis : x y z
#
# Youngs Moduli (GPa) = 72.35205 72.35205 65.49904
#
# Poissons Ratio (x) = 0.33217 0.30703
# Poissons Ratio (y) = 0.33217 0.30703
# Poissons Ratio (z) = 0.33915 0.33915
#
# Static dielectric constant tensor:
#      x y z
#    x 4.008080 0.000000 0.000000 
#    y 0.000000 4.008080 0.000000 
#    z 0.000000 0.000000 3.670240 
# 
# 
# High freq. dielectric constant tensor:
#      x y z
#    x 1.800460 0.000000 0.000000 
#    y 0.000000 1.800460 0.000000 
#    z 0.000000 0.000000 1.787290 
# 
# From -- ./inp_files/11386.got.cif
#   From: 2010.03.12/outbox.cif.g09.slc.cpg/sg134_6_cif.got.tgz:11386.got - 2010.04.06 18:17:22.
