data_PCOD8317459
_publ_section_title
;
Structure prediction by ZEFSAII (Michael W. Deem and Ramdas Pophale) SiO2 
 PCOD8317459
Probable space group: P 42/M B C
;
_chemical_formula_sum "Si O2"
_cell_formula_units_Z 64
_cell_length_a 13.328462
_cell_length_b 13.328462
_cell_length_c 17.649964
_cell_angle_alpha 90.000000
_cell_angle_beta 90.000000
_cell_angle_gamma 90.000000
_cell_volume 3135.479027
_symmetry_space_group_name_H-M "P 42/M B C"
_symmetry_group_IT_number 135
_symmetry_cell_setting 'tetragonal'
loop_
_space_group_symop_operation_xyz
x,y,z
-y,x,1/2+z
-x,-y,z
y,-x,1/2+z
1/2+x,1/2-y,-z
1/2-x,1/2+y,-z
1/2+y,1/2+x,1/2-z
1/2-y,1/2-x,1/2-z
-x,-y,-z
y,-x,1/2-z
x,y,-z
-y,x,1/2-z
1/2-x,1/2+y,z
1/2+x,1/2-y,z
1/2-y,1/2-x,1/2+z
1/2+y,1/2+x,1/2+z
loop_
_atom_site_type_symbol
_atom_site_label
_atom_site_fract_x
_atom_site_fract_y
_atom_site_fract_z
Si Si1 0.410212 0.229657 0.848491
Si Si2 0.378122 0.820794 0.831126
Si Si3 0.279144 0.611847 0.176253
Si Si4 0.306631 0.415560 0.911835
O O1 0.513630 0.175274 0.872128
O O2 0.422800 0.252959 0.760079
O O3 0.321173 0.151361 0.865967
O O4 0.392348 0.333956 0.892815
O O5 0.377079 0.877079 0.750000
O O6 0.355765 0.703694 0.816953
O O7 0.301140 0.872891 0.887754
O O8 0.328765 0.520202 0.130788
O O9 0.307360 0.438939 0.000000
#
# Coordination Sequence:
#
# PCOD8317459 Si02
#       4
#    16  16  16  16
#     4  10  20  38  64  89 121 168 218 248 308 380
#     4  11  20  39  65  91 120 162 216 258 309 373
#     4  10  19  38  62  91 123 164 210 259 304 375
#     4  11  24  40  60  93 131 162 203 266 324 365
#
# _framework density 20.411555
#
# number of rings (size 3 to 8) (size 9 to 14) (size 15 to 20)
#    0.000    1.500    7.500    0.000    0.000    7.000 
#    0.000    5.000    0.000    0.000    0.000    0.000 
#    0.000    0.000    0.000    0.000    0.000    0.000 
#
# Total GULP energy -793616.318999 kJ/mol
# GULP energy per Si atom -12400.254984 kJ/mol
# Density = 2.036510 g / cm^3
# Si number density = 20.411555 Si / 1000 Ang^3
#
#
#
# Elastic Constant Matrix: (Units=GPa)
#
#
# Indices 1 2 3 4 5 6 
#
# 1 71.7679 7.9059 1.6842 0.0000 0.0000 0.0000
# 2 7.9059 71.7679 1.6842 0.0000 0.0000 0.0000
# 3 1.6842 1.6842 71.7707 0.0000 0.0000 0.0000
# 4 0.0000 0.0000 0.0000 18.9731 0.0000 0.0000
# 5 0.0000 0.0000 0.0000 0.0000 18.9731 0.0000
# 6 0.0000 0.0000 0.0000 0.0000 0.0000 15.6455
#
#
#
# Elastic Compliance Matrix: (Units=1/GPa)
#
#
# Indices 1 2 3 4 5 6 
#
# 1 0.014111 -0.001548 -0.000295 0.000000 0.000000 0.000000
# 2 -0.001548 0.014111 -0.000295 0.000000 0.000000 0.000000
# 3 -0.000295 -0.000295 0.013947 0.000000 0.000000 0.000000
# 4 0.000000 0.000000 0.000000 0.052706 0.000000 0.000000
# 5 0.000000 0.000000 0.000000 0.000000 0.052706 0.000000
# 6 0.000000 0.000000 0.000000 0.000000 0.000000 0.063916
#
#
# Mechanical properties :
#
#
# Convention : Reuss Voigt Hill
#
# Bulk Modulus (GPa) = 26.38865 26.42835 26.40850
# Shear Modulus (GPa) = 21.89100 24.32047 23.10573
#
# Velocity S-wave (km/s) = 3.27843 3.45556 3.36816
# Velocity P-wave (km/s) = 5.22371 5.37560 5.30020
#
# Compressibility (1/GPa) = 0.03789509
#
# Stress axis : x y z
#
# Youngs Moduli (GPa) = 70.86568 70.86568 71.69949
#
# Poissons Ratio (x) = 0.10967 0.02114
# Poissons Ratio (y) = 0.10967 0.02114
# Poissons Ratio (z) = 0.02089 0.02089
#
# Static dielectric constant tensor:
#      x y z
#    x 3.814890 0.000000 0.000000 
#    y 0.000000 3.814890 0.000000 
#    z 0.000000 0.000000 3.366370 
# 
# 
# High freq. dielectric constant tensor:
#      x y z
#    x 1.798220 0.000000 0.000000 
#    y 0.000000 1.798220 0.000000 
#    z 0.000000 0.000000 1.768930 
# 
# From -- ./inp_files/3129.got.cif
#   From: 2010.03.12/outbox.cif.g09.slc.cpg/sg135_2_cif.got.tgz:3129.got - 2010.04.06 18:31:24.
