data_PCOD8317600
_publ_section_title
;
Structure prediction by ZEFSAII (Michael W. Deem and Ramdas Pophale) SiO2 
 PCOD8317600
Probable space group: P 42/M B C
;
_chemical_formula_sum "Si O2"
_cell_formula_units_Z 112
_cell_length_a 14.162330
_cell_length_b 14.162330
_cell_length_c 25.998735
_cell_angle_alpha 90.000000
_cell_angle_beta 90.000000
_cell_angle_gamma 90.000000
_cell_volume 5214.607644
_symmetry_space_group_name_H-M "P 42/M B C"
_symmetry_group_IT_number 135
_symmetry_cell_setting 'tetragonal'
loop_
_space_group_symop_operation_xyz
x,y,z
-y,x,1/2+z
-x,-y,z
y,-x,1/2+z
1/2+x,1/2-y,-z
1/2-x,1/2+y,-z
1/2+y,1/2+x,1/2-z
1/2-y,1/2-x,1/2-z
-x,-y,-z
y,-x,1/2-z
x,y,-z
-y,x,1/2-z
1/2-x,1/2+y,z
1/2+x,1/2-y,z
1/2-y,1/2-x,1/2+z
1/2+y,1/2+x,1/2+z
loop_
_atom_site_type_symbol
_atom_site_label
_atom_site_fract_x
_atom_site_fract_y
_atom_site_fract_z
Si Si1 0.551450 0.645376 0.259911
Si Si2 0.303308 0.689425 0.393643
Si Si3 0.555099 0.789101 0.175286
Si Si4 0.158315 0.339882 0.809768
Si Si5 0.984197 0.897049 0.557931
Si Si6 0.122193 0.739202 0.556494
Si Si7 0.049764 0.691893 0.663884
O O1 0.618677 0.555186 0.256157
O O2 0.588981 0.718255 0.218970
O O3 0.560300 0.699043 0.315246
O O4 0.256554 0.589047 0.378655
O O5 0.295829 0.759448 0.344787
O O6 0.409988 0.670045 0.411773
O O7 0.235988 0.736019 0.437004
O O8 0.442886 0.799818 0.173631
O O9 0.614012 0.882491 0.188998
O O10 0.180931 0.319070 0.750000
O O11 0.152686 0.449897 0.820010
O O12 0.944787 0.910903 0.500000
O O13 0.086020 0.847221 0.557763
O O14 0.000000 0.000000 0.584072
O O15 0.097131 0.695582 0.500000
O O16 0.067211 0.686172 0.602440
#
# Coordination Sequence:
#
# PCOD8317600 Si02
#       7
#    16  16  16  16  16  16  16
#     4  11  25  41  62  99 137 178 222 279 343 417
#     4  11  25  43  69  98 134 185 221 285 346 412
#     4  11  26  39  66  96 133 173 229 273 336 416
#     4  12  25  44  65  98 136 180 228 276 340 421
#     4  10  22  42  71 104 136 172 227 289 347 409
#     4  10  23  43  68  97 131 176 227 282 344 407
#     4  11  23  44  68  92 132 181 222 284 343 402
#
# _framework density 21.478124999999999
#
# number of rings (size 3 to 8) (size 9 to 14) (size 15 to 20)
#    0.000    1.143    2.857    2.143    6.000    0.571 
#    0.000    0.000    0.000    8.571    0.000    0.000 
#    0.000    0.000    0.000    0.000    0.000    0.000 
#
# Total GULP energy -1388050.013338 kJ/mol
# GULP energy per Si atom -12393.303691 kJ/mol
# Density = 2.142924 g / cm^3
# Si number density = 21.478125 Si / 1000 Ang^3
#
#
#
# Elastic Constant Matrix: (Units=GPa)
#
#
# Indices 1 2 3 4 5 6 
#
# 1 97.7053 40.0549 41.9514 0.0000 0.0000 0.0000
# 2 40.0549 97.7057 41.9516 0.0000 0.0000 0.0000
# 3 41.9514 41.9516 127.8674 0.0000 0.0000 0.0000
# 4 0.0000 0.0000 0.0000 29.3401 0.0000 0.0000
# 5 0.0000 0.0000 0.0000 0.0000 29.3401 0.0000
# 6 0.0000 0.0000 0.0000 0.0000 0.0000 31.7336
#
#
#
# Elastic Compliance Matrix: (Units=1/GPa)
#
#
# Indices 1 2 3 4 5 6 
#
# 1 0.013209 -0.004137 -0.002976 0.000000 0.000000 0.000000
# 2 -0.004137 0.013209 -0.002976 0.000000 0.000000 0.000000
# 3 -0.002976 -0.002976 0.009774 0.000000 0.000000 0.000000
# 4 0.000000 0.000000 0.000000 0.034083 0.000000 0.000000
# 5 0.000000 0.000000 0.000000 0.000000 0.034083 0.000000
# 6 0.000000 0.000000 0.000000 0.000000 0.000000 0.031512
#
#
# Mechanical properties :
#
#
# Convention : Reuss Voigt Hill
#
# Bulk Modulus (GPa) = 62.45405 63.46601 62.96003
# Shear Modulus (GPa) = 30.98159 31.37080 31.17619
#
# Velocity S-wave (km/s) = 3.80211 3.82592 3.81403
# Velocity P-wave (km/s) = 6.95815 7.00929 6.98377
#
# Compressibility (1/GPa) = 0.01601177
#
# Stress axis : x y z
#
# Youngs Moduli (GPa) = 75.70714 75.70733 102.31684
#
# Poissons Ratio (x) = 0.31321 0.30452
# Poissons Ratio (y) = 0.31321 0.30453
# Poissons Ratio (z) = 0.22533 0.22533
#
# Static dielectric constant tensor:
#      x y z
#    x 3.970550 0.000000 0.000000 
#    y 0.000000 3.970550 0.000000 
#    z 0.000000 0.000000 3.992110 
# 
# 
# High freq. dielectric constant tensor:
#      x y z
#    x 1.846840 0.000000 0.000000 
#    y 0.000000 1.846840 0.000000 
#    z 0.000000 0.000000 1.839060 
# 
# From -- ./inp_files/6101.got.cif
#   From: 2010.03.12/outbox.cif.g09.slc.cpg/sg135_4_cif.got.tgz:6101.got - 2010.04.06 18:31:24.
