data_PCOD8317367
_publ_section_title
;
Structure prediction by ZEFSAII (Michael W. Deem and Ramdas Pophale) SiO2 
 PCOD8317367
Probable space group: P 42/M B C
;
_chemical_formula_sum "Si O2"
_cell_formula_units_Z 128
_cell_length_a 18.616927
_cell_length_b 18.616927
_cell_length_c 20.519057
_cell_angle_alpha 90.000000
_cell_angle_beta 90.000000
_cell_angle_gamma 90.000000
_cell_volume 7111.699369
_symmetry_space_group_name_H-M "P 42/M B C"
_symmetry_group_IT_number 135
_symmetry_cell_setting 'tetragonal'
loop_
_space_group_symop_operation_xyz
x,y,z
-y,x,1/2+z
-x,-y,z
y,-x,1/2+z
1/2+x,1/2-y,-z
1/2-x,1/2+y,-z
1/2+y,1/2+x,1/2-z
1/2-y,1/2-x,1/2-z
-x,-y,-z
y,-x,1/2-z
x,y,-z
-y,x,1/2-z
1/2-x,1/2+y,z
1/2+x,1/2-y,z
1/2-y,1/2-x,1/2+z
1/2+y,1/2+x,1/2+z
loop_
_atom_site_type_symbol
_atom_site_label
_atom_site_fract_x
_atom_site_fract_y
_atom_site_fract_z
Si Si1 0.584580 0.344954 0.772215
Si Si2 0.988079 0.084285 0.337322
Si Si3 0.975594 0.315370 0.346624
Si Si4 0.158976 0.683637 0.174963
Si Si5 0.172747 0.232170 0.666747
Si Si6 0.192382 0.951446 0.076255
Si Si7 0.003259 0.715996 0.806227
Si Si8 0.110636 0.388219 0.324256
O O1 0.537314 0.382073 0.717657
O O2 0.610036 0.406472 0.822356
O O3 0.650894 0.304031 0.736552
O O4 0.536755 0.291378 0.815693
O O5 0.013412 0.115128 0.407151
O O6 0.000000 0.000000 0.337529
O O7 0.893012 0.335335 0.362050
O O8 0.994086 0.249627 0.393016
O O9 0.991626 0.295203 0.271717
O O10 0.033904 0.379308 0.361968
O O11 0.165720 0.665720 0.250000
O O12 0.217920 0.742570 0.153283
O O13 0.081163 0.718107 0.160792
O O14 0.127590 0.198592 0.607510
O O15 0.159608 0.317031 0.669173
O O16 0.203649 0.944340 0.000000
O O17 0.957777 0.655964 0.846626
O O18 0.094213 0.405788 0.250000
#
# Coordination Sequence:
#
# PCOD8317367 Si02
#       8
#    16  16  16  16  16  16  16  16
#     4  11  17  29  48  78 112 138 171 216 266 337
#     4  11  20  30  50  77 105 142 175 219 272 321
#     4   9  18  34  50  75 105 138 177 213 270 319
#     4  10  21  29  49  83 111 136 166 219 275 332
#     4  10  19  31  53  75 106 139 179 216 268 318
#     4  10  22  39  54  71 102 144 188 225 255 316
#     4  10  18  29  49  79 113 135 165 212 273 337
#     4   9  15  30  46  72 106 142 165 202 262 326
#
# _framework density 17.998511000000001
#
# number of rings (size 3 to 8) (size 9 to 14) (size 15 to 20)
#    0.000    2.000    6.250    1.125    3.500    0.750 
#    0.000    3.125    0.000    0.000    0.000   10.500 
#    0.000    0.000    0.000    0.000    0.000    0.000 
#
# Total GULP energy -1586104.247331 kJ/mol
# GULP energy per Si atom -12391.439432 kJ/mol
# Density = 1.795755 g / cm^3
# Si number density = 17.998511 Si / 1000 Ang^3
#
#
#
# Elastic Constant Matrix: (Units=GPa)
#
#
# Indices 1 2 3 4 5 6 
#
# 1 92.6867 28.5406 17.5105 0.0000 0.0000 0.0000
# 2 28.5406 92.6863 17.5105 0.0000 0.0000 0.0000
# 3 17.5105 17.5105 33.9313 0.0000 0.0000 0.0000
# 4 0.0000 0.0000 0.0000 9.9393 0.0000 0.0000
# 5 0.0000 0.0000 0.0000 0.0000 9.9393 0.0000
# 6 0.0000 0.0000 0.0000 0.0000 0.0000 24.1489
#
#
#
# Elastic Compliance Matrix: (Units=1/GPa)
#
#
# Indices 1 2 3 4 5 6 
#
# 1 0.012642 -0.002948 -0.005003 0.000000 0.000000 0.000000
# 2 -0.002948 0.012642 -0.005003 0.000000 0.000000 0.000000
# 3 -0.005003 -0.005003 0.034635 0.000000 0.000000 0.000000
# 4 0.000000 0.000000 0.000000 0.100610 0.000000 0.000000
# 5 0.000000 0.000000 0.000000 0.000000 0.100611 0.000000
# 6 0.000000 0.000000 0.000000 0.000000 0.000000 0.041410
#
#
# Mechanical properties :
#
#
# Convention : Reuss Voigt Hill
#
# Bulk Modulus (GPa) = 29.40131 38.49193 33.94662
# Shear Modulus (GPa) = 14.71486 19.18838 16.95162
#
# Velocity S-wave (km/s) = 2.86240 3.26867 3.07226
# Velocity P-wave (km/s) = 5.22449 5.97313 5.61131
#
# Compressibility (1/GPa) = 0.03401209
#
# Stress axis : x y z
#
# Youngs Moduli (GPa) = 79.10266 79.10231 28.87279
#
# Poissons Ratio (x) = 0.23316 0.14444
# Poissons Ratio (y) = 0.23316 0.14444
# Poissons Ratio (z) = 0.39573 0.39573
#
# Static dielectric constant tensor:
#      x y z
#    x 3.789620 0.000000 0.000000 
#    y 0.000000 3.789630 0.000000 
#    z 0.000000 0.000000 2.760190 
# 
# 
# High freq. dielectric constant tensor:
#      x y z
#    x 1.708750 0.000000 0.000000 
#    y 0.000000 1.708750 0.000000 
#    z 0.000000 0.000000 1.613470 
# 
# From -- ./inp_files/6265.got.cif
#   From: 2010.03.12/outbox.cif.g09.slc.cpg/sg135_4_cif.got.tgz:6265.got - 2010.04.06 18:31:24.
