data_PCOD8317210
_publ_section_title
;
Structure prediction by ZEFSAII (Michael W. Deem and Ramdas Pophale) SiO2 
 PCOD8317210
Probable space group: P 42/N N M
;
_chemical_formula_sum "Si O2"
_cell_formula_units_Z 68
_cell_length_a 11.251450
_cell_length_b 11.251450
_cell_length_c 26.678017
_cell_angle_alpha 90.000000
_cell_angle_beta 90.000000
_cell_angle_gamma 90.000000
_cell_volume 3377.306953
_symmetry_space_group_name_H-M "P 42/N N M"
_symmetry_group_IT_number 134
_space_group.IT_coordinate_system_code '2'
_symmetry_cell_setting 'tetragonal'
loop_
_space_group_symop_operation_xyz
x,y,z
1/2-y,x,1/2+z
1/2-x,1/2-y,z
y,1/2-x,1/2+z
x,1/2-y,1/2-z
1/2-x,y,1/2-z
y,x,-z
1/2-y,1/2-x,-z
-x,-y,-z
1/2+y,-x,1/2-z
1/2+x,1/2+y,-z
-y,1/2+x,1/2-z
-x,1/2+y,1/2+z
1/2+x,-y,1/2+z
-y,-x,z
1/2+y,1/2+x,z
loop_
_atom_site_type_symbol
_atom_site_label
_atom_site_fract_x
_atom_site_fract_y
_atom_site_fract_z
Si Si1 0.800226 0.010973 0.609875
Si Si2 0.750724 0.443381 0.499666
Si Si3 0.228727 0.110796 0.591819
Si Si4 0.398619 0.090429 0.325251
Si Si5 0.750000 0.750000 0.250000
O O1 0.863023 0.136978 0.619185
O O2 0.735086 0.007613 0.555840
O O3 0.900206 0.906853 0.611586
O O4 0.700708 0.997162 0.652131
O O5 0.628073 0.371928 0.494770
O O6 0.862075 0.362075 0.485577
O O7 0.747078 0.552414 0.461887
O O8 0.250000 0.250000 0.586720
O O9 0.318288 0.053805 0.632354
O O10 0.337930 0.166099 0.281391
O O11 0.509950 0.009950 0.306160
#
# Coordination Sequence:
#
# PCOD8317210 Si02
#       5
#    16  16  16  16   4
#     4  10  20  37  60  90 128 167 208 253 307 372
#     4  10  20  33  53  86 129 171 212 252 293 357
#     4  10  20  37  56  87 122 165 208 245 301 366
#     4  11  24  43  68  91 119 157 203 262 322 383
#     4  12  24  52  64  98 120 156 208 268 340 390
#
# _framework density 20.134387
#
# number of rings (size 3 to 8) (size 9 to 14) (size 15 to 20)
#    0.000    1.647    3.529    2.824    0.000   10.824 
#    0.000    5.882    0.000    3.176    0.000    0.000 
#    0.000    0.000    0.000    0.000    0.000    0.000 
#
# Total GULP energy -843129.267942 kJ/mol
# GULP energy per Si atom -12398.959823 kJ/mol
# Density = 2.008856 g / cm^3
# Si number density = 20.134387 Si / 1000 Ang^3
#
#
#
# Elastic Constant Matrix: (Units=GPa)
#
#
# Indices 1 2 3 4 5 6 
#
# 1 79.1667 41.6488 46.6647 0.0000 0.0000 0.0000
# 2 41.6488 79.1667 46.6647 0.0000 0.0000 0.0000
# 3 46.6647 46.6647 107.9177 0.0000 0.0000 0.0000
# 4 0.0000 0.0000 0.0000 19.4068 0.0000 0.0000
# 5 0.0000 0.0000 0.0000 0.0000 19.4068 0.0000
# 6 0.0000 0.0000 0.0000 0.0000 0.0000 35.3759
#
#
#
# Elastic Compliance Matrix: (Units=1/GPa)
#
#
# Indices 1 2 3 4 5 6 
#
# 1 0.019541 -0.007113 -0.005374 0.000000 0.000000 0.000000
# 2 -0.007113 0.019541 -0.005374 0.000000 0.000000 0.000000
# 3 -0.005374 -0.005374 0.013914 0.000000 0.000000 0.000000
# 4 0.000000 0.000000 0.000000 0.051528 0.000000 0.000000
# 5 0.000000 0.000000 0.000000 0.000000 0.051528 0.000000
# 6 0.000000 0.000000 0.000000 0.000000 0.000000 0.028268
#
#
# Mechanical properties :
#
#
# Convention : Reuss Voigt Hill
#
# Bulk Modulus (GPa) = 57.88935 59.57863 58.73399
# Shear Modulus (GPa) = 22.14333 23.58944 22.86639
#
# Velocity S-wave (km/s) = 3.31989 3.42658 3.37365
# Velocity P-wave (km/s) = 6.59617 6.73127 6.66406
#
# Compressibility (1/GPa) = 0.01727433
#
# Stress axis : x y z
#
# Youngs Moduli (GPa) = 51.17361 51.17361 71.86944
#
# Poissons Ratio (x) = 0.36398 0.38625
# Poissons Ratio (y) = 0.36398 0.38625
# Poissons Ratio (z) = 0.27502 0.27502
#
# Static dielectric constant tensor:
#      x y z
#    x 3.889500 0.000000 0.000000 
#    y 0.000000 3.889500 0.000000 
#    z 0.000000 0.000000 3.538620 
# 
# 
# High freq. dielectric constant tensor:
#      x y z
#    x 1.789050 0.000000 0.000000 
#    y 0.000000 1.789050 0.000000 
#    z 0.000000 0.000000 1.767630 
# 
# From -- ./inp_files/10599.got.cif
#   From: 2010.03.12/outbox.cif.g09.slc.cpg/sg134_6_cif.got.tgz:10599.got - 2010.04.06 18:17:22.
