data_PCOD8317818
_publ_section_title
;
Structure prediction by ZEFSAII (Michael W. Deem and Ramdas Pophale) SiO2 
 PCOD8317818
Probable space group: P 42/M N M
;
_chemical_formula_sum "Si O2"
_cell_formula_units_Z 112
_cell_length_a 28.849925
_cell_length_b 28.849925
_cell_length_c 9.297429
_cell_angle_alpha 90.000000
_cell_angle_beta 90.000000
_cell_angle_gamma 90.000000
_cell_volume 7738.419114
_symmetry_space_group_name_H-M "P 42/M N M"
_symmetry_group_IT_number 136
_symmetry_cell_setting 'tetragonal'
loop_
_space_group_symop_operation_xyz
x,y,z
1/2-y,1/2+x,1/2+z
-x,-y,z
1/2+y,1/2-x,1/2+z
1/2+x,1/2-y,1/2-z
1/2-x,1/2+y,1/2-z
y,x,-z
-y,-x,-z
-x,-y,-z
1/2+y,1/2-x,1/2-z
x,y,-z
1/2-y,1/2+x,1/2-z
1/2-x,1/2+y,1/2+z
1/2+x,1/2-y,1/2+z
-y,-x,z
y,x,z
loop_
_atom_site_type_symbol
_atom_site_label
_atom_site_fract_x
_atom_site_fract_y
_atom_site_fract_z
Si Si1 0.706069 0.038435 0.831964
Si Si2 0.451050 0.897591 0.153924
Si Si3 0.450507 0.114072 0.161901
Si Si4 0.730842 0.142187 0.833006
Si Si5 0.704417 0.704417 0.839579
Si Si6 0.783164 0.345725 0.829735
Si Si7 0.548735 0.210431 0.159033
Si Si8 0.718196 0.281804 0.661437
O O1 0.654787 0.046039 0.775433
O O2 0.730786 0.087438 0.799018
O O3 0.730975 0.993519 0.756787
O O4 0.704811 0.027669 0.000000
O O5 0.503119 0.917806 0.169433
O O6 0.418946 0.908936 0.287964
O O7 0.461158 0.843445 0.146730
O O8 0.428937 0.913622 0.000000
O O9 0.439941 0.131847 0.000000
O O10 0.774682 0.160626 0.744071
O O11 0.682711 0.169330 0.790205
O O12 0.740309 0.151731 0.000000
O O13 0.743141 0.743141 0.847979
O O14 0.689190 0.689190 0.000000
O O15 0.784690 0.399247 0.777045
O O16 0.738682 0.325186 0.748383
O O17 0.774990 0.343096 0.000000
O O18 0.545710 0.233398 0.000000
O O19 0.703095 0.296906 0.500000
#
# Coordination Sequence:
#
# PCOD8317818 Si02
#       8
#    16  16  16  16   8  16  16   8
#     4  10  19  30  44  60  78 102 131 161 195 236
#     4   9  18  31  42  53  70  90 117 154 196 241
#     4  10  20  31  42  55  70  90 118 155 198 240
#     4   9  17  29  44  60  80 107 135 163 198 242
#     4   9  17  27  41  63  85 103 127 162 201 238
#     4   9  16  28  45  60  78 107 137 163 198 243
#     4   9  18  31  44  59  79 102 130 163 196 234
#     4   9  17  27  39  61  87 103 125 164 203 238
#
# _framework density 14.473240000000001
#
# number of rings (size 3 to 8) (size 9 to 14) (size 15 to 20)
#    0.000    2.714    0.000    3.000    0.000    8.857 
#    0.000    4.286    0.000    0.000    0.000    0.000 
#    0.000    0.000    0.000    0.000    0.000    0.714 
#
# Total GULP energy -1387471.713052 kJ/mol
# GULP energy per Si atom -12388.140295 kJ/mol
# Density = 1.444030 g / cm^3
# Si number density = 14.473240 Si / 1000 Ang^3
#
#
#
# Elastic Constant Matrix: (Units=GPa)
#
#
# Indices 1 2 3 4 5 6 
#
# 1 54.6934 27.1867 34.0777 0.0000 0.0000 0.0000
# 2 27.1867 54.6933 34.0777 0.0000 0.0000 0.0000
# 3 34.0777 34.0777 67.1153 0.0000 0.0000 0.0000
# 4 0.0000 0.0000 0.0000 20.1062 0.0000 0.0000
# 5 0.0000 0.0000 0.0000 0.0000 20.1062 0.0000
# 6 0.0000 0.0000 0.0000 0.0000 0.0000 18.1251
#
#
#
# Elastic Compliance Matrix: (Units=1/GPa)
#
#
# Indices 1 2 3 4 5 6 
#
# 1 0.028754 -0.007601 -0.010740 0.000000 0.000000 0.000000
# 2 -0.007601 0.028754 -0.010740 0.000000 0.000000 0.000000
# 3 -0.010740 -0.010740 0.025807 0.000000 0.000000 0.000000
# 4 0.000000 0.000000 0.000000 0.049736 0.000000 0.000000
# 5 0.000000 0.000000 0.000000 0.000000 0.049736 0.000000
# 6 0.000000 0.000000 0.000000 0.000000 0.000000 0.055172
#
#
# Mechanical properties :
#
#
# Convention : Reuss Voigt Hill
#
# Bulk Modulus (GPa) = 39.75980 40.79847 40.27914
# Shear Modulus (GPa) = 16.42005 17.07816 16.74911
#
# Velocity S-wave (km/s) = 3.37190 3.43881 3.40552
# Velocity P-wave (km/s) = 6.53380 6.63456 6.58437
#
# Compressibility (1/GPa) = 0.02515103
#
# Stress axis : x y z
#
# Youngs Moduli (GPa) = 34.77780 34.77775 38.74973
#
# Poissons Ratio (x) = 0.26434 0.41619
# Poissons Ratio (y) = 0.26434 0.41619
# Poissons Ratio (z) = 0.37353 0.37353
#
# Static dielectric constant tensor:
#      x y z
#    x 2.707650 0.000000 0.000000 
#    y 0.000000 2.707650 0.000000 
#    z 0.000000 0.000000 3.060300 
# 
# 
# High freq. dielectric constant tensor:
#      x y z
#    x 1.519670 0.000000 0.000000 
#    y 0.000000 1.519670 0.000000 
#    z 0.000000 0.000000 1.565590 
# 
# From -- ./inp_files/2422.got.cif
#   From: 2010.03.12/outbox.cif.g09.slc.cpg/sg136_2_cif.got.tgz:2422.got - 2010.04.06 18:39:43.
