data_PCOD8317156
_publ_section_title
;
Structure prediction by ZEFSAII (Michael W. Deem and Ramdas Pophale) SiO2 
 PCOD8317156
Probable space group: P 42/N N M
;
_chemical_formula_sum "Si O2"
_cell_formula_units_Z 112
_cell_length_a 18.314515
_cell_length_b 18.314515
_cell_length_c 19.700880
_cell_angle_alpha 90.000000
_cell_angle_beta 90.000000
_cell_angle_gamma 90.000000
_cell_volume 6608.097927
_symmetry_space_group_name_H-M "P 42/N N M"
_symmetry_group_IT_number 134
_space_group.IT_coordinate_system_code '2'
_symmetry_cell_setting 'tetragonal'
loop_
_space_group_symop_operation_xyz
x,y,z
1/2-y,x,1/2+z
1/2-x,1/2-y,z
y,1/2-x,1/2+z
x,1/2-y,1/2-z
1/2-x,y,1/2-z
y,x,-z
1/2-y,1/2-x,-z
-x,-y,-z
1/2+y,-x,1/2-z
1/2+x,1/2+y,-z
-y,1/2+x,1/2-z
-x,1/2+y,1/2+z
1/2+x,-y,1/2+z
-y,-x,z
1/2+y,1/2+x,z
loop_
_atom_site_type_symbol
_atom_site_label
_atom_site_fract_x
_atom_site_fract_y
_atom_site_fract_z
Si Si1 0.233265 0.331513 0.383937
Si Si2 0.219704 0.423963 0.638140
Si Si3 0.094870 0.480445 0.062339
Si Si4 0.458941 0.422587 0.190657
Si Si5 0.249112 0.042346 0.484516
Si Si6 0.627596 0.876758 0.181924
Si Si7 0.015496 0.099100 0.947187
O O1 0.250000 0.250000 0.406318
O O2 0.149364 0.331602 0.359759
O O3 0.246537 0.377554 0.451698
O O4 0.288816 0.360170 0.324716
O O5 0.160795 0.481948 0.668574
O O6 0.247165 0.448443 0.564890
O O7 0.292067 0.414518 0.683718
O O8 0.093794 0.418876 0.119350
O O9 0.054453 0.554453 0.087498
O O10 0.051896 0.448105 0.000000
O O11 0.176622 0.500324 0.038337
O O12 0.532004 0.467997 0.211668
O O13 0.400422 0.417421 0.251839
O O14 0.419516 0.464384 0.129468
O O15 0.316067 0.995397 0.454662
O O16 0.081320 0.081320 0.000000
O O17 0.944689 0.055312 0.971711
#
# Coordination Sequence:
#
# PCOD8317156 Si02
#       7
#    16  16  16  16  16  16  16
#     4   9  19  29  48  74 107 137 169 205 248 315
#     4  11  19  32  50  77 104 134 174 212 259 316
#     4  10  20  35  53  75 103 140 185 219 252 310
#     4  11  22  35  50  70 104 139 173 219 259 302
#     4  11  18  32  52  77 102 139 172 221 264 313
#     4  10  21  34  50  73 105 142 175 207 259 311
#     4  10  19  33  53  75 100 134 176 220 267 319
#
# _framework density 16.948902
#
# number of rings (size 3 to 8) (size 9 to 14) (size 15 to 20)
#    0.000    1.714    4.286    1.286    0.000    2.286 
#    0.000    2.143    0.000    0.429    0.000    0.000 
#    0.000   11.143    0.000    5.000    0.000    0.000 
#
# Total GULP energy -1388006.148018 kJ/mol
# GULP energy per Si atom -12392.912036 kJ/mol
# Density = 1.691033 g / cm^3
# Si number density = 16.948902 Si / 1000 Ang^3
#
#
#
# Elastic Constant Matrix: (Units=GPa)
#
#
# Indices 1 2 3 4 5 6 
#
# 1 202.3309 -78.4270 17.9047 0.0000 0.0000 0.0000
# 2 -78.4270 202.3760 17.9099 0.0000 0.0000 0.0000
# 3 17.9047 17.9099 72.8849 0.0000 0.0000 0.0000
# 4 0.0000 0.0000 0.0000 23.7450 0.0000 0.0000
# 5 0.0000 0.0000 0.0000 0.0000 23.7450 0.0000
# 6 0.0000 0.0000 0.0000 0.0000 0.0000 30.9247
#
#
#
# Elastic Compliance Matrix: (Units=1/GPa)
#
#
# Indices 1 2 3 4 5 6 
#
# 1 0.006124 0.002562 -0.002134 0.000000 0.000000 0.000000
# 2 0.002562 0.006123 -0.002134 0.000000 0.000000 0.000000
# 3 -0.002134 -0.002134 0.014769 0.000000 0.000000 0.000000
# 4 0.000000 0.000000 0.000000 0.042114 0.000000 0.000000
# 5 0.000000 0.000000 0.000000 0.000000 0.042114 0.000000
# 6 0.000000 0.000000 0.000000 0.000000 0.000000 0.032337
#
#
# Mechanical properties :
#
#
# Convention : Reuss Voigt Hill
#
# Bulk Modulus (GPa) = 42.36457 43.59633 42.98045
# Shear Modulus (GPa) = 32.28689 50.36320 41.32505
#
# Velocity S-wave (km/s) = 4.36931 5.45704 4.94318
# Velocity P-wave (km/s) = 7.10664 8.09220 7.61538
#
# Compressibility (1/GPa) = 0.02360463
#
# Stress axis : x y z
#
# Youngs Moduli (GPa) = 163.28026 163.31533 67.70969
#
# Poissons Ratio (x) = -0.41846 0.14450
# Poissons Ratio (y) = -0.41837 0.14450
# Poissons Ratio (z) = 0.34846 0.34853
#
# Static dielectric constant tensor:
#      x y z
#    x 3.436830 0.000000 0.000000 
#    y 0.000000 3.436830 0.000000 
#    z 0.000000 0.000000 3.159560 
# 
# 
# High freq. dielectric constant tensor:
#      x y z
#    x 1.633590 0.000000 0.000000 
#    y 0.000000 1.633590 0.000000 
#    z 0.000000 0.000000 1.663580 
# 
# From -- ./inp_files/9367.got.cif
#   From: 2010.03.12/outbox.cif.g09.slc.cpg/sg134_5_cif.got.tgz:9367.got - 2010.04.06 18:17:22.
