data_PCOD8317230
_publ_section_title
;
Structure prediction by ZEFSAII (Michael W. Deem and Ramdas Pophale) SiO2 
 PCOD8317230
Probable space group: P 42/N N M
;
_chemical_formula_sum "Si O2"
_cell_formula_units_Z 72
_cell_length_a 17.197339
_cell_length_b 17.197339
_cell_length_c 12.267878
_cell_angle_alpha 90.000000
_cell_angle_beta 90.000000
_cell_angle_gamma 90.000000
_cell_volume 3628.206132
_symmetry_space_group_name_H-M "P 42/N N M"
_symmetry_group_IT_number 134
_space_group.IT_coordinate_system_code '2'
_symmetry_cell_setting 'tetragonal'
loop_
_space_group_symop_operation_xyz
x,y,z
1/2-y,x,1/2+z
1/2-x,1/2-y,z
y,1/2-x,1/2+z
x,1/2-y,1/2-z
1/2-x,y,1/2-z
y,x,-z
1/2-y,1/2-x,-z
-x,-y,-z
1/2+y,-x,1/2-z
1/2+x,1/2+y,-z
-y,1/2+x,1/2-z
-x,1/2+y,1/2+z
1/2+x,-y,1/2+z
-y,-x,z
1/2+y,1/2+x,z
loop_
_atom_site_type_symbol
_atom_site_label
_atom_site_fract_x
_atom_site_fract_y
_atom_site_fract_z
Si Si1 0.328651 0.953547 0.819201
Si Si2 0.289290 0.980059 0.057004
Si Si3 0.870468 0.250000 0.750000
Si Si4 0.421089 0.452012 0.316278
Si Si5 0.115081 0.009547 0.071780
O O1 0.250000 0.950934 0.750000
O O2 0.387042 0.887042 0.773811
O O3 0.367266 0.039104 0.809178
O O4 0.314221 0.937489 0.946474
O O5 0.288592 0.918851 0.154350
O O6 0.351530 0.046360 0.094093
O O7 0.204001 0.013648 0.034998
O O8 0.817826 0.182175 0.802630
O O9 0.485276 0.514725 0.353539
O O10 0.386905 0.471724 0.198739
O O11 0.074075 0.074075 0.000000
O O12 0.074156 0.925845 0.049684
#
# Coordination Sequence:
#
# PCOD8317230 Si02
#       5
#    16  16   8  16  16
#     4  11  25  42  62  88 122 163 206 252 306 377
#     4  12  21  37  62  89 121 156 205 254 311 364
#     4  11  22  34  54  90 127 154 188 244 309 366
#     4  10  20  38  61  87 116 154 206 254 300 364
#     4  10  20  35  59  89 123 161 205 254 308 370
#
# _framework density 19.844518000000001
#
# number of rings (size 3 to 8) (size 9 to 14) (size 15 to 20)
#    0.000    1.222    2.222    4.667    0.000    5.556 
#    0.000    0.000    0.000   13.333    0.000    0.000 
#    0.000    0.000    0.000    0.000    0.000    0.000 
#
# Total GULP energy -892742.055921 kJ/mol
# GULP energy per Si atom -12399.195221 kJ/mol
# Density = 1.979935 g / cm^3
# Si number density = 19.844518 Si / 1000 Ang^3
#
#
#
# Elastic Constant Matrix: (Units=GPa)
#
#
# Indices 1 2 3 4 5 6 
#
# 1 122.1419 52.8157 25.1200 0.0000 0.0000 0.0000
# 2 52.8157 122.1419 25.1200 0.0000 0.0000 0.0000
# 3 25.1200 25.1200 77.1751 0.0000 0.0000 0.0000
# 4 0.0000 0.0000 0.0000 29.1396 0.0000 0.0000
# 5 0.0000 0.0000 0.0000 0.0000 29.1396 0.0000
# 6 0.0000 0.0000 0.0000 0.0000 0.0000 26.2270
#
#
#
# Elastic Compliance Matrix: (Units=1/GPa)
#
#
# Indices 1 2 3 4 5 6 
#
# 1 0.010365 -0.004060 -0.002052 0.000000 0.000000 0.000000
# 2 -0.004060 0.010365 -0.002052 0.000000 0.000000 0.000000
# 3 -0.002052 -0.002052 0.014294 0.000000 0.000000 0.000000
# 4 0.000000 0.000000 0.000000 0.034318 0.000000 0.000000
# 5 0.000000 0.000000 0.000000 0.000000 0.034318 0.000000
# 6 0.000000 0.000000 0.000000 0.000000 0.000000 0.038129
#
#
# Mechanical properties :
#
#
# Convention : Reuss Voigt Hill
#
# Bulk Modulus (GPa) = 53.49148 58.61891 56.05519
# Shear Modulus (GPa) = 30.42344 31.46144 30.94244
#
# Velocity S-wave (km/s) = 3.91972 3.98602 3.95301
# Velocity P-wave (km/s) = 6.89198 7.12655 7.01025
#
# Compressibility (1/GPa) = 0.01869457
#
# Stress axis : x y z
#
# Youngs Moduli (GPa) = 96.48074 96.48074 69.96178
#
# Poissons Ratio (x) = 0.39169 0.14358
# Poissons Ratio (y) = 0.39169 0.14358
# Poissons Ratio (z) = 0.19800 0.19800
#
# Static dielectric constant tensor:
#      x y z
#    x 3.668970 0.000000 0.000000 
#    y 0.000000 3.668970 0.000000 
#    z 0.000000 0.000000 3.701950 
# 
# 
# High freq. dielectric constant tensor:
#      x y z
#    x 1.767130 0.000000 0.000000 
#    y 0.000000 1.767130 0.000000 
#    z 0.000000 0.000000 1.785270 
# 
# From -- ./inp_files/4742.got.cif
#   From: 2010.03.12/outbox.cif.g09.slc.cpg/sg134_3_cif.got.tgz:4742.got - 2010.04.06 18:17:22.
