data_PCOD8317918
_publ_section_title
;
Structure prediction by ZEFSAII (Michael W. Deem and Ramdas Pophale) SiO2 
 PCOD8317918
Probable space group: P 42/M N M
;
_chemical_formula_sum "Si O2"
_cell_formula_units_Z 104
_cell_length_a 19.004843
_cell_length_b 19.004843
_cell_length_c 16.035441
_cell_angle_alpha 90.000000
_cell_angle_beta 90.000000
_cell_angle_gamma 90.000000
_cell_volume 5791.745643
_symmetry_space_group_name_H-M "P 42/M N M"
_symmetry_group_IT_number 136
_symmetry_cell_setting 'tetragonal'
loop_
_space_group_symop_operation_xyz
x,y,z
1/2-y,1/2+x,1/2+z
-x,-y,z
1/2+y,1/2-x,1/2+z
1/2+x,1/2-y,1/2-z
1/2-x,1/2+y,1/2-z
y,x,-z
-y,-x,-z
-x,-y,-z
1/2+y,1/2-x,1/2-z
x,y,-z
1/2-y,1/2+x,1/2-z
1/2-x,1/2+y,1/2+z
1/2+x,1/2-y,1/2+z
-y,-x,z
y,x,z
loop_
_atom_site_type_symbol
_atom_site_label
_atom_site_fract_x
_atom_site_fract_y
_atom_site_fract_z
Si Si1 0.941154 0.941154 0.405022
Si Si2 0.015506 0.383358 0.500000
Si Si3 0.469560 0.177062 0.831863
Si Si4 0.002741 0.890374 0.147012
Si Si5 0.045077 0.841461 0.321055
Si Si6 0.154473 0.565157 0.672199
Si Si7 0.889359 0.492482 0.500000
Si Si8 0.215129 0.101694 0.909585
O O1 0.922970 0.922970 0.500000
O O2 0.972908 0.870150 0.363613
O O3 0.000000 0.000000 0.395733
O O4 0.011730 0.335847 0.582636
O O5 0.954060 0.439843 0.500000
O O6 0.088421 0.425823 0.500000
O O7 0.445007 0.258168 0.836372
O O8 0.403083 0.125896 0.824211
O O9 0.517986 0.154156 0.754453
O O10 0.943054 0.943054 0.183220
O O11 0.967850 0.834020 0.085753
O O12 0.038380 0.849521 0.222654
O O13 0.063202 0.936799 0.100480
O O14 0.113919 0.886082 0.352865
O O15 0.151785 0.518903 0.587042
O O16 0.230525 0.601638 0.666555
O O17 0.170093 0.170093 0.892223
O O18 0.252991 0.106984 0.000000
#
# Coordination Sequence:
#
# PCOD8317918 Si02
#       8
#     8   8  16  16  16  16   8  16
#     4   9  18  32  52  78 107 141 181 223 266 317
#     4   9  20  36  53  80 106 134 176 236 284 322
#     4  11  23  36  57  82 112 144 189 232 282 335
#     4   9  16  30  53  78 105 137 176 222 268 317
#     4  10  19  33  53  79 110 145 182 224 274 327
#     4  11  21  37  57  82 108 147 187 231 283 337
#     4   9  18  36  59  75 102 136 179 234 281 323
#     4  10  20  34  54  82 114 146 180 222 282 347
#
# _framework density 17.956589999999998
#
# number of rings (size 3 to 8) (size 9 to 14) (size 15 to 20)
#    0.000    2.077    3.077    0.923    1.077    2.462 
#    0.000    1.538    0.000    0.000    0.000    0.000 
#    2.308    0.000    0.000    0.000    0.000    0.000 
#
# Total GULP energy -1288641.105602 kJ/mol
# GULP energy per Si atom -12390.779862 kJ/mol
# Density = 1.791572 g / cm^3
# Si number density = 17.956590 Si / 1000 Ang^3
#
#
#
# Elastic Constant Matrix: (Units=GPa)
#
#
# Indices 1 2 3 4 5 6 
#
# 1 100.1801 48.1548 44.5885 0.0000 0.0000 0.0000
# 2 48.1548 100.1801 44.5885 0.0000 0.0000 0.0000
# 3 44.5885 44.5885 107.0215 0.0000 0.0000 0.0000
# 4 0.0000 0.0000 0.0000 21.0318 0.0000 0.0000
# 5 0.0000 0.0000 0.0000 0.0000 21.0318 0.0000
# 6 0.0000 0.0000 0.0000 0.0000 0.0000 19.2874
#
#
#
# Elastic Compliance Matrix: (Units=1/GPa)
#
#
# Indices 1 2 3 4 5 6 
#
# 1 0.014108 -0.005114 -0.003747 0.000000 0.000000 0.000000
# 2 -0.005114 0.014108 -0.003747 0.000000 0.000000 0.000000
# 3 -0.003747 -0.003747 0.012466 0.000000 0.000000 0.000000
# 4 0.000000 0.000000 0.000000 0.047547 0.000000 0.000000
# 5 0.000000 0.000000 0.000000 0.000000 0.047547 0.000000
# 6 0.000000 0.000000 0.000000 0.000000 0.000000 0.051847
#
#
# Mechanical properties :
#
#
# Convention : Reuss Voigt Hill
#
# Bulk Modulus (GPa) = 64.65876 64.67171 64.66523
# Shear Modulus (GPa) = 22.93627 23.60685 23.27156
#
# Velocity S-wave (km/s) = 3.57784 3.62976 3.60389
# Velocity P-wave (km/s) = 7.29071 7.32534 7.30805
#
# Compressibility (1/GPa) = 0.01546581
#
# Stress axis : x y z
#
# Youngs Moduli (GPa) = 70.88232 70.88232 80.21547
#
# Poissons Ratio (x) = 0.36246 0.30059
# Poissons Ratio (y) = 0.36246 0.30059
# Poissons Ratio (z) = 0.26562 0.26562
#
# Static dielectric constant tensor:
#      x y z
#    x 3.288320 0.000000 0.000000 
#    y 0.000000 3.288320 0.000000 
#    z 0.000000 0.000000 3.347920 
# 
# 
# High freq. dielectric constant tensor:
#      x y z
#    x 1.683750 0.000000 0.000000 
#    y 0.000000 1.683750 0.000000 
#    z 0.000000 0.000000 1.698400 
# 
# From -- ./inp_files/6465.got.cif
#   From: 2010.03.12/outbox.cif.g09.slc.cpg/sg136_4_cif.got.tgz:6465.got - 2010.04.06 18:39:43.
