data_PCOD8317771
_publ_section_title
;
Structure prediction by ZEFSAII (Michael W. Deem and Ramdas Pophale) SiO2 
 PCOD8317771
Probable space group: P 42/M N M
;
_chemical_formula_sum "Si O2"
_cell_formula_units_Z 88
_cell_length_a 16.266233
_cell_length_b 16.266233
_cell_length_c 19.140954
_cell_angle_alpha 90.000000
_cell_angle_beta 90.000000
_cell_angle_gamma 90.000000
_cell_volume 5064.511450
_symmetry_space_group_name_H-M "P 42/M N M"
_symmetry_group_IT_number 136
_symmetry_cell_setting 'tetragonal'
loop_
_space_group_symop_operation_xyz
x,y,z
1/2-y,1/2+x,1/2+z
-x,-y,z
1/2+y,1/2-x,1/2+z
1/2+x,1/2-y,1/2-z
1/2-x,1/2+y,1/2-z
y,x,-z
-y,-x,-z
-x,-y,-z
1/2+y,1/2-x,1/2-z
x,y,-z
1/2-y,1/2+x,1/2-z
1/2-x,1/2+y,1/2+z
1/2+x,1/2-y,1/2+z
-y,-x,z
y,x,z
loop_
_atom_site_type_symbol
_atom_site_label
_atom_site_fract_x
_atom_site_fract_y
_atom_site_fract_z
Si Si1 0.922105 0.786850 0.281055
Si Si2 0.865096 0.997601 0.000000
Si Si3 0.281987 0.411538 0.844081
Si Si4 0.344201 0.212061 0.701161
Si Si5 0.752364 0.992437 0.135358
Si Si6 0.302028 0.170386 0.919486
O O1 0.861309 0.861309 0.293981
O O2 0.875732 0.699958 0.289618
O O3 0.966948 0.799602 0.206396
O O4 0.990576 0.790514 0.341754
O O5 0.813394 0.004507 0.070809
O O6 0.909384 0.909384 0.000000
O O7 0.929159 0.070842 0.000000
O O8 0.372457 0.372457 0.852754
O O9 0.237151 0.376223 0.776366
O O10 0.223001 0.385003 0.908256
O O11 0.280438 0.280438 0.672061
O O12 0.421498 0.204373 0.647935
O O13 0.690563 0.917336 0.118975
O O14 0.223958 0.223958 0.890175
O O15 0.288677 0.151954 0.000000
#
# Coordination Sequence:
#
# PCOD8317771 Si02
#       6
#    16   8  16  16  16  16
#     4  10  19  33  55  76 102 137 174 216 262 309
#     4  11  22  32  46  78 119 148 172 208 259 326
#     4   9  18  32  51  77 103 127 168 220 261 302
#     4   9  18  32  49  72 103 140 175 209 252 305
#     4  11  19  31  52  76 105 139 178 211 250 309
#     4  10  18  31  54  78 101 133 173 212 256 309
#
# _framework density 17.375812
#
# number of rings (size 3 to 8) (size 9 to 14) (size 15 to 20)
#    0.000    2.091    2.727    2.182    0.000    1.091 
#    0.000    0.909    2.000    1.636    0.000    2.545 
#    0.000    0.000    0.000    0.000    0.000    0.000 
#
# Total GULP energy -1090825.235046 kJ/mol
# GULP energy per Si atom -12395.741307 kJ/mol
# Density = 1.733626 g / cm^3
# Si number density = 17.375812 Si / 1000 Ang^3
#
#
#
# Elastic Constant Matrix: (Units=GPa)
#
#
# Indices 1 2 3 4 5 6 
#
# 1 104.5513 37.7413 24.9433 0.0000 0.0000 0.0000
# 2 37.7413 104.5520 24.9435 0.0000 0.0000 0.0000
# 3 24.9433 24.9435 45.2795 0.0000 0.0000 0.0000
# 4 0.0000 0.0000 0.0000 25.2213 0.0000 0.0000
# 5 0.0000 0.0000 0.0000 0.0000 25.2216 0.0000
# 6 0.0000 0.0000 0.0000 0.0000 0.0000 16.6822
#
#
#
# Elastic Compliance Matrix: (Units=1/GPa)
#
#
# Indices 1 2 3 4 5 6 
#
# 1 0.011839 -0.003129 -0.004798 0.000000 0.000000 0.000000
# 2 -0.003129 0.011839 -0.004798 0.000000 0.000000 0.000000
# 3 -0.004798 -0.004798 0.027371 0.000000 0.000000 0.000000
# 4 0.000000 0.000000 0.000000 0.039649 0.000000 0.000000
# 5 0.000000 0.000000 0.000000 0.000000 0.039648 0.000000
# 6 0.000000 0.000000 0.000000 0.000000 0.000000 0.059944
#
#
# Mechanical properties :
#
#
# Convention : Reuss Voigt Hill
#
# Bulk Modulus (GPa) = 39.06427 47.73767 43.40097
# Shear Modulus (GPa) = 22.29417 24.54201 23.41809
#
# Velocity S-wave (km/s) = 3.58587 3.76230 3.67514
# Velocity P-wave (km/s) = 6.29884 6.81223 6.56056
#
# Compressibility (1/GPa) = 0.02559884
#
# Stress axis : x y z
#
# Youngs Moduli (GPa) = 84.46756 84.46802 36.53457
#
# Poissons Ratio (x) = 0.26429 0.17530
# Poissons Ratio (y) = 0.26429 0.17530
# Poissons Ratio (z) = 0.40528 0.40529
#
# Static dielectric constant tensor:
#      x y z
#    x 3.328290 0.000000 0.000000 
#    y 0.000000 3.328290 0.000000 
#    z 0.000000 0.000000 3.189150 
# 
# 
# High freq. dielectric constant tensor:
#      x y z
#    x 1.662590 0.000000 0.000000 
#    y 0.000000 1.662590 0.000000 
#    z 0.000000 0.000000 1.656040 
# 
# From -- ./inp_files/7361.got.cif
#   From: 2010.03.12/outbox.cif.g09.slc.cpg/sg136_4_cif.got.tgz:7361.got - 2010.04.06 18:39:43.
