data_PCOD8317678
_publ_section_title
;
Structure prediction by ZEFSAII (Michael W. Deem and Ramdas Pophale) SiO2 
 PCOD8317678
Probable space group: P 42/M N M
;
_chemical_formula_sum "Si O2"
_cell_formula_units_Z 112
_cell_length_a 20.809999
_cell_length_b 20.809999
_cell_length_c 17.425770
_cell_angle_alpha 90.000000
_cell_angle_beta 90.000000
_cell_angle_gamma 90.000000
_cell_volume 7546.335270
_symmetry_space_group_name_H-M "P 42/M N M"
_symmetry_group_IT_number 136
_symmetry_cell_setting 'tetragonal'
loop_
_space_group_symop_operation_xyz
x,y,z
1/2-y,1/2+x,1/2+z
-x,-y,z
1/2+y,1/2-x,1/2+z
1/2+x,1/2-y,1/2-z
1/2-x,1/2+y,1/2-z
y,x,-z
-y,-x,-z
-x,-y,-z
1/2+y,1/2-x,1/2-z
x,y,-z
1/2-y,1/2+x,1/2-z
1/2-x,1/2+y,1/2+z
1/2+x,1/2-y,1/2+z
-y,-x,z
y,x,z
loop_
_atom_site_type_symbol
_atom_site_label
_atom_site_fract_x
_atom_site_fract_y
_atom_site_fract_z
Si Si1 0.446326 0.446326 0.130400
Si Si2 0.777605 0.883711 0.912789
Si Si3 0.886769 0.222023 0.725906
Si Si4 0.552646 0.552646 0.696296
Si Si5 0.284052 0.177240 0.224140
Si Si6 0.003294 0.180661 0.180512
Si Si7 0.801264 0.906457 0.680572
Si Si8 0.192526 0.973668 0.413726
O O1 0.500000 0.500000 0.129068
O O2 0.425833 0.425833 0.217351
O O3 0.384587 0.473723 0.087132
O O4 0.843849 0.843849 0.900459
O O5 0.721022 0.855145 0.859936
O O6 0.787711 0.958482 0.890042
O O7 0.753854 0.880119 0.000000
O O8 0.835661 0.164340 0.738303
O O9 0.854180 0.292195 0.735274
O O10 0.942639 0.222269 0.790208
O O11 0.917214 0.219030 0.640831
O O12 0.500000 0.500000 0.705463
O O13 0.612980 0.524327 0.650598
O O14 0.233626 0.233626 0.229425
O O15 0.265589 0.125619 0.290207
O O16 0.052689 0.167351 0.250189
O O17 0.852739 0.852739 0.654255
O O18 0.784113 0.955081 0.611762
O O19 0.217394 0.960815 0.500000
#
# Coordination Sequence:
#
# PCOD8317678 Si02
#       8
#     8  16  16   8  16  16  16  16
#     4  11  19  26  35  55  88 128 159 169 188 234
#     4   9  17  29  43  62  84 110 142 178 217 251
#     4  10  17  29  42  61  84 113 147 176 212 252
#     4  11  16  23  39  57  79 119 155 177 199 227
#     4   8  16  28  46  60  76 105 147 188 213 245
#     4  10  16  26  41  59  83 111 143 181 209 243
#     4   9  16  28  41  57  77 111 154 183 206 232
#     4  11  20  27  37  59  92 119 141 172 207 248
#
# _framework density 14.841640999999999
#
# number of rings (size 3 to 8) (size 9 to 14) (size 15 to 20)
#    0.000    2.286    4.286    2.786    0.000    2.000 
#    0.000    1.786    0.000    2.143    0.000    2.000 
#    0.000   46.286    0.000   23.143    0.000    0.000 
#
# Total GULP energy -1388205.532679 kJ/mol
# GULP energy per Si atom -12394.692256 kJ/mol
# Density = 1.480786 g / cm^3
# Si number density = 14.841641 Si / 1000 Ang^3
#
#
#
# Elastic Constant Matrix: (Units=GPa)
#
#
# Indices 1 2 3 4 5 6 
#
# 1 63.5564 43.0834 21.6509 0.0000 0.0000 0.0000
# 2 43.0834 63.5564 21.6509 0.0000 0.0000 0.0000
# 3 21.6509 21.6509 45.6902 0.0000 0.0000 0.0000
# 4 0.0000 0.0000 0.0000 12.1434 0.0000 0.0000
# 5 0.0000 0.0000 0.0000 0.0000 12.1434 0.0000
# 6 0.0000 0.0000 0.0000 0.0000 0.0000 28.9908
#
#
#
# Elastic Compliance Matrix: (Units=1/GPa)
#
#
# Indices 1 2 3 4 5 6 
#
# 1 0.030228 -0.018617 -0.005502 0.000000 0.000000 0.000000
# 2 -0.018617 0.030228 -0.005502 0.000000 0.000000 0.000000
# 3 -0.005502 -0.005502 0.027101 0.000000 0.000000 0.000000
# 4 0.000000 0.000000 0.000000 0.082349 0.000000 0.000000
# 5 0.000000 0.000000 0.000000 0.000000 0.082349 0.000000
# 6 0.000000 0.000000 0.000000 0.000000 0.000000 0.034494
#
#
# Mechanical properties :
#
#
# Convention : Reuss Voigt Hill
#
# Bulk Modulus (GPa) = 35.31672 38.39704 36.85688
# Shear Modulus (GPa) = 14.06745 16.41671 15.24208
#
# Velocity S-wave (km/s) = 3.08204 3.32945 3.20813
# Velocity P-wave (km/s) = 6.04257 6.38026 6.21371
#
# Compressibility (1/GPa) = 0.02831520
#
# Stress axis : x y z
#
# Youngs Moduli (GPa) = 33.08163 33.08163 36.89867
#
# Poissons Ratio (x) = 0.61587 0.20303
# Poissons Ratio (y) = 0.61587 0.20303
# Poissons Ratio (z) = 0.18203 0.18203
#
# Static dielectric constant tensor:
#      x y z
#    x 2.903740 0.000000 0.000000 
#    y 0.000000 2.903740 0.000000 
#    z 0.000000 0.000000 2.768560 
# 
# 
# High freq. dielectric constant tensor:
#      x y z
#    x 1.546960 0.000000 0.000000 
#    y 0.000000 1.546960 0.000000 
#    z 0.000000 0.000000 1.545910 
# 
# From -- ./inp_files/6612.got.cif
#   From: 2010.03.12/outbox.cif.g09.slc.cpg/sg136_4_cif.got.tgz:6612.got - 2010.04.06 18:39:43.
