data_PCOD8317514
_publ_section_title
;
Structure prediction by ZEFSAII (Michael W. Deem and Ramdas Pophale) SiO2 
 PCOD8317514
Probable space group: P 42/M B C
;
_chemical_formula_sum "Si O2"
_cell_formula_units_Z 96
_cell_length_a 15.743647
_cell_length_b 15.743647
_cell_length_c 17.459535
_cell_angle_alpha 90.000000
_cell_angle_beta 90.000000
_cell_angle_gamma 90.000000
_cell_volume 4327.562612
_symmetry_space_group_name_H-M "P 42/M B C"
_symmetry_group_IT_number 135
_symmetry_cell_setting 'tetragonal'
loop_
_space_group_symop_operation_xyz
x,y,z
-y,x,1/2+z
-x,-y,z
y,-x,1/2+z
1/2+x,1/2-y,-z
1/2-x,1/2+y,-z
1/2+y,1/2+x,1/2-z
1/2-y,1/2-x,1/2-z
-x,-y,-z
y,-x,1/2-z
x,y,-z
-y,x,1/2-z
1/2-x,1/2+y,z
1/2+x,1/2-y,z
1/2-y,1/2-x,1/2+z
1/2+y,1/2+x,1/2+z
loop_
_atom_site_type_symbol
_atom_site_label
_atom_site_fract_x
_atom_site_fract_y
_atom_site_fract_z
Si Si1 0.566732 0.118012 0.089004
Si Si2 0.087279 0.243918 0.591866
Si Si3 0.101820 0.618927 0.837521
Si Si4 0.086643 0.794205 0.648749
Si Si5 0.604766 0.687397 0.827228
Si Si6 0.444891 0.687632 0.912649
O O1 0.656872 0.078963 0.119124
O O2 0.479967 0.074432 0.122019
O O3 0.571855 0.216057 0.112694
O O4 0.561839 0.103233 0.000000
O O5 0.097294 0.238124 0.500000
O O6 0.163616 0.194948 0.634463
O O7 0.009746 0.188406 0.624610
O O8 0.093848 0.593848 0.750000
O O9 0.194582 0.597871 0.871024
O O10 0.089907 0.717189 0.852260
O O11 0.107686 0.820802 0.735712
O O12 0.143015 0.853891 0.595684
O O13 0.519754 0.642424 0.862040
O O14 0.475141 0.681866 0.000000
#
# Coordination Sequence:
#
# PCOD8317514 Si02
#       6
#    16  16  16  16  16  16
#     4   9  20  38  62  89 120 159 203 247 301 363
#     4  11  23  39  60  90 123 159 201 253 312 371
#     4   9  20  39  61  88 121 160 203 247 301 363
#     4  11  22  37  58  89 124 158 198 248 307 370
#     4  10  21  40  61  84 117 158 205 254 303 359
#     4  10  20  37  60  86 114 154 204 252 299 356
#
# _framework density 22.183388000000001
#
# number of rings (size 3 to 8) (size 9 to 14) (size 15 to 20)
#    0.000    2.000    0.000    3.000    0.000    3.333 
#    0.000   20.000    0.000    0.000    0.000    0.000 
#    0.000    0.000    0.000    0.000    0.000    0.000 
#
# Total GULP energy -1189545.403156 kJ/mol
# GULP energy per Si atom -12391.097950 kJ/mol
# Density = 2.213290 g / cm^3
# Si number density = 22.183388 Si / 1000 Ang^3
#
#
#
# Elastic Constant Matrix: (Units=GPa)
#
#
# Indices 1 2 3 4 5 6 
#
# 1 -7515.3226 7626.6298 33.7556 0.0000 0.0000 0.0000
# 2 7626.6298-7515.3226 33.7556 0.0000 0.0000 0.0000
# 3 33.7556 33.7556 57.0566 0.0000 0.0000 0.0000
# 4 0.0000 0.0000 0.0000 35.4329 0.0000 0.0000
# 5 0.0000 0.0000 0.0000 0.0000 35.4329 0.0000
# 6 0.0000 0.0000 0.0000 0.0000 0.0000 -4.4414
#
#
#
# Elastic Compliance Matrix: (Units=1/GPa)
#
#
# Indices 1 2 3 4 5 6 
#
# 1 0.006973 0.007039 -0.008290 0.000000 0.000000 0.000000
# 2 0.007039 0.006973 -0.008290 0.000000 0.000000 0.000000
# 3 -0.008290 -0.008290 0.027335 0.000000 0.000000 0.000000
# 4 0.000000 0.000000 0.000000 0.028222 0.000000 0.000000
# 5 0.000000 0.000000 0.000000 0.000000 0.028222 0.000000
# 6 0.000000 0.000000 0.000000 0.000000 0.000000 -0.225152
#
#
# Mechanical properties :
#
#
# Convention : Reuss Voigt Hill
#
# Bulk Modulus (GPa) = 45.04448 46.07706 45.56077
# Shear Modulus (GPa) = -49.53188 -1497.89709 -773.71449
#
# Velocity S-wave (km/s) = -4.73042 -26.01345 -18.69594
# Velocity P-wave (km/s) = 3.07997 29.68922 21.10612
#
# Compressibility (1/GPa) = 0.02220028
#
# Stress axis : x y z
#
# Youngs Moduli (GPa) = 143.40867 143.40867 36.58277
#
# Poissons Ratio (x) = -1.00947 0.30327
# Poissons Ratio (y) = -1.00947 0.30327
# Poissons Ratio (z) = 1.18884 1.18884
#
# Static dielectric constant tensor:
#      x y z
#    x 4.106980 0.000000 0.000000 
#    y 0.000000 4.106980 0.000000 
#    z 0.000000 0.000000 3.478720 
# 
# 
# High freq. dielectric constant tensor:
#      x y z
#    x 1.879980 0.000000 0.000000 
#    y 0.000000 1.879980 0.000000 
#    z 0.000000 0.000000 1.863610 
# 
# From -- ./inp_files/5484.got.cif
#   From: 2010.03.12/outbox.cif.g09.slc.cpg/sg135_3_cif.got.tgz:5484.got - 2010.04.06 18:31:24.
