data_PCOD8317956
_publ_section_title
;
Structure prediction by ZEFSAII (Michael W. Deem and Ramdas Pophale) SiO2 
 PCOD8317956
Probable space group: P 42/M N M
;
_chemical_formula_sum "Si O2"
_cell_formula_units_Z 120
_cell_length_a 26.097863
_cell_length_b 26.097863
_cell_length_c 9.296570
_cell_angle_alpha 90.000000
_cell_angle_beta 90.000000
_cell_angle_gamma 90.000000
_cell_volume 6331.879447
_symmetry_space_group_name_H-M "P 42/M N M"
_symmetry_group_IT_number 136
_symmetry_cell_setting 'tetragonal'
loop_
_space_group_symop_operation_xyz
x,y,z
1/2-y,1/2+x,1/2+z
-x,-y,z
1/2+y,1/2-x,1/2+z
1/2+x,1/2-y,1/2-z
1/2-x,1/2+y,1/2-z
y,x,-z
-y,-x,-z
-x,-y,-z
1/2+y,1/2-x,1/2-z
x,y,-z
1/2-y,1/2+x,1/2-z
1/2-x,1/2+y,1/2+z
1/2+x,1/2-y,1/2+z
-y,-x,z
y,x,z
loop_
_atom_site_type_symbol
_atom_site_label
_atom_site_fract_x
_atom_site_fract_y
_atom_site_fract_z
Si Si1 0.040937 0.040937 0.670303
Si Si2 0.697018 0.839980 0.338115
Si Si3 0.895857 0.589702 0.339461
Si Si4 0.002614 0.151398 0.670877
Si Si5 0.817696 0.096542 0.838286
Si Si6 0.664492 0.748456 0.840827
Si Si7 0.353947 0.004150 0.330034
Si Si8 0.558374 0.246538 0.170397
O O1 0.038674 0.038674 0.500000
O O2 0.027560 0.098122 0.722935
O O3 0.000000 0.000000 0.734222
O O4 0.712193 0.822724 0.500000
O O5 0.640214 0.861992 0.337886
O O6 0.699288 0.791849 0.232531
O O7 0.736451 0.883184 0.278205
O O8 0.897735 0.566463 0.500000
O O9 0.870274 0.549601 0.233946
O O10 0.953031 0.604068 0.286765
O O11 0.993172 0.152329 0.500000
O O12 0.039902 0.197531 0.720660
O O13 0.948888 0.156665 0.749600
O O14 0.857764 0.142237 0.846843
O O15 0.765922 0.115205 0.757104
O O16 0.802857 0.078874 0.000000
O O17 0.698235 0.698235 0.858319
O O18 0.645965 0.766336 0.000000
O O19 0.351422 0.998338 0.500000
O O20 0.297782 0.020476 0.269450
O O21 0.558661 0.241517 0.000000
#
# Coordination Sequence:
#
# PCOD8317956 Si02
#       8
#     8  16  16  16  16  16  16  16
#     4   9  18  32  53  83 117 147 179 225 279 329
#     4   9  18  35  54  74 104 139 174 217 269 320
#     4   9  19  33  49  71 101 134 170 215 265 314
#     4  10  19  34  57  83 110 144 187 230 271 322
#     4  10  21  36  54  80 113 143 176 219 271 329
#     4  10  21  36  54  79 108 138 174 214 262 319
#     4   9  18  33  50  70 100 136 173 217 267 316
#     4   8  17  34  53  76 106 138 177 224 268 314
#
# _framework density 18.951720000000002
#
# number of rings (size 3 to 8) (size 9 to 14) (size 15 to 20)
#    0.000    2.733    0.000    2.800    1.867    3.467 
#    1.200    4.333    0.000    1.200    0.000    0.000 
#    0.000    0.000    0.000    0.000    0.000    0.000 
#
# Total GULP energy -1487648.386340 kJ/mol
# GULP energy per Si atom -12397.069886 kJ/mol
# Density = 1.890859 g / cm^3
# Si number density = 18.951720 Si / 1000 Ang^3
#
#
#
# Elastic Constant Matrix: (Units=GPa)
#
#
# Indices 1 2 3 4 5 6 
#
# 1 98.3000 42.5020 32.6275 0.0000 0.0000 0.0000
# 2 42.5020 98.3000 32.6275 0.0000 0.0000 0.0000
# 3 32.6275 32.6275 68.4611 0.0000 0.0000 0.0000
# 4 0.0000 0.0000 0.0000 24.2404 0.0000 0.0000
# 5 0.0000 0.0000 0.0000 0.0000 24.2404 0.0000
# 6 0.0000 0.0000 0.0000 0.0000 0.0000 21.6707
#
#
#
# Elastic Compliance Matrix: (Units=1/GPa)
#
#
# Indices 1 2 3 4 5 6 
#
# 1 0.013519 -0.004403 -0.004344 0.000000 0.000000 0.000000
# 2 -0.004403 0.013519 -0.004344 0.000000 0.000000 0.000000
# 3 -0.004344 -0.004344 0.018748 0.000000 0.000000 0.000000
# 4 0.000000 0.000000 0.000000 0.041253 0.000000 0.000000
# 5 0.000000 0.000000 0.000000 0.000000 0.041253 0.000000
# 6 0.000000 0.000000 0.000000 0.000000 0.000000 0.046145
#
#
# Mechanical properties :
#
#
# Convention : Reuss Voigt Hill
#
# Bulk Modulus (GPa) = 51.01649 53.39722 52.20686
# Shear Modulus (GPa) = 24.13656 24.51724 24.32690
#
# Velocity S-wave (km/s) = 3.57260 3.60066 3.58666
# Velocity P-wave (km/s) = 6.63292 6.74707 6.69024
#
# Compressibility (1/GPa) = 0.01960151
#
# Stress axis : x y z
#
# Youngs Moduli (GPa) = 73.97175 73.97175 53.33981
#
# Poissons Ratio (x) = 0.32571 0.23173
# Poissons Ratio (y) = 0.32571 0.23173
# Poissons Ratio (z) = 0.32136 0.32136
#
# Static dielectric constant tensor:
#      x y z
#    x 3.574370 0.000000 0.000000 
#    y 0.000000 3.574370 0.000000 
#    z 0.000000 0.000000 3.404820 
# 
# 
# High freq. dielectric constant tensor:
#      x y z
#    x 1.734130 0.000000 0.000000 
#    y 0.000000 1.734130 0.000000 
#    z 0.000000 0.000000 1.712500 
# 
# From -- ./inp_files/2351.got.cif
#   From: 2010.03.12/outbox.cif.g09.slc.cpg/sg136_2_cif.got.tgz:2351.got - 2010.04.06 18:39:43.
