data_PCOD8317728
_publ_section_title
;
Structure prediction by ZEFSAII (Michael W. Deem and Ramdas Pophale) SiO2 
 PCOD8317728
Probable space group: P 42/M N M
;
_chemical_formula_sum "Si O2"
_cell_formula_units_Z 128
_cell_length_a 23.852854
_cell_length_b 23.852854
_cell_length_c 13.206425
_cell_angle_alpha 90.000000
_cell_angle_beta 90.000000
_cell_angle_gamma 90.000000
_cell_volume 7513.909659
_symmetry_space_group_name_H-M "P 42/M N M"
_symmetry_group_IT_number 136
_symmetry_cell_setting 'tetragonal'
loop_
_space_group_symop_operation_xyz
x,y,z
1/2-y,1/2+x,1/2+z
-x,-y,z
1/2+y,1/2-x,1/2+z
1/2+x,1/2-y,1/2-z
1/2-x,1/2+y,1/2-z
y,x,-z
-y,-x,-z
-x,-y,-z
1/2+y,1/2-x,1/2-z
x,y,-z
1/2-y,1/2+x,1/2-z
1/2-x,1/2+y,1/2+z
1/2+x,1/2-y,1/2+z
-y,-x,z
y,x,z
loop_
_atom_site_type_symbol
_atom_site_label
_atom_site_fract_x
_atom_site_fract_y
_atom_site_fract_z
Si Si1 0.399991 0.309295 0.614452
Si Si2 0.582533 0.328454 0.885258
Si Si3 0.147288 0.470181 0.254571
Si Si4 0.603977 0.231026 0.388023
Si Si5 0.753799 0.332160 0.802829
Si Si6 0.315983 0.870002 0.886751
Si Si7 0.496875 0.730082 0.734687
Si Si8 0.105375 0.572627 0.382864
O O1 0.421237 0.321221 0.500000
O O2 0.358368 0.358368 0.651310
O O3 0.367056 0.250919 0.616716
O O4 0.451104 0.305133 0.692239
O O5 0.613288 0.386712 0.851618
O O6 0.627618 0.278559 0.880067
O O7 0.530357 0.312868 0.814395
O O8 0.560771 0.333725 0.000000
O O9 0.157691 0.426122 0.343630
O O10 0.209435 0.488210 0.213807
O O11 0.111549 0.519545 0.307492
O O12 0.112415 0.443971 0.161207
O O13 0.618845 0.252136 0.500000
O O14 0.649053 0.257671 0.312324
O O15 0.542768 0.254595 0.359708
O O16 0.606019 0.163697 0.382960
O O17 0.731227 0.268774 0.816193
O O18 0.818959 0.339057 0.821855
O O19 0.338454 0.864093 0.000000
O O20 0.090429 0.555760 0.500000
#
# Coordination Sequence:
#
# PCOD8317728 Si02
#       8
#    16  16  16  16  16  16  16  16
#     4   9  17  29  48  75 103 131 163 199 244 296
#     4   9  18  32  50  74 101 128 161 205 254 298
#     4  10  20  35  51  73  99 129 175 210 246 297
#     4   9  17  31  49  68  95 131 168 201 242 294
#     4  10  18  28  45  74 104 128 160 203 252 304
#     4  10  18  30  48  72 101 133 166 202 246 296
#     4   9  18  31  52  75  98 130 165 204 246 298
#     4  10  20  36  54  69  93 130 168 214 255 287
#
# _framework density 17.035074000000002
#
# number of rings (size 3 to 8) (size 9 to 14) (size 15 to 20)
#    0.000    2.500    1.250    1.500    0.000    5.250 
#    0.000    1.875    0.000    1.875    0.000    1.750 
#    0.000    0.000    0.000    0.000    0.000    0.000 
#
# Total GULP energy -1586474.723924 kJ/mol
# GULP energy per Si atom -12394.333781 kJ/mol
# Density = 1.699630 g / cm^3
# Si number density = 17.035074 Si / 1000 Ang^3
#
#
#
# Elastic Constant Matrix: (Units=GPa)
#
#
# Indices 1 2 3 4 5 6 
#
# 1 67.9715 35.6540 34.4044 0.0000 0.0000 0.0000
# 2 35.6540 67.9715 34.4044 0.0000 0.0000 0.0000
# 3 34.4044 34.4044 91.6722 0.0000 0.0000 0.0000
# 4 0.0000 0.0000 0.0000 19.5733 0.0000 0.0000
# 5 0.0000 0.0000 0.0000 0.0000 19.5733 0.0000
# 6 0.0000 0.0000 0.0000 0.0000 0.0000 26.3596
#
#
#
# Elastic Compliance Matrix: (Units=1/GPa)
#
#
# Indices 1 2 3 4 5 6 
#
# 1 0.021898 -0.009045 -0.004824 0.000000 0.000000 0.000000
# 2 -0.009045 0.021898 -0.004824 0.000000 0.000000 0.000000
# 3 -0.004824 -0.004824 0.014529 0.000000 0.000000 0.000000
# 4 0.000000 0.000000 0.000000 0.051090 0.000000 0.000000
# 5 0.000000 0.000000 0.000000 0.000000 0.051090 0.000000
# 6 0.000000 0.000000 0.000000 0.000000 0.000000 0.037937
#
#
# Mechanical properties :
#
#
# Convention : Reuss Voigt Hill
#
# Bulk Modulus (GPa) = 47.75456 48.50454 48.12955
# Shear Modulus (GPa) = 20.59247 21.31141 20.95194
#
# Velocity S-wave (km/s) = 3.48059 3.54083 3.51084
# Velocity P-wave (km/s) = 6.65181 6.72694 6.68948
#
# Compressibility (1/GPa) = 0.02094041
#
# Stress axis : x y z
#
# Youngs Moduli (GPa) = 45.66604 45.66604 68.82713
#
# Poissons Ratio (x) = 0.41305 0.33201
# Poissons Ratio (y) = 0.41305 0.33201
# Poissons Ratio (z) = 0.22028 0.22028
#
# Static dielectric constant tensor:
#      x y z
#    x 3.069400 0.000000 0.000000 
#    y 0.000000 3.069400 0.000000 
#    z 0.000000 0.000000 3.143020 
# 
# 
# High freq. dielectric constant tensor:
#      x y z
#    x 1.643880 0.000000 0.000000 
#    y 0.000000 1.643880 0.000000 
#    z 0.000000 0.000000 1.654170 
# 
# From -- ./inp_files/4090.got.cif
#   From: 2010.03.12/outbox.cif.g09.slc.cpg/sg136_3_cif.got.tgz:4090.got - 2010.04.06 18:39:43.
