data_PCOD8317768
_publ_section_title
;
Structure prediction by ZEFSAII (Michael W. Deem and Ramdas Pophale) SiO2 
 PCOD8317768
Probable space group: P 42/M N M
;
_chemical_formula_sum "Si O2"
_cell_formula_units_Z 128
_cell_length_a 23.258204
_cell_length_b 23.258204
_cell_length_c 13.227018
_cell_angle_alpha 90.000000
_cell_angle_beta 90.000000
_cell_angle_gamma 90.000000
_cell_volume 7155.076730
_symmetry_space_group_name_H-M "P 42/M N M"
_symmetry_group_IT_number 136
_symmetry_cell_setting 'tetragonal'
loop_
_space_group_symop_operation_xyz
x,y,z
1/2-y,1/2+x,1/2+z
-x,-y,z
1/2+y,1/2-x,1/2+z
1/2+x,1/2-y,1/2-z
1/2-x,1/2+y,1/2-z
y,x,-z
-y,-x,-z
-x,-y,-z
1/2+y,1/2-x,1/2-z
x,y,-z
1/2-y,1/2+x,1/2-z
1/2-x,1/2+y,1/2+z
1/2+x,1/2-y,1/2+z
-y,-x,z
y,x,z
loop_
_atom_site_type_symbol
_atom_site_label
_atom_site_fract_x
_atom_site_fract_y
_atom_site_fract_z
Si Si1 0.216457 0.309882 0.115577
Si Si2 0.281614 0.889574 0.794114
Si Si3 0.666200 0.575496 0.617463
Si Si4 0.858999 0.769773 0.248793
Si Si5 0.039348 0.414733 0.751151
Si Si6 0.195906 0.048697 0.112476
Si Si7 0.179660 0.502650 0.387632
Si Si8 0.331066 0.114082 0.382370
O O1 0.277833 0.277833 0.124019
O O2 0.217726 0.369781 0.177357
O O3 0.166589 0.270045 0.160411
O O4 0.201341 0.324463 0.000000
O O5 0.215827 0.887978 0.829163
O O6 0.309544 0.952267 0.806278
O O7 0.319044 0.846161 0.862702
O O8 0.682303 0.575788 0.500000
O O9 0.604829 0.604829 0.640187
O O10 0.664855 0.509319 0.653184
O O11 0.808162 0.808162 0.299819
O O12 0.901724 0.815364 0.194071
O O13 0.894076 0.731678 0.330588
O O14 0.071961 0.473471 0.780347
O O15 0.071975 0.380275 0.662196
O O16 0.039910 0.374700 0.850885
O O17 0.264690 0.042125 0.107907
O O18 0.172796 0.064639 0.000000
O O19 0.166672 0.477379 0.500000
O O20 0.325377 0.100403 0.500000
#
# Coordination Sequence:
#
# PCOD8317768 Si02
#       8
#    16  16  16  16  16  16  16  16
#     4   9  18  31  47  72 105 135 168 217 273 326
#     4  10  18  31  52  74  99 137 181 220 270 320
#     4   9  17  29  49  78 106 136 177 220 262 320
#     4  10  20  34  54  77 102 133 175 221 266 331
#     4  11  23  37  54  77 105 143 189 233 270 319
#     4   9  17  30  52  76 103 138 172 210 263 324
#     4  10  19  34  54  73  99 138 180 225 268 314
#     4  11  22  37  55  75 106 142 177 228 284 325
#
# _framework density 17.889396000000001
#
# number of rings (size 3 to 8) (size 9 to 14) (size 15 to 20)
#    0.000    2.125    2.500    2.625    0.000    2.000 
#    0.000    1.875    0.000    0.375    0.000    1.750 
#    0.000    0.000    0.000    1.125    0.000    0.000 
#
# Total GULP energy -1586554.109725 kJ/mol
# GULP energy per Si atom -12394.953982 kJ/mol
# Density = 1.784868 g / cm^3
# Si number density = 17.889396 Si / 1000 Ang^3
#
#
#
# Elastic Constant Matrix: (Units=GPa)
#
#
# Indices 1 2 3 4 5 6 
#
# 1 70.1770 25.3749 38.1101 0.0000 0.0000 0.0000
# 2 25.3749 70.1770 38.1101 0.0000 0.0000 0.0000
# 3 38.1101 38.1101 110.4741 0.0000 0.0000 0.0000
# 4 0.0000 0.0000 0.0000 21.1658 0.0000 0.0000
# 5 0.0000 0.0000 0.0000 0.0000 21.1658 0.0000
# 6 0.0000 0.0000 0.0000 0.0000 0.0000 22.8909
#
#
#
# Elastic Compliance Matrix: (Units=1/GPa)
#
#
# Indices 1 2 3 4 5 6 
#
# 1 0.018380 -0.003941 -0.004981 0.000000 0.000000 0.000000
# 2 -0.003941 0.018380 -0.004981 0.000000 0.000000 0.000000
# 3 -0.004981 -0.004981 0.012488 0.000000 0.000000 0.000000
# 4 0.000000 0.000000 0.000000 0.047246 0.000000 0.000000
# 5 0.000000 0.000000 0.000000 0.000000 0.047246 0.000000
# 6 0.000000 0.000000 0.000000 0.000000 0.000000 0.043685
#
#
# Mechanical properties :
#
#
# Convention : Reuss Voigt Hill
#
# Bulk Modulus (GPa) = 46.63700 50.44650 48.54175
# Shear Modulus (GPa) = 22.48427 22.99337 22.73882
#
# Velocity S-wave (km/s) = 3.54905 3.58901 3.56909
# Velocity P-wave (km/s) = 6.55138 6.74055 6.64664
#
# Compressibility (1/GPa) = 0.02144220
#
# Stress axis : x y z
#
# Youngs Moduli (GPa) = 54.40835 54.40835 80.07426
#
# Poissons Ratio (x) = 0.21441 0.39884
# Poissons Ratio (y) = 0.21441 0.39884
# Poissons Ratio (z) = 0.27100 0.27100
#
# Static dielectric constant tensor:
#      x y z
#    x 3.313390 0.000000 0.000000 
#    y 0.000000 3.313390 0.000000 
#    z 0.000000 0.000000 3.194550 
# 
# 
# High freq. dielectric constant tensor:
#      x y z
#    x 1.683870 0.000000 0.000000 
#    y 0.000000 1.683870 0.000000 
#    z 0.000000 0.000000 1.668000 
# 
# From -- ./inp_files/4070.got.cif
#   From: 2010.03.12/outbox.cif.g09.slc.cpg/sg136_3_cif.got.tgz:4070.got - 2010.04.06 18:39:43.
