data_PCOD8317549
_publ_section_title
;
Structure prediction by ZEFSAII (Michael W. Deem and Ramdas Pophale) SiO2 
 PCOD8317549
Probable space group: P 42/M B C
;
_chemical_formula_sum "Si O2"
_cell_formula_units_Z 96
_cell_length_a 23.643441
_cell_length_b 23.643441
_cell_length_c 8.687273
_cell_angle_alpha 90.000000
_cell_angle_beta 90.000000
_cell_angle_gamma 90.000000
_cell_volume 4856.292481
_symmetry_space_group_name_H-M "P 42/M B C"
_symmetry_group_IT_number 135
_symmetry_cell_setting 'tetragonal'
loop_
_space_group_symop_operation_xyz
x,y,z
-y,x,1/2+z
-x,-y,z
y,-x,1/2+z
1/2+x,1/2-y,-z
1/2-x,1/2+y,-z
1/2+y,1/2+x,1/2-z
1/2-y,1/2-x,1/2-z
-x,-y,-z
y,-x,1/2-z
x,y,-z
-y,x,1/2-z
1/2-x,1/2+y,z
1/2+x,1/2-y,z
1/2-y,1/2-x,1/2+z
1/2+y,1/2+x,1/2+z
loop_
_atom_site_type_symbol
_atom_site_label
_atom_site_fract_x
_atom_site_fract_y
_atom_site_fract_z
Si Si1 0.144839 0.018554 0.832565
Si Si2 0.898128 0.880477 0.328430
Si Si3 0.826737 0.794617 0.178183
Si Si4 0.309740 0.891034 0.816733
Si Si5 0.513584 0.773204 0.327151
Si Si6 0.220511 0.636839 0.317674
O O1 0.135641 0.061656 0.694835
O O2 0.105328 0.964062 0.808248
O O3 0.208162 0.995489 0.830362
O O4 0.131958 0.046746 0.000000
O O5 0.884249 0.857648 0.500000
O O6 0.879831 0.835903 0.199761
O O7 0.845415 0.736014 0.255008
O O8 0.773044 0.826098 0.254676
O O9 0.813039 0.784290 0.000000
O O10 0.370016 0.870016 0.750000
O O11 0.302938 0.956567 0.759845
O O12 0.308035 0.889535 0.000000
O O13 0.526720 0.795177 0.500000
O O14 0.570517 0.779962 0.227443
O O15 0.163089 0.663089 0.250000
O O16 0.221252 0.641315 0.500000
#
# Coordination Sequence:
#
# PCOD8317549 Si02
#       6
#    16  16  16  16  16  16
#     4  10  21  38  57  80 114 155 199 246 298 349
#     4  11  22  37  57  82 113 154 203 250 296 346
#     4  12  23  37  59  88 123 159 198 244 299 353
#     4  11  23  41  63  91 126 159 198 244 294 352
#     4  10  21  40  63  87 121 158 192 239 296 353
#     4  12  25  41  63  91 123 157 199 243 295 356
#
# _framework density 19.768166999999998
#
# number of rings (size 3 to 8) (size 9 to 14) (size 15 to 20)
#    0.000    1.000    3.333    4.500    0.000    3.000 
#    0.000    1.667    0.000    0.500    0.000    3.500 
#    0.000    0.000    0.000    0.000    0.000    0.000 
#
# Total GULP energy -1189764.957501 kJ/mol
# GULP energy per Si atom -12393.384974 kJ/mol
# Density = 1.972317 g / cm^3
# Si number density = 19.768167 Si / 1000 Ang^3
#
#
#
# Elastic Constant Matrix: (Units=GPa)
#
#
# Indices 1 2 3 4 5 6 
#
# 1 70.3375 58.7600 40.7843 0.0000 0.0000 0.0000
# 2 58.7600 70.3375 40.7843 0.0000 0.0000 0.0000
# 3 40.7843 40.7843 114.3362 0.0000 0.0000 0.0000
# 4 0.0000 0.0000 0.0000 26.5939 0.0000 0.0000
# 5 0.0000 0.0000 0.0000 0.0000 26.5939 0.0000
# 6 0.0000 0.0000 0.0000 0.0000 0.0000 30.1604
#
#
#
# Elastic Compliance Matrix: (Units=1/GPa)
#
#
# Indices 1 2 3 4 5 6 
#
# 1 0.048187 -0.038187 -0.003567 0.000000 0.000000 0.000000
# 2 -0.038187 0.048187 -0.003567 0.000000 0.000000 0.000000
# 3 -0.003567 -0.003567 0.011291 0.000000 0.000000 0.000000
# 4 0.000000 0.000000 0.000000 0.037603 0.000000 0.000000
# 5 0.000000 0.000000 0.000000 0.000000 0.037603 0.000000
# 6 0.000000 0.000000 0.000000 0.000000 0.000000 0.033156
#
#
# Mechanical properties :
#
#
# Convention : Reuss Voigt Hill
#
# Bulk Modulus (GPa) = 58.74549 59.51868 59.13209
# Shear Modulus (GPa) = 16.00801 24.31514 20.16158
#
# Velocity S-wave (km/s) = 2.84876 3.51096 3.19705
# Velocity P-wave (km/s) = 6.37200 6.82712 6.60348
#
# Compressibility (1/GPa) = 0.01702258
#
# Stress axis : x y z
#
# Youngs Moduli (GPa) = 20.75239 20.75239 88.56720
#
# Poissons Ratio (x) = 0.79248 0.31592
# Poissons Ratio (y) = 0.79248 0.31592
# Poissons Ratio (z) = 0.07402 0.07402
#
# Static dielectric constant tensor:
#      x y z
#    x 3.655770 0.000000 0.000000 
#    y 0.000000 3.655770 0.000000 
#    z 0.000000 0.000000 3.667710 
# 
# 
# High freq. dielectric constant tensor:
#      x y z
#    x 1.761960 0.000000 0.000000 
#    y 0.000000 1.761960 0.000000 
#    z 0.000000 0.000000 1.774950 
# 
# From -- ./inp_files/1233.got.cif
#   From: 2010.03.12/outbox.cif.g09.slc.cpg/sg135_1_cif.got.tgz:1233.got - 2010.04.06 18:31:24.
