data_PCOD8317920
_publ_section_title
;
Structure prediction by ZEFSAII (Michael W. Deem and Ramdas Pophale) SiO2 
 PCOD8317920
Probable space group: P 42/M N M
;
_chemical_formula_sum "Si O2"
_cell_formula_units_Z 72
_cell_length_a 21.057734
_cell_length_b 21.057734
_cell_length_c 9.004335
_cell_angle_alpha 90.000000
_cell_angle_beta 90.000000
_cell_angle_gamma 90.000000
_cell_volume 3992.775712
_symmetry_space_group_name_H-M "P 42/M N M"
_symmetry_group_IT_number 136
_symmetry_cell_setting 'tetragonal'
loop_
_space_group_symop_operation_xyz
x,y,z
1/2-y,1/2+x,1/2+z
-x,-y,z
1/2+y,1/2-x,1/2+z
1/2+x,1/2-y,1/2-z
1/2-x,1/2+y,1/2-z
y,x,-z
-y,-x,-z
-x,-y,-z
1/2+y,1/2-x,1/2-z
x,y,-z
1/2-y,1/2+x,1/2-z
1/2-x,1/2+y,1/2+z
1/2+x,1/2-y,1/2+z
-y,-x,z
y,x,z
loop_
_atom_site_type_symbol
_atom_site_label
_atom_site_fract_x
_atom_site_fract_y
_atom_site_fract_z
Si Si1 0.540185 0.817153 0.826120
Si Si2 0.010367 0.809542 0.824906
Si Si3 0.051374 0.948627 0.176452
Si Si4 0.282473 0.616364 0.831978
Si Si5 0.641615 0.900277 0.668595
O O1 0.549248 0.748762 0.747837
O O2 0.593481 0.866597 0.778669
O O3 0.473259 0.849090 0.782842
O O4 0.544025 0.804543 0.000000
O O5 0.035531 0.877613 0.766791
O O6 0.936739 0.805072 0.782433
O O7 0.018306 0.803784 0.000000
O O8 0.048737 0.951264 0.000000
O O9 0.000000 0.000000 0.239628
O O10 0.319778 0.680223 0.796441
O O11 0.209002 0.634584 0.813337
O O12 0.294536 0.591199 0.000000
O O13 0.616064 0.895454 0.500000
#
# Coordination Sequence:
#
# PCOD8317920 Si02
#       5
#    16  16   8  16  16
#     4  10  21  37  55  77 107 137 171 218 267 315
#     4  10  19  33  54  77 105 140 176 218 262 311
#     4   9  18  32  51  79 109 139 179 219 257 306
#     4   9  18  34  54  77 106 139 175 217 262 309
#     4   9  19  35  54  76 103 138 175 212 259 315
#
# _framework density 18.032568000000001
#
# number of rings (size 3 to 8) (size 9 to 14) (size 15 to 20)
#    0.000    2.556    0.000    3.333    0.000    6.222 
#    2.000    4.444    0.000    4.000    0.000    0.000 
#    0.000    0.000    0.000    0.000    0.000    0.000 
#
# Total GULP energy -892737.808154 kJ/mol
# GULP energy per Si atom -12399.136224 kJ/mol
# Density = 1.799153 g / cm^3
# Si number density = 18.032568 Si / 1000 Ang^3
#
#
#
# Elastic Constant Matrix: (Units=GPa)
#
#
# Indices 1 2 3 4 5 6 
#
# 1 106.2883 73.7797 41.0784 0.0000 0.0000 0.0000
# 2 73.7797 106.2883 41.0785 0.0000 0.0000 0.0000
# 3 41.0784 41.0785 60.4618 0.0000 0.0000 0.0000
# 4 0.0000 0.0000 0.0000 27.1554 0.0000 0.0000
# 5 0.0000 0.0000 0.0000 0.0000 27.1554 0.0000
# 6 0.0000 0.0000 0.0000 0.0000 0.0000 33.4824
#
#
#
# Elastic Compliance Matrix: (Units=1/GPa)
#
#
# Indices 1 2 3 4 5 6 
#
# 1 0.019405 -0.011356 -0.005468 0.000000 0.000000 0.000000
# 2 -0.011356 0.019405 -0.005468 0.000000 0.000000 0.000000
# 3 -0.005468 -0.005468 0.023970 0.000000 0.000000 0.000000
# 4 0.000000 0.000000 0.000000 0.036825 0.000000 0.000000
# 5 0.000000 0.000000 0.000000 0.000000 0.036825 0.000000
# 6 0.000000 0.000000 0.000000 0.000000 0.000000 0.029866
#
#
# Mechanical properties :
#
#
# Convention : Reuss Voigt Hill
#
# Bulk Modulus (GPa) = 54.96402 64.99020 59.97711
# Shear Modulus (GPa) = 23.04726 25.36542 24.20634
#
# Velocity S-wave (km/s) = 3.57892 3.75460 3.66781
# Velocity P-wave (km/s) = 6.90107 7.41044 7.16029
#
# Compressibility (1/GPa) = 0.01819372
#
# Stress axis : x y z
#
# Youngs Moduli (GPa) = 51.53384 51.53377 41.71954
#
# Poissons Ratio (x) = 0.58524 0.22813
# Poissons Ratio (y) = 0.58524 0.22813
# Poissons Ratio (z) = 0.28179 0.28179
#
# Static dielectric constant tensor:
#      x y z
#    x 3.370450 0.000000 0.000000 
#    y 0.000000 3.370450 0.000000 
#    z 0.000000 0.000000 3.220210 
# 
# 
# High freq. dielectric constant tensor:
#      x y z
#    x 1.697560 0.000000 0.000000 
#    y 0.000000 1.697560 0.000000 
#    z 0.000000 0.000000 1.692040 
# 
# From -- ./inp_files/1527.got.cif
#   From: 2010.03.12/outbox.cif.g09.slc.cpg/sg136_1_cif.got.tgz:1527.got - 2010.04.06 18:39:43.
