data_PCOD8317069
_publ_section_title
;
Structure prediction by ZEFSAII (Michael W. Deem and Ramdas Pophale) SiO2 
 PCOD8317069
Probable space group: P 42/N N M
;
_chemical_formula_sum "Si O2"
_cell_formula_units_Z 128
_cell_length_a 23.985257
_cell_length_b 23.985257
_cell_length_c 11.517061
_cell_angle_alpha 90.000000
_cell_angle_beta 90.000000
_cell_angle_gamma 90.000000
_cell_volume 6625.679430
_symmetry_space_group_name_H-M "P 42/N N M"
_symmetry_group_IT_number 134
_space_group.IT_coordinate_system_code '2'
_symmetry_cell_setting 'tetragonal'
loop_
_space_group_symop_operation_xyz
x,y,z
1/2-y,x,1/2+z
1/2-x,1/2-y,z
y,1/2-x,1/2+z
x,1/2-y,1/2-z
1/2-x,y,1/2-z
y,x,-z
1/2-y,1/2-x,-z
-x,-y,-z
1/2+y,-x,1/2-z
1/2+x,1/2+y,-z
-y,1/2+x,1/2-z
-x,1/2+y,1/2+z
1/2+x,-y,1/2+z
-y,-x,z
1/2+y,1/2+x,z
loop_
_atom_site_type_symbol
_atom_site_label
_atom_site_fract_x
_atom_site_fract_y
_atom_site_fract_z
Si Si1 0.136635 0.547949 0.104447
Si Si2 0.938800 0.652323 0.986888
Si Si3 0.943946 0.240695 0.879471
Si Si4 0.033165 0.184425 0.233744
Si Si5 0.616178 0.892266 0.622114
Si Si6 0.558556 0.147581 0.451109
Si Si7 0.072697 0.235726 0.876932
Si Si8 0.008989 0.594509 0.331207
O O1 0.094026 0.594026 0.054849
O O2 0.198823 0.560706 0.059803
O O3 0.134847 0.545066 0.245545
O O4 0.120994 0.486175 0.061008
O O5 0.965178 0.655486 0.858778
O O6 0.882866 0.617135 0.000000
O O7 0.921201 0.713821 0.032620
O O8 0.917668 0.250000 0.750000
O O9 0.007670 0.218129 0.870618
O O10 0.915037 0.198371 0.970722
O O11 0.034677 0.250000 0.250000
O O12 0.090175 0.165100 0.169653
O O13 0.978385 0.167665 0.158916
O O14 0.589751 0.910250 0.500000
O O15 0.682446 0.888724 0.593466
O O16 0.599709 0.944099 0.705559
O O17 0.610283 0.110283 0.404921
O O18 0.519736 0.111366 0.535928
O O19 0.094481 0.250000 0.750000
O O20 0.031108 0.531108 0.310801
#
# Coordination Sequence:
#
# PCOD8317069 Si02
#       8
#    16  16  16  16  16  16  16  16
#     4  10  20  34  56  86 120 157 198 248 302 367
#     4  11  23  39  59  84 119 162 209 255 310 379
#     4  10  16  31  57  85 117 149 193 247 301 362
#     4  12  25  41  59  87 126 165 207 261 312 376
#     4  12  20  35  58  82 111 151 195 246 306 362
#     4  11  22  38  60  91 126 160 202 252 313 379
#     4  10  19  35  58  83 107 147 200 248 299 364
#     4  10  19  33  55  90 123 149 191 245 305 371
#
# _framework density 19.318773
#
# number of rings (size 3 to 8) (size 9 to 14) (size 15 to 20)
#    0.000    1.250    3.750    5.250    0.000    1.500 
#    0.000    0.000    0.000    7.875    0.000    0.875 
#    0.000    0.000    0.000    0.000    0.000    0.000 
#
# Total GULP energy -1585748.178073 kJ/mol
# GULP energy per Si atom -12388.657641 kJ/mol
# Density = 1.927480 g / cm^3
# Si number density = 19.318773 Si / 1000 Ang^3
#
#
#
# Elastic Constant Matrix: (Units=GPa)
#
#
# Indices 1 2 3 4 5 6 
#
# 1 104.4357 75.3105 36.5377 0.0000 0.0000 0.0000
# 2 75.3105 104.4324 36.5377 0.0000 0.0000 0.0000
# 3 36.5377 36.5377 107.7402 0.0000 0.0000 0.0000
# 4 0.0000 0.0000 0.0000 25.4152 0.0000 0.0000
# 5 0.0000 0.0000 0.0000 0.0000 25.4153 0.0000
# 6 0.0000 0.0000 0.0000 0.0000 0.0000 22.1896
#
#
#
# Elastic Compliance Matrix: (Units=1/GPa)
#
#
# Indices 1 2 3 4 5 6 
#
# 1 0.020394 -0.013942 -0.002188 0.000000 0.000000 0.000000
# 2 -0.013942 0.020395 -0.002189 0.000000 0.000000 0.000000
# 3 -0.002188 -0.002189 0.010766 0.000000 0.000000 0.000000
# 4 0.000000 0.000000 0.000000 0.039347 0.000000 0.000000
# 5 0.000000 0.000000 0.000000 0.000000 0.039346 0.000000
# 6 0.000000 0.000000 0.000000 0.000000 0.000000 0.045066
#
#
# Mechanical properties :
#
#
# Convention : Reuss Voigt Hill
#
# Bulk Modulus (GPa) = 67.03105 68.15333 67.59219
# Shear Modulus (GPa) = 23.04949 25.81884 24.43417
#
# Velocity S-wave (km/s) = 3.45790 3.65973 3.56025
# Velocity P-wave (km/s) = 7.12148 7.29473 7.20862
#
# Compressibility (1/GPa) = 0.01491846
#
# Stress axis : x y z
#
# Youngs Moduli (GPa) = 49.03295 49.03123 92.88570
#
# Poissons Ratio (x) = 0.68358 0.20327
# Poissons Ratio (y) = 0.68360 0.20329
# Poissons Ratio (z) = 0.10730 0.10731
#
# Static dielectric constant tensor:
#      x y z
#    x 3.481060 0.000000 0.000000 
#    y 0.000000 3.481070 0.000000 
#    z 0.000000 0.000000 3.692560 
# 
# 
# High freq. dielectric constant tensor:
#      x y z
#    x 1.732040 0.000000 0.000000 
#    y 0.000000 1.732040 0.000000 
#    z 0.000000 0.000000 1.757060 
# 
# From -- ./inp_files/5313.got.cif
#   From: 2010.03.12/outbox.cif.g09.slc.cpg/sg134_3_cif.got.tgz:5313.got - 2010.04.06 18:17:22.
