data_PCOD8317819
_publ_section_title
;
Structure prediction by ZEFSAII (Michael W. Deem and Ramdas Pophale) SiO2 
 PCOD8317819
Probable space group: P 42/M N M
;
_chemical_formula_sum "Si O2"
_cell_formula_units_Z 96
_cell_length_a 23.856753
_cell_length_b 23.856753
_cell_length_c 9.112662
_cell_angle_alpha 90.000000
_cell_angle_beta 90.000000
_cell_angle_gamma 90.000000
_cell_volume 5186.422949
_symmetry_space_group_name_H-M "P 42/M N M"
_symmetry_group_IT_number 136
_symmetry_cell_setting 'tetragonal'
loop_
_space_group_symop_operation_xyz
x,y,z
1/2-y,1/2+x,1/2+z
-x,-y,z
1/2+y,1/2-x,1/2+z
1/2+x,1/2-y,1/2-z
1/2-x,1/2+y,1/2-z
y,x,-z
-y,-x,-z
-x,-y,-z
1/2+y,1/2-x,1/2-z
x,y,-z
1/2-y,1/2+x,1/2-z
1/2-x,1/2+y,1/2+z
1/2+x,1/2-y,1/2+z
-y,-x,z
y,x,z
loop_
_atom_site_type_symbol
_atom_site_label
_atom_site_fract_x
_atom_site_fract_y
_atom_site_fract_z
Si Si1 0.761973 0.568289 0.174035
Si Si2 0.457957 0.061886 0.837813
Si Si3 0.941440 0.148285 0.169561
Si Si4 0.159119 0.068155 0.829681
Si Si5 0.726662 0.941100 0.673811
Si Si6 0.142339 0.640184 0.663293
O O1 0.701057 0.579959 0.238692
O O2 0.783925 0.505871 0.225100
O O3 0.799208 0.622440 0.226269
O O4 0.758152 0.568210 0.000000
O O5 0.510618 0.076350 0.734811
O O6 0.419154 0.114744 0.850701
O O7 0.479285 0.045127 0.000000
O O8 0.906144 0.093857 0.217041
O O9 0.006351 0.134932 0.202500
O O10 0.932285 0.163099 0.000000
O O11 0.111916 0.111916 0.780666
O O12 0.213910 0.080087 0.733683
O O13 0.175200 0.075208 0.000000
O O14 0.725976 0.936518 0.500000
O O15 0.680745 0.897005 0.732238
O O16 0.169851 0.644068 0.500000
#
# Coordination Sequence:
#
# PCOD8317819 Si02
#       6
#    16  16  16  16  16  16
#     4   9  19  35  52  72 101 136 172 210 254 303
#     4  10  19  30  44  64  92 124 161 210 264 313
#     4   9  18  33  54  81 109 133 162 203 248 296
#     4   9  18  34  56  80 107 138 167 197 242 302
#     4  10  20  34  53  76 103 134 170 215 260 299
#     4  10  20  33  49  69  95 131 175 215 252 302
#
# _framework density 18.509865999999999
#
# number of rings (size 3 to 8) (size 9 to 14) (size 15 to 20)
#    0.000    2.500    0.000    2.500    0.000    5.000 
#    0.000    2.500    0.000    1.000    0.000    4.667 
#    0.000    0.000    0.000    0.000    0.000    0.000 
#
# Total GULP energy -1189537.922366 kJ/mol
# GULP energy per Si atom -12391.020025 kJ/mol
# Density = 1.846774 g / cm^3
# Si number density = 18.509866 Si / 1000 Ang^3
#
#
#
# Elastic Constant Matrix: (Units=GPa)
#
#
# Indices 1 2 3 4 5 6 
#
# 1 77.1779 50.8693 24.9591 0.0000 0.0000 0.0000
# 2 50.8693 77.1779 24.9591 0.0000 0.0000 0.0000
# 3 24.9591 24.9591 59.1815 0.0000 0.0000 0.0000
# 4 0.0000 0.0000 0.0000 20.5416 0.0000 0.0000
# 5 0.0000 0.0000 0.0000 0.0000 20.5416 0.0000
# 6 0.0000 0.0000 0.0000 0.0000 0.0000 34.7408
#
#
#
# Elastic Compliance Matrix: (Units=1/GPa)
#
#
# Indices 1 2 3 4 5 6 
#
# 1 0.023678 -0.014332 -0.003942 0.000000 0.000000 0.000000
# 2 -0.014332 0.023678 -0.003942 0.000000 0.000000 0.000000
# 3 -0.003942 -0.003942 0.020222 0.000000 0.000000 0.000000
# 4 0.000000 0.000000 0.000000 0.048682 0.000000 0.000000
# 5 0.000000 0.000000 0.000000 0.000000 0.048682 0.000000
# 6 0.000000 0.000000 0.000000 0.000000 0.000000 0.028785
#
#
# Mechanical properties :
#
#
# Convention : Reuss Voigt Hill
#
# Bulk Modulus (GPa) = 43.20083 46.12358 44.66221
# Shear Modulus (GPa) = 20.33568 22.68146 21.50857
#
# Velocity S-wave (km/s) = 3.31817 3.50433 3.41252
# Velocity P-wave (km/s) = 6.17012 6.43010 6.30145
#
# Compressibility (1/GPa) = 0.02314770
#
# Stress axis : x y z
#
# Youngs Moduli (GPa) = 42.23267 42.23267 49.45134
#
# Poissons Ratio (x) = 0.60528 0.19492
# Poissons Ratio (y) = 0.60528 0.19492
# Poissons Ratio (z) = 0.16647 0.16647
#
# Static dielectric constant tensor:
#      x y z
#    x 3.394740 0.000000 0.000000 
#    y 0.000000 3.394740 0.000000 
#    z 0.000000 0.000000 3.442430 
# 
# 
# High freq. dielectric constant tensor:
#      x y z
#    x 1.710540 0.000000 0.000000 
#    y 0.000000 1.710540 0.000000 
#    z 0.000000 0.000000 1.714540 
# 
# From -- ./inp_files/1967.got.cif
#   From: 2010.03.12/outbox.cif.g09.slc.cpg/sg136_1_cif.got.tgz:1967.got - 2010.04.06 18:39:43.
