data_PCOD8317143
_publ_section_title
;
Structure prediction by ZEFSAII (Michael W. Deem and Ramdas Pophale) SiO2 
 PCOD8317143
Probable space group: P 42/N N M
;
_chemical_formula_sum "Si O2"
_cell_formula_units_Z 112
_cell_length_a 23.241125
_cell_length_b 23.241125
_cell_length_c 12.101659
_cell_angle_alpha 90.000000
_cell_angle_beta 90.000000
_cell_angle_gamma 90.000000
_cell_volume 6536.709793
_symmetry_space_group_name_H-M "P 42/N N M"
_symmetry_group_IT_number 134
_space_group.IT_coordinate_system_code '2'
_symmetry_cell_setting 'tetragonal'
loop_
_space_group_symop_operation_xyz
x,y,z
1/2-y,x,1/2+z
1/2-x,1/2-y,z
y,1/2-x,1/2+z
x,1/2-y,1/2-z
1/2-x,y,1/2-z
y,x,-z
1/2-y,1/2-x,-z
-x,-y,-z
1/2+y,-x,1/2-z
1/2+x,1/2+y,-z
-y,1/2+x,1/2-z
-x,1/2+y,1/2+z
1/2+x,-y,1/2+z
-y,-x,z
1/2+y,1/2+x,z
loop_
_atom_site_type_symbol
_atom_site_label
_atom_site_fract_x
_atom_site_fract_y
_atom_site_fract_z
Si Si1 0.411454 0.496084 0.555216
Si Si2 0.209514 0.528722 0.969154
Si Si3 0.525191 0.381756 0.819813
Si Si4 0.401594 0.804410 0.178982
Si Si5 0.017044 0.664989 0.558060
Si Si6 0.433608 0.028207 0.694425
Si Si7 0.188530 0.902295 0.744235
O O1 0.443846 0.443846 0.500000
O O2 0.443468 0.556533 0.525216
O O3 0.347756 0.492608 0.500819
O O4 0.410251 0.488374 0.686173
O O5 0.269719 0.492764 0.963886
O O6 0.194549 0.548183 0.845590
O O7 0.216103 0.581376 0.055693
O O8 0.566404 0.433597 0.787297
O O9 0.540209 0.330160 0.735586
O O10 0.460629 0.407373 0.806320
O O11 0.537634 0.360963 0.943048
O O12 0.380100 0.750000 0.250000
O O13 0.349869 0.849869 0.174779
O O14 0.072379 0.670100 0.637316
O O15 0.970769 0.621389 0.612035
O O16 0.480265 0.980265 0.653995
O O17 0.250000 0.870050 0.750000
O O18 0.141668 0.858333 0.700834
#
# Coordination Sequence:
#
# PCOD8317143 Si02
#       7
#    16  16  16  16  16  16  16
#     4  10  19  32  52  77 103 134 173 215 259 314
#     4  11  21  35  53  73 102 138 172 211 262 318
#     4  10  20  34  53  76 103 136 173 217 266 315
#     4  11  22  38  55  72  99 139 185 230 271 311
#     4  11  20  32  51  74 106 138 167 206 260 318
#     4  10  19  31  51  78 105 134 169 210 262 321
#     4  10  20  32  48  68  93 131 173 213 256 298
#
# _framework density 17.134001999999999
#
# number of rings (size 3 to 8) (size 9 to 14) (size 15 to 20)
#    0.000    1.571    2.857    3.857    0.000    3.714 
#    0.000    0.000    0.000    1.714    0.000    0.000 
#    0.000    2.286    0.857    0.000    0.000    0.000 
#
# Total GULP energy -1388026.146756 kJ/mol
# GULP energy per Si atom -12393.090596 kJ/mol
# Density = 1.709500 g / cm^3
# Si number density = 17.134002 Si / 1000 Ang^3
#
#
#
# Elastic Constant Matrix: (Units=GPa)
#
#
# Indices 1 2 3 4 5 6 
#
# 1 81.7565 33.3721 12.5216 0.0000 0.0000 0.0000
# 2 33.3721 81.7565 12.5216 0.0000 0.0000 0.0000
# 3 12.5216 12.5216 66.7642 0.0000 0.0000 0.0000
# 4 0.0000 0.0000 0.0000 22.1169 0.0000 0.0000
# 5 0.0000 0.0000 0.0000 0.0000 22.1169 0.0000
# 6 0.0000 0.0000 0.0000 0.0000 0.0000 19.9976
#
#
#
# Elastic Compliance Matrix: (Units=1/GPa)
#
#
# Indices 1 2 3 4 5 6 
#
# 1 0.014862 -0.005806 -0.001698 0.000000 0.000000 0.000000
# 2 -0.005806 0.014862 -0.001698 0.000000 0.000000 0.000000
# 3 -0.001698 -0.001698 0.015615 0.000000 0.000000 0.000000
# 4 0.000000 0.000000 0.000000 0.045214 0.000000 0.000000
# 5 0.000000 0.000000 0.000000 0.000000 0.045214 0.000000
# 6 0.000000 0.000000 0.000000 0.000000 0.000000 0.050006
#
#
# Mechanical properties :
#
#
# Convention : Reuss Voigt Hill
#
# Bulk Modulus (GPa) = 37.12979 38.56752 37.84865
# Shear Modulus (GPa) = 23.45697 24.30373 23.88035
#
# Velocity S-wave (km/s) = 3.70406 3.77032 3.73733
# Velocity P-wave (km/s) = 6.32540 6.44298 6.38446
#
# Compressibility (1/GPa) = 0.02693255
#
# Stress axis : x y z
#
# Youngs Moduli (GPa) = 67.28748 67.28748 64.04046
#
# Poissons Ratio (x) = 0.39069 0.10876
# Poissons Ratio (y) = 0.39069 0.10876
# Poissons Ratio (z) = 0.11428 0.11428
#
# Static dielectric constant tensor:
#      x y z
#    x 3.283060 0.000000 0.000000 
#    y 0.000000 3.283060 0.000000 
#    z 0.000000 0.000000 3.473770 
# 
# 
# High freq. dielectric constant tensor:
#      x y z
#    x 1.634600 0.000000 0.000000 
#    y 0.000000 1.634600 0.000000 
#    z 0.000000 0.000000 1.684460 
# 
# From -- ./inp_files/5251.got.cif
#   From: 2010.03.12/outbox.cif.g09.slc.cpg/sg134_3_cif.got.tgz:5251.got - 2010.04.06 18:17:22.
