data_PCOD8317191
_publ_section_title
;
Structure prediction by ZEFSAII (Michael W. Deem and Ramdas Pophale) SiO2 
 PCOD8317191
Probable space group: P 42/N N M
;
_chemical_formula_sum "Si O2"
_cell_formula_units_Z 112
_cell_length_a 22.553176
_cell_length_b 22.553176
_cell_length_c 13.718401
_cell_angle_alpha 90.000000
_cell_angle_beta 90.000000
_cell_angle_gamma 90.000000
_cell_volume 6977.806334
_symmetry_space_group_name_H-M "P 42/N N M"
_symmetry_group_IT_number 134
_space_group.IT_coordinate_system_code '2'
_symmetry_cell_setting 'tetragonal'
loop_
_space_group_symop_operation_xyz
x,y,z
1/2-y,x,1/2+z
1/2-x,1/2-y,z
y,1/2-x,1/2+z
x,1/2-y,1/2-z
1/2-x,y,1/2-z
y,x,-z
1/2-y,1/2-x,-z
-x,-y,-z
1/2+y,-x,1/2-z
1/2+x,1/2+y,-z
-y,1/2+x,1/2-z
-x,1/2+y,1/2+z
1/2+x,-y,1/2+z
-y,-x,z
1/2+y,1/2+x,z
loop_
_atom_site_type_symbol
_atom_site_label
_atom_site_fract_x
_atom_site_fract_y
_atom_site_fract_z
Si Si1 0.408145 0.809172 0.294293
Si Si2 0.227856 0.868767 0.640688
Si Si3 0.327166 0.577130 0.992949
Si Si4 0.914672 0.985332 0.075673
Si Si5 0.565269 0.965162 0.209932
Si Si6 0.636123 0.038847 0.074614
Si Si7 0.624415 0.475520 0.640261
O O1 0.379482 0.750000 0.250000
O O2 0.356913 0.856913 0.297018
O O3 0.434243 0.796876 0.402225
O O4 0.462046 0.827809 0.223792
O O5 0.250000 0.859425 0.750000
O O6 0.190457 0.809544 0.608376
O O7 0.284272 0.882386 0.573487
O O8 0.186452 0.926111 0.633031
O O9 0.386400 0.613601 0.012067
O O10 0.349834 0.514427 0.947934
O O11 0.910075 0.954814 0.181416
O O12 0.933678 0.933678 0.000000
O O13 0.964140 0.035861 0.076361
O O14 0.538042 0.905087 0.166932
O O15 0.516794 0.016794 0.211913
O O16 0.620014 0.981912 0.139569
O O17 0.577589 0.077589 0.062368
O O18 0.656343 0.019962 0.965675
O O19 0.576149 0.423851 0.639961
#
# Coordination Sequence:
#
# PCOD8317191 Si02
#       7
#    16  16  16  16  16  16  16
#     4  10  20  32  44  58  78 107 145 186 224 261
#     4  11  22  34  46  60  82 115 155 195 231 265
#     4  10  20  32  45  61  81 108 146 188 228 269
#     4   9  16  27  43  62  83 105 132 172 222 275
#     4   9  15  24  41  63  83 102 128 164 209 264
#     4   9  17  28  42  60  82 107 137 175 216 260
#     4   9  16  27  43  62  82 103 130 168 216 267
#
# _framework density 16.050889000000002
#
# number of rings (size 3 to 8) (size 9 to 14) (size 15 to 20)
#    0.000    2.429    0.000    3.429    0.000   10.286 
#    0.000    1.429    0.000    0.000    0.000    0.000 
#    0.000    0.000    0.000    0.000    0.000   45.000 
#
# Total GULP energy -1388053.623605 kJ/mol
# GULP energy per Si atom -12393.335925 kJ/mol
# Density = 1.601436 g / cm^3
# Si number density = 16.050889 Si / 1000 Ang^3
#
#
#
# Elastic Constant Matrix: (Units=GPa)
#
#
# Indices 1 2 3 4 5 6 
#
# 1 36.1700 34.6112 28.3616 0.0000 0.0000 0.0000
# 2 34.6112 36.1700 28.3616 0.0000 0.0000 0.0000
# 3 28.3616 28.3616 124.8608 0.0000 0.0000 0.0000
# 4 0.0000 0.0000 0.0000 23.0224 0.0000 0.0000
# 5 0.0000 0.0000 0.0000 0.0000 23.0224 0.0000
# 6 0.0000 0.0000 0.0000 0.0000 0.0000 18.2460
#
#
#
# Elastic Compliance Matrix: (Units=1/GPa)
#
#
# Indices 1 2 3 4 5 6 
#
# 1 0.329397 -0.312125 -0.003923 0.000000 0.000000 0.000000
# 2 -0.312125 0.329397 -0.003923 0.000000 0.000000 0.000000
# 3 -0.003923 -0.003923 0.009791 0.000000 0.000000 0.000000
# 4 0.000000 0.000000 0.000000 0.043436 0.000000 0.000000
# 5 0.000000 0.000000 0.000000 0.000000 0.043436 0.000000
# 6 0.000000 0.000000 0.000000 0.000000 0.000000 0.054806
#
#
# Mechanical properties :
#
#
# Convention : Reuss Voigt Hill
#
# Bulk Modulus (GPa) = 34.91335 42.20773 38.56054
# Shear Modulus (GPa) = 3.42524 19.91590 11.67057
#
# Velocity S-wave (km/s) = 1.46240 3.52632 2.69940
# Velocity P-wave (km/s) = 4.96491 6.55234 5.81307
#
# Compressibility (1/GPa) = 0.02864234
#
# Stress axis : x y z
#
# Youngs Moduli (GPa) = 3.03585 3.03585 102.13219
#
# Poissons Ratio (x) = 0.94756 0.40069
# Poissons Ratio (y) = 0.94756 0.40069
# Poissons Ratio (z) = 0.01191 0.01191
#
# Static dielectric constant tensor:
#      x y z
#    x 2.819260 0.000000 0.000000 
#    y 0.000000 2.819260 0.000000 
#    z 0.000000 0.000000 3.417440 
# 
# 
# High freq. dielectric constant tensor:
#      x y z
#    x 1.576220 0.000000 0.000000 
#    y 0.000000 1.576220 0.000000 
#    z 0.000000 0.000000 1.642720 
# 
# From -- ./inp_files/5242.got.cif
#   From: 2010.03.12/outbox.cif.g09.slc.cpg/sg134_3_cif.got.tgz:5242.got - 2010.04.06 18:17:22.
