data_PCOD8317177
_publ_section_title
;
Structure prediction by ZEFSAII (Michael W. Deem and Ramdas Pophale) SiO2 
 PCOD8317177
Probable space group: P 42/N N M
;
_chemical_formula_sum "Si O2"
_cell_formula_units_Z 48
_cell_length_a 13.010010
_cell_length_b 13.010010
_cell_length_c 13.804632
_cell_angle_alpha 90.000000
_cell_angle_beta 90.000000
_cell_angle_gamma 90.000000
_cell_volume 2336.576985
_symmetry_space_group_name_H-M "P 42/N N M"
_symmetry_group_IT_number 134
_space_group.IT_coordinate_system_code '2'
_symmetry_cell_setting 'tetragonal'
loop_
_space_group_symop_operation_xyz
x,y,z
1/2-y,x,1/2+z
1/2-x,1/2-y,z
y,1/2-x,1/2+z
x,1/2-y,1/2-z
1/2-x,y,1/2-z
y,x,-z
1/2-y,1/2-x,-z
-x,-y,-z
1/2+y,-x,1/2-z
1/2+x,1/2+y,-z
-y,1/2+x,1/2-z
-x,1/2+y,1/2+z
1/2+x,-y,1/2+z
-y,-x,z
1/2+y,1/2+x,z
loop_
_atom_site_type_symbol
_atom_site_label
_atom_site_fract_x
_atom_site_fract_y
_atom_site_fract_z
Si Si1 0.349144 0.192829 0.388498
Si Si2 0.501346 0.164282 0.031131
Si Si3 0.693876 0.026800 0.651951
O O1 0.250000 0.250000 0.343201
O O2 0.329599 0.170402 0.500000
O O3 0.453826 0.262074 0.383730
O O4 0.359918 0.084826 0.333065
O O5 0.600565 0.100565 0.070090
O O6 0.532628 0.226777 0.936093
O O7 0.411873 0.088128 0.000000
O O8 0.750000 0.059957 0.750000
O O9 0.604888 0.104888 0.626152
#
# Coordination Sequence:
#
# PCOD8317177 Si02
#       3
#    16  16  16
#     4   9  16  35  56  80 109 152 192 230 272 335
#     4  10  19  35  58  83 114 152 195 235 281 339
#     4  11  23  37  57  86 119 151 187 237 297 349
#
# _framework density 20.542871999999999
#
# number of rings (size 3 to 8) (size 9 to 14) (size 15 to 20)
#    0.000    2.000    6.667    1.000    0.000    9.000 
#    0.000    0.000    0.000    0.000    0.000    0.000 
#    0.000    0.000    0.000    0.000    0.000    0.000 
#
# Total GULP energy -594871.672159 kJ/mol
# GULP energy per Si atom -12393.159837 kJ/mol
# Density = 2.049612 g / cm^3
# Si number density = 20.542872 Si / 1000 Ang^3
#
#
#
# Elastic Constant Matrix: (Units=GPa)
#
#
# Indices 1 2 3 4 5 6 
#
# 1 99.6746 119.8096 23.2028 0.0000 0.0000 0.0000
# 2 119.8096 99.6793 23.2082 0.0000 0.0000 0.0000
# 3 23.2028 23.2082 30.5695 0.0000 0.0000 0.0000
# 4 0.0000 0.0000 0.0000 20.9904 0.0000 0.0000
# 5 0.0000 0.0000 0.0000 0.0000 20.9914 0.0000
# 6 0.0000 0.0000 0.0000 0.0000 0.0000 65.3584
#
#
#
# Elastic Compliance Matrix: (Units=1/GPa)
#
#
# Indices 1 2 3 4 5 6 
#
# 1 -0.022121 0.027549 -0.004125 0.000000 0.000000 0.000000
# 2 0.027549 -0.022122 -0.004115 0.000000 0.000000 0.000000
# 3 -0.004125 -0.004115 0.038967 0.000000 0.000000 0.000000
# 4 0.000000 0.000000 0.000000 0.047641 0.000000 0.000000
# 5 0.000000 0.000000 0.000000 0.000000 0.047639 0.000000
# 6 0.000000 0.000000 0.000000 0.000000 0.000000 0.015300
#
#
# Mechanical properties :
#
#
# Convention : Reuss Voigt Hill
#
# Bulk Modulus (GPa) = 29.99202 62.48496 46.23849
# Shear Modulus (GPa) = 64.26811 25.71489 44.99150
#
# Velocity S-wave (km/s) = 5.59936 3.54187 4.68496
# Velocity P-wave (km/s) = 7.51233 6.87091 7.19877
#
# Compressibility (1/GPa) = 0.03334220
#
# Stress axis : x y z
#
# Youngs Moduli (GPa) = -45.20551 -45.20356 25.66266
#
# Poissons Ratio (x) = 1.24531 0.10585
# Poissons Ratio (y) = 1.24536 0.10560
# Poissons Ratio (z) = -0.18645 -0.18602
#
# Static dielectric constant tensor:
#      x y z
#    x 4.234760 0.000000 0.000000 
#    y 0.000000 4.234750 0.000000 
#    z 0.000000 0.000000 3.344630 
# 
# 
# High freq. dielectric constant tensor:
#      x y z
#    x 1.804960 0.000000 0.000000 
#    y 0.000000 1.804960 0.000000 
#    z 0.000000 0.000000 1.764960 
# 
# From -- ./inp_files/7194.got.cif
#   From: 2010.03.12/outbox.cif.g09.slc.cpg/sg134_4_cif.got.tgz:7194.got - 2010.04.06 18:17:22.
