data_PCOD8317347
_publ_section_title
;
Structure prediction by ZEFSAII (Michael W. Deem and Ramdas Pophale) SiO2 
 PCOD8317347
Probable space group: P 42/N N M
;
_chemical_formula_sum "Si O2"
_cell_formula_units_Z 48
_cell_length_a 13.501791
_cell_length_b 13.501791
_cell_length_c 11.381291
_cell_angle_alpha 90.000000
_cell_angle_beta 90.000000
_cell_angle_gamma 90.000000
_cell_volume 2074.790686
_symmetry_space_group_name_H-M "P 42/N N M"
_symmetry_group_IT_number 134
_space_group.IT_coordinate_system_code '2'
_symmetry_cell_setting 'tetragonal'
loop_
_space_group_symop_operation_xyz
x,y,z
1/2-y,x,1/2+z
1/2-x,1/2-y,z
y,1/2-x,1/2+z
x,1/2-y,1/2-z
1/2-x,y,1/2-z
y,x,-z
1/2-y,1/2-x,-z
-x,-y,-z
1/2+y,-x,1/2-z
1/2+x,1/2+y,-z
-y,1/2+x,1/2-z
-x,1/2+y,1/2+z
1/2+x,-y,1/2+z
-y,-x,z
1/2+y,1/2+x,z
loop_
_atom_site_type_symbol
_atom_site_label
_atom_site_fract_x
_atom_site_fract_y
_atom_site_fract_z
Si Si1 0.843767 0.577159 0.111401
Si Si2 0.149918 0.012436 0.192675
Si Si3 0.833805 0.666196 0.500000
Si Si4 0.908602 0.250000 0.250000
O O1 0.904368 0.599331 0.228060
O O2 0.788114 0.473400 0.138160
O O3 0.920712 0.579288 0.000000
O O4 0.761532 0.663389 0.088041
O O5 0.250000 0.970926 0.250000
O O6 0.175160 0.062851 0.068870
O O7 0.078877 0.921124 0.169784
O O8 0.840230 0.159771 0.203710
#
# Coordination Sequence:
#
# PCOD8317347 Si02
#       4
#    16  16   8   8
#     4  12  25  44  75 105 144 183 241 299 361 428
#     4  12  27  46  71 102 143 190 240 295 360 429
#     4  12  24  46  72 106 139 183 238 298 360 426
#     4  11  26  48  73 106 150 196 245 298 361 436
#
# _framework density 23.134865000000001
#
# number of rings (size 3 to 8) (size 9 to 14) (size 15 to 20)
#    0.000    0.167    6.667    2.000    0.000    5.667 
#    0.000    0.000    0.000    0.000    0.000    0.000 
#    0.000    0.000    0.000    0.000    0.000    0.000 
#
# Total GULP energy -595057.449063 kJ/mol
# GULP energy per Si atom -12397.030189 kJ/mol
# Density = 2.308221 g / cm^3
# Si number density = 23.134865 Si / 1000 Ang^3
#
#
#
# Elastic Constant Matrix: (Units=GPa)
#
#
# Indices 1 2 3 4 5 6 
#
# 1 109.4111 51.4351 22.1627 0.0000 0.0000 0.0000
# 2 51.4351 109.4105 22.1620 0.0000 0.0000 0.0000
# 3 22.1627 22.1620 83.7822 0.0000 0.0000 0.0000
# 4 0.0000 0.0000 0.0000 28.0556 0.0000 0.0000
# 5 0.0000 0.0000 0.0000 0.0000 28.0556 0.0000
# 6 0.0000 0.0000 0.0000 0.0000 0.0000 54.5852
#
#
#
# Elastic Compliance Matrix: (Units=1/GPa)
#
#
# Indices 1 2 3 4 5 6 
#
# 1 0.011977 -0.005271 -0.001774 0.000000 0.000000 0.000000
# 2 -0.005271 0.011977 -0.001774 0.000000 0.000000 0.000000
# 3 -0.001774 -0.001774 0.012874 0.000000 0.000000 0.000000
# 4 0.000000 0.000000 0.000000 0.035643 0.000000 0.000000
# 5 0.000000 0.000000 0.000000 0.000000 0.035643 0.000000
# 6 0.000000 0.000000 0.000000 0.000000 0.000000 0.018320
#
#
# Mechanical properties :
#
#
# Convention : Reuss Voigt Hill
#
# Bulk Modulus (GPa) = 52.10893 54.90261 53.50577
# Shear Modulus (GPa) = 33.22904 35.92888 34.57896
#
# Velocity S-wave (km/s) = 3.79399 3.94511 3.87029
# Velocity P-wave (km/s) = 6.46261 6.67345 6.56888
#
# Compressibility (1/GPa) = 0.01919057
#
# Stress axis : x y z
#
# Youngs Moduli (GPa) = 83.49142 83.49125 77.67486
#
# Poissons Ratio (x) = 0.44011 0.13779
# Poissons Ratio (y) = 0.44011 0.13778
# Poissons Ratio (z) = 0.14811 0.14810
#
# Static dielectric constant tensor:
#      x y z
#    x 4.302100 0.000000 0.000000 
#    y 0.000000 4.302090 0.000000 
#    z 0.000000 0.000000 4.331040 
# 
# 
# High freq. dielectric constant tensor:
#      x y z
#    x 1.918680 0.000000 0.000000 
#    y 0.000000 1.918680 0.000000 
#    z 0.000000 0.000000 1.909470 
# 
# From -- ./inp_files/4203.got.cif
#   From: 2010.03.12/outbox.cif.g09.slc.cpg/sg134_3_cif.got.tgz:4203.got - 2010.04.06 18:17:22.
