data_PCOD8317338
_publ_section_title
;
Structure prediction by ZEFSAII (Michael W. Deem and Ramdas Pophale) SiO2 
 PCOD8317338
Probable space group: P 42/N N M
;
_chemical_formula_sum "Si O2"
_cell_formula_units_Z 50
_cell_length_a 17.000711
_cell_length_b 17.000711
_cell_length_c 8.795986
_cell_angle_alpha 90.000000
_cell_angle_beta 90.000000
_cell_angle_gamma 90.000000
_cell_volume 2542.252593
_symmetry_space_group_name_H-M "P 42/N N M"
_symmetry_group_IT_number 134
_space_group.IT_coordinate_system_code '2'
_symmetry_cell_setting 'tetragonal'
loop_
_space_group_symop_operation_xyz
x,y,z
1/2-y,x,1/2+z
1/2-x,1/2-y,z
y,1/2-x,1/2+z
x,1/2-y,1/2-z
1/2-x,y,1/2-z
y,x,-z
1/2-y,1/2-x,-z
-x,-y,-z
1/2+y,-x,1/2-z
1/2+x,1/2+y,-z
-y,1/2+x,1/2-z
-x,1/2+y,1/2+z
1/2+x,-y,1/2+z
-y,-x,z
1/2+y,1/2+x,z
loop_
_atom_site_type_symbol
_atom_site_label
_atom_site_fract_x
_atom_site_fract_y
_atom_site_fract_z
Si Si1 0.250000 0.750000 0.250000
Si Si2 0.175201 0.033522 0.340846
Si Si3 0.165754 0.047106 0.683275
Si Si4 0.375305 0.624696 0.176285
Si Si5 0.943803 0.056198 0.105089
O O1 0.308450 0.691551 0.161100
O O2 0.250000 0.064545 0.250000
O O3 0.185312 0.010568 0.517733
O O4 0.120096 0.108442 0.330309
O O5 0.148981 0.954563 0.259198
O O6 0.250000 0.072280 0.750000
O O7 0.118099 0.988266 0.789801
O O8 0.390934 0.609067 0.001731
O O9 0.000000 0.000000 0.000000
#
# Coordination Sequence:
#
# PCOD8317338 Si02
#       5
#     2  16  16   8   8
#     4  12  28  40  68 106 132 184 218 284 348 420
#     4  11  23  42  67  95 135 181 228 291 348 419
#     4  11  25  41  66 100 132 176 237 285 348 419
#     4  12  23  42  70  96 135 179 233 275 352 419
#     4  12  23  43  71  99 135 181 234 292 355 427
#
# _framework density 19.667594999999999
#
# number of rings (size 3 to 8) (size 9 to 14) (size 15 to 20)
#    0.000    0.640    4.800    2.880    0.000    3.200 
#    0.000    3.200    0.000    1.920    0.000    0.000 
#    0.000    0.000    0.000    0.000    0.000    0.000 
#
# Total GULP energy -619425.076275 kJ/mol
# GULP energy per Si atom -12388.501525 kJ/mol
# Density = 1.962283 g / cm^3
# Si number density = 19.667595 Si / 1000 Ang^3
#
#
#
# Elastic Constant Matrix: (Units=GPa)
#
#
# Indices 1 2 3 4 5 6 
#
# 1 120.3221 46.9626 66.8158 0.0000 0.0000 0.0000
# 2 46.9626 120.3221 66.8158 0.0000 0.0000 0.0000
# 3 66.8158 66.8158 187.4478 0.0000 0.0000 0.0000
# 4 0.0000 0.0000 0.0000 39.1855 0.0000 0.0000
# 5 0.0000 0.0000 0.0000 0.0000 39.1855 0.0000
# 6 0.0000 0.0000 0.0000 0.0000 0.0000 31.3612
#
#
#
# Elastic Compliance Matrix: (Units=1/GPa)
#
#
# Indices 1 2 3 4 5 6 
#
# 1 0.010995 -0.002637 -0.002979 0.000000 0.000000 0.000000
# 2 -0.002637 0.010995 -0.002979 0.000000 0.000000 0.000000
# 3 -0.002979 -0.002979 0.007459 0.000000 0.000000 0.000000
# 4 0.000000 0.000000 0.000000 0.025520 0.000000 0.000000
# 5 0.000000 0.000000 0.000000 0.000000 0.025520 0.000000
# 6 0.000000 0.000000 0.000000 0.000000 0.000000 0.031887
#
#
# Mechanical properties :
#
#
# Convention : Reuss Voigt Hill
#
# Bulk Modulus (GPa) = 81.58261 87.69784 84.64022
# Shear Modulus (GPa) = 37.41130 38.44630 37.92880
#
# Velocity S-wave (km/s) = 4.36613 4.42611 4.39622
# Velocity P-wave (km/s) = 8.18463 8.41472 8.30047
#
# Compressibility (1/GPa) = 0.01225751
#
# Stress axis : x y z
#
# Youngs Moduli (GPa) = 90.95421 90.95421 134.07343
#
# Poissons Ratio (x) = 0.23984 0.39941
# Poissons Ratio (y) = 0.23984 0.39941
# Poissons Ratio (z) = 0.27096 0.27096
#
# Static dielectric constant tensor:
#      x y z
#    x 3.631370 0.000000 0.000000 
#    y 0.000000 3.631370 0.000000 
#    z 0.000000 0.000000 3.807990 
# 
# 
# High freq. dielectric constant tensor:
#      x y z
#    x 1.775430 0.000000 0.000000 
#    y 0.000000 1.775430 0.000000 
#    z 0.000000 0.000000 1.786460 
# 
# From -- ./inp_files/2271.got.cif
#   From: 2010.03.12/outbox.cif.g09.slc.cpg/sg134_2_cif.got.tgz:2271.got - 2010.04.06 18:17:22.
