data_PCOD8317945
_publ_section_title
;
Structure prediction by ZEFSAII (Michael W. Deem and Ramdas Pophale) SiO2 
 PCOD8317945
Probable space group: P 42/M N M
;
_chemical_formula_sum "Si O2"
_cell_formula_units_Z 128
_cell_length_a 23.528544
_cell_length_b 23.528544
_cell_length_c 12.499167
_cell_angle_alpha 90.000000
_cell_angle_beta 90.000000
_cell_angle_gamma 90.000000
_cell_volume 6919.443642
_symmetry_space_group_name_H-M "P 42/M N M"
_symmetry_group_IT_number 136
_symmetry_cell_setting 'tetragonal'
loop_
_space_group_symop_operation_xyz
x,y,z
1/2-y,1/2+x,1/2+z
-x,-y,z
1/2+y,1/2-x,1/2+z
1/2+x,1/2-y,1/2-z
1/2-x,1/2+y,1/2-z
y,x,-z
-y,-x,-z
-x,-y,-z
1/2+y,1/2-x,1/2-z
x,y,-z
1/2-y,1/2+x,1/2-z
1/2-x,1/2+y,1/2+z
1/2+x,1/2-y,1/2+z
-y,-x,z
y,x,z
loop_
_atom_site_type_symbol
_atom_site_label
_atom_site_fract_x
_atom_site_fract_y
_atom_site_fract_z
Si Si1 0.637484 0.725999 0.112877
Si Si2 0.558514 0.763095 0.377605
Si Si3 0.313679 0.836849 0.233884
Si Si4 0.400906 0.767081 0.125219
Si Si5 0.050656 0.145377 0.624955
Si Si6 0.592010 0.899720 0.872136
Si Si7 0.486941 0.846868 0.237313
Si Si8 0.439015 0.342462 0.248236
O O1 0.666972 0.666972 0.087130
O O2 0.679039 0.760494 0.191470
O O3 0.578048 0.708923 0.167029
O O4 0.624986 0.758130 0.000000
O O5 0.541850 0.773018 0.500000
O O6 0.620372 0.791201 0.357834
O O7 0.514029 0.795393 0.302990
O O8 0.554797 0.694298 0.357260
O O9 0.340284 0.780373 0.181626
O O10 0.354967 0.865385 0.320316
O O11 0.423524 0.705726 0.161869
O O12 0.441510 0.818947 0.157241
O O13 0.390745 0.767107 0.000000
O O14 0.032299 0.146481 0.500000
O O15 0.097041 0.097041 0.645835
O O16 0.996946 0.130891 0.701015
O O17 0.608340 0.960535 0.821399
O O18 0.528734 0.882166 0.838582
O O19 0.597642 0.902050 0.000000
O O20 0.392413 0.392413 0.263569
#
# Coordination Sequence:
#
# PCOD8317945 Si02
#       8
#    16  16  16  16  16  16  16  16
#     4   9  17  30  50  77 107 136 168 212 266 319
#     4  10  19  34  55  80 109 141 178 220 267 318
#     4   9  19  31  50  79 107 140 179 219 262 316
#     4  10  19  34  54  77 108 144 178 214 262 318
#     4  10  21  36  56  82 110 142 178 217 268 325
#     4  10  20  34  52  75 105 142 188 230 269 313
#     4  10  20  35  53  79 105 142 181 225 270 317
#     4  10  20  35  55  81 109 140 176 220 270 321
#
# _framework density 18.498597
#
# number of rings (size 3 to 8) (size 9 to 14) (size 15 to 20)
#    0.000    2.250    1.250    1.875    0.000    2.000 
#    0.000    3.125    0.000    2.625    0.000    0.875 
#    0.000    0.000    0.000    0.000    0.000    0.000 
#
# Total GULP energy -1586023.348295 kJ/mol
# GULP energy per Si atom -12390.807409 kJ/mol
# Density = 1.845649 g / cm^3
# Si number density = 18.498597 Si / 1000 Ang^3
#
#
#
# Elastic Constant Matrix: (Units=GPa)
#
#
# Indices 1 2 3 4 5 6 
#
# 1 71.4914 32.1303 21.5106 0.0000 0.0000 0.0000
# 2 32.1303 71.4914 21.5106 0.0000 0.0000 0.0000
# 3 21.5106 21.5106 88.1313 0.0000 0.0000 0.0000
# 4 0.0000 0.0000 0.0000 22.8125 0.0000 0.0000
# 5 0.0000 0.0000 0.0000 0.0000 22.8125 0.0000
# 6 0.0000 0.0000 0.0000 0.0000 0.0000 32.3302
#
#
#
# Elastic Compliance Matrix: (Units=1/GPa)
#
#
# Indices 1 2 3 4 5 6 
#
# 1 0.018072 -0.007334 -0.002621 0.000000 0.000000 0.000000
# 2 -0.007334 0.018072 -0.002621 0.000000 0.000000 0.000000
# 3 -0.002621 -0.002621 0.012626 0.000000 0.000000 0.000000
# 4 0.000000 0.000000 0.000000 0.043836 0.000000 0.000000
# 5 0.000000 0.000000 0.000000 0.000000 0.043836 0.000000
# 6 0.000000 0.000000 0.000000 0.000000 0.000000 0.030931
#
#
# Mechanical properties :
#
#
# Convention : Reuss Voigt Hill
#
# Bulk Modulus (GPa) = 42.33811 42.37966 42.35889
# Shear Modulus (GPa) = 24.95048 25.98856 25.46952
#
# Velocity S-wave (km/s) = 3.67655 3.75226 3.71460
# Velocity P-wave (km/s) = 6.39997 6.46003 6.43007
#
# Compressibility (1/GPa) = 0.02361938
#
# Stress axis : x y z
#
# Youngs Moduli (GPa) = 55.33354 55.33354 79.20066
#
# Poissons Ratio (x) = 0.40579 0.20759
# Poissons Ratio (y) = 0.40579 0.20759
# Poissons Ratio (z) = 0.14503 0.14503
#
# Static dielectric constant tensor:
#      x y z
#    x 3.410870 0.000000 0.000000 
#    y 0.000000 3.410870 0.000000 
#    z 0.000000 0.000000 3.585740 
# 
# 
# High freq. dielectric constant tensor:
#      x y z
#    x 1.710730 0.000000 0.000000 
#    y 0.000000 1.710730 0.000000 
#    z 0.000000 0.000000 1.715400 
# 
# From -- ./inp_files/4069.got.cif
#   From: 2010.03.12/outbox.cif.g09.slc.cpg/sg136_3_cif.got.tgz:4069.got - 2010.04.06 18:39:43.
