data_PCOD8317275
_publ_section_title
;
Structure prediction by ZEFSAII (Michael W. Deem and Ramdas Pophale) SiO2 
 PCOD8317275
Probable space group: P 42/N N M
;
_chemical_formula_sum "Si O2"
_cell_formula_units_Z 96
_cell_length_a 20.786157
_cell_length_b 20.786157
_cell_length_c 11.642262
_cell_angle_alpha 90.000000
_cell_angle_beta 90.000000
_cell_angle_gamma 90.000000
_cell_volume 5030.206047
_symmetry_space_group_name_H-M "P 42/N N M"
_symmetry_group_IT_number 134
_space_group.IT_coordinate_system_code '2'
_symmetry_cell_setting 'tetragonal'
loop_
_space_group_symop_operation_xyz
x,y,z
1/2-y,x,1/2+z
1/2-x,1/2-y,z
y,1/2-x,1/2+z
x,1/2-y,1/2-z
1/2-x,y,1/2-z
y,x,-z
1/2-y,1/2-x,-z
-x,-y,-z
1/2+y,-x,1/2-z
1/2+x,1/2+y,-z
-y,1/2+x,1/2-z
-x,1/2+y,1/2+z
1/2+x,-y,1/2+z
-y,-x,z
1/2+y,1/2+x,z
loop_
_atom_site_type_symbol
_atom_site_label
_atom_site_fract_x
_atom_site_fract_y
_atom_site_fract_z
Si Si1 0.992495 0.234555 0.501564
Si Si2 0.192687 0.588858 0.330670
Si Si3 0.183625 0.183625 0.500000
Si Si4 0.387176 0.364639 0.289450
Si Si5 0.120921 0.303026 0.581081
Si Si6 0.750000 0.973580 0.250000
Si Si7 0.007451 0.886574 0.343280
O O1 0.933943 0.276415 0.550137
O O2 0.992384 0.161074 0.546975
O O3 0.055636 0.268394 0.549617
O O4 0.984786 0.235349 0.363740
O O5 0.250000 0.613154 0.250000
O O6 0.148620 0.648620 0.361981
O O7 0.152071 0.532265 0.268663
O O8 0.127859 0.174570 0.405237
O O9 0.178143 0.252184 0.561141
O O10 0.323524 0.377745 0.213955
O O11 0.433946 0.315660 0.221762
O O12 0.414786 0.435750 0.318939
O O13 0.134804 0.365197 0.500000
O O14 0.053330 0.946671 0.371524
#
# Coordination Sequence:
#
# PCOD8317275 Si02
#       7
#    16  16   8  16  16   8  16
#     4  11  21  40  58  84 125 160 198 254 306 362
#     4   9  19  36  64  94 116 143 186 242 311 372
#     4  12  23  34  53  84 112 156 211 254 297 358
#     4  12  21  38  58  82 118 156 207 257 307 354
#     4  12  22  35  56  80 118 167 205 252 304 349
#     4  12  24  38  57  82 118 167 210 252 294 358
#     4  10  21  38  64  89 113 155 203 252 312 368
#
# _framework density 19.084703999999999
#
# number of rings (size 3 to 8) (size 9 to 14) (size 15 to 20)
#    0.000    1.000    6.667    0.750    0.000    0.167 
#    0.000    7.917    0.000    3.000    0.000    0.000 
#    0.000    2.667    0.000    0.000    0.000    0.000 
#
# Total GULP energy -1190172.569058 kJ/mol
# GULP energy per Si atom -12397.630928 kJ/mol
# Density = 1.904127 g / cm^3
# Si number density = 19.084704 Si / 1000 Ang^3
#
#
#
# Elastic Constant Matrix: (Units=GPa)
#
#
# Indices 1 2 3 4 5 6 
#
# 1 98.0081 63.6430 39.7944 0.0000 0.0000 0.0000
# 2 63.6430 98.0073 39.7948 0.0000 0.0000 0.0000
# 3 39.7944 39.7948 116.9673 0.0000 0.0000 0.0000
# 4 0.0000 0.0000 0.0000 19.8111 0.0000 0.0000
# 5 0.0000 0.0000 0.0000 0.0000 19.8113 0.0000
# 6 0.0000 0.0000 0.0000 0.0000 0.0000 36.2694
#
#
#
# Elastic Compliance Matrix: (Units=1/GPa)
#
#
# Indices 1 2 3 4 5 6 
#
# 1 0.018265 -0.010834 -0.002528 0.000000 0.000000 0.000000
# 2 -0.010834 0.018265 -0.002528 0.000000 0.000000 0.000000
# 3 -0.002528 -0.002528 0.010270 0.000000 0.000000 0.000000
# 4 0.000000 0.000000 0.000000 0.050477 0.000000 0.000000
# 5 0.000000 0.000000 0.000000 0.000000 0.050476 0.000000
# 6 0.000000 0.000000 0.000000 0.000000 0.000000 0.027571
#
#
# Mechanical properties :
#
#
# Convention : Reuss Voigt Hill
#
# Bulk Modulus (GPa) = 66.58277 66.60523 66.59400
# Shear Modulus (GPa) = 23.57242 26.49505 25.03374
#
# Velocity S-wave (km/s) = 3.51828 3.73002 3.62569
# Velocity P-wave (km/s) = 7.17413 7.31616 7.24549
#
# Compressibility (1/GPa) = 0.01501890
#
# Stress axis : x y z
#
# Youngs Moduli (GPa) = 54.74911 54.74835 97.37428
#
# Poissons Ratio (x) = 0.59316 0.24617
# Poissons Ratio (y) = 0.59317 0.24619
# Poissons Ratio (z) = 0.13841 0.13842
#
# Static dielectric constant tensor:
#      x y z
#    x 3.460160 0.000000 0.000000 
#    y 0.000000 3.460160 0.000000 
#    z 0.000000 0.000000 3.617900 
# 
# 
# High freq. dielectric constant tensor:
#      x y z
#    x 1.726090 0.000000 0.000000 
#    y 0.000000 1.726090 0.000000 
#    z 0.000000 0.000000 1.743900 
# 
# From -- ./inp_files/5114.got.cif
#   From: 2010.03.12/outbox.cif.g09.slc.cpg/sg134_3_cif.got.tgz:5114.got - 2010.04.06 18:17:22.
