data_PCOD8317428
_publ_section_title
;
Structure prediction by ZEFSAII (Michael W. Deem and Ramdas Pophale) SiO2 
 PCOD8317428
Probable space group: P 42/M B C
;
_chemical_formula_sum "Si O2"
_cell_formula_units_Z 128
_cell_length_a 17.498249
_cell_length_b 17.498249
_cell_length_c 22.748056
_cell_angle_alpha 90.000000
_cell_angle_beta 90.000000
_cell_angle_gamma 90.000000
_cell_volume 6965.198105
_symmetry_space_group_name_H-M "P 42/M B C"
_symmetry_group_IT_number 135
_symmetry_cell_setting 'tetragonal'
loop_
_space_group_symop_operation_xyz
x,y,z
-y,x,1/2+z
-x,-y,z
y,-x,1/2+z
1/2+x,1/2-y,-z
1/2-x,1/2+y,-z
1/2+y,1/2+x,1/2-z
1/2-y,1/2-x,1/2-z
-x,-y,-z
y,-x,1/2-z
x,y,-z
-y,x,1/2-z
1/2-x,1/2+y,z
1/2+x,1/2-y,z
1/2-y,1/2-x,1/2+z
1/2+y,1/2+x,1/2+z
loop_
_atom_site_type_symbol
_atom_site_label
_atom_site_fract_x
_atom_site_fract_y
_atom_site_fract_z
Si Si1 0.720751 0.586855 0.068139
Si Si2 0.088798 0.158378 0.871059
Si Si3 0.082827 0.497689 0.432672
Si Si4 0.857606 0.314397 0.067994
Si Si5 0.414944 0.413153 0.250126
Si Si6 0.311953 0.863633 0.570135
Si Si7 0.781352 0.917273 0.931547
Si Si8 0.836194 0.911112 0.630152
O O1 0.783731 0.648855 0.087586
O O2 0.750741 0.501776 0.083448
O O3 0.639647 0.599913 0.098870
O O4 0.705027 0.595440 0.000000
O O5 0.099281 0.147490 0.801174
O O6 0.129373 0.235122 0.892926
O O7 0.135780 0.090664 0.901865
O O8 0.999616 0.155266 0.889299
O O9 0.070706 0.473538 0.500000
O O10 0.120403 0.579637 0.426176
O O11 0.135199 0.431802 0.405174
O O12 0.000000 0.500000 0.401126
O O13 0.778649 0.352606 0.089578
O O14 0.878927 0.246245 0.111708
O O15 0.852538 0.285272 0.000000
O O16 0.404822 0.498930 0.224126
O O17 0.401983 0.349535 0.199932
O O18 0.295551 0.869736 0.500000
O O19 0.793588 0.907109 0.000000
#
# Coordination Sequence:
#
# PCOD8317428 Si02
#       8
#    16  16  16  16  16  16  16  16
#     4  10  21  35  52  77 113 152 183 216 267 329
#     4  11  21  35  56  80 106 136 181 232 283 327
#     4   9  16  28  50  78 111 151 187 215 253 316
#     4  10  19  33  52  80 115 146 180 223 270 323
#     4   9  20  38  57  76 104 142 181 227 278 330
#     4  10  19  33  52  80 115 146 180 223 270 323
#     4  10  21  35  52  77 113 152 183 216 267 329
#     4  11  21  35  56  80 106 136 181 232 283 327
#
# _framework density 18.377081
#
# number of rings (size 3 to 8) (size 9 to 14) (size 15 to 20)
#    0.000    2.000    1.250    3.000    0.000    8.000 
#    0.000    3.750    0.000    0.000    0.000    0.000 
#    0.000    0.000    0.000    0.000    0.000    0.000 
#
# Total GULP energy -1586716.606600 kJ/mol
# GULP energy per Si atom -12396.223489 kJ/mol
# Density = 1.833525 g / cm^3
# Si number density = 18.377081 Si / 1000 Ang^3
#
#
#
# Elastic Constant Matrix: (Units=GPa)
#
#
# Indices 1 2 3 4 5 6 
#
# 1 107.5391 48.9598 54.8111 0.0000 0.0000 0.0000
# 2 48.9598 107.5391 54.8111 0.0000 0.0000 0.0000
# 3 54.8111 54.8111 59.3283 0.0000 0.0000 0.0000
# 4 0.0000 0.0000 0.0000 2.9105 0.0000 0.0000
# 5 0.0000 0.0000 0.0000 0.0000 2.9105 0.0000
# 6 0.0000 0.0000 0.0000 0.0000 0.0000 31.0903
#
#
#
# Elastic Compliance Matrix: (Units=1/GPa)
#
#
# Indices 1 2 3 4 5 6 
#
# 1 0.017590 0.000519 -0.016730 0.000000 0.000000 0.000000
# 2 0.000519 0.017590 -0.016730 0.000000 0.000000 0.000000
# 3 -0.016730 -0.016730 0.047767 0.000000 0.000000 0.000000
# 4 0.000000 0.000000 0.000000 0.343581 0.000000 0.000000
# 5 0.000000 0.000000 0.000000 0.000000 0.343581 0.000000
# 6 0.000000 0.000000 0.000000 0.000000 0.000000 0.032164
#
#
# Mechanical properties :
#
#
# Convention : Reuss Voigt Hill
#
# Bulk Modulus (GPa) = 58.59842 65.73006 62.16424
# Shear Modulus (GPa) = 5.72185 15.10390 10.41287
#
# Velocity S-wave (km/s) = 1.76645 2.86997 2.38297
# Velocity P-wave (km/s) = 6.00969 6.84305 6.43986
#
# Compressibility (1/GPa) = 0.01706531
#
# Stress axis : x y z
#
# Youngs Moduli (GPa) = 56.85175 56.85175 20.93495
#
# Poissons Ratio (x) = -0.02949 0.35023
# Poissons Ratio (y) = -0.02949 0.35023
# Poissons Ratio (z) = 0.95111 0.95111
#
# Static dielectric constant tensor:
#      x y z
#    x 3.595780 0.000000 0.000000 
#    y 0.000000 3.595780 0.000000 
#    z 0.000000 0.000000 3.020030 
# 
# 
# High freq. dielectric constant tensor:
#      x y z
#    x 1.726060 0.000000 0.000000 
#    y 0.000000 1.726060 0.000000 
#    z 0.000000 0.000000 1.665170 
# 
# From -- ./inp_files/6255.got.cif
#   From: 2010.03.12/outbox.cif.g09.slc.cpg/sg135_4_cif.got.tgz:6255.got - 2010.04.06 18:31:24.
