data_PCOD8317085
_publ_section_title
;
Structure prediction by ZEFSAII (Michael W. Deem and Ramdas Pophale) SiO2 
 PCOD8317085
Probable space group: P 42/N N M
;
_chemical_formula_sum "Si O2"
_cell_formula_units_Z 72
_cell_length_a 24.625484
_cell_length_b 24.625484
_cell_length_c 7.285148
_cell_angle_alpha 90.000000
_cell_angle_beta 90.000000
_cell_angle_gamma 90.000000
_cell_volume 4417.819107
_symmetry_space_group_name_H-M "P 42/N N M"
_symmetry_group_IT_number 134
_space_group.IT_coordinate_system_code '2'
_symmetry_cell_setting 'tetragonal'
loop_
_space_group_symop_operation_xyz
x,y,z
1/2-y,x,1/2+z
1/2-x,1/2-y,z
y,1/2-x,1/2+z
x,1/2-y,1/2-z
1/2-x,y,1/2-z
y,x,-z
1/2-y,1/2-x,-z
-x,-y,-z
1/2+y,-x,1/2-z
1/2+x,1/2+y,-z
-y,1/2+x,1/2-z
-x,1/2+y,1/2+z
1/2+x,-y,1/2+z
-y,-x,z
1/2+y,1/2+x,z
loop_
_atom_site_type_symbol
_atom_site_label
_atom_site_fract_x
_atom_site_fract_y
_atom_site_fract_z
Si Si1 0.038058 0.538058 0.145222
Si Si2 0.398725 0.475958 0.063710
Si Si3 0.143874 0.856127 0.640819
Si Si4 0.914349 0.250000 0.250000
Si Si5 0.443141 0.556859 0.764586
Si Si6 0.461673 0.704494 0.100638
Si Si7 0.125078 0.874923 0.250346
O O1 0.063089 0.487153 0.257836
O O2 0.083720 0.583720 0.157526
O O3 0.971970 0.471970 0.080564
O O4 0.335023 0.485261 0.104555
O O5 0.414285 0.414285 0.000000
O O6 0.412248 0.514532 0.891860
O O7 0.200607 0.873983 0.721550
O O8 0.099203 0.900798 0.686958
O O9 0.153477 0.846524 0.423226
O O10 0.955721 0.262366 0.414065
O O11 0.471600 0.750000 0.250000
O O12 0.406760 0.669209 0.128904
#
# Coordination Sequence:
#
# PCOD8317085 Si02
#       7
#     8  16   8   8   8  16   8
#     4   8  17  28  48  69  96 125 155 194 246 299
#     4  10  20  32  48  74 101 127 162 206 249 300
#     4  11  20  33  52  70  94 131 173 216 254 284
#     4  12  22  35  54  68  96 132 175 220 254 288
#     4  10  17  32  49  74  99 125 166 204 247 304
#     4  11  21  35  53  72  97 134 172 208 254 305
#     4   9  18  34  49  71  93 122 168 216 246 288
#
# _framework density 16.297636000000001
#
# number of rings (size 3 to 8) (size 9 to 14) (size 15 to 20)
#    0.000    1.778    4.444    2.667    0.000    2.000 
#    0.000    0.000    0.000    0.333    0.000    0.000 
#    0.000    0.000    0.000    3.000    0.000    0.000 
#
# Total GULP energy -892172.294096 kJ/mol
# GULP energy per Si atom -12391.281862 kJ/mol
# Density = 1.626054 g / cm^3
# Si number density = 16.297636 Si / 1000 Ang^3
#
#
#
# Elastic Constant Matrix: (Units=GPa)
#
#
# Indices 1 2 3 4 5 6 
#
# 1 52.3056 61.6182 32.6278 0.0000 0.0000 0.0000
# 2 61.6182 52.3056 32.6278 0.0000 0.0000 0.0000
# 3 32.6278 32.6278 122.4835 0.0000 0.0000 0.0000
# 4 0.0000 0.0000 0.0000 -15.6563 0.0000 0.0000
# 5 0.0000 0.0000 0.0000 0.0000 -15.6563 0.0000
# 6 0.0000 0.0000 0.0000 0.0000 0.0000 23.1844
#
#
#
# Elastic Compliance Matrix: (Units=1/GPa)
#
#
# Indices 1 2 3 4 5 6 
#
# 1 -0.048511 0.058870 -0.002759 0.000000 0.000000 0.000000
# 2 0.058870 -0.048511 -0.002759 0.000000 0.000000 0.000000
# 3 -0.002759 -0.002759 0.009634 0.000000 0.000000 0.000000
# 4 0.000000 0.000000 0.000000 -0.063872 0.000000 0.000000
# 5 0.000000 0.000000 0.000000 0.000000 -0.063872 0.000000
# 6 0.000000 0.000000 0.000000 0.000000 0.000000 0.043133
#
#
# Mechanical properties :
#
#
# Convention : Reuss Voigt Hill
#
# Bulk Modulus (GPa) = 51.77625 53.42693 52.60159
# Shear Modulus (GPa) = -18.36448 5.05576 -6.65436
#
# Velocity S-wave (km/s) = -3.36045 1.76320 -2.02284
# Velocity P-wave (km/s) = 4.09650 6.08263 5.18554
#
# Compressibility (1/GPa) = 0.01931387
#
# Stress axis : x y z
#
# Youngs Moduli (GPa) = -20.61369 -20.61369 103.79427
#
# Poissons Ratio (x) = 1.21352 0.28640
# Poissons Ratio (y) = 1.21352 0.28640
# Poissons Ratio (z) = -0.05688 -0.05688
#
# Static dielectric constant tensor:
#      x y z
#    x 3.263310 0.000000 0.000000 
#    y 0.000000 3.263310 0.000000 
#    z 0.000000 0.000000 3.564070 
# 
# 
# High freq. dielectric constant tensor:
#      x y z
#    x 1.598820 0.000000 0.000000 
#    y 0.000000 1.598820 0.000000 
#    z 0.000000 0.000000 1.657740 
# 
# From -- ./inp_files/3085.got.cif
#   From: 2010.03.12/outbox.cif.g09.slc.cpg/sg134_2_cif.got.tgz:3085.got - 2010.04.06 18:17:22.
