data_PCOD8317950
_publ_section_title
;
Structure prediction by ZEFSAII (Michael W. Deem and Ramdas Pophale) SiO2 
 PCOD8317950
Probable space group: P 42/M N M
;
_chemical_formula_sum "Si O2"
_cell_formula_units_Z 96
_cell_length_a 23.976680
_cell_length_b 23.976680
_cell_length_c 8.864296
_cell_angle_alpha 90.000000
_cell_angle_beta 90.000000
_cell_angle_gamma 90.000000
_cell_volume 5095.916978
_symmetry_space_group_name_H-M "P 42/M N M"
_symmetry_group_IT_number 136
_symmetry_cell_setting 'tetragonal'
loop_
_space_group_symop_operation_xyz
x,y,z
1/2-y,1/2+x,1/2+z
-x,-y,z
1/2+y,1/2-x,1/2+z
1/2+x,1/2-y,1/2-z
1/2-x,1/2+y,1/2-z
y,x,-z
-y,-x,-z
-x,-y,-z
1/2+y,1/2-x,1/2-z
x,y,-z
1/2-y,1/2+x,1/2-z
1/2-x,1/2+y,1/2+z
1/2+x,1/2-y,1/2+z
-y,-x,z
y,x,z
loop_
_atom_site_type_symbol
_atom_site_label
_atom_site_fract_x
_atom_site_fract_y
_atom_site_fract_z
Si Si1 0.550050 0.637526 0.323853
Si Si2 0.992305 0.580014 0.675111
Si Si3 0.203358 0.479522 0.174583
Si Si4 0.261453 0.261453 0.179285
Si Si5 0.744721 0.619746 0.677488
Si Si6 0.809439 0.950724 0.323590
Si Si7 0.675096 0.324905 0.179748
O O1 0.539796 0.643565 0.500000
O O2 0.578200 0.578200 0.282409
O O3 0.592686 0.686033 0.271019
O O4 0.489872 0.641980 0.245084
O O5 0.983103 0.566085 0.500000
O O6 0.943696 0.552185 0.773453
O O7 0.990151 0.645398 0.707039
O O8 0.207022 0.423502 0.274369
O O9 0.249947 0.524001 0.223958
O O10 0.209778 0.462468 0.000000
O O11 0.322527 0.244906 0.237638
O O12 0.217083 0.217083 0.240243
O O13 0.260760 0.260760 0.000000
O O14 0.746719 0.631551 0.500000
O O15 0.819338 0.950802 0.500000
O O16 0.811889 0.887635 0.263775
O O17 0.681499 0.318502 0.000000
#
# Coordination Sequence:
#
# PCOD8317950 Si02
#       7
#    16  16  16   8  16  16   8
#     4   9  17  32  55  82 110 137 171 218 270 325
#     4  10  20  34  52  74 104 138 179 227 277 332
#     4   9  19  35  54  80 109 138 178 228 277 329
#     4  12  24  36  54  81 113 147 185 229 276 326
#     4  10  19  34  55  81 111 141 177 220 270 327
#     4   9  19  36  56  78 105 141 184 225 272 324
#     4  10  22  40  57  75 108 153 195 233 272 328
#
# _framework density 18.838609999999999
#
# number of rings (size 3 to 8) (size 9 to 14) (size 15 to 20)
#    0.000    2.333    0.833    2.250    0.000    4.333 
#    0.000    2.083    0.000    2.500    0.000    0.000 
#    0.000    0.000    0.000    0.000    0.000    0.000 
#
# Total GULP energy -1190422.320745 kJ/mol
# GULP energy per Si atom -12400.232508 kJ/mol
# Density = 1.879573 g / cm^3
# Si number density = 18.838610 Si / 1000 Ang^3
#
#
#
# Elastic Constant Matrix: (Units=GPa)
#
#
# Indices 1 2 3 4 5 6 
#
# 1 118.5028 50.5194 36.2334 0.0000 0.0000 0.0000
# 2 50.5194 118.5028 36.2333 0.0000 0.0000 0.0000
# 3 36.2334 36.2333 57.6579 0.0000 0.0000 0.0000
# 4 0.0000 0.0000 0.0000 28.1361 0.0000 0.0000
# 5 0.0000 0.0000 0.0000 0.0000 28.1361 0.0000
# 6 0.0000 0.0000 0.0000 0.0000 0.0000 20.5078
#
#
#
# Elastic Compliance Matrix: (Units=1/GPa)
#
#
# Indices 1 2 3 4 5 6 
#
# 1 0.011404 -0.003306 -0.005089 0.000000 0.000000 0.000000
# 2 -0.003306 0.011404 -0.005089 0.000000 0.000000 0.000000
# 3 -0.005089 -0.005089 0.023740 0.000000 0.000000 0.000000
# 4 0.000000 0.000000 0.000000 0.035541 0.000000 0.000000
# 5 0.000000 0.000000 0.000000 0.000000 0.035542 0.000000
# 6 0.000000 0.000000 0.000000 0.000000 0.000000 0.048762
#
#
# Mechanical properties :
#
#
# Convention : Reuss Voigt Hill
#
# Bulk Modulus (GPa) = 51.07260 60.07064 55.57162
# Shear Modulus (GPa) = 25.01414 26.80117 25.90765
#
# Velocity S-wave (km/s) = 3.64787 3.77592 3.71245
# Velocity P-wave (km/s) = 6.70165 7.13907 6.92381
#
# Compressibility (1/GPa) = 0.01957997
#
# Stress axis : x y z
#
# Youngs Moduli (GPa) = 87.68936 87.68953 42.12323
#
# Poissons Ratio (x) = 0.28987 0.21437
# Poissons Ratio (y) = 0.28986 0.21437
# Poissons Ratio (z) = 0.44626 0.44626
#
# Static dielectric constant tensor:
#      x y z
#    x 3.489600 0.000000 0.000000 
#    y 0.000000 3.489600 0.000000 
#    z 0.000000 0.000000 3.408990 
# 
# 
# High freq. dielectric constant tensor:
#      x y z
#    x 1.727390 0.000000 0.000000 
#    y 0.000000 1.727390 0.000000 
#    z 0.000000 0.000000 1.728990 
# 
# From -- ./inp_files/2060.got.cif
#   From: 2010.03.12/outbox.cif.g09.slc.cpg/sg136_2_cif.got.tgz:2060.got - 2010.04.06 18:39:43.
