data_PCOD8317373
_publ_section_title
;
Structure prediction by ZEFSAII (Michael W. Deem and Ramdas Pophale) SiO2 
 PCOD8317373
Probable space group: P 42/M B C
;
_chemical_formula_sum "Si O2"
_cell_formula_units_Z 80
_cell_length_a 16.407365
_cell_length_b 16.407365
_cell_length_c 13.910239
_cell_angle_alpha 90.000000
_cell_angle_beta 90.000000
_cell_angle_gamma 90.000000
_cell_volume 3744.658960
_symmetry_space_group_name_H-M "P 42/M B C"
_symmetry_group_IT_number 135
_symmetry_cell_setting 'tetragonal'
loop_
_space_group_symop_operation_xyz
x,y,z
-y,x,1/2+z
-x,-y,z
y,-x,1/2+z
1/2+x,1/2-y,-z
1/2-x,1/2+y,-z
1/2+y,1/2+x,1/2-z
1/2-y,1/2-x,1/2-z
-x,-y,-z
y,-x,1/2-z
x,y,-z
-y,x,1/2-z
1/2-x,1/2+y,z
1/2+x,1/2-y,z
1/2-y,1/2-x,1/2+z
1/2+y,1/2+x,1/2+z
loop_
_atom_site_type_symbol
_atom_site_label
_atom_site_fract_x
_atom_site_fract_y
_atom_site_fract_z
Si Si1 0.610394 0.455056 0.209123
Si Si2 0.637989 0.441556 0.000000
Si Si3 0.223920 0.161857 0.689602
Si Si4 0.508935 0.821532 0.500000
Si Si5 0.320863 0.867623 0.850445
Si Si6 0.160463 0.236544 0.000000
Si Si7 0.189844 0.651727 0.500000
O O1 0.534951 0.394979 0.226702
O O2 0.692436 0.408072 0.238270
O O3 0.605190 0.482193 0.097430
O O4 0.733327 0.453798 0.000000
O O5 0.608977 0.346549 0.000000
O O6 0.291799 0.208201 0.750000
O O7 0.150154 0.223766 0.660946
O O8 0.264950 0.118739 0.596291
O O9 0.453004 0.835600 0.594602
O O10 0.593120 0.875188 0.500000
O O11 0.369426 0.869426 0.750000
O O12 0.359141 0.790949 0.907149
O O13 0.252531 0.205742 0.000000
#
# Coordination Sequence:
#
# PCOD8317373 Si02
#       7
#    16   8  16   8  16   8   8
#     4  11  25  39  56  86 124 165 199 239 308 376
#     4  11  20  36  56  77 119 160 205 251 285 359
#     4  10  19  34  55  81 115 155 207 256 298 355
#     4  10  18  30  53  86 117 156 199 245 310 356
#     4   9  16  28  50  80 116 153 197 248 299 357
#     4   8  16  28  45  74 107 150 198 246 291 334
#     4   9  18  31  52  80 113 148 190 251 300 350
#
# _framework density 21.363762999999999
#
# number of rings (size 3 to 8) (size 9 to 14) (size 15 to 20)
#    0.000    2.200    0.000    6.600    0.000    3.200 
#    0.000    0.000    0.000    0.000    0.000    4.200 
#    0.000  110.400    0.000    0.000    0.000    0.000 
#
# Total GULP energy -991367.145009 kJ/mol
# GULP energy per Si atom -12392.089313 kJ/mol
# Density = 2.131514 g / cm^3
# Si number density = 21.363763 Si / 1000 Ang^3
#
#
#
# Elastic Constant Matrix: (Units=GPa)
#
#
# Indices 1 2 3 4 5 6 
#
# 1 68.0153 15.2096 35.1547 0.0000 0.0000 0.0000
# 2 15.2096 68.0153 35.1547 0.0000 0.0000 0.0000
# 3 35.1547 35.1547 176.1768 0.0000 0.0000 0.0000
# 4 0.0000 0.0000 0.0000 11.9809 0.0000 0.0000
# 5 0.0000 0.0000 0.0000 0.0000 11.9809 0.0000
# 6 0.0000 0.0000 0.0000 0.0000 0.0000 25.3716
#
#
#
# Elastic Compliance Matrix: (Units=1/GPa)
#
#
# Indices 1 2 3 4 5 6 
#
# 1 0.016695 -0.002243 -0.002884 0.000000 0.000000 0.000000
# 2 -0.002243 0.016695 -0.002884 0.000000 0.000000 0.000000
# 3 -0.002884 -0.002884 0.006827 0.000000 0.000000 0.000000
# 4 0.000000 0.000000 0.000000 0.083467 0.000000 0.000000
# 5 0.000000 0.000000 0.000000 0.000000 0.083467 0.000000
# 6 0.000000 0.000000 0.000000 0.000000 0.000000 0.039414
#
#
# Mechanical properties :
#
#
# Convention : Reuss Voigt Hill
#
# Bulk Modulus (GPa) = 41.32968 53.69394 47.51181
# Shear Modulus (GPa) = 18.47411 24.97922 21.72667
#
# Velocity S-wave (km/s) = 2.94384 3.42312 3.19248
# Velocity P-wave (km/s) = 5.56261 6.38838 5.98974
#
# Compressibility (1/GPa) = 0.02419568
#
# Stress axis : x y z
#
# Youngs Moduli (GPa) = 59.89960 59.89960 146.47762
#
# Poissons Ratio (x) = 0.13434 0.42241
# Poissons Ratio (y) = 0.13434 0.42241
# Poissons Ratio (z) = 0.17274 0.17274
#
# Static dielectric constant tensor:
#      x y z
#    x 3.620190 0.000000 0.000000 
#    y 0.000000 3.620190 0.000000 
#    z 0.000000 0.000000 4.360890 
# 
# 
# High freq. dielectric constant tensor:
#      x y z
#    x 1.804790 0.000000 0.000000 
#    y 0.000000 1.804790 0.000000 
#    z 0.000000 0.000000 1.859390 
# 
# From -- ./inp_files/3489.got.cif
#   From: 2010.03.12/outbox.cif.g09.slc.cpg/sg135_2_cif.got.tgz:3489.got - 2010.04.06 18:31:24.
