data_PCOD8317063
_publ_section_title
;
Structure prediction by ZEFSAII (Michael W. Deem and Ramdas Pophale) SiO2 
 PCOD8317063
Probable space group: P 42/N B C
;
_chemical_formula_sum "Si O2"
_cell_formula_units_Z 96
_cell_length_a 22.607667
_cell_length_b 22.607667
_cell_length_c 9.655800
_cell_angle_alpha 90.000000
_cell_angle_beta 90.000000
_cell_angle_gamma 90.000000
_cell_volume 4935.143178
_symmetry_space_group_name_H-M "P 42/N B C"
_symmetry_group_IT_number 133
_space_group.IT_coordinate_system_code '2'
_symmetry_cell_setting 'tetragonal'
loop_
_space_group_symop_operation_xyz
x,y,z
1/2-y,x,1/2+z
1/2-x,1/2-y,z
y,1/2-x,1/2+z
x,1/2-y,-z
1/2-x,y,-z
y,x,1/2-z
1/2-y,1/2-x,1/2-z
-x,-y,-z
1/2+y,-x,1/2-z
1/2+x,1/2+y,-z
-y,1/2+x,1/2-z
-x,1/2+y,z
1/2+x,-y,z
-y,-x,1/2+z
1/2+y,1/2+x,1/2+z
loop_
_atom_site_type_symbol
_atom_site_label
_atom_site_fract_x
_atom_site_fract_y
_atom_site_fract_z
Si Si1 0.599319 0.750000 0.500000
Si Si2 0.250000 0.052877 0.500000
Si Si3 0.623545 0.049742 0.188343
Si Si4 0.498228 0.747841 0.285118
Si Si5 0.425149 0.074852 0.250000
Si Si6 0.429619 0.429619 0.250000
Si Si7 0.122922 0.545465 0.133549
Si Si8 0.137696 0.122051 0.494918
O O1 0.559568 0.758890 0.364207
O O2 0.640751 0.692583 0.480937
O O3 0.199417 0.096301 0.442114
O O4 0.269078 0.010917 0.373807
O O5 0.693644 0.041919 0.207531
O O6 0.602932 0.107891 0.273112
O O7 0.585315 0.998583 0.265462
O O8 0.606503 0.056007 0.027029
O O9 0.465120 0.693201 0.357456
O O10 0.490385 0.084512 0.310267
O O11 0.413268 0.123452 0.133803
O O12 0.412305 0.391508 0.383355
#
# Coordination Sequence:
#
# PCOD8317063 Si02
#       8
#     8   8  16  16   8   8  16  16
#     4  12  20  43  64  80 126 187 218 258 328 372
#     4  12  24  35  64  96 122 171 230 272 300 370
#     4  12  26  41  65  96 127 165 210 262 325 392
#     4  12  22  44  64  86 132 174 207 256 331 391
#     4  12  21  40  60  89 130 164 206 273 328 382
#     4  12  21  40  60  89 130 164 206 273 328 382
#     4  12  26  41  65  96 127 165 210 262 325 392
#     4  12  22  37  63  92 122 174 228 266 309 371
#
# _framework density 19.452324000000001
#
# number of rings (size 3 to 8) (size 9 to 14) (size 15 to 20)
#    0.000    0.000   10.000    0.500    4.667    1.667 
#    0.000    0.000    0.000    4.500    0.000    2.333 
#    0.000    0.000    0.000    0.000    0.000    0.000 
#
# Total GULP energy -1190707.732017 kJ/mol
# GULP energy per Si atom -12403.205542 kJ/mol
# Density = 1.940805 g / cm^3
# Si number density = 19.452324 Si / 1000 Ang^3
#
#
#
# Elastic Constant Matrix: (Units=GPa)
#
#
# Indices 1 2 3 4 5 6 
#
# 1 79.7888 34.7370 20.6534 0.0000 0.0000 0.0000
# 2 34.7370 79.7876 20.6537 0.0000 0.0000 0.0000
# 3 20.6534 20.6537 118.6736 0.0000 0.0000 0.0000
# 4 0.0000 0.0000 0.0000 28.9078 0.0000 0.0000
# 5 0.0000 0.0000 0.0000 0.0000 28.9078 0.0000
# 6 0.0000 0.0000 0.0000 0.0000 0.0000 30.9550
#
#
#
# Elastic Compliance Matrix: (Units=1/GPa)
#
#
# Indices 1 2 3 4 5 6 
#
# 1 0.015757 -0.006440 -0.001621 0.000000 0.000000 0.000000
# 2 -0.006440 0.015757 -0.001621 0.000000 0.000000 0.000000
# 3 -0.001621 -0.001621 0.008991 0.000000 0.000000 0.000000
# 4 0.000000 0.000000 0.000000 0.034593 0.000000 0.000000
# 5 0.000000 0.000000 0.000000 0.000000 0.034593 0.000000
# 6 0.000000 0.000000 0.000000 0.000000 0.000000 0.032305
#
#
# Mechanical properties :
#
#
# Convention : Reuss Voigt Hill
#
# Bulk Modulus (GPa) = 47.30767 47.81535 47.56151
# Shear Modulus (GPa) = 29.68998 31.23451 30.46225
#
# Velocity S-wave (km/s) = 3.91102 4.01146 3.96156
# Velocity P-wave (km/s) = 6.69084 6.78895 6.74008
#
# Compressibility (1/GPa) = 0.02113822
#
# Stress axis : x y z
#
# Youngs Moduli (GPa) = 63.46540 63.46433 111.22427
#
# Poissons Ratio (x) = 0.40873 0.18033
# Poissons Ratio (y) = 0.40873 0.18035
# Poissons Ratio (z) = 0.10290 0.10291
#
# Static dielectric constant tensor:
#      x y z
#    x 3.411780 0.000000 0.000000 
#    y 0.000000 3.411800 0.000000 
#    z 0.000000 0.000000 3.677440 
# 
# 
# High freq. dielectric constant tensor:
#      x y z
#    x 1.740060 0.000000 0.000000 
#    y 0.000000 1.740060 0.000000 
#    z 0.000000 0.000000 1.779140 
# 
# From -- ./inp_files/1979.got.cif
#   From: 2010.03.12/outbox.cif.g09.slc.cpg/sg133_1_cif.got.tgz:1979.got - 2010.04.06 18:08:06.
