data_PCOD8317987
_publ_section_title
;
Structure prediction by ZEFSAII (Michael W. Deem and Ramdas Pophale) SiO2 
 PCOD8317987
Probable space group: P 42/M N M
;
_chemical_formula_sum "Si O2"
_cell_formula_units_Z 96
_cell_length_a 24.029658
_cell_length_b 24.029658
_cell_length_c 8.481788
_cell_angle_alpha 90.000000
_cell_angle_beta 90.000000
_cell_angle_gamma 90.000000
_cell_volume 4897.591886
_symmetry_space_group_name_H-M "P 42/M N M"
_symmetry_group_IT_number 136
_symmetry_cell_setting 'tetragonal'
loop_
_space_group_symop_operation_xyz
x,y,z
1/2-y,1/2+x,1/2+z
-x,-y,z
1/2+y,1/2-x,1/2+z
1/2+x,1/2-y,1/2-z
1/2-x,1/2+y,1/2-z
y,x,-z
-y,-x,-z
-x,-y,-z
1/2+y,1/2-x,1/2-z
x,y,-z
1/2-y,1/2+x,1/2-z
1/2-x,1/2+y,1/2+z
1/2+x,1/2-y,1/2+z
-y,-x,z
y,x,z
loop_
_atom_site_type_symbol
_atom_site_label
_atom_site_fract_x
_atom_site_fract_y
_atom_site_fract_z
Si Si1 0.789920 0.016414 0.183673
Si Si2 0.696699 0.933456 0.811911
Si Si3 0.724673 0.634338 0.818651
Si Si4 0.188727 0.274951 0.187177
Si Si5 0.500327 0.412131 0.687686
Si Si6 0.079728 0.527961 0.815361
O O1 0.741251 0.977857 0.254317
O O2 0.849979 0.001410 0.260544
O O3 0.775150 0.080175 0.211606
O O4 0.793308 0.004158 0.000000
O O5 0.718905 0.873826 0.750466
O O6 0.637477 0.945082 0.735161
O O7 0.690365 0.935155 0.000000
O O8 0.666669 0.666669 0.797291
O O9 0.775281 0.672216 0.756384
O O10 0.733448 0.617060 0.000000
O O11 0.217934 0.217934 0.250473
O O12 0.189790 0.273600 0.000000
O O13 0.497320 0.409660 0.500000
O O14 0.557331 0.442670 0.741117
O O15 0.447353 0.447353 0.750622
O O16 0.070931 0.469564 0.725979
O O17 0.079328 0.515842 0.000000
#
# Coordination Sequence:
#
# PCOD8317987 Si02
#       6
#    16  16  16  16  16  16
#     4  10  20  31  48  78 111 137 173 224 270 317
#     4  10  21  35  53  83 116 147 185 227 272 326
#     4   9  18  33  53  75  99 135 183 226 266 317
#     4   8  16  33  55  76 102 141 186 225 263 313
#     4   8  14  26  45  70 102 140 179 220 270 322
#     4  11  23  41  63  85 111 143 182 227 278 332
#
# _framework density 19.601469999999999
#
# number of rings (size 3 to 8) (size 9 to 14) (size 15 to 20)
#    0.000    2.667    0.000    4.000    2.333    2.333 
#    0.000    3.333    0.000    2.000    0.000    4.667 
#    0.000    0.000    0.000    0.000    0.000    0.000 
#
# Total GULP energy -1190144.078859 kJ/mol
# GULP energy per Si atom -12397.334155 kJ/mol
# Density = 1.955686 g / cm^3
# Si number density = 19.601470 Si / 1000 Ang^3
#
#
#
# Elastic Constant Matrix: (Units=GPa)
#
#
# Indices 1 2 3 4 5 6 
#
# 1 135.2668 78.5757 11.2998 0.0000 0.0000 0.0000
# 2 78.5757 135.2668 11.2998 0.0000 0.0000 0.0000
# 3 11.2998 11.2998 25.0225 0.0000 0.0000 0.0000
# 4 0.0000 0.0000 0.0000 17.6199 0.0000 0.0000
# 5 0.0000 0.0000 0.0000 0.0000 17.6199 0.0000
# 6 0.0000 0.0000 0.0000 0.0000 0.0000 23.8472
#
#
#
# Elastic Compliance Matrix: (Units=1/GPa)
#
#
# Indices 1 2 3 4 5 6 
#
# 1 0.011275 -0.006364 -0.002218 0.000000 0.000000 0.000000
# 2 -0.006364 0.011275 -0.002218 0.000000 0.000000 0.000000
# 3 -0.002218 -0.002218 0.041967 0.000000 0.000000 0.000000
# 4 0.000000 0.000000 0.000000 0.056754 0.000000 0.000000
# 5 0.000000 0.000000 0.000000 0.000000 0.056754 0.000000
# 6 0.000000 0.000000 0.000000 0.000000 0.000000 0.041934
#
#
# Mechanical properties :
#
#
# Convention : Reuss Voigt Hill
#
# Bulk Modulus (GPa) = 23.30033 55.32298 39.31166
# Shear Modulus (GPa) = 19.54165 24.77613 22.15889
#
# Velocity S-wave (km/s) = 3.16087 3.55913 3.36590
# Velocity P-wave (km/s) = 5.02338 6.72123 5.93335
#
# Compressibility (1/GPa) = 0.04291785
#
# Stress axis : x y z
#
# Youngs Moduli (GPa) = 88.69115 88.69115 23.82832
#
# Poissons Ratio (x) = 0.56446 0.05284
# Poissons Ratio (y) = 0.56446 0.05284
# Poissons Ratio (z) = 0.19668 0.19668
#
# Static dielectric constant tensor:
#      x y z
#    x 3.819300 0.000000 0.000000 
#    y 0.000000 3.819300 0.000000 
#    z 0.000000 0.000000 3.092820 
# 
# 
# High freq. dielectric constant tensor:
#      x y z
#    x 1.771190 0.000000 0.000000 
#    y 0.000000 1.771190 0.000000 
#    z 0.000000 0.000000 1.718500 
# 
# From -- ./inp_files/1986.got.cif
#   From: 2010.03.12/outbox.cif.g09.slc.cpg/sg136_1_cif.got.tgz:1986.got - 2010.04.06 18:39:43.
