data_PCOD8317552
_publ_section_title
;
Structure prediction by ZEFSAII (Michael W. Deem and Ramdas Pophale) SiO2 
 PCOD8317552
Probable space group: P 42/M B C
;
_chemical_formula_sum "Si O2"
_cell_formula_units_Z 116
_cell_length_a 18.237989
_cell_length_b 18.237989
_cell_length_c 15.887506
_cell_angle_alpha 90.000000
_cell_angle_beta 90.000000
_cell_angle_gamma 90.000000
_cell_volume 5284.569653
_symmetry_space_group_name_H-M "P 42/M B C"
_symmetry_group_IT_number 135
_symmetry_cell_setting 'tetragonal'
loop_
_space_group_symop_operation_xyz
x,y,z
-y,x,1/2+z
-x,-y,z
y,-x,1/2+z
1/2+x,1/2-y,-z
1/2-x,1/2+y,-z
1/2+y,1/2+x,1/2-z
1/2-y,1/2-x,1/2-z
-x,-y,-z
y,-x,1/2-z
x,y,-z
-y,x,1/2-z
1/2-x,1/2+y,z
1/2+x,1/2-y,z
1/2-y,1/2-x,1/2+z
1/2+y,1/2+x,1/2+z
loop_
_atom_site_type_symbol
_atom_site_label
_atom_site_fract_x
_atom_site_fract_y
_atom_site_fract_z
Si Si1 0.285739 0.037757 0.760266
Si Si2 0.000000 0.000000 0.750000
Si Si3 0.965062 0.664179 0.094145
Si Si4 0.598270 0.320112 0.092024
Si Si5 0.255273 0.688188 0.177119
Si Si6 0.141345 0.044773 0.675795
Si Si7 0.196853 0.817123 0.093768
Si Si8 0.174542 0.427540 0.096734
O O1 0.294368 0.121417 0.789864
O O2 0.199497 0.018787 0.746838
O O3 0.329368 0.023423 0.671214
O O4 0.317133 0.992726 0.837786
O O5 0.056617 0.052770 0.701771
O O6 0.911341 0.733398 0.094836
O O7 0.909726 0.597141 0.108305
O O8 0.002860 0.658731 0.000000
O O9 0.662008 0.340515 0.158955
O O10 0.520372 0.359589 0.107217
O O11 0.625236 0.345740 0.000000
O O12 0.251450 0.751450 0.250000
O O13 0.219955 0.730872 0.097580
O O14 0.168873 0.124573 0.648471
O O15 0.266284 0.865769 0.121577
O O16 0.173121 0.836503 0.000000
O O17 0.187126 0.453512 0.000000
#
# Coordination Sequence:
#
# PCOD8317552 Si02
#       8
#    16   4  16  16  16  16  16  16
#     4  11  23  38  61  94 130 167 207 275 328 392
#     4  12  24  40  58  92 132 184 210 272 304 396
#     4   9  19  37  63  94 121 161 216 264 323 392
#     4  10  21  38  62  90 123 165 214 267 319 383
#     4  12  24  39  59  96 128 165 219 268 335 391
#     4  11  23  39  61  91 133 172 226 257 334 391
#     4  11  23  41  64  93 130 173 223 279 327 393
#     4  10  21  38  65  97 126 166 218 269 330 392
#
# _framework density 21.950700000000001
#
# number of rings (size 3 to 8) (size 9 to 14) (size 15 to 20)
#    0.000    1.379    2.759    2.897    3.862    1.655 
#    0.000    2.759    0.000    1.655    0.000    1.931 
#    0.000    0.000    0.000    0.000    0.000    0.000 
#
# Total GULP energy -1437261.655988 kJ/mol
# GULP energy per Si atom -12390.186690 kJ/mol
# Density = 2.190074 g / cm^3
# Si number density = 21.950700 Si / 1000 Ang^3
#
#
#
# Elastic Constant Matrix: (Units=GPa)
#
#
# Indices 1 2 3 4 5 6 
#
# 1 80.6198 16.5076 24.8444 0.0000 0.0000 0.0000
# 2 16.5076 80.6198 24.8444 0.0000 0.0000 0.0000
# 3 24.8444 24.8444 95.1689 0.0000 0.0000 0.0000
# 4 0.0000 0.0000 0.0000 26.2337 0.0000 0.0000
# 5 0.0000 0.0000 0.0000 0.0000 26.2337 0.0000
# 6 0.0000 0.0000 0.0000 0.0000 0.0000 19.9616
#
#
#
# Elastic Compliance Matrix: (Units=1/GPa)
#
#
# Indices 1 2 3 4 5 6 
#
# 1 0.013740 -0.001857 -0.003102 0.000000 0.000000 0.000000
# 2 -0.001857 0.013740 -0.003102 0.000000 0.000000 0.000000
# 3 -0.003102 -0.003102 0.012127 0.000000 0.000000 0.000000
# 4 0.000000 0.000000 0.000000 0.038119 0.000000 0.000000
# 5 0.000000 0.000000 0.000000 0.000000 0.038119 0.000000
# 6 0.000000 0.000000 0.000000 0.000000 0.000000 0.050096
#
#
# Mechanical properties :
#
#
# Convention : Reuss Voigt Hill
#
# Bulk Modulus (GPa) = 42.58132 43.20014 42.89073
# Shear Modulus (GPa) = 26.33065 27.16662 26.74863
#
# Velocity S-wave (km/s) = 3.46719 3.52180 3.49460
# Velocity P-wave (km/s) = 5.95561 6.02168 5.98874
#
# Compressibility (1/GPa) = 0.02348448
#
# Stress axis : x y z
#
# Youngs Moduli (GPa) = 72.77920 72.77920 82.45886
#
# Poissons Ratio (x) = 0.13518 0.25579
# Poissons Ratio (y) = 0.13518 0.25579
# Poissons Ratio (z) = 0.22577 0.22577
#
# Static dielectric constant tensor:
#      x y z
#    x 3.788550 0.000000 0.000000 
#    y 0.000000 3.788550 0.000000 
#    z 0.000000 0.000000 4.228040 
# 
# 
# High freq. dielectric constant tensor:
#      x y z
#    x 1.850140 0.000000 0.000000 
#    y 0.000000 1.850140 0.000000 
#    z 0.000000 0.000000 1.868000 
# 
# From -- ./inp_files/4602.got.cif
#   From: 2010.03.12/outbox.cif.g09.slc.cpg/sg135_3_cif.got.tgz:4602.got - 2010.04.06 18:31:24.
