data_PCOD8317532
_publ_section_title
;
Structure prediction by ZEFSAII (Michael W. Deem and Ramdas Pophale) SiO2 
 PCOD8317532
Probable space group: P 42/M B C
;
_chemical_formula_sum "Si O2"
_cell_formula_units_Z 96
_cell_length_a 16.053169
_cell_length_b 16.053169
_cell_length_c 19.142455
_cell_angle_alpha 90.000000
_cell_angle_beta 90.000000
_cell_angle_gamma 90.000000
_cell_volume 4933.091721
_symmetry_space_group_name_H-M "P 42/M B C"
_symmetry_group_IT_number 135
_symmetry_cell_setting 'tetragonal'
loop_
_space_group_symop_operation_xyz
x,y,z
-y,x,1/2+z
-x,-y,z
y,-x,1/2+z
1/2+x,1/2-y,-z
1/2-x,1/2+y,-z
1/2+y,1/2+x,1/2-z
1/2-y,1/2-x,1/2-z
-x,-y,-z
y,-x,1/2-z
x,y,-z
-y,x,1/2-z
1/2-x,1/2+y,z
1/2+x,1/2-y,z
1/2-y,1/2-x,1/2+z
1/2+y,1/2+x,1/2+z
loop_
_atom_site_type_symbol
_atom_site_label
_atom_site_fract_x
_atom_site_fract_y
_atom_site_fract_z
Si Si1 0.712699 0.223035 0.078061
Si Si2 0.464210 0.623189 0.721913
Si Si3 0.282441 0.892738 0.294670
Si Si4 0.588054 0.966655 0.677963
Si Si5 0.041994 0.207154 0.418430
Si Si6 0.884890 0.321853 0.421434
O O1 0.639436 0.248675 0.130414
O O2 0.748479 0.130852 0.094212
O O3 0.780223 0.295125 0.086785
O O4 0.675570 0.224170 0.000000
O O5 0.554961 0.601513 0.751933
O O6 0.440002 0.711516 0.753080
O O7 0.463823 0.629934 0.636685
O O8 0.313946 0.813946 0.250000
O O9 0.356868 0.953588 0.310490
O O10 0.582988 0.917013 0.750000
O O11 0.625727 0.905816 0.621270
O O12 0.500000 0.000000 0.651058
O O13 0.034384 0.177205 0.500000
O O14 0.964302 0.266583 0.397363
O O15 0.902380 0.348699 0.500000
#
# Coordination Sequence:
#
# PCOD8317532 Si02
#       6
#    16  16  16  16  16  16
#     4  10  22  39  60  91 121 159 214 258 304 388
#     4  11  25  43  62  94 128 162 217 270 301 371
#     4  12  22  38  63  88 122 164 205 251 325 374
#     4  11  22  37  57  90 128 156 192 257 310 372
#     4  10  20  40  66  88 125 170 206 259 320 377
#     4  10  22  39  62  90 121 161 212 253 309 381
#
# _framework density 19.460411000000001
#
# number of rings (size 3 to 8) (size 9 to 14) (size 15 to 20)
#    0.000    1.333    3.333    3.000    2.333    1.667 
#    0.000    2.500    0.000    0.000    0.000    0.000 
#    0.000    0.000    0.000    0.000    0.000    0.000 
#
# Total GULP energy -1190222.455839 kJ/mol
# GULP energy per Si atom -12398.150582 kJ/mol
# Density = 1.941612 g / cm^3
# Si number density = 19.460411 Si / 1000 Ang^3
#
#
#
# Elastic Constant Matrix: (Units=GPa)
#
#
# Indices 1 2 3 4 5 6 
#
# 1 75.6977 9.8239 26.4139 0.0000 0.0000 0.0000
# 2 9.8239 75.6979 26.4145 0.0000 0.0000 0.0000
# 3 26.4139 26.4145 115.1139 0.0000 0.0000 0.0000
# 4 0.0000 0.0000 0.0000 -32.4748 0.0000 0.0000
# 5 0.0000 0.0000 0.0000 0.0000 -32.5740 0.0000
# 6 0.0000 0.0000 0.0000 0.0000 0.0000 24.3838
#
#
#
# Elastic Compliance Matrix: (Units=1/GPa)
#
#
# Indices 1 2 3 4 5 6 
#
# 1 0.014402 -0.000778 -0.003126 0.000000 0.000000 0.000000
# 2 -0.000778 0.014402 -0.003126 0.000000 0.000000 0.000000
# 3 -0.003126 -0.003126 0.010122 0.000000 0.000000 0.000000
# 4 0.000000 0.000000 0.000000 -0.030793 0.000000 0.000000
# 5 0.000000 0.000000 0.000000 0.000000 -0.030699 0.000000
# 6 0.000000 0.000000 0.000000 0.000000 0.000000 0.041011
#
#
# Mechanical properties :
#
#
# Convention : Reuss Voigt Hill
#
# Bulk Modulus (GPa) = 40.21711 43.53491 41.87601
# Shear Modulus (GPa) = 122.56611 5.45748 64.01180
#
# Velocity S-wave (km/s) = 7.94475 1.67645 5.74149
# Velocity P-wave (km/s) = 10.24059 5.11536 8.09434
#
# Compressibility (1/GPa) = 0.02486504
#
# Stress axis : x y z
#
# Youngs Moduli (GPa) = 69.43350 69.43340 98.79734
#
# Poissons Ratio (x) = 0.05404 0.30885
# Poissons Ratio (y) = 0.05404 0.30886
# Poissons Ratio (z) = 0.21706 0.21707
#
# Static dielectric constant tensor:
#      x y z
#    x 3.582000 0.000000 0.000000 
#    y 0.000000 3.581990 0.000000 
#    z 0.000000 0.000000 3.683170 
# 
# 
# High freq. dielectric constant tensor:
#      x y z
#    x 1.755170 0.000000 0.000000 
#    y 0.000000 1.755170 0.000000 
#    z 0.000000 0.000000 1.775880 
# 
# From -- ./inp_files/5407.got.cif
#   From: 2010.03.12/outbox.cif.g09.slc.cpg/sg135_3_cif.got.tgz:5407.got - 2010.04.06 18:31:24.
