data_PCOD8317619
_publ_section_title
;
Structure prediction by ZEFSAII (Michael W. Deem and Ramdas Pophale) SiO2 
 PCOD8317619
Probable space group: P 42/M B C
;
_chemical_formula_sum "Si O2"
_cell_formula_units_Z 128
_cell_length_a 18.760737
_cell_length_b 18.760737
_cell_length_c 22.366343
_cell_angle_alpha 90.000000
_cell_angle_beta 90.000000
_cell_angle_gamma 90.000000
_cell_volume 7872.175568
_symmetry_space_group_name_H-M "P 42/M B C"
_symmetry_group_IT_number 135
_symmetry_cell_setting 'tetragonal'
loop_
_space_group_symop_operation_xyz
x,y,z
-y,x,1/2+z
-x,-y,z
y,-x,1/2+z
1/2+x,1/2-y,-z
1/2-x,1/2+y,-z
1/2+y,1/2+x,1/2-z
1/2-y,1/2-x,1/2-z
-x,-y,-z
y,-x,1/2-z
x,y,-z
-y,x,1/2-z
1/2-x,1/2+y,z
1/2+x,1/2-y,z
1/2-y,1/2-x,1/2+z
1/2+y,1/2+x,1/2+z
loop_
_atom_site_type_symbol
_atom_site_label
_atom_site_fract_x
_atom_site_fract_y
_atom_site_fract_z
Si Si1 0.631881 0.232524 0.931126
Si Si2 0.555048 0.944712 0.931339
Si Si3 0.618775 0.000914 0.247319
Si Si4 0.119082 0.247971 0.568894
Si Si5 0.255578 0.651147 0.931854
Si Si6 0.487761 0.198213 0.131948
Si Si7 0.866295 0.232831 0.068413
Si Si8 0.482052 0.198422 0.376413
O O1 0.683883 0.167363 0.916703
O O2 0.672159 0.306342 0.916564
O O3 0.563980 0.225397 0.889328
O O4 0.607830 0.230457 0.000000
O O5 0.542928 0.869236 0.902368
O O6 0.634594 0.974113 0.924184
O O7 0.500000 0.000000 0.900456
O O8 0.535800 0.936014 0.000000
O O9 0.576423 0.076423 0.250000
O O10 0.563357 0.936644 0.250000
O O11 0.677913 0.994444 0.298915
O O12 0.664765 0.991974 0.188145
O O13 0.096530 0.248081 0.500000
O O14 0.160185 0.175089 0.584519
O O15 0.049417 0.252217 0.609547
O O16 0.187580 0.701669 0.925455
O O17 0.248315 0.587546 0.883709
O O18 0.259258 0.621952 0.000000
O O19 0.430372 0.260016 0.116489
O O20 0.895377 0.230002 0.000000
#
# Coordination Sequence:
#
# PCOD8317619 Si02
#       8
#    16  16  16  16  16  16  16  16
#     4   9  18  31  49  74 102 127 160 212 267 311
#     4  11  20  27  45  75  99 120 155 204 253 312
#     4  11  22  34  46  68 106 145 170 203 247 298
#     4   9  18  31  49  74 102 127 160 212 267 311
#     4   9  17  31  50  73  99 128 164 211 265 314
#     4  12  20  32  50  69  99 138 173 202 247 308
#     4   9  17  31  50  73  99 128 164 211 265 314
#     4  12  20  32  50  69  99 138 173 202 247 308
#
# _framework density 16.259799999999998
#
# number of rings (size 3 to 8) (size 9 to 14) (size 15 to 20)
#    0.000    1.750    2.500    6.000    0.000    2.000 
#    0.000    1.250    0.000    5.250    0.000    3.500 
#    0.000    2.000    0.000    0.000    0.000    0.000 
#
# Total GULP energy -1587004.854032 kJ/mol
# GULP energy per Si atom -12398.475422 kJ/mol
# Density = 1.622279 g / cm^3
# Si number density = 16.259800 Si / 1000 Ang^3
#
#
#
# Elastic Constant Matrix: (Units=GPa)
#
#
# Indices 1 2 3 4 5 6 
#
# 1 68.8985 26.3907 31.7691 0.0000 0.0000 0.0000
# 2 26.3907 68.8985 31.7691 0.0000 0.0000 0.0000
# 3 31.7691 31.7691 72.5968 0.0000 0.0000 0.0000
# 4 0.0000 0.0000 0.0000 26.1207 0.0000 0.0000
# 5 0.0000 0.0000 0.0000 0.0000 26.1268 0.0000
# 6 0.0000 0.0000 0.0000 0.0000 0.0000 29.0728
#
#
#
# Elastic Compliance Matrix: (Units=1/GPa)
#
#
# Indices 1 2 3 4 5 6 
#
# 1 0.019172 -0.004353 -0.006485 0.000000 0.000000 0.000000
# 2 -0.004353 0.019172 -0.006485 0.000000 0.000000 0.000000
# 3 -0.006485 -0.006485 0.019450 0.000000 0.000000 0.000000
# 4 0.000000 0.000000 0.000000 0.038284 0.000000 0.000000
# 5 0.000000 0.000000 0.000000 0.000000 0.038275 0.000000
# 6 0.000000 0.000000 0.000000 0.000000 0.000000 0.034396
#
#
# Mechanical properties :
#
#
# Convention : Reuss Voigt Hill
#
# Bulk Modulus (GPa) = 43.19985 43.36129 43.28057
# Shear Modulus (GPa) = 23.68433 24.29506 23.98970
#
# Velocity S-wave (km/s) = 3.82071 3.86966 3.84526
# Velocity P-wave (km/s) = 6.78896 6.83311 6.81107
#
# Compressibility (1/GPa) = 0.02314823
#
# Stress axis : x y z
#
# Youngs Moduli (GPa) = 52.16024 52.16025 51.41340
#
# Poissons Ratio (x) = 0.22708 0.33340
# Poissons Ratio (y) = 0.22708 0.33340
# Poissons Ratio (z) = 0.33824 0.33824
#
# Static dielectric constant tensor:
#      x y z
#    x 3.110330 0.000000 0.000000 
#    y 0.000000 3.110330 0.000000 
#    z 0.000000 0.000000 2.993520 
# 
# 
# High freq. dielectric constant tensor:
#      x y z
#    x 1.613880 0.000000 0.000000 
#    y 0.000000 1.613880 0.000000 
#    z 0.000000 0.000000 1.609810 
# 
# From -- ./inp_files/6266.got.cif
#   From: 2010.03.12/outbox.cif.g09.slc.cpg/sg135_4_cif.got.tgz:6266.got - 2010.04.06 18:31:24.
