data_PCOD8317844
_publ_section_title
;
Structure prediction by ZEFSAII (Michael W. Deem and Ramdas Pophale) SiO2 
 PCOD8317844
Probable space group: P 42/M N M
;
_chemical_formula_sum "Si O2"
_cell_formula_units_Z 96
_cell_length_a 13.693562
_cell_length_b 13.693562
_cell_length_c 30.749474
_cell_angle_alpha 90.000000
_cell_angle_beta 90.000000
_cell_angle_gamma 90.000000
_cell_volume 5765.945805
_symmetry_space_group_name_H-M "P 42/M N M"
_symmetry_group_IT_number 136
_symmetry_cell_setting 'tetragonal'
loop_
_space_group_symop_operation_xyz
x,y,z
1/2-y,1/2+x,1/2+z
-x,-y,z
1/2+y,1/2-x,1/2+z
1/2+x,1/2-y,1/2-z
1/2-x,1/2+y,1/2-z
y,x,-z
-y,-x,-z
-x,-y,-z
1/2+y,1/2-x,1/2-z
x,y,-z
1/2-y,1/2+x,1/2-z
1/2-x,1/2+y,1/2+z
1/2+x,1/2-y,1/2+z
-y,-x,z
y,x,z
loop_
_atom_site_type_symbol
_atom_site_label
_atom_site_fract_x
_atom_site_fract_y
_atom_site_fract_z
Si Si1 0.685899 0.161321 0.383800
Si Si2 0.540341 0.148715 0.238735
Si Si3 0.595844 0.750880 0.616260
Si Si4 0.536110 0.111017 0.857168
Si Si5 0.434168 0.723824 0.549601
Si Si6 0.781058 0.936448 0.816261
O O1 0.797746 0.202255 0.384123
O O2 0.632375 0.193727 0.427938
O O3 0.630801 0.204576 0.342011
O O4 0.678823 0.044194 0.381084
O O5 0.429136 0.113522 0.240507
O O6 0.565491 0.163185 0.188105
O O7 0.552590 0.248131 0.266120
O O8 0.701835 0.701835 0.615587
O O9 0.608260 0.867612 0.613250
O O10 0.536850 0.714645 0.574060
O O11 0.541229 0.717049 0.660389
O O12 0.500000 0.000000 0.848625
O O13 0.452070 0.755118 0.500000
O O14 0.380642 0.619359 0.552904
O O15 0.888420 0.888420 0.817220
#
# Coordination Sequence:
#
# PCOD8317844 Si02
#       6
#    16  16  16  16  16  16
#     4   9  17  31  52  75  99 129 168 212 256 301
#     4  11  16  28  47  70  95 126 169 218 248 283
#     4  11  22  34  50  74 104 138 173 212 256 307
#     4  12  18  32  53  74 101 134 174 215 253 301
#     4   9  18  33  54  79 106 137 170 202 247 311
#     4  10  19  31  47  70  99 134 170 206 253 303
#
# _framework density 16.649478999999999
#
# number of rings (size 3 to 8) (size 9 to 14) (size 15 to 20)
#    0.000    1.667    8.333    1.500    0.000    2.333 
#    0.000    3.333    0.000    0.500    0.000    0.000 
#    0.000    0.000    0.000    5.667    0.000    0.000 
#
# Total GULP energy -1190205.232885 kJ/mol
# GULP energy per Si atom -12397.971176 kJ/mol
# Density = 1.661158 g / cm^3
# Si number density = 16.649479 Si / 1000 Ang^3
#
#
#
# Elastic Constant Matrix: (Units=GPa)
#
#
# Indices 1 2 3 4 5 6 
#
# 1 76.0687 47.5331 31.1379 0.0000 0.0000 0.0000
# 2 47.5331 76.0687 31.1379 0.0000 0.0000 0.0000
# 3 31.1379 31.1379 93.9366 0.0000 0.0000 0.0000
# 4 0.0000 0.0000 0.0000 15.2035 0.0000 0.0000
# 5 0.0000 0.0000 0.0000 0.0000 15.2035 0.0000
# 6 0.0000 0.0000 0.0000 0.0000 0.0000 17.4722
#
#
#
# Elastic Compliance Matrix: (Units=1/GPa)
#
#
# Indices 1 2 3 4 5 6 
#
# 1 0.022378 -0.012666 -0.003220 0.000000 0.000000 0.000000
# 2 -0.012666 0.022378 -0.003220 0.000000 0.000000 0.000000
# 3 -0.003220 -0.003220 0.012780 0.000000 0.000000 0.000000
# 4 0.000000 0.000000 0.000000 0.065774 0.000000 0.000000
# 5 0.000000 0.000000 0.000000 0.000000 0.065774 0.000000
# 6 0.000000 0.000000 0.000000 0.000000 0.000000 0.057234
#
#
# Mechanical properties :
#
#
# Convention : Reuss Voigt Hill
#
# Bulk Modulus (GPa) = 51.74095 51.74353 51.74224
# Shear Modulus (GPa) = 17.18388 18.66020 17.92204
#
# Velocity S-wave (km/s) = 3.21611 3.35142 3.28446
# Velocity P-wave (km/s) = 6.70338 6.79129 6.74748
#
# Compressibility (1/GPa) = 0.01932705
#
# Stress axis : x y z
#
# Youngs Moduli (GPa) = 44.68616 44.68616 78.24805
#
# Poissons Ratio (x) = 0.56598 0.25192
# Poissons Ratio (y) = 0.56598 0.25192
# Poissons Ratio (z) = 0.14387 0.14387
#
# Static dielectric constant tensor:
#      x y z
#    x 2.974530 0.000000 0.000000 
#    y 0.000000 2.974530 0.000000 
#    z 0.000000 0.000000 3.118240 
# 
# 
# High freq. dielectric constant tensor:
#      x y z
#    x 1.616430 0.000000 0.000000 
#    y 0.000000 1.616430 0.000000 
#    z 0.000000 0.000000 1.632710 
# 
# From -- ./inp_files/9860.got.cif
#   From: 2010.03.12/outbox.cif.g09.slc.cpg/sg136_5_cif.got.tgz:9860.got - 2010.04.06 18:39:43.
