data_PCOD8317070
_publ_section_title
;
Structure prediction by ZEFSAII (Michael W. Deem and Ramdas Pophale) SiO2 
 PCOD8317070
Probable space group: P 42/N N M
;
_chemical_formula_sum "Si O2"
_cell_formula_units_Z 80
_cell_length_a 16.930057
_cell_length_b 16.930057
_cell_length_c 15.955800
_cell_angle_alpha 90.000000
_cell_angle_beta 90.000000
_cell_angle_gamma 90.000000
_cell_volume 4573.360374
_symmetry_space_group_name_H-M "P 42/N N M"
_symmetry_group_IT_number 134
_space_group.IT_coordinate_system_code '2'
_symmetry_cell_setting 'tetragonal'
loop_
_space_group_symop_operation_xyz
x,y,z
1/2-y,x,1/2+z
1/2-x,1/2-y,z
y,1/2-x,1/2+z
x,1/2-y,1/2-z
1/2-x,y,1/2-z
y,x,-z
1/2-y,1/2-x,-z
-x,-y,-z
1/2+y,-x,1/2-z
1/2+x,1/2+y,-z
-y,1/2+x,1/2-z
-x,1/2+y,1/2+z
1/2+x,-y,1/2+z
-y,-x,z
1/2+y,1/2+x,z
loop_
_atom_site_type_symbol
_atom_site_label
_atom_site_fract_x
_atom_site_fract_y
_atom_site_fract_z
Si Si1 0.157059 0.536406 0.901735
Si Si2 0.795419 0.920356 0.534500
Si Si3 0.250000 0.979094 0.750000
Si Si4 0.879256 0.620744 0.500000
Si Si5 0.089367 0.033957 0.329893
Si Si6 0.033832 0.404465 0.330590
O O1 0.109574 0.609574 0.941473
O O2 0.210474 0.570916 0.825295
O O3 0.097224 0.472511 0.864920
O O4 0.208805 0.495981 0.973411
O O5 0.852686 0.852686 0.500000
O O6 0.707666 0.886614 0.540121
O O7 0.826587 0.952235 0.624645
O O8 0.184347 0.032801 0.795165
O O9 0.939058 0.599485 0.573876
O O10 0.095518 0.047392 0.229201
O O11 0.053843 0.946158 0.348527
O O12 0.948174 0.448174 0.326507
#
# Coordination Sequence:
#
# PCOD8317070 Si02
#       6
#    16  16   8   8  16  16
#     4   9  16  28  50  74  99 132 171 218 261 302
#     4  10  19  32  48  74 107 140 176 209 257 308
#     4  10  16  32  52  78  96 128 166 222 268 308
#     4  12  22  34  50  76 114 148 164 208 260 328
#     4   8  16  31  52  73  96 131 182 225 247 289
#     4  10  21  36  55  76 101 139 181 215 257 313
#
# _framework density 17.492608000000001
#
# number of rings (size 3 to 8) (size 9 to 14) (size 15 to 20)
#    0.000    2.400    2.000    3.000    0.000    3.200 
#    0.000    0.000    0.000    4.800    0.000    0.000 
#    0.000    0.000    0.000    9.600    0.000    0.000 
#
# Total GULP energy -991048.116103 kJ/mol
# GULP energy per Si atom -12388.101451 kJ/mol
# Density = 1.745279 g / cm^3
# Si number density = 17.492608 Si / 1000 Ang^3
#
#
#
# Elastic Constant Matrix: (Units=GPa)
#
#
# Indices 1 2 3 4 5 6 
#
# 1 62.2940 47.1710 37.6046 0.0000 0.0000 0.0000
# 2 47.1710 62.2940 37.6046 0.0000 0.0000 0.0000
# 3 37.6046 37.6046 104.6092 0.0000 0.0000 0.0000
# 4 0.0000 0.0000 0.0000 24.9163 0.0000 0.0000
# 5 0.0000 0.0000 0.0000 0.0000 24.9163 0.0000
# 6 0.0000 0.0000 0.0000 0.0000 0.0000 20.0800
#
#
#
# Elastic Compliance Matrix: (Units=1/GPa)
#
#
# Indices 1 2 3 4 5 6 
#
# 1 0.039128 -0.026996 -0.004361 0.000000 0.000000 0.000000
# 2 -0.026996 0.039128 -0.004361 0.000000 0.000000 0.000000
# 3 -0.004361 -0.004361 0.012695 0.000000 0.000000 0.000000
# 4 0.000000 0.000000 0.000000 0.040134 0.000000 0.000000
# 5 0.000000 0.000000 0.000000 0.000000 0.040134 0.000000
# 6 0.000000 0.000000 0.000000 0.000000 0.000000 0.049801
#
#
# Mechanical properties :
#
#
# Convention : Reuss Voigt Hill
#
# Bulk Modulus (GPa) = 51.24554 52.66194 51.95374
# Shear Modulus (GPa) = 16.72456 21.10365 18.91410
#
# Velocity S-wave (km/s) = 3.09543 3.47714 3.29182
# Velocity P-wave (km/s) = 6.49113 6.80377 6.64929
#
# Compressibility (1/GPa) = 0.01951389
#
# Stress axis : x y z
#
# Youngs Moduli (GPa) = 25.55719 25.55719 78.77253
#
# Poissons Ratio (x) = 0.68995 0.34353
# Poissons Ratio (y) = 0.68995 0.34353
# Poissons Ratio (z) = 0.11146 0.11146
#
# Static dielectric constant tensor:
#      x y z
#    x 3.095300 0.000000 0.000000 
#    y 0.000000 3.095300 0.000000 
#    z 0.000000 0.000000 3.527620 
# 
# 
# High freq. dielectric constant tensor:
#      x y z
#    x 1.646890 0.000000 0.000000 
#    y 0.000000 1.646890 0.000000 
#    z 0.000000 0.000000 1.686250 
# 
# From -- ./inp_files/6402.got.cif
#   From: 2010.03.12/outbox.cif.g09.slc.cpg/sg134_4_cif.got.tgz:6402.got - 2010.04.06 18:17:22.
