data_PCOD8317091
_publ_section_title
;
Structure prediction by ZEFSAII (Michael W. Deem and Ramdas Pophale) SiO2 
 PCOD8317091
Probable space group: P 42/N N M
;
_chemical_formula_sum "Si O2"
_cell_formula_units_Z 96
_cell_length_a 25.814862
_cell_length_b 25.814862
_cell_length_c 10.221442
_cell_angle_alpha 90.000000
_cell_angle_beta 90.000000
_cell_angle_gamma 90.000000
_cell_volume 6811.641522
_symmetry_space_group_name_H-M "P 42/N N M"
_symmetry_group_IT_number 134
_space_group.IT_coordinate_system_code '2'
_symmetry_cell_setting 'tetragonal'
loop_
_space_group_symop_operation_xyz
x,y,z
1/2-y,x,1/2+z
1/2-x,1/2-y,z
y,1/2-x,1/2+z
x,1/2-y,1/2-z
1/2-x,y,1/2-z
y,x,-z
1/2-y,1/2-x,-z
-x,-y,-z
1/2+y,-x,1/2-z
1/2+x,1/2+y,-z
-y,1/2+x,1/2-z
-x,1/2+y,1/2+z
1/2+x,-y,1/2+z
-y,-x,z
1/2+y,1/2+x,z
loop_
_atom_site_type_symbol
_atom_site_label
_atom_site_fract_x
_atom_site_fract_y
_atom_site_fract_z
Si Si1 0.693005 0.107738 0.976307
Si Si2 0.849423 0.435257 0.221110
Si Si3 0.807278 0.461050 0.727382
Si Si4 0.608152 0.193598 0.480278
Si Si5 0.580154 0.506188 0.147092
Si Si6 0.088046 0.500848 0.349188
O O1 0.655010 0.155010 0.994694
O O2 0.687983 0.084592 0.832444
O O3 0.749403 0.131822 0.002914
O O4 0.681750 0.062822 0.084416
O O5 0.897348 0.397348 0.202552
O O6 0.812310 0.414836 0.335718
O O7 0.871965 0.492325 0.256641
O O8 0.750000 0.488005 0.750000
O O9 0.812745 0.438215 0.582708
O O10 0.858394 0.497633 0.735966
O O11 0.652162 0.152162 0.511427
O O12 0.541359 0.458642 0.138948
O O13 0.549267 0.556036 0.201926
O O14 0.601519 0.511806 0.999848
O O15 0.053803 0.553803 0.332734
#
# Coordination Sequence:
#
# PCOD8317091 Si02
#       6
#    16  16  16  16  16  16
#     4  10  20  29  38  55  78 103 132 171 214 247
#     4   9  16  28  41  56  76  95 123 165 208 247
#     4  10  19  29  41  57  78 105 132 164 206 248
#     4  10  18  29  44  54  68 102 143 178 206 232
#     4   8  14  23  42  64  76  93 125 168 207 232
#     4   9  14  24  42  62  78  96 130 170 197 231
#
# _framework density 14.09352
#
# number of rings (size 3 to 8) (size 9 to 14) (size 15 to 20)
#    0.000    2.667    1.667    3.000    0.000    0.333 
#    0.000    0.833    0.000   10.000    0.000    0.000 
#    0.000    0.000    0.000    0.000    0.000    3.333 
#
# Total GULP energy -1189293.373675 kJ/mol
# GULP energy per Si atom -12388.472642 kJ/mol
# Density = 1.406144 g / cm^3
# Si number density = 14.093520 Si / 1000 Ang^3
#
#
#
# Elastic Constant Matrix: (Units=GPa)
#
#
# Indices 1 2 3 4 5 6 
#
# 1 50.8147 26.7060 -1.3278 0.0000 0.0000 0.0000
# 2 26.7060 50.8147 -1.3278 0.0000 0.0000 0.0000
# 3 -1.3278 -1.3278 25.4507 0.0000 0.0000 0.0000
# 4 0.0000 0.0000 0.0000 17.1542 0.0000 0.0000
# 5 0.0000 0.0000 0.0000 0.0000 17.1542 0.0000
# 6 0.0000 0.0000 0.0000 0.0000 0.0000 16.0352
#
#
#
# Elastic Compliance Matrix: (Units=1/GPa)
#
#
# Indices 1 2 3 4 5 6 
#
# 1 0.027201 -0.014278 0.000674 0.000000 0.000000 0.000000
# 2 -0.014278 0.027201 0.000674 0.000000 0.000000 0.000000
# 3 0.000674 0.000674 0.039362 0.000000 0.000000 0.000000
# 4 0.000000 0.000000 0.000000 0.058295 0.000000 0.000000
# 5 0.000000 0.000000 0.000000 0.000000 0.058295 0.000000
# 6 0.000000 0.000000 0.000000 0.000000 0.000000 0.062363
#
#
# Mechanical properties :
#
#
# Convention : Reuss Voigt Hill
#
# Bulk Modulus (GPa) = 14.72657 19.46457 17.09557
# Shear Modulus (GPa) = 15.56616 16.93738 16.25177
#
# Velocity S-wave (km/s) = 3.32699 3.47044 3.39947
# Velocity P-wave (km/s) = 5.02298 5.46805 5.25024
#
# Compressibility (1/GPa) = 0.06790449
#
# Stress axis : x y z
#
# Youngs Moduli (GPa) = 36.76360 36.76360 25.40524
#
# Poissons Ratio (x) = 0.52491 -0.01713
# Poissons Ratio (y) = 0.52491 -0.01713
# Poissons Ratio (z) = -0.02479 -0.02479
#
# Static dielectric constant tensor:
#      x y z
#    x 2.835650 0.000000 0.000000 
#    y 0.000000 2.835650 0.000000 
#    z 0.000000 0.000000 2.931690 
# 
# 
# High freq. dielectric constant tensor:
#      x y z
#    x 1.508800 0.000000 0.000000 
#    y 0.000000 1.508800 0.000000 
#    z 0.000000 0.000000 1.541230 
# 
# From -- ./inp_files/3309.got.cif
#   From: 2010.03.12/outbox.cif.g09.slc.cpg/sg134_2_cif.got.tgz:3309.got - 2010.04.06 18:17:22.
