data_PCOD8317711
_publ_section_title
;
Structure prediction by ZEFSAII (Michael W. Deem and Ramdas Pophale) SiO2 
 PCOD8317711
Probable space group: P 42/M N M
;
_chemical_formula_sum "Si O2"
_cell_formula_units_Z 88
_cell_length_a 12.771231
_cell_length_b 12.771231
_cell_length_c 28.891388
_cell_angle_alpha 90.000000
_cell_angle_beta 90.000000
_cell_angle_gamma 90.000000
_cell_volume 4712.310808
_symmetry_space_group_name_H-M "P 42/M N M"
_symmetry_group_IT_number 136
_symmetry_cell_setting 'tetragonal'
loop_
_space_group_symop_operation_xyz
x,y,z
1/2-y,1/2+x,1/2+z
-x,-y,z
1/2+y,1/2-x,1/2+z
1/2+x,1/2-y,1/2-z
1/2-x,1/2+y,1/2-z
y,x,-z
-y,-x,-z
-x,-y,-z
1/2+y,1/2-x,1/2-z
x,y,-z
1/2-y,1/2+x,1/2-z
1/2-x,1/2+y,1/2+z
1/2+x,1/2-y,1/2+z
-y,-x,z
y,x,z
loop_
_atom_site_type_symbol
_atom_site_label
_atom_site_fract_x
_atom_site_fract_y
_atom_site_fract_z
Si Si1 0.415566 0.584435 0.824615
Si Si2 0.341709 0.917159 0.803484
Si Si3 0.867064 0.699191 0.853801
Si Si4 0.465667 0.218610 0.793726
Si Si5 0.166839 0.833162 0.947487
Si Si6 0.435708 0.737684 0.551164
Si Si7 0.234198 0.234198 0.366452
O O1 0.500000 0.500000 0.843269
O O2 0.470320 0.673047 0.793450
O O3 0.355453 0.644548 0.866180
O O4 0.463089 0.886282 0.796173
O O5 0.283840 0.901391 0.754285
O O6 0.299094 0.840487 0.842174
O O7 0.319260 0.034828 0.820200
O O8 0.814567 0.814567 0.847327
O O9 0.782481 0.611993 0.838135
O O10 0.898236 0.683185 0.908070
O O11 0.243510 0.756491 0.919791
O O12 0.047500 0.808761 0.934701
O O13 0.191924 0.808077 0.000000
O O14 0.438672 0.793296 0.500000
O O15 0.359999 0.640002 0.548080
#
# Coordination Sequence:
#
# PCOD8317711 Si02
#       7
#     8  16  16  16   8  16   8
#     4  10  24  42  59  80 108 150 197 250 284 336
#     4  11  22  36  55  81 114 152 191 234 280 334
#     4  11  22  34  56  85 117 152 195 229 278 346
#     4  11  23  38  59  79 112 156 197 235 289 338
#     4  10  17  32  56  83 118 155 191 232 289 352
#     4   9  18  33  54  83 119 156 191 233 287 348
#     4  10  22  37  56  85 117 152 190 235 286 347
#
# _framework density 18.674491
#
# number of rings (size 3 to 8) (size 9 to 14) (size 15 to 20)
#    0.000    1.636    3.636    1.364    3.818    1.091 
#    0.000    0.455    0.000    6.818    0.000    0.000 
#    0.000    0.000    0.000    0.000    0.000    0.000 
#
# Total GULP energy -1090606.298212 kJ/mol
# GULP energy per Si atom -12393.253389 kJ/mol
# Density = 1.863199 g / cm^3
# Si number density = 18.674491 Si / 1000 Ang^3
#
#
#
# Elastic Constant Matrix: (Units=GPa)
#
#
# Indices 1 2 3 4 5 6 
#
# 1 64.9498 45.7386 42.7411 0.0000 0.0000 0.0000
# 2 45.7386 64.9497 42.7410 0.0000 0.0000 0.0000
# 3 42.7411 42.7410 134.3707 0.0000 0.0000 0.0000
# 4 0.0000 0.0000 0.0000 -3.5300 0.0000 0.0000
# 5 0.0000 0.0000 0.0000 0.0000 -3.5298 0.0000
# 6 0.0000 0.0000 0.0000 0.0000 0.0000 34.8922
#
#
#
# Elastic Compliance Matrix: (Units=1/GPa)
#
#
# Indices 1 2 3 4 5 6 
#
# 1 0.032015 -0.020038 -0.003810 0.000000 0.000000 0.000000
# 2 -0.020038 0.032015 -0.003809 0.000000 0.000000 0.000000
# 3 -0.003810 -0.003809 0.009866 0.000000 0.000000 0.000000
# 4 0.000000 0.000000 0.000000 -0.283289 0.000000 0.000000
# 5 0.000000 0.000000 0.000000 0.000000 -0.283305 0.000000
# 6 0.000000 0.000000 0.000000 0.000000 0.000000 0.028660
#
#
# Mechanical properties :
#
#
# Convention : Reuss Voigt Hill
#
# Bulk Modulus (GPa) = 53.82032 58.52354 56.17193
# Shear Modulus (GPa) = -12.42140 14.43646 1.00753
#
# Velocity S-wave (km/s) = -2.58186 2.78341 0.73532
# Velocity P-wave (km/s) = 4.47156 6.46039 5.55569
#
# Compressibility (1/GPa) = 0.01858034
#
# Stress axis : x y z
#
# Youngs Moduli (GPa) = 31.23559 31.23561 101.36276
#
# Poissons Ratio (x) = 0.62591 0.38614
# Poissons Ratio (y) = 0.62591 0.38614
# Poissons Ratio (z) = 0.11899 0.11899
#
# Static dielectric constant tensor:
#      x y z
#    x 3.664340 0.000000 0.000000 
#    y 0.000000 3.664300 0.000000 
#    z 0.000000 0.000000 3.590950 
# 
# 
# High freq. dielectric constant tensor:
#      x y z
#    x 1.720020 0.000000 0.000000 
#    y 0.000000 1.720020 0.000000 
#    z 0.000000 0.000000 1.718320 
# 
# From -- ./inp_files/9794.got.cif
#   From: 2010.03.12/outbox.cif.g09.slc.cpg/sg136_5_cif.got.tgz:9794.got - 2010.04.06 18:39:43.
