data_PCOD8317810
_publ_section_title
;
Structure prediction by ZEFSAII (Michael W. Deem and Ramdas Pophale) SiO2 
 PCOD8317810
Probable space group: P 42/M N M
;
_chemical_formula_sum "Si O2"
_cell_formula_units_Z 112
_cell_length_a 19.022144
_cell_length_b 19.022144
_cell_length_c 18.624672
_cell_angle_alpha 90.000000
_cell_angle_beta 90.000000
_cell_angle_gamma 90.000000
_cell_volume 6739.187865
_symmetry_space_group_name_H-M "P 42/M N M"
_symmetry_group_IT_number 136
_symmetry_cell_setting 'tetragonal'
loop_
_space_group_symop_operation_xyz
x,y,z
1/2-y,1/2+x,1/2+z
-x,-y,z
1/2+y,1/2-x,1/2+z
1/2+x,1/2-y,1/2-z
1/2-x,1/2+y,1/2-z
y,x,-z
-y,-x,-z
-x,-y,-z
1/2+y,1/2-x,1/2-z
x,y,-z
1/2-y,1/2+x,1/2-z
1/2-x,1/2+y,1/2+z
1/2+x,1/2-y,1/2+z
-y,-x,z
y,x,z
loop_
_atom_site_type_symbol
_atom_site_label
_atom_site_fract_x
_atom_site_fract_y
_atom_site_fract_z
Si Si1 0.113502 0.998651 0.204627
Si Si2 0.968840 0.374364 0.916584
Si Si3 0.281994 0.504660 0.419945
Si Si4 0.147622 0.557831 0.829269
Si Si5 0.094628 0.204025 0.710132
Si Si6 0.256918 0.147543 0.137506
Si Si7 0.398029 0.902531 0.673124
O O1 0.069400 0.930601 0.228937
O O2 0.159773 0.977863 0.135600
O O3 0.161505 0.022693 0.271967
O O4 0.062653 0.062653 0.181689
O O5 0.894320 0.407542 0.894870
O O6 0.966707 0.291286 0.899826
O O7 0.029627 0.411674 0.870455
O O8 0.983462 0.389073 0.000000
O O9 0.306531 0.484056 0.500000
O O10 0.270235 0.588704 0.417846
O O11 0.229323 0.579000 0.840074
O O12 0.145305 0.473825 0.831764
O O13 0.114980 0.585278 0.755306
O O14 0.152107 0.152107 0.673221
O O15 0.124512 0.231178 0.784841
O O16 0.223156 0.223156 0.116632
O O17 0.341688 0.150560 0.137469
#
# Coordination Sequence:
#
# PCOD8317810 Si02
#       7
#    16  16  16  16  16  16  16
#     4   9  17  29  46  69  97 127 160 204 251 287
#     4  10  21  34  48  70 101 132 161 196 242 293
#     4   9  17  29  44  64  93 131 169 197 229 285
#     4  11  19  30  50  70  92 124 165 204 240 287
#     4   8  16  31  48  64  87 120 158 198 240 283
#     4   8  15  28  43  61  90 122 155 197 239 278
#     4  10  19  29  47  72  95 122 160 203 244 282
#
# _framework density 16.619212999999998
#
# number of rings (size 3 to 8) (size 9 to 14) (size 15 to 20)
#    0.000    2.714    1.429    2.571    0.000    2.571 
#    0.000    2.143    0.000    1.286    0.000    0.000 
#    0.000    1.714    0.000    3.571    0.000    0.000 
#
# Total GULP energy -1388451.180269 kJ/mol
# GULP energy per Si atom -12396.885538 kJ/mol
# Density = 1.658139 g / cm^3
# Si number density = 16.619213 Si / 1000 Ang^3
#
#
#
# Elastic Constant Matrix: (Units=GPa)
#
#
# Indices 1 2 3 4 5 6 
#
# 1 89.9963 58.9522 11.6192 0.0000 0.0000 0.0000
# 2 58.9522 89.9963 11.6192 0.0000 0.0000 0.0000
# 3 11.6192 11.6192 28.1395 0.0000 0.0000 0.0000
# 4 0.0000 0.0000 0.0000 15.5169 0.0000 0.0000
# 5 0.0000 0.0000 0.0000 0.0000 15.5169 0.0000
# 6 0.0000 0.0000 0.0000 0.0000 0.0000 26.6474
#
#
#
# Elastic Compliance Matrix: (Units=1/GPa)
#
#
# Indices 1 2 3 4 5 6 
#
# 1 0.019694 -0.012518 -0.002963 0.000000 0.000000 0.000000
# 2 -0.012518 0.019694 -0.002963 0.000000 0.000000 0.000000
# 3 -0.002963 -0.002963 0.037984 0.000000 0.000000 0.000000
# 4 0.000000 0.000000 0.000000 0.064446 0.000000 0.000000
# 5 0.000000 0.000000 0.000000 0.000000 0.064446 0.000000
# 6 0.000000 0.000000 0.000000 0.000000 0.000000 0.037527
#
#
# Mechanical properties :
#
#
# Convention : Reuss Voigt Hill
#
# Bulk Modulus (GPa) = 24.70115 41.39036 33.04575
# Shear Modulus (GPa) = 16.99670 19.93232 18.46451
#
# Velocity S-wave (km/s) = 3.20146 3.46693 3.33683
# Velocity P-wave (km/s) = 5.34425 6.40198 5.89688
#
# Compressibility (1/GPa) = 0.04048395
#
# Stress axis : x y z
#
# Youngs Moduli (GPa) = 50.77655 50.77655 26.32671
#
# Poissons Ratio (x) = 0.63563 0.07801
# Poissons Ratio (y) = 0.63563 0.07801
# Poissons Ratio (z) = 0.15046 0.15046
#
# Static dielectric constant tensor:
#      x y z
#    x 3.231880 0.000000 0.000000 
#    y 0.000000 3.231880 0.000000 
#    z 0.000000 0.000000 2.854990 
# 
# 
# High freq. dielectric constant tensor:
#      x y z
#    x 1.633310 0.000000 0.000000 
#    y 0.000000 1.633310 0.000000 
#    z 0.000000 0.000000 1.603570 
# 
# From -- ./inp_files/7769.got.cif
#   From: 2010.03.12/outbox.cif.g09.slc.cpg/sg136_4_cif.got.tgz:7769.got - 2010.04.06 18:39:43.
