data_PCOD8317452
_publ_section_title
;
Structure prediction by ZEFSAII (Michael W. Deem and Ramdas Pophale) SiO2 
 PCOD8317452
Probable space group: P 42/M B C
;
_chemical_formula_sum "Si O2"
_cell_formula_units_Z 96
_cell_length_a 23.347342
_cell_length_b 23.347342
_cell_length_c 9.474234
_cell_angle_alpha 90.000000
_cell_angle_beta 90.000000
_cell_angle_gamma 90.000000
_cell_volume 5164.389591
_symmetry_space_group_name_H-M "P 42/M B C"
_symmetry_group_IT_number 135
_symmetry_cell_setting 'tetragonal'
loop_
_space_group_symop_operation_xyz
x,y,z
-y,x,1/2+z
-x,-y,z
y,-x,1/2+z
1/2+x,1/2-y,-z
1/2-x,1/2+y,-z
1/2+y,1/2+x,1/2-z
1/2-y,1/2-x,1/2-z
-x,-y,-z
y,-x,1/2-z
x,y,-z
-y,x,1/2-z
1/2-x,1/2+y,z
1/2+x,1/2-y,z
1/2-y,1/2-x,1/2+z
1/2+y,1/2+x,1/2+z
loop_
_atom_site_type_symbol
_atom_site_label
_atom_site_fract_x
_atom_site_fract_y
_atom_site_fract_z
Si Si1 0.783581 0.637371 0.334406
Si Si2 0.897514 0.899911 0.151966
Si Si3 0.210241 0.171106 0.157941
Si Si4 0.346307 0.486245 0.841641
Si Si5 0.239538 0.493223 0.337317
Si Si6 0.614512 0.809777 0.833676
O O1 0.836914 0.663087 0.250000
O O2 0.795282 0.642936 0.500000
O O3 0.726120 0.672486 0.292386
O O4 0.781491 0.570084 0.290335
O O5 0.831245 0.883066 0.151517
O O6 0.927199 0.869547 0.281428
O O7 0.898466 0.968528 0.166384
O O8 0.925254 0.881744 0.000000
O O9 0.259305 0.154903 0.269622
O O10 0.236038 0.181715 0.000000
O O11 0.294666 0.510398 0.750832
O O12 0.325318 0.474859 0.000000
O O13 0.257225 0.491111 0.500000
O O14 0.195856 0.545863 0.309095
O O15 0.632519 0.867482 0.750000
O O16 0.628021 0.813952 0.000000
#
# Coordination Sequence:
#
# PCOD8317452 Si02
#       6
#    16  16  16  16  16  16
#     4  10  21  37  57  82 112 145 180 222 274 329
#     4  10  21  37  54  76 111 149 186 236 285 324
#     4  10  19  35  57  81 115 150 181 226 279 329
#     4  11  22  35  56  81 105 145 197 238 274 328
#     4  10  21  39  59  80 111 150 182 223 282 334
#     4  11  23  37  58  85 115 148 185 227 275 335
#
# _framework density 18.588837999999999
#
# number of rings (size 3 to 8) (size 9 to 14) (size 15 to 20)
#    0.000    1.667    3.333    1.500    0.000    5.667 
#    0.000    1.667    0.000    0.500    0.000    3.500 
#    0.000    0.000    0.000    0.000    0.000    0.000 
#
# Total GULP energy -1189778.270125 kJ/mol
# GULP energy per Si atom -12393.523647 kJ/mol
# Density = 1.854653 g / cm^3
# Si number density = 18.588838 Si / 1000 Ang^3
#
#
#
# Elastic Constant Matrix: (Units=GPa)
#
#
# Indices 1 2 3 4 5 6 
#
# 1 83.9394 40.9901 44.2207 0.0000 0.0000 0.0000
# 2 40.9901 83.9389 44.2215 0.0000 0.0000 0.0000
# 3 44.2207 44.2215 93.7278 0.0000 0.0000 0.0000
# 4 0.0000 0.0000 0.0000 27.5347 0.0000 0.0000
# 5 0.0000 0.0000 0.0000 0.0000 27.5345 0.0000
# 6 0.0000 0.0000 0.0000 0.0000 0.0000 21.8307
#
#
#
# Elastic Compliance Matrix: (Units=1/GPa)
#
#
# Indices 1 2 3 4 5 6 
#
# 1 0.017651 -0.005632 -0.005670 0.000000 0.000000 0.000000
# 2 -0.005632 0.017651 -0.005671 0.000000 0.000000 0.000000
# 3 -0.005670 -0.005671 0.016020 0.000000 0.000000 0.000000
# 4 0.000000 0.000000 0.000000 0.036318 0.000000 0.000000
# 5 0.000000 0.000000 0.000000 0.000000 0.036318 0.000000
# 6 0.000000 0.000000 0.000000 0.000000 0.000000 0.045807
#
#
# Mechanical properties :
#
#
# Convention : Reuss Voigt Hill
#
# Bulk Modulus (GPa) = 57.55207 57.83007 57.69107
# Shear Modulus (GPa) = 23.86590 24.19156 24.02873
#
# Velocity S-wave (km/s) = 3.58702 3.61141 3.59923
# Velocity P-wave (km/s) = 6.94142 6.96903 6.95524
#
# Compressibility (1/GPa) = 0.01737557
#
# Stress axis : x y z
#
# Youngs Moduli (GPa) = 56.65399 56.65294 62.42196
#
# Poissons Ratio (x) = 0.31908 0.35396
# Poissons Ratio (y) = 0.31909 0.35398
# Poissons Ratio (z) = 0.32125 0.32127
#
# Static dielectric constant tensor:
#      x y z
#    x 3.384590 0.000000 0.000000 
#    y 0.000000 3.384590 0.000000 
#    z 0.000000 0.000000 3.537390 
# 
# 
# High freq. dielectric constant tensor:
#      x y z
#    x 1.708180 0.000000 0.000000 
#    y 0.000000 1.708180 0.000000 
#    z 0.000000 0.000000 1.729450 
# 
# From -- ./inp_files/1202.got.cif
#   From: 2010.03.12/outbox.cif.g09.slc.cpg/sg135_1_cif.got.tgz:1202.got - 2010.04.06 18:31:24.
