data_PCOD8317316
_publ_section_title
;
Structure prediction by ZEFSAII (Michael W. Deem and Ramdas Pophale) SiO2 
 PCOD8317316
Probable space group: P 42/N N M
;
_chemical_formula_sum "Si O2"
_cell_formula_units_Z 40
_cell_length_a 10.373181
_cell_length_b 10.373181
_cell_length_c 15.927513
_cell_angle_alpha 90.000000
_cell_angle_beta 90.000000
_cell_angle_gamma 90.000000
_cell_volume 1713.846335
_symmetry_space_group_name_H-M "P 42/N N M"
_symmetry_group_IT_number 134
_space_group.IT_coordinate_system_code '2'
_symmetry_cell_setting 'tetragonal'
loop_
_space_group_symop_operation_xyz
x,y,z
1/2-y,x,1/2+z
1/2-x,1/2-y,z
y,1/2-x,1/2+z
x,1/2-y,1/2-z
1/2-x,y,1/2-z
y,x,-z
1/2-y,1/2-x,-z
-x,-y,-z
1/2+y,-x,1/2-z
1/2+x,1/2+y,-z
-y,1/2+x,1/2-z
-x,1/2+y,1/2+z
1/2+x,-y,1/2+z
-y,-x,z
1/2+y,1/2+x,z
loop_
_atom_site_type_symbol
_atom_site_label
_atom_site_fract_x
_atom_site_fract_y
_atom_site_fract_z
Si Si1 0.993007 0.693862 0.832810
Si Si2 0.083051 0.250000 0.750000
Si Si3 0.140216 0.859785 0.143135
Si Si4 0.141901 0.641901 0.550759
O O1 0.063064 0.750000 0.750000
O O2 0.843741 0.670204 0.808441
O O3 0.058558 0.558558 0.859747
O O4 0.011224 0.801658 0.906097
O O5 0.994926 0.324544 0.684115
O O6 0.250000 0.750000 0.158006
O O7 0.113740 0.886260 0.045761
O O8 0.250000 0.750000 0.564346
#
# Coordination Sequence:
#
# PCOD8317316 Si02
#       4
#    16   8   8   8
#     4  11  21  40  65  95 128 175 227 275 327 394
#     4  12  22  38  66  98 138 179 223 264 340 410
#     4  11  20  41  63  95 142 185 212 274 335 404
#     4   9  22  37  67  99 131 177 232 277 328 384
#
# _framework density 23.339314000000002
#
# number of rings (size 3 to 8) (size 9 to 14) (size 15 to 20)
#    0.000    1.200    6.000    0.600    0.000    1.600 
#    0.000   10.000    0.000    4.800    0.000    0.000 
#    0.000    0.000    0.000    0.000    0.000    0.000 
#
# Total GULP energy -495594.602445 kJ/mol
# GULP energy per Si atom -12389.865061 kJ/mol
# Density = 2.328619 g / cm^3
# Si number density = 23.339314 Si / 1000 Ang^3
#
#
#
# Elastic Constant Matrix: (Units=GPa)
#
#
# Indices 1 2 3 4 5 6 
#
# 1 115.9862 70.1352 59.1693 0.0000 0.0000 0.0000
# 2 70.1352 115.9862 59.1693 0.0000 0.0000 0.0000
# 3 59.1693 59.1693 179.5501 0.0000 0.0000 0.0000
# 4 0.0000 0.0000 0.0000 10.8299 0.0000 0.0000
# 5 0.0000 0.0000 0.0000 0.0000 10.8299 0.0000
# 6 0.0000 0.0000 0.0000 0.0000 0.0000 50.8803
#
#
#
# Elastic Compliance Matrix: (Units=1/GPa)
#
#
# Indices 1 2 3 4 5 6 
#
# 1 0.014303 -0.007506 -0.002240 0.000000 0.000000 0.000000
# 2 -0.007506 0.014303 -0.002240 0.000000 0.000000 0.000000
# 3 -0.002240 -0.002240 0.007046 0.000000 0.000000 0.000000
# 4 0.000000 0.000000 0.000000 0.092337 0.000000 0.000000
# 5 0.000000 0.000000 0.000000 0.000000 0.092337 0.000000
# 6 0.000000 0.000000 0.000000 0.000000 0.000000 0.019654
#
#
# Mechanical properties :
#
#
# Convention : Reuss Voigt Hill
#
# Bulk Modulus (GPa) = 85.61526 87.60781 86.61154
# Shear Modulus (GPa) = 18.66749 29.37796 24.02273
#
# Velocity S-wave (km/s) = 2.83120 3.55171 3.21172
# Velocity P-wave (km/s) = 6.88840 7.37818 7.13749
#
# Compressibility (1/GPa) = 0.01168016
#
# Stress axis : x y z
#
# Youngs Moduli (GPa) = 69.91359 69.91359 141.92942
#
# Poissons Ratio (x) = 0.52480 0.31791
# Poissons Ratio (y) = 0.52480 0.31791
# Poissons Ratio (z) = 0.15660 0.15660
#
# Static dielectric constant tensor:
#      x y z
#    x 4.321670 0.000000 0.000000 
#    y 0.000000 4.321670 0.000000 
#    z 0.000000 0.000000 4.156690 
# 
# 
# High freq. dielectric constant tensor:
#      x y z
#    x 1.928280 0.000000 0.000000 
#    y 0.000000 1.928280 0.000000 
#    z 0.000000 0.000000 1.908230 
# 
# From -- ./inp_files/5770.got.cif
#   From: 2010.03.12/outbox.cif.g09.slc.cpg/sg134_3_cif.got.tgz:5770.got - 2010.04.06 18:17:22.
