data_PCOD8317372
_publ_section_title
;
Structure prediction by ZEFSAII (Michael W. Deem and Ramdas Pophale) SiO2 
 PCOD8317372
Probable space group: P 42/M B C
;
_chemical_formula_sum "Si O2"
_cell_formula_units_Z 96
_cell_length_a 25.157824
_cell_length_b 25.157824
_cell_length_c 8.979458
_cell_angle_alpha 90.000000
_cell_angle_beta 90.000000
_cell_angle_gamma 90.000000
_cell_volume 5683.243613
_symmetry_space_group_name_H-M "P 42/M B C"
_symmetry_group_IT_number 135
_symmetry_cell_setting 'tetragonal'
loop_
_space_group_symop_operation_xyz
x,y,z
-y,x,1/2+z
-x,-y,z
y,-x,1/2+z
1/2+x,1/2-y,-z
1/2-x,1/2+y,-z
1/2+y,1/2+x,1/2-z
1/2-y,1/2-x,1/2-z
-x,-y,-z
y,-x,1/2-z
x,y,-z
-y,x,1/2-z
1/2-x,1/2+y,z
1/2+x,1/2-y,z
1/2-y,1/2-x,1/2+z
1/2+y,1/2+x,1/2+z
loop_
_atom_site_type_symbol
_atom_site_label
_atom_site_fract_x
_atom_site_fract_y
_atom_site_fract_z
Si Si1 0.633847 0.438937 0.331627
Si Si2 0.249062 0.939661 0.825186
Si Si3 0.451731 0.250955 0.169488
Si Si4 0.143853 0.435581 0.323620
Si Si5 0.636169 0.941821 0.668981
Si Si6 0.143094 0.937105 0.672841
O O1 0.613896 0.429217 0.500000
O O2 0.694993 0.417580 0.313174
O O3 0.632152 0.501218 0.291576
O O4 0.595866 0.408637 0.218932
O O5 0.300405 0.914247 0.743911
O O6 0.194188 0.914754 0.762481
O O7 0.247533 0.002073 0.790788
O O8 0.253086 0.928848 0.000000
O O9 0.418559 0.196372 0.193736
O O10 0.476459 0.249548 0.000000
O O11 0.095899 0.404102 0.250000
O O12 0.144224 0.427257 0.500000
O O13 0.135359 0.497084 0.277732
O O14 0.593329 0.906672 0.750000
O O15 0.618688 0.938790 0.500000
O O16 0.154340 0.928439 0.500000
#
# Coordination Sequence:
#
# PCOD8317372 Si02
#       6
#    16  16  16  16  16  16
#     4   9  18  32  49  69  95 127 162 199 241 289
#     4  10  18  30  50  72  93 123 163 200 236 284
#     4   8  16  32  49  67  94 127 161 200 241 281
#     4  10  20  34  50  71  99 129 161 198 241 286
#     4   9  18  31  48  70  98 129 160 196 238 284
#     4  10  20  33  49  71 100 129 159 199 242 286
#
# _framework density 16.891763000000001
#
# number of rings (size 3 to 8) (size 9 to 14) (size 15 to 20)
#    0.000    2.667    0.000    4.500    0.000    7.333 
#    0.000    3.333    0.000    1.000    0.000    4.667 
#    0.000    0.000    0.000    0.000    0.000    0.000 
#
# Total GULP energy -1189705.013305 kJ/mol
# GULP energy per Si atom -12392.760555 kJ/mol
# Density = 1.685332 g / cm^3
# Si number density = 16.891763 Si / 1000 Ang^3
#
#
#
# Elastic Constant Matrix: (Units=GPa)
#
#
# Indices 1 2 3 4 5 6 
#
# 1 85.6374 56.6871 47.4141 0.0000 0.0000 0.0000
# 2 56.6871 85.6266 47.4196 0.0000 0.0000 0.0000
# 3 47.4141 47.4196 92.1115 0.0000 0.0000 0.0000
# 4 0.0000 0.0000 0.0000 28.6713 0.0000 0.0000
# 5 0.0000 0.0000 0.0000 0.0000 28.6713 0.0000
# 6 0.0000 0.0000 0.0000 0.0000 0.0000 0.2912
#
#
#
# Elastic Compliance Matrix: (Units=1/GPa)
#
#
# Indices 1 2 3 4 5 6 
#
# 1 0.022619 -0.011927 -0.005503 0.000000 0.000000 0.000000
# 2 -0.011927 0.022625 -0.005508 0.000000 0.000000 0.000000
# 3 -0.005503 -0.005508 0.016525 0.000000 0.000000 0.000000
# 4 0.000000 0.000000 0.000000 0.034878 0.000000 0.000000
# 5 0.000000 0.000000 0.000000 0.000000 0.034878 0.000000
# 6 0.000000 0.000000 0.000000 0.000000 0.000000 3.433819
#
#
# Mechanical properties :
#
#
# Convention : Reuss Voigt Hill
#
# Bulk Modulus (GPa) = 62.92258 62.93523 62.92890
# Shear Modulus (GPa) = 1.38255 18.98374 10.18314
#
# Velocity S-wave (km/s) = 0.90568 3.35602 2.45796
# Velocity P-wave (km/s) = 6.19879 7.23574 6.73725
#
# Compressibility (1/GPa) = 0.01589255
#
# Stress axis : x y z
#
# Youngs Moduli (GPa) = 44.21115 44.19928 60.51550
#
# Poissons Ratio (x) = 0.52715 0.33302
# Poissons Ratio (y) = 0.52729 0.33333
# Poissons Ratio (z) = 0.24329 0.24346
#
# Static dielectric constant tensor:
#      x y z
#    x 3.146800 0.000000 0.000000 
#    y 0.000000 3.146790 0.000000 
#    z 0.000000 0.000000 3.133760 
# 
# 
# High freq. dielectric constant tensor:
#      x y z
#    x 1.633910 0.000000 0.000000 
#    y 0.000000 1.633910 0.000000 
#    z 0.000000 0.000000 1.658420 
# 
# From -- ./inp_files/1208.got.cif
#   From: 2010.03.12/outbox.cif.g09.slc.cpg/sg135_1_cif.got.tgz:1208.got - 2010.04.06 18:31:24.
