data_PCOD8317973
_publ_section_title
;
Structure prediction by ZEFSAII (Michael W. Deem and Ramdas Pophale) SiO2 
 PCOD8317973
Probable space group: P 42/M N M
;
_chemical_formula_sum "Si O2"
_cell_formula_units_Z 112
_cell_length_a 15.623936
_cell_length_b 15.623936
_cell_length_c 21.448772
_cell_angle_alpha 90.000000
_cell_angle_beta 90.000000
_cell_angle_gamma 90.000000
_cell_volume 5235.803454
_symmetry_space_group_name_H-M "P 42/M N M"
_symmetry_group_IT_number 136
_symmetry_cell_setting 'tetragonal'
loop_
_space_group_symop_operation_xyz
x,y,z
1/2-y,1/2+x,1/2+z
-x,-y,z
1/2+y,1/2-x,1/2+z
1/2+x,1/2-y,1/2-z
1/2-x,1/2+y,1/2-z
y,x,-z
-y,-x,-z
-x,-y,-z
1/2+y,1/2-x,1/2-z
x,y,-z
1/2-y,1/2+x,1/2-z
1/2-x,1/2+y,1/2+z
1/2+x,1/2-y,1/2+z
-y,-x,z
y,x,z
loop_
_atom_site_type_symbol
_atom_site_label
_atom_site_fract_x
_atom_site_fract_y
_atom_site_fract_z
Si Si1 0.084965 0.354428 0.740757
Si Si2 0.957230 0.416475 0.644924
Si Si3 0.750286 0.112737 0.179016
Si Si4 0.688834 0.828433 0.568382
Si Si5 0.239697 0.375845 0.071490
Si Si6 0.539293 0.327034 0.258211
Si Si7 0.960333 0.823294 0.615352
O O1 0.039957 0.401238 0.799617
O O2 0.179441 0.394978 0.733290
O O3 0.098924 0.256308 0.759804
O O4 0.030607 0.359704 0.677253
O O5 0.898347 0.351285 0.604916
O O6 0.000000 0.500000 0.609318
O O7 0.795424 0.204577 0.183470
O O8 0.703737 0.108555 0.110980
O O9 0.818391 0.038474 0.192773
O O10 0.656483 0.862035 0.500000
O O11 0.749072 0.749072 0.555248
O O12 0.738770 0.901786 0.606312
O O13 0.288888 0.288888 0.095936
O O14 0.308075 0.453377 0.076632
O O15 0.215455 0.362447 0.000000
O O16 0.591969 0.408032 0.282539
O O17 0.510657 0.339556 0.186606
O O18 0.906463 0.906463 0.591379
#
# Coordination Sequence:
#
# PCOD8317973 Si02
#       7
#    16  16  16  16  16  16  16
#     4  12  19  37  59  92 119 149 196 258 325 377
#     4  12  22  39  66  93 123 156 207 274 327 380
#     4  11  21  34  55  82 121 166 202 245 313 386
#     4   9  17  31  55  85 114 153 213 275 317 361
#     4  11  25  42  59  87 130 176 218 257 314 397
#     4  11  22  35  55  87 123 155 195 250 312 383
#     4  10  19  35  59  87 121 161 210 265 315 371
#
# _framework density 21.391176000000002
#
# number of rings (size 3 to 8) (size 9 to 14) (size 15 to 20)
#    0.000    1.143    5.714    0.857    0.000    4.571 
#    0.000    2.143    0.000    3.000    0.000    2.000 
#    0.000    0.000    0.000    0.000    0.000    0.000 
#
# Total GULP energy -1387544.397490 kJ/mol
# GULP energy per Si atom -12388.789263 kJ/mol
# Density = 2.134249 g / cm^3
# Si number density = 21.391176 Si / 1000 Ang^3
#
#
#
# Elastic Constant Matrix: (Units=GPa)
#
#
# Indices 1 2 3 4 5 6 
#
# 1 86.0543 37.1733 38.9633 0.0000 0.0000 0.0000
# 2 37.1733 86.0543 38.9633 0.0000 0.0000 0.0000
# 3 38.9633 38.9633 87.0403 0.0000 0.0000 0.0000
# 4 0.0000 0.0000 0.0000 25.3499 0.0000 0.0000
# 5 0.0000 0.0000 0.0000 0.0000 25.3499 0.0000
# 6 0.0000 0.0000 0.0000 0.0000 0.0000 39.4223
#
#
#
# Elastic Compliance Matrix: (Units=1/GPa)
#
#
# Indices 1 2 3 4 5 6 
#
# 1 0.015889 -0.004569 -0.005067 0.000000 0.000000 0.000000
# 2 -0.004569 0.015889 -0.005067 0.000000 0.000000 0.000000
# 3 -0.005067 -0.005067 0.016025 0.000000 0.000000 0.000000
# 4 0.000000 0.000000 0.000000 0.039448 0.000000 0.000000
# 5 0.000000 0.000000 0.000000 0.000000 0.039448 0.000000
# 6 0.000000 0.000000 0.000000 0.000000 0.000000 0.025366
#
#
# Mechanical properties :
#
#
# Convention : Reuss Voigt Hill
#
# Bulk Modulus (GPa) = 54.35999 54.37209 54.36604
# Shear Modulus (GPa) = 26.65195 27.62769 27.13982
#
# Velocity S-wave (km/s) = 3.53361 3.59771 3.56580
# Velocity P-wave (km/s) = 6.48968 6.53691 6.51334
#
# Compressibility (1/GPa) = 0.01839588
#
# Stress axis : x y z
#
# Youngs Moduli (GPa) = 62.93815 62.93815 62.40073
#
# Poissons Ratio (x) = 0.28758 0.31619
# Poissons Ratio (y) = 0.28758 0.31619
# Poissons Ratio (z) = 0.31891 0.31891
#
# Static dielectric constant tensor:
#      x y z
#    x 3.796690 0.000000 0.000000 
#    y 0.000000 3.796690 0.000000 
#    z 0.000000 0.000000 3.799700 
# 
# 
# High freq. dielectric constant tensor:
#      x y z
#    x 1.833090 0.000000 0.000000 
#    y 0.000000 1.833090 0.000000 
#    z 0.000000 0.000000 1.813460 
# 
# From -- ./inp_files/8512.got.cif
#   From: 2010.03.12/outbox.cif.g09.slc.cpg/sg136_5_cif.got.tgz:8512.got - 2010.04.06 18:39:43.
