data_PCOD8317968
_publ_section_title
;
Structure prediction by ZEFSAII (Michael W. Deem and Ramdas Pophale) SiO2 
 PCOD8317968
Probable space group: P 42/M N M
;
_chemical_formula_sum "Si O2"
_cell_formula_units_Z 112
_cell_length_a 17.695153
_cell_length_b 17.695153
_cell_length_c 18.760098
_cell_angle_alpha 90.000000
_cell_angle_beta 90.000000
_cell_angle_gamma 90.000000
_cell_volume 5874.132614
_symmetry_space_group_name_H-M "P 42/M N M"
_symmetry_group_IT_number 136
_symmetry_cell_setting 'tetragonal'
loop_
_space_group_symop_operation_xyz
x,y,z
1/2-y,1/2+x,1/2+z
-x,-y,z
1/2+y,1/2-x,1/2+z
1/2+x,1/2-y,1/2-z
1/2-x,1/2+y,1/2-z
y,x,-z
-y,-x,-z
-x,-y,-z
1/2+y,1/2-x,1/2-z
x,y,-z
1/2-y,1/2+x,1/2-z
1/2-x,1/2+y,1/2+z
1/2+x,1/2-y,1/2+z
-y,-x,z
y,x,z
loop_
_atom_site_type_symbol
_atom_site_label
_atom_site_fract_x
_atom_site_fract_y
_atom_site_fract_z
Si Si1 0.966555 0.702422 0.341530
Si Si2 0.723136 0.939510 0.080976
Si Si3 0.705832 0.824271 0.421751
Si Si4 0.103261 0.779501 0.706695
Si Si5 0.592737 0.712336 0.632314
Si Si6 0.074307 0.451542 0.079659
Si Si7 0.347529 0.774367 0.716322
O O1 0.912554 0.716003 0.408283
O O2 0.915985 0.703162 0.269504
O O3 0.027724 0.769605 0.339404
O O4 0.014083 0.626285 0.357391
O O5 0.634242 0.950645 0.097053
O O6 0.752597 0.880075 0.139640
O O7 0.770426 0.017375 0.088269
O O8 0.736470 0.909881 0.000000
O O9 0.671456 0.811678 0.500000
O O10 0.788264 0.788264 0.414011
O O11 0.647272 0.785770 0.367778
O O12 0.152051 0.847950 0.673854
O O13 0.074596 0.801173 0.785393
O O14 0.151649 0.702982 0.705253
O O15 0.639627 0.639627 0.600914
O O16 0.000000 0.500000 0.079394
O O17 0.111983 0.454841 0.000000
O O18 0.294851 0.705150 0.745860
#
# Coordination Sequence:
#
# PCOD8317968 Si02
#       7
#    16  16  16  16  16  16  16
#     4  12  20  35  60  81 109 148 190 230 287 338
#     4  11  22  37  56  82 116 158 195 233 288 344
#     4  10  20  33  54  85 117 149 185 230 284 343
#     4  10  21  37  57  81 112 145 188 239 283 333
#     4  10  19  35  58  87 119 153 193 236 282 336
#     4  10  22  36  52  83 125 157 182 222 281 353
#     4  11  23  40  58  82 112 148 196 247 286 338
#
# _framework density 19.066645000000001
#
# number of rings (size 3 to 8) (size 9 to 14) (size 15 to 20)
#    0.000    1.429    4.286    2.143    0.000    2.286 
#    0.000    0.000    0.000    4.714    0.000    2.000 
#    0.000    0.000    0.000    0.000    0.000    0.000 
#
# Total GULP energy -1387924.704647 kJ/mol
# GULP energy per Si atom -12392.184863 kJ/mol
# Density = 1.902325 g / cm^3
# Si number density = 19.066645 Si / 1000 Ang^3
#
#
#
# Elastic Constant Matrix: (Units=GPa)
#
#
# Indices 1 2 3 4 5 6 
#
# 1 48.2042 9.3649 13.3856 0.0000 0.0000 0.0000
# 2 9.3649 48.2042 13.3856 0.0000 0.0000 0.0000
# 3 13.3856 13.3856 65.0402 0.0000 0.0000 0.0000
# 4 0.0000 0.0000 0.0000 25.2155 0.0000 0.0000
# 5 0.0000 0.0000 0.0000 0.0000 25.2155 0.0000
# 6 0.0000 0.0000 0.0000 0.0000 0.0000 27.0435
#
#
#
# Elastic Compliance Matrix: (Units=1/GPa)
#
#
# Indices 1 2 3 4 5 6 
#
# 1 0.022478 -0.003269 -0.003953 0.000000 0.000000 0.000000
# 2 -0.003269 0.022478 -0.003953 0.000000 0.000000 0.000000
# 3 -0.003953 -0.003953 0.017002 0.000000 0.000000 0.000000
# 4 0.000000 0.000000 0.000000 0.039658 0.000000 0.000000
# 5 0.000000 0.000000 0.000000 0.000000 0.039658 0.000000
# 6 0.000000 0.000000 0.000000 0.000000 0.000000 0.036978
#
#
# Mechanical properties :
#
#
# Convention : Reuss Voigt Hill
#
# Bulk Modulus (GPa) = 25.24814 25.96895 25.60854
# Shear Modulus (GPa) = 23.38571 23.84905 23.61738
#
# Velocity S-wave (km/s) = 3.50598 3.54054 3.52330
# Velocity P-wave (km/s) = 5.44610 5.51031 5.47830
#
# Compressibility (1/GPa) = 0.03960688
#
# Stress axis : x y z
#
# Youngs Moduli (GPa) = 44.48801 44.48801 58.81554
#
# Poissons Ratio (x) = 0.14544 0.23251
# Poissons Ratio (y) = 0.14544 0.23251
# Poissons Ratio (z) = 0.17587 0.17587
#
# Static dielectric constant tensor:
#      x y z
#    x 3.438150 0.000000 0.000000 
#    y 0.000000 3.438150 0.000000 
#    z 0.000000 0.000000 3.614770 
# 
# 
# High freq. dielectric constant tensor:
#      x y z
#    x 1.726540 0.000000 0.000000 
#    y 0.000000 1.726540 0.000000 
#    z 0.000000 0.000000 1.742540 
# 
# From -- ./inp_files/7748.got.cif
#   From: 2010.03.12/outbox.cif.g09.slc.cpg/sg136_4_cif.got.tgz:7748.got - 2010.04.06 18:39:43.
