data_PCOD8317880
_publ_section_title
;
Structure prediction by ZEFSAII (Michael W. Deem and Ramdas Pophale) SiO2 
 PCOD8317880
Probable space group: P 42/M N M
;
_chemical_formula_sum "Si O2"
_cell_formula_units_Z 112
_cell_length_a 13.440457
_cell_length_b 13.440457
_cell_length_c 33.764144
_cell_angle_alpha 90.000000
_cell_angle_beta 90.000000
_cell_angle_gamma 90.000000
_cell_volume 6099.353653
_symmetry_space_group_name_H-M "P 42/M N M"
_symmetry_group_IT_number 136
_symmetry_cell_setting 'tetragonal'
loop_
_space_group_symop_operation_xyz
x,y,z
1/2-y,1/2+x,1/2+z
-x,-y,z
1/2+y,1/2-x,1/2+z
1/2+x,1/2-y,1/2-z
1/2-x,1/2+y,1/2-z
y,x,-z
-y,-x,-z
-x,-y,-z
1/2+y,1/2-x,1/2-z
x,y,-z
1/2-y,1/2+x,1/2-z
1/2-x,1/2+y,1/2+z
1/2+x,1/2-y,1/2+z
-y,-x,z
y,x,z
loop_
_atom_site_type_symbol
_atom_site_label
_atom_site_fract_x
_atom_site_fract_y
_atom_site_fract_z
Si Si1 0.525525 0.794945 0.543565
Si Si2 0.446165 0.289468 0.308540
Si Si3 0.859401 0.303444 0.455450
Si Si4 0.211878 0.629534 0.832853
Si Si5 0.965767 0.608315 0.407704
Si Si6 0.995439 0.844588 0.888842
Si Si7 0.017980 0.339560 0.742369
O O1 0.563141 0.762473 0.500000
O O2 0.406723 0.800849 0.543676
O O3 0.581022 0.896828 0.554737
O O4 0.551469 0.713997 0.576473
O O5 0.398114 0.398114 0.299592
O O6 0.357552 0.213854 0.315669
O O7 0.516155 0.284068 0.347840
O O8 0.513016 0.254637 0.271796
O O9 0.899183 0.280357 0.500000
O O10 0.785446 0.214555 0.441449
O O11 0.948156 0.318406 0.423941
O O12 0.323089 0.676912 0.837986
O O13 0.171420 0.591106 0.874787
O O14 0.206838 0.540104 0.800923
O O15 0.000000 0.500000 0.390174
O O16 0.067015 0.932986 0.876759
O O17 0.888169 0.888169 0.902344
O O18 0.102970 0.413021 0.759049
#
# Coordination Sequence:
#
# PCOD8317880 Si02
#       7
#    16  16  16  16  16  16  16
#     4  10  19  32  50  75 106 139 179 224 265 310
#     4   9  18  34  52  72 104 140 174 217 269 321
#     4   9  18  33  52  76 105 135 171 220 272 314
#     4  10  20  34  53  79 108 137 172 220 270 313
#     4  10  20  32  56  80 105 139 181 215 262 319
#     4  10  20  32  47  70 102 142 180 212 259 325
#     4   9  19  32  54  78 102 131 176 219 262 314
#
# _framework density 18.362601000000002
#
# number of rings (size 3 to 8) (size 9 to 14) (size 15 to 20)
#    0.000    2.429    1.429    0.857    4.000    3.429 
#    0.000    1.429    0.000    2.571    0.000    1.000 
#    0.000    0.000    0.000    0.000    0.000    0.000 
#
# Total GULP energy -1387698.005369 kJ/mol
# GULP energy per Si atom -12390.160762 kJ/mol
# Density = 1.832081 g / cm^3
# Si number density = 18.362601 Si / 1000 Ang^3
#
#
#
# Elastic Constant Matrix: (Units=GPa)
#
#
# Indices 1 2 3 4 5 6 
#
# 1 67.5133 41.2072 46.7104 0.0000 0.0000 0.0000
# 2 41.2072 67.5133 46.7104 0.0000 0.0000 0.0000
# 3 46.7104 46.7104 121.0596 0.0000 0.0000 0.0000
# 4 0.0000 0.0000 0.0000 22.1673 0.0000 0.0000
# 5 0.0000 0.0000 0.0000 0.0000 22.1673 0.0000
# 6 0.0000 0.0000 0.0000 0.0000 0.0000 26.5684
#
#
#
# Elastic Compliance Matrix: (Units=1/GPa)
#
#
# Indices 1 2 3 4 5 6 
#
# 1 0.025887 -0.012127 -0.005309 0.000000 0.000000 0.000000
# 2 -0.012127 0.025887 -0.005309 0.000000 0.000000 0.000000
# 3 -0.005309 -0.005309 0.012357 0.000000 0.000000 0.000000
# 4 0.000000 0.000000 0.000000 0.045112 0.000000 0.000000
# 5 0.000000 0.000000 0.000000 0.000000 0.045112 0.000000
# 6 0.000000 0.000000 0.000000 0.000000 0.000000 0.037639
#
#
# Mechanical properties :
#
#
# Convention : Reuss Voigt Hill
#
# Bulk Modulus (GPa) = 53.64658 58.37135 56.00896
# Shear Modulus (GPa) = 20.51724 22.27782 21.39753
#
# Velocity S-wave (km/s) = 3.34629 3.48691 3.41732
# Velocity P-wave (km/s) = 6.64897 6.93315 6.79254
#
# Compressibility (1/GPa) = 0.01864052
#
# Stress axis : x y z
#
# Youngs Moduli (GPa) = 38.62947 38.62947 80.92255
#
# Poissons Ratio (x) = 0.46846 0.42964
# Poissons Ratio (y) = 0.46846 0.42964
# Poissons Ratio (z) = 0.20509 0.20509
#
# Static dielectric constant tensor:
#      x y z
#    x 3.390000 0.000000 0.000000 
#    y 0.000000 3.390000 0.000000 
#    z 0.000000 0.000000 3.451210 
# 
# 
# High freq. dielectric constant tensor:
#      x y z
#    x 1.691930 0.000000 0.000000 
#    y 0.000000 1.691930 0.000000 
#    z 0.000000 0.000000 1.716660 
# 
# From -- ./inp_files/9986.got.cif
#   From: 2010.03.12/outbox.cif.g09.slc.cpg/sg136_5_cif.got.tgz:9986.got - 2010.04.06 18:39:43.
