data_PCOD8317695
_publ_section_title
;
Structure prediction by ZEFSAII (Michael W. Deem and Ramdas Pophale) SiO2 
 PCOD8317695
Probable space group: P 42/M N M
;
_chemical_formula_sum "Si O2"
_cell_formula_units_Z 128
_cell_length_a 18.080992
_cell_length_b 18.080992
_cell_length_c 24.050019
_cell_angle_alpha 90.000000
_cell_angle_beta 90.000000
_cell_angle_gamma 90.000000
_cell_volume 7862.486846
_symmetry_space_group_name_H-M "P 42/M N M"
_symmetry_group_IT_number 136
_symmetry_cell_setting 'tetragonal'
loop_
_space_group_symop_operation_xyz
x,y,z
1/2-y,1/2+x,1/2+z
-x,-y,z
1/2+y,1/2-x,1/2+z
1/2+x,1/2-y,1/2-z
1/2-x,1/2+y,1/2-z
y,x,-z
-y,-x,-z
-x,-y,-z
1/2+y,1/2-x,1/2-z
x,y,-z
1/2-y,1/2+x,1/2-z
1/2-x,1/2+y,1/2+z
1/2+x,1/2-y,1/2+z
-y,-x,z
y,x,z
loop_
_atom_site_type_symbol
_atom_site_label
_atom_site_fract_x
_atom_site_fract_y
_atom_site_fract_z
Si Si1 0.500002 0.088435 0.563024
Si Si2 0.637870 0.086583 0.368675
Si Si3 0.362132 0.086587 0.368677
Si Si4 0.803479 0.082455 0.249321
Si Si5 0.196525 0.082458 0.249321
Si Si6 0.352699 0.147305 0.250001
Si Si7 0.917545 0.199314 0.380268
Si Si8 0.800683 0.917541 0.380269
O O1 0.500004 0.117339 0.500000
O O2 0.572558 0.121008 0.593851
O O3 0.427445 0.121010 0.593849
O O4 0.500000 0.000000 0.565557
O O5 0.622481 0.100927 0.303687
O O6 0.718033 0.116047 0.389736
O O7 0.639939 0.999998 0.377147
O O8 0.377522 0.100934 0.303689
O O9 0.281970 0.116051 0.389739
O O10 0.875113 0.124888 0.224486
O O11 0.732474 0.132230 0.234875
O O12 0.812597 0.075440 0.314915
O O13 0.797574 0.999998 0.223104
O O14 0.124892 0.124892 0.224487
O O15 0.267531 0.132231 0.234874
O O16 0.187410 0.075445 0.314916
O O17 0.861128 0.138873 0.406463
O O18 0.000002 0.189733 0.406793
O O19 0.861124 0.861124 0.406464
#
# Coordination Sequence:
#
# PCOD8317695 Si02
#       8
#    16  16  16  16  16  16  16  16
#     4   9  18  32  46  62  84 116 153 183 217 261
#     4   9  18  28  42  63  87 116 145 186 222 264
#     4   9  18  28  42  63  87 116 145 186 222 264
#     4   9  17  27  39  57  85 122 155 186 220 269
#     4   9  17  27  39  57  85 122 155 186 220 269
#     4  10  17  26  43  64  94 115 142 180 229 282
#     4   8  14  25  39  59  87 116 149 181 219 263
#     4   8  14  25  39  59  87 116 149 181 219 263
#
# _framework density 16.279837000000001
#
# number of rings (size 3 to 8) (size 9 to 14) (size 15 to 20)
#    0.000    3.125    0.000    2.625    3.500    1.500 
#    0.000    2.500    0.000    0.750    0.000    0.000 
#    0.000    0.000    0.000    9.750    0.000    9.000 
#
# Total GULP energy -1585940.464425 kJ/mol
# GULP energy per Si atom -12390.159878 kJ/mol
# Density = 1.624278 g / cm^3
# Si number density = 16.279837 Si / 1000 Ang^3
#
#
#
# Elastic Constant Matrix: (Units=GPa)
#
#
# Indices 1 2 3 4 5 6 
#
# 1 101.2316 64.2010 18.9076 0.0000 0.0000 0.0000
# 2 64.2010 101.2316 18.9076 0.0000 0.0000 0.0000
# 3 18.9076 18.9076 48.1661 0.0000 0.0000 0.0000
# 4 0.0000 0.0000 0.0000 6.0668 0.0000 0.0000
# 5 0.0000 0.0000 0.0000 0.0000 6.0668 0.0000
# 6 0.0000 0.0000 0.0000 0.0000 0.0000 25.5760
#
#
#
# Elastic Compliance Matrix: (Units=1/GPa)
#
#
# Indices 1 2 3 4 5 6 
#
# 1 0.016823 -0.010182 -0.002607 0.000000 0.000000 0.000000
# 2 -0.010182 0.016823 -0.002607 0.000000 0.000000 0.000000
# 3 -0.002607 -0.002607 0.022808 0.000000 0.000000 0.000000
# 4 0.000000 0.000000 0.000000 0.164832 0.000000 0.000000
# 5 0.000000 0.000000 0.000000 0.000000 0.164832 0.000000
# 6 0.000000 0.000000 0.000000 0.000000 0.000000 0.039099
#
#
# Mechanical properties :
#
#
# Convention : Reuss Voigt Hill
#
# Bulk Modulus (GPa) = 38.96778 50.51794 44.74286
# Shear Modulus (GPa) = 10.76285 17.44946 14.10615
#
# Velocity S-wave (km/s) = 2.57401 3.27746 2.94680
# Velocity P-wave (km/s) = 5.72907 6.73948 6.25471
#
# Compressibility (1/GPa) = 0.02566222
#
# Stress axis : x y z
#
# Youngs Moduli (GPa) = 59.44360 59.44360 43.84414
#
# Poissons Ratio (x) = 0.60526 0.11429
# Poissons Ratio (y) = 0.60526 0.11429
# Poissons Ratio (z) = 0.15496 0.15496
#
# Static dielectric constant tensor:
#      x y z
#    x 3.386370 0.000000 0.000000 
#    y 0.000000 3.386370 0.000000 
#    z 0.000000 0.000000 2.668420 
# 
# 
# High freq. dielectric constant tensor:
#      x y z
#    x 1.622250 0.000000 0.000000 
#    y 0.000000 1.622250 0.000000 
#    z 0.000000 0.000000 1.564450 
# 
# From -- ./inp_files/8674.got.cif
#   From: 2010.03.12/outbox.cif.g09.slc.cpg/sg136_5_cif.got.tgz:8674.got - 2010.04.06 18:39:43.
