data_PCOD8317305
_publ_section_title
;
Structure prediction by ZEFSAII (Michael W. Deem and Ramdas Pophale) SiO2 
 PCOD8317305
Probable space group: P 42/N N M
;
_chemical_formula_sum "Si O2"
_cell_formula_units_Z 128
_cell_length_a 18.084031
_cell_length_b 18.084031
_cell_length_c 22.591684
_cell_angle_alpha 90.000000
_cell_angle_beta 90.000000
_cell_angle_gamma 90.000000
_cell_volume 7388.207605
_symmetry_space_group_name_H-M "P 42/N N M"
_symmetry_group_IT_number 134
_space_group.IT_coordinate_system_code '2'
_symmetry_cell_setting 'tetragonal'
loop_
_space_group_symop_operation_xyz
x,y,z
1/2-y,x,1/2+z
1/2-x,1/2-y,z
y,1/2-x,1/2+z
x,1/2-y,1/2-z
1/2-x,y,1/2-z
y,x,-z
1/2-y,1/2-x,-z
-x,-y,-z
1/2+y,-x,1/2-z
1/2+x,1/2+y,-z
-y,1/2+x,1/2-z
-x,1/2+y,1/2+z
1/2+x,-y,1/2+z
-y,-x,z
1/2+y,1/2+x,z
loop_
_atom_site_type_symbol
_atom_site_label
_atom_site_fract_x
_atom_site_fract_y
_atom_site_fract_z
Si Si1 0.550332 0.829320 0.268784
Si Si2 0.379855 0.998975 0.852895
Si Si3 0.810766 0.689234 0.430496
Si Si4 0.877795 0.500659 0.500000
Si Si5 0.620146 0.498974 0.647105
Si Si6 0.949667 0.829320 0.768784
Si Si7 0.027416 0.220099 0.891676
Si Si8 0.779900 0.972583 0.108324
O O1 0.582930 0.750000 0.250000
O O2 0.497954 0.861674 0.217321
O O3 0.619031 0.880969 0.281795
O O4 0.504695 0.819410 0.329845
O O5 0.429022 0.070979 0.868244
O O6 0.361675 0.997954 0.782679
O O7 0.305428 0.000588 0.892116
O O8 0.424455 0.924455 0.868318
O O9 0.750000 0.750000 0.418510
O O10 0.824339 0.675662 0.500000
O O11 0.884631 0.718688 0.399686
O O12 0.781312 0.615369 0.399687
O O13 0.937189 0.437189 0.499999
O O14 0.825985 0.488990 0.556629
O O15 0.825985 0.488990 0.443371
O O16 0.919335 0.580666 0.500000
O O17 0.575546 0.424455 0.631682
O O18 0.694573 0.500587 0.607884
O O19 0.917070 0.750000 0.750000
O O20 0.995305 0.819410 0.829845
#
# Coordination Sequence:
#
# PCOD8317305 Si02
#       8
#    16  16  16  16  16  16  16  16
#     4   9  17  28  46  71 102 134 168 209 259 310
#     4   9  19  34  52  76 106 141 178 214 257 317
#     4  11  20  30  50  78 110 148 176 209 260 323
#     4  11  22  36  55  80 107 135 172 224 272 318
#     4   9  19  34  52  76 106 141 178 214 257 317
#     4   9  17  28  46  71 102 134 168 209 259 310
#     4  11  18  35  52  76 108 138 177 220 264 319
#     4  11  18  35  52  76 108 138 177 220 264 319
#
# _framework density 17.324905000000001
#
# number of rings (size 3 to 8) (size 9 to 14) (size 15 to 20)
#    0.000    2.000    3.750    0.750    0.000    2.250 
#    0.000    3.125    0.000    3.000    0.000    0.000 
#    0.000    0.000    0.000    0.000    0.000    0.000 
#
# Total GULP energy -1586850.673730 kJ/mol
# GULP energy per Si atom -12397.270889 kJ/mol
# Density = 1.728547 g / cm^3
# Si number density = 17.324905 Si / 1000 Ang^3
#
#
#
# Elastic Constant Matrix: (Units=GPa)
#
#
# Indices 1 2 3 4 5 6 
#
# 1 89.3035 47.9278 30.4512 0.0000 0.0000 0.0000
# 2 47.9278 89.3031 30.4510 0.0000 0.0000 0.0000
# 3 30.4512 30.4510 87.6642 0.0000 0.0000 0.0000
# 4 0.0000 0.0000 0.0000 16.8343 0.0000 0.0000
# 5 0.0000 0.0000 0.0000 0.0000 16.8337 0.0000
# 6 0.0000 0.0000 0.0000 0.0000 0.0000 29.1941
#
#
#
# Elastic Compliance Matrix: (Units=1/GPa)
#
#
# Indices 1 2 3 4 5 6 
#
# 1 0.016392 -0.007777 -0.002993 0.000000 0.000000 0.000000
# 2 -0.007777 0.016392 -0.002993 0.000000 0.000000 0.000000
# 3 -0.002993 -0.002993 0.013486 0.000000 0.000000 0.000000
# 4 0.000000 0.000000 0.000000 0.059403 0.000000 0.000000
# 5 0.000000 0.000000 0.000000 0.000000 0.059405 0.000000
# 6 0.000000 0.000000 0.000000 0.000000 0.000000 0.034254
#
#
# Mechanical properties :
#
#
# Convention : Reuss Voigt Hill
#
# Bulk Modulus (GPa) = 53.34441 53.77010 53.55726
# Shear Modulus (GPa) = 21.44969 23.06846 22.25907
#
# Velocity S-wave (km/s) = 3.52246 3.65296 3.58830
# Velocity P-wave (km/s) = 6.88484 6.99255 6.93891
#
# Compressibility (1/GPa) = 0.01874611
#
# Stress axis : x y z
#
# Youngs Moduli (GPa) = 61.00557 61.00539 74.15024
#
# Poissons Ratio (x) = 0.47443 0.22190
# Poissons Ratio (y) = 0.47444 0.22189
# Poissons Ratio (z) = 0.18256 0.18256
#
# Static dielectric constant tensor:
#      x y z
#    x 3.055550 0.000000 0.000000 
#    y 0.000000 3.055550 0.000000 
#    z 0.000000 0.000000 3.060940 
# 
# 
# High freq. dielectric constant tensor:
#      x y z
#    x 1.651040 0.000000 0.000000 
#    y 0.000000 1.651040 0.000000 
#    z 0.000000 0.000000 1.676550 
# 
# From -- ./inp_files/10313.got.cif
#   From: 2010.03.12/outbox.cif.g09.slc.cpg/sg134_6_cif.got.tgz:10313.got - 2010.04.06 18:17:22.
