data_PCOD8317754
_publ_section_title
;
Structure prediction by ZEFSAII (Michael W. Deem and Ramdas Pophale) SiO2 
 PCOD8317754
Probable space group: P 42/M N M
;
_chemical_formula_sum "Si O2"
_cell_formula_units_Z 128
_cell_length_a 19.619133
_cell_length_b 19.619133
_cell_length_c 17.281908
_cell_angle_alpha 90.000000
_cell_angle_beta 90.000000
_cell_angle_gamma 90.000000
_cell_volume 6651.985770
_symmetry_space_group_name_H-M "P 42/M N M"
_symmetry_group_IT_number 136
_symmetry_cell_setting 'tetragonal'
loop_
_space_group_symop_operation_xyz
x,y,z
1/2-y,1/2+x,1/2+z
-x,-y,z
1/2+y,1/2-x,1/2+z
1/2+x,1/2-y,1/2-z
1/2-x,1/2+y,1/2-z
y,x,-z
-y,-x,-z
-x,-y,-z
1/2+y,1/2-x,1/2-z
x,y,-z
1/2-y,1/2+x,1/2-z
1/2-x,1/2+y,1/2+z
1/2+x,1/2-y,1/2+z
-y,-x,z
y,x,z
loop_
_atom_site_type_symbol
_atom_site_label
_atom_site_fract_x
_atom_site_fract_y
_atom_site_fract_z
Si Si1 0.081821 0.809743 0.674063
Si Si2 0.491000 0.269719 0.413446
Si Si3 0.236890 0.655785 0.748061
Si Si4 0.157459 0.043727 0.231409
Si Si5 0.542311 0.821515 0.914356
Si Si6 0.625697 0.191406 0.416130
Si Si7 0.395550 0.209321 0.695482
Si Si8 0.488816 0.107145 0.769464
O O1 0.136002 0.863999 0.639254
O O2 0.056996 0.757092 0.608356
O O3 0.119379 0.768952 0.742976
O O4 0.017785 0.852071 0.708396
O O5 0.483466 0.299960 0.500000
O O6 0.515303 0.329703 0.355342
O O7 0.545647 0.208563 0.411526
O O8 0.416046 0.240875 0.387674
O O9 0.282407 0.717594 0.777777
O O10 0.276082 0.585008 0.761458
O O11 0.223780 0.665878 0.656125
O O12 0.168919 0.657973 0.801693
O O13 0.090335 0.090335 0.229941
O O14 0.610986 0.865247 0.912191
O O15 0.493645 0.863505 0.855238
O O16 0.509364 0.821890 0.000000
O O17 0.654198 0.218250 0.500000
O O18 0.465273 0.171890 0.720358
O O19 0.553720 0.074021 0.728565
#
# Coordination Sequence:
#
# PCOD8317754 Si02
#       8
#    16  16  16  16  16  16  16  16
#     4  10  20  34  55  81 107 139 179 225 281 338
#     4   9  18  32  51  79 111 145 181 221 271 326
#     4  10  18  30  49  76 104 135 176 217 267 326
#     4   9  20  35  56  82 107 141 182 227 277 334
#     4  10  20  33  52  78 111 141 176 230 281 320
#     4   9  16  28  47  72 106 139 166 207 266 322
#     4  10  19  29  52  72 106 141 183 225 269 317
#     4  10  20  33  51  75 105 151 196 221 257 319
#
# _framework density 19.242374000000002
#
# number of rings (size 3 to 8) (size 9 to 14) (size 15 to 20)
#    0.000    2.375    2.500    1.125    5.250    1.000 
#    0.000    5.625    0.000    9.750    0.000    6.125 
#    0.000    0.000    0.000    0.000    0.000    0.000 
#
# Total GULP energy -1585949.346893 kJ/mol
# GULP energy per Si atom -12390.229273 kJ/mol
# Density = 1.919858 g / cm^3
# Si number density = 19.242374 Si / 1000 Ang^3
#
#
#
# Elastic Constant Matrix: (Units=GPa)
#
#
# Indices 1 2 3 4 5 6 
#
# 1 62.9474 22.9713 32.8893 0.0000 0.0000 0.0000
# 2 22.9713 62.9474 32.8893 0.0000 0.0000 0.0000
# 3 32.8893 32.8893 90.6329 0.0000 0.0000 0.0000
# 4 0.0000 0.0000 0.0000 17.7921 0.0000 0.0000
# 5 0.0000 0.0000 0.0000 0.0000 17.7921 0.0000
# 6 0.0000 0.0000 0.0000 0.0000 0.0000 18.2357
#
#
#
# Elastic Compliance Matrix: (Units=1/GPa)
#
#
# Indices 1 2 3 4 5 6 
#
# 1 0.020566 -0.004449 -0.005848 0.000000 0.000000 0.000000
# 2 -0.004449 0.020566 -0.005848 0.000000 0.000000 0.000000
# 3 -0.005848 -0.005848 0.015278 0.000000 0.000000 0.000000
# 4 0.000000 0.000000 0.000000 0.056205 0.000000 0.000000
# 5 0.000000 0.000000 0.000000 0.000000 0.056205 0.000000
# 6 0.000000 0.000000 0.000000 0.000000 0.000000 0.054838
#
#
# Mechanical properties :
#
#
# Convention : Reuss Voigt Hill
#
# Bulk Modulus (GPa) = 41.46398 43.78083 42.62240
# Shear Modulus (GPa) = 18.94029 19.28250 19.11139
#
# Velocity S-wave (km/s) = 3.14076 3.16901 3.15492
# Velocity P-wave (km/s) = 5.89471 6.01597 5.95564
#
# Compressibility (1/GPa) = 0.02411732
#
# Stress axis : x y z
#
# Youngs Moduli (GPa) = 48.62475 48.62475 65.45317
#
# Poissons Ratio (x) = 0.21634 0.38280
# Poissons Ratio (y) = 0.21634 0.38280
# Poissons Ratio (z) = 0.28438 0.28438
#
# Static dielectric constant tensor:
#      x y z
#    x 3.361170 0.000000 0.000000 
#    y 0.000000 3.361170 0.000000 
#    z 0.000000 0.000000 3.563030 
# 
# 
# High freq. dielectric constant tensor:
#      x y z
#    x 1.734720 0.000000 0.000000 
#    y 0.000000 1.734720 0.000000 
#    z 0.000000 0.000000 1.724480 
# 
# From -- ./inp_files/6637.got.cif
#   From: 2010.03.12/outbox.cif.g09.slc.cpg/sg136_4_cif.got.tgz:6637.got - 2010.04.06 18:39:43.
