data_PCOD8317742
_publ_section_title
;
Structure prediction by ZEFSAII (Michael W. Deem and Ramdas Pophale) SiO2 
 PCOD8317742
Probable space group: P 42/M N M
;
_chemical_formula_sum "Si O2"
_cell_formula_units_Z 104
_cell_length_a 26.929966
_cell_length_b 26.929966
_cell_length_c 7.808116
_cell_angle_alpha 90.000000
_cell_angle_beta 90.000000
_cell_angle_gamma 90.000000
_cell_volume 5662.625847
_symmetry_space_group_name_H-M "P 42/M N M"
_symmetry_group_IT_number 136
_symmetry_cell_setting 'tetragonal'
loop_
_space_group_symop_operation_xyz
x,y,z
1/2-y,1/2+x,1/2+z
-x,-y,z
1/2+y,1/2-x,1/2+z
1/2+x,1/2-y,1/2-z
1/2-x,1/2+y,1/2-z
y,x,-z
-y,-x,-z
-x,-y,-z
1/2+y,1/2-x,1/2-z
x,y,-z
1/2-y,1/2+x,1/2-z
1/2-x,1/2+y,1/2+z
1/2+x,1/2-y,1/2+z
-y,-x,z
y,x,z
loop_
_atom_site_type_symbol
_atom_site_label
_atom_site_fract_x
_atom_site_fract_y
_atom_site_fract_z
Si Si1 0.038180 0.746306 0.201256
Si Si2 0.211789 0.788212 0.704717
Si Si3 0.499605 0.417931 0.500000
Si Si4 0.859340 0.500286 0.702690
Si Si5 0.396349 0.896659 0.301712
Si Si6 0.206452 0.358560 0.799341
Si Si7 0.134074 0.865927 0.701833
Si Si8 0.649445 0.522845 0.803777
O O1 0.008619 0.697322 0.259976
O O2 0.095303 0.742842 0.261858
O O3 0.009276 0.792267 0.289488
O O4 0.036417 0.753557 0.000000
O O5 0.210748 0.789253 0.500000
O O6 0.266608 0.807304 0.767730
O O7 0.172663 0.827338 0.783144
O O8 0.447052 0.447052 0.500000
O O9 0.544074 0.455927 0.500000
O O10 0.507318 0.384959 0.328190
O O11 0.865317 0.501797 0.500000
O O12 0.877141 0.447624 0.781577
O O13 0.893202 0.544196 0.778231
O O14 0.397514 0.883113 0.500000
O O15 0.348086 0.868901 0.215770
O O16 0.198988 0.354211 0.000000
O O17 0.137354 0.862647 0.500000
O O18 0.146856 0.920903 0.762994
O O19 0.630798 0.514865 0.000000
#
# Coordination Sequence:
#
# PCOD8317742 Si02
#       8
#    16   8   8  16  16  16   8  16
#     4  10  18  29  47  71  97 128 164 211 259 309
#     4   9  14  22  40  68  97 123 147 188 245 306
#     4  11  24  38  52  76 108 142 180 219 268 322
#     4   9  19  33  48  70  99 132 166 213 262 306
#     4   9  18  32  48  68  95 131 169 211 254 309
#     4   9  16  27  44  67  96 125 156 197 248 313
#     4   9  16  25  43  72 104 131 158 199 253 312
#     4  11  20  33  52  75 104 138 175 215 263 319
#
# _framework density 18.366036999999999
#
# number of rings (size 3 to 8) (size 9 to 14) (size 15 to 20)
#    0.000    2.385    3.077    0.462    0.000    1.846 
#    0.000    3.462    0.000    0.000    2.000    0.000 
#    0.000    0.000    0.000    0.000    0.000    0.000 
#
# Total GULP energy -1288650.728480 kJ/mol
# GULP energy per Si atom -12390.872389 kJ/mol
# Density = 1.832423 g / cm^3
# Si number density = 18.366037 Si / 1000 Ang^3
#
#
#
# Elastic Constant Matrix: (Units=GPa)
#
#
# Indices 1 2 3 4 5 6 
#
# 1 105.5190 63.4338 23.2740 0.0000 0.0000 0.0000
# 2 63.4338 105.5139 23.2743 0.0000 0.0000 0.0000
# 3 23.2740 23.2743 44.8722 0.0000 0.0000 0.0000
# 4 0.0000 0.0000 0.0000 18.5472 0.0000 0.0000
# 5 0.0000 0.0000 0.0000 0.0000 18.5467 0.0000
# 6 0.0000 0.0000 0.0000 0.0000 0.0000 27.6103
#
#
#
# Elastic Compliance Matrix: (Units=1/GPa)
#
#
# Indices 1 2 3 4 5 6 
#
# 1 0.015334 -0.008429 -0.003582 0.000000 0.000000 0.000000
# 2 -0.008429 0.015335 -0.003582 0.000000 0.000000 0.000000
# 3 -0.003582 -0.003582 0.026001 0.000000 0.000000 0.000000
# 4 0.000000 0.000000 0.000000 0.053916 0.000000 0.000000
# 5 0.000000 0.000000 0.000000 0.000000 0.053918 0.000000
# 6 0.000000 0.000000 0.000000 0.000000 0.000000 0.036218
#
#
# Mechanical properties :
#
#
# Convention : Reuss Voigt Hill
#
# Bulk Modulus (GPa) = 39.23836 52.87437 46.05636
# Shear Modulus (GPa) = 20.79850 22.66905 21.73378
#
# Velocity S-wave (km/s) = 3.36883 3.51706 3.44374
# Velocity P-wave (km/s) = 6.04508 6.73384 6.39874
#
# Compressibility (1/GPa) = 0.02548527
#
# Stress axis : x y z
#
# Youngs Moduli (GPa) = 65.21536 65.21155 38.45981
#
# Poissons Ratio (x) = 0.54964 0.13775
# Poissons Ratio (y) = 0.54967 0.13777
# Poissons Ratio (z) = 0.23357 0.23360
#
# Static dielectric constant tensor:
#      x y z
#    x 3.467980 0.000000 0.000000 
#    y 0.000000 3.468000 0.000000 
#    z 0.000000 0.000000 3.180970 
# 
# 
# High freq. dielectric constant tensor:
#      x y z
#    x 1.692410 0.000000 0.000000 
#    y 0.000000 1.692410 0.000000 
#    z 0.000000 0.000000 1.701590 
# 
# From -- ./inp_files/2282.got.cif
#   From: 2010.03.12/outbox.cif.g09.slc.cpg/sg136_2_cif.got.tgz:2282.got - 2010.04.06 18:39:43.
