data_PCOD8317614
_publ_section_title
;
Structure prediction by ZEFSAII (Michael W. Deem and Ramdas Pophale) SiO2 
 PCOD8317614
Probable space group: P 42/M B C
;
_chemical_formula_sum "Si O2"
_cell_formula_units_Z 56
_cell_length_a 10.870333
_cell_length_b 10.870333
_cell_length_c 20.517694
_cell_angle_alpha 90.000000
_cell_angle_beta 90.000000
_cell_angle_gamma 90.000000
_cell_volume 2424.455657
_symmetry_space_group_name_H-M "P 42/M B C"
_symmetry_group_IT_number 135
_symmetry_cell_setting 'tetragonal'
loop_
_space_group_symop_operation_xyz
x,y,z
-y,x,1/2+z
-x,-y,z
y,-x,1/2+z
1/2+x,1/2-y,-z
1/2-x,1/2+y,-z
1/2+y,1/2+x,1/2-z
1/2-y,1/2-x,1/2-z
-x,-y,-z
y,-x,1/2-z
x,y,-z
-y,x,1/2-z
1/2-x,1/2+y,z
1/2+x,1/2-y,z
1/2-y,1/2-x,1/2+z
1/2+y,1/2+x,1/2+z
loop_
_atom_site_type_symbol
_atom_site_label
_atom_site_fract_x
_atom_site_fract_y
_atom_site_fract_z
Si Si1 0.671447 0.828553 0.250000
Si Si2 0.088276 0.895608 0.663920
Si Si3 0.191036 0.505619 0.925829
Si Si4 0.489965 0.172923 0.126747
O O1 0.808510 0.845836 0.218336
O O2 0.562978 0.848058 0.198912
O O3 0.008569 0.818714 0.612299
O O4 0.187869 0.966498 0.619704
O O5 0.000000 0.000000 0.696012
O O6 0.119756 0.638007 0.923972
O O7 0.107897 0.411327 0.885599
O O8 0.211874 0.463745 0.000000
#
# Coordination Sequence:
#
# PCOD8317614 Si02
#       4
#     8  16  16  16
#     4  10  26  43  70  99 142 182 224 297 354 425
#     4  11  27  43  68 108 138 183 234 288 356 420
#     4  10  24  46  71  96 135 184 235 294 349 412
#     4  10  23  44  67 100 133 182 235 280 360 422
#
# _framework density 23.097968000000002
#
# number of rings (size 3 to 8) (size 9 to 14) (size 15 to 20)
#    0.000    1.714    0.000    1.714   12.000   16.571 
#    0.000    0.000    0.000    0.000    0.000    0.000 
#    0.000    0.000    0.000    0.000    0.000    0.000 
#
# Total GULP energy -694018.182049 kJ/mol
# GULP energy per Si atom -12393.181822 kJ/mol
# Density = 2.304540 g / cm^3
# Si number density = 23.097968 Si / 1000 Ang^3
#
#
#
# Elastic Constant Matrix: (Units=GPa)
#
#
# Indices 1 2 3 4 5 6 
#
# 1 118.9654 66.7590 48.1926 0.0000 0.0000 0.0000
# 2 66.7590 118.9654 48.1928 0.0000 0.0000 0.0000
# 3 48.1926 48.1928 100.4707 0.0000 0.0000 0.0000
# 4 0.0000 0.0000 0.0000 15.5044 0.0000 0.0000
# 5 0.0000 0.0000 0.0000 0.0000 15.5045 0.0000
# 6 0.0000 0.0000 0.0000 0.0000 0.0000 41.2330
#
#
#
# Elastic Compliance Matrix: (Units=1/GPa)
#
#
# Indices 1 2 3 4 5 6 
#
# 1 0.013162 -0.005993 -0.003439 0.000000 0.000000 0.000000
# 2 -0.005993 0.013162 -0.003439 0.000000 0.000000 0.000000
# 3 -0.003439 -0.003439 0.013252 0.000000 0.000000 0.000000
# 4 0.000000 0.000000 0.000000 0.064498 0.000000 0.000000
# 5 0.000000 0.000000 0.000000 0.000000 0.064497 0.000000
# 6 0.000000 0.000000 0.000000 0.000000 0.000000 0.024252
#
#
# Mechanical properties :
#
#
# Convention : Reuss Voigt Hill
#
# Bulk Modulus (GPa) = 72.28030 73.85448 73.06739
# Shear Modulus (GPa) = 22.40390 26.13219 24.26804
#
# Velocity S-wave (km/s) = 3.11778 3.36722 3.24490
# Velocity P-wave (km/s) = 6.65745 6.86742 6.76325
#
# Compressibility (1/GPa) = 0.01383503
#
# Stress axis : x y z
#
# Youngs Moduli (GPa) = 75.97737 75.97725 75.46015
#
# Poissons Ratio (x) = 0.45533 0.25948
# Poissons Ratio (y) = 0.45533 0.25949
# Poissons Ratio (z) = 0.26126 0.26127
#
# Static dielectric constant tensor:
#      x y z
#    x 4.458660 0.000000 0.000000 
#    y 0.000000 4.458670 0.000000 
#    z 0.000000 0.000000 4.044540 
# 
# 
# High freq. dielectric constant tensor:
#      x y z
#    x 1.916690 0.000000 0.000000 
#    y 0.000000 1.916690 0.000000 
#    z 0.000000 0.000000 1.898050 
# 
# From -- ./inp_files/4954.got.cif
#   From: 2010.03.12/outbox.cif.g09.slc.cpg/sg135_3_cif.got.tgz:4954.got - 2010.04.06 18:31:24.
