data_PCOD8317374
_publ_section_title
;
Structure prediction by ZEFSAII (Michael W. Deem and Ramdas Pophale) SiO2 
 PCOD8317374
Probable space group: P 42/M B C
;
_chemical_formula_sum "Si O2"
_cell_formula_units_Z 96
_cell_length_a 20.771795
_cell_length_b 20.771795
_cell_length_c 13.141565
_cell_angle_alpha 90.000000
_cell_angle_beta 90.000000
_cell_angle_gamma 90.000000
_cell_volume 5670.157770
_symmetry_space_group_name_H-M "P 42/M B C"
_symmetry_group_IT_number 135
_symmetry_cell_setting 'tetragonal'
loop_
_space_group_symop_operation_xyz
x,y,z
-y,x,1/2+z
-x,-y,z
y,-x,1/2+z
1/2+x,1/2-y,-z
1/2-x,1/2+y,-z
1/2+y,1/2+x,1/2-z
1/2-y,1/2-x,1/2-z
-x,-y,-z
y,-x,1/2-z
x,y,-z
-y,x,1/2-z
1/2-x,1/2+y,z
1/2+x,1/2-y,z
1/2-y,1/2-x,1/2+z
1/2+y,1/2+x,1/2+z
loop_
_atom_site_type_symbol
_atom_site_label
_atom_site_fract_x
_atom_site_fract_y
_atom_site_fract_z
Si Si1 0.825656 0.891614 0.384462
Si Si2 0.481676 0.396964 0.754347
Si Si3 0.626085 0.262073 0.315748
Si Si4 0.227374 0.008984 0.118855
Si Si5 0.245531 0.805372 0.616984
Si Si6 0.775203 0.367394 0.786524
O O1 0.802372 0.893690 0.500000
O O2 0.862748 0.957672 0.357882
O O3 0.874716 0.833367 0.363175
O O4 0.763642 0.881430 0.315641
O O5 0.429202 0.450244 0.720516
O O6 0.483068 0.343556 0.666358
O O7 0.554857 0.235545 0.340258
O O8 0.682382 0.221668 0.369675
O O9 0.633989 0.263049 0.192800
O O10 0.274159 0.069061 0.144332
O O11 0.217200 0.004685 0.000000
O O12 0.234859 0.826497 0.500000
O O13 0.193361 0.752225 0.649754
O O14 0.847234 0.347234 0.750000
#
# Coordination Sequence:
#
# PCOD8317374 Si02
#       6
#    16  16  16  16  16  16
#     4  10  18  31  49  64  92 133 172 218 262 298
#     4  10  21  33  44  64  98 140 191 226 247 306
#     4  10  19  32  51  80 102 131 179 225 264 328
#     4  11  22  35  53  75 107 145 179 228 281 323
#     4  10  18  33  57  78 103 138 178 229 278 322
#     4  10  20  34  50  79 106 132 178 222 267 334
#
# _framework density 16.930745999999999
#
# number of rings (size 3 to 8) (size 9 to 14) (size 15 to 20)
#    0.000    1.833    5.000    2.000    0.000    1.333 
#    0.000    5.000    0.000    0.000    0.000    2.333 
#    0.000    6.667    0.000    0.000    0.000    0.000 
#
# Total GULP energy -1189892.304274 kJ/mol
# GULP energy per Si atom -12394.711503 kJ/mol
# Density = 1.689221 g / cm^3
# Si number density = 16.930746 Si / 1000 Ang^3
#
#
#
# Elastic Constant Matrix: (Units=GPa)
#
#
# Indices 1 2 3 4 5 6 
#
# 1 78.8447 28.2793 31.9457 0.0000 0.0000 0.0000
# 2 28.2793 78.8447 31.9457 0.0000 0.0000 0.0000
# 3 31.9457 31.9457 140.6226 0.0000 0.0000 0.0000
# 4 0.0000 0.0000 0.0000 14.3606 0.0000 0.0000
# 5 0.0000 0.0000 0.0000 0.0000 14.3606 0.0000
# 6 0.0000 0.0000 0.0000 0.0000 0.0000 20.8728
#
#
#
# Elastic Compliance Matrix: (Units=1/GPa)
#
#
# Indices 1 2 3 4 5 6 
#
# 1 0.015287 -0.004489 -0.002453 0.000000 0.000000 0.000000
# 2 -0.004489 0.015287 -0.002453 0.000000 0.000000 0.000000
# 3 -0.002453 -0.002453 0.008226 0.000000 0.000000 0.000000
# 4 0.000000 0.000000 0.000000 0.069635 0.000000 0.000000
# 5 0.000000 0.000000 0.000000 0.000000 0.069635 0.000000
# 6 0.000000 0.000000 0.000000 0.000000 0.000000 0.047909
#
#
# Mechanical properties :
#
#
# Convention : Reuss Voigt Hill
#
# Bulk Modulus (GPa) = 49.97575 53.62817 51.80196
# Shear Modulus (GPa) = 19.88547 23.66154 21.77350
#
# Velocity S-wave (km/s) = 3.43084 3.74244 3.59002
# Velocity P-wave (km/s) = 6.72875 7.10058 6.91716
#
# Compressibility (1/GPa) = 0.02000970
#
# Stress axis : x y z
#
# Youngs Moduli (GPa) = 65.41417 65.41417 121.56937
#
# Poissons Ratio (x) = 0.29366 0.29821
# Poissons Ratio (y) = 0.29366 0.29821
# Poissons Ratio (z) = 0.16046 0.16046
#
# Static dielectric constant tensor:
#      x y z
#    x 3.186300 0.000000 0.000000 
#    y 0.000000 3.186300 0.000000 
#    z 0.000000 0.000000 3.188820 
# 
# 
# High freq. dielectric constant tensor:
#      x y z
#    x 1.632880 0.000000 0.000000 
#    y 0.000000 1.632880 0.000000 
#    z 0.000000 0.000000 1.658000 
# 
# From -- ./inp_files/2541.got.cif
#   From: 2010.03.12/outbox.cif.g09.slc.cpg/sg135_2_cif.got.tgz:2541.got - 2010.04.06 18:31:24.
