data_PCOD8317719
_publ_section_title
;
Structure prediction by ZEFSAII (Michael W. Deem and Ramdas Pophale) SiO2 
 PCOD8317719
Probable space group: P 42/M N M
;
_chemical_formula_sum "Si O2"
_cell_formula_units_Z 96
_cell_length_a 14.735240
_cell_length_b 14.735240
_cell_length_c 26.361771
_cell_angle_alpha 90.000000
_cell_angle_beta 90.000000
_cell_angle_gamma 90.000000
_cell_volume 5723.860104
_symmetry_space_group_name_H-M "P 42/M N M"
_symmetry_group_IT_number 136
_symmetry_cell_setting 'tetragonal'
loop_
_space_group_symop_operation_xyz
x,y,z
1/2-y,1/2+x,1/2+z
-x,-y,z
1/2+y,1/2-x,1/2+z
1/2+x,1/2-y,1/2-z
1/2-x,1/2+y,1/2-z
y,x,-z
-y,-x,-z
-x,-y,-z
1/2+y,1/2-x,1/2-z
x,y,-z
1/2-y,1/2+x,1/2-z
1/2-x,1/2+y,1/2+z
1/2+x,1/2-y,1/2+z
-y,-x,z
y,x,z
loop_
_atom_site_type_symbol
_atom_site_label
_atom_site_fract_x
_atom_site_fract_y
_atom_site_fract_z
Si Si1 0.895306 0.741991 0.557118
Si Si2 0.856818 0.996346 0.845718
Si Si3 0.269990 0.492677 0.239278
Si Si4 0.626878 0.779191 0.622568
Si Si5 0.496522 0.354329 0.130405
Si Si6 0.326993 0.822233 0.768690
O O1 0.929692 0.725573 0.500000
O O2 0.819127 0.819127 0.559448
O O3 0.850194 0.647564 0.577316
O O4 0.981640 0.771717 0.591532
O O5 0.936974 0.063027 0.861814
O O6 0.839425 0.011506 0.785989
O O7 0.766248 0.025160 0.878141
O O8 0.892730 0.892730 0.856317
O O9 0.323780 0.511731 0.187912
O O10 0.198090 0.572209 0.250665
O O11 0.217380 0.397783 0.232489
O O12 0.697242 0.697242 0.621386
O O13 0.639026 0.833860 0.674580
O O14 0.566772 0.433228 0.118316
O O15 0.394624 0.394624 0.122125
O O16 0.270136 0.729865 0.766245
#
# Coordination Sequence:
#
# PCOD8317719 Si02
#       6
#    16  16  16  16  16  16
#     4   9  16  26  41  60  85 121 160 193 233 289
#     4   9  16  25  41  64  86 112 150 194 236 287
#     4  11  19  29  44  62  92 125 158 189 232 289
#     4   8  14  26  40  57  84 117 151 183 229 285
#     4  10  18  27  42  63  89 121 157 199 240 282
#     4  10  19  30  45  64  90 125 158 192 233 285
#
# _framework density 16.771898
#
# number of rings (size 3 to 8) (size 9 to 14) (size 15 to 20)
#    0.000    2.500    1.667    4.000    0.000    2.000 
#    0.000    1.667    0.000    0.500    0.000    3.500 
#    0.000   10.667    0.000    4.000    0.000    2.667 
#
# Total GULP energy -1189471.696598 kJ/mol
# GULP energy per Si atom -12390.330173 kJ/mol
# Density = 1.673372 g / cm^3
# Si number density = 16.771898 Si / 1000 Ang^3
#
#
#
# Elastic Constant Matrix: (Units=GPa)
#
#
# Indices 1 2 3 4 5 6 
#
# 1 60.4964 33.6192 24.0462 0.0000 0.0000 0.0000
# 2 33.6192 60.4964 24.0462 0.0000 0.0000 0.0000
# 3 24.0462 24.0462 68.0305 0.0000 0.0000 0.0000
# 4 0.0000 0.0000 0.0000 11.8615 0.0000 0.0000
# 5 0.0000 0.0000 0.0000 0.0000 11.8615 0.0000
# 6 0.0000 0.0000 0.0000 0.0000 0.0000 34.9542
#
#
#
# Elastic Compliance Matrix: (Units=1/GPa)
#
#
# Indices 1 2 3 4 5 6 
#
# 1 0.025087 -0.012119 -0.004583 0.000000 0.000000 0.000000
# 2 -0.012119 0.025087 -0.004583 0.000000 0.000000 0.000000
# 3 -0.004583 -0.004583 0.017939 0.000000 0.000000 0.000000
# 4 0.000000 0.000000 0.000000 0.084307 0.000000 0.000000
# 5 0.000000 0.000000 0.000000 0.000000 0.084307 0.000000
# 6 0.000000 0.000000 0.000000 0.000000 0.000000 0.028609
#
#
# Mechanical properties :
#
#
# Convention : Reuss Voigt Hill
#
# Bulk Modulus (GPa) = 39.15383 39.16072 39.15727
# Shear Modulus (GPa) = 15.80171 18.88954 17.34563
#
# Velocity S-wave (km/s) = 3.07278 3.35962 3.21940
# Velocity P-wave (km/s) = 5.99874 6.20074 6.10057
#
# Compressibility (1/GPa) = 0.02554029
#
# Stress axis : x y z
#
# Youngs Moduli (GPa) = 39.86158 39.86158 55.74311
#
# Poissons Ratio (x) = 0.48310 0.25550
# Poissons Ratio (y) = 0.48310 0.25550
# Poissons Ratio (z) = 0.18270 0.18270
#
# Static dielectric constant tensor:
#      x y z
#    x 3.239840 0.000000 0.000000 
#    y 0.000000 3.239840 0.000000 
#    z 0.000000 0.000000 2.999820 
# 
# 
# High freq. dielectric constant tensor:
#      x y z
#    x 1.625650 0.000000 0.000000 
#    y 0.000000 1.625650 0.000000 
#    z 0.000000 0.000000 1.615030 
# 
# From -- ./inp_files/9879.got.cif
#   From: 2010.03.12/outbox.cif.g09.slc.cpg/sg136_5_cif.got.tgz:9879.got - 2010.04.06 18:39:43.
