data_PCOD8317243
_publ_section_title
;
Structure prediction by ZEFSAII (Michael W. Deem and Ramdas Pophale) SiO2 
 PCOD8317243
Probable space group: P 42/N N M
;
_chemical_formula_sum "Si O2"
_cell_formula_units_Z 80
_cell_length_a 12.033260
_cell_length_b 12.033260
_cell_length_c 28.647250
_cell_angle_alpha 90.000000
_cell_angle_beta 90.000000
_cell_angle_gamma 90.000000
_cell_volume 4148.103071
_symmetry_space_group_name_H-M "P 42/N N M"
_symmetry_group_IT_number 134
_space_group.IT_coordinate_system_code '2'
_symmetry_cell_setting 'tetragonal'
loop_
_space_group_symop_operation_xyz
x,y,z
1/2-y,x,1/2+z
1/2-x,1/2-y,z
y,1/2-x,1/2+z
x,1/2-y,1/2-z
1/2-x,y,1/2-z
y,x,-z
1/2-y,1/2-x,-z
-x,-y,-z
1/2+y,-x,1/2-z
1/2+x,1/2+y,-z
-y,1/2+x,1/2-z
-x,1/2+y,1/2+z
1/2+x,-y,1/2+z
-y,-x,z
1/2+y,1/2+x,z
loop_
_atom_site_type_symbol
_atom_site_label
_atom_site_fract_x
_atom_site_fract_y
_atom_site_fract_z
Si Si1 0.623445 0.729911 0.377703
Si Si2 0.426902 0.391459 0.052807
Si Si3 0.002904 0.814939 0.606979
Si Si4 0.311254 0.989416 0.702892
Si Si5 0.009459 0.326545 0.706196
O O1 0.750000 0.750000 0.360116
O O2 0.594201 0.817015 0.417428
O O3 0.609014 0.606705 0.399125
O O4 0.534105 0.744600 0.336672
O O5 0.500426 0.499575 0.061088
O O6 0.498674 0.284362 0.069136
O O7 0.384225 0.384225 0.000000
O O8 0.113900 0.886101 0.598092
O O9 0.995208 0.773095 0.660360
O O10 0.250000 0.953614 0.750000
O O11 0.391704 0.891704 0.686407
O O12 0.380383 0.100213 0.714266
O O13 0.982790 0.250000 0.750000
O O14 0.903351 0.403351 0.695389
#
# Coordination Sequence:
#
# PCOD8317243 Si02
#       5
#    16  16  16  16  16
#     4  10  20  37  61  84 118 159 200 243 298 362
#     4  10  21  40  66  93 120 159 206 248 299 364
#     4  11  23  38  61  94 125 155 196 254 313 362
#     4  11  22  35  54  84 122 163 203 247 304 366
#     4  11  23  37  57  83 117 162 212 252 293 351
#
# _framework density 19.285923
#
# number of rings (size 3 to 8) (size 9 to 14) (size 15 to 20)
#    0.000    1.400    4.000    3.000    0.000    8.800 
#    0.000    2.000    0.000    3.000    0.000    0.000 
#    0.000    0.000    0.000    0.000    0.000    0.000 
#
# Total GULP energy -992028.759496 kJ/mol
# GULP energy per Si atom -12400.359494 kJ/mol
# Density = 1.924203 g / cm^3
# Si number density = 19.285923 Si / 1000 Ang^3
#
#
#
# Elastic Constant Matrix: (Units=GPa)
#
#
# Indices 1 2 3 4 5 6 
#
# 1 69.3314 28.0967 41.0545 0.0000 0.0000 0.0000
# 2 28.0967 69.3314 41.0545 0.0000 0.0000 0.0000
# 3 41.0545 41.0545 128.6591 0.0000 0.0000 0.0000
# 4 0.0000 0.0000 0.0000 24.5357 0.0000 0.0000
# 5 0.0000 0.0000 0.0000 0.0000 24.5357 0.0000
# 6 0.0000 0.0000 0.0000 0.0000 0.0000 29.4711
#
#
#
# Elastic Compliance Matrix: (Units=1/GPa)
#
#
# Indices 1 2 3 4 5 6 
#
# 1 0.019145 -0.005106 -0.004480 0.000000 0.000000 0.000000
# 2 -0.005106 0.019145 -0.004480 0.000000 0.000000 0.000000
# 3 -0.004480 -0.004480 0.010632 0.000000 0.000000 0.000000
# 4 0.000000 0.000000 0.000000 0.040757 0.000000 0.000000
# 5 0.000000 0.000000 0.000000 0.000000 0.040757 0.000000
# 6 0.000000 0.000000 0.000000 0.000000 0.000000 0.033932
#
#
# Mechanical properties :
#
#
# Convention : Reuss Voigt Hill
#
# Bulk Modulus (GPa) = 48.09822 54.19260 51.14541
# Shear Modulus (GPa) = 25.07146 26.18290 25.62718
#
# Velocity S-wave (km/s) = 3.60945 3.68858 3.64923
# Velocity P-wave (km/s) = 6.50880 6.80452 6.65830
#
# Compressibility (1/GPa) = 0.02079079
#
# Stress axis : x y z
#
# Youngs Moduli (GPa) = 52.23167 52.23167 94.05978
#
# Poissons Ratio (x) = 0.26669 0.42138
# Poissons Ratio (y) = 0.26669 0.42138
# Poissons Ratio (z) = 0.23399 0.23399
#
# Static dielectric constant tensor:
#      x y z
#    x 3.619600 0.000000 0.000000 
#    y 0.000000 3.619600 0.000000 
#    z 0.000000 0.000000 3.589560 
# 
# 
# High freq. dielectric constant tensor:
#      x y z
#    x 1.749420 0.000000 0.000000 
#    y 0.000000 1.749420 0.000000 
#    z 0.000000 0.000000 1.744390 
# 
# From -- ./inp_files/11281.got.cif
#   From: 2010.03.12/outbox.cif.g09.slc.cpg/sg134_6_cif.got.tgz:11281.got - 2010.04.06 18:17:22.
