data_PCOD8317700
_publ_section_title
;
Structure prediction by ZEFSAII (Michael W. Deem and Ramdas Pophale) SiO2 
 PCOD8317700
Probable space group: P 42/M N M
;
_chemical_formula_sum "Si O2"
_cell_formula_units_Z 64
_cell_length_a 15.539484
_cell_length_b 15.539484
_cell_length_c 16.622127
_cell_angle_alpha 90.000000
_cell_angle_beta 90.000000
_cell_angle_gamma 90.000000
_cell_volume 4013.837475
_symmetry_space_group_name_H-M "P 42/M N M"
_symmetry_group_IT_number 136
_symmetry_cell_setting 'tetragonal'
loop_
_space_group_symop_operation_xyz
x,y,z
1/2-y,1/2+x,1/2+z
-x,-y,z
1/2+y,1/2-x,1/2+z
1/2+x,1/2-y,1/2-z
1/2-x,1/2+y,1/2-z
y,x,-z
-y,-x,-z
-x,-y,-z
1/2+y,1/2-x,1/2-z
x,y,-z
1/2-y,1/2+x,1/2-z
1/2-x,1/2+y,1/2+z
1/2+x,1/2-y,1/2+z
-y,-x,z
y,x,z
loop_
_atom_site_type_symbol
_atom_site_label
_atom_site_fract_x
_atom_site_fract_y
_atom_site_fract_z
Si Si1 0.071902 0.071902 0.911361
Si Si2 0.564956 0.290933 0.157433
Si Si3 0.543737 0.688550 0.688201
Si Si4 0.337710 0.194197 0.590660
Si Si5 0.995094 0.139286 0.500000
O O1 0.034251 0.153395 0.865217
O O2 0.101476 0.101476 0.000000
O O3 0.000000 0.000000 0.918789
O O4 0.628041 0.371960 0.173951
O O5 0.497548 0.278593 0.229189
O O6 0.617343 0.203042 0.143031
O O7 0.507346 0.303728 0.078660
O O8 0.615608 0.615608 0.705617
O O9 0.581494 0.769984 0.640413
O O10 0.364987 0.164649 0.500000
O O11 0.268361 0.268361 0.580239
O O12 0.064591 0.064591 0.500000
O O13 0.899353 0.100648 0.500000
#
# Coordination Sequence:
#
# PCOD8317700 Si02
#       5
#     8  16  16  16   8
#     4   9  16  26  40  65  99 125 149 189 244 289
#     4  10  17  28  44  68  97 128 159 195 240 289
#     4  10  18  27  44  71  98 125 157 200 241 283
#     4   9  17  30  46  67  96 130 164 194 233 289
#     4   9  16  24  40  66  98 126 151 189 244 300
#
# _framework density 15.944842
#
# number of rings (size 3 to 8) (size 9 to 14) (size 15 to 20)
#    0.000    2.500    2.500    1.500    0.000    4.000 
#    0.000    0.000    0.000    0.750    6.500    1.750 
#    0.000    0.000    0.000    0.000    0.000    0.000 
#
# Total GULP energy -793369.547503 kJ/mol
# GULP energy per Si atom -12396.399180 kJ/mol
# Density = 1.590855 g / cm^3
# Si number density = 15.944842 Si / 1000 Ang^3
#
#
#
# Elastic Constant Matrix: (Units=GPa)
#
#
# Indices 1 2 3 4 5 6 
#
# 1 60.9485 44.2383 51.5428 0.0000 0.0000 0.0000
# 2 44.2383 60.9483 51.5426 0.0000 0.0000 0.0000
# 3 51.5428 51.5426 149.0299 0.0000 0.0000 0.0000
# 4 0.0000 0.0000 0.0000 3.1910 0.0000 0.0000
# 5 0.0000 0.0000 0.0000 0.0000 3.1884 0.0000
# 6 0.0000 0.0000 0.0000 0.0000 0.0000 32.0785
#
#
#
# Elastic Compliance Matrix: (Units=1/GPa)
#
#
# Indices 1 2 3 4 5 6 
#
# 1 0.037113 -0.022731 -0.004974 0.000000 0.000000 0.000000
# 2 -0.022731 0.037113 -0.004974 0.000000 0.000000 0.000000
# 3 -0.004974 -0.004974 0.010151 0.000000 0.000000 0.000000
# 4 0.000000 0.000000 0.000000 0.313386 0.000000 0.000000
# 5 0.000000 0.000000 0.000000 0.000000 0.313637 0.000000
# 6 0.000000 0.000000 0.000000 0.000000 0.000000 0.031174
#
#
# Mechanical properties :
#
#
# Convention : Reuss Voigt Hill
#
# Bulk Modulus (GPa) = 52.58214 62.84157 57.71185
# Shear Modulus (GPa) = 6.14047 15.93177 11.03612
#
# Velocity S-wave (km/s) = 1.96454 3.16441 2.63372
# Velocity P-wave (km/s) = 6.18021 7.26971 6.74699
#
# Compressibility (1/GPa) = 0.01901787
#
# Stress axis : x y z
#
# Youngs Moduli (GPa) = 26.94501 26.94501 98.51678
#
# Poissons Ratio (x) = 0.61249 0.49002
# Poissons Ratio (y) = 0.61249 0.49001
# Poissons Ratio (z) = 0.13402 0.13402
#
# Static dielectric constant tensor:
#      x y z
#    x 2.842390 0.000000 0.000000 
#    y 0.000000 2.842400 0.000000 
#    z 0.000000 0.000000 3.258610 
# 
# 
# High freq. dielectric constant tensor:
#      x y z
#    x 1.576950 0.000000 0.000000 
#    y 0.000000 1.576950 0.000000 
#    z 0.000000 0.000000 1.630480 
# 
# From -- ./inp_files/5941.got.cif
#   From: 2010.03.12/outbox.cif.g09.slc.cpg/sg136_3_cif.got.tgz:5941.got - 2010.04.06 18:39:43.
