data_PCOD8317854
_publ_section_title
;
Structure prediction by ZEFSAII (Michael W. Deem and Ramdas Pophale) SiO2 
 PCOD8317854
Probable space group: P 42/M N M
;
_chemical_formula_sum "Si O2"
_cell_formula_units_Z 96
_cell_length_a 25.124377
_cell_length_b 25.124377
_cell_length_c 9.209531
_cell_angle_alpha 90.000000
_cell_angle_beta 90.000000
_cell_angle_gamma 90.000000
_cell_volume 5813.372035
_symmetry_space_group_name_H-M "P 42/M N M"
_symmetry_group_IT_number 136
_symmetry_cell_setting 'tetragonal'
loop_
_space_group_symop_operation_xyz
x,y,z
1/2-y,1/2+x,1/2+z
-x,-y,z
1/2+y,1/2-x,1/2+z
1/2+x,1/2-y,1/2-z
1/2-x,1/2+y,1/2-z
y,x,-z
-y,-x,-z
-x,-y,-z
1/2+y,1/2-x,1/2-z
x,y,-z
1/2-y,1/2+x,1/2-z
1/2-x,1/2+y,1/2+z
1/2+x,1/2-y,1/2+z
-y,-x,z
y,x,z
loop_
_atom_site_type_symbol
_atom_site_label
_atom_site_fract_x
_atom_site_fract_y
_atom_site_fract_z
Si Si1 0.445306 0.861060 0.169260
Si Si2 0.249172 0.436885 0.163305
Si Si3 0.356118 0.559615 0.329459
Si Si4 0.061598 0.852012 0.169496
Si Si5 0.644989 0.054235 0.829514
Si Si6 0.245207 0.063282 0.660157
O O1 0.497150 0.871253 0.266026
O O2 0.403941 0.907142 0.203505
O O3 0.417742 0.804139 0.209516
O O4 0.462525 0.860008 0.000000
O O5 0.301751 0.414675 0.243346
O O6 0.196685 0.420335 0.252460
O O7 0.252527 0.499935 0.160700
O O8 0.246354 0.413519 0.000000
O O9 0.351399 0.564438 0.500000
O O10 0.405523 0.594478 0.270617
O O11 0.365521 0.498671 0.281029
O O12 0.301006 0.583388 0.266687
O O13 0.096531 0.903470 0.206892
O O14 0.063463 0.837657 0.000000
O O15 0.656785 0.048745 0.000000
O O16 0.231569 0.085027 0.500000
#
# Coordination Sequence:
#
# PCOD8317854 Si02
#       6
#    16  16  16  16  16  16
#     4   9  19  33  47  68  96 122 151 188 228 270
#     4   9  17  30  47  66  90 119 153 192 230 269
#     4   9  17  28  43  66  94 120 148 185 227 269
#     4   9  17  29  46  68  93 122 155 187 223 273
#     4  10  19  31  49  70  93 122 154 188 227 273
#     4   8  15  29  46  62  84 116 152 186 219 261
#
# _framework density 16.513652
#
# number of rings (size 3 to 8) (size 9 to 14) (size 15 to 20)
#    0.000    3.000    0.000    2.000    0.000    6.667 
#    0.000    3.333    0.000    1.000    0.000    7.000 
#    0.000    0.000    0.000    0.000    0.000    0.000 
#
# Total GULP energy -1190040.998160 kJ/mol
# GULP energy per Si atom -12396.260397 kJ/mol
# Density = 1.647607 g / cm^3
# Si number density = 16.513652 Si / 1000 Ang^3
#
#
#
# Elastic Constant Matrix: (Units=GPa)
#
#
# Indices 1 2 3 4 5 6 
#
# 1 93.8493 58.4643 50.4704 0.0000 0.0000 0.0000
# 2 58.4643 93.8493 50.4704 0.0000 0.0000 0.0000
# 3 50.4704 50.4704 75.3939 0.0000 0.0000 0.0000
# 4 0.0000 0.0000 0.0000 23.7873 0.0000 0.0000
# 5 0.0000 0.0000 0.0000 0.0000 23.7873 0.0000
# 6 0.0000 0.0000 0.0000 0.0000 0.0000 2.9947
#
#
#
# Elastic Compliance Matrix: (Units=1/GPa)
#
#
# Indices 1 2 3 4 5 6 
#
# 1 0.020031 -0.008230 -0.007900 0.000000 0.000000 0.000000
# 2 -0.008230 0.020031 -0.007900 0.000000 0.000000 0.000000
# 3 -0.007900 -0.007900 0.023840 0.000000 0.000000 0.000000
# 4 0.000000 0.000000 0.000000 0.042039 0.000000 0.000000
# 5 0.000000 0.000000 0.000000 0.000000 0.042039 0.000000
# 6 0.000000 0.000000 0.000000 0.000000 0.000000 0.333925
#
#
# Mechanical properties :
#
#
# Convention : Reuss Voigt Hill
#
# Bulk Modulus (GPa) = 63.11999 64.65585 63.88792
# Shear Modulus (GPa) = 9.34154 17.02635 13.18394
#
# Velocity S-wave (km/s) = 2.38100 3.21447 2.82860
# Velocity P-wave (km/s) = 6.77235 7.28115 7.03135
#
# Compressibility (1/GPa) = 0.01584284
#
# Stress axis : x y z
#
# Youngs Moduli (GPa) = 49.92375 49.92375 41.94631
#
# Poissons Ratio (x) = 0.41087 0.33136
# Poissons Ratio (y) = 0.41087 0.33136
# Poissons Ratio (z) = 0.39438 0.39438
#
# Static dielectric constant tensor:
#      x y z
#    x 3.130880 0.000000 0.000000 
#    y 0.000000 3.130880 0.000000 
#    z 0.000000 0.000000 3.234950 
# 
# 
# High freq. dielectric constant tensor:
#      x y z
#    x 1.618940 0.000000 0.000000 
#    y 0.000000 1.618940 0.000000 
#    z 0.000000 0.000000 1.640610 
# 
# From -- ./inp_files/2122.got.cif
#   From: 2010.03.12/outbox.cif.g09.slc.cpg/sg136_2_cif.got.tgz:2122.got - 2010.04.06 18:39:43.
