data_PCOD8317432
_publ_section_title
;
Structure prediction by ZEFSAII (Michael W. Deem and Ramdas Pophale) SiO2 
 PCOD8317432
Probable space group: P 42/M B C
;
_chemical_formula_sum "Si O2"
_cell_formula_units_Z 112
_cell_length_a 14.212522
_cell_length_b 14.212522
_cell_length_c 29.651658
_cell_angle_alpha 90.000000
_cell_angle_beta 90.000000
_cell_angle_gamma 90.000000
_cell_volume 5989.509833
_symmetry_space_group_name_H-M "P 42/M B C"
_symmetry_group_IT_number 135
_symmetry_cell_setting 'tetragonal'
loop_
_space_group_symop_operation_xyz
x,y,z
-y,x,1/2+z
-x,-y,z
y,-x,1/2+z
1/2+x,1/2-y,-z
1/2-x,1/2+y,-z
1/2+y,1/2+x,1/2-z
1/2-y,1/2-x,1/2-z
-x,-y,-z
y,-x,1/2-z
x,y,-z
-y,x,1/2-z
1/2-x,1/2+y,z
1/2+x,1/2-y,z
1/2-y,1/2-x,1/2+z
1/2+y,1/2+x,1/2+z
loop_
_atom_site_type_symbol
_atom_site_label
_atom_site_fract_x
_atom_site_fract_y
_atom_site_fract_z
Si Si1 0.553914 0.641661 0.745037
Si Si2 0.332217 0.619583 0.851944
Si Si3 0.217048 0.021331 0.337284
Si Si4 0.038877 0.269864 0.405010
Si Si5 0.304810 0.264575 0.099936
Si Si6 0.896745 0.400954 0.550922
Si Si7 0.089644 0.456903 0.367097
O O1 0.612289 0.553279 0.764206
O O2 0.598803 0.690674 0.700704
O O3 0.554611 0.714308 0.785888
O O4 0.444402 0.639502 0.853338
O O5 0.308916 0.527314 0.881836
O O6 0.274125 0.708947 0.870882
O O7 0.204748 0.111550 0.367761
O O8 0.317996 0.973533 0.339207
O O9 0.138016 0.229141 0.423396
O O10 0.071712 0.346044 0.368278
O O11 0.982180 0.326429 0.443447
O O12 0.343719 0.199032 0.060235
O O13 0.896178 0.439154 0.500000
O O14 0.904580 0.490918 0.583712
O O15 0.000000 0.500000 0.340924
#
# Coordination Sequence:
#
# PCOD8317432 Si02
#       7
#    16  16  16  16  16  16  16
#     4   9  18  32  52  80 110 146 190 228 265 316
#     4  10  20  35  54  80 112 143 187 230 265 323
#     4  10  19  35  56  78 111 148 181 227 274 314
#     4  10  19  33  55  80 106 141 184 221 274 329
#     4  10  20  34  56  81 108 146 183 221 274 336
#     4   9  20  36  55  82 110 139 182 230 275 328
#     4   9  18  34  56  78 107 139 184 226 272 326
#
# _framework density 18.699361
#
# number of rings (size 3 to 8) (size 9 to 14) (size 15 to 20)
#    0.000    2.429    1.429    1.714    0.000    5.429 
#    0.000    0.714    0.000    4.286    0.000    4.000 
#    0.000    0.000    0.000    0.000    0.000    0.000 
#
# Total GULP energy -1387718.656232 kJ/mol
# GULP energy per Si atom -12390.345145 kJ/mol
# Density = 1.865680 g / cm^3
# Si number density = 18.699361 Si / 1000 Ang^3
#
#
#
# Elastic Constant Matrix: (Units=GPa)
#
#
# Indices 1 2 3 4 5 6 
#
# 1 84.0877 14.2042 13.0785 0.0000 0.0000 0.0000
# 2 14.2042 84.0877 13.0785 0.0000 0.0000 0.0000
# 3 13.0785 13.0785 70.4475 0.0000 0.0000 0.0000
# 4 0.0000 0.0000 0.0000 14.1758 0.0000 0.0000
# 5 0.0000 0.0000 0.0000 0.0000 14.1758 0.0000
# 6 0.0000 0.0000 0.0000 0.0000 0.0000 34.2069
#
#
#
# Elastic Compliance Matrix: (Units=1/GPa)
#
#
# Indices 1 2 3 4 5 6 
#
# 1 0.012506 -0.001804 -0.001987 0.000000 0.000000 0.000000
# 2 -0.001804 0.012506 -0.001987 0.000000 0.000000 0.000000
# 3 -0.001987 -0.001987 0.014933 0.000000 0.000000 0.000000
# 4 0.000000 0.000000 0.000000 0.070543 0.000000 0.000000
# 5 0.000000 0.000000 0.000000 0.000000 0.070543 0.000000
# 6 0.000000 0.000000 0.000000 0.000000 0.000000 0.029234
#
#
# Mechanical properties :
#
#
# Convention : Reuss Voigt Hill
#
# Bulk Modulus (GPa) = 35.22351 35.48278 35.35314
# Shear Modulus (GPa) = 21.61865 25.72917 23.67391
#
# Velocity S-wave (km/s) = 3.40386 3.71339 3.56199
# Velocity P-wave (km/s) = 5.85884 6.11574 5.98867
#
# Compressibility (1/GPa) = 0.02839013
#
# Stress axis : x y z
#
# Youngs Moduli (GPa) = 79.96143 79.96143 66.96718
#
# Poissons Ratio (x) = 0.14421 0.13306
# Poissons Ratio (y) = 0.14421 0.13306
# Poissons Ratio (z) = 0.15888 0.15888
#
# Static dielectric constant tensor:
#      x y z
#    x 3.631480 0.000000 0.000000 
#    y 0.000000 3.631480 0.000000 
#    z 0.000000 0.000000 3.066930 
# 
# 
# High freq. dielectric constant tensor:
#      x y z
#    x 1.736700 0.000000 0.000000 
#    y 0.000000 1.736700 0.000000 
#    z 0.000000 0.000000 1.687830 
# 
# From -- ./inp_files/6858.got.cif
#   From: 2010.03.12/outbox.cif.g09.slc.cpg/sg135_4_cif.got.tgz:6858.got - 2010.04.06 18:31:24.
