data_PCOD8317003
_publ_section_title
;
Structure prediction by ZEFSAII (Michael W. Deem and Ramdas Pophale) SiO2 
 PCOD8317003
Probable space group: P 42/N B C
;
_chemical_formula_sum "Si O2"
_cell_formula_units_Z 36
_cell_length_a 10.095886
_cell_length_b 10.095886
_cell_length_c 17.127319
_cell_angle_alpha 90.000000
_cell_angle_beta 90.000000
_cell_angle_gamma 90.000000
_cell_volume 1745.734773
_symmetry_space_group_name_H-M "P 42/N B C"
_symmetry_group_IT_number 133
_space_group.IT_coordinate_system_code '2'
_symmetry_cell_setting 'tetragonal'
loop_
_space_group_symop_operation_xyz
x,y,z
1/2-y,x,1/2+z
1/2-x,1/2-y,z
y,1/2-x,1/2+z
x,1/2-y,-z
1/2-x,y,-z
y,x,1/2-z
1/2-y,1/2-x,1/2-z
-x,-y,-z
1/2+y,-x,1/2-z
1/2+x,1/2+y,-z
-y,1/2+x,1/2-z
-x,1/2+y,z
1/2+x,-y,z
-y,-x,1/2+z
1/2+y,1/2+x,1/2+z
loop_
_atom_site_type_symbol
_atom_site_label
_atom_site_fract_x
_atom_site_fract_y
_atom_site_fract_z
Si Si1 0.750000 0.750000 0.000000
Si Si2 0.391960 0.601863 0.279511
Si Si3 0.500695 0.131779 0.950942
O O1 0.656238 0.833982 0.059199
O O2 0.507091 0.507091 0.250000
O O3 0.253811 0.567635 0.236749
O O4 0.379898 0.581102 0.371569
O O5 0.570597 0.250000 0.000000
O O6 0.500000 0.000000 0.000000
#
# Coordination Sequence:
#
# PCOD8317003 Si02
#       3
#     4  16  16
#     4   8  24  40  68 102 140 168 248 290 368 404
#     4  11  26  44  67 103 141 181 233 294 364 424
#     4  10  22  43  68 100 137 188 235 293 355 438
#
# _framework density 20.621687000000001
#
# number of rings (size 3 to 8) (size 9 to 14) (size 15 to 20)
#    1.333    0.444    0.000    2.667    6.222    0.889 
#    0.000    0.000    0.000    0.000    0.000    0.000 
#    0.000    0.000    0.000    0.000    0.000    0.000 
#
# Total GULP energy -446037.429152 kJ/mol
# GULP energy per Si atom -12389.928588 kJ/mol
# Density = 2.057475 g / cm^3
# Si number density = 20.621687 Si / 1000 Ang^3
#
#
#
# Elastic Constant Matrix: (Units=GPa)
#
#
# Indices 1 2 3 4 5 6 
#
# 1 115.6670 9.4778 11.3612 0.0000 0.0000 0.0000
# 2 9.4778 115.6670 11.3612 0.0000 0.0000 0.0000
# 3 11.3612 11.3612 124.3897 0.0000 0.0000 0.0000
# 4 0.0000 0.0000 0.0000 23.7866 0.0000 0.0000
# 5 0.0000 0.0000 0.0000 0.0000 23.7866 0.0000
# 6 0.0000 0.0000 0.0000 0.0000 0.0000 42.2723
#
#
#
# Elastic Compliance Matrix: (Units=1/GPa)
#
#
# Indices 1 2 3 4 5 6 
#
# 1 0.008771 -0.000646 -0.000742 0.000000 0.000000 0.000000
# 2 -0.000646 0.008771 -0.000742 0.000000 0.000000 0.000000
# 3 -0.000742 -0.000742 0.008175 0.000000 0.000000 0.000000
# 4 0.000000 0.000000 0.000000 0.042040 0.000000 0.000000
# 5 0.000000 0.000000 0.000000 0.000000 0.042040 0.000000
# 6 0.000000 0.000000 0.000000 0.000000 0.000000 0.023656
#
#
# Mechanical properties :
#
#
# Convention : Reuss Voigt Hill
#
# Bulk Modulus (GPa) = 46.60433 46.68043 46.64238
# Shear Modulus (GPa) = 34.51438 39.53734 37.02586
#
# Velocity S-wave (km/s) = 4.09552 4.38341 4.24191
# Velocity P-wave (km/s) = 6.70918 6.95017 6.83074
#
# Compressibility (1/GPa) = 0.02145723
#
# Stress axis : x y z
#
# Youngs Moduli (GPa) = 114.00791 114.00791 122.32685
#
# Poissons Ratio (x) = 0.07363 0.09078
# Poissons Ratio (y) = 0.07363 0.09078
# Poissons Ratio (z) = 0.08461 0.08461
#
# Static dielectric constant tensor:
#      x y z
#    x 4.823620 0.000000 0.000000 
#    y 0.000000 4.823620 0.000000 
#    z 0.000000 0.000000 3.487210 
# 
# 
# High freq. dielectric constant tensor:
#      x y z
#    x 1.815830 0.000000 0.000000 
#    y 0.000000 1.815830 0.000000 
#    z 0.000000 0.000000 1.800070 
# 
# From -- ./inp_files/4813.got.cif
#   From: 2010.03.12/outbox.cif.g09.slc.cpg/sg133_3_cif.got.tgz:4813.got - 2010.04.06 18:08:06.
