data_PCOD8317629
_publ_section_title
;
Structure prediction by ZEFSAII (Michael W. Deem and Ramdas Pophale) SiO2 
 PCOD8317629
Probable space group: P 42/M B C
;
_chemical_formula_sum "Si O2"
_cell_formula_units_Z 48
_cell_length_a 12.864307
_cell_length_b 12.864307
_cell_length_c 13.572391
_cell_angle_alpha 90.000000
_cell_angle_beta 90.000000
_cell_angle_gamma 90.000000
_cell_volume 2246.100342
_symmetry_space_group_name_H-M "P 42/M B C"
_symmetry_group_IT_number 135
_symmetry_cell_setting 'tetragonal'
loop_
_space_group_symop_operation_xyz
x,y,z
-y,x,1/2+z
-x,-y,z
y,-x,1/2+z
1/2+x,1/2-y,-z
1/2-x,1/2+y,-z
1/2+y,1/2+x,1/2-z
1/2-y,1/2-x,1/2-z
-x,-y,-z
y,-x,1/2-z
x,y,-z
-y,x,1/2-z
1/2-x,1/2+y,z
1/2+x,1/2-y,z
1/2-y,1/2-x,1/2+z
1/2+y,1/2+x,1/2+z
loop_
_atom_site_type_symbol
_atom_site_label
_atom_site_fract_x
_atom_site_fract_y
_atom_site_fract_z
Si Si1 0.211825 0.934065 0.610267
Si Si2 0.755264 0.911267 0.783696
Si Si3 0.096889 0.442242 0.861499
O O1 0.172652 0.964234 0.500000
O O2 0.134816 0.852374 0.659391
O O3 0.327263 0.884712 0.596277
O O4 0.210889 0.033258 0.682001
O O5 0.678367 0.821634 0.750000
O O6 0.701865 0.989009 0.863732
O O7 0.065688 0.434313 0.750000
O O8 0.000000 0.500000 0.916489
#
# Coordination Sequence:
#
# PCOD8317629 Si02
#       3
#    16  16  16
#     4  11  25  41  66 100 128 172 228 271 324 392
#     4  11  21  43  67  93 138 175 211 269 333 384
#     4   9  16  38  67  92 125 169 210 261 321 378
#
# _framework density 21.370372
#
# number of rings (size 3 to 8) (size 9 to 14) (size 15 to 20)
#    0.000    1.667    6.667    3.000    0.000    4.000 
#    0.000    3.333    0.000    0.000    0.000    0.000 
#    0.000    0.000    0.000    0.000    0.000    0.000 
#
# Total GULP energy -594650.413439 kJ/mol
# GULP energy per Si atom -12388.550280 kJ/mol
# Density = 2.132173 g / cm^3
# Si number density = 21.370372 Si / 1000 Ang^3
#
#
#
# Elastic Constant Matrix: (Units=GPa)
#
#
# Indices 1 2 3 4 5 6 
#
# 1 97.7011 82.8409 62.9791 0.0000 0.0000 0.0000
# 2 82.8409 97.7004 62.9803 0.0000 0.0000 0.0000
# 3 62.9791 62.9803 157.8071 0.0000 0.0000 0.0000
# 4 0.0000 0.0000 0.0000 63.9952 0.0000 0.0000
# 5 0.0000 0.0000 0.0000 0.0000 63.9855 0.0000
# 6 0.0000 0.0000 0.0000 0.0000 0.0000 59.7320
#
#
#
# Elastic Compliance Matrix: (Units=1/GPa)
#
#
# Indices 1 2 3 4 5 6 
#
# 1 0.037485 -0.029810 -0.003063 0.000000 0.000000 0.000000
# 2 -0.029810 0.037486 -0.003064 0.000000 0.000000 0.000000
# 3 -0.003063 -0.003064 0.008782 0.000000 0.000000 0.000000
# 4 0.000000 0.000000 0.000000 0.015626 0.000000 0.000000
# 5 0.000000 0.000000 0.000000 0.000000 0.015629 0.000000
# 6 0.000000 0.000000 0.000000 0.000000 0.000000 0.016741
#
#
# Mechanical properties :
#
#
# Convention : Reuss Voigt Hill
#
# Bulk Modulus (GPa) = 84.17178 85.64547 84.90862
# Shear Modulus (GPa) = 24.08672 47.16976 35.62824
#
# Velocity S-wave (km/s) = 3.36089 4.70323 4.08754
# Velocity P-wave (km/s) = 7.38467 8.34611 7.88007
#
# Compressibility (1/GPa) = 0.01188047
#
# Stress axis : x y z
#
# Youngs Moduli (GPa) = 26.67708 26.67646 113.86770
#
# Poissons Ratio (x) = 0.79521 0.34879
# Poissons Ratio (y) = 0.79523 0.34889
# Poissons Ratio (z) = 0.08171 0.08174
#
# Static dielectric constant tensor:
#      x y z
#    x 4.759650 0.000000 0.000000 
#    y 0.000000 4.759550 0.000000 
#    z 0.000000 0.000000 3.470600 
# 
# 
# High freq. dielectric constant tensor:
#      x y z
#    x 1.832320 0.000000 0.000000 
#    y 0.000000 1.832320 0.000000 
#    z 0.000000 0.000000 1.837970 
# 
# From -- ./inp_files/2959.got.cif
#   From: 2010.03.12/outbox.cif.g09.slc.cpg/sg135_2_cif.got.tgz:2959.got - 2010.04.06 18:31:24.
