data_PCOD8317623
_publ_section_title
;
Structure prediction by ZEFSAII (Michael W. Deem and Ramdas Pophale) SiO2 
 PCOD8317623
Probable space group: P 42/M B C
;
_chemical_formula_sum "Si O2"
_cell_formula_units_Z 96
_cell_length_a 16.669186
_cell_length_b 16.669186
_cell_length_c 18.298917
_cell_angle_alpha 90.000000
_cell_angle_beta 90.000000
_cell_angle_gamma 90.000000
_cell_volume 5084.569319
_symmetry_space_group_name_H-M "P 42/M B C"
_symmetry_group_IT_number 135
_symmetry_cell_setting 'tetragonal'
loop_
_space_group_symop_operation_xyz
x,y,z
-y,x,1/2+z
-x,-y,z
y,-x,1/2+z
1/2+x,1/2-y,-z
1/2-x,1/2+y,-z
1/2+y,1/2+x,1/2-z
1/2-y,1/2-x,1/2-z
-x,-y,-z
y,-x,1/2-z
x,y,-z
-y,x,1/2-z
1/2-x,1/2+y,z
1/2+x,1/2-y,z
1/2-y,1/2-x,1/2+z
1/2+y,1/2+x,1/2+z
loop_
_atom_site_type_symbol
_atom_site_label
_atom_site_fract_x
_atom_site_fract_y
_atom_site_fract_z
Si Si1 0.581209 0.451326 0.080165
Si Si2 0.668812 0.492567 0.675170
Si Si3 0.991750 0.676175 0.913977
Si Si4 0.550912 0.921149 0.673054
Si Si5 0.670713 0.571083 0.827624
Si Si6 0.107751 0.343409 0.331682
O O1 0.500000 0.500000 0.072136
O O2 0.564363 0.381769 0.138313
O O3 0.653439 0.507482 0.108164
O O4 0.605452 0.417255 0.000000
O O5 0.743873 0.476794 0.623725
O O6 0.694113 0.523479 0.754324
O O7 0.623333 0.408595 0.684476
O O8 0.901741 0.654468 0.887203
O O9 0.059987 0.610955 0.893510
O O10 0.989565 0.687672 0.000000
O O11 0.597182 0.902819 0.750000
O O12 0.488605 0.850216 0.654988
O O13 0.500000 0.000000 0.686319
O O14 0.748950 0.625869 0.847253
O O15 0.131871 0.368130 0.250000
#
# Coordination Sequence:
#
# PCOD8317623 Si02
#       6
#    16  16  16  16  16  16
#     4   9  19  34  55  82 116 151 191 244 294 345
#     4  11  20  37  60  90 122 158 206 246 301 377
#     4  11  23  38  62  91 123 162 200 252 317 369
#     4   9  15  33  58  82 111 151 197 239 286 358
#     4  11  21  35  63  90 114 160 209 249 299 366
#     4  11  20  37  61  87 119 155 200 254 307 359
#
# _framework density 18.880655000000001
#
# number of rings (size 3 to 8) (size 9 to 14) (size 15 to 20)
#    0.000    1.667    6.667    0.500    0.000    4.333 
#    0.000    4.167    0.000    0.000    0.000    0.000 
#    0.000    0.000    0.000    0.000    0.000    0.000 
#
# Total GULP energy -1189727.566289 kJ/mol
# GULP energy per Si atom -12392.995482 kJ/mol
# Density = 1.883768 g / cm^3
# Si number density = 18.880655 Si / 1000 Ang^3
#
#
#
# Elastic Constant Matrix: (Units=GPa)
#
#
# Indices 1 2 3 4 5 6 
#
# 1 71.5165 22.3436 24.8402 0.0000 0.0000 0.0000
# 2 22.3436 71.5162 24.8402 0.0000 0.0000 0.0000
# 3 24.8402 24.8402 121.4375 0.0000 0.0000 0.0000
# 4 0.0000 0.0000 0.0000 16.0986 0.0000 0.0000
# 5 0.0000 0.0000 0.0000 0.0000 16.0985 0.0000
# 6 0.0000 0.0000 0.0000 0.0000 0.0000 15.8517
#
#
#
# Elastic Compliance Matrix: (Units=1/GPa)
#
#
# Indices 1 2 3 4 5 6 
#
# 1 0.016142 -0.004194 -0.002444 0.000000 0.000000 0.000000
# 2 -0.004194 0.016142 -0.002444 0.000000 0.000000 0.000000
# 3 -0.002444 -0.002444 0.009235 0.000000 0.000000 0.000000
# 4 0.000000 0.000000 0.000000 0.062117 0.000000 0.000000
# 5 0.000000 0.000000 0.000000 0.000000 0.062117 0.000000
# 6 0.000000 0.000000 0.000000 0.000000 0.000000 0.063085
#
#
# Mechanical properties :
#
#
# Convention : Reuss Voigt Hill
#
# Bulk Modulus (GPa) = 42.81867 45.39091 44.10479
# Shear Modulus (GPa) = 19.62419 22.43950 21.03185
#
# Velocity S-wave (km/s) = 3.22744 3.45119 3.34119
# Velocity P-wave (km/s) = 6.05114 6.32251 6.18831
#
# Compressibility (1/GPa) = 0.02335430
#
# Stress axis : x y z
#
# Youngs Moduli (GPa) = 61.94992 61.94963 108.28947
#
# Poissons Ratio (x) = 0.25984 0.26465
# Poissons Ratio (y) = 0.25984 0.26465
# Poissons Ratio (z) = 0.15140 0.15140
#
# Static dielectric constant tensor:
#      x y z
#    x 3.575160 0.000000 0.000000 
#    y 0.000000 3.575120 0.000000 
#    z 0.000000 0.000000 3.625140 
# 
# 
# High freq. dielectric constant tensor:
#      x y z
#    x 1.715900 0.000000 0.000000 
#    y 0.000000 1.715900 0.000000 
#    z 0.000000 0.000000 1.736490 
# 
# From -- ./inp_files/4447.got.cif
#   From: 2010.03.12/outbox.cif.g09.slc.cpg/sg135_3_cif.got.tgz:4447.got - 2010.04.06 18:31:24.
