data_PCOD8317417
_publ_section_title
;
Structure prediction by ZEFSAII (Michael W. Deem and Ramdas Pophale) SiO2 
 PCOD8317417
Probable space group: P 42/M B C
;
_chemical_formula_sum "Si O2"
_cell_formula_units_Z 112
_cell_length_a 17.436502
_cell_length_b 17.436502
_cell_length_c 20.034836
_cell_angle_alpha 90.000000
_cell_angle_beta 90.000000
_cell_angle_gamma 90.000000
_cell_volume 6091.223285
_symmetry_space_group_name_H-M "P 42/M B C"
_symmetry_group_IT_number 135
_symmetry_cell_setting 'tetragonal'
loop_
_space_group_symop_operation_xyz
x,y,z
-y,x,1/2+z
-x,-y,z
y,-x,1/2+z
1/2+x,1/2-y,-z
1/2-x,1/2+y,-z
1/2+y,1/2+x,1/2-z
1/2-y,1/2-x,1/2-z
-x,-y,-z
y,-x,1/2-z
x,y,-z
-y,x,1/2-z
1/2-x,1/2+y,z
1/2+x,1/2-y,z
1/2-y,1/2-x,1/2+z
1/2+y,1/2+x,1/2+z
loop_
_atom_site_type_symbol
_atom_site_label
_atom_site_fract_x
_atom_site_fract_y
_atom_site_fract_z
Si Si1 0.564869 0.057580 0.079090
Si Si2 0.215835 0.201668 0.308035
Si Si3 0.684203 0.818079 0.426632
Si Si4 0.216764 0.504038 0.424394
Si Si5 0.224670 0.511558 0.922327
Si Si6 0.539753 0.671134 0.813747
Si Si7 0.945081 0.836761 0.320563
O O1 0.548152 0.145534 0.100239
O O2 0.650416 0.035626 0.103822
O O3 0.500000 0.000000 0.109493
O O4 0.561706 0.049083 0.000000
O O5 0.249823 0.250178 0.250000
O O6 0.256692 0.223262 0.377305
O O7 0.227304 0.110383 0.293315
O O8 0.126035 0.222132 0.312490
O O9 0.707596 0.789268 0.500000
O O10 0.687338 0.909364 0.423035
O O11 0.599530 0.792497 0.408447
O O12 0.242323 0.481865 0.500000
O O13 0.289348 0.492272 0.374399
O O14 0.302393 0.494732 0.880805
O O15 0.241385 0.494260 0.000000
O O16 0.488285 0.657123 0.749488
O O17 0.578219 0.589782 0.837921
#
# Coordination Sequence:
#
# PCOD8317417 Si02
#       7
#    16  16  16  16  16  16  16
#     4   9  15  26  47  79 117 149 173 206 264 332
#     4   9  19  34  54  75 105 144 179 229 278 331
#     4   9  16  29  53  82 111 143 179 218 271 336
#     4   9  16  30  54  81 109 145 180 214 266 335
#     4  10  19  31  54  86 114 142 181 227 270 329
#     4   9  21  37  55  76 100 144 186 230 283 325
#     4  10  22  36  54  77 103 140 189 235 275 326
#
# _framework density 18.387111000000001
#
# number of rings (size 3 to 8) (size 9 to 14) (size 15 to 20)
#    0.857    1.857    1.429    0.857    0.000    2.571 
#    0.000    0.000    0.000    2.571    0.000    2.000 
#    0.000    0.000    0.000    0.000    0.000    0.000 
#
# Total GULP energy -1387561.452107 kJ/mol
# GULP energy per Si atom -12388.941537 kJ/mol
# Density = 1.834526 g / cm^3
# Si number density = 18.387111 Si / 1000 Ang^3
#
#
#
# Elastic Constant Matrix: (Units=GPa)
#
#
# Indices 1 2 3 4 5 6 
#
# 1 65.0868 24.6437 40.0331 0.0000 0.0000 0.0000
# 2 24.6437 65.0869 40.0325 0.0000 0.0000 0.0000
# 3 40.0331 40.0325 78.1548 0.0000 0.0000 0.0000
# 4 0.0000 0.0000 0.0000 23.3566 0.0000 0.0000
# 5 0.0000 0.0000 0.0000 0.0000 23.3480 0.0000
# 6 0.0000 0.0000 0.0000 0.0000 0.0000 -3.2594
#
#
#
# Elastic Compliance Matrix: (Units=1/GPa)
#
#
# Indices 1 2 3 4 5 6 
#
# 1 0.022626 -0.002100 -0.010514 0.000000 0.000000 0.000000
# 2 -0.002100 0.022626 -0.010514 0.000000 0.000000 0.000000
# 3 -0.010514 -0.010514 0.023566 0.000000 0.000000 0.000000
# 4 0.000000 0.000000 0.000000 0.042815 0.000000 0.000000
# 5 0.000000 0.000000 0.000000 0.000000 0.042830 0.000000
# 6 0.000000 0.000000 0.000000 0.000000 0.000000 -0.306806
#
#
# Mechanical properties :
#
#
# Convention : Reuss Voigt Hill
#
# Bulk Modulus (GPa) = 44.32162 46.41634 45.36898
# Shear Modulus (GPa) = -50.72686 15.59698 -17.56494
#
# Velocity S-wave (km/s) = -5.25815 2.91564 -3.09412
# Velocity P-wave (km/s) = 3.56471 6.05255 3.45877
#
# Compressibility (1/GPa) = 0.02256235
#
# Stress axis : x y z
#
# Youngs Moduli (GPa) = 44.19665 44.19733 42.43393
#
# Poissons Ratio (x) = 0.09282 0.44615
# Poissons Ratio (y) = 0.09282 0.44614
# Poissons Ratio (z) = 0.46469 0.46468
#
# Static dielectric constant tensor:
#      x y z
#    x 3.289250 0.000000 0.000000 
#    y 0.000000 3.289250 0.000000 
#    z 0.000000 0.000000 2.401430 
# 
# 
# High freq. dielectric constant tensor:
#      x y z
#    x 1.699050 0.000000 0.000000 
#    y 0.000000 1.699050 0.000000 
#    z 0.000000 0.000000 1.695700 
# 
# From -- ./inp_files/5629.got.cif
#   From: 2010.03.12/outbox.cif.g09.slc.cpg/sg135_3_cif.got.tgz:5629.got - 2010.04.06 18:31:24.
