data_PCOD8317235
_publ_section_title
;
Structure prediction by ZEFSAII (Michael W. Deem and Ramdas Pophale) SiO2 
 PCOD8317235
Probable space group: P 42/N N M
;
_chemical_formula_sum "Si O2"
_cell_formula_units_Z 40
_cell_length_a 10.228833
_cell_length_b 10.228833
_cell_length_c 17.431423
_cell_angle_alpha 90.000000
_cell_angle_beta 90.000000
_cell_angle_gamma 90.000000
_cell_volume 1823.832785
_symmetry_space_group_name_H-M "P 42/N N M"
_symmetry_group_IT_number 134
_space_group.IT_coordinate_system_code '2'
_symmetry_cell_setting 'tetragonal'
loop_
_space_group_symop_operation_xyz
x,y,z
1/2-y,x,1/2+z
1/2-x,1/2-y,z
y,1/2-x,1/2+z
x,1/2-y,1/2-z
1/2-x,y,1/2-z
y,x,-z
1/2-y,1/2-x,-z
-x,-y,-z
1/2+y,-x,1/2-z
1/2+x,1/2+y,-z
-y,1/2+x,1/2-z
-x,1/2+y,1/2+z
1/2+x,-y,1/2+z
-y,-x,z
1/2+y,1/2+x,z
loop_
_atom_site_type_symbol
_atom_site_label
_atom_site_fract_x
_atom_site_fract_y
_atom_site_fract_z
Si Si1 0.172135 0.128721 0.617934
Si Si2 0.749100 0.040239 0.980890
Si Si3 0.250000 0.949680 0.750000
O O1 0.250000 0.250000 0.651078
O O2 0.028770 0.181363 0.592982
O O3 0.258003 0.067791 0.547920
O O4 0.165877 0.028789 0.687860
O O5 0.890125 0.109876 0.962647
O O6 0.650042 0.150042 0.011161
O O7 0.357575 0.857575 0.707505
#
# Coordination Sequence:
#
# PCOD8317235 Si02
#       3
#    16  16   8
#     4  11  22  36  56  86 120 153 193 243 297 358
#     4  10  20  36  60  87 116 152 195 244 295 350
#     4  11  23  40  62  84 113 157 204 252 304 357
#
# _framework density 21.931837000000002
#
# number of rings (size 3 to 8) (size 9 to 14) (size 15 to 20)
#    0.000    1.400    0.000    9.000    0.000    8.000 
#    0.000    0.000    0.000    0.000    0.000    5.600 
#    0.000    0.000    0.000    0.000    0.000    0.000 
#
# Total GULP energy -495604.866173 kJ/mol
# GULP energy per Si atom -12390.121654 kJ/mol
# Density = 2.188192 g / cm^3
# Si number density = 21.931837 Si / 1000 Ang^3
#
#
#
# Elastic Constant Matrix: (Units=GPa)
#
#
# Indices 1 2 3 4 5 6 
#
# 1 120.2923 60.8694 38.5516 0.0000 0.0000 0.0000
# 2 60.8694 120.2923 38.5516 0.0000 0.0000 0.0000
# 3 38.5516 38.5516 83.9341 0.0000 0.0000 0.0000
# 4 0.0000 0.0000 0.0000 41.5678 0.0000 0.0000
# 5 0.0000 0.0000 0.0000 0.0000 41.5678 0.0000
# 6 0.0000 0.0000 0.0000 0.0000 0.0000 58.0757
#
#
#
# Elastic Compliance Matrix: (Units=1/GPa)
#
#
# Indices 1 2 3 4 5 6 
#
# 1 0.011845 -0.004984 -0.003151 0.000000 0.000000 0.000000
# 2 -0.004984 0.011845 -0.003151 0.000000 0.000000 0.000000
# 3 -0.003151 -0.003151 0.014809 0.000000 0.000000 0.000000
# 4 0.000000 0.000000 0.000000 0.024057 0.000000 0.000000
# 5 0.000000 0.000000 0.000000 0.000000 0.024057 0.000000
# 6 0.000000 0.000000 0.000000 0.000000 0.000000 0.017219
#
#
# Mechanical properties :
#
#
# Convention : Reuss Voigt Hill
#
# Bulk Modulus (GPa) = 62.79116 66.71821 64.75469
# Shear Modulus (GPa) = 37.96123 40.67866 39.31994
#
# Velocity S-wave (km/s) = 4.16489 4.31138 4.23877
# Velocity P-wave (km/s) = 7.19866 7.43443 7.31750
#
# Compressibility (1/GPa) = 0.01592581
#
# Stress axis : x y z
#
# Youngs Moduli (GPa) = 84.42491 84.42491 67.52638
#
# Poissons Ratio (x) = 0.42075 0.21280
# Poissons Ratio (y) = 0.42075 0.21280
# Poissons Ratio (z) = 0.26606 0.26606
#
# Static dielectric constant tensor:
#      x y z
#    x 4.166340 0.000000 0.000000 
#    y 0.000000 4.166340 0.000000 
#    z 0.000000 0.000000 3.500930 
# 
# 
# High freq. dielectric constant tensor:
#      x y z
#    x 1.875200 0.000000 0.000000 
#    y 0.000000 1.875200 0.000000 
#    z 0.000000 0.000000 1.819550 
# 
# From -- ./inp_files/7065.got.cif
#   From: 2010.03.12/outbox.cif.g09.slc.cpg/sg134_4_cif.got.tgz:7065.got - 2010.04.06 18:17:22.
