data_PCOD8317107
_publ_section_title
;
Structure prediction by ZEFSAII (Michael W. Deem and Ramdas Pophale) SiO2 
 PCOD8317107
Probable space group: P 42/N N M
;
_chemical_formula_sum "Si O2"
_cell_formula_units_Z 112
_cell_length_a 14.591812
_cell_length_b 14.591812
_cell_length_c 28.087410
_cell_angle_alpha 90.000000
_cell_angle_beta 90.000000
_cell_angle_gamma 90.000000
_cell_volume 5980.398791
_symmetry_space_group_name_H-M "P 42/N N M"
_symmetry_group_IT_number 134
_space_group.IT_coordinate_system_code '2'
_symmetry_cell_setting 'tetragonal'
loop_
_space_group_symop_operation_xyz
x,y,z
1/2-y,x,1/2+z
1/2-x,1/2-y,z
y,1/2-x,1/2+z
x,1/2-y,1/2-z
1/2-x,y,1/2-z
y,x,-z
1/2-y,1/2-x,-z
-x,-y,-z
1/2+y,-x,1/2-z
1/2+x,1/2+y,-z
-y,1/2+x,1/2-z
-x,1/2+y,1/2+z
1/2+x,-y,1/2+z
-y,-x,z
1/2+y,1/2+x,z
loop_
_atom_site_type_symbol
_atom_site_label
_atom_site_fract_x
_atom_site_fract_y
_atom_site_fract_z
Si Si1 0.898572 0.251849 0.956718
Si Si2 0.431063 0.419205 0.706400
Si Si3 0.641912 0.987682 0.474288
Si Si4 0.136881 0.488709 0.631302
Si Si5 0.712633 0.062552 0.198089
Si Si6 0.449731 0.698412 0.353870
Si Si7 0.976900 0.627509 0.305547
O O1 0.835898 0.164103 0.943948
O O2 0.835554 0.335554 0.975033
O O3 0.953675 0.279912 0.909506
O O4 0.973254 0.229298 0.996909
O O5 0.493680 0.506321 0.716418
O O6 0.330361 0.460266 0.698934
O O7 0.463053 0.364743 0.659374
O O8 0.436442 0.352737 0.752697
O O9 0.603128 0.896873 0.500000
O O10 0.675912 0.962441 0.420969
O O11 0.565272 0.065272 0.473494
O O12 0.206142 0.554473 0.660007
O O13 0.109138 0.395412 0.659510
O O14 0.044529 0.544529 0.622101
O O15 0.750000 0.089019 0.250000
O O16 0.641750 0.141750 0.181415
O O17 0.354701 0.645300 0.340571
O O18 0.458582 0.790337 0.323194
O O19 0.037710 0.537710 0.302586
#
# Coordination Sequence:
#
# PCOD8317107 Si02
#       7
#    16  16  16  16  16  16  16
#     4   9  17  29  46  71 104 136 168 216 270 314
#     4   9  19  34  50  70 102 139 173 215 266 316
#     4   9  17  30  49  75 105 138 175 213 261 323
#     4  10  20  33  53  81 109 140 177 219 270 324
#     4  11  21  36  56  78 107 141 178 220 271 329
#     4  10  19  31  50  74  99 136 181 217 260 318
#     4  10  18  31  50  73 106 140 171 215 267 317
#
# _framework density 18.727847000000001
#
# number of rings (size 3 to 8) (size 9 to 14) (size 15 to 20)
#    0.000    2.286    1.429    2.143    0.000    4.714 
#    0.000    2.857    0.000    6.000    0.000    5.000 
#    0.000    0.000    0.000    0.000    0.000    0.000 
#
# Total GULP energy -1388219.274867 kJ/mol
# GULP energy per Si atom -12394.814954 kJ/mol
# Density = 1.868522 g / cm^3
# Si number density = 18.727847 Si / 1000 Ang^3
#
#
#
# Elastic Constant Matrix: (Units=GPa)
#
#
# Indices 1 2 3 4 5 6 
#
# 1 54.1922 30.5044 34.0222 0.0000 0.0000 0.0000
# 2 30.5044 54.1922 34.0222 0.0000 0.0000 0.0000
# 3 34.0222 34.0222 115.7994 0.0000 0.0000 0.0000
# 4 0.0000 0.0000 0.0000 22.8150 0.0000 0.0000
# 5 0.0000 0.0000 0.0000 0.0000 22.8150 0.0000
# 6 0.0000 0.0000 0.0000 0.0000 0.0000 31.9137
#
#
#
# Elastic Compliance Matrix: (Units=1/GPa)
#
#
# Indices 1 2 3 4 5 6 
#
# 1 0.028835 -0.013381 -0.004541 0.000000 0.000000 0.000000
# 2 -0.013381 0.028835 -0.004541 0.000000 0.000000 0.000000
# 3 -0.004541 -0.004541 0.011304 0.000000 0.000000 0.000000
# 4 0.000000 0.000000 0.000000 0.043831 0.000000 0.000000
# 5 0.000000 0.000000 0.000000 0.000000 0.043831 0.000000
# 6 0.000000 0.000000 0.000000 0.000000 0.000000 0.031334
#
#
# Mechanical properties :
#
#
# Convention : Reuss Voigt Hill
#
# Bulk Modulus (GPa) = 41.57891 46.80903 44.19397
# Shear Modulus (GPa) = 20.75455 23.88441 22.31948
#
# Velocity S-wave (km/s) = 3.33260 3.57507 3.45596
# Velocity P-wave (km/s) = 6.08754 6.48769 6.29080
#
# Compressibility (1/GPa) = 0.02405065
#
# Stress axis : x y z
#
# Youngs Moduli (GPa) = 34.67970 34.67974 88.46629
#
# Poissons Ratio (x) = 0.46403 0.40169
# Poissons Ratio (y) = 0.46403 0.40169
# Poissons Ratio (z) = 0.15747 0.15747
#
# Static dielectric constant tensor:
#      x y z
#    x 3.287260 0.000000 0.000000 
#    y 0.000000 3.287260 0.000000 
#    z 0.000000 0.000000 3.609740 
# 
# 
# High freq. dielectric constant tensor:
#      x y z
#    x 1.704560 0.000000 0.000000 
#    y 0.000000 1.704560 0.000000 
#    z 0.000000 0.000000 1.728380 
# 
# From -- ./inp_files/10814.got.cif
#   From: 2010.03.12/outbox.cif.g09.slc.cpg/sg134_6_cif.got.tgz:10814.got - 2010.04.06 18:17:22.
