data_PCOD8317745
_publ_section_title
;
Structure prediction by ZEFSAII (Michael W. Deem and Ramdas Pophale) SiO2 
 PCOD8317745
Probable space group: P 42/M N M
;
_chemical_formula_sum "Si O2"
_cell_formula_units_Z 96
_cell_length_a 24.163799
_cell_length_b 24.163799
_cell_length_c 9.653619
_cell_angle_alpha 90.000000
_cell_angle_beta 90.000000
_cell_angle_gamma 90.000000
_cell_volume 5636.643702
_symmetry_space_group_name_H-M "P 42/M N M"
_symmetry_group_IT_number 136
_symmetry_cell_setting 'tetragonal'
loop_
_space_group_symop_operation_xyz
x,y,z
1/2-y,1/2+x,1/2+z
-x,-y,z
1/2+y,1/2-x,1/2+z
1/2+x,1/2-y,1/2-z
1/2-x,1/2+y,1/2-z
y,x,-z
-y,-x,-z
-x,-y,-z
1/2+y,1/2-x,1/2-z
x,y,-z
1/2-y,1/2+x,1/2-z
1/2-x,1/2+y,1/2+z
1/2+x,1/2-y,1/2+z
-y,-x,z
y,x,z
loop_
_atom_site_type_symbol
_atom_site_label
_atom_site_fract_x
_atom_site_fract_y
_atom_site_fract_z
Si Si1 0.946309 0.357885 0.155847
Si Si2 0.226552 0.356175 0.664887
Si Si3 0.561658 0.561658 0.336532
Si Si4 0.935672 0.935672 0.164563
Si Si5 0.644506 0.355495 0.165343
Si Si6 0.550814 0.144191 0.843993
Si Si7 0.270099 0.139570 0.664402
Si Si8 0.850149 0.149852 0.834515
O O1 0.909767 0.307259 0.214570
O O2 0.911317 0.413682 0.159421
O O3 0.998573 0.366053 0.250492
O O4 0.966082 0.345087 0.000000
O O5 0.226999 0.353376 0.500000
O O6 0.195949 0.300041 0.719887
O O7 0.288658 0.363206 0.722039
O O8 0.564339 0.564339 0.500000
O O9 0.499147 0.577425 0.291682
O O10 0.605649 0.605649 0.272669
O O11 0.895998 0.895998 0.252178
O O12 0.926570 0.926570 0.000000
O O13 0.632815 0.292762 0.214445
O O14 0.636596 0.363405 0.000000
O O15 0.586266 0.195652 0.784047
O O16 0.531283 0.157048 0.000000
O O17 0.272366 0.142317 0.500000
O O18 0.851949 0.148052 0.000000
#
# Coordination Sequence:
#
# PCOD8317745 Si02
#       8
#    16  16   8   8   8  16  16   8
#     4   9  18  31  46  67  93 119 152 192 228 265
#     4   8  14  25  42  66  93 115 141 186 233 265
#     4   8  16  30  44  59  87 125 152 175 218 269
#     4   9  18  33  47  62  93 127 148 176 223 267
#     4  10  18  29  50  74  90 113 152 185 212 263
#     4   9  18  32  47  64  91 124 153 185 229 274
#     4   8  15  28  44  64  92 120 143 177 228 274
#     4   9  14  22  43  71  90 111 150 190 222 263
#
# _framework density 17.031412
#
# number of rings (size 3 to 8) (size 9 to 14) (size 15 to 20)
#    0.000    3.333    0.000    3.000    0.000    4.333 
#    0.000    5.000    0.000    1.000    0.000    1.750 
#    0.000    0.000    0.000    0.000    0.000    0.000 
#
# Total GULP energy -1189620.479353 kJ/mol
# GULP energy per Si atom -12391.879993 kJ/mol
# Density = 1.699265 g / cm^3
# Si number density = 17.031412 Si / 1000 Ang^3
#
#
#
# Elastic Constant Matrix: (Units=GPa)
#
#
# Indices 1 2 3 4 5 6 
#
# 1 103.2700 81.4613 35.4227 0.0000 0.0000 0.0000
# 2 81.4613 103.2702 35.4226 0.0000 0.0000 0.0000
# 3 35.4227 35.4226 33.8833 0.0000 0.0000 0.0000
# 4 0.0000 0.0000 0.0000 18.5628 0.0000 0.0000
# 5 0.0000 0.0000 0.0000 0.0000 18.5628 0.0000
# 6 0.0000 0.0000 0.0000 0.0000 0.0000 21.9464
#
#
#
# Elastic Compliance Matrix: (Units=1/GPa)
#
#
# Indices 1 2 3 4 5 6 
#
# 1 0.027445 -0.018408 -0.009447 0.000000 0.000000 0.000000
# 2 -0.018408 0.027444 -0.009446 0.000000 0.000000 0.000000
# 3 -0.009447 -0.009446 0.049264 0.000000 0.000000 0.000000
# 4 0.000000 0.000000 0.000000 0.053871 0.000000 0.000000
# 5 0.000000 0.000000 0.000000 0.000000 0.053871 0.000000
# 6 0.000000 0.000000 0.000000 0.000000 0.000000 0.045566
#
#
# Mechanical properties :
#
#
# Convention : Reuss Voigt Hill
#
# Bulk Modulus (GPa) = 33.84058 60.55962 47.20010
# Shear Modulus (GPa) = 14.62353 17.68887 16.15620
#
# Velocity S-wave (km/s) = 2.93340 3.22623 3.08330
# Velocity P-wave (km/s) = 5.60230 7.03654 6.35998
#
# Compressibility (1/GPa) = 0.02955032
#
# Stress axis : x y z
#
# Youngs Moduli (GPa) = 36.43700 36.43727 20.29862
#
# Poissons Ratio (x) = 0.67075 0.19176
# Poissons Ratio (y) = 0.67075 0.19175
# Poissons Ratio (z) = 0.34421 0.34420
#
# Static dielectric constant tensor:
#      x y z
#    x 3.410040 0.000000 0.000000 
#    y 0.000000 3.410040 0.000000 
#    z 0.000000 0.000000 2.660450 
# 
# 
# High freq. dielectric constant tensor:
#      x y z
#    x 1.664170 0.000000 0.000000 
#    y 0.000000 1.664170 0.000000 
#    z 0.000000 0.000000 1.597490 
# 
# From -- ./inp_files/3962.got.cif
#   From: 2010.03.12/outbox.cif.g09.slc.cpg/sg136_2_cif.got.tgz:3962.got - 2010.04.06 18:39:43.
