data_PCOD8317924
_publ_section_title
;
Structure prediction by ZEFSAII (Michael W. Deem and Ramdas Pophale) SiO2 
 PCOD8317924
Probable space group: P 42/M N M
;
_chemical_formula_sum "Si O2"
_cell_formula_units_Z 104
_cell_length_a 17.814696
_cell_length_b 17.814696
_cell_length_c 18.362528
_cell_angle_alpha 90.000000
_cell_angle_beta 90.000000
_cell_angle_gamma 90.000000
_cell_volume 5827.594201
_symmetry_space_group_name_H-M "P 42/M N M"
_symmetry_group_IT_number 136
_symmetry_cell_setting 'tetragonal'
loop_
_space_group_symop_operation_xyz
x,y,z
1/2-y,1/2+x,1/2+z
-x,-y,z
1/2+y,1/2-x,1/2+z
1/2+x,1/2-y,1/2-z
1/2-x,1/2+y,1/2-z
y,x,-z
-y,-x,-z
-x,-y,-z
1/2+y,1/2-x,1/2-z
x,y,-z
1/2-y,1/2+x,1/2-z
1/2-x,1/2+y,1/2+z
1/2+x,1/2-y,1/2+z
-y,-x,z
y,x,z
loop_
_atom_site_type_symbol
_atom_site_label
_atom_site_fract_x
_atom_site_fract_y
_atom_site_fract_z
Si Si1 0.501927 0.380902 0.676268
Si Si2 0.669007 0.986636 0.326105
Si Si3 0.943468 0.568741 0.919287
Si Si4 0.096295 0.780090 0.916532
Si Si5 0.562843 0.562843 0.917895
Si Si6 0.665473 0.456462 0.166582
Si Si7 0.148048 0.442911 0.676961
O O1 0.568454 0.431547 0.642474
O O2 0.433080 0.433080 0.701784
O O3 0.476612 0.323644 0.613776
O O4 0.531388 0.338349 0.747137
O O5 0.746526 0.948647 0.353839
O O6 0.606094 0.925322 0.307490
O O7 0.636777 0.041961 0.388026
O O8 0.684867 0.034913 0.253627
O O9 0.000000 0.500000 0.924450
O O10 0.980723 0.631173 0.867553
O O11 0.929835 0.602373 0.000000
O O12 0.171059 0.828942 0.908223
O O13 0.108072 0.705060 0.869709
O O14 0.080853 0.759074 0.000000
O O15 0.500000 0.500000 0.918741
O O16 0.529394 0.634585 0.875914
O O17 0.585912 0.585912 0.000000
O O18 0.618836 0.381165 0.144469
#
# Coordination Sequence:
#
# PCOD8317924 Si02
#       7
#    16  16  16  16   8  16  16
#     4   9  16  29  51  76 102 132 172 219 260 305
#     4  11  21  33  57  80 108 139 182 229 275 324
#     4   9  19  34  54  78 104 134 174 225 273 316
#     4  10  21  35  53  79 112 146 178 216 273 335
#     4   9  18  34  56  80 109 143 181 225 269 321
#     4  10  19  33  54  82 111 143 180 221 274 327
#     4  11  20  35  55  80 108 143 180 228 273 329
#
# _framework density 17.846129000000001
#
# number of rings (size 3 to 8) (size 9 to 14) (size 15 to 20)
#    0.000    2.077    3.846    0.462    0.000    2.154 
#    0.000    1.538    0.000    1.846    2.000    0.000 
#    0.000    0.000    0.000    0.000    0.000    0.000 
#
# Total GULP energy -1289486.726730 kJ/mol
# GULP energy per Si atom -12398.910834 kJ/mol
# Density = 1.780551 g / cm^3
# Si number density = 17.846129 Si / 1000 Ang^3
#
#
#
# Elastic Constant Matrix: (Units=GPa)
#
#
# Indices 1 2 3 4 5 6 
#
# 1 78.3690 16.7775 26.9352 0.0000 0.0000 0.0000
# 2 16.7775 78.3690 26.9352 0.0000 0.0000 0.0000
# 3 26.9352 26.9352 102.8786 0.0000 0.0000 0.0000
# 4 0.0000 0.0000 0.0000 21.4485 0.0000 0.0000
# 5 0.0000 0.0000 0.0000 0.0000 21.4485 0.0000
# 6 0.0000 0.0000 0.0000 0.0000 0.0000 18.5242
#
#
#
# Elastic Compliance Matrix: (Units=1/GPa)
#
#
# Indices 1 2 3 4 5 6 
#
# 1 0.014288 -0.001948 -0.003231 0.000000 0.000000 0.000000
# 2 -0.001948 0.014288 -0.003231 0.000000 0.000000 0.000000
# 3 -0.003231 -0.003231 0.011412 0.000000 0.000000 0.000000
# 4 0.000000 0.000000 0.000000 0.046623 0.000000 0.000000
# 5 0.000000 0.000000 0.000000 0.000000 0.046623 0.000000
# 6 0.000000 0.000000 0.000000 0.000000 0.000000 0.053983
#
#
# Mechanical properties :
#
#
# Convention : Reuss Voigt Hill
#
# Bulk Modulus (GPa) = 43.16320 44.54582 43.85451
# Shear Modulus (GPa) = 23.61176 24.88215 24.24696
#
# Velocity S-wave (km/s) = 3.64136 3.73803 3.69001
# Velocity P-wave (km/s) = 6.47442 6.60649 6.54079
#
# Compressibility (1/GPa) = 0.02316788
#
# Stress axis : x y z
#
# Youngs Moduli (GPa) = 69.99067 69.99067 87.62832
#
# Poissons Ratio (x) = 0.13637 0.28309
# Poissons Ratio (y) = 0.13637 0.28309
# Poissons Ratio (z) = 0.22611 0.22611
#
# Static dielectric constant tensor:
#      x y z
#    x 3.163030 0.000000 0.000000 
#    y 0.000000 3.163030 0.000000 
#    z 0.000000 0.000000 3.394620 
# 
# 
# High freq. dielectric constant tensor:
#      x y z
#    x 1.672960 0.000000 0.000000 
#    y 0.000000 1.672960 0.000000 
#    z 0.000000 0.000000 1.694730 
# 
# From -- ./inp_files/6415.got.cif
#   From: 2010.03.12/outbox.cif.g09.slc.cpg/sg136_4_cif.got.tgz:6415.got - 2010.04.06 18:39:43.
