data_PCOD8317479
_publ_section_title
;
Structure prediction by ZEFSAII (Michael W. Deem and Ramdas Pophale) SiO2 
 PCOD8317479
Probable space group: P 42/M B C
;
_chemical_formula_sum "Si O2"
_cell_formula_units_Z 112
_cell_length_a 16.905019
_cell_length_b 16.905019
_cell_length_c 20.695343
_cell_angle_alpha 90.000000
_cell_angle_beta 90.000000
_cell_angle_gamma 90.000000
_cell_volume 5914.308239
_symmetry_space_group_name_H-M "P 42/M B C"
_symmetry_group_IT_number 135
_symmetry_cell_setting 'tetragonal'
loop_
_space_group_symop_operation_xyz
x,y,z
-y,x,1/2+z
-x,-y,z
y,-x,1/2+z
1/2+x,1/2-y,-z
1/2-x,1/2+y,-z
1/2+y,1/2+x,1/2-z
1/2-y,1/2-x,1/2-z
-x,-y,-z
y,-x,1/2-z
x,y,-z
-y,x,1/2-z
1/2-x,1/2+y,z
1/2+x,1/2-y,z
1/2-y,1/2-x,1/2+z
1/2+y,1/2+x,1/2+z
loop_
_atom_site_type_symbol
_atom_site_label
_atom_site_fract_x
_atom_site_fract_y
_atom_site_fract_z
Si Si1 0.849791 0.696567 0.070932
Si Si2 0.434994 0.226846 0.161174
Si Si3 0.731757 0.701148 0.814345
Si Si4 0.907366 0.505397 0.424157
Si Si5 0.558767 0.569234 0.326982
Si Si6 0.665707 0.524731 0.429142
Si Si7 0.466070 0.699249 0.734015
O O1 0.782378 0.715474 0.121844
O O2 0.905008 0.772327 0.069129
O O3 0.904572 0.620856 0.089009
O O4 0.811370 0.683309 0.000000
O O5 0.344974 0.242704 0.181700
O O6 0.446981 0.143623 0.122816
O O7 0.453934 0.300756 0.114617
O O8 0.490158 0.229798 0.226350
O O9 0.777965 0.722036 0.750000
O O10 0.722483 0.606884 0.810787
O O11 0.892650 0.482942 0.500000
O O12 0.000000 0.500000 0.406272
O O13 0.500000 0.500000 0.304146
O O14 0.582249 0.556913 0.401698
O O15 0.638969 0.564916 0.287162
O O16 0.525318 0.656647 0.315824
O O17 0.649558 0.490279 0.500000
#
# Coordination Sequence:
#
# PCOD8317479 Si02
#       7
#    16  16  16  16  16  16  16
#     4   9  20  39  60  82 112 152 196 241 297 353
#     4  10  20  34  59  85 113 152 193 242 291 353
#     4  12  23  37  58  84 118 155 197 245 293 350
#     4   9  18  38  64  85 111 153 201 246 298 359
#     4  11  17  31  55  80 111 146 179 217 279 347
#     4   9  19  36  58  82 110 145 187 232 283 354
#     4  11  19  35  55  80 112 152 186 230 285 345
#
# _framework density 18.937125999999999
#
# number of rings (size 3 to 8) (size 9 to 14) (size 15 to 20)
#    0.000    1.857    2.857    4.714    0.000    1.429 
#    2.571    0.714    0.000    3.429    0.000    0.000 
#    0.000    0.000    0.000    0.000    0.000    0.000 
#
# Total GULP energy -1388048.787696 kJ/mol
# GULP energy per Si atom -12393.292747 kJ/mol
# Density = 1.889402 g / cm^3
# Si number density = 18.937126 Si / 1000 Ang^3
#
#
#
# Elastic Constant Matrix: (Units=GPa)
#
#
# Indices 1 2 3 4 5 6 
#
# 1 75.8569 19.9636 24.9366 0.0000 0.0000 0.0000
# 2 19.9636 75.8588 24.9375 0.0000 0.0000 0.0000
# 3 24.9366 24.9375 81.1742 0.0000 0.0000 0.0000
# 4 0.0000 0.0000 0.0000 26.1002 0.0000 0.0000
# 5 0.0000 0.0000 0.0000 0.0000 26.0985 0.0000
# 6 0.0000 0.0000 0.0000 0.0000 0.0000 11.0540
#
#
#
# Elastic Compliance Matrix: (Units=1/GPa)
#
#
# Indices 1 2 3 4 5 6 
#
# 1 0.015157 -0.002734 -0.003816 0.000000 0.000000 0.000000
# 2 -0.002734 0.015157 -0.003816 0.000000 0.000000 0.000000
# 3 -0.003816 -0.003816 0.014664 0.000000 0.000000 0.000000
# 4 0.000000 0.000000 0.000000 0.038314 0.000000 0.000000
# 5 0.000000 0.000000 0.000000 0.000000 0.038316 0.000000
# 6 0.000000 0.000000 0.000000 0.000000 0.000000 0.090465
#
#
# Mechanical properties :
#
#
# Convention : Reuss Voigt Hill
#
# Bulk Modulus (GPa) = 41.24763 41.39615 41.32189
# Shear Modulus (GPa) = 20.75662 23.52067 22.13865
#
# Velocity S-wave (km/s) = 3.31430 3.52808 3.42286
# Velocity P-wave (km/s) = 6.03944 6.20514 6.12285
#
# Compressibility (1/GPa) = 0.02424382
#
# Stress axis : x y z
#
# Youngs Moduli (GPa) = 65.97696 65.97824 68.19465
#
# Poissons Ratio (x) = 0.18040 0.26024
# Poissons Ratio (y) = 0.18040 0.26025
# Poissons Ratio (z) = 0.25178 0.25179
#
# Static dielectric constant tensor:
#      x y z
#    x 3.456990 0.000000 0.000000 
#    y 0.000000 3.456990 0.000000 
#    z 0.000000 0.000000 3.295590 
# 
# 
# High freq. dielectric constant tensor:
#      x y z
#    x 1.720330 0.000000 0.000000 
#    y 0.000000 1.720330 0.000000 
#    z 0.000000 0.000000 1.742310 
# 
# From -- ./inp_files/6106.got.cif
#   From: 2010.03.12/outbox.cif.g09.slc.cpg/sg135_4_cif.got.tgz:6106.got - 2010.04.06 18:31:24.
