data_PCOD8317320
_publ_section_title
;
Structure prediction by ZEFSAII (Michael W. Deem and Ramdas Pophale) SiO2 
 PCOD8317320
Probable space group: P 42/N N M
;
_chemical_formula_sum "Si O2"
_cell_formula_units_Z 42
_cell_length_a 10.905559
_cell_length_b 10.905559
_cell_length_c 17.024184
_cell_angle_alpha 90.000000
_cell_angle_beta 90.000000
_cell_angle_gamma 90.000000
_cell_volume 2024.706923
_symmetry_space_group_name_H-M "P 42/N N M"
_symmetry_group_IT_number 134
_space_group.IT_coordinate_system_code '2'
_symmetry_cell_setting 'tetragonal'
loop_
_space_group_symop_operation_xyz
x,y,z
1/2-y,x,1/2+z
1/2-x,1/2-y,z
y,1/2-x,1/2+z
x,1/2-y,1/2-z
1/2-x,y,1/2-z
y,x,-z
1/2-y,1/2-x,-z
-x,-y,-z
1/2+y,-x,1/2-z
1/2+x,1/2+y,-z
-y,1/2+x,1/2-z
-x,1/2+y,1/2+z
1/2+x,-y,1/2+z
-y,-x,z
1/2+y,1/2+x,z
loop_
_atom_site_type_symbol
_atom_site_label
_atom_site_fract_x
_atom_site_fract_y
_atom_site_fract_z
Si Si1 0.059116 0.940885 0.324208
Si Si2 0.887399 0.387399 0.275198
Si Si3 0.999882 0.000119 0.907318
Si Si4 0.250000 0.750000 0.250000
Si Si5 0.611164 0.753485 0.344480
O O1 0.159568 0.840433 0.297074
O O2 0.957109 0.869483 0.375469
O O3 0.985554 0.014446 0.256132
O O4 0.922603 0.250000 0.250000
O O5 0.902176 0.402176 0.369865
O O6 0.036312 0.134098 0.878360
O O7 0.000000 0.000000 0.000000
O O8 0.750000 0.750000 0.375506
O O9 0.604568 0.750000 0.250000
#
# Coordination Sequence:
#
# PCOD8317320 Si02
#       5
#     8   8   8   2  16
#     4  12  19  34  61  93 123 161 231 269 303 388
#     4  11  22  40  67  93 123 177 231 262 315 408
#     4  12  25  42  64 101 139 169 212 290 345 374
#     4  12  20  24  48  88 128 144 200 280 334 336
#     4  11  21  38  66  95 127 178 227 264 322 403
#
# _framework density 20.743742000000001
#
# number of rings (size 3 to 8) (size 9 to 14) (size 15 to 20)
#    0.000    0.571    5.714    3.429    0.000    0.762 
#    0.000    3.810    0.000    4.571    0.000    0.000 
#    0.000    0.000    0.000    0.000    0.000    0.000 
#
# Total GULP energy -520311.224970 kJ/mol
# GULP energy per Si atom -12388.362499 kJ/mol
# Density = 2.069653 g / cm^3
# Si number density = 20.743742 Si / 1000 Ang^3
#
#
#
# Elastic Constant Matrix: (Units=GPa)
#
#
# Indices 1 2 3 4 5 6 
#
# 1 184.2569 97.8182 48.0057 0.0000 0.0000 0.0000
# 2 97.8182 184.2569 48.0057 0.0000 0.0000 0.0000
# 3 48.0057 48.0057 101.9190 0.0000 0.0000 0.0000
# 4 0.0000 0.0000 0.0000 14.3949 0.0000 0.0000
# 5 0.0000 0.0000 0.0000 0.0000 14.3949 0.0000
# 6 0.0000 0.0000 0.0000 0.0000 0.0000 46.2268
#
#
#
# Elastic Compliance Matrix: (Units=1/GPa)
#
#
# Indices 1 2 3 4 5 6 
#
# 1 0.007895 -0.003673 -0.001989 0.000000 0.000000 0.000000
# 2 -0.003673 0.007895 -0.001989 0.000000 0.000000 0.000000
# 3 -0.001989 -0.001989 0.011685 0.000000 0.000000 0.000000
# 4 0.000000 0.000000 0.000000 0.069469 0.000000 0.000000
# 5 0.000000 0.000000 0.000000 0.000000 0.069469 0.000000
# 6 0.000000 0.000000 0.000000 0.000000 0.000000 0.021632
#
#
# Mechanical properties :
#
#
# Convention : Reuss Voigt Hill
#
# Bulk Modulus (GPa) = 82.13853 95.34356 88.74104
# Shear Modulus (GPa) = 24.10727 33.44355 28.77541
#
# Velocity S-wave (km/s) = 3.41273 4.01961 3.72853
# Velocity P-wave (km/s) = 7.43046 8.22225 7.83636
#
# Compressibility (1/GPa) = 0.01217455
#
# Stress axis : x y z
#
# Youngs Moduli (GPa) = 126.65496 126.65496 85.57909
#
# Poissons Ratio (x) = 0.46526 0.17019
# Poissons Ratio (y) = 0.46526 0.17019
# Poissons Ratio (z) = 0.25187 0.25187
#
# Static dielectric constant tensor:
#      x y z
#    x 4.392670 0.000000 0.000000 
#    y 0.000000 4.392670 0.000000 
#    z 0.000000 0.000000 3.453770 
# 
# 
# High freq. dielectric constant tensor:
#      x y z
#    x 1.841280 0.000000 0.000000 
#    y 0.000000 1.841280 0.000000 
#    z 0.000000 0.000000 1.738090 
# 
# From -- ./inp_files/7153.got.cif
#   From: 2010.03.12/outbox.cif.g09.slc.cpg/sg134_4_cif.got.tgz:7153.got - 2010.04.06 18:17:22.
