data_PCOD8317874
_publ_section_title
;
Structure prediction by ZEFSAII (Michael W. Deem and Ramdas Pophale) SiO2 
 PCOD8317874
Probable space group: P 42/M N M
;
_chemical_formula_sum "Si O2"
_cell_formula_units_Z 96
_cell_length_a 15.366442
_cell_length_b 15.366442
_cell_length_c 24.464326
_cell_angle_alpha 90.000000
_cell_angle_beta 90.000000
_cell_angle_gamma 90.000000
_cell_volume 5776.701110
_symmetry_space_group_name_H-M "P 42/M N M"
_symmetry_group_IT_number 136
_symmetry_cell_setting 'tetragonal'
loop_
_space_group_symop_operation_xyz
x,y,z
1/2-y,1/2+x,1/2+z
-x,-y,z
1/2+y,1/2-x,1/2+z
1/2+x,1/2-y,1/2-z
1/2-x,1/2+y,1/2-z
y,x,-z
-y,-x,-z
-x,-y,-z
1/2+y,1/2-x,1/2-z
x,y,-z
1/2-y,1/2+x,1/2-z
1/2-x,1/2+y,1/2+z
1/2+x,1/2-y,1/2+z
-y,-x,z
y,x,z
loop_
_atom_site_type_symbol
_atom_site_label
_atom_site_fract_x
_atom_site_fract_y
_atom_site_fract_z
Si Si1 0.519738 0.757699 0.909546
Si Si2 0.366598 0.939405 0.000000
Si Si3 0.881486 0.564359 0.000000
Si Si4 0.239855 0.474597 0.217393
Si Si5 0.684862 0.826189 0.591834
Si Si6 0.567834 0.567834 0.218188
Si Si7 0.067968 0.932033 0.411512
Si Si8 0.816333 0.328902 0.781793
O O1 0.545280 0.770834 0.846645
O O2 0.416995 0.766948 0.918860
O O3 0.544001 0.663305 0.932143
O O4 0.575913 0.825578 0.944857
O O5 0.320339 0.901129 0.945764
O O6 0.467955 0.919111 0.000000
O O7 0.360818 0.044367 0.000000
O O8 0.336975 0.457756 0.238921
O O9 0.179295 0.405414 0.248139
O O10 0.217655 0.574272 0.230973
O O11 0.750005 0.750005 0.574075
O O12 0.658279 0.817671 0.654917
O O13 0.500000 0.500000 0.244323
O O14 0.563259 0.563259 0.153431
O O15 0.000000 0.000000 0.437288
O O16 0.741904 0.258097 0.765253
#
# Coordination Sequence:
#
# PCOD8317874 Si02
#       8
#    16   8   8  16  16   8   8  16
#     4   9  18  30  46  67  94 130 160 196 237 289
#     4   9  17  30  48  64  87 124 162 193 239 291
#     4   9  18  31  43  62  92 126 163 196 225 287
#     4  10  19  32  50  71 101 133 167 205 257 302
#     4   9  17  30  49  71  95 119 154 205 253 288
#     4   9  16  30  51  70  91 132 177 205 239 299
#     4   9  16  27  46  69  94 124 162 197 233 282
#     4  10  20  33  49  74 103 131 165 210 253 305
#
# _framework density 16.618480000000002
#
# number of rings (size 3 to 8) (size 9 to 14) (size 15 to 20)
#    0.000    2.667    0.833    1.250    0.000    6.000 
#    0.000    5.000    0.000    0.000    0.000    0.000 
#    0.000    0.000    0.000    4.083    0.000    0.083 
#
# Total GULP energy -1190149.282317 kJ/mol
# GULP energy per Si atom -12397.388357 kJ/mol
# Density = 1.658066 g / cm^3
# Si number density = 16.618480 Si / 1000 Ang^3
#
#
#
# Elastic Constant Matrix: (Units=GPa)
#
#
# Indices 1 2 3 4 5 6 
#
# 1 111.7464 52.4205 47.0538 0.0000 0.0000 0.0000
# 2 52.4205 111.7464 47.0538 0.0000 0.0000 0.0000
# 3 47.0538 47.0538 68.1140 0.0000 0.0000 0.0000
# 4 0.0000 0.0000 0.0000 19.0583 0.0000 0.0000
# 5 0.0000 0.0000 0.0000 0.0000 19.0583 0.0000
# 6 0.0000 0.0000 0.0000 0.0000 0.0000 29.9071
#
#
#
# Elastic Compliance Matrix: (Units=1/GPa)
#
#
# Indices 1 2 3 4 5 6 
#
# 1 0.013471 -0.003385 -0.006967 0.000000 0.000000 0.000000
# 2 -0.003385 0.013471 -0.006967 0.000000 0.000000 0.000000
# 3 -0.006967 -0.006967 0.024307 0.000000 0.000000 0.000000
# 4 0.000000 0.000000 0.000000 0.052471 0.000000 0.000000
# 5 0.000000 0.000000 0.000000 0.000000 0.052471 0.000000
# 6 0.000000 0.000000 0.000000 0.000000 0.000000 0.033437
#
#
# Mechanical properties :
#
#
# Convention : Reuss Voigt Hill
#
# Bulk Modulus (GPa) = 60.20648 64.96256 62.58452
# Shear Modulus (GPa) = 21.75798 23.27666 22.51732
#
# Velocity S-wave (km/s) = 3.62230 3.74659 3.68497
# Velocity P-wave (km/s) = 7.33499 7.60863 7.47306
#
# Compressibility (1/GPa) = 0.01660951
#
# Stress axis : x y z
#
# Youngs Moduli (GPa) = 74.23603 74.23603 41.14077
#
# Poissons Ratio (x) = 0.25133 0.28662
# Poissons Ratio (y) = 0.25133 0.28662
# Poissons Ratio (z) = 0.51719 0.51719
#
# Static dielectric constant tensor:
#      x y z
#    x 3.165720 0.000000 0.000000 
#    y 0.000000 3.165720 0.000000 
#    z 0.000000 0.000000 3.057140 
# 
# 
# High freq. dielectric constant tensor:
#      x y z
#    x 1.631140 0.000000 0.000000 
#    y 0.000000 1.631140 0.000000 
#    z 0.000000 0.000000 1.630300 
# 
# From -- ./inp_files/8464.got.cif
#   From: 2010.03.12/outbox.cif.g09.slc.cpg/sg136_5_cif.got.tgz:8464.got - 2010.04.06 18:39:43.
