data_PCOD8317548
_publ_section_title
;
Structure prediction by ZEFSAII (Michael W. Deem and Ramdas Pophale) SiO2 
 PCOD8317548
Probable space group: P 42/M B C
;
_chemical_formula_sum "Si O2"
_cell_formula_units_Z 72
_cell_length_a 13.049703
_cell_length_b 13.049703
_cell_length_c 22.377803
_cell_angle_alpha 90.000000
_cell_angle_beta 90.000000
_cell_angle_gamma 90.000000
_cell_volume 3810.822331
_symmetry_space_group_name_H-M "P 42/M B C"
_symmetry_group_IT_number 135
_symmetry_cell_setting 'tetragonal'
loop_
_space_group_symop_operation_xyz
x,y,z
-y,x,1/2+z
-x,-y,z
y,-x,1/2+z
1/2+x,1/2-y,-z
1/2-x,1/2+y,-z
1/2+y,1/2+x,1/2-z
1/2-y,1/2-x,1/2-z
-x,-y,-z
y,-x,1/2-z
x,y,-z
-y,x,1/2-z
1/2-x,1/2+y,z
1/2+x,1/2-y,z
1/2-y,1/2-x,1/2+z
1/2+y,1/2+x,1/2+z
loop_
_atom_site_type_symbol
_atom_site_label
_atom_site_fract_x
_atom_site_fract_y
_atom_site_fract_z
Si Si1 0.630710 0.774998 0.433209
Si Si2 0.819712 0.766078 0.353660
Si Si3 0.540113 0.393301 0.566393
Si Si4 0.177081 0.677081 0.250000
Si Si5 0.620031 0.992343 0.162258
O O1 0.660780 0.812476 0.500000
O O2 0.728872 0.731657 0.397811
O O3 0.554994 0.681191 0.436762
O O4 0.572378 0.867889 0.399131
O O5 0.775297 0.815055 0.293122
O O6 0.876654 0.858012 0.386399
O O7 0.894278 0.669342 0.341443
O O8 0.500000 0.500000 0.591172
O O9 0.589135 0.404335 0.500000
O O10 0.069989 0.680661 0.286168
O O11 0.500000 0.000000 0.177447
#
# Coordination Sequence:
#
# PCOD8317548 Si02
#       5
#    16  16  16   8  16
#     4   9  19  36  58  87 117 147 187 231 287 346
#     4  10  21  38  56  82 115 149 192 233 288 335
#     4   9  18  35  58  84 115 148 185 233 288 342
#     4  10  23  38  55  82 108 152 196 238 281 342
#     4  10  22  39  59  84 113 151 193 241 285 336
#
# _framework density 18.893560000000001
#
# number of rings (size 3 to 8) (size 9 to 14) (size 15 to 20)
#    0.000    2.444    0.000    1.000    3.111    4.889 
#    8.000    2.222    0.000    0.000    0.000    0.000 
#    0.000    0.000    0.000    0.000    0.000    0.000 
#
# Total GULP energy -892579.516706 kJ/mol
# GULP energy per Si atom -12396.937732 kJ/mol
# Density = 1.885056 g / cm^3
# Si number density = 18.893560 Si / 1000 Ang^3
#
#
#
# Elastic Constant Matrix: (Units=GPa)
#
#
# Indices 1 2 3 4 5 6 
#
# 1 96.1350 35.1628 51.2593 0.0000 0.0000 0.0000
# 2 35.1628 96.1350 51.2593 0.0000 0.0000 0.0000
# 3 51.2593 51.2593 136.9539 0.0000 0.0000 0.0000
# 4 0.0000 0.0000 0.0000 0.3165 0.0000 0.0000
# 5 0.0000 0.0000 0.0000 0.0000 0.3165 0.0000
# 6 0.0000 0.0000 0.0000 0.0000 0.0000 16.4996
#
#
#
# Elastic Compliance Matrix: (Units=1/GPa)
#
#
# Indices 1 2 3 4 5 6 
#
# 1 0.013581 -0.002820 -0.004028 0.000000 0.000000 0.000000
# 2 -0.002820 0.013581 -0.004028 0.000000 0.000000 0.000000
# 3 -0.004028 -0.004028 0.010317 0.000000 0.000000 0.000000
# 4 0.000000 0.000000 0.000000 3.159742 0.000000 0.000000
# 5 0.000000 0.000000 0.000000 0.000000 3.159742 0.000000
# 6 0.000000 0.000000 0.000000 0.000000 0.000000 0.060607
#
#
# Mechanical properties :
#
#
# Convention : Reuss Voigt Hill
#
# Bulk Modulus (GPa) = 63.58003 67.17628 65.37816
# Shear Modulus (GPa) = 0.77585 16.19602 8.48594
#
# Velocity S-wave (km/s) = 0.64151 2.93102 2.12160
# Velocity P-wave (km/s) = 5.85435 6.86198 6.37810
#
# Compressibility (1/GPa) = 0.01572821
#
# Stress axis : x y z
#
# Youngs Moduli (GPa) = 73.63219 73.63219 96.93018
#
# Poissons Ratio (x) = 0.20763 0.39040
# Poissons Ratio (y) = 0.20763 0.39040
# Poissons Ratio (z) = 0.29657 0.29657
#
# Static dielectric constant tensor:
#      x y z
#    x 2.945090 0.000000 0.000000 
#    y 0.000000 2.945090 0.000000 
#    z 0.000000 0.000000 3.991700 
# 
# 
# High freq. dielectric constant tensor:
#      x y z
#    x 1.727500 0.000000 0.000000 
#    y 0.000000 1.727500 0.000000 
#    z 0.000000 0.000000 1.749840 
# 
# From -- ./inp_files/6408.got.cif
#   From: 2010.03.12/outbox.cif.g09.slc.cpg/sg135_4_cif.got.tgz:6408.got - 2010.04.06 18:31:24.
