data_PCOD8317477
_publ_section_title
;
Structure prediction by ZEFSAII (Michael W. Deem and Ramdas Pophale) SiO2 
 PCOD8317477
Probable space group: P 42/M B C
;
_chemical_formula_sum "Si O2"
_cell_formula_units_Z 96
_cell_length_a 23.934745
_cell_length_b 23.934745
_cell_length_c 8.782867
_cell_angle_alpha 90.000000
_cell_angle_beta 90.000000
_cell_angle_gamma 90.000000
_cell_volume 5031.458744
_symmetry_space_group_name_H-M "P 42/M B C"
_symmetry_group_IT_number 135
_symmetry_cell_setting 'tetragonal'
loop_
_space_group_symop_operation_xyz
x,y,z
-y,x,1/2+z
-x,-y,z
y,-x,1/2+z
1/2+x,1/2-y,-z
1/2-x,1/2+y,-z
1/2+y,1/2+x,1/2-z
1/2-y,1/2-x,1/2-z
-x,-y,-z
y,-x,1/2-z
x,y,-z
-y,x,1/2-z
1/2-x,1/2+y,z
1/2+x,1/2-y,z
1/2-y,1/2-x,1/2+z
1/2+y,1/2+x,1/2+z
loop_
_atom_site_type_symbol
_atom_site_label
_atom_site_fract_x
_atom_site_fract_y
_atom_site_fract_z
Si Si1 0.365602 0.215104 0.178703
Si Si2 0.194376 0.224645 0.320279
Si Si3 0.916873 0.500173 0.179756
Si Si4 0.789697 0.483132 0.179096
Si Si5 0.079079 0.971471 0.181902
Si Si6 0.800730 0.071582 0.819414
O O1 0.342312 0.157689 0.250000
O O2 0.326884 0.266646 0.229542
O O3 0.426739 0.228225 0.238713
O O4 0.366975 0.207058 0.000000
O O5 0.217935 0.282066 0.250000
O O6 0.192903 0.231914 0.500000
O O7 0.132981 0.212371 0.253234
O O8 0.944456 0.555544 0.250000
O O9 0.852063 0.501183 0.224420
O O10 0.944887 0.444887 0.250000
O O11 0.926486 0.499750 0.000000
O O12 0.747569 0.530383 0.239451
O O13 0.784051 0.473704 0.000000
O O14 0.139086 0.949437 0.237867
O O15 0.032929 0.929314 0.248341
O O16 0.073864 0.974161 0.000000
O O17 0.800901 0.074097 0.000000
#
# Coordination Sequence:
#
# PCOD8317477 Si02
#       6
#    16  16  16  16  16  16
#     4  10  20  34  56  82 108 140 179 226 271 317
#     4   9  19  37  57  78 106 142 181 220 268 320
#     4  10  20  34  54  77 104 138 176 217 262 316
#     4  10  21  36  54  79 109 142 179 219 268 322
#     4  10  20  36  58  81 109 144 182 227 276 327
#     4   9  20  37  56  79 111 149 180 219 276 327
#
# _framework density 19.079951999999999
#
# number of rings (size 3 to 8) (size 9 to 14) (size 15 to 20)
#    0.000    2.333    0.000    3.000    2.333    4.000 
#    0.000    3.333    0.000    0.000    0.000    0.000 
#    0.000    0.000    0.000    0.000    0.000    0.000 
#
# Total GULP energy -1190636.783921 kJ/mol
# GULP energy per Si atom -12402.466499 kJ/mol
# Density = 1.903653 g / cm^3
# Si number density = 19.079952 Si / 1000 Ang^3
#
#
#
# Elastic Constant Matrix: (Units=GPa)
#
#
# Indices 1 2 3 4 5 6 
#
# 1 164.2695 101.0614 40.2714 0.0000 0.0000 0.0000
# 2 101.0614 164.2722 40.2648 0.0000 0.0000 0.0000
# 3 40.2714 40.2648 52.2236 0.0000 0.0000 0.0000
# 4 0.0000 0.0000 0.0000 24.2158 0.0000 0.0000
# 5 0.0000 0.0000 0.0000 0.0000 24.2159 0.0000
# 6 0.0000 0.0000 0.0000 0.0000 0.0000 26.4999
#
#
#
# Elastic Compliance Matrix: (Units=1/GPa)
#
#
# Indices 1 2 3 4 5 6 
#
# 1 0.010371 -0.005450 -0.003795 0.000000 0.000000 0.000000
# 2 -0.005450 0.010370 -0.003793 0.000000 0.000000 0.000000
# 3 -0.003795 -0.003793 0.024999 0.000000 0.000000 0.000000
# 4 0.000000 0.000000 0.000000 0.041295 0.000000 0.000000
# 5 0.000000 0.000000 0.000000 0.000000 0.041295 0.000000
# 6 0.000000 0.000000 0.000000 0.000000 0.000000 0.037736
#
#
# Mechanical properties :
#
#
# Convention : Reuss Voigt Hill
#
# Bulk Modulus (GPa) = 50.85390 82.66226 66.75808
# Shear Modulus (GPa) = 25.16388 28.26417 26.71403
#
# Velocity S-wave (km/s) = 3.63556 3.85301 3.74586
# Velocity P-wave (km/s) = 6.65838 7.95063 7.33302
#
# Compressibility (1/GPa) = 0.01966417
#
# Stress axis : x y z
#
# Youngs Moduli (GPa) = 96.42333 96.43260 40.00108
#
# Poissons Ratio (x) = 0.52556 0.15182
# Poissons Ratio (y) = 0.52551 0.15171
# Poissons Ratio (z) = 0.36596 0.36573
#
# Static dielectric constant tensor:
#      x y z
#    x 3.655910 0.000000 0.000000 
#    y 0.000000 3.655900 0.000000 
#    z 0.000000 0.000000 3.326750 
# 
# 
# High freq. dielectric constant tensor:
#      x y z
#    x 1.748230 0.000000 0.000000 
#    y 0.000000 1.748230 0.000000 
#    z 0.000000 0.000000 1.729100 
# 
# From -- ./inp_files/1247.got.cif
#   From: 2010.03.12/outbox.cif.g09.slc.cpg/sg135_1_cif.got.tgz:1247.got - 2010.04.06 18:31:24.
