data_PCOD8317871
_publ_section_title
;
Structure prediction by ZEFSAII (Michael W. Deem and Ramdas Pophale) SiO2 
 PCOD8317871
Probable space group: P 42/M N M
;
_chemical_formula_sum "Si O2"
_cell_formula_units_Z 80
_cell_length_a 13.761131
_cell_length_b 13.761131
_cell_length_c 25.001393
_cell_angle_alpha 90.000000
_cell_angle_beta 90.000000
_cell_angle_gamma 90.000000
_cell_volume 4734.481951
_symmetry_space_group_name_H-M "P 42/M N M"
_symmetry_group_IT_number 136
_symmetry_cell_setting 'tetragonal'
loop_
_space_group_symop_operation_xyz
x,y,z
1/2-y,1/2+x,1/2+z
-x,-y,z
1/2+y,1/2-x,1/2+z
1/2+x,1/2-y,1/2-z
1/2-x,1/2+y,1/2-z
y,x,-z
-y,-x,-z
-x,-y,-z
1/2+y,1/2-x,1/2-z
x,y,-z
1/2-y,1/2+x,1/2-z
1/2-x,1/2+y,1/2+z
1/2+x,1/2-y,1/2+z
-y,-x,z
y,x,z
loop_
_atom_site_type_symbol
_atom_site_label
_atom_site_fract_x
_atom_site_fract_y
_atom_site_fract_z
Si Si1 0.345582 0.193794 0.439000
Si Si2 0.876269 0.401469 0.749664
Si Si3 0.630612 0.788266 0.855632
Si Si4 0.542495 0.104314 0.561748
Si Si5 0.740599 0.413708 0.152573
O O1 0.327359 0.160731 0.500000
O O2 0.303308 0.303308 0.429169
O O3 0.460747 0.187263 0.426911
O O4 0.287274 0.117431 0.403406
O O5 0.871010 0.514807 0.734657
O O6 0.838856 0.342543 0.698557
O O7 0.809155 0.375404 0.799792
O O8 0.710606 0.710606 0.871532
O O9 0.529501 0.731563 0.847048
O O10 0.626737 0.863833 0.903757
O O11 0.574176 0.103263 0.500000
O O12 0.500000 0.000000 0.579268
O O13 0.634152 0.365849 0.159521
#
# Coordination Sequence:
#
# PCOD8317871 Si02
#       5
#    16  16  16  16  16
#     4   9  17  30  52  79 100 124 165 214 257 299
#     4   9  18  31  52  76  98 128 169 219 259 297
#     4  11  22  33  49  75 106 136 171 211 252 305
#     4  10  19  33  54  76 101 133 170 214 258 302
#     4  10  19  32  49  70 102 138 171 207 254 305
#
# _framework density 16.897307999999999
#
# number of rings (size 3 to 8) (size 9 to 14) (size 15 to 20)
#    0.000    2.200    2.000    1.800    2.800    0.800 
#    0.000    0.000    0.000    0.600    0.000    7.000 
#    0.000    0.000    0.000    0.000    0.000    0.000 
#
# Total GULP energy -991935.813605 kJ/mol
# GULP energy per Si atom -12399.197670 kJ/mol
# Density = 1.685885 g / cm^3
# Si number density = 16.897308 Si / 1000 Ang^3
#
#
#
# Elastic Constant Matrix: (Units=GPa)
#
#
# Indices 1 2 3 4 5 6 
#
# 1 98.1835 68.3719 53.0005 0.0000 0.0000 0.0000
# 2 68.3719 98.1835 53.0005 0.0000 0.0000 0.0000
# 3 53.0005 53.0005 89.1257 0.0000 0.0000 0.0000
# 4 0.0000 0.0000 0.0000 19.2107 0.0000 0.0000
# 5 0.0000 0.0000 0.0000 0.0000 19.2107 0.0000
# 6 0.0000 0.0000 0.0000 0.0000 0.0000 32.6501
#
#
#
# Elastic Compliance Matrix: (Units=1/GPa)
#
#
# Indices 1 2 3 4 5 6 
#
# 1 0.021602 -0.011942 -0.005745 0.000000 0.000000 0.000000
# 2 -0.011942 0.021602 -0.005745 0.000000 0.000000 0.000000
# 3 -0.005745 -0.005745 0.018052 0.000000 0.000000 0.000000
# 4 0.000000 0.000000 0.000000 0.052054 0.000000 0.000000
# 5 0.000000 0.000000 0.000000 0.000000 0.052054 0.000000
# 6 0.000000 0.000000 0.000000 0.000000 0.000000 0.030628
#
#
# Mechanical properties :
#
#
# Convention : Reuss Voigt Hill
#
# Bulk Modulus (GPa) = 69.47235 70.47095 69.97165
# Shear Modulus (GPa) = 20.18954 21.62228 20.90591
#
# Velocity S-wave (km/s) = 3.46039 3.58107 3.52125
# Velocity P-wave (km/s) = 7.56105 7.67429 7.61788
#
# Compressibility (1/GPa) = 0.01439422
#
# Stress axis : x y z
#
# Youngs Moduli (GPa) = 46.29203 46.29203 55.39453
#
# Poissons Ratio (x) = 0.55282 0.31822
# Poissons Ratio (y) = 0.55282 0.31822
# Poissons Ratio (z) = 0.26593 0.26593
#
# Static dielectric constant tensor:
#      x y z
#    x 3.140630 0.000000 0.000000 
#    y 0.000000 3.140630 0.000000 
#    z 0.000000 0.000000 3.271490 
# 
# 
# High freq. dielectric constant tensor:
#      x y z
#    x 1.636330 0.000000 0.000000 
#    y 0.000000 1.636330 0.000000 
#    z 0.000000 0.000000 1.666850 
# 
# From -- ./inp_files/7269.got.cif
#   From: 2010.03.12/outbox.cif.g09.slc.cpg/sg136_4_cif.got.tgz:7269.got - 2010.04.06 18:39:43.
