data_PCOD8317602
_publ_section_title
;
Structure prediction by ZEFSAII (Michael W. Deem and Ramdas Pophale) SiO2 
 PCOD8317602
Probable space group: P 42/M B C
;
_chemical_formula_sum "Si O2"
_cell_formula_units_Z 60
_cell_length_a 13.571847
_cell_length_b 13.571847
_cell_length_c 13.916207
_cell_angle_alpha 90.000000
_cell_angle_beta 90.000000
_cell_angle_gamma 90.000000
_cell_volume 2563.296180
_symmetry_space_group_name_H-M "P 42/M B C"
_symmetry_group_IT_number 135
_symmetry_cell_setting 'tetragonal'
loop_
_space_group_symop_operation_xyz
x,y,z
-y,x,1/2+z
-x,-y,z
y,-x,1/2+z
1/2+x,1/2-y,-z
1/2-x,1/2+y,-z
1/2+y,1/2+x,1/2-z
1/2-y,1/2-x,1/2-z
-x,-y,-z
y,-x,1/2-z
x,y,-z
-y,x,1/2-z
1/2-x,1/2+y,z
1/2+x,1/2-y,z
1/2-y,1/2-x,1/2+z
1/2+y,1/2+x,1/2+z
loop_
_atom_site_type_symbol
_atom_site_label
_atom_site_fract_x
_atom_site_fract_y
_atom_site_fract_z
Si Si1 0.727599 0.198554 0.500000
Si Si2 0.056363 0.888637 0.500000
Si Si3 0.856345 0.026775 0.206933
Si Si4 0.000000 0.500000 0.250000
Si Si5 0.807787 0.929310 0.500000
Si Si6 0.194360 0.455619 0.653902
O O1 0.845939 0.179893 0.500000
O O2 0.688603 0.310586 0.500000
O O3 0.684919 0.146530 0.404471
O O4 0.991828 0.858390 0.592935
O O5 0.912755 0.992842 0.500000
O O6 0.749607 0.061693 0.244155
O O7 0.930837 0.114459 0.231745
O O8 0.089926 0.500893 0.322875
O O9 0.750263 0.961469 0.405958
#
# Coordination Sequence:
#
# PCOD8317602 Si02
#       6
#     8   8  16   4   8  16
#     4  10  22  47  72 105 143 186 248 301 360 430
#     4  10  22  43  67 120 140 186 245 290 375 438
#     4  11  22  41  72 106 147 177 227 313 369 428
#     4  12  28  46  64 104 144 206 252 266 356 448
#     4  10  22  47  77 103 141 191 244 300 363 433
#     4  10  25  46  69 105 144 187 246 297 346 443
#
# _framework density 23.407361999999999
#
# number of rings (size 3 to 8) (size 9 to 14) (size 15 to 20)
#    0.000    1.867    5.333    0.000    3.733    8.533 
#    0.000    2.667    5.867    0.000    0.000    0.000 
#    0.000    0.000    0.000    0.000    0.000    0.000 
#
# Total GULP energy -743781.635498 kJ/mol
# GULP energy per Si atom -12396.360592 kJ/mol
# Density = 2.335409 g / cm^3
# Si number density = 23.407362 Si / 1000 Ang^3
#
#
#
# Elastic Constant Matrix: (Units=GPa)
#
#
# Indices 1 2 3 4 5 6 
#
# 1 140.7835 33.5992 70.5367 0.0000 0.0000 0.0000
# 2 33.5992 140.7835 70.5367 0.0000 0.0000 0.0000
# 3 70.5367 70.5367 201.1117 0.0000 0.0000 0.0000
# 4 0.0000 0.0000 0.0000 24.1153 0.0000 0.0000
# 5 0.0000 0.0000 0.0000 0.0000 24.1153 0.0000
# 6 0.0000 0.0000 0.0000 0.0000 0.0000 14.9499
#
#
#
# Elastic Compliance Matrix: (Units=1/GPa)
#
#
# Indices 1 2 3 4 5 6 
#
# 1 0.008668 -0.000662 -0.002808 0.000000 0.000000 0.000000
# 2 -0.000662 0.008668 -0.002808 0.000000 0.000000 0.000000
# 3 -0.002808 -0.002808 0.006942 0.000000 0.000000 0.000000
# 4 0.000000 0.000000 0.000000 0.041467 0.000000 0.000000
# 5 0.000000 0.000000 0.000000 0.000000 0.041467 0.000000
# 6 0.000000 0.000000 0.000000 0.000000 0.000000 0.066890
#
#
# Mechanical properties :
#
#
# Convention : Reuss Voigt Hill
#
# Bulk Modulus (GPa) = 85.30741 92.44712 88.87727
# Shear Modulus (GPa) = 26.23760 33.16985 29.70372
#
# Velocity S-wave (km/s) = 3.35164 3.76848 3.56615
# Velocity P-wave (km/s) = 7.17647 7.64957 7.41679
#
# Compressibility (1/GPa) = 0.01172231
#
# Stress axis : x y z
#
# Youngs Moduli (GPa) = 115.36750 115.36750 144.04839
#
# Poissons Ratio (x) = 0.07635 0.40449
# Poissons Ratio (y) = 0.07635 0.40449
# Poissons Ratio (z) = 0.32396 0.32396
#
# Static dielectric constant tensor:
#      x y z
#    x 4.147010 0.000000 0.000000 
#    y 0.000000 4.147010 0.000000 
#    z 0.000000 0.000000 4.561290 
# 
# 
# High freq. dielectric constant tensor:
#      x y z
#    x 1.922500 0.000000 0.000000 
#    y 0.000000 1.922500 0.000000 
#    z 0.000000 0.000000 1.951240 
# 
# From -- ./inp_files/3239.got.cif
#   From: 2010.03.12/outbox.cif.g09.slc.cpg/sg135_2_cif.got.tgz:3239.got - 2010.04.06 18:31:24.
