data_PCOD8317280
_publ_section_title
;
Structure prediction by ZEFSAII (Michael W. Deem and Ramdas Pophale) SiO2 
 PCOD8317280
Probable space group: P 42/N N M
;
_chemical_formula_sum "Si O2"
_cell_formula_units_Z 96
_cell_length_a 23.002987
_cell_length_b 23.002987
_cell_length_c 9.126712
_cell_angle_alpha 90.000000
_cell_angle_beta 90.000000
_cell_angle_gamma 90.000000
_cell_volume 4829.284758
_symmetry_space_group_name_H-M "P 42/N N M"
_symmetry_group_IT_number 134
_space_group.IT_coordinate_system_code '2'
_symmetry_cell_setting 'tetragonal'
loop_
_space_group_symop_operation_xyz
x,y,z
1/2-y,x,1/2+z
1/2-x,1/2-y,z
y,1/2-x,1/2+z
x,1/2-y,1/2-z
1/2-x,y,1/2-z
y,x,-z
1/2-y,1/2-x,-z
-x,-y,-z
1/2+y,-x,1/2-z
1/2+x,1/2+y,-z
-y,1/2+x,1/2-z
-x,1/2+y,1/2+z
1/2+x,-y,1/2+z
-y,-x,z
1/2+y,1/2+x,z
loop_
_atom_site_type_symbol
_atom_site_label
_atom_site_fract_x
_atom_site_fract_y
_atom_site_fract_z
Si Si1 0.503826 0.823935 0.031228
Si Si2 0.690836 0.502922 0.003782
Si Si3 0.313062 0.907618 0.256042
Si Si4 0.600806 0.497569 0.249675
Si Si5 0.372797 0.420006 0.212010
Si Si6 0.191130 0.190854 0.173355
O O1 0.517042 0.759053 0.967934
O O2 0.440314 0.825600 0.104192
O O3 0.552381 0.840632 0.149064
O O4 0.503727 0.874223 0.911752
O O5 0.684563 0.451975 0.888367
O O6 0.657206 0.558448 0.938109
O O7 0.656922 0.483880 0.149559
O O8 0.250000 0.877716 0.250000
O O9 0.358908 0.858908 0.287767
O O10 0.554070 0.445931 0.236658
O O11 0.568063 0.557998 0.210183
O O12 0.362183 0.351226 0.213087
O O13 0.172308 0.250000 0.250000
O O14 0.250000 0.167100 0.250000
O O15 0.200229 0.200229 0.000000
#
# Coordination Sequence:
#
# PCOD8317280 Si02
#       6
#    16  16  16  16  16  16
#     4  10  22  40  61  81 111 154 199 240 285 349
#     4  10  21  40  61  81 110 154 199 240 284 348
#     4   9  18  34  57  83 111 145 184 232 290 348
#     4  12  25  38  58  90 122 153 192 244 305 363
#     4  11  24  39  58  83 114 153 196 242 294 356
#     4  11  23  39  59  85 117 154 201 255 308 357
#
# _framework density 19.878720999999999
#
# number of rings (size 3 to 8) (size 9 to 14) (size 15 to 20)
#    0.000    1.500    0.000    7.000    0.000   10.833 
#    0.000    0.000    0.000    0.000    0.000    0.000 
#    0.000   12.000    0.000    0.000    0.000    0.000 
#
# Total GULP energy -1190409.555782 kJ/mol
# GULP energy per Si atom -12400.099539 kJ/mol
# Density = 1.983348 g / cm^3
# Si number density = 19.878721 Si / 1000 Ang^3
#
#
#
# Elastic Constant Matrix: (Units=GPa)
#
#
# Indices 1 2 3 4 5 6 
#
# 1 92.0778 49.1320 15.8759 0.0000 0.0000 0.0000
# 2 49.1320 92.0778 15.8759 0.0000 0.0000 0.0000
# 3 15.8759 15.8759 80.9879 0.0000 0.0000 0.0000
# 4 0.0000 0.0000 0.0000 21.6479 0.0000 0.0000
# 5 0.0000 0.0000 0.0000 0.0000 21.6479 0.0000
# 6 0.0000 0.0000 0.0000 0.0000 0.0000 34.5817
#
#
#
# Elastic Compliance Matrix: (Units=1/GPa)
#
#
# Indices 1 2 3 4 5 6 
#
# 1 0.015347 -0.007938 -0.001452 0.000000 0.000000 0.000000
# 2 -0.007938 0.015347 -0.001452 0.000000 0.000000 0.000000
# 3 -0.001452 -0.001452 0.012917 0.000000 0.000000 0.000000
# 4 0.000000 0.000000 0.000000 0.046194 0.000000 0.000000
# 5 0.000000 0.000000 0.000000 0.000000 0.046194 0.000000
# 6 0.000000 0.000000 0.000000 0.000000 0.000000 0.028917
#
#
# Mechanical properties :
#
#
# Convention : Reuss Voigt Hill
#
# Bulk Modulus (GPa) = 45.61128 47.43458 46.52293
# Shear Modulus (GPa) = 25.78530 27.85948 26.82239
#
# Velocity S-wave (km/s) = 3.60548 3.74769 3.67727
# Velocity P-wave (km/s) = 6.35037 6.52998 6.44080
#
# Compressibility (1/GPa) = 0.02192440
#
# Stress axis : x y z
#
# Youngs Moduli (GPa) = 65.16071 65.16071 77.41814
#
# Poissons Ratio (x) = 0.51728 0.11243
# Poissons Ratio (y) = 0.51728 0.11243
# Poissons Ratio (z) = 0.09463 0.09463
#
# Static dielectric constant tensor:
#      x y z
#    x 3.650200 0.000000 0.000000 
#    y 0.000000 3.650200 0.000000 
#    z 0.000000 0.000000 3.824840 
# 
# 
# High freq. dielectric constant tensor:
#      x y z
#    x 1.773540 0.000000 0.000000 
#    y 0.000000 1.773540 0.000000 
#    z 0.000000 0.000000 1.784080 
# 
# From -- ./inp_files/3206.got.cif
#   From: 2010.03.12/outbox.cif.g09.slc.cpg/sg134_2_cif.got.tgz:3206.got - 2010.04.06 18:17:22.
