data_PCOD8317611
_publ_section_title
;
Structure prediction by ZEFSAII (Michael W. Deem and Ramdas Pophale) SiO2 
 PCOD8317611
Probable space group: P 42/M B C
;
_chemical_formula_sum "Si O2"
_cell_formula_units_Z 112
_cell_length_a 14.814054
_cell_length_b 14.814054
_cell_length_c 25.641692
_cell_angle_alpha 90.000000
_cell_angle_beta 90.000000
_cell_angle_gamma 90.000000
_cell_volume 5627.228183
_symmetry_space_group_name_H-M "P 42/M B C"
_symmetry_group_IT_number 135
_symmetry_cell_setting 'tetragonal'
loop_
_space_group_symop_operation_xyz
x,y,z
-y,x,1/2+z
-x,-y,z
y,-x,1/2+z
1/2+x,1/2-y,-z
1/2-x,1/2+y,-z
1/2+y,1/2+x,1/2-z
1/2-y,1/2-x,1/2-z
-x,-y,-z
y,-x,1/2-z
x,y,-z
-y,x,1/2-z
1/2-x,1/2+y,z
1/2+x,1/2-y,z
1/2-y,1/2-x,1/2+z
1/2+y,1/2+x,1/2+z
loop_
_atom_site_type_symbol
_atom_site_label
_atom_site_fract_x
_atom_site_fract_y
_atom_site_fract_z
Si Si1 0.077140 0.431136 0.136800
Si Si2 0.272462 0.861807 0.704547
Si Si3 0.188283 0.171279 0.559830
Si Si4 0.315593 0.321397 0.599275
Si Si5 0.280129 0.988037 0.439034
Si Si6 0.521581 0.357837 0.262901
Si Si7 0.776496 0.012434 0.877603
O O1 0.102547 0.368467 0.185184
O O2 0.039390 0.373283 0.088549
O O3 0.168214 0.483278 0.121202
O O4 0.000000 0.500000 0.154861
O O5 0.287976 0.787976 0.750000
O O6 0.215281 0.812427 0.659544
O O7 0.223115 0.950549 0.725305
O O8 0.158408 0.159848 0.500000
O O9 0.253036 0.256958 0.564838
O O10 0.098144 0.180815 0.593688
O O11 0.246258 0.085942 0.579293
O O12 0.300302 0.421641 0.577809
O O13 0.420749 0.300238 0.591957
O O14 0.299853 0.984666 0.500000
O O15 0.431211 0.398463 0.238112
O O16 0.506728 0.320489 0.320628
#
# Coordination Sequence:
#
# PCOD8317611 Si02
#       7
#    16  16  16  16  16  16  16
#     4  11  24  42  64  93 130 170 217 264 322 387
#     4  11  21  43  62  90 128 170 211 266 318 384
#     4  11  24  43  69  97 130 174 220 275 336 398
#     4  11  23  42  67  94 133 171 217 275 327 390
#     4  10  23  43  66  92 128 169 213 270 332 384
#     4  11  24  41  65  94 129 171 216 264 331 398
#     4  12  24  42  67  98 131 175 223 270 332 399
#
# _framework density 19.903227999999999
#
# number of rings (size 3 to 8) (size 9 to 14) (size 15 to 20)
#    0.000    1.000    5.714    1.286    4.000    2.286 
#    2.571    1.429    0.000    0.000    0.000    0.000 
#    0.000    0.000    0.000    0.000    0.000    0.000 
#
# Total GULP energy -1389169.879938 kJ/mol
# GULP energy per Si atom -12403.302499 kJ/mol
# Density = 1.985793 g / cm^3
# Si number density = 19.903228 Si / 1000 Ang^3
#
#
#
# Elastic Constant Matrix: (Units=GPa)
#
#
# Indices 1 2 3 4 5 6 
#
# 1 91.2021 16.8324 13.8526 0.0000 0.0000 0.0000
# 2 16.8324 91.2021 13.8526 0.0000 0.0000 0.0000
# 3 13.8526 13.8526 43.7107 0.0000 0.0000 0.0000
# 4 0.0000 0.0000 0.0000 21.6826 0.0000 0.0000
# 5 0.0000 0.0000 0.0000 0.0000 21.6826 0.0000
# 6 0.0000 0.0000 0.0000 0.0000 0.0000 38.7584
#
#
#
# Elastic Compliance Matrix: (Units=1/GPa)
#
#
# Indices 1 2 3 4 5 6 
#
# 1 0.011761 -0.001686 -0.003193 0.000000 0.000000 0.000000
# 2 -0.001686 0.011761 -0.003193 0.000000 0.000000 0.000000
# 3 -0.003193 -0.003193 0.024902 0.000000 0.000000 0.000000
# 4 0.000000 0.000000 0.000000 0.046120 0.000000 0.000000
# 5 0.000000 0.000000 0.000000 0.000000 0.046120 0.000000
# 6 0.000000 0.000000 0.000000 0.000000 0.000000 0.025801
#
#
# Mechanical properties :
#
#
# Convention : Reuss Voigt Hill
#
# Bulk Modulus (GPa) = 30.97903 35.02111 33.00007
# Shear Modulus (GPa) = 25.85759 28.52986 27.19372
#
# Velocity S-wave (km/s) = 3.60830 3.79017 3.70036
# Velocity P-wave (km/s) = 5.74094 6.06529 5.90534
#
# Compressibility (1/GPa) = 0.03227990
#
# Stress axis : x y z
#
# Youngs Moduli (GPa) = 85.02870 85.02870 40.15820
#
# Poissons Ratio (x) = 0.14332 0.12822
# Poissons Ratio (y) = 0.14332 0.12822
# Poissons Ratio (z) = 0.27149 0.27149
#
# Static dielectric constant tensor:
#      x y z
#    x 3.747830 0.000000 0.000000 
#    y 0.000000 3.747830 0.000000 
#    z 0.000000 0.000000 3.620150 
# 
# 
# High freq. dielectric constant tensor:
#      x y z
#    x 1.783780 0.000000 0.000000 
#    y 0.000000 1.783780 0.000000 
#    z 0.000000 0.000000 1.778870 
# 
# From -- ./inp_files/6154.got.cif
#   From: 2010.03.12/outbox.cif.g09.slc.cpg/sg135_4_cif.got.tgz:6154.got - 2010.04.06 18:31:24.
