data_PCOD8317476
_publ_section_title
;
Structure prediction by ZEFSAII (Michael W. Deem and Ramdas Pophale) SiO2 
 PCOD8317476
Probable space group: P 42/M B C
;
_chemical_formula_sum "Si O2"
_cell_formula_units_Z 96
_cell_length_a 24.063789
_cell_length_b 24.063789
_cell_length_c 8.996132
_cell_angle_alpha 90.000000
_cell_angle_beta 90.000000
_cell_angle_gamma 90.000000
_cell_volume 5209.353642
_symmetry_space_group_name_H-M "P 42/M B C"
_symmetry_group_IT_number 135
_symmetry_cell_setting 'tetragonal'
loop_
_space_group_symop_operation_xyz
x,y,z
-y,x,1/2+z
-x,-y,z
y,-x,1/2+z
1/2+x,1/2-y,-z
1/2-x,1/2+y,-z
1/2+y,1/2+x,1/2-z
1/2-y,1/2-x,1/2-z
-x,-y,-z
y,-x,1/2-z
x,y,-z
-y,x,1/2-z
1/2-x,1/2+y,z
1/2+x,1/2-y,z
1/2-y,1/2-x,1/2+z
1/2+y,1/2+x,1/2+z
loop_
_atom_site_type_symbol
_atom_site_label
_atom_site_fract_x
_atom_site_fract_y
_atom_site_fract_z
Si Si1 0.059445 0.942601 0.822325
Si Si2 0.855539 0.844855 0.673262
Si Si3 0.230152 0.349637 0.325244
Si Si4 0.770515 0.348582 0.673006
Si Si5 0.860904 0.561482 0.673761
Si Si6 0.937235 0.358753 0.175322
O O1 0.106068 0.897353 0.779860
O O2 0.001563 0.922759 0.748658
O O3 0.052206 0.948280 0.000000
O O4 0.862002 0.830926 0.500000
O O5 0.868485 0.789858 0.766041
O O6 0.792840 0.862967 0.713193
O O7 0.207020 0.292981 0.250000
O O8 0.232911 0.339183 0.500000
O O9 0.190705 0.400453 0.279670
O O10 0.791849 0.291849 0.750000
O O11 0.778415 0.338673 0.500000
O O12 0.806451 0.400796 0.730091
O O13 0.917028 0.582973 0.750000
O O14 0.871382 0.563043 0.500000
O O15 0.847929 0.499641 0.730252
O O16 0.914930 0.414930 0.250000
O O17 0.934082 0.366139 0.000000
#
# Coordination Sequence:
#
# PCOD8317476 Si02
#       6
#    16  16  16  16  16  16
#     4  10  21  38  58  79 106 138 172 214 263 314
#     4  10  21  35  54  80 105 133 171 213 256 307
#     4  10  20  34  53  76 105 139 173 212 258 308
#     4   9  18  33  51  72 101 133 165 205 252 300
#     4   9  19  34  51  72  99 133 170 208 251 297
#     4   9  18  33  51  71  97 130 168 207 249 297
#
# _framework density 18.428391000000001
#
# number of rings (size 3 to 8) (size 9 to 14) (size 15 to 20)
#    0.000    2.500    0.000    2.000    0.000    6.333 
#    0.000    5.000    0.000    4.000    0.000    0.000 
#    0.000    0.000    0.000    0.000    0.000    0.000 
#
# Total GULP energy -1190422.762798 kJ/mol
# GULP energy per Si atom -12400.237112 kJ/mol
# Density = 1.838645 g / cm^3
# Si number density = 18.428391 Si / 1000 Ang^3
#
#
#
# Elastic Constant Matrix: (Units=GPa)
#
#
# Indices 1 2 3 4 5 6 
#
# 1 135.8115 81.6063 49.4347 0.0000 0.0000 0.0000
# 2 81.6063 135.7900 49.4331 0.0000 0.0000 0.0000
# 3 49.4347 49.4331 53.6226 0.0000 0.0000 0.0000
# 4 0.0000 0.0000 0.0000 29.8905 0.0000 0.0000
# 5 0.0000 0.0000 0.0000 0.0000 29.8901 0.0000
# 6 0.0000 0.0000 0.0000 0.0000 0.0000 30.7452
#
#
#
# Elastic Compliance Matrix: (Units=1/GPa)
#
#
# Indices 1 2 3 4 5 6 
#
# 1 0.013185 -0.005266 -0.007300 0.000000 0.000000 0.000000
# 2 -0.005266 0.013187 -0.007302 0.000000 0.000000 0.000000
# 3 -0.007300 -0.007302 0.032111 0.000000 0.000000 0.000000
# 4 0.000000 0.000000 0.000000 0.033455 0.000000 0.000000
# 5 0.000000 0.000000 0.000000 0.000000 0.033456 0.000000
# 6 0.000000 0.000000 0.000000 0.000000 0.000000 0.032525
#
#
# Mechanical properties :
#
#
# Convention : Reuss Voigt Hill
#
# Bulk Modulus (GPa) = 53.34608 76.24136 64.79372
# Shear Modulus (GPa) = 24.52114 27.75517 26.13816
#
# Velocity S-wave (km/s) = 3.65172 3.88507 3.77020
# Velocity P-wave (km/s) = 6.84037 7.84771 7.36129
#
# Compressibility (1/GPa) = 0.01874552
#
# Stress axis : x y z
#
# Youngs Moduli (GPa) = 75.84552 75.82989 31.14206
#
# Poissons Ratio (x) = 0.39932 0.22735
# Poissons Ratio (y) = 0.39940 0.22741
# Poissons Ratio (z) = 0.55370 0.55374
#
# Static dielectric constant tensor:
#      x y z
#    x 3.573310 0.000000 0.000000 
#    y 0.000000 3.573300 0.000000 
#    z 0.000000 0.000000 3.331470 
# 
# 
# High freq. dielectric constant tensor:
#      x y z
#    x 1.716830 0.000000 0.000000 
#    y 0.000000 1.716830 0.000000 
#    z 0.000000 0.000000 1.712660 
# 
# From -- ./inp_files/1231.got.cif
#   From: 2010.03.12/outbox.cif.g09.slc.cpg/sg135_1_cif.got.tgz:1231.got - 2010.04.06 18:31:24.
