data_PCOD8317257
_publ_section_title
;
Structure prediction by ZEFSAII (Michael W. Deem and Ramdas Pophale) SiO2 
 PCOD8317257
Probable space group: P 42/N N M
;
_chemical_formula_sum "Si O2"
_cell_formula_units_Z 104
_cell_length_a 17.792965
_cell_length_b 17.792965
_cell_length_c 18.029431
_cell_angle_alpha 90.000000
_cell_angle_beta 90.000000
_cell_angle_gamma 90.000000
_cell_volume 5707.930411
_symmetry_space_group_name_H-M "P 42/N N M"
_symmetry_group_IT_number 134
_space_group.IT_coordinate_system_code '2'
_symmetry_cell_setting 'tetragonal'
loop_
_space_group_symop_operation_xyz
x,y,z
1/2-y,x,1/2+z
1/2-x,1/2-y,z
y,1/2-x,1/2+z
x,1/2-y,1/2-z
1/2-x,y,1/2-z
y,x,-z
1/2-y,1/2-x,-z
-x,-y,-z
1/2+y,-x,1/2-z
1/2+x,1/2+y,-z
-y,1/2+x,1/2-z
-x,1/2+y,1/2+z
1/2+x,-y,1/2+z
-y,-x,z
1/2+y,1/2+x,z
loop_
_atom_site_type_symbol
_atom_site_label
_atom_site_fract_x
_atom_site_fract_y
_atom_site_fract_z
Si Si1 0.536928 0.157339 0.137683
Si Si2 0.399116 0.186519 0.695403
Si Si3 0.938404 0.183525 0.084326
Si Si4 0.328534 0.441826 0.025635
Si Si5 0.250000 0.250000 0.349026
Si Si6 0.189727 0.115980 0.561172
Si Si7 0.484028 0.396408 0.212133
O O1 0.585724 0.085724 0.109614
O O2 0.579906 0.232139 0.110835
O O3 0.452773 0.157879 0.107457
O O4 0.526682 0.153370 0.226104
O O5 0.436361 0.250000 0.750000
O O6 0.435712 0.188482 0.613254
O O7 0.308900 0.199721 0.697151
O O8 0.410103 0.103657 0.729463
O O9 0.860961 0.139039 0.091170
O O10 0.004403 0.148642 0.135737
O O11 0.970728 0.178585 0.000046
O O12 0.409609 0.409609 0.000000
O O13 0.269815 0.395729 0.976547
O O14 0.193479 0.196580 0.394011
O O15 0.125913 0.125913 0.500000
O O16 0.521266 0.478735 0.206994
#
# Coordination Sequence:
#
# PCOD8317257 Si02
#       7
#    16  16  16  16   8  16  16
#     4  10  22  37  53  76 111 147 184 231 283 345
#     4  12  23  33  52  83 117 153 189 227 283 350
#     4  10  21  36  60  82 103 141 190 244 294 334
#     4  11  19  35  52  78 114 146 184 226 277 338
#     4  12  20  32  52  86 116 148 188 232 280 342
#     4  11  19  32  54  75 111 147 186 224 269 331
#     4  10  21  38  55  79 113 151 188 229 285 350
#
# _framework density 18.220264
#
# number of rings (size 3 to 8) (size 9 to 14) (size 15 to 20)
#    0.000    1.231    4.615    2.769    0.000    2.769 
#    0.000    0.000    0.000    2.769    0.000    0.000 
#    0.000    0.308    0.000    0.000    0.000    0.000 
#
# Total GULP energy -1289072.244668 kJ/mol
# GULP energy per Si atom -12394.925429 kJ/mol
# Density = 1.817879 g / cm^3
# Si number density = 18.220264 Si / 1000 Ang^3
#
#
#
# Elastic Constant Matrix: (Units=GPa)
#
#
# Indices 1 2 3 4 5 6 
#
# 1 95.7936 44.8001 34.3583 0.0000 0.0000 0.0000
# 2 44.8001 95.7936 34.3583 0.0000 0.0000 0.0000
# 3 34.3583 34.3583 94.2992 0.0000 0.0000 0.0000
# 4 0.0000 0.0000 0.0000 21.3109 0.0000 0.0000
# 5 0.0000 0.0000 0.0000 0.0000 21.3109 0.0000
# 6 0.0000 0.0000 0.0000 0.0000 0.0000 25.7124
#
#
#
# Elastic Compliance Matrix: (Units=1/GPa)
#
#
# Indices 1 2 3 4 5 6 
#
# 1 0.014132 -0.005478 -0.003153 0.000000 0.000000 0.000000
# 2 -0.005478 0.014132 -0.003153 0.000000 0.000000 0.000000
# 3 -0.003153 -0.003153 0.012902 0.000000 0.000000 0.000000
# 4 0.000000 0.000000 0.000000 0.046924 0.000000 0.000000
# 5 0.000000 0.000000 0.000000 0.000000 0.046924 0.000000
# 6 0.000000 0.000000 0.000000 0.000000 0.000000 0.038892
#
#
# Mechanical properties :
#
#
# Convention : Reuss Voigt Hill
#
# Bulk Modulus (GPa) = 56.82600 56.99110 56.90855
# Shear Modulus (GPa) = 24.58921 25.15816 24.87369
#
# Velocity S-wave (km/s) = 3.67761 3.71992 3.69882
# Velocity P-wave (km/s) = 7.02062 7.05672 7.03869
#
# Compressibility (1/GPa) = 0.01759758
#
# Stress axis : x y z
#
# Youngs Moduli (GPa) = 70.76107 70.76107 77.50628
#
# Poissons Ratio (x) = 0.38765 0.24438
# Poissons Ratio (y) = 0.38765 0.24438
# Poissons Ratio (z) = 0.22311 0.22311
#
# Static dielectric constant tensor:
#      x y z
#    x 3.284650 0.000000 0.000000 
#    y 0.000000 3.284650 0.000000 
#    z 0.000000 0.000000 3.579510 
# 
# 
# High freq. dielectric constant tensor:
#      x y z
#    x 1.690610 0.000000 0.000000 
#    y 0.000000 1.690610 0.000000 
#    z 0.000000 0.000000 1.709530 
# 
# From -- ./inp_files/7991.got.cif
#   From: 2010.03.12/outbox.cif.g09.slc.cpg/sg134_4_cif.got.tgz:7991.got - 2010.04.06 18:17:22.
