data_PCOD8317934
_publ_section_title
;
Structure prediction by ZEFSAII (Michael W. Deem and Ramdas Pophale) SiO2 
 PCOD8317934
Probable space group: P 42/M N M
;
_chemical_formula_sum "Si O2"
_cell_formula_units_Z 96
_cell_length_a 14.729390
_cell_length_b 14.729390
_cell_length_c 24.000252
_cell_angle_alpha 90.000000
_cell_angle_beta 90.000000
_cell_angle_gamma 90.000000
_cell_volume 5206.972987
_symmetry_space_group_name_H-M "P 42/M N M"
_symmetry_group_IT_number 136
_symmetry_cell_setting 'tetragonal'
loop_
_space_group_symop_operation_xyz
x,y,z
1/2-y,1/2+x,1/2+z
-x,-y,z
1/2+y,1/2-x,1/2+z
1/2+x,1/2-y,1/2-z
1/2-x,1/2+y,1/2-z
y,x,-z
-y,-x,-z
-x,-y,-z
1/2+y,1/2-x,1/2-z
x,y,-z
1/2-y,1/2+x,1/2-z
1/2-x,1/2+y,1/2+z
1/2+x,1/2-y,1/2+z
-y,-x,z
y,x,z
loop_
_atom_site_type_symbol
_atom_site_label
_atom_site_fract_x
_atom_site_fract_y
_atom_site_fract_z
Si Si1 0.062025 0.789718 0.703300
Si Si2 0.575118 0.424883 0.775936
Si Si3 0.867998 0.278170 0.592797
Si Si4 0.470670 0.146707 0.500000
Si Si5 0.016668 0.633650 0.776137
Si Si6 0.723536 0.961937 0.109990
Si Si7 0.354333 0.979805 0.500000
Si Si8 0.423024 0.576977 0.650711
O O1 0.139767 0.860233 0.718324
O O2 0.088971 0.724624 0.653610
O O3 0.049755 0.732213 0.758641
O O4 0.966973 0.840943 0.689729
O O5 0.500000 0.500000 0.766659
O O6 0.604172 0.395829 0.713699
O O7 0.815056 0.184945 0.577825
O O8 0.796904 0.359780 0.590521
O O9 0.953455 0.292833 0.552752
O O10 0.472538 0.207236 0.556465
O O11 0.554664 0.078588 0.500000
O O12 0.378171 0.086612 0.500000
O O13 0.099614 0.563387 0.765930
O O14 0.988925 0.650688 0.840816
O O15 0.830218 0.963198 0.124292
O O16 0.500000 0.500000 0.644620
#
# Coordination Sequence:
#
# PCOD8317934 Si02
#       8
#    16   8  16   8  16  16   8   8
#     4  10  20  35  56  83 114 146 187 233 290 349
#     4   9  18  34  55  81 113 147 183 230 285 345
#     4  10  19  33  56  85 112 145 192 245 287 341
#     4   9  22  35  54  81 111 155 190 241 279 350
#     4  11  23  34  54  82 118 153 186 236 290 355
#     4  11  21  37  57  81 114 150 196 236 291 341
#     4   9  19  34  55  79 113 147 190 238 297 328
#     4  11  22  37  62  85 113 153 194 241 290 343
#
# _framework density 18.436814999999999
#
# number of rings (size 3 to 8) (size 9 to 14) (size 15 to 20)
#    0.000    1.833    4.167    0.250    2.333    1.667 
#    1.500    0.833    0.000    0.500    2.167    2.917 
#    0.000    0.000    0.000    0.000    0.000    0.000 
#
# Total GULP energy -1189551.832738 kJ/mol
# GULP energy per Si atom -12391.164924 kJ/mol
# Density = 1.839485 g / cm^3
# Si number density = 18.436815 Si / 1000 Ang^3
#
#
#
# Elastic Constant Matrix: (Units=GPa)
#
#
# Indices 1 2 3 4 5 6 
#
# 1 76.9086 35.7813 35.2323 0.0000 0.0000 0.0000
# 2 35.7813 76.9086 35.2323 0.0000 0.0000 0.0000
# 3 35.2323 35.2323 80.1278 0.0000 0.0000 0.0000
# 4 0.0000 0.0000 0.0000 8.7559 0.0000 0.0000
# 5 0.0000 0.0000 0.0000 0.0000 8.7559 0.0000
# 6 0.0000 0.0000 0.0000 0.0000 0.0000 26.1528
#
#
#
# Elastic Compliance Matrix: (Units=1/GPa)
#
#
# Indices 1 2 3 4 5 6 
#
# 1 0.018277 -0.006038 -0.005381 0.000000 0.000000 0.000000
# 2 -0.006038 0.018277 -0.005381 0.000000 0.000000 0.000000
# 3 -0.005381 -0.005381 0.017213 0.000000 0.000000 0.000000
# 4 0.000000 0.000000 0.000000 0.114209 0.000000 0.000000
# 5 0.000000 0.000000 0.000000 0.000000 0.114209 0.000000
# 6 0.000000 0.000000 0.000000 0.000000 0.000000 0.038237
#
#
# Mechanical properties :
#
#
# Convention : Reuss Voigt Hill
#
# Bulk Modulus (GPa) = 49.59210 49.60410 49.59810
# Shear Modulus (GPa) = 13.86026 17.24620 15.55323
#
# Velocity S-wave (km/s) = 2.74482 3.06178 2.90762
# Velocity P-wave (km/s) = 6.08294 6.28193 6.18324
#
# Compressibility (1/GPa) = 0.02016450
#
# Stress axis : x y z
#
# Youngs Moduli (GPa) = 54.71412 54.71412 58.09719
#
# Poissons Ratio (x) = 0.33036 0.31265
# Poissons Ratio (y) = 0.33036 0.31265
# Poissons Ratio (z) = 0.29444 0.29444
#
# Static dielectric constant tensor:
#      x y z
#    x 3.418940 0.000000 0.000000 
#    y 0.000000 3.418940 0.000000 
#    z 0.000000 0.000000 3.448680 
# 
# 
# High freq. dielectric constant tensor:
#      x y z
#    x 1.706060 0.000000 0.000000 
#    y 0.000000 1.706060 0.000000 
#    z 0.000000 0.000000 1.709160 
# 
# From -- ./inp_files/8468.got.cif
#   From: 2010.03.12/outbox.cif.g09.slc.cpg/sg136_5_cif.got.tgz:8468.got - 2010.04.06 18:39:43.
