data_PCOD8317499
_publ_section_title
;
Structure prediction by ZEFSAII (Michael W. Deem and Ramdas Pophale) SiO2 
 PCOD8317499
Probable space group: P 42/M B C
;
_chemical_formula_sum "Si O2"
_cell_formula_units_Z 96
_cell_length_a 23.939764
_cell_length_b 23.939764
_cell_length_c 8.754425
_cell_angle_alpha 90.000000
_cell_angle_beta 90.000000
_cell_angle_gamma 90.000000
_cell_volume 5017.268650
_symmetry_space_group_name_H-M "P 42/M B C"
_symmetry_group_IT_number 135
_symmetry_cell_setting 'tetragonal'
loop_
_space_group_symop_operation_xyz
x,y,z
-y,x,1/2+z
-x,-y,z
y,-x,1/2+z
1/2+x,1/2-y,-z
1/2-x,1/2+y,-z
1/2+y,1/2+x,1/2-z
1/2-y,1/2-x,1/2-z
-x,-y,-z
y,-x,1/2-z
x,y,-z
-y,x,1/2-z
1/2-x,1/2+y,z
1/2+x,1/2-y,z
1/2-y,1/2-x,1/2+z
1/2+y,1/2+x,1/2+z
loop_
_atom_site_type_symbol
_atom_site_label
_atom_site_fract_x
_atom_site_fract_y
_atom_site_fract_z
Si Si1 0.341655 0.641332 0.178887
Si Si2 0.145696 0.726069 0.826770
Si Si3 0.435405 0.852870 0.319369
Si Si4 0.366901 0.052246 0.324513
Si Si5 0.148810 0.268928 0.819559
Si Si6 0.057248 0.938133 0.682186
O O1 0.283134 0.624209 0.252727
O O2 0.356725 0.704385 0.225581
O O3 0.390369 0.600196 0.236821
O O4 0.334115 0.635162 0.000000
O O5 0.201811 0.701811 0.750000
O O6 0.095695 0.682958 0.809324
O O7 0.161785 0.737828 0.000000
O O8 0.409198 0.909198 0.250000
O O9 0.429026 0.853901 0.500000
O O10 0.499261 0.848422 0.272137
O O11 0.404463 0.798950 0.252861
O O12 0.422915 0.077086 0.250000
O O13 0.378871 0.036399 0.500000
O O14 0.205830 0.294171 0.750000
O O15 0.148924 0.278665 0.000000
O O16 0.055505 0.944450 0.500000
O O17 0.996138 0.922115 0.744335
#
# Coordination Sequence:
#
# PCOD8317499 Si02
#       6
#    16  16  16  16  16  16
#     4  10  22  37  57  84 113 144 183 224 268 326
#     4  10  21  36  57  82 113 148 182 223 273 322
#     4  11  22  37  57  81 109 145 185 229 276 325
#     4  10  21  38  57  81 111 145 184 228 274 324
#     4  10  20  36  55  79 112 147 181 224 272 321
#     4  10  21  39  59  81 109 143 180 225 275 325
#
# _framework density 19.133915999999999
#
# number of rings (size 3 to 8) (size 9 to 14) (size 15 to 20)
#    0.000    1.833    0.000    5.500    0.000    7.667 
#    0.000    6.667    0.000    0.000    0.000    0.000 
#    0.000    0.000    0.000    0.000    0.000    0.000 
#
# Total GULP energy -1190750.739053 kJ/mol
# GULP energy per Si atom -12403.653532 kJ/mol
# Density = 1.909037 g / cm^3
# Si number density = 19.133916 Si / 1000 Ang^3
#
#
#
# Elastic Constant Matrix: (Units=GPa)
#
#
# Indices 1 2 3 4 5 6 
#
# 1 73.5617 66.2743 33.5557 0.0000 0.0000 0.0000
# 2 66.2743 73.5467 33.5948 0.0000 0.0000 0.0000
# 3 33.5557 33.5948 74.7294 0.0000 0.0000 0.0000
# 4 0.0000 0.0000 0.0000 32.8925 0.0000 0.0000
# 5 0.0000 0.0000 0.0000 0.0000 32.8923 0.0000
# 6 0.0000 0.0000 0.0000 0.0000 0.0000 26.2056
#
#
#
# Elastic Compliance Matrix: (Units=1/GPa)
#
#
# Indices 1 2 3 4 5 6 
#
# 1 0.073211 -0.064123 -0.004047 0.000000 0.000000 0.000000
# 2 -0.064123 0.073273 -0.004147 0.000000 0.000000 0.000000
# 3 -0.004047 -0.004147 0.017063 0.000000 0.000000 0.000000
# 4 0.000000 0.000000 0.000000 0.030402 0.000000 0.000000
# 5 0.000000 0.000000 0.000000 0.000000 0.030402 0.000000
# 6 0.000000 0.000000 0.000000 0.000000 0.000000 0.038160
#
#
# Mechanical properties :
#
#
# Convention : Reuss Voigt Hill
#
# Bulk Modulus (GPa) = 52.87372 54.29860 53.58616
# Shear Modulus (GPa) = 12.09335 24.29228 18.19281
#
# Velocity S-wave (km/s) = 2.51676 3.56700 3.08687
# Velocity P-wave (km/s) = 6.01157 6.73828 6.38527
#
# Compressibility (1/GPa) = 0.01891299
#
# Stress axis : x y z
#
# Youngs Moduli (GPa) = 13.65920 13.64751 58.60526
#
# Poissons Ratio (x) = 0.87512 0.23719
# Poissons Ratio (y) = 0.87587 0.24305
# Poissons Ratio (z) = 0.05528 0.05660
#
# Static dielectric constant tensor:
#      x y z
#    x 3.542250 0.000000 0.000000 
#    y 0.000000 3.542240 0.000000 
#    z 0.000000 0.000000 3.646700 
# 
# 
# High freq. dielectric constant tensor:
#      x y z
#    x 1.746800 0.000000 0.000000 
#    y 0.000000 1.746800 0.000000 
#    z 0.000000 0.000000 1.758850 
# 
# From -- ./inp_files/1237.got.cif
#   From: 2010.03.12/outbox.cif.g09.slc.cpg/sg135_1_cif.got.tgz:1237.got - 2010.04.06 18:31:24.
