data_PCOD8317356
_publ_section_title
;
Structure prediction by ZEFSAII (Michael W. Deem and Ramdas Pophale) SiO2 
 PCOD8317356
Probable space group: P 42/M B C
;
_chemical_formula_sum "Si O2"
_cell_formula_units_Z 88
_cell_length_a 13.838042
_cell_length_b 13.838042
_cell_length_c 21.773782
_cell_angle_alpha 90.000000
_cell_angle_beta 90.000000
_cell_angle_gamma 90.000000
_cell_volume 4169.492138
_symmetry_space_group_name_H-M "P 42/M B C"
_symmetry_group_IT_number 135
_symmetry_cell_setting 'tetragonal'
loop_
_space_group_symop_operation_xyz
x,y,z
-y,x,1/2+z
-x,-y,z
y,-x,1/2+z
1/2+x,1/2-y,-z
1/2-x,1/2+y,-z
1/2+y,1/2+x,1/2-z
1/2-y,1/2-x,1/2-z
-x,-y,-z
y,-x,1/2-z
x,y,-z
-y,x,1/2-z
1/2-x,1/2+y,z
1/2+x,1/2-y,z
1/2-y,1/2-x,1/2+z
1/2+y,1/2+x,1/2+z
loop_
_atom_site_type_symbol
_atom_site_label
_atom_site_fract_x
_atom_site_fract_y
_atom_site_fract_z
Si Si1 0.134805 0.066977 0.000000
Si Si2 0.252217 0.484521 0.500000
Si Si3 0.128099 0.708548 0.813982
Si Si4 0.920090 0.719159 0.134517
Si Si5 0.789036 0.898467 0.873714
Si Si6 0.141617 0.165425 0.500000
Si Si7 0.385023 0.731180 0.364036
O O1 0.042773 0.134933 0.000000
O O2 0.206946 0.089876 0.945511
O O3 0.099930 0.956048 0.000000
O O4 0.202950 0.446517 0.437585
O O5 0.261201 0.600696 0.500000
O O6 0.165256 0.665256 0.750000
O O7 0.182977 0.644943 0.864340
O O8 0.158078 0.820214 0.823714
O O9 0.012939 0.701846 0.822398
O O10 0.874770 0.825878 0.148648
O O11 0.841891 0.638547 0.154071
O O12 0.797151 0.005869 0.844397
O O13 0.140275 0.226954 0.562942
#
# Coordination Sequence:
#
# PCOD8317356 Si02
#       7
#     8   8  16  16  16   8  16
#     4   8  17  31  54  90 124 153 197 246 317 371
#     4  10  16  30  57  91 123 163 196 243 304 377
#     4  11  24  40  59  85 117 162 214 258 310 363
#     4  10  21  37  59  92 123 162 206 249 309 376
#     4   9  21  38  60  89 122 159 200 260 312 371
#     4  10  16  31  59  92 124 160 193 253 309 371
#     4  10  21  39  62  91 127 159 205 256 312 371
#
# _framework density 21.105687
#
# number of rings (size 3 to 8) (size 9 to 14) (size 15 to 20)
#    0.000    2.182    1.818    0.818    0.000    7.273 
#    0.000    0.909    0.000    8.727    0.000    0.000 
#    0.000    0.000    0.000    0.000    0.000    0.000 
#
# Total GULP energy -1090215.978690 kJ/mol
# GULP energy per Si atom -12388.817940 kJ/mol
# Density = 2.105765 g / cm^3
# Si number density = 21.105687 Si / 1000 Ang^3
#
#
#
# Elastic Constant Matrix: (Units=GPa)
#
#
# Indices 1 2 3 4 5 6 
#
# 1 111.0700 26.3590 30.9128 0.0000 0.0000 0.0000
# 2 26.3590 111.0700 30.9128 0.0000 0.0000 0.0000
# 3 30.9128 30.9128 62.1249 0.0000 0.0000 0.0000
# 4 0.0000 0.0000 0.0000 21.5395 0.0000 0.0000
# 5 0.0000 0.0000 0.0000 0.0000 21.5395 0.0000
# 6 0.0000 0.0000 0.0000 0.0000 0.0000 24.5320
#
#
#
# Elastic Compliance Matrix: (Units=1/GPa)
#
#
# Indices 1 2 3 4 5 6 
#
# 1 0.010590 -0.001215 -0.004665 0.000000 0.000000 0.000000
# 2 -0.001215 0.010590 -0.004665 0.000000 0.000000 0.000000
# 3 -0.004665 -0.004665 0.020739 0.000000 0.000000 0.000000
# 4 0.000000 0.000000 0.000000 0.046426 0.000000 0.000000
# 5 0.000000 0.000000 0.000000 0.000000 0.046426 0.000000
# 6 0.000000 0.000000 0.000000 0.000000 0.000000 0.040763
#
#
# Mechanical properties :
#
#
# Convention : Reuss Voigt Hill
#
# Bulk Modulus (GPa) = 48.00898 51.18158 49.59528
# Shear Modulus (GPa) = 24.56187 26.59422 25.57804
#
# Velocity S-wave (km/s) = 3.41509 3.55357 3.48502
# Velocity P-wave (km/s) = 6.19248 6.41404 6.30423
#
# Compressibility (1/GPa) = 0.02082944
#
# Stress axis : x y z
#
# Youngs Moduli (GPa) = 94.42881 94.42881 48.21811
#
# Poissons Ratio (x) = 0.11472 0.22494
# Poissons Ratio (y) = 0.11472 0.22494
# Poissons Ratio (z) = 0.44051 0.44051
#
# Static dielectric constant tensor:
#      x y z
#    x 3.841290 0.000000 0.000000 
#    y 0.000000 3.841290 0.000000 
#    z 0.000000 0.000000 3.724610 
# 
# 
# High freq. dielectric constant tensor:
#      x y z
#    x 1.821690 0.000000 0.000000 
#    y 0.000000 1.821690 0.000000 
#    z 0.000000 0.000000 1.812600 
# 
# From -- ./inp_files/5385.got.cif
#   From: 2010.03.12/outbox.cif.g09.slc.cpg/sg135_3_cif.got.tgz:5385.got - 2010.04.06 18:31:24.
