data_PCOD8317370
_publ_section_title
;
Structure prediction by ZEFSAII (Michael W. Deem and Ramdas Pophale) SiO2 
 PCOD8317370
Probable space group: P 42/M B C
;
_chemical_formula_sum "Si O2"
_cell_formula_units_Z 112
_cell_length_a 19.024820
_cell_length_b 19.024820
_cell_length_c 18.323077
_cell_angle_alpha 90.000000
_cell_angle_beta 90.000000
_cell_angle_gamma 90.000000
_cell_volume 6631.923678
_symmetry_space_group_name_H-M "P 42/M B C"
_symmetry_group_IT_number 135
_symmetry_cell_setting 'tetragonal'
loop_
_space_group_symop_operation_xyz
x,y,z
-y,x,1/2+z
-x,-y,z
y,-x,1/2+z
1/2+x,1/2-y,-z
1/2-x,1/2+y,-z
1/2+y,1/2+x,1/2-z
1/2-y,1/2-x,1/2-z
-x,-y,-z
y,-x,1/2-z
x,y,-z
-y,x,1/2-z
1/2-x,1/2+y,z
1/2+x,1/2-y,z
1/2-y,1/2-x,1/2+z
1/2+y,1/2+x,1/2+z
loop_
_atom_site_type_symbol
_atom_site_label
_atom_site_fract_x
_atom_site_fract_y
_atom_site_fract_z
Si Si1 0.249770 0.124642 0.166955
Si Si2 0.758199 0.359018 0.663671
Si Si3 0.281497 0.358250 0.415481
Si Si4 0.949199 0.939797 0.586684
Si Si5 0.295990 0.516612 0.586111
Si Si6 0.783559 0.011394 0.915272
Si Si7 0.249850 0.834183 0.082870
O O1 0.320660 0.167670 0.149177
O O2 0.240774 0.122950 0.253258
O O3 0.182169 0.160612 0.131069
O O4 0.255203 0.046632 0.133962
O O5 0.762420 0.431968 0.619898
O O6 0.695302 0.309766 0.635731
O O7 0.304871 0.354901 0.500000
O O8 0.279629 0.437894 0.386948
O O9 0.204642 0.324054 0.403623
O O10 0.948247 0.942274 0.500000
O O11 0.871392 0.956979 0.615906
O O12 0.976187 0.863509 0.612339
O O13 0.000000 0.000000 0.618627
O O14 0.291104 0.520890 0.500000
O O15 0.739684 0.083119 0.903245
O O16 0.782500 0.988081 0.000000
O O17 0.223092 0.821579 0.000000
#
# Coordination Sequence:
#
# PCOD8317370 Si02
#       7
#    16  16  16  16  16  16  16
#     4  10  21  33  48  71 100 133 167 207 247 289
#     4  10  20  34  49  69  99 134 170 203 243 295
#     4   9  18  32  52  76 100 127 166 208 247 298
#     4   9  16  26  44  70  99 127 154 185 235 300
#     4  10  18  31  51  73  98 130 163 202 247 293
#     4  10  18  30  49  72  98 130 164 204 251 295
#     4   9  17  32  53  75  98 128 166 205 249 301
#
# _framework density 16.888012
#
# number of rings (size 3 to 8) (size 9 to 14) (size 15 to 20)
#    0.000    2.429    1.429    1.714    0.000    5.143 
#    0.000    0.000    0.000    0.857    0.000    6.000 
#    0.000    0.000    0.000    0.000    0.000    0.000 
#
# Total GULP energy -1388717.790334 kJ/mol
# GULP energy per Si atom -12399.265985 kJ/mol
# Density = 1.684957 g / cm^3
# Si number density = 16.888012 Si / 1000 Ang^3
#
#
#
# Elastic Constant Matrix: (Units=GPa)
#
#
# Indices 1 2 3 4 5 6 
#
# 1 99.1731 45.8007 35.8462 0.0000 0.0000 0.0000
# 2 45.8007 99.1731 35.8462 0.0000 0.0000 0.0000
# 3 35.8462 35.8462 50.0983 0.0000 0.0000 0.0000
# 4 0.0000 0.0000 0.0000 20.0546 0.0000 0.0000
# 5 0.0000 0.0000 0.0000 0.0000 20.0546 0.0000
# 6 0.0000 0.0000 0.0000 0.0000 0.0000 24.6490
#
#
#
# Elastic Compliance Matrix: (Units=1/GPa)
#
#
# Indices 1 2 3 4 5 6 
#
# 1 0.014706 -0.004031 -0.007638 0.000000 0.000000 0.000000
# 2 -0.004031 0.014706 -0.007638 0.000000 0.000000 0.000000
# 3 -0.007638 -0.007638 0.030891 0.000000 0.000000 0.000000
# 4 0.000000 0.000000 0.000000 0.049864 0.000000 0.000000
# 5 0.000000 0.000000 0.000000 0.000000 0.049864 0.000000
# 6 0.000000 0.000000 0.000000 0.000000 0.000000 0.040570
#
#
# Mechanical properties :
#
#
# Convention : Reuss Voigt Hill
#
# Bulk Modulus (GPa) = 46.10710 53.71451 49.91080
# Shear Modulus (GPa) = 20.28865 21.68174 20.98520
#
# Velocity S-wave (km/s) = 3.46983 3.58698 3.52889
# Velocity P-wave (km/s) = 6.58892 7.00218 6.79869
#
# Compressibility (1/GPa) = 0.02168863
#
# Stress axis : x y z
#
# Youngs Moduli (GPa) = 68.00106 68.00106 32.37164
#
# Poissons Ratio (x) = 0.27409 0.24726
# Poissons Ratio (y) = 0.27409 0.24726
# Poissons Ratio (z) = 0.51940 0.51940
#
# Static dielectric constant tensor:
#      x y z
#    x 3.205120 0.000000 0.000000 
#    y 0.000000 3.205120 0.000000 
#    z 0.000000 0.000000 3.040400 
# 
# 
# High freq. dielectric constant tensor:
#      x y z
#    x 1.643480 0.000000 0.000000 
#    y 0.000000 1.643480 0.000000 
#    z 0.000000 0.000000 1.635390 
# 
# From -- ./inp_files/5630.got.cif
#   From: 2010.03.12/outbox.cif.g09.slc.cpg/sg135_3_cif.got.tgz:5630.got - 2010.04.06 18:31:24.
