data_PCOD8317752
_publ_section_title
;
Structure prediction by ZEFSAII (Michael W. Deem and Ramdas Pophale) SiO2 
 PCOD8317752
Probable space group: P 42/M N M
;
_chemical_formula_sum "Si O2"
_cell_formula_units_Z 120
_cell_length_a 16.257075
_cell_length_b 16.257075
_cell_length_c 28.949855
_cell_angle_alpha 90.000000
_cell_angle_beta 90.000000
_cell_angle_gamma 90.000000
_cell_volume 7651.229192
_symmetry_space_group_name_H-M "P 42/M N M"
_symmetry_group_IT_number 136
_symmetry_cell_setting 'tetragonal'
loop_
_space_group_symop_operation_xyz
x,y,z
1/2-y,1/2+x,1/2+z
-x,-y,z
1/2+y,1/2-x,1/2+z
1/2+x,1/2-y,1/2-z
1/2-x,1/2+y,1/2-z
y,x,-z
-y,-x,-z
-x,-y,-z
1/2+y,1/2-x,1/2-z
x,y,-z
1/2-y,1/2+x,1/2-z
1/2-x,1/2+y,1/2+z
1/2+x,1/2-y,1/2+z
-y,-x,z
y,x,z
loop_
_atom_site_type_symbol
_atom_site_label
_atom_site_fract_x
_atom_site_fract_y
_atom_site_fract_z
Si Si1 0.365571 0.503721 0.050647
Si Si2 0.685379 0.183001 0.320027
Si Si3 0.568775 0.295608 0.781983
Si Si4 0.063518 0.801444 0.638693
Si Si5 0.996692 0.135130 0.099529
Si Si6 0.337208 0.205116 0.716947
Si Si7 0.245418 0.510992 0.315353
Si Si8 0.505226 0.367019 0.500000
O O1 0.409675 0.590326 0.062193
O O2 0.432814 0.432814 0.049705
O O3 0.297880 0.484390 0.089779
O O4 0.322866 0.508585 0.000000
O O5 0.724340 0.275660 0.323795
O O6 0.722674 0.124017 0.359469
O O7 0.713587 0.144124 0.271339
O O8 0.586716 0.182864 0.323920
O O9 0.624591 0.375410 0.786142
O O10 0.499746 0.300076 0.819975
O O11 0.621244 0.213121 0.790988
O O12 0.528511 0.296968 0.731064
O O13 0.114648 0.885352 0.643458
O O14 0.071506 0.071506 0.098865
O O15 0.992720 0.181404 0.048863
O O16 0.009104 0.199083 0.139786
O O17 0.911503 0.088498 0.109059
O O18 0.284059 0.284059 0.699906
O O19 0.423489 0.199073 0.689559
O O20 0.442655 0.442655 0.500000
O O21 0.597688 0.402313 0.500000
#
# Coordination Sequence:
#
# PCOD8317752 Si02
#       8
#    16  16  16  16  16  16  16   8
#     4   8  14  25  43  69  96 119 147 183 225 278
#     4   9  18  31  44  62  92 125 151 185 233 272
#     4  10  20  31  45  68  96 121 148 187 232 274
#     4  10  18  30  48  67  94 127 153 181 227 282
#     4   9  16  25  41  66  90 113 145 187 234 277
#     4   9  18  32  45  62  92 124 150 185 236 277
#     4  11  18  29  47  63  85 121 160 188 222 269
#     4   7  12  24  38  56  88 118 137 172 230 280
#
# _framework density 15.683755
#
# number of rings (size 3 to 8) (size 9 to 14) (size 15 to 20)
#    0.000    2.733    1.333    4.000    0.000    1.333 
#    0.000    0.667    1.467    0.000    1.733    0.000 
#    0.000    1.067    0.000    0.000    0.000    0.000 
#
# Total GULP energy -1486898.697165 kJ/mol
# GULP energy per Si atom -12390.822476 kJ/mol
# Density = 1.564806 g / cm^3
# Si number density = 15.683755 Si / 1000 Ang^3
#
#
#
# Elastic Constant Matrix: (Units=GPa)
#
#
# Indices 1 2 3 4 5 6 
#
# 1 69.7347 24.0572 45.8894 0.0000 0.0000 0.0000
# 2 24.0572 69.7348 45.8894 0.0000 0.0000 0.0000
# 3 45.8894 45.8894 126.7647 0.0000 0.0000 0.0000
# 4 0.0000 0.0000 0.0000 12.4553 0.0000 0.0000
# 5 0.0000 0.0000 0.0000 0.0000 12.4552 0.0000
# 6 0.0000 0.0000 0.0000 0.0000 0.0000 10.4264
#
#
#
# Elastic Compliance Matrix: (Units=1/GPa)
#
#
# Indices 1 2 3 4 5 6 
#
# 1 0.019202 -0.002691 -0.005977 0.000000 0.000000 0.000000
# 2 -0.002691 0.019202 -0.005977 0.000000 0.000000 0.000000
# 3 -0.005977 -0.005977 0.012216 0.000000 0.000000 0.000000
# 4 0.000000 0.000000 0.000000 0.080287 0.000000 0.000000
# 5 0.000000 0.000000 0.000000 0.000000 0.080287 0.000000
# 6 0.000000 0.000000 0.000000 0.000000 0.000000 0.095911
#
#
# Mechanical properties :
#
#
# Convention : Reuss Voigt Hill
#
# Bulk Modulus (GPa) = 46.88360 55.32291 51.10326
# Shear Modulus (GPa) = 14.55589 17.09393 15.82491
#
# Velocity S-wave (km/s) = 3.04976 3.30496 3.17992
# Velocity P-wave (km/s) = 6.50841 7.06501 6.79241
#
# Compressibility (1/GPa) = 0.02132942
#
# Stress axis : x y z
#
# Youngs Moduli (GPa) = 52.07911 52.07924 81.86023
#
# Poissons Ratio (x) = 0.14015 0.48927
# Poissons Ratio (y) = 0.14015 0.48927
# Poissons Ratio (z) = 0.31127 0.31127
#
# Static dielectric constant tensor:
#      x y z
#    x 2.825510 0.000000 0.000000 
#    y 0.000000 2.825510 0.000000 
#    z 0.000000 0.000000 3.293920 
# 
# 
# High freq. dielectric constant tensor:
#      x y z
#    x 1.576220 0.000000 0.000000 
#    y 0.000000 1.576220 0.000000 
#    z 0.000000 0.000000 1.603470 
# 
# From -- ./inp_files/10015.got.cif
#   From: 2010.03.12/outbox.cif.g09.slc.cpg/sg136_6_cif.got.tgz:10015.got - 2010.04.06 18:39:43.
