data_PCOD8317748
_publ_section_title
;
Structure prediction by ZEFSAII (Michael W. Deem and Ramdas Pophale) SiO2 
 PCOD8317748
Probable space group: P 42/M N M
;
_chemical_formula_sum "Si O2"
_cell_formula_units_Z 112
_cell_length_a 33.096618
_cell_length_b 33.096618
_cell_length_c 7.891780
_cell_angle_alpha 90.000000
_cell_angle_beta 90.000000
_cell_angle_gamma 90.000000
_cell_volume 8644.546298
_symmetry_space_group_name_H-M "P 42/M N M"
_symmetry_group_IT_number 136
_symmetry_cell_setting 'tetragonal'
loop_
_space_group_symop_operation_xyz
x,y,z
1/2-y,1/2+x,1/2+z
-x,-y,z
1/2+y,1/2-x,1/2+z
1/2+x,1/2-y,1/2-z
1/2-x,1/2+y,1/2-z
y,x,-z
-y,-x,-z
-x,-y,-z
1/2+y,1/2-x,1/2-z
x,y,-z
1/2-y,1/2+x,1/2-z
1/2-x,1/2+y,1/2+z
1/2+x,1/2-y,1/2+z
-y,-x,z
y,x,z
loop_
_atom_site_type_symbol
_atom_site_label
_atom_site_fract_x
_atom_site_fract_y
_atom_site_fract_z
Si Si1 0.643889 0.007081 0.690898
Si Si2 0.334365 0.076059 0.806579
Si Si3 0.228310 0.635793 0.184701
Si Si4 0.235879 0.171057 0.000000
Si Si5 0.361961 0.902036 0.299058
Si Si6 0.560401 0.987237 0.195940
Si Si7 0.702418 0.159972 0.187772
Si Si8 0.260611 0.804165 0.500000
O O1 0.660053 0.010261 0.500000
O O2 0.640556 0.051835 0.775477
O O3 0.600569 0.986191 0.696395
O O4 0.669725 0.972697 0.788274
O O5 0.296623 0.094435 0.705861
O O6 0.377050 0.097305 0.744755
O O7 0.328555 0.088813 0.000000
O O8 0.261122 0.642746 0.332899
O O9 0.197407 0.672526 0.190719
O O10 0.249911 0.634547 0.000000
O O11 0.192355 0.192355 0.000000
O O12 0.271290 0.203952 0.000000
O O13 0.360485 0.905165 0.500000
O O14 0.322063 0.880573 0.229445
O O15 0.542927 0.032138 0.201578
O O16 0.566896 0.973640 0.000000
O O17 0.736289 0.167834 0.331618
O O18 0.722281 0.155863 0.000000
O O19 0.217029 0.782972 0.500000
#
# Coordination Sequence:
#
# PCOD8317748 Si02
#       8
#    16  16  16   8  16  16  16   8
#     4  11  21  30  41  58  72  86 114 149 180 219
#     4  10  18  30  44  55  71  95 120 149 183 222
#     4   9  16  27  41  57  75  98 119 139 169 207
#     4   9  16  26  40  60  80  98 117 139 163 201
#     4   9  18  31  43  52  70  94 117 148 186 221
#     4  11  21  33  44  52  65  82 102 135 182 231
#     4   9  16  26  42  57  73  97 120 137 167 208
#     4   9  16  26  40  58  82  98 113 139 163 197
#
# _framework density 12.956144999999999
#
# number of rings (size 3 to 8) (size 9 to 14) (size 15 to 20)
#    0.000    2.286    1.429    3.429    0.000    3.429 
#    0.000    2.857    0.000    0.000    0.000    0.000 
#    0.000    0.000    0.000    0.000    0.000    0.000 
#
# Total GULP energy -1387512.418836 kJ/mol
# GULP energy per Si atom -12388.503740 kJ/mol
# Density = 1.292666 g / cm^3
# Si number density = 12.956145 Si / 1000 Ang^3
#
#
#
# Elastic Constant Matrix: (Units=GPa)
#
#
# Indices 1 2 3 4 5 6 
#
# 1 32.5014 23.9712 25.1792 0.0000 0.0000 0.0000
# 2 23.9712 32.5012 25.1787 0.0000 0.0000 0.0000
# 3 25.1792 25.1787 67.9121 0.0000 0.0000 0.0000
# 4 0.0000 0.0000 0.0000 11.4274 0.0000 0.0000
# 5 0.0000 0.0000 0.0000 0.0000 11.4275 0.0000
# 6 0.0000 0.0000 0.0000 0.0000 0.0000 35.6266
#
#
#
# Elastic Compliance Matrix: (Units=1/GPa)
#
#
# Indices 1 2 3 4 5 6 
#
# 1 0.071843 -0.045389 -0.009808 0.000000 0.000000 0.000000
# 2 -0.045389 0.071842 -0.009807 0.000000 0.000000 0.000000
# 3 -0.009808 -0.009807 0.021998 0.000000 0.000000 0.000000
# 4 0.000000 0.000000 0.000000 0.087509 0.000000 0.000000
# 5 0.000000 0.000000 0.000000 0.000000 0.087508 0.000000
# 6 0.000000 0.000000 0.000000 0.000000 0.000000 0.028069
#
#
# Mechanical properties :
#
#
# Convention : Reuss Voigt Hill
#
# Bulk Modulus (GPa) = 28.03216 31.28591 29.65903
# Shear Modulus (GPa) = 9.79106 15.60201 12.69654
#
# Velocity S-wave (km/s) = 2.75200 3.47395 3.13383
# Velocity P-wave (km/s) = 5.63748 6.34752 6.00301
#
# Compressibility (1/GPa) = 0.03567332
#
# Stress axis : x y z
#
# Youngs Moduli (GPa) = 13.91926 13.91934 45.45945
#
# Poissons Ratio (x) = 0.63179 0.44588
# Poissons Ratio (y) = 0.63178 0.44584
# Poissons Ratio (z) = 0.13653 0.13651
#
# Static dielectric constant tensor:
#      x y z
#    x 2.426320 0.000000 0.000000 
#    y 0.000000 2.426320 0.000000 
#    z 0.000000 0.000000 2.827990 
# 
# 
# High freq. dielectric constant tensor:
#      x y z
#    x 1.446440 0.000000 0.000000 
#    y 0.000000 1.446440 0.000000 
#    z 0.000000 0.000000 1.510490 
# 
# From -- ./inp_files/2393.got.cif
#   From: 2010.03.12/outbox.cif.g09.slc.cpg/sg136_2_cif.got.tgz:2393.got - 2010.04.06 18:39:43.
