data_PCOD8317589
_publ_section_title
;
Structure prediction by ZEFSAII (Michael W. Deem and Ramdas Pophale) SiO2 
 PCOD8317589
Probable space group: P 42/M B C
;
_chemical_formula_sum "Si O2"
_cell_formula_units_Z 96
_cell_length_a 14.960699
_cell_length_b 14.960699
_cell_length_c 20.776166
_cell_angle_alpha 90.000000
_cell_angle_beta 90.000000
_cell_angle_gamma 90.000000
_cell_volume 4650.173717
_symmetry_space_group_name_H-M "P 42/M B C"
_symmetry_group_IT_number 135
_symmetry_cell_setting 'tetragonal'
loop_
_space_group_symop_operation_xyz
x,y,z
-y,x,1/2+z
-x,-y,z
y,-x,1/2+z
1/2+x,1/2-y,-z
1/2-x,1/2+y,-z
1/2+y,1/2+x,1/2-z
1/2-y,1/2-x,1/2-z
-x,-y,-z
y,-x,1/2-z
x,y,-z
-y,x,1/2-z
1/2-x,1/2+y,z
1/2+x,1/2-y,z
1/2-y,1/2-x,1/2+z
1/2+y,1/2+x,1/2+z
loop_
_atom_site_type_symbol
_atom_site_label
_atom_site_fract_x
_atom_site_fract_y
_atom_site_fract_z
Si Si1 0.541936 0.087940 0.110889
Si Si2 0.500000 0.500000 0.893024
Si Si3 0.628908 0.642250 0.864195
Si Si4 0.403623 0.702367 0.500000
Si Si5 0.114107 0.087519 0.000000
Si Si6 0.928856 0.310209 0.208901
Si Si7 0.584157 0.198374 0.701868
Si Si8 0.199315 0.387555 0.500000
O O1 0.476099 0.109267 0.170557
O O2 0.638194 0.061373 0.139897
O O3 0.553788 0.172013 0.062465
O O4 0.500000 0.000000 0.076106
O O5 0.561184 0.561374 0.847352
O O6 0.556613 0.430927 0.936502
O O7 0.590629 0.738139 0.845910
O O8 0.715402 0.634945 0.821346
O O9 0.649171 0.637013 0.939872
O O10 0.514111 0.696693 0.500000
O O11 0.367200 0.802703 0.500000
O O12 0.139824 0.194531 0.000000
O O13 0.843821 0.343821 0.250000
O O14 0.995047 0.269927 0.262212
O O15 0.650081 0.150081 0.750000
#
# Coordination Sequence:
#
# PCOD8317589 Si02
#       8
#    16   8  16   8   8  16  16   8
#     4  11  22  41  65  95 132 173 218 282 338 405
#     4   9  20  40  67  86 126 176 209 261 336 390
#     4  11  22  42  64  98 128 169 225 277 325 405
#     4  10  23  44  63  98 141 170 217 280 353 394
#     4   9  20  41  65  87 135 179 209 258 341 411
#     4  11  23  40  66  92 128 177 226 269 338 395
#     4  10  22  40  63  88 132 177 212 269 336 390
#     4  12  22  41  68 105 129 177 228 277 337 428
#
# _framework density 20.644390999999999
#
# number of rings (size 3 to 8) (size 9 to 14) (size 15 to 20)
#    0.000    1.500    3.333    2.250    0.000    2.000 
#    9.000    0.000    0.000    0.000    0.000    0.000 
#    0.000    0.000    0.000    0.000    0.000    0.000 
#
# Total GULP energy -1189919.493938 kJ/mol
# GULP energy per Si atom -12394.994729 kJ/mol
# Density = 2.059740 g / cm^3
# Si number density = 20.644391 Si / 1000 Ang^3
#
#
#
# Elastic Constant Matrix: (Units=GPa)
#
#
# Indices 1 2 3 4 5 6 
#
# 1 110.1237 41.3100 31.3689 0.0000 0.0000 0.0000
# 2 41.3100 110.1237 31.3689 0.0000 0.0000 0.0000
# 3 31.3689 31.3689 89.9360 0.0000 0.0000 0.0000
# 4 0.0000 0.0000 0.0000 30.5696 0.0000 0.0000
# 5 0.0000 0.0000 0.0000 0.0000 30.5696 0.0000
# 6 0.0000 0.0000 0.0000 0.0000 0.0000 31.6713
#
#
#
# Elastic Compliance Matrix: (Units=1/GPa)
#
#
# Indices 1 2 3 4 5 6 
#
# 1 0.011125 -0.003407 -0.002692 0.000000 0.000000 0.000000
# 2 -0.003407 0.011125 -0.002692 0.000000 0.000000 0.000000
# 3 -0.002692 -0.002692 0.012997 0.000000 0.000000 0.000000
# 4 0.000000 0.000000 0.000000 0.032712 0.000000 0.000000
# 5 0.000000 0.000000 0.000000 0.000000 0.032712 0.000000
# 6 0.000000 0.000000 0.000000 0.000000 0.000000 0.031574
#
#
# Mechanical properties :
#
#
# Convention : Reuss Voigt Hill
#
# Bulk Modulus (GPa) = 56.60653 57.58656 57.09655
# Shear Modulus (GPa) = 32.10937 32.30446 32.20692
#
# Velocity S-wave (km/s) = 3.94808 3.96005 3.95407
# Velocity P-wave (km/s) = 6.94712 6.99031 6.96875
#
# Compressibility (1/GPa) = 0.01766581
#
# Stress axis : x y z
#
# Youngs Moduli (GPa) = 89.88390 89.88390 76.94010
#
# Poissons Ratio (x) = 0.30619 0.20715
# Poissons Ratio (y) = 0.30619 0.20715
# Poissons Ratio (z) = 0.24199 0.24199
#
# Static dielectric constant tensor:
#      x y z
#    x 3.707340 0.000000 0.000000 
#    y 0.000000 3.707340 0.000000 
#    z 0.000000 0.000000 3.694230 
# 
# 
# High freq. dielectric constant tensor:
#      x y z
#    x 1.804120 0.000000 0.000000 
#    y 0.000000 1.804120 0.000000 
#    z 0.000000 0.000000 1.807350 
# 
# From -- ./inp_files/5547.got.cif
#   From: 2010.03.12/outbox.cif.g09.slc.cpg/sg135_3_cif.got.tgz:5547.got - 2010.04.06 18:31:24.
