data_PCOD8317324
_publ_section_title
;
Structure prediction by ZEFSAII (Michael W. Deem and Ramdas Pophale) SiO2 
 PCOD8317324
Probable space group: P 42/N N M
;
_chemical_formula_sum "Si O2"
_cell_formula_units_Z 48
_cell_length_a 13.258983
_cell_length_b 13.258983
_cell_length_c 11.916597
_cell_angle_alpha 90.000000
_cell_angle_beta 90.000000
_cell_angle_gamma 90.000000
_cell_volume 2094.945262
_symmetry_space_group_name_H-M "P 42/N N M"
_symmetry_group_IT_number 134
_space_group.IT_coordinate_system_code '2'
_symmetry_cell_setting 'tetragonal'
loop_
_space_group_symop_operation_xyz
x,y,z
1/2-y,x,1/2+z
1/2-x,1/2-y,z
y,1/2-x,1/2+z
x,1/2-y,1/2-z
1/2-x,y,1/2-z
y,x,-z
1/2-y,1/2-x,-z
-x,-y,-z
1/2+y,-x,1/2-z
1/2+x,1/2+y,-z
-y,1/2+x,1/2-z
-x,1/2+y,1/2+z
1/2+x,-y,1/2+z
-y,-x,z
1/2+y,1/2+x,z
loop_
_atom_site_type_symbol
_atom_site_label
_atom_site_fract_x
_atom_site_fract_y
_atom_site_fract_z
Si Si1 0.539999 0.460001 0.672522
Si Si2 0.390357 0.890357 0.932089
Si Si3 0.093779 0.336138 0.675859
Si Si4 0.514694 0.318265 0.052938
O O1 0.581732 0.418269 0.557434
O O2 0.454828 0.545173 0.655332
O O3 0.496522 0.368241 0.742978
O O4 0.272545 0.912306 0.911156
O O5 0.151386 0.250000 0.750000
O O6 0.167931 0.429262 0.648526
O O7 0.044607 0.293047 0.561636
O O8 0.578841 0.421160 0.040418
#
# Coordination Sequence:
#
# PCOD8317324 Si02
#       4
#     8   8  16  16
#     4  11  22  43  64  92 142 183 225 288 351 415
#     4  11  25  40  66  98 137 185 231 285 353 423
#     4  11  21  41  72  98 138 187 230 287 351 413
#     4  11  22  41  70 105 138 178 235 292 346 422
#
# _framework density 22.912296000000001
#
# number of rings (size 3 to 8) (size 9 to 14) (size 15 to 20)
#    0.000    1.000    6.667    1.500    0.000    1.333 
#    0.000    3.333    3.667    0.000    0.000    0.000 
#    0.000    0.000    0.000    0.000    0.000    0.000 
#
# Total GULP energy -595170.937610 kJ/mol
# GULP energy per Si atom -12399.394534 kJ/mol
# Density = 2.286015 g / cm^3
# Si number density = 22.912296 Si / 1000 Ang^3
#
#
#
# Elastic Constant Matrix: (Units=GPa)
#
#
# Indices 1 2 3 4 5 6 
#
# 1 116.7089 59.1122 37.9279 0.0000 0.0000 0.0000
# 2 59.1122 116.7089 37.9279 0.0000 0.0000 0.0000
# 3 37.9279 37.9279 94.7291 0.0000 0.0000 0.0000
# 4 0.0000 0.0000 0.0000 30.0493 0.0000 0.0000
# 5 0.0000 0.0000 0.0000 0.0000 30.0493 0.0000
# 6 0.0000 0.0000 0.0000 0.0000 0.0000 43.7598
#
#
#
# Elastic Compliance Matrix: (Units=1/GPa)
#
#
# Indices 1 2 3 4 5 6 
#
# 1 0.012119 -0.005243 -0.002753 0.000000 0.000000 0.000000
# 2 -0.005243 0.012119 -0.002753 0.000000 0.000000 0.000000
# 3 -0.002753 -0.002753 0.012761 0.000000 0.000000 0.000000
# 4 0.000000 0.000000 0.000000 0.033279 0.000000 0.000000
# 5 0.000000 0.000000 0.000000 0.000000 0.033279 0.000000
# 6 0.000000 0.000000 0.000000 0.000000 0.000000 0.022852
#
#
# Mechanical properties :
#
#
# Convention : Reuss Voigt Hill
#
# Bulk Modulus (GPa) = 64.51500 66.45364 65.48432
# Shear Modulus (GPa) = 32.66442 33.65030 33.15736
#
# Velocity S-wave (km/s) = 3.77985 3.83646 3.80826
# Velocity P-wave (km/s) = 6.87518 6.97790 6.92673
#
# Compressibility (1/GPa) = 0.01550027
#
# Stress axis : x y z
#
# Youngs Moduli (GPa) = 82.51733 82.51733 78.36563
#
# Poissons Ratio (x) = 0.43267 0.21572
# Poissons Ratio (y) = 0.43267 0.21572
# Poissons Ratio (z) = 0.22715 0.22715
#
# Static dielectric constant tensor:
#      x y z
#    x 4.017250 0.000000 0.000000 
#    y 0.000000 4.017250 0.000000 
#    z 0.000000 0.000000 4.232720 
# 
# 
# High freq. dielectric constant tensor:
#      x y z
#    x 1.897760 0.000000 0.000000 
#    y 0.000000 1.897760 0.000000 
#    z 0.000000 0.000000 1.919480 
# 
# From -- ./inp_files/4204.got.cif
#   From: 2010.03.12/outbox.cif.g09.slc.cpg/sg134_3_cif.got.tgz:4204.got - 2010.04.06 18:17:22.
