data_PCOD8317234
_publ_section_title
;
Structure prediction by ZEFSAII (Michael W. Deem and Ramdas Pophale) SiO2 
 PCOD8317234
Probable space group: P 42/N N M
;
_chemical_formula_sum "Si O2"
_cell_formula_units_Z 64
_cell_length_a 19.692074
_cell_length_b 19.692074
_cell_length_c 9.099466
_cell_angle_alpha 90.000000
_cell_angle_beta 90.000000
_cell_angle_gamma 90.000000
_cell_volume 3528.570710
_symmetry_space_group_name_H-M "P 42/N N M"
_symmetry_group_IT_number 134
_space_group.IT_coordinate_system_code '2'
_symmetry_cell_setting 'tetragonal'
loop_
_space_group_symop_operation_xyz
x,y,z
1/2-y,x,1/2+z
1/2-x,1/2-y,z
y,1/2-x,1/2+z
x,1/2-y,1/2-z
1/2-x,y,1/2-z
y,x,-z
1/2-y,1/2-x,-z
-x,-y,-z
1/2+y,-x,1/2-z
1/2+x,1/2+y,-z
-y,1/2+x,1/2-z
-x,1/2+y,1/2+z
1/2+x,-y,1/2+z
-y,-x,z
1/2+y,1/2+x,z
loop_
_atom_site_type_symbol
_atom_site_label
_atom_site_fract_x
_atom_site_fract_y
_atom_site_fract_z
Si Si1 0.919368 0.819188 0.316436
Si Si2 0.172194 0.562544 0.702750
Si Si3 0.684310 0.936570 0.146125
Si Si4 0.995501 0.606686 0.431214
O O1 0.890618 0.750000 0.250000
O O2 0.948085 0.799044 0.475747
O O3 0.855826 0.868238 0.328435
O O4 0.977922 0.852324 0.216575
O O5 0.250000 0.576667 0.750000
O O6 0.131986 0.631986 0.728240
O O7 0.141347 0.503249 0.807072
O O8 0.160534 0.533491 0.538055
O O9 0.750000 0.934646 0.250000
O O10 0.926537 0.573464 0.500000
O O11 0.046078 0.546078 0.387950
#
# Coordination Sequence:
#
# PCOD8317234 Si02
#       4
#    16  16  16  16
#     4  11  22  34  56  80 110 152 190 245 292 341
#     4  10  20  36  59  83 115 153 190 241 293 349
#     4  10  22  37  52  79 113 149 197 242 289 346
#     4  10  20  37  59  82 113 153 194 239 293 354
#
# _framework density 18.137656
#
# number of rings (size 3 to 8) (size 9 to 14) (size 15 to 20)
#    0.000    1.750    2.500    3.000    0.000    1.750 
#    0.000    5.000    0.000    0.000    0.000    0.000 
#    0.000   10.000    0.000    0.000    0.000    0.000 
#
# Total GULP energy -793092.500550 kJ/mol
# GULP energy per Si atom -12392.070321 kJ/mol
# Density = 1.809637 g / cm^3
# Si number density = 18.137656 Si / 1000 Ang^3
#
#
#
# Elastic Constant Matrix: (Units=GPa)
#
#
# Indices 1 2 3 4 5 6 
#
# 1 104.2224 43.7648 59.3946 0.0000 0.0000 0.0000
# 2 43.7648 104.2210 59.3943 0.0000 0.0000 0.0000
# 3 59.3946 59.3943 154.6511 0.0000 0.0000 0.0000
# 4 0.0000 0.0000 0.0000 22.8766 0.0000 0.0000
# 5 0.0000 0.0000 0.0000 0.0000 22.8767 0.0000
# 6 0.0000 0.0000 0.0000 0.0000 0.0000 26.7048
#
#
#
# Elastic Compliance Matrix: (Units=1/GPa)
#
#
# Indices 1 2 3 4 5 6 
#
# 1 0.013155 -0.003386 -0.003752 0.000000 0.000000 0.000000
# 2 -0.003386 0.013155 -0.003752 0.000000 0.000000 0.000000
# 3 -0.003752 -0.003752 0.009348 0.000000 0.000000 0.000000
# 4 0.000000 0.000000 0.000000 0.043713 0.000000 0.000000
# 5 0.000000 0.000000 0.000000 0.000000 0.043713 0.000000
# 6 0.000000 0.000000 0.000000 0.000000 0.000000 0.037446
#
#
# Mechanical properties :
#
#
# Convention : Reuss Voigt Hill
#
# Bulk Modulus (GPa) = 72.05321 76.46689 74.26005
# Shear Modulus (GPa) = 26.74732 27.86102 27.30417
#
# Velocity S-wave (km/s) = 3.84433 3.92355 3.88414
# Velocity P-wave (km/s) = 7.71474 7.92315 7.81964
#
# Compressibility (1/GPa) = 0.01387863
#
# Stress axis : x y z
#
# Youngs Moduli (GPa) = 76.01833 76.01717 106.97515
#
# Poissons Ratio (x) = 0.25738 0.40135
# Poissons Ratio (y) = 0.25739 0.40135
# Poissons Ratio (z) = 0.28520 0.28520
#
# Static dielectric constant tensor:
#      x y z
#    x 3.373460 0.000000 0.000000 
#    y 0.000000 3.373470 0.000000 
#    z 0.000000 0.000000 3.677300 
# 
# 
# High freq. dielectric constant tensor:
#      x y z
#    x 1.697900 0.000000 0.000000 
#    y 0.000000 1.697910 0.000000 
#    z 0.000000 0.000000 1.711550 
# 
# From -- ./inp_files/2727.got.cif
#   From: 2010.03.12/outbox.cif.g09.slc.cpg/sg134_2_cif.got.tgz:2727.got - 2010.04.06 18:17:22.
