data_PCOD8317048
_publ_section_title
;
Structure prediction by ZEFSAII (Michael W. Deem and Ramdas Pophale) SiO2 
 PCOD8317048
Probable space group: P 42/N B C
;
_chemical_formula_sum "Si O2"
_cell_formula_units_Z 64
_cell_length_a 14.481296
_cell_length_b 14.481296
_cell_length_c 17.647723
_cell_angle_alpha 90.000000
_cell_angle_beta 90.000000
_cell_angle_gamma 90.000000
_cell_volume 3700.867527
_symmetry_space_group_name_H-M "P 42/N B C"
_symmetry_group_IT_number 133
_space_group.IT_coordinate_system_code '2'
_symmetry_cell_setting 'tetragonal'
loop_
_space_group_symop_operation_xyz
x,y,z
1/2-y,x,1/2+z
1/2-x,1/2-y,z
y,1/2-x,1/2+z
x,1/2-y,-z
1/2-x,y,-z
y,x,1/2-z
1/2-y,1/2-x,1/2-z
-x,-y,-z
1/2+y,-x,1/2-z
1/2+x,1/2+y,-z
-y,1/2+x,1/2-z
-x,1/2+y,z
1/2+x,-y,z
-y,-x,1/2+z
1/2+y,1/2+x,1/2+z
loop_
_atom_site_type_symbol
_atom_site_label
_atom_site_fract_x
_atom_site_fract_y
_atom_site_fract_z
Si Si1 0.643322 0.750000 0.589512
Si Si2 0.097093 0.026420 0.170594
Si Si3 0.402907 0.026421 0.170594
Si Si4 0.849941 0.150060 0.250000
O O1 0.750000 0.750000 0.616582
O O2 0.636658 0.750000 0.500000
O O3 0.593110 0.658183 0.619218
O O4 0.593109 0.841817 0.619218
O O5 0.077954 0.077954 0.250000
O O6 0.146649 0.929243 0.186462
O O7 0.000001 0.999999 0.129829
O O8 0.422045 0.077956 0.250000
O O9 0.353353 0.929243 0.186462
O O10 0.750000 0.141743 0.291058
#
# Coordination Sequence:
#
# PCOD8317048 Si02
#       4
#    16  16  16  16
#     4  11  24  38  55  83 117 155 189 230 289 341
#     4   9  20  34  56  84 109 145 190 234 280 329
#     4   9  20  34  56  84 109 145 190 234 280 329
#     4   9  15  28  54  82 107 129 178 240 272 319
#
# _framework density 17.293241999999999
#
# number of rings (size 3 to 8) (size 9 to 14) (size 15 to 20)
#    0.000    3.000    2.500    0.000    3.500    3.000 
#    0.000    0.000    0.000    3.000    0.000    0.000 
#    0.000    0.000    0.000    0.000    0.000    0.000 
#
# Total GULP energy -792862.259732 kJ/mol
# GULP energy per Si atom -12388.472808 kJ/mol
# Density = 1.725388 g / cm^3
# Si number density = 17.293242 Si / 1000 Ang^3
#
#
#
# Elastic Constant Matrix: (Units=GPa)
#
#
# Indices 1 2 3 4 5 6 
#
# 1 154.5505 83.5871 44.3642 0.0000 0.0000 0.0000
# 2 83.5871 154.5499 44.3643 0.0000 0.0000 0.0000
# 3 44.3642 44.3643 51.1106 0.0000 0.0000 0.0000
# 4 0.0000 0.0000 0.0000 21.7619 0.0000 0.0000
# 5 0.0000 0.0000 0.0000 0.0000 21.7619 0.0000
# 6 0.0000 0.0000 0.0000 0.0000 0.0000 32.0550
#
#
#
# Elastic Compliance Matrix: (Units=1/GPa)
#
#
# Indices 1 2 3 4 5 6 
#
# 1 0.010149 -0.003943 -0.005387 0.000000 0.000000 0.000000
# 2 -0.003943 0.010149 -0.005387 0.000000 0.000000 0.000000
# 3 -0.005387 -0.005387 0.028918 0.000000 0.000000 0.000000
# 4 0.000000 0.000000 0.000000 0.045952 0.000000 0.000000
# 5 0.000000 0.000000 0.000000 0.000000 0.045952 0.000000
# 6 0.000000 0.000000 0.000000 0.000000 0.000000 0.031196
#
#
# Mechanical properties :
#
#
# Convention : Reuss Voigt Hill
#
# Bulk Modulus (GPa) = 50.55181 78.31580 64.43380
# Shear Modulus (GPa) = 23.99868 27.64212 25.82040
#
# Velocity S-wave (km/s) = 3.72929 4.00238 3.86825
# Velocity P-wave (km/s) = 6.91658 8.16970 7.56912
#
# Compressibility (1/GPa) = 0.01978169
#
# Stress axis : x y z
#
# Youngs Moduli (GPa) = 98.53043 98.52976 34.58075
#
# Poissons Ratio (x) = 0.38847 0.18630
# Poissons Ratio (y) = 0.38847 0.18630
# Poissons Ratio (z) = 0.53081 0.53081
#
# Static dielectric constant tensor:
#      x y z
#    x 3.529800 0.000000 0.000000 
#    y 0.000000 3.529800 0.000000 
#    z 0.000000 0.000000 2.689650 
# 
# 
# High freq. dielectric constant tensor:
#      x y z
#    x 1.692850 0.000000 0.000000 
#    y 0.000000 1.692850 0.000000 
#    z 0.000000 0.000000 1.604410 
# 
# From -- ./inp_files/4131.got.cif
#   From: 2010.03.12/outbox.cif.g09.slc.cpg/sg133_3_cif.got.tgz:4131.got - 2010.04.06 18:08:06.
