data_PCOD8317626
_publ_section_title
;
Structure prediction by ZEFSAII (Michael W. Deem and Ramdas Pophale) SiO2 
 PCOD8317626
Probable space group: P 42/M B C
;
_chemical_formula_sum "Si O2"
_cell_formula_units_Z 80
_cell_length_a 16.084365
_cell_length_b 16.084365
_cell_length_c 15.929046
_cell_angle_alpha 90.000000
_cell_angle_beta 90.000000
_cell_angle_gamma 90.000000
_cell_volume 4120.952477
_symmetry_space_group_name_H-M "P 42/M B C"
_symmetry_group_IT_number 135
_symmetry_cell_setting 'tetragonal'
loop_
_space_group_symop_operation_xyz
x,y,z
-y,x,1/2+z
-x,-y,z
y,-x,1/2+z
1/2+x,1/2-y,-z
1/2-x,1/2+y,-z
1/2+y,1/2+x,1/2-z
1/2-y,1/2-x,1/2-z
-x,-y,-z
y,-x,1/2-z
x,y,-z
-y,x,1/2-z
1/2-x,1/2+y,z
1/2+x,1/2-y,z
1/2-y,1/2-x,1/2+z
1/2+y,1/2+x,1/2+z
loop_
_atom_site_type_symbol
_atom_site_label
_atom_site_fract_x
_atom_site_fract_y
_atom_site_fract_z
Si Si1 0.125009 0.978092 0.724603
Si Si2 0.061052 0.395417 0.404796
Si Si3 0.433457 0.108166 0.157084
Si Si4 0.208250 0.092284 0.402594
Si Si5 0.748958 0.640529 0.810782
O O1 0.150148 0.019845 0.636480
O O2 0.090611 0.051674 0.786685
O O3 0.208238 0.936554 0.760946
O O4 0.086223 0.418026 0.500000
O O5 0.090376 0.467570 0.340807
O O6 0.103757 0.310321 0.379627
O O7 0.961265 0.386798 0.398664
O O8 0.394592 0.105409 0.250000
O O9 0.422694 0.195485 0.112655
O O10 0.186805 0.093860 0.500000
O O11 0.190330 0.180308 0.361267
O O12 0.795712 0.704289 0.750000
#
# Coordination Sequence:
#
# PCOD8317626 Si02
#       5
#    16  16  16  16  16
#     4   9  20  40  61  81 111 152 197 235 279 348
#     4  11  21  35  54  82 113 145 186 236 281 335
#     4  11  21  36  57  79 109 151 191 224 279 352
#     4  11  22  38  59  87 115 145 187 244 295 338
#     4  11  22  37  58  83 114 151 189 232 287 345
#
# _framework density 19.412987999999999
#
# number of rings (size 3 to 8) (size 9 to 14) (size 15 to 20)
#    0.000    1.400    0.000    8.400    0.000    1.600 
#    0.000   10.000    0.000    0.000    0.000    0.000 
#    0.000    0.000    0.000    0.000    0.000    0.000 
#
# Total GULP energy -992010.368436 kJ/mol
# GULP energy per Si atom -12400.129605 kJ/mol
# Density = 1.936880 g / cm^3
# Si number density = 19.412988 Si / 1000 Ang^3
#
#
#
# Elastic Constant Matrix: (Units=GPa)
#
#
# Indices 1 2 3 4 5 6 
#
# 1 98.4115 53.6730 44.5475 0.0000 0.0000 0.0000
# 2 53.6730 98.4093 44.5484 0.0000 0.0000 0.0000
# 3 44.5475 44.5484 114.3901 0.0000 0.0000 0.0000
# 4 0.0000 0.0000 0.0000 20.2608 0.0000 0.0000
# 5 0.0000 0.0000 0.0000 0.0000 20.2618 0.0000
# 6 0.0000 0.0000 0.0000 0.0000 0.0000 31.4149
#
#
#
# Elastic Compliance Matrix: (Units=1/GPa)
#
#
# Indices 1 2 3 4 5 6 
#
# 1 0.015435 -0.006917 -0.003317 0.000000 0.000000 0.000000
# 2 -0.006917 0.015436 -0.003318 0.000000 0.000000 0.000000
# 3 -0.003317 -0.003318 0.011326 0.000000 0.000000 0.000000
# 4 0.000000 0.000000 0.000000 0.049356 0.000000 0.000000
# 5 0.000000 0.000000 0.000000 0.000000 0.049354 0.000000
# 6 0.000000 0.000000 0.000000 0.000000 0.000000 0.031832
#
#
# Mechanical properties :
#
#
# Convention : Reuss Voigt Hill
#
# Bulk Modulus (GPa) = 66.25389 66.30541 66.27965
# Shear Modulus (GPa) = 24.40510 25.61698 25.01104
#
# Velocity S-wave (km/s) = 3.54948 3.63654 3.59328
# Velocity P-wave (km/s) = 7.14151 7.20152 7.17158
#
# Compressibility (1/GPa) = 0.01509345
#
# Stress axis : x y z
#
# Youngs Moduli (GPa) = 64.78577 64.78340 88.29233
#
# Poissons Ratio (x) = 0.44810 0.29290
# Poissons Ratio (y) = 0.44811 0.29294
# Poissons Ratio (z) = 0.21492 0.21494
#
# Static dielectric constant tensor:
#      x y z
#    x 3.699140 0.000000 0.000000 
#    y 0.000000 3.699140 0.000000 
#    z 0.000000 0.000000 3.396780 
# 
# 
# High freq. dielectric constant tensor:
#      x y z
#    x 1.766000 0.000000 0.000000 
#    y 0.000000 1.766000 0.000000 
#    z 0.000000 0.000000 1.744200 
# 
# From -- ./inp_files/3436.got.cif
#   From: 2010.03.12/outbox.cif.g09.slc.cpg/sg135_2_cif.got.tgz:3436.got - 2010.04.06 18:31:24.
