data_PCOD8317115
_publ_section_title
;
Structure prediction by ZEFSAII (Michael W. Deem and Ramdas Pophale) SiO2 
 PCOD8317115
Probable space group: P 42/N N M
;
_chemical_formula_sum "Si O2"
_cell_formula_units_Z 88
_cell_length_a 15.155499
_cell_length_b 15.155499
_cell_length_c 21.190313
_cell_angle_alpha 90.000000
_cell_angle_beta 90.000000
_cell_angle_gamma 90.000000
_cell_volume 4867.184980
_symmetry_space_group_name_H-M "P 42/N N M"
_symmetry_group_IT_number 134
_space_group.IT_coordinate_system_code '2'
_symmetry_cell_setting 'tetragonal'
loop_
_space_group_symop_operation_xyz
x,y,z
1/2-y,x,1/2+z
1/2-x,1/2-y,z
y,1/2-x,1/2+z
x,1/2-y,1/2-z
1/2-x,y,1/2-z
y,x,-z
1/2-y,1/2-x,-z
-x,-y,-z
1/2+y,-x,1/2-z
1/2+x,1/2+y,-z
-y,1/2+x,1/2-z
-x,1/2+y,1/2+z
1/2+x,-y,1/2+z
-y,-x,z
1/2+y,1/2+x,z
loop_
_atom_site_type_symbol
_atom_site_label
_atom_site_fract_x
_atom_site_fract_y
_atom_site_fract_z
Si Si1 0.439422 0.196179 0.529338
Si Si2 0.354229 0.348847 0.262693
Si Si3 0.584115 0.554566 0.855593
Si Si4 0.375420 0.483544 0.625800
Si Si5 0.884848 0.884848 0.500000
Si Si6 0.051314 0.691673 0.586614
O O1 0.377730 0.122271 0.500000
O O2 0.457676 0.171818 0.602123
O O3 0.389997 0.288547 0.530170
O O4 0.529387 0.202470 0.488044
O O5 0.386267 0.250000 0.250000
O O6 0.250000 0.356041 0.250000
O O7 0.396219 0.417808 0.215184
O O8 0.394250 0.370867 0.331849
O O9 0.540931 0.459070 0.853080
O O10 0.519714 0.625874 0.885165
O O11 0.451327 0.548674 0.651905
O O12 0.400081 0.455665 0.554877
O O13 0.284142 0.539880 0.623654
O O14 0.150063 0.650063 0.594229
#
# Coordination Sequence:
#
# PCOD8317115 Si02
#       6
#    16  16  16  16   8  16
#     4   9  17  29  50  80 107 139 174 221 274 321
#     4  11  22  36  54  76 105 135 173 219 279 328
#     4  10  18  32  52  75 105 138 176 219 266 316
#     4  11  22  37  54  76 107 145 184 220 265 318
#     4  10  20  34  52  78 110 141 179 222 272 324
#     4   9  18  32  50  74 105 139 179 221 259 309
#
# _framework density 18.080266999999999
#
# number of rings (size 3 to 8) (size 9 to 14) (size 15 to 20)
#    0.000    2.000    1.818    2.727    0.000    2.545 
#    0.000    0.000    0.000    0.000    0.000    0.000 
#    0.000   27.636    0.000    0.000    0.000    0.000 
#
# Total GULP energy -1090539.113572 kJ/mol
# GULP energy per Si atom -12392.489927 kJ/mol
# Density = 1.803912 g / cm^3
# Si number density = 18.080267 Si / 1000 Ang^3
#
#
#
# Elastic Constant Matrix: (Units=GPa)
#
#
# Indices 1 2 3 4 5 6 
#
# 1 82.4060 53.8325 40.4786 0.0000 0.0000 0.0000
# 2 53.8325 82.4061 40.4785 0.0000 0.0000 0.0000
# 3 40.4786 40.4785 86.9579 0.0000 0.0000 0.0000
# 4 0.0000 0.0000 0.0000 24.9583 0.0000 0.0000
# 5 0.0000 0.0000 0.0000 0.0000 24.9584 0.0000
# 6 0.0000 0.0000 0.0000 0.0000 0.0000 24.3290
#
#
#
# Elastic Compliance Matrix: (Units=1/GPa)
#
#
# Indices 1 2 3 4 5 6 
#
# 1 0.022572 -0.012425 -0.004723 0.000000 0.000000 0.000000
# 2 -0.012425 0.022572 -0.004723 0.000000 0.000000 0.000000
# 3 -0.004723 -0.004723 0.015897 0.000000 0.000000 0.000000
# 4 0.000000 0.000000 0.000000 0.040067 0.000000 0.000000
# 5 0.000000 0.000000 0.000000 0.000000 0.040067 0.000000
# 6 0.000000 0.000000 0.000000 0.000000 0.000000 0.041103
#
#
# Mechanical properties :
#
#
# Convention : Reuss Voigt Hill
#
# Bulk Modulus (GPa) = 57.81153 57.92768 57.86961
# Shear Modulus (GPa) = 21.57145 22.64782 22.10964
#
# Velocity S-wave (km/s) = 3.45787 3.54309 3.50074
# Velocity P-wave (km/s) = 6.92725 6.98904 6.95821
#
# Compressibility (1/GPa) = 0.01729759
#
# Stress axis : x y z
#
# Youngs Moduli (GPa) = 44.30241 44.30256 62.90436
#
# Poissons Ratio (x) = 0.55047 0.29712
# Poissons Ratio (y) = 0.55047 0.29711
# Poissons Ratio (z) = 0.20925 0.20925
#
# Static dielectric constant tensor:
#      x y z
#    x 3.281200 0.000000 0.000000 
#    y 0.000000 3.281200 0.000000 
#    z 0.000000 0.000000 3.415170 
# 
# 
# High freq. dielectric constant tensor:
#      x y z
#    x 1.687390 0.000000 0.000000 
#    y 0.000000 1.687390 0.000000 
#    z 0.000000 0.000000 1.700350 
# 
# From -- ./inp_files/8978.got.cif
#   From: 2010.03.12/outbox.cif.g09.slc.cpg/sg134_5_cif.got.tgz:8978.got - 2010.04.06 18:17:22.
