data_PCOD8317655
_publ_section_title
;
Structure prediction by ZEFSAII (Michael W. Deem and Ramdas Pophale) SiO2 
 PCOD8317655
Probable space group: P 42/M B C
;
_chemical_formula_sum "Si O2"
_cell_formula_units_Z 48
_cell_length_a 8.966070
_cell_length_b 8.966070
_cell_length_c 24.167570
_cell_angle_alpha 90.000000
_cell_angle_beta 90.000000
_cell_angle_gamma 90.000000
_cell_volume 1942.840891
_symmetry_space_group_name_H-M "P 42/M B C"
_symmetry_group_IT_number 135
_symmetry_cell_setting 'tetragonal'
loop_
_space_group_symop_operation_xyz
x,y,z
-y,x,1/2+z
-x,-y,z
y,-x,1/2+z
1/2+x,1/2-y,-z
1/2-x,1/2+y,-z
1/2+y,1/2+x,1/2-z
1/2-y,1/2-x,1/2-z
-x,-y,-z
y,-x,1/2-z
x,y,-z
-y,x,1/2-z
1/2-x,1/2+y,z
1/2+x,1/2-y,z
1/2-y,1/2-x,1/2+z
1/2+y,1/2+x,1/2+z
loop_
_atom_site_type_symbol
_atom_site_label
_atom_site_fract_x
_atom_site_fract_y
_atom_site_fract_z
Si Si1 0.951798 0.218634 0.269735
Si Si2 0.571416 0.345486 0.616988
Si Si3 0.385290 0.126282 0.562557
O O1 0.870317 0.370317 0.250000
O O2 0.081986 0.169004 0.226350
O O3 0.036566 0.251614 0.327995
O O4 0.500000 0.500000 0.630918
O O5 0.482919 0.276784 0.564770
O O6 0.746577 0.360424 0.604252
O O7 0.328539 0.098310 0.500000
O O8 0.500000 0.000000 0.582498
#
# Coordination Sequence:
#
# PCOD8317655 Si02
#       3
#    16  16  16
#     4  11  24  47  71 103 144 188 245 307 373 456
#     4  12  24  44  74 106 146 196 246 312 380 456
#     4  11  26  47  73 108 150 196 251 310 380 458
#
# _framework density 24.706088000000001
#
# number of rings (size 3 to 8) (size 9 to 14) (size 15 to 20)
#    0.000    0.667    3.333    5.000    0.000    6.000 
#    0.000    0.000    0.000    0.000    0.000    0.000 
#    0.000    0.000    0.000    0.000    0.000    0.000 
#
# Total GULP energy -594946.940363 kJ/mol
# GULP energy per Si atom -12394.727924 kJ/mol
# Density = 2.464986 g / cm^3
# Si number density = 24.706088 Si / 1000 Ang^3
#
#
#
# Elastic Constant Matrix: (Units=GPa)
#
#
# Indices 1 2 3 4 5 6 
#
# 1 126.8486 59.0115 71.3175 0.0000 0.0000 0.0000
# 2 59.0115 126.8486 71.3175 0.0000 0.0000 0.0000
# 3 71.3175 71.3175 123.5653 0.0000 0.0000 0.0000
# 4 0.0000 0.0000 0.0000 43.1947 0.0000 0.0000
# 5 0.0000 0.0000 0.0000 0.0000 43.1947 0.0000
# 6 0.0000 0.0000 0.0000 0.0000 0.0000 52.1214
#
#
#
# Elastic Compliance Matrix: (Units=1/GPa)
#
#
# Indices 1 2 3 4 5 6 
#
# 1 0.012200 -0.002541 -0.005575 0.000000 0.000000 0.000000
# 2 -0.002541 0.012200 -0.005575 0.000000 0.000000 0.000000
# 3 -0.005575 -0.005575 0.014528 0.000000 0.000000 0.000000
# 4 0.000000 0.000000 0.000000 0.023151 0.000000 0.000000
# 5 0.000000 0.000000 0.000000 0.000000 0.023151 0.000000
# 6 0.000000 0.000000 0.000000 0.000000 0.000000 0.019186
#
#
# Mechanical properties :
#
#
# Convention : Reuss Voigt Hill
#
# Bulk Modulus (GPa) = 86.60592 86.72839 86.66716
# Shear Modulus (GPa) = 36.86094 39.40990 38.13542
#
# Velocity S-wave (km/s) = 3.86680 3.99827 3.93308
# Velocity P-wave (km/s) = 7.42070 7.51632 7.46866
#
# Compressibility (1/GPa) = 0.01154655
#
# Stress axis : x y z
#
# Youngs Moduli (GPa) = 81.96840 81.96840 68.83398
#
# Poissons Ratio (x) = 0.20831 0.38372
# Poissons Ratio (y) = 0.20831 0.38372
# Poissons Ratio (z) = 0.45693 0.45693
#
# Static dielectric constant tensor:
#      x y z
#    x 4.371480 0.000000 0.000000 
#    y 0.000000 4.371480 0.000000 
#    z 0.000000 0.000000 4.215690 
# 
# 
# High freq. dielectric constant tensor:
#      x y z
#    x 1.985620 0.000000 0.000000 
#    y 0.000000 1.985620 0.000000 
#    z 0.000000 0.000000 1.980030 
# 
# From -- ./inp_files/6571.got.cif
#   From: 2010.03.12/outbox.cif.g09.slc.cpg/sg135_4_cif.got.tgz:6571.got - 2010.04.06 18:31:24.
