data_PCOD8317125
_publ_section_title
;
Structure prediction by ZEFSAII (Michael W. Deem and Ramdas Pophale) SiO2 
 PCOD8317125
Probable space group: P 42/N N M
;
_chemical_formula_sum "Si O2"
_cell_formula_units_Z 80
_cell_length_a 11.486585
_cell_length_b 11.486585
_cell_length_c 32.157274
_cell_angle_alpha 90.000000
_cell_angle_beta 90.000000
_cell_angle_gamma 90.000000
_cell_volume 4242.883307
_symmetry_space_group_name_H-M "P 42/N N M"
_symmetry_group_IT_number 134
_space_group.IT_coordinate_system_code '2'
_symmetry_cell_setting 'tetragonal'
loop_
_space_group_symop_operation_xyz
x,y,z
1/2-y,x,1/2+z
1/2-x,1/2-y,z
y,1/2-x,1/2+z
x,1/2-y,1/2-z
1/2-x,y,1/2-z
y,x,-z
1/2-y,1/2-x,-z
-x,-y,-z
1/2+y,-x,1/2-z
1/2+x,1/2+y,-z
-y,1/2+x,1/2-z
-x,1/2+y,1/2+z
1/2+x,-y,1/2+z
-y,-x,z
1/2+y,1/2+x,z
loop_
_atom_site_type_symbol
_atom_site_label
_atom_site_fract_x
_atom_site_fract_y
_atom_site_fract_z
Si Si1 0.491384 0.508617 0.451086
Si Si2 0.846262 0.964348 0.284519
Si Si3 0.656737 0.156737 0.888201
Si Si4 0.841458 0.969188 0.151015
Si Si5 0.561865 0.772131 0.161698
Si Si6 0.293480 0.366485 0.585613
O O1 0.500000 0.500000 0.500000
O O2 0.400967 0.599034 0.429668
O O3 0.452711 0.378882 0.438596
O O4 0.750000 0.933839 0.250000
O O5 0.777341 0.004139 0.325622
O O6 0.924072 0.850908 0.296711
O O7 0.931856 0.068145 0.269616
O O8 0.750000 0.250000 0.904953
O O9 0.565405 0.221254 0.858477
O O10 0.906853 0.860518 0.173371
O O11 0.816127 0.941902 0.102071
O O12 0.919694 0.080306 0.153267
O O13 0.651442 0.817567 0.127709
O O14 0.250000 0.250000 0.559889
#
# Coordination Sequence:
#
# PCOD8317125 Si02
#       6
#     8  16   8  16  16  16
#     4  10  20  34  54  82 116 156 198 234 300 370
#     4  11  22  36  52  76 109 148 185 227 280 348
#     4  10  18  34  62  86 108 144 194 260 294 336
#     4  10  20  33  53  82 108 139 186 235 284 339
#     4   9  18  35  56  78 105 140 191 236 284 341
#     4   8  17  33  52  74 106 147 190 233 278 347
#
# _framework density 18.855101999999999
#
# number of rings (size 3 to 8) (size 9 to 14) (size 15 to 20)
#    0.000    2.400    1.000    3.000    4.200    3.400 
#    0.000    1.000    0.000    0.000    0.000    8.400 
#    0.000    0.000    0.000    0.000    0.000    0.000 
#
# Total GULP energy -991129.196815 kJ/mol
# GULP energy per Si atom -12389.114960 kJ/mol
# Density = 1.881219 g / cm^3
# Si number density = 18.855102 Si / 1000 Ang^3
#
#
#
# Elastic Constant Matrix: (Units=GPa)
#
#
# Indices 1 2 3 4 5 6 
#
# 1 86.2911 39.6860 25.3248 0.0000 0.0000 0.0000
# 2 39.6860 86.2911 25.3248 0.0000 0.0000 0.0000
# 3 25.3248 25.3248 66.4668 0.0000 0.0000 0.0000
# 4 0.0000 0.0000 0.0000 13.6971 0.0000 0.0000
# 5 0.0000 0.0000 0.0000 0.0000 13.6971 0.0000
# 6 0.0000 0.0000 0.0000 0.0000 0.0000 44.5048
#
#
#
# Elastic Compliance Matrix: (Units=1/GPa)
#
#
# Indices 1 2 3 4 5 6 
#
# 1 0.015415 -0.006041 -0.003572 0.000000 0.000000 0.000000
# 2 -0.006041 0.015415 -0.003572 0.000000 0.000000 0.000000
# 3 -0.003572 -0.003572 0.017767 0.000000 0.000000 0.000000
# 4 0.000000 0.000000 0.000000 0.073008 0.000000 0.000000
# 5 0.000000 0.000000 0.000000 0.000000 0.073008 0.000000
# 6 0.000000 0.000000 0.000000 0.000000 0.000000 0.022469
#
#
# Mechanical properties :
#
#
# Convention : Reuss Voigt Hill
#
# Bulk Modulus (GPa) = 44.98788 46.63559 45.81174
# Shear Modulus (GPa) = 19.93131 24.29405 22.11268
#
# Velocity S-wave (km/s) = 3.25480 3.59341 3.42829
# Velocity P-wave (km/s) = 6.16738 6.48106 6.32616
#
# Compressibility (1/GPa) = 0.02222821
#
# Stress axis : x y z
#
# Youngs Moduli (GPa) = 64.87019 64.87019 56.28490
#
# Poissons Ratio (x) = 0.39191 0.20103
# Poissons Ratio (y) = 0.39191 0.20103
# Poissons Ratio (z) = 0.23169 0.23169
#
# Static dielectric constant tensor:
#      x y z
#    x 4.715410 0.000000 0.000000 
#    y 0.000000 4.715410 0.000000 
#    z 0.000000 0.000000 3.149310 
# 
# 
# High freq. dielectric constant tensor:
#      x y z
#    x 1.734680 0.000000 0.000000 
#    y 0.000000 1.734680 0.000000 
#    z 0.000000 0.000000 1.691450 
# 
# From -- ./inp_files/11381.got.cif
#   From: 2010.03.12/outbox.cif.g09.slc.cpg/sg134_6_cif.got.tgz:11381.got - 2010.04.06 18:17:22.
