data_PCOD8317290
_publ_section_title
;
Structure prediction by ZEFSAII (Michael W. Deem and Ramdas Pophale) SiO2 
 PCOD8317290
Probable space group: P 42/N N M
;
_chemical_formula_sum "Si O2"
_cell_formula_units_Z 64
_cell_length_a 13.094409
_cell_length_b 13.094409
_cell_length_c 19.374270
_cell_angle_alpha 90.000000
_cell_angle_beta 90.000000
_cell_angle_gamma 90.000000
_cell_volume 3321.981056
_symmetry_space_group_name_H-M "P 42/N N M"
_symmetry_group_IT_number 134
_space_group.IT_coordinate_system_code '2'
_symmetry_cell_setting 'tetragonal'
loop_
_space_group_symop_operation_xyz
x,y,z
1/2-y,x,1/2+z
1/2-x,1/2-y,z
y,1/2-x,1/2+z
x,1/2-y,1/2-z
1/2-x,y,1/2-z
y,x,-z
1/2-y,1/2-x,-z
-x,-y,-z
1/2+y,-x,1/2-z
1/2+x,1/2+y,-z
-y,1/2+x,1/2-z
-x,1/2+y,1/2+z
1/2+x,-y,1/2+z
-y,-x,z
1/2+y,1/2+x,z
loop_
_atom_site_type_symbol
_atom_site_label
_atom_site_fract_x
_atom_site_fract_y
_atom_site_fract_z
Si Si1 0.475905 0.142477 0.443240
Si Si2 0.226476 0.368802 0.825624
Si Si3 0.588431 0.253506 0.555545
Si Si4 0.828713 0.998293 0.686485
O O1 0.393667 0.106334 0.500000
O O2 0.427661 0.200358 0.378680
O O3 0.541330 0.227191 0.482123
O O4 0.545967 0.045967 0.418930
O O5 0.250000 0.250000 0.833789
O O6 0.250000 0.410862 0.750000
O O7 0.105205 0.389748 0.832258
O O8 0.634570 0.365431 0.545278
O O9 0.672252 0.172252 0.577889
O O10 0.512209 0.256318 0.619974
O O11 0.750000 0.984712 0.750000
O O12 0.907694 0.092307 0.699520
#
# Coordination Sequence:
#
# PCOD8317290 Si02
#       4
#    16  16  16  16
#     4  10  22  39  63  88 115 163 214 255 302 364
#     4  11  23  41  57  85 126 160 198 254 313 366
#     4   9  19  36  57  85 119 150 190 247 302 355
#     4  11  22  37  61  90 122 161 201 250 314 378
#
# _framework density 19.265612000000001
#
# number of rings (size 3 to 8) (size 9 to 14) (size 15 to 20)
#    0.000    1.750    2.500    2.250    0.000    6.750 
#    0.000    2.500    0.000    0.000    0.000    1.750 
#    0.000    0.000    0.000    0.000    0.000    0.000 
#
# Total GULP energy -793031.425238 kJ/mol
# GULP energy per Si atom -12391.116019 kJ/mol
# Density = 1.922176 g / cm^3
# Si number density = 19.265612 Si / 1000 Ang^3
#
#
#
# Elastic Constant Matrix: (Units=GPa)
#
#
# Indices 1 2 3 4 5 6 
#
# 1 94.0367 34.0932 62.5469 0.0000 0.0000 0.0000
# 2 34.0932 94.0357 62.5463 0.0000 0.0000 0.0000
# 3 62.5469 62.5463 146.3275 0.0000 0.0000 0.0000
# 4 0.0000 0.0000 0.0000 21.7745 0.0000 0.0000
# 5 0.0000 0.0000 0.0000 0.0000 21.7744 0.0000
# 6 0.0000 0.0000 0.0000 0.0000 0.0000 20.0078
#
#
#
# Elastic Compliance Matrix: (Units=1/GPa)
#
#
# Indices 1 2 3 4 5 6 
#
# 1 0.015038 -0.001644 -0.005725 0.000000 0.000000 0.000000
# 2 -0.001644 0.015038 -0.005725 0.000000 0.000000 0.000000
# 3 -0.005725 -0.005725 0.011728 0.000000 0.000000 0.000000
# 4 0.000000 0.000000 0.000000 0.045925 0.000000 0.000000
# 5 0.000000 0.000000 0.000000 0.000000 0.045925 0.000000
# 6 0.000000 0.000000 0.000000 0.000000 0.000000 0.049980
#
#
# Mechanical properties :
#
#
# Convention : Reuss Voigt Hill
#
# Bulk Modulus (GPa) = 64.03768 72.53030 68.28399
# Shear Modulus (GPa) = 23.25247 24.39225 23.82236
#
# Velocity S-wave (km/s) = 3.47788 3.56209 3.52024
# Velocity P-wave (km/s) = 7.03129 7.39238 7.21409
#
# Compressibility (1/GPa) = 0.01561581
#
# Stress axis : x y z
#
# Youngs Moduli (GPa) = 66.49695 66.49639 85.26297
#
# Poissons Ratio (x) = 0.10933 0.48815
# Poissons Ratio (y) = 0.10933 0.48815
# Poissons Ratio (z) = 0.38071 0.38071
#
# Static dielectric constant tensor:
#      x y z
#    x 3.672100 0.000000 0.000000 
#    y 0.000000 3.672100 0.000000 
#    z 0.000000 0.000000 3.632240 
# 
# 
# High freq. dielectric constant tensor:
#      x y z
#    x 1.749440 0.000000 0.000000 
#    y 0.000000 1.749450 0.000000 
#    z 0.000000 0.000000 1.753020 
# 
# From -- ./inp_files/7434.got.cif
#   From: 2010.03.12/outbox.cif.g09.slc.cpg/sg134_4_cif.got.tgz:7434.got - 2010.04.06 18:17:22.
