data_PCOD8317254
_publ_section_title
;
Structure prediction by ZEFSAII (Michael W. Deem and Ramdas Pophale) SiO2 
 PCOD8317254
Probable space group: P 42/N N M
;
_chemical_formula_sum "Si O2"
_cell_formula_units_Z 80
_cell_length_a 16.547110
_cell_length_b 16.547110
_cell_length_c 14.308056
_cell_angle_alpha 90.000000
_cell_angle_beta 90.000000
_cell_angle_gamma 90.000000
_cell_volume 3917.643734
_symmetry_space_group_name_H-M "P 42/N N M"
_symmetry_group_IT_number 134
_space_group.IT_coordinate_system_code '2'
_symmetry_cell_setting 'tetragonal'
loop_
_space_group_symop_operation_xyz
x,y,z
1/2-y,x,1/2+z
1/2-x,1/2-y,z
y,1/2-x,1/2+z
x,1/2-y,1/2-z
1/2-x,y,1/2-z
y,x,-z
1/2-y,1/2-x,-z
-x,-y,-z
1/2+y,-x,1/2-z
1/2+x,1/2+y,-z
-y,1/2+x,1/2-z
-x,1/2+y,1/2+z
1/2+x,-y,1/2+z
-y,-x,z
1/2+y,1/2+x,z
loop_
_atom_site_type_symbol
_atom_site_label
_atom_site_fract_x
_atom_site_fract_y
_atom_site_fract_z
Si Si1 0.445316 0.244839 0.139559
Si Si2 0.673063 0.041685 0.509087
Si Si3 0.351486 0.093693 0.159146
Si Si4 0.796036 0.426055 0.843621
Si Si5 0.113931 0.169201 0.870164
O O1 0.460591 0.250000 0.250000
O O2 0.419459 0.152346 0.113260
O O3 0.373372 0.302446 0.101533
O O4 0.525100 0.274082 0.084639
O O5 0.593846 0.093846 0.483451
O O6 0.730105 0.093607 0.577699
O O7 0.646385 0.958278 0.558887
O O8 0.366494 0.090131 0.269642
O O9 0.264437 0.130777 0.133574
O O10 0.353337 0.000782 0.122710
O O11 0.750000 0.454686 0.750000
O O12 0.846362 0.346362 0.822742
#
# Coordination Sequence:
#
# PCOD8317254 Si02
#       5
#    16  16  16  16  16
#     4  10  21  36  57  84 122 166 204 238 298 362
#     4  11  23  39  58  87 121 158 214 263 297 351
#     4   9  17  35  56  89 125 150 188 242 308 375
#     4  11  22  39  64  91 118 149 191 254 326 379
#     4   9  17  32  57  87 118 157 193 248 303 358
#
# _framework density 20.420438000000001
#
# number of rings (size 3 to 8) (size 9 to 14) (size 15 to 20)
#    0.000    2.000    4.000    1.800    0.000    8.600 
#    0.000   10.000    0.000    0.000    0.000    0.000 
#    0.000    0.000    0.000    0.000    0.000    0.000 
#
# Total GULP energy -991452.953842 kJ/mol
# GULP energy per Si atom -12393.161923 kJ/mol
# Density = 2.037396 g / cm^3
# Si number density = 20.420438 Si / 1000 Ang^3
#
#
#
# Elastic Constant Matrix: (Units=GPa)
#
#
# Indices 1 2 3 4 5 6 
#
# 1 82.6072 50.8898 48.0470 0.0000 0.0000 0.0000
# 2 50.8898 82.6072 48.0470 0.0000 0.0000 0.0000
# 3 48.0470 48.0470 72.8875 0.0000 0.0000 0.0000
# 4 0.0000 0.0000 0.0000 19.2940 0.0000 0.0000
# 5 0.0000 0.0000 0.0000 0.0000 19.2940 0.0000
# 6 0.0000 0.0000 0.0000 0.0000 0.0000 43.5743
#
#
#
# Elastic Compliance Matrix: (Units=1/GPa)
#
#
# Indices 1 2 3 4 5 6 
#
# 1 0.022892 -0.008637 -0.009397 0.000000 0.000000 0.000000
# 2 -0.008637 0.022892 -0.009397 0.000000 0.000000 0.000000
# 3 -0.009397 -0.009397 0.026108 0.000000 0.000000 0.000000
# 4 0.000000 0.000000 0.000000 0.051830 0.000000 0.000000
# 5 0.000000 0.000000 0.000000 0.000000 0.051830 0.000000
# 6 0.000000 0.000000 0.000000 0.000000 0.000000 0.022949
#
#
# Mechanical properties :
#
#
# Convention : Reuss Voigt Hill
#
# Bulk Modulus (GPa) = 58.71610 59.11882 58.91746
# Shear Modulus (GPa) = 19.30224 22.50697 20.90461
#
# Velocity S-wave (km/s) = 3.07781 3.32351 3.20302
# Velocity P-wave (km/s) = 6.43790 6.61372 6.52640
#
# Compressibility (1/GPa) = 0.01703110
#
# Stress axis : x y z
#
# Youngs Moduli (GPa) = 43.68416 43.68416 38.30222
#
# Poissons Ratio (x) = 0.37730 0.35991
# Poissons Ratio (y) = 0.37730 0.35991
# Poissons Ratio (z) = 0.41048 0.41048
#
# Static dielectric constant tensor:
#      x y z
#    x 3.521220 0.000000 0.000000 
#    y 0.000000 3.521220 0.000000 
#    z 0.000000 0.000000 3.761140 
# 
# 
# High freq. dielectric constant tensor:
#      x y z
#    x 1.774200 0.000000 0.000000 
#    y 0.000000 1.774200 0.000000 
#    z 0.000000 0.000000 1.795710 
# 
# From -- ./inp_files/6310.got.cif
#   From: 2010.03.12/outbox.cif.g09.slc.cpg/sg134_4_cif.got.tgz:6310.got - 2010.04.06 18:17:22.
