data_PCOD8317267
_publ_section_title
;
Structure prediction by ZEFSAII (Michael W. Deem and Ramdas Pophale) SiO2 
 PCOD8317267
Probable space group: P 42/N N M
;
_chemical_formula_sum "Si O2"
_cell_formula_units_Z 128
_cell_length_a 18.645117
_cell_length_b 18.645117
_cell_length_c 18.003848
_cell_angle_alpha 90.000000
_cell_angle_beta 90.000000
_cell_angle_gamma 90.000000
_cell_volume 6258.864703
_symmetry_space_group_name_H-M "P 42/N N M"
_symmetry_group_IT_number 134
_space_group.IT_coordinate_system_code '2'
_symmetry_cell_setting 'tetragonal'
loop_
_space_group_symop_operation_xyz
x,y,z
1/2-y,x,1/2+z
1/2-x,1/2-y,z
y,1/2-x,1/2+z
x,1/2-y,1/2-z
1/2-x,y,1/2-z
y,x,-z
1/2-y,1/2-x,-z
-x,-y,-z
1/2+y,-x,1/2-z
1/2+x,1/2+y,-z
-y,1/2+x,1/2-z
-x,1/2+y,1/2+z
1/2+x,-y,1/2+z
-y,-x,z
1/2+y,1/2+x,z
loop_
_atom_site_type_symbol
_atom_site_label
_atom_site_fract_x
_atom_site_fract_y
_atom_site_fract_z
Si Si1 0.069428 0.685809 0.053658
Si Si2 0.428218 0.329227 0.781573
Si Si3 0.918896 0.298775 0.676271
Si Si4 0.638368 0.480866 0.406096
Si Si5 0.794923 0.590710 0.322560
Si Si6 0.377793 0.433790 0.373289
Si Si7 0.204169 0.186000 0.586015
Si Si8 0.944851 0.174037 0.244297
O O1 0.142556 0.642556 0.045747
O O2 0.090297 0.757372 0.098090
O O3 0.013196 0.640641 0.101663
O O4 0.033683 0.697352 0.971431
O O5 0.413621 0.250000 0.750000
O O6 0.501572 0.331484 0.827988
O O7 0.363505 0.357368 0.832460
O O8 0.436793 0.388157 0.715360
O O9 0.909996 0.250000 0.750000
O O10 0.860715 0.360715 0.680095
O O11 0.584324 0.415677 0.410256
O O12 0.594424 0.553944 0.419525
O O13 0.670794 0.485007 0.323767
O O14 0.750000 0.612923 0.250000
O O15 0.742185 0.609006 0.392587
O O16 0.820757 0.507304 0.318404
O O17 0.312381 0.377839 0.386064
O O18 0.250000 0.250000 0.624284
O O19 0.200470 0.200470 0.500000
O O20 0.901923 0.250000 0.250000
O O21 0.891095 0.108906 0.226748
#
# Coordination Sequence:
#
# PCOD8317267 Si02
#       8
#    16  16  16  16  16  16  16  16
#     4  11  23  38  59  88 123 160 202 255 316 377
#     4  11  21  35  56  86 119 162 206 255 302 366
#     4  11  24  40  59  84 119 166 217 262 308 369
#     4  10  21  37  60  91 121 152 194 253 323 388
#     4  11  21  37  62  89 127 164 209 260 313 388
#     4  12  19  36  58  86 123 159 194 244 313 371
#     4  11  24  37  56  90 125 166 209 252 317 382
#     4  10  21  39  63  93 121 157 208 264 322 382
#
# _framework density 20.450994000000001
#
# number of rings (size 3 to 8) (size 9 to 14) (size 15 to 20)
#    0.000    1.125    5.000    3.375    0.000    3.000 
#    0.000    0.625    0.000    2.250    0.000    1.750 
#    0.000    0.125    0.000    0.000    0.000    0.000 
#
# Total GULP energy -1586252.133016 kJ/mol
# GULP energy per Si atom -12392.594789 kJ/mol
# Density = 2.040445 g / cm^3
# Si number density = 20.450994 Si / 1000 Ang^3
#
#
#
# Elastic Constant Matrix: (Units=GPa)
#
#
# Indices 1 2 3 4 5 6 
#
# 1 81.3607 41.0996 18.4013 0.0000 0.0000 0.0000
# 2 41.0996 81.3607 18.4013 0.0000 0.0000 0.0000
# 3 18.4013 18.4013 69.7214 0.0000 0.0000 0.0000
# 4 0.0000 0.0000 0.0000 29.6095 0.0000 0.0000
# 5 0.0000 0.0000 0.0000 0.0000 29.6095 0.0000
# 6 0.0000 0.0000 0.0000 0.0000 0.0000 20.9378
#
#
#
# Elastic Compliance Matrix: (Units=1/GPa)
#
#
# Indices 1 2 3 4 5 6 
#
# 1 0.016854 -0.007984 -0.002341 0.000000 0.000000 0.000000
# 2 -0.007984 0.016854 -0.002341 0.000000 0.000000 0.000000
# 3 -0.002341 -0.002341 0.015578 0.000000 0.000000 0.000000
# 4 0.000000 0.000000 0.000000 0.033773 0.000000 0.000000
# 5 0.000000 0.000000 0.000000 0.000000 0.033773 0.000000
# 6 0.000000 0.000000 0.000000 0.000000 0.000000 0.047761
#
#
# Mechanical properties :
#
#
# Convention : Reuss Voigt Hill
#
# Bulk Modulus (GPa) = 41.74709 43.13859 42.44284
# Shear Modulus (GPa) = 25.26419 26.33407 25.79913
#
# Velocity S-wave (km/s) = 3.51857 3.59230 3.55563
# Velocity P-wave (km/s) = 6.07986 6.19238 6.13638
#
# Compressibility (1/GPa) = 0.02395377
#
# Stress axis : x y z
#
# Youngs Moduli (GPa) = 59.33439 59.33439 64.19125
#
# Poissons Ratio (x) = 0.47374 0.15026
# Poissons Ratio (y) = 0.47374 0.15026
# Poissons Ratio (z) = 0.13889 0.13889
#
# Static dielectric constant tensor:
#      x y z
#    x 3.762770 0.000000 0.000000 
#    y 0.000000 3.762770 0.000000 
#    z 0.000000 0.000000 3.949420 
# 
# 
# High freq. dielectric constant tensor:
#      x y z
#    x 1.796320 0.000000 0.000000 
#    y 0.000000 1.796320 0.000000 
#    z 0.000000 0.000000 1.781170 
# 
# From -- ./inp_files/8178.got.cif
#   From: 2010.03.12/outbox.cif.g09.slc.cpg/sg134_5_cif.got.tgz:8178.got - 2010.04.06 18:17:22.
