data_PCOD8317566
_publ_section_title
;
Structure prediction by ZEFSAII (Michael W. Deem and Ramdas Pophale) SiO2 
 PCOD8317566
Probable space group: P 42/M B C
;
_chemical_formula_sum "Si O2"
_cell_formula_units_Z 112
_cell_length_a 14.828915
_cell_length_b 14.828915
_cell_length_c 23.526396
_cell_angle_alpha 90.000000
_cell_angle_beta 90.000000
_cell_angle_gamma 90.000000
_cell_volume 5173.377316
_symmetry_space_group_name_H-M "P 42/M B C"
_symmetry_group_IT_number 135
_symmetry_cell_setting 'tetragonal'
loop_
_space_group_symop_operation_xyz
x,y,z
-y,x,1/2+z
-x,-y,z
y,-x,1/2+z
1/2+x,1/2-y,-z
1/2-x,1/2+y,-z
1/2+y,1/2+x,1/2-z
1/2-y,1/2-x,1/2-z
-x,-y,-z
y,-x,1/2-z
x,y,-z
-y,x,1/2-z
1/2-x,1/2+y,z
1/2+x,1/2-y,z
1/2-y,1/2-x,1/2+z
1/2+y,1/2+x,1/2+z
loop_
_atom_site_type_symbol
_atom_site_label
_atom_site_fract_x
_atom_site_fract_y
_atom_site_fract_z
Si Si1 0.330689 0.793622 0.934372
Si Si2 0.921114 0.927403 0.676135
Si Si3 0.841871 0.083815 0.937004
Si Si4 0.941663 0.366913 0.665209
Si Si5 0.003008 0.230857 0.253663
Si Si6 0.057827 0.360439 0.166618
Si Si7 0.898037 0.247362 0.563552
O O1 0.249880 0.863273 0.923184
O O2 0.414718 0.818906 0.894240
O O3 0.299279 0.694036 0.916333
O O4 0.362683 0.797583 0.000000
O O5 0.895042 0.918601 0.609516
O O6 0.831401 0.954763 0.707923
O O7 0.949060 0.828726 0.698093
O O8 0.000000 0.000000 0.686930
O O9 0.826374 0.976720 0.934074
O O10 0.877120 0.111229 0.000000
O O11 0.926867 0.290630 0.713459
O O12 0.875295 0.450474 0.671821
O O13 0.923468 0.331605 0.602251
O O14 0.045978 0.391808 0.674987
O O15 0.076486 0.291127 0.218662
O O16 0.886650 0.286373 0.500000
#
# Coordination Sequence:
#
# PCOD8317566 Si02
#       7
#    16  16  16  16  16  16  16
#     4  10  22  42  69 104 141 180 231 285 347 420
#     4  12  25  44  67  98 137 183 230 285 341 418
#     4  10  22  44  70 100 136 175 228 290 346 407
#     4  11  24  45  67  97 137 180 232 280 348 412
#     4  12  24  43  64  95 131 179 226 284 339 407
#     4  11  25  42  68  99 137 182 223 289 344 408
#     4  10  21  39  68  98 132 180 224 282 341 403
#
# _framework density 21.649298999999999
#
# number of rings (size 3 to 8) (size 9 to 14) (size 15 to 20)
#    0.000    1.143    4.286    0.857    6.000    2.000 
#    0.000    3.571    0.000    0.000    0.000    0.000 
#    0.000    0.000    0.000    0.000    0.000    0.000 
#
# Total GULP energy -1388712.303208 kJ/mol
# GULP energy per Si atom -12399.216993 kJ/mol
# Density = 2.160002 g / cm^3
# Si number density = 21.649299 Si / 1000 Ang^3
#
#
#
# Elastic Constant Matrix: (Units=GPa)
#
#
# Indices 1 2 3 4 5 6 
#
# 1 107.8774 38.7541 55.6471 0.0000 0.0000 0.0000
# 2 38.7541 107.8774 55.6471 0.0000 0.0000 0.0000
# 3 55.6471 55.6471 149.0386 0.0000 0.0000 0.0000
# 4 0.0000 0.0000 0.0000 37.6599 0.0000 0.0000
# 5 0.0000 0.0000 0.0000 0.0000 37.6599 0.0000
# 6 0.0000 0.0000 0.0000 0.0000 0.0000 28.1502
#
#
#
# Elastic Compliance Matrix: (Units=1/GPa)
#
#
# Indices 1 2 3 4 5 6 
#
# 1 0.011992 -0.002475 -0.003553 0.000000 0.000000 0.000000
# 2 -0.002475 0.011992 -0.003553 0.000000 0.000000 0.000000
# 3 -0.003553 -0.003553 0.009363 0.000000 0.000000 0.000000
# 4 0.000000 0.000000 0.000000 0.026553 0.000000 0.000000
# 5 0.000000 0.000000 0.000000 0.000000 0.026553 0.000000
# 6 0.000000 0.000000 0.000000 0.000000 0.000000 0.035524
#
#
# Mechanical properties :
#
#
# Convention : Reuss Voigt Hill
#
# Bulk Modulus (GPa) = 70.50482 73.87665 72.19074
# Shear Modulus (GPa) = 34.27742 35.01035 34.64389
#
# Velocity S-wave (km/s) = 3.98339 4.02575 4.00463
# Velocity P-wave (km/s) = 7.33444 7.47043 7.40275
#
# Compressibility (1/GPa) = 0.01418343
#
# Stress axis : x y z
#
# Youngs Moduli (GPa) = 83.38987 83.38987 106.80214
#
# Poissons Ratio (x) = 0.20639 0.37950
# Poissons Ratio (y) = 0.20639 0.37950
# Poissons Ratio (z) = 0.29631 0.29631
#
# Static dielectric constant tensor:
#      x y z
#    x 3.840930 0.000000 0.000000 
#    y 0.000000 3.840930 0.000000 
#    z 0.000000 0.000000 4.219810 
# 
# 
# High freq. dielectric constant tensor:
#      x y z
#    x 1.839460 0.000000 0.000000 
#    y 0.000000 1.839460 0.000000 
#    z 0.000000 0.000000 1.874680 
# 
# From -- ./inp_files/6151.got.cif
#   From: 2010.03.12/outbox.cif.g09.slc.cpg/sg135_4_cif.got.tgz:6151.got - 2010.04.06 18:31:24.
