data_PCOD8317164
_publ_section_title
;
Structure prediction by ZEFSAII (Michael W. Deem and Ramdas Pophale) SiO2 
 PCOD8317164
Probable space group: P 42/N N M
;
_chemical_formula_sum "Si O2"
_cell_formula_units_Z 64
_cell_length_a 13.670609
_cell_length_b 13.670609
_cell_length_c 18.870114
_cell_angle_alpha 90.000000
_cell_angle_beta 90.000000
_cell_angle_gamma 90.000000
_cell_volume 3526.551642
_symmetry_space_group_name_H-M "P 42/N N M"
_symmetry_group_IT_number 134
_space_group.IT_coordinate_system_code '2'
_symmetry_cell_setting 'tetragonal'
loop_
_space_group_symop_operation_xyz
x,y,z
1/2-y,x,1/2+z
1/2-x,1/2-y,z
y,1/2-x,1/2+z
x,1/2-y,1/2-z
1/2-x,y,1/2-z
y,x,-z
1/2-y,1/2-x,-z
-x,-y,-z
1/2+y,-x,1/2-z
1/2+x,1/2+y,-z
-y,1/2+x,1/2-z
-x,1/2+y,1/2+z
1/2+x,-y,1/2+z
-y,-x,z
1/2+y,1/2+x,z
loop_
_atom_site_type_symbol
_atom_site_label
_atom_site_fract_x
_atom_site_fract_y
_atom_site_fract_z
Si Si1 0.606067 0.554623 0.077927
Si Si2 0.752730 0.404790 0.035573
Si Si3 0.364648 0.241061 0.669166
Si Si4 0.971604 0.626909 0.063336
O O1 0.510310 0.489691 0.089867
O O2 0.705216 0.488197 0.086157
O O3 0.603307 0.637024 0.137663
O O4 0.604104 0.604104 0.000000
O O5 0.666842 0.333159 0.010541
O O6 0.841713 0.341713 0.072646
O O7 0.791922 0.452154 0.963447
O O8 0.250000 0.250000 0.660448
O O9 0.398767 0.250000 0.750000
O O10 0.413444 0.332382 0.629822
O O11 0.027775 0.527775 0.086405
O O12 0.896299 0.603702 0.000000
#
# Coordination Sequence:
#
# PCOD8317164 Si02
#       4
#    16  16  16  16
#     4  10  19  33  57  85 109 145 192 231 272 331
#     4   9  17  30  51  82 112 136 178 234 274 312
#     4  11  24  37  52  79 112 145 181 226 286 343
#     4  10  20  34  54  78 103 139 181 221 270 327
#
# _framework density 18.148040999999999
#
# number of rings (size 3 to 8) (size 9 to 14) (size 15 to 20)
#    0.000    2.000    2.500    1.500    0.000    1.000 
#    0.000    0.000    0.000    1.500    0.000    1.750 
#    0.000    8.000    0.000    0.000    0.000    0.000 
#
# Total GULP energy -793346.754626 kJ/mol
# GULP energy per Si atom -12396.043041 kJ/mol
# Density = 1.810674 g / cm^3
# Si number density = 18.148041 Si / 1000 Ang^3
#
#
#
# Elastic Constant Matrix: (Units=GPa)
#
#
# Indices 1 2 3 4 5 6 
#
# 1 96.9758 47.7342 66.6957 0.0000 0.0000 0.0000
# 2 47.7342 96.9754 66.6952 0.0000 0.0000 0.0000
# 3 66.6957 66.6952 125.1436 0.0000 0.0000 0.0000
# 4 0.0000 0.0000 0.0000 21.7876 0.0000 0.0000
# 5 0.0000 0.0000 0.0000 0.0000 21.7879 0.0000
# 6 0.0000 0.0000 0.0000 0.0000 0.0000 32.9175
#
#
#
# Elastic Compliance Matrix: (Units=1/GPa)
#
#
# Indices 1 2 3 4 5 6 
#
# 1 0.016946 -0.003362 -0.007239 0.000000 0.000000 0.000000
# 2 -0.003362 0.016946 -0.007239 0.000000 0.000000 0.000000
# 3 -0.007239 -0.007239 0.015707 0.000000 0.000000 0.000000
# 4 0.000000 0.000000 0.000000 0.045898 0.000000 0.000000
# 5 0.000000 0.000000 0.000000 0.000000 0.045897 0.000000
# 6 0.000000 0.000000 0.000000 0.000000 0.000000 0.030379
#
#
# Mechanical properties :
#
#
# Convention : Reuss Voigt Hill
#
# Bulk Modulus (GPa) = 71.85528 75.70500 73.78014
# Shear Modulus (GPa) = 23.57454 24.49660 24.03557
#
# Velocity S-wave (km/s) = 3.60809 3.67798 3.64320
# Velocity P-wave (km/s) = 7.55233 7.73579 7.64461
#
# Compressibility (1/GPa) = 0.01391686
#
# Stress axis : x y z
#
# Youngs Moduli (GPa) = 59.01163 59.01181 63.66488
#
# Poissons Ratio (x) = 0.19842 0.46089
# Poissons Ratio (y) = 0.19842 0.46089
# Poissons Ratio (z) = 0.42721 0.42720
#
# Static dielectric constant tensor:
#      x y z
#    x 3.650640 0.000000 0.000000 
#    y 0.000000 3.650640 0.000000 
#    z 0.000000 0.000000 2.984670 
# 
# 
# High freq. dielectric constant tensor:
#      x y z
#    x 1.723760 0.000000 0.000000 
#    y 0.000000 1.723760 0.000000 
#    z 0.000000 0.000000 1.646740 
# 
# From -- ./inp_files/6081.got.cif
#   From: 2010.03.12/outbox.cif.g09.slc.cpg/sg134_4_cif.got.tgz:6081.got - 2010.04.06 18:17:22.
