data_PCOD8317805
_publ_section_title
;
Structure prediction by ZEFSAII (Michael W. Deem and Ramdas Pophale) SiO2 
 PCOD8317805
Probable space group: P 42/M N M
;
_chemical_formula_sum "Si O2"
_cell_formula_units_Z 88
_cell_length_a 21.096750
_cell_length_b 21.096750
_cell_length_c 13.473477
_cell_angle_alpha 90.000000
_cell_angle_beta 90.000000
_cell_angle_gamma 90.000000
_cell_volume 5996.678950
_symmetry_space_group_name_H-M "P 42/M N M"
_symmetry_group_IT_number 136
_symmetry_cell_setting 'tetragonal'
loop_
_space_group_symop_operation_xyz
x,y,z
1/2-y,1/2+x,1/2+z
-x,-y,z
1/2+y,1/2-x,1/2+z
1/2+x,1/2-y,1/2-z
1/2-x,1/2+y,1/2-z
y,x,-z
-y,-x,-z
-x,-y,-z
1/2+y,1/2-x,1/2-z
x,y,-z
1/2-y,1/2+x,1/2-z
1/2-x,1/2+y,1/2+z
1/2+x,1/2-y,1/2+z
-y,-x,z
y,x,z
loop_
_atom_site_type_symbol
_atom_site_label
_atom_site_fract_x
_atom_site_fract_y
_atom_site_fract_z
Si Si1 0.744267 0.640111 0.611001
Si Si2 0.480884 0.314867 0.302441
Si Si3 0.406845 0.301209 0.112155
Si Si4 0.552890 0.552890 0.388565
Si Si5 0.280129 0.614370 0.616050
Si Si6 0.708336 0.186914 0.694603
O O1 0.772256 0.646484 0.500000
O O2 0.678724 0.678724 0.623342
O O3 0.728168 0.567489 0.634406
O O4 0.795839 0.667552 0.688741
O O5 0.466418 0.308833 0.185173
O O6 0.476003 0.387600 0.332420
O O7 0.551275 0.290928 0.321461
O O8 0.357049 0.357049 0.135367
O O9 0.373007 0.233426 0.131352
O O10 0.432167 0.304126 0.000000
O O11 0.500000 0.500000 0.391771
O O12 0.572877 0.572877 0.500000
O O13 0.276050 0.598415 0.500000
O O14 0.337365 0.662636 0.637945
O O15 0.212168 0.641399 0.653571
O O16 0.756341 0.243660 0.677151
#
# Coordination Sequence:
#
# PCOD8317805 Si02
#       6
#    16  16  16   8  16  16
#     4   9  15  25  43  63  83 106 137 179 219 249
#     4  11  18  28  41  63  86 112 145 180 209 248
#     4   9  16  29  48  63  77 102 143 190 225 248
#     4  11  20  28  39  57  85 119 150 176 203 238
#     4  10  19  29  41  59  87 118 142 169 212 260
#     4   8  15  27  42  62  81 105 140 176 214 257
#
# _framework density 14.674789000000001
#
# number of rings (size 3 to 8) (size 9 to 14) (size 15 to 20)
#    0.000    2.455    1.818    3.818    0.000    3.636 
#    0.000    0.909    0.000    3.818    0.000    0.000 
#    0.000   11.636    0.000   42.182    0.000    0.727 
#
# Total GULP energy -1090931.402238 kJ/mol
# GULP energy per Si atom -12396.947753 kJ/mol
# Density = 1.464139 g / cm^3
# Si number density = 14.674789 Si / 1000 Ang^3
#
#
#
# Elastic Constant Matrix: (Units=GPa)
#
#
# Indices 1 2 3 4 5 6 
#
# 1 57.0129 43.7721 42.2421 0.0000 0.0000 0.0000
# 2 43.7721 57.0129 42.2421 0.0000 0.0000 0.0000
# 3 42.2421 42.2421 127.2522 0.0000 0.0000 0.0000
# 4 0.0000 0.0000 0.0000 19.2705 0.0000 0.0000
# 5 0.0000 0.0000 0.0000 0.0000 19.2705 0.0000
# 6 0.0000 0.0000 0.0000 0.0000 0.0000 16.1163
#
#
#
# Elastic Compliance Matrix: (Units=1/GPa)
#
#
# Indices 1 2 3 4 5 6 
#
# 1 0.044636 -0.030888 -0.004564 0.000000 0.000000 0.000000
# 2 -0.030888 0.044636 -0.004564 0.000000 0.000000 0.000000
# 3 -0.004564 -0.004564 0.010888 0.000000 0.000000 0.000000
# 4 0.000000 0.000000 0.000000 0.051893 0.000000 0.000000
# 5 0.000000 0.000000 0.000000 0.000000 0.051893 0.000000
# 6 0.000000 0.000000 0.000000 0.000000 0.000000 0.062049
#
#
# Mechanical properties :
#
#
# Convention : Reuss Voigt Hill
#
# Bulk Modulus (GPa) = 49.67947 55.31008 52.49478
# Shear Modulus (GPa) = 14.17495 18.46625 16.32060
#
# Velocity S-wave (km/s) = 3.11133 3.55119 3.33851
# Velocity P-wave (km/s) = 6.84356 7.38830 7.12114
#
# Compressibility (1/GPa) = 0.02012904
#
# Stress axis : x y z
#
# Youngs Moduli (GPa) = 22.40351 22.40351 91.84232
#
# Poissons Ratio (x) = 0.69201 0.41913
# Poissons Ratio (y) = 0.69201 0.41913
# Poissons Ratio (z) = 0.10224 0.10224
#
# Static dielectric constant tensor:
#      x y z
#    x 2.689140 0.000000 0.000000 
#    y 0.000000 2.689140 0.000000 
#    z 0.000000 0.000000 3.015630 
# 
# 
# High freq. dielectric constant tensor:
#      x y z
#    x 1.532270 0.000000 0.000000 
#    y 0.000000 1.532270 0.000000 
#    z 0.000000 0.000000 1.573300 
# 
# From -- ./inp_files/5048.got.cif
#   From: 2010.03.12/outbox.cif.g09.slc.cpg/sg136_3_cif.got.tgz:5048.got - 2010.04.06 18:39:43.
