data_PCOD8317923
_publ_section_title
;
Structure prediction by ZEFSAII (Michael W. Deem and Ramdas Pophale) SiO2 
 PCOD8317923
Probable space group: P 42/M N M
;
_chemical_formula_sum "Si O2"
_cell_formula_units_Z 88
_cell_length_a 19.344975
_cell_length_b 19.344975
_cell_length_c 13.398163
_cell_angle_alpha 90.000000
_cell_angle_beta 90.000000
_cell_angle_gamma 90.000000
_cell_volume 5013.968517
_symmetry_space_group_name_H-M "P 42/M N M"
_symmetry_group_IT_number 136
_symmetry_cell_setting 'tetragonal'
loop_
_space_group_symop_operation_xyz
x,y,z
1/2-y,1/2+x,1/2+z
-x,-y,z
1/2+y,1/2-x,1/2+z
1/2+x,1/2-y,1/2-z
1/2-x,1/2+y,1/2-z
y,x,-z
-y,-x,-z
-x,-y,-z
1/2+y,1/2-x,1/2-z
x,y,-z
1/2-y,1/2+x,1/2-z
1/2-x,1/2+y,1/2+z
1/2+x,1/2-y,1/2+z
-y,-x,z
y,x,z
loop_
_atom_site_type_symbol
_atom_site_label
_atom_site_fract_x
_atom_site_fract_y
_atom_site_fract_z
Si Si1 0.557991 0.442010 0.886095
Si Si2 0.739478 0.992774 0.883226
Si Si3 0.835535 0.727690 0.881952
Si Si4 0.581378 0.787267 0.884334
Si Si5 0.986030 0.386278 0.755896
Si Si6 0.041598 0.844235 0.721566
O O1 0.500000 0.500000 0.893781
O O2 0.528578 0.376796 0.823893
O O3 0.579323 0.420678 0.000000
O O4 0.745192 0.913107 0.852023
O O5 0.661633 0.017762 0.855242
O O6 0.800469 0.030366 0.822714
O O7 0.751539 0.006268 0.000000
O O8 0.786998 0.786998 0.835480
O O9 0.811830 0.654242 0.837400
O O10 0.826902 0.724888 0.000000
O O11 0.520977 0.833616 0.836408
O O12 0.571821 0.706311 0.863016
O O13 0.578052 0.801879 0.000000
O O14 0.923979 0.440957 0.756774
O O15 0.096231 0.903770 0.747524
#
# Coordination Sequence:
#
# PCOD8317923 Si02
#       6
#     8  16  16  16  16  16
#     4   9  18  34  55  81 113 143 174 218 271 318
#     4  10  21  36  53  76 108 143 181 222 267 320
#     4   9  17  30  50  74 100 132 171 218 263 300
#     4  10  19  33  54  81 105 132 176 222 264 314
#     4  10  20  34  53  78 108 140 173 215 269 326
#     4  10  21  35  54  80 107 141 181 220 265 320
#
# _framework density 17.550968000000001
#
# number of rings (size 3 to 8) (size 9 to 14) (size 15 to 20)
#    0.000    2.273    1.818    1.091    1.273    2.909 
#    0.000    1.818    0.000    1.636    0.000    0.000 
#    0.000    0.000    0.000    0.000    0.000    0.000 
#
# Total GULP energy -1090978.711549 kJ/mol
# GULP energy per Si atom -12397.485359 kJ/mol
# Density = 1.751102 g / cm^3
# Si number density = 17.550968 Si / 1000 Ang^3
#
#
#
# Elastic Constant Matrix: (Units=GPa)
#
#
# Indices 1 2 3 4 5 6 
#
# 1 95.3925 39.6647 38.2623 0.0000 0.0000 0.0000
# 2 39.6647 95.3925 38.2623 0.0000 0.0000 0.0000
# 3 38.2623 38.2623 82.8226 0.0000 0.0000 0.0000
# 4 0.0000 0.0000 0.0000 19.2637 0.0000 0.0000
# 5 0.0000 0.0000 0.0000 0.0000 19.2637 0.0000
# 6 0.0000 0.0000 0.0000 0.0000 0.0000 31.2881
#
#
#
# Elastic Compliance Matrix: (Units=1/GPa)
#
#
# Indices 1 2 3 4 5 6 
#
# 1 0.013987 -0.003957 -0.004633 0.000000 0.000000 0.000000
# 2 -0.003957 0.013987 -0.004633 0.000000 0.000000 0.000000
# 3 -0.004633 -0.004633 0.016355 0.000000 0.000000 0.000000
# 4 0.000000 0.000000 0.000000 0.051911 0.000000 0.000000
# 5 0.000000 0.000000 0.000000 0.000000 0.051911 0.000000
# 6 0.000000 0.000000 0.000000 0.000000 0.000000 0.031961
#
#
# Mechanical properties :
#
#
# Convention : Reuss Voigt Hill
#
# Bulk Modulus (GPa) = 55.92685 56.22067 56.07376
# Shear Modulus (GPa) = 23.52707 24.45766 23.99236
#
# Velocity S-wave (km/s) = 3.66526 3.73704 3.70132
# Velocity P-wave (km/s) = 7.06022 7.12201 7.09118
#
# Compressibility (1/GPa) = 0.01788050
#
# Stress axis : x y z
#
# Youngs Moduli (GPa) = 71.49497 71.49501 61.14290
#
# Poissons Ratio (x) = 0.28293 0.28330
# Poissons Ratio (y) = 0.28293 0.28330
# Poissons Ratio (z) = 0.33127 0.33127
#
# Static dielectric constant tensor:
#      x y z
#    x 3.379120 0.000000 0.000000 
#    y 0.000000 3.379120 0.000000 
#    z 0.000000 0.000000 3.030490 
# 
# 
# High freq. dielectric constant tensor:
#      x y z
#    x 1.684260 0.000000 0.000000 
#    y 0.000000 1.684260 0.000000 
#    z 0.000000 0.000000 1.656970 
# 
# From -- ./inp_files/5043.got.cif
#   From: 2010.03.12/outbox.cif.g09.slc.cpg/sg136_3_cif.got.tgz:5043.got - 2010.04.06 18:39:43.
