data_PCOD8317561
_publ_section_title
;
Structure prediction by ZEFSAII (Michael W. Deem and Ramdas Pophale) SiO2 
 PCOD8317561
Probable space group: P 42/M B C
;
_chemical_formula_sum "Si O2"
_cell_formula_units_Z 112
_cell_length_a 14.714873
_cell_length_b 14.714873
_cell_length_c 25.475307
_cell_angle_alpha 90.000000
_cell_angle_beta 90.000000
_cell_angle_gamma 90.000000
_cell_volume 5516.104216
_symmetry_space_group_name_H-M "P 42/M B C"
_symmetry_group_IT_number 135
_symmetry_cell_setting 'tetragonal'
loop_
_space_group_symop_operation_xyz
x,y,z
-y,x,1/2+z
-x,-y,z
y,-x,1/2+z
1/2+x,1/2-y,-z
1/2-x,1/2+y,-z
1/2+y,1/2+x,1/2-z
1/2-y,1/2-x,1/2-z
-x,-y,-z
y,-x,1/2-z
x,y,-z
-y,x,1/2-z
1/2-x,1/2+y,z
1/2+x,1/2-y,z
1/2-y,1/2-x,1/2+z
1/2+y,1/2+x,1/2+z
loop_
_atom_site_type_symbol
_atom_site_label
_atom_site_fract_x
_atom_site_fract_y
_atom_site_fract_z
Si Si1 0.343589 0.617702 0.793092
Si Si2 0.174103 0.503778 0.939517
Si Si3 0.689075 0.556445 0.860549
Si Si4 0.897467 0.315681 0.896666
Si Si5 0.278108 0.765676 0.135968
Si Si6 0.676538 0.453685 0.319696
Si Si7 0.418160 0.812702 0.943085
O O1 0.313806 0.523109 0.818290
O O2 0.278606 0.696536 0.815412
O O3 0.446202 0.644261 0.806823
O O4 0.330743 0.610780 0.731169
O O5 0.275432 0.480264 0.917188
O O6 0.129984 0.578556 0.900537
O O7 0.107037 0.418300 0.936350
O O8 0.184027 0.537583 0.000000
O O9 0.763997 0.632186 0.842375
O O10 0.590142 0.605931 0.862492
O O11 0.805579 0.257170 0.903706
O O12 0.945159 0.280315 0.841846
O O13 0.973410 0.298327 0.940925
O O14 0.369660 0.753762 0.102008
O O15 0.385332 0.778196 0.000000
#
# Coordination Sequence:
#
# PCOD8317561 Si02
#       7
#    16  16  16  16  16  16  16
#     4  12  21  44  64  91 126 174 218 272 334 391
#     4  10  21  40  65  91 128 175 213 263 332 397
#     4  10  22  39  62  95 125 166 217 268 320 391
#     4  11  21  38  59  99 123 160 213 270 317 387
#     4  10  23  40  62  92 130 165 216 277 318 390
#     4  11  24  38  67  94 122 171 222 268 324 396
#     4  10  21  39  63  92 126 168 216 262 322 394
#
# _framework density 20.304185
#
# number of rings (size 3 to 8) (size 9 to 14) (size 15 to 20)
#    0.000    1.429    4.286    1.286    0.000    4.571 
#    0.000    4.286    0.000    0.857    3.714    0.000 
#    0.000    0.000    0.000    0.000    0.000    0.000 
#
# Total GULP energy -1387505.572838 kJ/mol
# GULP energy per Si atom -12388.442615 kJ/mol
# Density = 2.025797 g / cm^3
# Si number density = 20.304185 Si / 1000 Ang^3
#
#
#
# Elastic Constant Matrix: (Units=GPa)
#
#
# Indices 1 2 3 4 5 6 
#
# 1 94.3841 16.9723 50.5309 0.0000 0.0000 0.0000
# 2 16.9723 94.3841 50.5309 0.0000 0.0000 0.0000
# 3 50.5309 50.5309 99.6261 0.0000 0.0000 0.0000
# 4 0.0000 0.0000 0.0000 31.3391 0.0000 0.0000
# 5 0.0000 0.0000 0.0000 0.0000 31.3391 0.0000
# 6 0.0000 0.0000 0.0000 0.0000 0.0000 22.9453
#
#
#
# Elastic Compliance Matrix: (Units=1/GPa)
#
#
# Indices 1 2 3 4 5 6 
#
# 1 0.014779 0.001861 -0.008440 0.000000 0.000000 0.000000
# 2 0.001861 0.014779 -0.008440 0.000000 0.000000 0.000000
# 3 -0.008440 -0.008440 0.018599 0.000000 0.000000 0.000000
# 4 0.000000 0.000000 0.000000 0.031909 0.000000 0.000000
# 5 0.000000 0.000000 0.000000 0.000000 0.031909 0.000000
# 6 0.000000 0.000000 0.000000 0.000000 0.000000 0.043582
#
#
# Mechanical properties :
#
#
# Convention : Reuss Voigt Hill
#
# Bulk Modulus (GPa) = 55.18975 58.27363 56.73169
# Shear Modulus (GPa) = 26.09147 28.48204 27.28675
#
# Velocity S-wave (km/s) = 3.58862 3.74942 3.66990
# Velocity P-wave (km/s) = 6.66419 6.89252 6.77931
#
# Compressibility (1/GPa) = 0.01811931
#
# Stress axis : x y z
#
# Youngs Moduli (GPa) = 67.66443 67.66443 53.76657
#
# Poissons Ratio (x) = -0.12592 0.45378
# Poissons Ratio (y) = -0.12592 0.45378
# Poissons Ratio (z) = 0.57107 0.57107
#
# Static dielectric constant tensor:
#      x y z
#    x 3.821070 0.000000 0.000000 
#    y 0.000000 3.821070 0.000000 
#    z 0.000000 0.000000 3.677470 
# 
# 
# High freq. dielectric constant tensor:
#      x y z
#    x 1.796460 0.000000 0.000000 
#    y 0.000000 1.796460 0.000000 
#    z 0.000000 0.000000 1.773840 
# 
# From -- ./inp_files/6112.got.cif
#   From: 2010.03.12/outbox.cif.g09.slc.cpg/sg135_4_cif.got.tgz:6112.got - 2010.04.06 18:31:24.
