data_PCOD8317877
_publ_section_title
;
Structure prediction by ZEFSAII (Michael W. Deem and Ramdas Pophale) SiO2 
 PCOD8317877
Probable space group: P 42/M N M
;
_chemical_formula_sum "Si O2"
_cell_formula_units_Z 96
_cell_length_a 25.401563
_cell_length_b 25.401563
_cell_length_c 8.743589
_cell_angle_alpha 90.000000
_cell_angle_beta 90.000000
_cell_angle_gamma 90.000000
_cell_volume 5641.708145
_symmetry_space_group_name_H-M "P 42/M N M"
_symmetry_group_IT_number 136
_symmetry_cell_setting 'tetragonal'
loop_
_space_group_symop_operation_xyz
x,y,z
1/2-y,1/2+x,1/2+z
-x,-y,z
1/2+y,1/2-x,1/2+z
1/2+x,1/2-y,1/2-z
1/2-x,1/2+y,1/2-z
y,x,-z
-y,-x,-z
-x,-y,-z
1/2+y,1/2-x,1/2-z
x,y,-z
1/2-y,1/2+x,1/2-z
1/2-x,1/2+y,1/2+z
1/2+x,1/2-y,1/2+z
-y,-x,z
y,x,z
loop_
_atom_site_type_symbol
_atom_site_label
_atom_site_fract_x
_atom_site_fract_y
_atom_site_fract_z
Si Si1 0.805721 0.386993 0.817029
Si Si2 0.806391 0.106409 0.822663
Si Si3 0.113017 0.694268 0.317030
Si Si4 0.999992 0.186204 0.669488
Si Si5 0.500004 0.811001 0.167380
Si Si6 0.306404 0.606397 0.677343
O O1 0.842102 0.342109 0.750018
O O2 0.826338 0.444400 0.752296
O O3 0.746361 0.376431 0.764782
O O4 0.807264 0.386659 0.000000
O O5 0.848167 0.151834 0.793215
O O6 0.753630 0.123578 0.735193
O O7 0.831490 0.052233 0.759804
O O8 0.792826 0.099106 0.000000
O O9 0.113358 0.692713 0.500000
O O10 0.055607 0.673656 0.252300
O O11 0.999989 0.160643 0.500000
O O12 0.052217 0.168506 0.759794
O O13 0.999993 0.248510 0.653805
O O14 0.500003 0.837117 0.000000
O O15 0.292850 0.599098 0.500000
O O16 0.348185 0.651816 0.706821
#
# Coordination Sequence:
#
# PCOD8317877 Si02
#       6
#    16  16  16  16  16  16
#     4  10  19  32  50  72  98 128 163 203 248 295
#     4  10  20  33  50  73 100 130 164 201 242 289
#     4  10  19  32  50  72  98 128 163 203 248 295
#     4   9  17  31  51  72  95 126 163 201 241 287
#     4   7  14  29  47  66  89 120 158 197 235 281
#     4  10  20  33  50  73 100 130 164 201 242 289
#
# _framework density 17.016121999999999
#
# number of rings (size 3 to 8) (size 9 to 14) (size 15 to 20)
#    0.000    2.667    0.000    4.500    0.000    3.333 
#    0.000    2.500    0.000    1.000    0.000    7.000 
#    0.000    0.000    0.000    0.000    0.000    0.000 
#
# Total GULP energy -1189467.445689 kJ/mol
# GULP energy per Si atom -12390.285893 kJ/mol
# Density = 1.697739 g / cm^3
# Si number density = 17.016122 Si / 1000 Ang^3
#
#
#
# Elastic Constant Matrix: (Units=GPa)
#
#
# Indices 1 2 3 4 5 6 
#
# 1 96.7634 58.0214 48.5570 0.0000 0.0000 0.0000
# 2 58.0214 96.7634 48.5570 0.0000 0.0000 0.0000
# 3 48.5570 48.5570 92.9878 0.0000 0.0000 0.0000
# 4 0.0000 0.0000 0.0000 24.2581 0.0000 0.0000
# 5 0.0000 0.0000 0.0000 0.0000 24.2581 0.0000
# 6 0.0000 0.0000 0.0000 0.0000 0.0000 -4.6329
#
#
#
# Elastic Compliance Matrix: (Units=1/GPa)
#
#
# Indices 1 2 3 4 5 6 
#
# 1 0.017710 -0.008102 -0.005018 0.000000 0.000000 0.000000
# 2 -0.008102 0.017710 -0.005018 0.000000 0.000000 0.000000
# 3 -0.005018 -0.005018 0.015994 0.000000 0.000000 0.000000
# 4 0.000000 0.000000 0.000000 0.041223 0.000000 0.000000
# 5 0.000000 0.000000 0.000000 0.000000 0.041223 0.000000
# 6 0.000000 0.000000 0.000000 0.000000 0.000000 -0.215848
#
#
# Mechanical properties :
#
#
# Convention : Reuss Voigt Hill
#
# Bulk Modulus (GPa) = 66.04365 66.30950 66.17657
# Shear Modulus (GPa) = -122.95043 17.53528 -52.70758
#
# Velocity S-wave (km/s) = -8.50953 3.21364 -5.57156
# Velocity P-wave (km/s) = 7.59295 7.26796 1.55397
#
# Compressibility (1/GPa) = 0.01514150
#
# Stress axis : x y z
#
# Youngs Moduli (GPa) = 56.46471 56.46471 62.52245
#
# Poissons Ratio (x) = 0.45745 0.31371
# Poissons Ratio (y) = 0.45745 0.31371
# Poissons Ratio (z) = 0.28331 0.28331
#
# Static dielectric constant tensor:
#      x y z
#    x 3.263430 0.000000 0.000000 
#    y 0.000000 3.263430 0.000000 
#    z 0.000000 0.000000 3.281030 
# 
# 
# High freq. dielectric constant tensor:
#      x y z
#    x 1.643050 0.000000 0.000000 
#    y 0.000000 1.643050 0.000000 
#    z 0.000000 0.000000 1.660210 
# 
# From -- ./inp_files/1959.got.cif
#   From: 2010.03.12/outbox.cif.g09.slc.cpg/sg136_1_cif.got.tgz:1959.got - 2010.04.06 18:39:43.
