data_PCOD8317486
_publ_section_title
;
Structure prediction by ZEFSAII (Michael W. Deem and Ramdas Pophale) SiO2 
 PCOD8317486
Probable space group: P 42/M B C
;
_chemical_formula_sum "Si O2"
_cell_formula_units_Z 48
_cell_length_a 16.746551
_cell_length_b 16.746551
_cell_length_c 8.693225
_cell_angle_alpha 90.000000
_cell_angle_beta 90.000000
_cell_angle_gamma 90.000000
_cell_volume 2437.988614
_symmetry_space_group_name_H-M "P 42/M B C"
_symmetry_group_IT_number 135
_symmetry_cell_setting 'tetragonal'
loop_
_space_group_symop_operation_xyz
x,y,z
-y,x,1/2+z
-x,-y,z
y,-x,1/2+z
1/2+x,1/2-y,-z
1/2-x,1/2+y,-z
1/2+y,1/2+x,1/2-z
1/2-y,1/2-x,1/2-z
-x,-y,-z
y,-x,1/2-z
x,y,-z
-y,x,1/2-z
1/2-x,1/2+y,z
1/2+x,1/2-y,z
1/2-y,1/2-x,1/2+z
1/2+y,1/2+x,1/2+z
loop_
_atom_site_type_symbol
_atom_site_label
_atom_site_fract_x
_atom_site_fract_y
_atom_site_fract_z
Si Si1 0.992525 0.615232 0.177753
Si Si2 0.601264 0.435855 0.181937
Si Si3 0.240871 0.616817 0.319511
O O1 0.055023 0.555023 0.250000
O O2 0.027931 0.703407 0.209592
O O3 0.904358 0.595643 0.250000
O O4 0.985886 0.597787 0.000000
O O5 0.520506 0.391458 0.231945
O O6 0.674779 0.380415 0.233005
O O7 0.601081 0.449162 0.000000
O O8 0.185869 0.685869 0.250000
O O9 0.251935 0.633010 0.500000
#
# Coordination Sequence:
#
# PCOD8317486 Si02
#       3
#    16  16  16
#     4   9  16  26  44  69 102 140 179 218 260 315
#     4  11  22  39  62  85 110 144 186 232 278 332
#     4  10  20  35  55  83 115 148 185 229 281 334
#
# _framework density 19.688361
#
# number of rings (size 3 to 8) (size 9 to 14) (size 15 to 20)
#    0.000    2.000    0.000    7.000    0.000    4.000 
#    0.000    1.667    0.000    4.000    0.000    0.000 
#    0.000    0.000    0.000    0.000    0.000    0.000 
#
# Total GULP energy -594864.211679 kJ/mol
# GULP energy per Si atom -12393.004410 kJ/mol
# Density = 1.964355 g / cm^3
# Si number density = 19.688361 Si / 1000 Ang^3
#
#
#
# Elastic Constant Matrix: (Units=GPa)
#
#
# Indices 1 2 3 4 5 6 
#
# 1 77.9395 36.5857 32.5961 0.0000 0.0000 0.0000
# 2 36.5857 77.9385 32.5969 0.0000 0.0000 0.0000
# 3 32.5961 32.5969 125.5580 0.0000 0.0000 0.0000
# 4 0.0000 0.0000 0.0000 31.3823 0.0000 0.0000
# 5 0.0000 0.0000 0.0000 0.0000 31.3828 0.0000
# 6 0.0000 0.0000 0.0000 0.0000 0.0000 17.6501
#
#
#
# Elastic Compliance Matrix: (Units=1/GPa)
#
#
# Indices 1 2 3 4 5 6 
#
# 1 0.017214 -0.006968 -0.002660 0.000000 0.000000 0.000000
# 2 -0.006968 0.017214 -0.002660 0.000000 0.000000 0.000000
# 3 -0.002660 -0.002660 0.009346 0.000000 0.000000 0.000000
# 4 0.000000 0.000000 0.000000 0.031865 0.000000 0.000000
# 5 0.000000 0.000000 0.000000 0.000000 0.031865 0.000000
# 6 0.000000 0.000000 0.000000 0.000000 0.000000 0.056657
#
#
# Mechanical properties :
#
#
# Convention : Reuss Voigt Hill
#
# Bulk Modulus (GPa) = 52.09005 53.88815 52.98910
# Shear Modulus (GPa) = 25.62328 28.06019 26.84174
#
# Velocity S-wave (km/s) = 3.61147 3.77930 3.69634
# Velocity P-wave (km/s) = 6.62608 6.81719 6.72232
#
# Compressibility (1/GPa) = 0.01919753
#
# Stress axis : x y z
#
# Youngs Moduli (GPa) = 58.09320 58.09205 107.00247
#
# Poissons Ratio (x) = 0.40478 0.28461
# Poissons Ratio (y) = 0.40479 0.28464
# Poissons Ratio (z) = 0.15452 0.15453
#
# Static dielectric constant tensor:
#      x y z
#    x 3.882180 0.000000 0.000000 
#    y 0.000000 3.882190 0.000000 
#    z 0.000000 0.000000 3.721840 
# 
# 
# High freq. dielectric constant tensor:
#      x y z
#    x 1.750200 0.000000 0.000000 
#    y 0.000000 1.750200 0.000000 
#    z 0.000000 0.000000 1.788180 
# 
# From -- ./inp_files/577.got.cif
#   From: 2010.03.12/outbox.cif.g09.slc.cpg/sg135_1_cif.got.tgz:577.got - 2010.04.06 18:31:24.
