data_PCOD8317511
_publ_section_title
;
Structure prediction by ZEFSAII (Michael W. Deem and Ramdas Pophale) SiO2 
 PCOD8317511
Probable space group: P 42/M B C
;
_chemical_formula_sum "Si O2"
_cell_formula_units_Z 96
_cell_length_a 23.892544
_cell_length_b 23.892544
_cell_length_c 8.525689
_cell_angle_alpha 90.000000
_cell_angle_beta 90.000000
_cell_angle_gamma 90.000000
_cell_volume 4866.920759
_symmetry_space_group_name_H-M "P 42/M B C"
_symmetry_group_IT_number 135
_symmetry_cell_setting 'tetragonal'
loop_
_space_group_symop_operation_xyz
x,y,z
-y,x,1/2+z
-x,-y,z
y,-x,1/2+z
1/2+x,1/2-y,-z
1/2-x,1/2+y,-z
1/2+y,1/2+x,1/2-z
1/2-y,1/2-x,1/2-z
-x,-y,-z
y,-x,1/2-z
x,y,-z
-y,x,1/2-z
1/2-x,1/2+y,z
1/2+x,1/2-y,z
1/2-y,1/2-x,1/2+z
1/2+y,1/2+x,1/2+z
loop_
_atom_site_type_symbol
_atom_site_label
_atom_site_fract_x
_atom_site_fract_y
_atom_site_fract_z
Si Si1 0.737092 0.570761 0.685435
Si Si2 0.631634 0.358303 0.685160
Si Si3 0.936464 0.350728 0.815707
Si Si4 0.444141 0.857627 0.684897
Si Si5 0.933785 0.046503 0.679245
Si Si6 0.445206 0.276550 0.816755
O O1 0.730478 0.573960 0.500000
O O2 0.706600 0.625800 0.762741
O O3 0.801748 0.576855 0.729618
O O4 0.715423 0.508989 0.747652
O O5 0.630481 0.362883 0.500000
O O6 0.574252 0.376733 0.768979
O O7 0.681688 0.397302 0.755375
O O8 0.883591 0.383591 0.750000
O O9 0.924299 0.285750 0.778979
O O10 0.991596 0.371037 0.725726
O O11 0.944802 0.360883 0.000000
O O12 0.409003 0.909003 0.750000
O O13 0.436594 0.851059 0.500000
O O14 0.949315 0.058411 0.500000
O O15 0.980513 0.072255 0.794235
O O16 0.447307 0.288210 0.000000
#
# Coordination Sequence:
#
# PCOD8317511 Si02
#       6
#    16  16  16  16  16  16
#     4  10  20  37  57  81 113 152 192 237 286 335
#     4  11  20  33  53  78 106 145 192 236 280 334
#     4  10  20  38  61  88 118 150 184 226 277 335
#     4  11  22  39  62  89 117 149 184 226 278 338
#     4  11  21  33  47  68  98 134 177 233 293 348
#     4   8  18  35  55  76 108 148 188 232 281 329
#
# _framework density 19.724996999999998
#
# number of rings (size 3 to 8) (size 9 to 14) (size 15 to 20)
#    0.000    1.833    0.000    7.000    0.000    1.667 
#    0.000   11.667    0.000    2.000    0.000    0.000 
#    0.000    0.000    0.000    0.000    0.000    0.000 
#
# Total GULP energy -1189729.475440 kJ/mol
# GULP energy per Si atom -12393.015369 kJ/mol
# Density = 1.968010 g / cm^3
# Si number density = 19.724997 Si / 1000 Ang^3
#
#
#
# Elastic Constant Matrix: (Units=GPa)
#
#
# Indices 1 2 3 4 5 6 
#
# 1 13.2115 111.2296 26.0741 0.0000 0.0000 0.0000
# 2 111.2296 13.2115 26.0741 0.0000 0.0000 0.0000
# 3 26.0741 26.0741 84.6330 0.0000 0.0000 0.0000
# 4 0.0000 0.0000 0.0000 30.1906 0.0000 0.0000
# 5 0.0000 0.0000 0.0000 0.0000 30.1906 0.0000
# 6 0.0000 0.0000 0.0000 0.0000 0.0000 41.7591
#
#
#
# Elastic Compliance Matrix: (Units=1/GPa)
#
#
# Indices 1 2 3 4 5 6 
#
# 1 -0.000487 0.009715 -0.002843 0.000000 0.000000 0.000000
# 2 0.009715 -0.000487 -0.002843 0.000000 0.000000 0.000000
# 3 -0.002843 -0.002843 0.013567 0.000000 0.000000 0.000000
# 4 0.000000 0.000000 0.000000 0.033123 0.000000 0.000000
# 5 0.000000 0.000000 0.000000 0.000000 0.033123 0.000000
# 6 0.000000 0.000000 0.000000 0.000000 0.000000 0.023947
#
#
# Mechanical properties :
#
#
# Convention : Reuss Voigt Hill
#
# Bulk Modulus (GPa) = 48.42445 48.64574 48.53509
# Shear Modulus (GPa) = 49.20762 16.93994 33.07378
#
# Velocity S-wave (km/s) = 5.00010 2.93372 4.09925
# Velocity P-wave (km/s) = 7.61168 6.01591 6.86035
#
# Compressibility (1/GPa) = 0.02065073
#
# Stress axis : x y z
#
# Youngs Moduli (GPa) = -2051.29989 -2051.29989 73.70643
#
# Poissons Ratio (x) = 19.92779 0.20953
# Poissons Ratio (y) = 19.92779 0.20953
# Poissons Ratio (z) = -5.83135 -5.83135
#
# Static dielectric constant tensor:
#      x y z
#    x 3.713440 0.000000 0.000000 
#    y 0.000000 3.713440 0.000000 
#    z 0.000000 0.000000 3.481340 
# 
# 
# High freq. dielectric constant tensor:
#      x y z
#    x 1.763900 0.000000 0.000000 
#    y 0.000000 1.763900 0.000000 
#    z 0.000000 0.000000 1.765230 
# 
# From -- ./inp_files/1243.got.cif
#   From: 2010.03.12/outbox.cif.g09.slc.cpg/sg135_1_cif.got.tgz:1243.got - 2010.04.06 18:31:24.
