data_PCOD8317025
_publ_section_title
;
Structure prediction by ZEFSAII (Michael W. Deem and Ramdas Pophale) SiO2 
 PCOD8317025
Probable space group: P 42/N B C
;
_chemical_formula_sum "Si O2"
_cell_formula_units_Z 48
_cell_length_a 18.991114
_cell_length_b 18.991114
_cell_length_c 7.297810
_cell_angle_alpha 90.000000
_cell_angle_beta 90.000000
_cell_angle_gamma 90.000000
_cell_volume 2632.045749
_symmetry_space_group_name_H-M "P 42/N B C"
_symmetry_group_IT_number 133
_space_group.IT_coordinate_system_code '2'
_symmetry_cell_setting 'tetragonal'
loop_
_space_group_symop_operation_xyz
x,y,z
1/2-y,x,1/2+z
1/2-x,1/2-y,z
y,1/2-x,1/2+z
x,1/2-y,-z
1/2-x,y,-z
y,x,1/2-z
1/2-y,1/2-x,1/2-z
-x,-y,-z
1/2+y,-x,1/2-z
1/2+x,1/2+y,-z
-y,1/2+x,1/2-z
-x,1/2+y,z
1/2+x,-y,z
-y,-x,1/2+z
1/2+y,1/2+x,1/2+z
loop_
_atom_site_type_symbol
_atom_site_label
_atom_site_fract_x
_atom_site_fract_y
_atom_site_fract_z
Si Si1 0.639423 0.234663 0.293873
Si Si2 0.468632 0.750000 0.000000
Si Si3 0.026883 0.473118 0.250000
Si Si4 0.529627 0.893237 0.110407
O O1 0.613274 0.250000 0.500000
O O2 0.672507 0.303814 0.198518
O O3 0.575501 0.212659 0.162385
O O4 0.513133 0.810678 0.100729
O O5 0.080000 0.451277 0.408661
O O6 0.034584 0.555907 0.184956
O O7 0.595812 0.904189 0.250000
#
# Coordination Sequence:
#
# PCOD8317025 Si02
#       4
#    16   8   8  16
#     4  11  21  34  46  71 119 159 191 229 272 337
#     4  12  24  31  60  86 105 158 200 234 294 354
#     4   8  18  38  60  70 117 153 180 240 290 328
#     4   9  20  36  55  80 110 146 194 238 282 339
#
# _framework density 18.236764000000001
#
# number of rings (size 3 to 8) (size 9 to 14) (size 15 to 20)
#    1.000    1.000    3.333    1.000    4.667    2.667 
#    0.000    0.000    0.000    0.000    0.000    3.500 
#    0.000    0.000    0.000    0.000    0.000    0.000 
#
# Total GULP energy -594708.705524 kJ/mol
# GULP energy per Si atom -12389.764698 kJ/mol
# Density = 1.819526 g / cm^3
# Si number density = 18.236764 Si / 1000 Ang^3
#
#
#
# Elastic Constant Matrix: (Units=GPa)
#
#
# Indices 1 2 3 4 5 6 
#
# 1 67.8097 33.8740 24.6758 0.0000 0.0000 0.0000
# 2 33.8740 67.8108 24.6765 0.0000 0.0000 0.0000
# 3 24.6758 24.6765 135.9614 0.0000 0.0000 0.0000
# 4 0.0000 0.0000 0.0000 15.3409 0.0000 0.0000
# 5 0.0000 0.0000 0.0000 0.0000 15.3405 0.0000
# 6 0.0000 0.0000 0.0000 0.0000 0.0000 9.1965
#
#
#
# Elastic Compliance Matrix: (Units=1/GPa)
#
#
# Indices 1 2 3 4 5 6 
#
# 1 0.020126 -0.009341 -0.001957 0.000000 0.000000 0.000000
# 2 -0.009341 0.020126 -0.001957 0.000000 0.000000 0.000000
# 3 -0.001957 -0.001957 0.008065 0.000000 0.000000 0.000000
# 4 0.000000 0.000000 0.000000 0.065185 0.000000 0.000000
# 5 0.000000 0.000000 0.000000 0.000000 0.065187 0.000000
# 6 0.000000 0.000000 0.000000 0.000000 0.000000 0.108737
#
#
# Mechanical properties :
#
#
# Convention : Reuss Voigt Hill
#
# Bulk Modulus (GPa) = 45.86103 48.67050 47.26577
# Shear Modulus (GPa) = 15.56634 20.53263 18.04949
#
# Velocity S-wave (km/s) = 2.92476 3.35907 3.14941
# Velocity P-wave (km/s) = 6.05044 6.46456 6.26092
#
# Compressibility (1/GPa) = 0.02180501
#
# Stress axis : x y z
#
# Youngs Moduli (GPa) = 49.68745 49.68815 123.98490
#
# Poissons Ratio (x) = 0.46415 0.24267
# Poissons Ratio (y) = 0.46415 0.24268
# Poissons Ratio (z) = 0.09725 0.09726
#
# Static dielectric constant tensor:
#      x y z
#    x 2.919500 0.000000 0.000000 
#    y 0.000000 2.919490 0.000000 
#    z 0.000000 0.000000 3.588990 
# 
# 
# High freq. dielectric constant tensor:
#      x y z
#    x 1.657390 0.000000 0.000000 
#    y 0.000000 1.657390 0.000000 
#    z 0.000000 0.000000 1.737660 
# 
# From -- ./inp_files/1114.got.cif
#   From: 2010.03.12/outbox.cif.g09.slc.cpg/sg133_1_cif.got.tgz:1114.got - 2010.04.06 18:08:06.
