data_PCOD8317288
_publ_section_title
;
Structure prediction by ZEFSAII (Michael W. Deem and Ramdas Pophale) SiO2 
 PCOD8317288
Probable space group: P 42/N N M
;
_chemical_formula_sum "Si O2"
_cell_formula_units_Z 72
_cell_length_a 16.623551
_cell_length_b 16.623551
_cell_length_c 12.447650
_cell_angle_alpha 90.000000
_cell_angle_beta 90.000000
_cell_angle_gamma 90.000000
_cell_volume 3439.814071
_symmetry_space_group_name_H-M "P 42/N N M"
_symmetry_group_IT_number 134
_space_group.IT_coordinate_system_code '2'
_symmetry_cell_setting 'tetragonal'
loop_
_space_group_symop_operation_xyz
x,y,z
1/2-y,x,1/2+z
1/2-x,1/2-y,z
y,1/2-x,1/2+z
x,1/2-y,1/2-z
1/2-x,y,1/2-z
y,x,-z
1/2-y,1/2-x,-z
-x,-y,-z
1/2+y,-x,1/2-z
1/2+x,1/2+y,-z
-y,1/2+x,1/2-z
-x,1/2+y,1/2+z
1/2+x,-y,1/2+z
-y,-x,z
1/2+y,1/2+x,z
loop_
_atom_site_type_symbol
_atom_site_label
_atom_site_fract_x
_atom_site_fract_y
_atom_site_fract_z
Si Si1 0.159448 0.122064 0.790014
Si Si2 0.250000 0.621451 0.750000
Si Si3 0.734132 0.979566 0.636845
Si Si4 0.470845 0.840300 0.572830
Si Si5 0.962859 0.912690 0.386621
O O1 0.250000 0.144710 0.750000
O O2 0.109003 0.199231 0.830829
O O3 0.112172 0.076369 0.694263
O O4 0.157403 0.063194 0.892040
O O5 0.174969 0.674969 0.787063
O O6 0.271068 0.569444 0.854651
O O7 0.750000 0.026798 0.750000
O O8 0.819957 0.971885 0.582251
O O9 0.679373 0.030250 0.554681
O O10 0.425019 0.925019 0.588377
O O11 0.951732 0.951732 0.500000
O O12 0.042086 0.957915 0.336315
#
# Coordination Sequence:
#
# PCOD8317288 Si02
#       5
#    16   8  16  16  16
#     4  11  22  40  63  94 132 169 217 266 329 395
#     4   9  20  38  62  94 127 166 222 282 341 398
#     4  10  24  40  57  88 128 169 208 259 324 393
#     4  11  22  39  66  96 129 170 220 281 339 391
#     4  10  22  39  60  86 119 163 215 266 321 386
#
# _framework density 20.931363999999999
#
# number of rings (size 3 to 8) (size 9 to 14) (size 15 to 20)
#    0.000    1.667    1.111    2.667    0.000   10.222 
#    0.000    1.111    0.000    0.000    0.000    4.667 
#    0.000    0.000    0.000    0.000    0.000    0.000 
#
# Total GULP energy -892000.699614 kJ/mol
# GULP energy per Si atom -12388.898606 kJ/mol
# Density = 2.088372 g / cm^3
# Si number density = 20.931364 Si / 1000 Ang^3
#
#
#
# Elastic Constant Matrix: (Units=GPa)
#
#
# Indices 1 2 3 4 5 6 
#
# 1 45.2169 107.5319 35.1809 0.0000 0.0000 0.0000
# 2 107.5319 45.2169 35.1809 0.0000 0.0000 0.0000
# 3 35.1809 35.1809 114.3733 0.0000 0.0000 0.0000
# 4 0.0000 0.0000 0.0000 32.3479 0.0000 0.0000
# 5 0.0000 0.0000 0.0000 0.0000 32.3479 0.0000
# 6 0.0000 0.0000 0.0000 0.0000 0.0000 24.1954
#
#
#
# Elastic Compliance Matrix: (Units=1/GPa)
#
#
# Indices 1 2 3 4 5 6 
#
# 1 -0.004210 0.011837 -0.002346 0.000000 0.000000 0.000000
# 2 0.011837 -0.004210 -0.002346 0.000000 0.000000 0.000000
# 3 -0.002346 -0.002346 0.010187 0.000000 0.000000 0.000000
# 4 0.000000 0.000000 0.000000 0.030914 0.000000 0.000000
# 5 0.000000 0.000000 0.000000 0.000000 0.030914 0.000000
# 6 0.000000 0.000000 0.000000 0.000000 0.000000 0.041330
#
#
# Mechanical properties :
#
#
# Convention : Reuss Voigt Hill
#
# Bulk Modulus (GPa) = 62.27883 62.28825 62.28354
# Shear Modulus (GPa) = 52.09063 19.57248 35.83156
#
# Velocity S-wave (km/s) = 4.99404 3.06122 4.14195
# Velocity P-wave (km/s) = 7.94181 6.50521 7.25913
#
# Compressibility (1/GPa) = 0.01605682
#
# Stress axis : x y z
#
# Youngs Moduli (GPa) = -237.52777 -237.52777 98.16765
#
# Poissons Ratio (x) = 2.81173 0.23032
# Poissons Ratio (y) = 2.81173 0.23032
# Poissons Ratio (z) = -0.55728 -0.55728
#
# Static dielectric constant tensor:
#      x y z
#    x 3.944530 0.000000 0.000000 
#    y 0.000000 3.944530 0.000000 
#    z 0.000000 0.000000 4.009130 
# 
# 
# High freq. dielectric constant tensor:
#      x y z
#    x 1.814340 0.000000 0.000000 
#    y 0.000000 1.814340 0.000000 
#    z 0.000000 0.000000 1.830210 
# 
# From -- ./inp_files/4717.got.cif
#   From: 2010.03.12/outbox.cif.g09.slc.cpg/sg134_3_cif.got.tgz:4717.got - 2010.04.06 18:17:22.
