data_PCOD8317957
_publ_section_title
;
Structure prediction by ZEFSAII (Michael W. Deem and Ramdas Pophale) SiO2 
 PCOD8317957
Probable space group: P 42/M N M
;
_chemical_formula_sum "Si O2"
_cell_formula_units_Z 80
_cell_length_a 13.302436
_cell_length_b 13.302436
_cell_length_c 24.798872
_cell_angle_alpha 90.000000
_cell_angle_beta 90.000000
_cell_angle_gamma 90.000000
_cell_volume 4388.279523
_symmetry_space_group_name_H-M "P 42/M N M"
_symmetry_group_IT_number 136
_symmetry_cell_setting 'tetragonal'
loop_
_space_group_symop_operation_xyz
x,y,z
1/2-y,1/2+x,1/2+z
-x,-y,z
1/2+y,1/2-x,1/2+z
1/2+x,1/2-y,1/2-z
1/2-x,1/2+y,1/2-z
y,x,-z
-y,-x,-z
-x,-y,-z
1/2+y,1/2-x,1/2-z
x,y,-z
1/2-y,1/2+x,1/2-z
1/2-x,1/2+y,1/2+z
1/2+x,1/2-y,1/2+z
-y,-x,z
y,x,z
loop_
_atom_site_type_symbol
_atom_site_label
_atom_site_fract_x
_atom_site_fract_y
_atom_site_fract_z
Si Si1 0.722651 0.563491 0.845421
Si Si2 0.748446 0.416626 0.060182
Si Si3 0.888534 0.526089 0.562753
Si Si4 0.981157 0.664065 0.751922
Si Si5 0.890400 0.729255 0.859593
O O1 0.617499 0.617499 0.830651
O O2 0.707123 0.500075 0.899458
O O3 0.756844 0.491829 0.796650
O O4 0.806290 0.645145 0.857273
O O5 0.678642 0.321359 0.062404
O O6 0.857262 0.373667 0.075772
O O7 0.751175 0.464580 0.000000
O O8 0.880462 0.498904 0.500000
O O9 0.799765 0.465034 0.591988
O O10 0.000000 0.500000 0.585209
O O11 0.893958 0.585224 0.736391
O O12 0.952387 0.729453 0.803972
O O13 0.838481 0.838481 0.869095
#
# Coordination Sequence:
#
# PCOD8317957 Si02
#       5
#    16  16  16  16  16
#     4  10  20  34  53  80 113 146 181 223 274 329
#     4  10  21  36  55  81 111 145 184 224 270 327
#     4  10  19  34  58  82 106 141 183 224 267 319
#     4   9  18  32  53  75 103 147 191 232 271 318
#     4  10  20  33  53  82 112 137 175 231 281 323
#
# _framework density 18.230378000000002
#
# number of rings (size 3 to 8) (size 9 to 14) (size 15 to 20)
#    0.000    2.200    2.000    1.200    2.800    2.000 
#    0.000    8.000    0.000    1.800    0.000    2.800 
#    0.000    0.000    0.000    0.000    0.000    0.000 
#
# Total GULP energy -992022.642283 kJ/mol
# GULP energy per Si atom -12400.283029 kJ/mol
# Density = 1.818888 g / cm^3
# Si number density = 18.230378 Si / 1000 Ang^3
#
#
#
# Elastic Constant Matrix: (Units=GPa)
#
#
# Indices 1 2 3 4 5 6 
#
# 1 71.4334 51.5822 54.4178 0.0000 0.0000 0.0000
# 2 51.5822 71.4334 54.4178 0.0000 0.0000 0.0000
# 3 54.4178 54.4178 101.6387 0.0000 0.0000 0.0000
# 4 0.0000 0.0000 0.0000 22.6745 0.0000 0.0000
# 5 0.0000 0.0000 0.0000 0.0000 22.6745 0.0000
# 6 0.0000 0.0000 0.0000 0.0000 0.0000 26.5997
#
#
#
# Elastic Compliance Matrix: (Units=1/GPa)
#
#
# Indices 1 2 3 4 5 6 
#
# 1 0.032910 -0.017465 -0.008269 0.000000 0.000000 0.000000
# 2 -0.017465 0.032910 -0.008269 0.000000 0.000000 0.000000
# 3 -0.008269 -0.008269 0.018694 0.000000 0.000000 0.000000
# 4 0.000000 0.000000 0.000000 0.044102 0.000000 0.000000
# 5 0.000000 0.000000 0.000000 0.000000 0.044102 0.000000
# 6 0.000000 0.000000 0.000000 0.000000 0.000000 0.037594
#
#
# Mechanical properties :
#
#
# Convention : Reuss Voigt Hill
#
# Bulk Modulus (GPa) = 60.58226 62.81568 61.69897
# Shear Modulus (GPa) = 17.61664 19.99561 18.80613
#
# Velocity S-wave (km/s) = 3.11196 3.31543 3.21531
# Velocity P-wave (km/s) = 6.79824 7.01338 6.90665
#
# Compressibility (1/GPa) = 0.01650648
#
# Stress axis : x y z
#
# Youngs Moduli (GPa) = 30.38586 30.38586 53.49376
#
# Poissons Ratio (x) = 0.53068 0.44236
# Poissons Ratio (y) = 0.53068 0.44236
# Poissons Ratio (z) = 0.25127 0.25127
#
# Static dielectric constant tensor:
#      x y z
#    x 3.397400 0.000000 0.000000 
#    y 0.000000 3.397400 0.000000 
#    z 0.000000 0.000000 3.498380 
# 
# 
# High freq. dielectric constant tensor:
#      x y z
#    x 1.692320 0.000000 0.000000 
#    y 0.000000 1.692320 0.000000 
#    z 0.000000 0.000000 1.713380 
# 
# From -- ./inp_files/7214.got.cif
#   From: 2010.03.12/outbox.cif.g09.slc.cpg/sg136_4_cif.got.tgz:7214.got - 2010.04.06 18:39:43.
