data_PCOD8317764
_publ_section_title
;
Structure prediction by ZEFSAII (Michael W. Deem and Ramdas Pophale) SiO2 
 PCOD8317764
Probable space group: P 42/M N M
;
_chemical_formula_sum "Si O2"
_cell_formula_units_Z 104
_cell_length_a 25.916067
_cell_length_b 25.916067
_cell_length_c 9.251295
_cell_angle_alpha 90.000000
_cell_angle_beta 90.000000
_cell_angle_gamma 90.000000
_cell_volume 6213.563168
_symmetry_space_group_name_H-M "P 42/M N M"
_symmetry_group_IT_number 136
_symmetry_cell_setting 'tetragonal'
loop_
_space_group_symop_operation_xyz
x,y,z
1/2-y,1/2+x,1/2+z
-x,-y,z
1/2+y,1/2-x,1/2+z
1/2+x,1/2-y,1/2-z
1/2-x,1/2+y,1/2-z
y,x,-z
-y,-x,-z
-x,-y,-z
1/2+y,1/2-x,1/2-z
x,y,-z
1/2-y,1/2+x,1/2-z
1/2-x,1/2+y,1/2+z
1/2+x,1/2-y,1/2+z
-y,-x,z
y,x,z
loop_
_atom_site_type_symbol
_atom_site_label
_atom_site_fract_x
_atom_site_fract_y
_atom_site_fract_z
Si Si1 0.020189 0.745046 0.164799
Si Si2 0.202538 0.797463 0.667300
Si Si3 0.541095 0.458905 0.329555
Si Si4 0.852599 0.493697 0.829611
Si Si5 0.388138 0.907557 0.168081
Si Si6 0.220884 0.364322 0.666061
Si Si7 0.117032 0.882969 0.333076
Si Si8 0.640813 0.515038 0.666693
O O1 0.991444 0.705633 0.270082
O O2 0.081085 0.748293 0.202538
O O3 0.993775 0.801044 0.185950
O O4 0.014234 0.725353 0.000000
O O5 0.213419 0.786582 0.500000
O O6 0.255502 0.818105 0.738422
O O7 0.159735 0.840266 0.694485
O O8 0.500000 0.500000 0.263260
O O9 0.537728 0.462273 0.500000
O O10 0.527448 0.400743 0.279257
O O11 0.879164 0.440207 0.786133
O O12 0.884666 0.540005 0.758901
O O13 0.850814 0.502113 0.000000
O O14 0.339945 0.869878 0.202113
O O15 0.387880 0.922917 0.000000
O O16 0.230004 0.349257 0.500000
O O17 0.106910 0.893090 0.500000
O O18 0.064876 0.864141 0.262865
O O19 0.630487 0.530205 0.500000
#
# Coordination Sequence:
#
# PCOD8317764 Si02
#       8
#    16   8   8  16  16  16   8  16
#     4   9  18  31  49  71  96 127 163 199 238 293
#     4  11  21  29  42  71 104 126 157 205 253 294
#     4   9  16  26  46  69  88 119 169 215 240 278
#     4  10  20  34  55  78 102 130 160 200 244 287
#     4   9  20  37  53  76 105 133 168 200 237 295
#     4   9  17  31  50  69  94 128 164 196 234 291
#     4  11  21  28  40  67 101 129 156 206 255 297
#     4  10  18  31  48  66  92 130 170 204 244 295
#
# _framework density 16.737580000000001
#
# number of rings (size 3 to 8) (size 9 to 14) (size 15 to 20)
#    0.000    2.385    2.308    1.846    0.000    5.231 
#    0.000    2.308    0.000    0.923    0.000    2.154 
#    0.000    0.000    0.000    0.000    0.000    0.000 
#
# Total GULP energy -1289404.868270 kJ/mol
# GULP energy per Si atom -12398.123733 kJ/mol
# Density = 1.669948 g / cm^3
# Si number density = 16.737580 Si / 1000 Ang^3
#
#
#
# Elastic Constant Matrix: (Units=GPa)
#
#
# Indices 1 2 3 4 5 6 
#
# 1 129.8370 45.4032 51.5872 0.0000 0.0000 0.0000
# 2 45.4032 129.8391 51.5796 0.0000 0.0000 0.0000
# 3 51.5872 51.5796 71.9094 0.0000 0.0000 0.0000
# 4 0.0000 0.0000 0.0000 21.7720 0.0000 0.0000
# 5 0.0000 0.0000 0.0000 0.0000 21.7720 0.0000
# 6 0.0000 0.0000 0.0000 0.0000 0.0000 26.1931
#
#
#
# Elastic Compliance Matrix: (Units=1/GPa)
#
#
# Indices 1 2 3 4 5 6 
#
# 1 0.010861 -0.000983 -0.007087 0.000000 0.000000 0.000000
# 2 -0.000983 0.010860 -0.007085 0.000000 0.000000 0.000000
# 3 -0.007087 -0.007085 0.024072 0.000000 0.000000 0.000000
# 4 0.000000 0.000000 0.000000 0.045931 0.000000 0.000000
# 5 0.000000 0.000000 0.000000 0.000000 0.045930 0.000000
# 6 0.000000 0.000000 0.000000 0.000000 0.000000 0.038178
#
#
# Mechanical properties :
#
#
# Convention : Reuss Voigt Hill
#
# Bulk Modulus (GPa) = 64.57933 69.85838 67.21885
# Shear Modulus (GPa) = 23.66269 26.14847 24.90558
#
# Velocity S-wave (km/s) = 3.76406 3.95683 3.86165
# Velocity P-wave (km/s) = 7.58670 7.91855 7.75440
#
# Compressibility (1/GPa) = 0.01548483
#
# Stress axis : x y z
#
# Youngs Moduli (GPa) = 92.06873 92.08170 41.54160
#
# Poissons Ratio (x) = 0.09049 0.29441
# Poissons Ratio (y) = 0.09048 0.29431
# Poissons Ratio (z) = 0.65249 0.65237
#
# Static dielectric constant tensor:
#      x y z
#    x 3.165960 0.000000 0.000000 
#    y 0.000000 3.165950 0.000000 
#    z 0.000000 0.000000 3.076430 
# 
# 
# High freq. dielectric constant tensor:
#      x y z
#    x 1.632250 0.000000 0.000000 
#    y 0.000000 1.632250 0.000000 
#    z 0.000000 0.000000 1.640280 
# 
# From -- ./inp_files/2283.got.cif
#   From: 2010.03.12/outbox.cif.g09.slc.cpg/sg136_2_cif.got.tgz:2283.got - 2010.04.06 18:39:43.
