data_PCOD8317632
_publ_section_title
;
Structure prediction by ZEFSAII (Michael W. Deem and Ramdas Pophale) SiO2 
 PCOD8317632
Probable space group: P 42/M B C
;
_chemical_formula_sum "Si O2"
_cell_formula_units_Z 112
_cell_length_a 14.463721
_cell_length_b 14.463721
_cell_length_c 27.579965
_cell_angle_alpha 90.000000
_cell_angle_beta 90.000000
_cell_angle_gamma 90.000000
_cell_volume 5769.707308
_symmetry_space_group_name_H-M "P 42/M B C"
_symmetry_group_IT_number 135
_symmetry_cell_setting 'tetragonal'
loop_
_space_group_symop_operation_xyz
x,y,z
-y,x,1/2+z
-x,-y,z
y,-x,1/2+z
1/2+x,1/2-y,-z
1/2-x,1/2+y,-z
1/2+y,1/2+x,1/2-z
1/2-y,1/2-x,1/2-z
-x,-y,-z
y,-x,1/2-z
x,y,-z
-y,x,1/2-z
1/2-x,1/2+y,z
1/2+x,1/2-y,z
1/2-y,1/2-x,1/2+z
1/2+y,1/2+x,1/2+z
loop_
_atom_site_type_symbol
_atom_site_label
_atom_site_fract_x
_atom_site_fract_y
_atom_site_fract_z
Si Si1 0.410557 0.624722 0.250000
Si Si2 0.325177 0.326855 0.650764
Si Si3 0.174823 0.826855 0.150764
Si Si4 0.495423 0.773070 0.624035
Si Si5 0.004577 0.273070 0.124035
Si Si6 0.576101 0.076101 0.803434
Si Si7 0.923049 0.423049 0.055282
O O1 0.520874 0.627766 0.250000
O O2 0.373868 0.679505 0.203343
O O3 0.373867 0.679505 0.296657
O O4 0.267270 0.232730 0.650392
O O5 0.430089 0.304034 0.638024
O O6 0.282309 0.400388 0.611882
O O7 0.217691 0.900388 0.111882
O O8 0.069912 0.804034 0.138024
O O9 0.470618 0.839380 0.668620
O O10 0.536405 0.830387 0.579162
O O11 0.029382 0.339380 0.168619
O O12 0.963595 0.330387 0.079162
O O13 0.609197 0.109197 0.750000
O O14 0.500000 0.000000 0.796941
O O15 0.000000 0.500000 0.060531
O O16 0.899202 0.399202 0.000000
#
# Coordination Sequence:
#
# PCOD8317632 Si02
#       7
#    16  16  16  16  16  16  16
#     4  11  23  38  54  86 129 189 224 252 312 388
#     4  12  24  38  63  88 135 172 224 270 320 381
#     4  12  24  38  63  88 135 172 224 270 320 381
#     4  12  23  42  62  97 128 171 220 268 328 389
#     4  12  23  42  62  97 128 171 220 268 328 389
#     4  11  22  37  58  86 130 172 215 266 305 367
#     4  11  22  45  74  96 122 162 219 288 347 397
#
# _framework density 19.411729000000001
#
# number of rings (size 3 to 8) (size 9 to 14) (size 15 to 20)
#    0.000    0.429    8.571    0.429    4.000    0.571 
#    0.000    1.429    0.000    0.000    0.000    2.000 
#    0.000    0.000    0.000    0.000    0.000    0.000 
#
# Total GULP energy -1388772.826023 kJ/mol
# GULP energy per Si atom -12399.757375 kJ/mol
# Density = 1.936755 g / cm^3
# Si number density = 19.411729 Si / 1000 Ang^3
#
#
#
# Elastic Constant Matrix: (Units=GPa)
#
#
# Indices 1 2 3 4 5 6 
#
# 1 92.2457 32.9885 30.3800 0.0000 0.0000 0.0000
# 2 32.9885 92.2457 30.3800 0.0000 0.0000 0.0000
# 3 30.3800 30.3800 96.7392 0.0000 0.0000 0.0000
# 4 0.0000 0.0000 0.0000 19.1799 0.0000 0.0000
# 5 0.0000 0.0000 0.0000 0.0000 19.1799 0.0000
# 6 0.0000 0.0000 0.0000 0.0000 0.0000 58.4516
#
#
#
# Elastic Compliance Matrix: (Units=1/GPa)
#
#
# Indices 1 2 3 4 5 6 
#
# 1 0.013148 -0.003728 -0.002958 0.000000 0.000000 0.000000
# 2 -0.003728 0.013148 -0.002958 0.000000 0.000000 0.000000
# 3 -0.002958 -0.002958 0.012195 0.000000 0.000000 0.000000
# 4 0.000000 0.000000 0.000000 0.052138 0.000000 0.000000
# 5 0.000000 0.000000 0.000000 0.000000 0.052138 0.000000
# 6 0.000000 0.000000 0.000000 0.000000 0.000000 0.017108
#
#
# Mechanical properties :
#
#
# Convention : Reuss Voigt Hill
#
# Bulk Modulus (GPa) = 52.07686 52.08086 52.07886
# Shear Modulus (GPa) = 26.94481 31.86109 29.40295
#
# Velocity S-wave (km/s) = 3.72972 4.05573 3.89614
# Velocity P-wave (km/s) = 6.74044 6.98711 6.86488
#
# Compressibility (1/GPa) = 0.01920239
#
# Stress axis : x y z
#
# Youngs Moduli (GPa) = 76.05739 76.05739 81.99966
#
# Poissons Ratio (x) = 0.28351 0.24259
# Poissons Ratio (y) = 0.28351 0.24259
# Poissons Ratio (z) = 0.22501 0.22501
#
# Static dielectric constant tensor:
#      x y z
#    x 3.714090 0.000000 0.000000 
#    y 0.000000 3.714090 0.000000 
#    z 0.000000 0.000000 3.409600 
# 
# 
# High freq. dielectric constant tensor:
#      x y z
#    x 1.773400 0.000000 0.000000 
#    y 0.000000 1.773400 0.000000 
#    z 0.000000 0.000000 1.712690 
# 
# From -- ./inp_files/6502.got.cif
#   From: 2010.03.12/outbox.cif.g09.slc.cpg/sg135_4_cif.got.tgz:6502.got - 2010.04.06 18:31:24.
