data_PCOD8317000
_publ_section_title
;
Structure prediction by ZEFSAII (Michael W. Deem and Ramdas Pophale) SiO2 
 PCOD8317000
Probable space group: P 42/N B C
;
_chemical_formula_sum "Si O2"
_cell_formula_units_Z 60
_cell_length_a 16.833922
_cell_length_b 16.833922
_cell_length_c 9.314009
_cell_angle_alpha 90.000000
_cell_angle_beta 90.000000
_cell_angle_gamma 90.000000
_cell_volume 2639.412532
_symmetry_space_group_name_H-M "P 42/N B C"
_symmetry_group_IT_number 133
_space_group.IT_coordinate_system_code '2'
_symmetry_cell_setting 'tetragonal'
loop_
_space_group_symop_operation_xyz
x,y,z
1/2-y,x,1/2+z
1/2-x,1/2-y,z
y,1/2-x,1/2+z
x,1/2-y,-z
1/2-x,y,-z
y,x,1/2-z
1/2-y,1/2-x,1/2-z
-x,-y,-z
1/2+y,-x,1/2-z
1/2+x,1/2+y,-z
-y,1/2+x,1/2-z
-x,1/2+y,z
1/2+x,-y,z
-y,-x,1/2+z
1/2+y,1/2+x,1/2+z
loop_
_atom_site_type_symbol
_atom_site_label
_atom_site_fract_x
_atom_site_fract_y
_atom_site_fract_z
Si Si1 0.988400 0.115348 0.900507
Si Si2 0.250000 0.100534 0.000000
Si Si3 0.750000 0.250000 0.750000
Si Si4 0.750000 0.121949 0.500000
Si Si5 0.641885 0.858116 0.750000
Si Si6 0.101353 0.033261 0.120989
O O1 0.936682 0.175270 0.994713
O O2 0.048012 0.157451 0.787531
O O3 0.925082 0.054939 0.826891
O O4 0.047154 0.061976 0.992184
O O5 0.202107 0.157052 0.884836
O O6 0.307446 0.037743 0.923000
O O7 0.755625 0.173438 0.646065
O O8 0.094757 0.094757 0.250000
#
# Coordination Sequence:
#
# PCOD8317000 Si02
#       6
#    16   8   4   8   8  16
#     4  10  23  40  70  96 134 170 234 280 343 423
#     4  10  24  42  71  93 142 174 236 282 366 403
#     4  10  28  46  60 110 140 178 236 278 364 434
#     4  11  26  44  70  97 144 186 224 293 354 428
#     4  10  22  46  67 108 128 187 230 294 346 432
#     4  10  22  42  65 100 126 176 227 292 337 419
#
# _framework density 22.732330000000001
#
# number of rings (size 3 to 8) (size 9 to 14) (size 15 to 20)
#    0.000    1.867    1.333    0.000    7.467    2.133 
#    0.000    2.000    0.000    0.000    0.000    0.000 
#    0.000    0.000    0.000    0.000    0.000    0.000 
#
# Total GULP energy -743450.248182 kJ/mol
# GULP energy per Si atom -12390.837470 kJ/mol
# Density = 2.268059 g / cm^3
# Si number density = 22.732330 Si / 1000 Ang^3
#
#
#
# Elastic Constant Matrix: (Units=GPa)
#
#
# Indices 1 2 3 4 5 6 
#
# 1 128.4650 58.0479 43.7842 0.0000 0.0000 0.0000
# 2 58.0479 128.4658 43.7840 0.0000 0.0000 0.0000
# 3 43.7842 43.7840 109.2755 0.0000 0.0000 0.0000
# 4 0.0000 0.0000 0.0000 20.8398 0.0000 0.0000
# 5 0.0000 0.0000 0.0000 0.0000 20.8451 0.0000
# 6 0.0000 0.0000 0.0000 0.0000 0.0000 14.4900
#
#
#
# Elastic Compliance Matrix: (Units=1/GPa)
#
#
# Indices 1 2 3 4 5 6 
#
# 1 0.010402 -0.003799 -0.002646 0.000000 0.000000 0.000000
# 2 -0.003799 0.010402 -0.002646 0.000000 0.000000 0.000000
# 3 -0.002646 -0.002646 0.011272 0.000000 0.000000 0.000000
# 4 0.000000 0.000000 0.000000 0.047985 0.000000 0.000000
# 5 0.000000 0.000000 0.000000 0.000000 0.047973 0.000000
# 6 0.000000 0.000000 0.000000 0.000000 0.000000 0.069013
#
#
# Mechanical properties :
#
#
# Convention : Reuss Voigt Hill
#
# Bulk Modulus (GPa) = 71.96708 73.04872 72.50790
# Shear Modulus (GPa) = 22.74168 25.94099 24.34134
#
# Velocity S-wave (km/s) = 3.16636 3.38176 3.27583
# Velocity P-wave (km/s) = 6.71528 6.88857 6.80248
#
# Compressibility (1/GPa) = 0.01389524
#
# Stress axis : x y z
#
# Youngs Moduli (GPa) = 96.13098 96.13178 88.71884
#
# Poissons Ratio (x) = 0.36516 0.23475
# Poissons Ratio (y) = 0.36516 0.23475
# Poissons Ratio (z) = 0.25437 0.25436
#
# Static dielectric constant tensor:
#      x y z
#    x 4.211930 0.000000 0.000000 
#    y 0.000000 4.211910 0.000000 
#    z 0.000000 0.000000 4.597100 
# 
# 
# High freq. dielectric constant tensor:
#      x y z
#    x 1.891390 0.000000 0.000000 
#    y 0.000000 1.891390 0.000000 
#    z 0.000000 0.000000 1.903160 
# 
# From -- ./inp_files/1387.got.cif
#   From: 2010.03.12/outbox.cif.g09.slc.cpg/sg133_1_cif.got.tgz:1387.got - 2010.04.06 18:08:06.
