data_PCOD8317855
_publ_section_title
;
Structure prediction by ZEFSAII (Michael W. Deem and Ramdas Pophale) SiO2 
 PCOD8317855
Probable space group: P 42/M N M
;
_chemical_formula_sum "Si O2"
_cell_formula_units_Z 80
_cell_length_a 17.129289
_cell_length_b 17.129289
_cell_length_c 14.370396
_cell_angle_alpha 90.000000
_cell_angle_beta 90.000000
_cell_angle_gamma 90.000000
_cell_volume 4216.454415
_symmetry_space_group_name_H-M "P 42/M N M"
_symmetry_group_IT_number 136
_symmetry_cell_setting 'tetragonal'
loop_
_space_group_symop_operation_xyz
x,y,z
1/2-y,1/2+x,1/2+z
-x,-y,z
1/2+y,1/2-x,1/2+z
1/2+x,1/2-y,1/2-z
1/2-x,1/2+y,1/2-z
y,x,-z
-y,-x,-z
-x,-y,-z
1/2+y,1/2-x,1/2-z
x,y,-z
1/2-y,1/2+x,1/2-z
1/2-x,1/2+y,1/2+z
1/2+x,1/2-y,1/2+z
-y,-x,z
y,x,z
loop_
_atom_site_type_symbol
_atom_site_label
_atom_site_fract_x
_atom_site_fract_y
_atom_site_fract_z
Si Si1 0.723779 0.963860 0.801321
Si Si2 0.181959 0.692583 0.605241
Si Si3 0.294366 0.003212 0.602277
Si Si4 0.999883 0.121349 0.109516
Si Si5 0.460467 0.078313 0.394752
O O1 0.715533 0.873469 0.827222
O O2 0.790454 0.005978 0.858931
O O3 0.751987 0.968445 0.693241
O O4 0.645960 0.014313 0.822971
O O5 0.203576 0.668917 0.500000
O O6 0.224205 0.775796 0.629648
O O7 0.088963 0.692825 0.616240
O O8 0.253805 0.015833 0.500000
O O9 0.369500 0.059183 0.605127
O O10 0.080293 0.080293 0.143533
O O11 0.995698 0.119022 0.000000
O O12 0.926343 0.073658 0.150888
O O13 0.489108 0.099802 0.500000
O O14 0.500000 0.000000 0.358344
#
# Coordination Sequence:
#
# PCOD8317855 Si02
#       5
#    16  16  16  16  16
#     4  12  20  31  56  82 105 143 187 222 270 336
#     4  10  20  35  56  81 106 134 180 238 281 317
#     4  10  22  36  48  73 113 152 184 222 270 324
#     4   9  19  36  57  83 112 136 169 228 291 337
#     4  10  19  31  49  75 111 142 170 215 270 330
#
# _framework density 18.973286999999999
#
# number of rings (size 3 to 8) (size 9 to 14) (size 15 to 20)
#    0.000    1.800    2.000    4.200    0.000    2.400 
#    0.000    0.000    0.000    2.400    0.000    4.200 
#    0.000    0.000    0.000    0.000    0.000    0.000 
#
# Total GULP energy -991137.903166 kJ/mol
# GULP energy per Si atom -12389.223790 kJ/mol
# Density = 1.893010 g / cm^3
# Si number density = 18.973287 Si / 1000 Ang^3
#
#
#
# Elastic Constant Matrix: (Units=GPa)
#
#
# Indices 1 2 3 4 5 6 
#
# 1 73.8440 32.2578 28.9532 0.0000 0.0000 0.0000
# 2 32.2578 73.8440 28.9532 0.0000 0.0000 0.0000
# 3 28.9532 28.9532 93.4694 0.0000 0.0000 0.0000
# 4 0.0000 0.0000 0.0000 -71.8391 0.0000 0.0000
# 5 0.0000 0.0000 0.0000 0.0000 -71.8391 0.0000
# 6 0.0000 0.0000 0.0000 0.0000 0.0000 22.7949
#
#
#
# Elastic Compliance Matrix: (Units=1/GPa)
#
#
# Indices 1 2 3 4 5 6 
#
# 1 0.017694 -0.006352 -0.003513 0.000000 0.000000 0.000000
# 2 -0.006352 0.017694 -0.003513 0.000000 0.000000 0.000000
# 3 -0.003513 -0.003513 0.012875 0.000000 0.000000 0.000000
# 4 0.000000 0.000000 0.000000 -0.013920 0.000000 0.000000
# 5 0.000000 0.000000 0.000000 0.000000 -0.013920 0.000000
# 6 0.000000 0.000000 0.000000 0.000000 0.000000 0.043869
#
#
# Mechanical properties :
#
#
# Convention : Reuss Voigt Hill
#
# Bulk Modulus (GPa) = 46.49774 46.83174 46.66474
# Shear Modulus (GPa) = 50.90604 -14.11043 18.39780
#
# Velocity S-wave (km/s) = 5.18542 -2.73004 3.11733
# Velocity P-wave (km/s) = 7.77249 3.84695 6.13232
#
# Compressibility (1/GPa) = 0.02150642
#
# Stress axis : x y z
#
# Youngs Moduli (GPa) = 56.51500 56.51500 77.66782
#
# Poissons Ratio (x) = 0.35898 0.27288
# Poissons Ratio (y) = 0.35898 0.27288
# Poissons Ratio (z) = 0.19856 0.19856
#
# Static dielectric constant tensor:
#      x y z
#    x 3.513570 0.000000 0.000000 
#    y 0.000000 3.513570 0.000000 
#    z 0.000000 0.000000 3.789010 
# 
# 
# High freq. dielectric constant tensor:
#      x y z
#    x 1.719770 0.000000 0.000000 
#    y 0.000000 1.719770 0.000000 
#    z 0.000000 0.000000 1.739570 
# 
# From -- ./inp_files/4868.got.cif
#   From: 2010.03.12/outbox.cif.g09.slc.cpg/sg136_3_cif.got.tgz:4868.got - 2010.04.06 18:39:43.
