data_PCOD8317350
_publ_section_title
;
Structure prediction by ZEFSAII (Michael W. Deem and Ramdas Pophale) SiO2 
 PCOD8317350
Probable space group: P 42/N N M
;
_chemical_formula_sum "Si O2"
_cell_formula_units_Z 96
_cell_length_a 13.975389
_cell_length_b 13.975389
_cell_length_c 30.354363
_cell_angle_alpha 90.000000
_cell_angle_beta 90.000000
_cell_angle_gamma 90.000000
_cell_volume 5928.556099
_symmetry_space_group_name_H-M "P 42/N N M"
_symmetry_group_IT_number 134
_space_group.IT_coordinate_system_code '2'
_symmetry_cell_setting 'tetragonal'
loop_
_space_group_symop_operation_xyz
x,y,z
1/2-y,x,1/2+z
1/2-x,1/2-y,z
y,1/2-x,1/2+z
x,1/2-y,1/2-z
1/2-x,y,1/2-z
y,x,-z
1/2-y,1/2-x,-z
-x,-y,-z
1/2+y,-x,1/2-z
1/2+x,1/2+y,-z
-y,1/2+x,1/2-z
-x,1/2+y,1/2+z
1/2+x,-y,1/2+z
-y,-x,z
1/2+y,1/2+x,z
loop_
_atom_site_type_symbol
_atom_site_label
_atom_site_fract_x
_atom_site_fract_y
_atom_site_fract_z
Si Si1 0.905836 0.245249 0.543370
Si Si2 0.352794 0.485953 0.974844
Si Si3 0.593956 0.738937 0.298184
Si Si4 0.824077 0.475993 0.630720
Si Si5 0.250651 0.405142 0.799342
Si Si6 0.137103 0.015843 0.876512
O O1 0.861434 0.138567 0.542338
O O2 0.822230 0.322230 0.542837
O O3 0.972784 0.261403 0.500938
O O4 0.969772 0.261428 0.586588
O O5 0.439997 0.560004 0.972934
O O6 0.316596 0.467793 0.924915
O O7 0.390626 0.390626 0.000000
O O8 0.548059 0.750000 0.250000
O O9 0.505217 0.750837 0.331078
O O10 0.674440 0.819516 0.301496
O O11 0.644166 0.636573 0.307875
O O12 0.903704 0.556839 0.627186
O O13 0.874456 0.374456 0.641439
O O14 0.250000 0.452376 0.750000
O O15 0.281586 0.478252 0.838259
O O16 0.088531 0.911470 0.871902
#
# Coordination Sequence:
#
# PCOD8317350 Si02
#       6
#    16  16  16  16  16  16
#     4   9  16  25  38  58  85 115 142 169 206 255
#     4   9  14  23  39  61  85 105 133 175 218 252
#     4   8  14  25  40  58  80 109 141 172 207 247
#     4   9  15  24  39  60  82 105 137 175 210 243
#     4   8  14  25  41  60  82 108 139 173 212 252
#     4   9  15  23  41  66  85 103 133 177 220 252
#
# _framework density 16.192813999999998
#
# number of rings (size 3 to 8) (size 9 to 14) (size 15 to 20)
#    0.000    3.333    1.667    1.000    0.000    0.000 
#    0.000    0.833    0.000    3.000    0.000    1.167 
#    0.000    0.000    0.000    0.000    0.000    0.000 
#
# Total GULP energy -1189374.567017 kJ/mol
# GULP energy per Si atom -12389.318406 kJ/mol
# Density = 1.615596 g / cm^3
# Si number density = 16.192814 Si / 1000 Ang^3
#
#
#
# Elastic Constant Matrix: (Units=GPa)
#
#
# Indices 1 2 3 4 5 6 
#
# 1 35.8152 21.8494 45.2776 0.0000 0.0000 0.0000
# 2 21.8494 35.8152 45.2776 0.0000 0.0000 0.0000
# 3 45.2776 45.2776 166.4007 0.0000 0.0000 0.0000
# 4 0.0000 0.0000 0.0000 22.4828 0.0000 0.0000
# 5 0.0000 0.0000 0.0000 0.0000 22.4828 0.0000
# 6 0.0000 0.0000 0.0000 0.0000 0.0000 13.4488
#
#
#
# Elastic Compliance Matrix: (Units=1/GPa)
#
#
# Indices 1 2 3 4 5 6 
#
# 1 0.050942 -0.020662 -0.008239 0.000000 0.000000 0.000000
# 2 -0.020662 0.050942 -0.008239 0.000000 0.000000 0.000000
# 3 -0.008239 -0.008239 0.010493 0.000000 0.000000 0.000000
# 4 0.000000 0.000000 0.000000 0.044478 0.000000 0.000000
# 5 0.000000 0.000000 0.000000 0.000000 0.044478 0.000000
# 6 0.000000 0.000000 0.000000 0.000000 0.000000 0.074356
#
#
# Mechanical properties :
#
#
# Convention : Reuss Voigt Hill
#
# Bulk Modulus (GPa) = 26.24864 51.42671 38.83767
# Shear Modulus (GPa) = 13.78664 20.05799 16.92231
#
# Velocity S-wave (km/s) = 2.92105 3.52333 3.23623
# Velocity P-wave (km/s) = 5.25566 6.95555 6.16448
#
# Compressibility (1/GPa) = 0.03809721
#
# Stress axis : x y z
#
# Youngs Moduli (GPa) = 19.63010 19.63010 95.29766
#
# Poissons Ratio (x) = 0.40559 0.78519
# Poissons Ratio (y) = 0.40559 0.78519
# Poissons Ratio (z) = 0.16174 0.16174
#
# Static dielectric constant tensor:
#      x y z
#    x 2.885770 0.000000 0.000000 
#    y 0.000000 2.885770 0.000000 
#    z 0.000000 0.000000 3.452970 
# 
# 
# High freq. dielectric constant tensor:
#      x y z
#    x 1.577460 0.000000 0.000000 
#    y 0.000000 1.577460 0.000000 
#    z 0.000000 0.000000 1.638700 
# 
# From -- ./inp_files/11561.got.cif
#   From: 2010.03.12/outbox.cif.g09.slc.cpg/sg134_6_cif.got.tgz:11561.got - 2010.04.06 18:17:22.
