data_PCOD8317380
_publ_section_title
;
Structure prediction by ZEFSAII (Michael W. Deem and Ramdas Pophale) SiO2 
 PCOD8317380
Probable space group: P 42/M B C
;
_chemical_formula_sum "Si O2"
_cell_formula_units_Z 128
_cell_length_a 18.488953
_cell_length_b 18.488953
_cell_length_c 20.438108
_cell_angle_alpha 90.000000
_cell_angle_beta 90.000000
_cell_angle_gamma 90.000000
_cell_volume 6986.591105
_symmetry_space_group_name_H-M "P 42/M B C"
_symmetry_group_IT_number 135
_symmetry_cell_setting 'tetragonal'
loop_
_space_group_symop_operation_xyz
x,y,z
-y,x,1/2+z
-x,-y,z
y,-x,1/2+z
1/2+x,1/2-y,-z
1/2-x,1/2+y,-z
1/2+y,1/2+x,1/2-z
1/2-y,1/2-x,1/2-z
-x,-y,-z
y,-x,1/2-z
x,y,-z
-y,x,1/2-z
1/2-x,1/2+y,z
1/2+x,1/2-y,z
1/2-y,1/2-x,1/2+z
1/2+y,1/2+x,1/2+z
loop_
_atom_site_type_symbol
_atom_site_label
_atom_site_fract_x
_atom_site_fract_y
_atom_site_fract_z
Si Si1 0.388496 0.317888 0.076631
Si Si2 0.834441 0.334441 0.575192
Si Si3 0.443290 0.056710 0.129560
Si Si4 0.317888 0.611504 0.076631
Si Si5 0.447717 0.831621 0.821297
Si Si6 0.831621 0.552283 0.178703
Si Si7 0.293899 0.450862 0.577059
Si Si8 0.950862 0.793899 0.422941
O O1 0.360762 0.241620 0.107962
O O2 0.472716 0.332514 0.091823
O O3 0.344185 0.386284 0.104169
O O4 0.375846 0.313713 0.000000
O O5 0.819446 0.319446 0.500000
O O6 0.896084 0.396084 0.578872
O O7 0.860762 0.258380 0.607962
O O8 0.487373 0.111097 0.175281
O O9 0.500000 0.000000 0.094636
O O10 0.388903 0.012627 0.175281
O O11 0.386284 0.655815 0.104169
O O12 0.332514 0.527284 0.091823
O O13 0.313713 0.624154 0.000000
O O14 0.454546 0.792521 0.750000
O O15 0.370981 0.870981 0.825268
O O16 0.450218 0.779646 0.883048
O O17 0.779646 0.549782 0.116952
O O18 0.275615 0.443108 0.500000
O O19 0.943108 0.775614 0.500000
#
# Coordination Sequence:
#
# PCOD8317380 Si02
#       8
#    16  16  16  16  16  16  16  16
#     4   9  19  33  53  80 111 142 179 228 274 316
#     4  10  18  32  51  82 120 141 169 227 281 320
#     4  10  19  33  56  79 106 148 183 214 272 339
#     4   9  19  33  53  80 111 142 179 228 274 316
#     4  10  21  36  54  79 113 145 179 222 268 324
#     4  10  21  36  54  79 113 145 179 222 268 324
#     4  10  20  36  57  80 106 144 186 225 270 318
#     4  10  20  36  57  80 106 144 186 225 270 318
#
# _framework density 18.320809000000001
#
# number of rings (size 3 to 8) (size 9 to 14) (size 15 to 20)
#    0.000    2.250    2.500    0.375    1.750    2.750 
#    0.000    6.250    0.000    0.000    0.000    1.750 
#    0.000    0.000    0.000    0.000    0.000    0.000 
#
# Total GULP energy -1586139.111038 kJ/mol
# GULP energy per Si atom -12391.711805 kJ/mol
# Density = 1.827911 g / cm^3
# Si number density = 18.320809 Si / 1000 Ang^3
#
#
#
# Elastic Constant Matrix: (Units=GPa)
#
#
# Indices 1 2 3 4 5 6 
#
# 1 119.7088 79.7811 33.5310 0.0000 0.0000 0.0000
# 2 79.7811 119.7088 33.5310 0.0000 0.0000 0.0000
# 3 33.5310 33.5310 57.0617 0.0000 0.0000 0.0000
# 4 0.0000 0.0000 0.0000 11.3861 0.0000 0.0000
# 5 0.0000 0.0000 0.0000 0.0000 11.3861 0.0000
# 6 0.0000 0.0000 0.0000 0.0000 0.0000 30.8103
#
#
#
# Elastic Compliance Matrix: (Units=1/GPa)
#
#
# Indices 1 2 3 4 5 6 
#
# 1 0.015646 -0.009399 -0.003671 0.000000 0.000000 0.000000
# 2 -0.009399 0.015646 -0.003671 0.000000 0.000000 0.000000
# 3 -0.003671 -0.003671 0.021839 0.000000 0.000000 0.000000
# 4 0.000000 0.000000 0.000000 0.087827 0.000000 0.000000
# 5 0.000000 0.000000 0.000000 0.000000 0.087827 0.000000
# 6 0.000000 0.000000 0.000000 0.000000 0.000000 0.032457
#
#
# Mechanical properties :
#
#
# Convention : Reuss Voigt Hill
#
# Bulk Modulus (GPa) = 50.89206 65.57397 58.23302
# Shear Modulus (GPa) = 16.59627 20.69223 18.64425
#
# Velocity S-wave (km/s) = 3.01303 3.36436 3.19353
# Velocity P-wave (km/s) = 6.32005 7.13874 6.74184
#
# Compressibility (1/GPa) = 0.01964943
#
# Stress axis : x y z
#
# Youngs Moduli (GPa) = 63.91400 63.91400 45.78970
#
# Poissons Ratio (x) = 0.60074 0.16808
# Poissons Ratio (y) = 0.60074 0.16808
# Poissons Ratio (z) = 0.23461 0.23461
#
# Static dielectric constant tensor:
#      x y z
#    x 3.616160 0.000000 0.000000 
#    y 0.000000 3.616160 0.000000 
#    z 0.000000 0.000000 2.992180 
# 
# 
# High freq. dielectric constant tensor:
#      x y z
#    x 1.714340 0.000000 0.000000 
#    y 0.000000 1.714340 0.000000 
#    z 0.000000 0.000000 1.665840 
# 
# From -- ./inp_files/6243.got.cif
#   From: 2010.03.12/outbox.cif.g09.slc.cpg/sg135_4_cif.got.tgz:6243.got - 2010.04.06 18:31:24.
