data_PCOD8317006
_publ_section_title
;
Structure prediction by ZEFSAII (Michael W. Deem and Ramdas Pophale) SiO2 
 PCOD8317006
Probable space group: P 42/N B C
;
_chemical_formula_sum "Si O2"
_cell_formula_units_Z 92
_cell_length_a 22.641396
_cell_length_b 22.641396
_cell_length_c 8.136143
_cell_angle_alpha 90.000000
_cell_angle_beta 90.000000
_cell_angle_gamma 90.000000
_cell_volume 4170.853872
_symmetry_space_group_name_H-M "P 42/N B C"
_symmetry_group_IT_number 133
_space_group.IT_coordinate_system_code '2'
_symmetry_cell_setting 'tetragonal'
loop_
_space_group_symop_operation_xyz
x,y,z
1/2-y,x,1/2+z
1/2-x,1/2-y,z
y,1/2-x,1/2+z
x,1/2-y,-z
1/2-x,y,-z
y,x,1/2-z
1/2-y,1/2-x,1/2-z
-x,-y,-z
1/2+y,-x,1/2-z
1/2+x,1/2+y,-z
-y,1/2+x,1/2-z
-x,1/2+y,z
1/2+x,-y,z
-y,-x,1/2+z
1/2+y,1/2+x,1/2+z
loop_
_atom_site_type_symbol
_atom_site_label
_atom_site_fract_x
_atom_site_fract_y
_atom_site_fract_z
Si Si1 0.492503 0.750000 0.000000
Si Si2 0.481344 0.481344 0.750000
Si Si3 0.323001 0.176999 0.750000
Si Si4 0.182490 0.809015 0.295081
Si Si5 0.750000 0.750000 0.500000
Si Si6 0.546135 0.709738 0.662945
Si Si7 0.397440 0.845718 0.958351
Si Si8 0.404800 0.519589 0.032755
O O1 0.526682 0.746708 0.825334
O O2 0.457841 0.811818 0.994301
O O3 0.479139 0.425571 0.623534
O O4 0.544057 0.480176 0.835127
O O5 0.289815 0.203663 0.595284
O O6 0.315310 0.108416 0.782069
O O7 0.239036 0.823865 0.178795
O O8 0.121659 0.839847 0.231247
O O9 0.192231 0.843289 0.464444
O O10 0.550209 0.750000 0.500000
O O11 0.503333 0.655407 0.615377
O O12 0.398881 0.912537 0.022518
#
# Coordination Sequence:
#
# PCOD8317006 Si02
#       8
#     8   8   8  16   4  16  16  16
#     4  12  27  48  67 109 156 197 260 320 376 434
#     4  10  23  48  69 100 134 200 248 309 364 453
#     4  11  23  52  75 118 150 188 240 295 376 468
#     4  11  22  38  60  92 132 187 247 306 376 437
#     4  10  22  46  88 110 148 196 232 292 388 464
#     4  12  28  48  76 117 152 198 245 311 381 456
#     4  12  24  41  65  98 139 196 247 322 373 438
#     4  11  25  44  72 102 144 193 255 305 382 446
#
# _framework density 22.057834
#
# number of rings (size 3 to 8) (size 9 to 14) (size 15 to 20)
#    0.000    0.696    2.609    4.696    4.870    2.783 
#    3.130    0.000    0.000    0.000    0.000    0.000 
#    0.000    0.000    0.000    0.000    0.000    0.000 
#
# Total GULP energy -1139821.017547 kJ/mol
# GULP energy per Si atom -12389.358886 kJ/mol
# Density = 2.200763 g / cm^3
# Si number density = 22.057834 Si / 1000 Ang^3
#
#
#
# Elastic Constant Matrix: (Units=GPa)
#
#
# Indices 1 2 3 4 5 6 
#
# 1 130.0732 49.2794 46.2737 0.0000 0.0000 0.0000
# 2 49.2794 130.0721 46.2732 0.0000 0.0000 0.0000
# 3 46.2737 46.2732 124.3750 0.0000 0.0000 0.0000
# 4 0.0000 0.0000 0.0000 50.8692 0.0000 0.0000
# 5 0.0000 0.0000 0.0000 0.0000 50.8693 0.0000
# 6 0.0000 0.0000 0.0000 0.0000 0.0000 33.9136
#
#
#
# Elastic Compliance Matrix: (Units=1/GPa)
#
#
# Indices 1 2 3 4 5 6 
#
# 1 0.009639 -0.002738 -0.002567 0.000000 0.000000 0.000000
# 2 -0.002738 0.009639 -0.002567 0.000000 0.000000 0.000000
# 3 -0.002567 -0.002567 0.009950 0.000000 0.000000 0.000000
# 4 0.000000 0.000000 0.000000 0.019658 0.000000 0.000000
# 5 0.000000 0.000000 0.000000 0.000000 0.019658 0.000000
# 6 0.000000 0.000000 0.000000 0.000000 0.000000 0.029487
#
#
# Mechanical properties :
#
#
# Convention : Reuss Voigt Hill
#
# Bulk Modulus (GPa) = 74.17216 74.24143 74.20680
# Shear Modulus (GPa) = 42.27568 43.31002 42.79285
#
# Velocity S-wave (km/s) = 4.38263 4.43592 4.40936
# Velocity P-wave (km/s) = 7.70124 7.74385 7.72258
#
# Compressibility (1/GPa) = 0.01348215
#
# Stress axis : x y z
#
# Youngs Moduli (GPa) = 103.74759 103.74685 100.49752
#
# Poissons Ratio (x) = 0.28411 0.25800
# Poissons Ratio (y) = 0.28411 0.25800
# Poissons Ratio (z) = 0.26635 0.26634
#
# Static dielectric constant tensor:
#      x y z
#    x 3.691730 0.000000 0.000000 
#    y 0.000000 3.691650 0.000000 
#    z 0.000000 0.000000 4.239350 
# 
# 
# High freq. dielectric constant tensor:
#      x y z
#    x 1.868820 0.000000 0.000000 
#    y 0.000000 1.868830 0.000000 
#    z 0.000000 0.000000 1.890860 
# 
# From -- ./inp_files/1983.got.cif
#   From: 2010.03.12/outbox.cif.g09.slc.cpg/sg133_1_cif.got.tgz:1983.got - 2010.04.06 18:08:06.
