data_PCOD8317606
_publ_section_title
;
Structure prediction by ZEFSAII (Michael W. Deem and Ramdas Pophale) SiO2 
 PCOD8317606
Probable space group: P 42/M B C
;
_chemical_formula_sum "Si O2"
_cell_formula_units_Z 80
_cell_length_a 14.346101
_cell_length_b 14.346101
_cell_length_c 18.261446
_cell_angle_alpha 90.000000
_cell_angle_beta 90.000000
_cell_angle_gamma 90.000000
_cell_volume 3758.399412
_symmetry_space_group_name_H-M "P 42/M B C"
_symmetry_group_IT_number 135
_symmetry_cell_setting 'tetragonal'
loop_
_space_group_symop_operation_xyz
x,y,z
-y,x,1/2+z
-x,-y,z
y,-x,1/2+z
1/2+x,1/2-y,-z
1/2-x,1/2+y,-z
1/2+y,1/2+x,1/2-z
1/2-y,1/2-x,1/2-z
-x,-y,-z
y,-x,1/2-z
x,y,-z
-y,x,1/2-z
1/2-x,1/2+y,z
1/2+x,1/2-y,z
1/2-y,1/2-x,1/2+z
1/2+y,1/2+x,1/2+z
loop_
_atom_site_type_symbol
_atom_site_label
_atom_site_fract_x
_atom_site_fract_y
_atom_site_fract_z
Si Si1 0.041049 0.212686 0.811265
Si Si2 0.399999 0.037537 0.328217
Si Si3 0.192420 0.692760 0.083599
Si Si4 0.132752 0.067379 0.085348
Si Si5 0.128683 0.151230 0.331887
O O1 0.065626 0.143510 0.877848
O O2 0.101974 0.209151 0.738844
O O3 0.045488 0.323545 0.827374
O O4 0.936523 0.179741 0.794987
O O5 0.409683 0.090318 0.250000
O O6 0.360097 0.101049 0.391717
O O7 0.500000 0.000000 0.353238
O O8 0.267872 0.613577 0.097924
O O9 0.209218 0.792406 0.123734
O O10 0.183948 0.721458 0.000000
O O11 0.126857 0.963851 0.120415
O O12 0.105912 0.057913 0.000000
#
# Coordination Sequence:
#
# PCOD8317606 Si02
#       5
#    16  16  16  16  16
#     4  11  23  38  66  96 127 168 220 270 343 399
#     4  10  23  42  64  92 124 164 219 275 331 400
#     4  10  24  42  63  92 128 177 220 266 337 399
#     4  11  24  40  62  95 134 172 218 273 330 397
#     4  11  22  41  66  95 134 169 220 281 331 403
#
# _framework density 21.285655999999999
#
# number of rings (size 3 to 8) (size 9 to 14) (size 15 to 20)
#    0.000    1.400    2.000    2.400    2.800   10.000 
#    0.000    2.000    0.000    0.000    0.000    0.000 
#    0.000    0.000    0.000    0.000    0.000    0.000 
#
# Total GULP energy -991133.163618 kJ/mol
# GULP energy per Si atom -12389.164545 kJ/mol
# Density = 2.123721 g / cm^3
# Si number density = 21.285656 Si / 1000 Ang^3
#
#
#
# Elastic Constant Matrix: (Units=GPa)
#
#
# Indices 1 2 3 4 5 6 
#
# 1 126.0347 34.5250 40.8105 0.0000 0.0000 0.0000
# 2 34.5250 126.0345 40.8105 0.0000 0.0000 0.0000
# 3 40.8105 40.8105 69.6195 0.0000 0.0000 0.0000
# 4 0.0000 0.0000 0.0000 34.9206 0.0000 0.0000
# 5 0.0000 0.0000 0.0000 0.0000 34.9207 0.0000
# 6 0.0000 0.0000 0.0000 0.0000 0.0000 -19.3624
#
#
#
# Elastic Compliance Matrix: (Units=1/GPa)
#
#
# Indices 1 2 3 4 5 6 
#
# 1 0.009900 -0.001028 -0.005201 0.000000 0.000000 0.000000
# 2 -0.001028 0.009900 -0.005201 0.000000 0.000000 0.000000
# 3 -0.005201 -0.005201 0.020461 0.000000 0.000000 0.000000
# 4 0.000000 0.000000 0.000000 0.028636 0.000000 0.000000
# 5 0.000000 0.000000 0.000000 0.000000 0.028636 0.000000
# 6 0.000000 0.000000 0.000000 0.000000 0.000000 -0.051647
#
#
# Mechanical properties :
#
#
# Convention : Reuss Voigt Hill
#
# Bulk Modulus (GPa) = 57.46398 61.55341 59.50870
# Shear Modulus (GPa) = 67.07234 23.79863 45.43549
#
# Velocity S-wave (km/s) = 5.61952 3.34737 4.62514
# Velocity P-wave (km/s) = 8.31628 6.62725 7.51934
#
# Compressibility (1/GPa) = 0.01740220
#
# Stress axis : x y z
#
# Youngs Moduli (GPa) = 101.01103 101.01081 48.87336
#
# Poissons Ratio (x) = 0.10383 0.25418
# Poissons Ratio (y) = 0.10383 0.25418
# Poissons Ratio (z) = 0.52533 0.52533
#
# Static dielectric constant tensor:
#      x y z
#    x 4.262600 0.000000 0.000000 
#    y 0.000000 4.262610 0.000000 
#    z 0.000000 0.000000 3.849960 
# 
# 
# High freq. dielectric constant tensor:
#      x y z
#    x 1.842660 0.000000 0.000000 
#    y 0.000000 1.842660 0.000000 
#    z 0.000000 0.000000 1.836020 
# 
# From -- ./inp_files/5220.got.cif
#   From: 2010.03.12/outbox.cif.g09.slc.cpg/sg135_3_cif.got.tgz:5220.got - 2010.04.06 18:31:24.
