data_PCOD8317448
_publ_section_title
;
Structure prediction by ZEFSAII (Michael W. Deem and Ramdas Pophale) SiO2 
 PCOD8317448
Probable space group: P 42/M B C
;
_chemical_formula_sum "Si O2"
_cell_formula_units_Z 80
_cell_length_a 17.274493
_cell_length_b 17.274493
_cell_length_c 12.077517
_cell_angle_alpha 90.000000
_cell_angle_beta 90.000000
_cell_angle_gamma 90.000000
_cell_volume 3604.029002
_symmetry_space_group_name_H-M "P 42/M B C"
_symmetry_group_IT_number 135
_symmetry_cell_setting 'tetragonal'
loop_
_space_group_symop_operation_xyz
x,y,z
-y,x,1/2+z
-x,-y,z
y,-x,1/2+z
1/2+x,1/2-y,-z
1/2-x,1/2+y,-z
1/2+y,1/2+x,1/2-z
1/2-y,1/2-x,1/2-z
-x,-y,-z
y,-x,1/2-z
x,y,-z
-y,x,1/2-z
1/2-x,1/2+y,z
1/2+x,1/2-y,z
1/2-y,1/2-x,1/2+z
1/2+y,1/2+x,1/2+z
loop_
_atom_site_type_symbol
_atom_site_label
_atom_site_fract_x
_atom_site_fract_y
_atom_site_fract_z
Si Si1 0.090096 0.171455 0.626271
Si Si2 0.653118 0.090601 0.128516
Si Si3 0.801878 0.936325 0.234850
Si Si4 0.085347 0.650948 0.631052
Si Si5 0.822192 0.501701 0.630253
O O1 0.106924 0.145017 0.500000
O O2 0.121228 0.259382 0.642975
O O3 0.133061 0.118183 0.714950
O O4 0.997640 0.163449 0.646544
O O5 0.585453 0.147095 0.179896
O O6 0.646899 0.003218 0.177130
O O7 0.631949 0.083039 0.000000
O O8 0.734692 0.883998 0.175478
O O9 0.766404 0.989313 0.334593
O O10 0.089249 0.651488 0.500000
O O11 0.132186 0.575695 0.674773
O O12 0.830400 0.505365 0.500000
#
# Coordination Sequence:
#
# PCOD8317448 Si02
#       5
#    16  16  16  16  16
#     4  10  23  44  66  90 126 164 212 274 327 384
#     4   8  16  34  60  87 123 166 199 246 317 381
#     4  11  22  40  61  89 121 171 220 265 320 375
#     4   9  18  34  57  89 127 163 207 257 312 382
#     4  10  19  34  57  92 129 164 205 253 308 379
#
# _framework density 22.197379999999999
#
# number of rings (size 3 to 8) (size 9 to 14) (size 15 to 20)
#    0.000    2.400    0.000    3.600    0.000    6.000 
#    7.200    9.000    0.000    0.000    0.000    0.000 
#    0.000    0.000    0.000    0.000    0.000    0.000 
#
# Total GULP energy -991853.747819 kJ/mol
# GULP energy per Si atom -12398.171848 kJ/mol
# Density = 2.214686 g / cm^3
# Si number density = 22.197380 Si / 1000 Ang^3
#
#
#
# Elastic Constant Matrix: (Units=GPa)
#
#
# Indices 1 2 3 4 5 6 
#
# 1 81.7143 46.1518 39.2500 0.0000 0.0000 0.0000
# 2 46.1518 81.7143 39.2500 0.0000 0.0000 0.0000
# 3 39.2500 39.2500 87.1886 0.0000 0.0000 0.0000
# 4 0.0000 0.0000 0.0000 41.6890 0.0000 0.0000
# 5 0.0000 0.0000 0.0000 0.0000 41.6890 0.0000
# 6 0.0000 0.0000 0.0000 0.0000 0.0000 35.0481
#
#
#
# Elastic Compliance Matrix: (Units=1/GPa)
#
#
# Indices 1 2 3 4 5 6 
#
# 1 0.019464 -0.008656 -0.004865 0.000000 0.000000 0.000000
# 2 -0.008656 0.019464 -0.004865 0.000000 0.000000 0.000000
# 3 -0.004865 -0.004865 0.015850 0.000000 0.000000 0.000000
# 4 0.000000 0.000000 0.000000 0.023987 0.000000 0.000000
# 5 0.000000 0.000000 0.000000 0.000000 0.023987 0.000000
# 6 0.000000 0.000000 0.000000 0.000000 0.000000 0.028532
#
#
# Mechanical properties :
#
#
# Convention : Reuss Voigt Hill
#
# Bulk Modulus (GPa) = 55.54366 55.54678 55.54522
# Shear Modulus (GPa) = 28.72608 32.08290 30.40449
#
# Velocity S-wave (km/s) = 3.60129 3.80590 3.70501
# Velocity P-wave (km/s) = 6.50917 6.66269 6.58638
#
# Compressibility (1/GPa) = 0.01800385
#
# Stress axis : x y z
#
# Youngs Moduli (GPa) = 51.37809 51.37809 63.09203
#
# Poissons Ratio (x) = 0.44473 0.30696
# Poissons Ratio (y) = 0.44473 0.30696
# Poissons Ratio (z) = 0.24997 0.24997
#
# Static dielectric constant tensor:
#      x y z
#    x 3.788180 0.000000 0.000000 
#    y 0.000000 3.788180 0.000000 
#    z 0.000000 0.000000 4.502530 
# 
# 
# High freq. dielectric constant tensor:
#      x y z
#    x 1.847860 0.000000 0.000000 
#    y 0.000000 1.847860 0.000000 
#    z 0.000000 0.000000 1.945730 
# 
# From -- ./inp_files/3411.got.cif
#   From: 2010.03.12/outbox.cif.g09.slc.cpg/sg135_2_cif.got.tgz:3411.got - 2010.04.06 18:31:24.
