data_PCOD8317873
_publ_section_title
;
Structure prediction by ZEFSAII (Michael W. Deem and Ramdas Pophale) SiO2 
 PCOD8317873
Probable space group: P 42/M N M
;
_chemical_formula_sum "Si O2"
_cell_formula_units_Z 96
_cell_length_a 15.416802
_cell_length_b 15.416802
_cell_length_c 23.500669
_cell_angle_alpha 90.000000
_cell_angle_beta 90.000000
_cell_angle_gamma 90.000000
_cell_volume 5585.586928
_symmetry_space_group_name_H-M "P 42/M N M"
_symmetry_group_IT_number 136
_symmetry_cell_setting 'tetragonal'
loop_
_space_group_symop_operation_xyz
x,y,z
1/2-y,1/2+x,1/2+z
-x,-y,z
1/2+y,1/2-x,1/2+z
1/2+x,1/2-y,1/2-z
1/2-x,1/2+y,1/2-z
y,x,-z
-y,-x,-z
-x,-y,-z
1/2+y,1/2-x,1/2-z
x,y,-z
1/2-y,1/2+x,1/2-z
1/2-x,1/2+y,1/2+z
1/2+x,1/2-y,1/2+z
-y,-x,z
y,x,z
loop_
_atom_site_type_symbol
_atom_site_label
_atom_site_fract_x
_atom_site_fract_y
_atom_site_fract_z
Si Si1 0.952609 0.807706 0.064197
Si Si2 0.926167 0.073834 0.262872
Si Si3 0.498930 0.639850 0.063295
Si Si4 0.543362 0.743788 0.835147
Si Si5 0.461378 0.867205 0.753204
Si Si6 0.647308 0.213739 0.343763
Si Si7 0.072668 0.927333 0.869632
O O1 0.886516 0.886516 0.059458
O O2 0.907618 0.727679 0.098117
O O3 0.038058 0.840877 0.098276
O O4 0.977673 0.776992 0.000000
O O5 0.836681 0.044768 0.291860
O O6 0.906987 0.093014 0.196497
O O7 0.000000 0.000000 0.271637
O O8 0.405898 0.594103 0.065367
O O9 0.572728 0.572728 0.083462
O O10 0.499374 0.720237 0.105304
O O11 0.518597 0.673612 0.000000
O O12 0.478938 0.815534 0.810732
O O13 0.637580 0.782468 0.849540
O O14 0.400205 0.946683 0.771314
O O15 0.418991 0.804886 0.706859
O O16 0.697370 0.302631 0.328587
O O17 0.000000 0.000000 0.872022
#
# Coordination Sequence:
#
# PCOD8317873 Si02
#       7
#    16   8  16  16  16  16   8
#     4   9  17  29  46  69  98 130 162 200 252 307
#     4  11  20  29  47  79 111 137 165 207 261 312
#     4   9  17  29  45  69 103 138 170 209 256 308
#     4  11  19  31  49  73 103 136 172 211 258 306
#     4   9  20  36  53  71 100 139 175 211 256 315
#     4  10  19  32  49  74 103 128 167 217 260 302
#     4   9  17  28  43  67  98 129 162 203 247 300
#
# _framework density 17.187093000000001
#
# number of rings (size 3 to 8) (size 9 to 14) (size 15 to 20)
#    0.000    2.333    1.667    2.250    0.000    4.333 
#    0.000    1.667    0.000    1.000    0.000    4.667 
#    0.000    0.000    0.000    0.000    0.000    0.000 
#
# Total GULP energy -1190085.414987 kJ/mol
# GULP energy per Si atom -12396.723073 kJ/mol
# Density = 1.714797 g / cm^3
# Si number density = 17.187093 Si / 1000 Ang^3
#
#
#
# Elastic Constant Matrix: (Units=GPa)
#
#
# Indices 1 2 3 4 5 6 
#
# 1 72.4817 47.3651 59.7990 0.0000 0.0000 0.0000
# 2 47.3651 72.4817 59.7990 0.0000 0.0000 0.0000
# 3 59.7990 59.7990 134.7117 0.0000 0.0000 0.0000
# 4 0.0000 0.0000 0.0000 17.0380 0.0000 0.0000
# 5 0.0000 0.0000 0.0000 0.0000 17.0380 0.0000
# 6 0.0000 0.0000 0.0000 0.0000 0.0000 23.7823
#
#
#
# Elastic Compliance Matrix: (Units=1/GPa)
#
#
# Indices 1 2 3 4 5 6 
#
# 1 0.027397 -0.012417 -0.006650 0.000000 0.000000 0.000000
# 2 -0.012417 0.027397 -0.006650 0.000000 0.000000 0.000000
# 3 -0.006650 -0.006650 0.013327 0.000000 0.000000 0.000000
# 4 0.000000 0.000000 0.000000 0.058692 0.000000 0.000000
# 5 0.000000 0.000000 0.000000 0.000000 0.058692 0.000000
# 6 0.000000 0.000000 0.000000 0.000000 0.000000 0.042048
#
#
# Mechanical properties :
#
#
# Convention : Reuss Voigt Hill
#
# Bulk Modulus (GPa) = 59.92324 68.17794 64.05059
# Shear Modulus (GPa) = 17.57165 19.08578 18.32871
#
# Velocity S-wave (km/s) = 3.20093 3.33599 3.26916
# Velocity P-wave (km/s) = 6.97153 7.38868 7.18313
#
# Compressibility (1/GPa) = 0.01668802
#
# Stress axis : x y z
#
# Youngs Moduli (GPa) = 36.50032 36.50032 75.03691
#
# Poissons Ratio (x) = 0.45324 0.49896
# Poissons Ratio (y) = 0.45324 0.49896
# Poissons Ratio (z) = 0.24271 0.24271
#
# Static dielectric constant tensor:
#      x y z
#    x 3.133290 0.000000 0.000000 
#    y 0.000000 3.133290 0.000000 
#    z 0.000000 0.000000 3.329860 
# 
# 
# High freq. dielectric constant tensor:
#      x y z
#    x 1.647690 0.000000 0.000000 
#    y 0.000000 1.647690 0.000000 
#    z 0.000000 0.000000 1.667370 
# 
# From -- ./inp_files/9123.got.cif
#   From: 2010.03.12/outbox.cif.g09.slc.cpg/sg136_5_cif.got.tgz:9123.got - 2010.04.06 18:39:43.
