data_PCOD8317435
_publ_section_title
;
Structure prediction by ZEFSAII (Michael W. Deem and Ramdas Pophale) SiO2 
 PCOD8317435
Probable space group: P 42/M B C
;
_chemical_formula_sum "Si O2"
_cell_formula_units_Z 80
_cell_length_a 16.857448
_cell_length_b 16.857448
_cell_length_c 14.507898
_cell_angle_alpha 90.000000
_cell_angle_beta 90.000000
_cell_angle_gamma 90.000000
_cell_volume 4122.760922
_symmetry_space_group_name_H-M "P 42/M B C"
_symmetry_group_IT_number 135
_symmetry_cell_setting 'tetragonal'
loop_
_space_group_symop_operation_xyz
x,y,z
-y,x,1/2+z
-x,-y,z
y,-x,1/2+z
1/2+x,1/2-y,-z
1/2-x,1/2+y,-z
1/2+y,1/2+x,1/2-z
1/2-y,1/2-x,1/2-z
-x,-y,-z
y,-x,1/2-z
x,y,-z
-y,x,1/2-z
1/2-x,1/2+y,z
1/2+x,1/2-y,z
1/2-y,1/2-x,1/2+z
1/2+y,1/2+x,1/2+z
loop_
_atom_site_type_symbol
_atom_site_label
_atom_site_fract_x
_atom_site_fract_y
_atom_site_fract_z
Si Si1 0.595554 0.809700 0.393420
Si Si2 0.192882 0.178320 0.227731
Si Si3 0.920841 0.723279 0.104765
Si Si4 0.743016 0.397177 0.398544
Si Si5 0.542845 0.077616 0.609015
O O1 0.592785 0.786838 0.500000
O O2 0.609356 0.730182 0.335821
O O3 0.667979 0.869581 0.372284
O O4 0.511424 0.847427 0.362555
O O5 0.250598 0.249403 0.250000
O O6 0.118779 0.215170 0.175086
O O7 0.176790 0.136333 0.326955
O O8 0.912963 0.633304 0.144921
O O9 0.009302 0.754176 0.101825
O O10 0.884928 0.727370 0.000000
O O11 0.719092 0.365348 0.500000
O O12 0.547112 0.067058 0.500000
O O13 0.500000 0.000000 0.651489
#
# Coordination Sequence:
#
# PCOD8317435 Si02
#       5
#    16  16  16  16  16
#     4   9  16  30  51  77 113 150 179 215 273 337
#     4  10  21  33  49  76 111 145 186 228 277 336
#     4  10  19  33  56  84 112 143 183 230 280 338
#     4   9  18  34  55  74 102 145 187 227 275 331
#     4   9  15  27  52  85 116 146 179 216 269 343
#
# _framework density 19.404472999999999
#
# number of rings (size 3 to 8) (size 9 to 14) (size 15 to 20)
#    0.000    2.600    2.000    0.600    0.000    2.400 
#    0.000    0.000    0.000    3.000    0.000    2.800 
#    0.000    0.800    0.000    0.000    0.000    0.000 
#
# Total GULP energy -991314.465006 kJ/mol
# GULP energy per Si atom -12391.430813 kJ/mol
# Density = 1.936031 g / cm^3
# Si number density = 19.404473 Si / 1000 Ang^3
#
#
#
# Elastic Constant Matrix: (Units=GPa)
#
#
# Indices 1 2 3 4 5 6 
#
# 1 70.8474 46.9106 49.4600 0.0000 0.0000 0.0000
# 2 46.9106 70.8479 49.4603 0.0000 0.0000 0.0000
# 3 49.4600 49.4603 102.6010 0.0000 0.0000 0.0000
# 4 0.0000 0.0000 0.0000 18.8846 0.0000 0.0000
# 5 0.0000 0.0000 0.0000 0.0000 18.8843 0.0000
# 6 0.0000 0.0000 0.0000 0.0000 0.0000 26.6472
#
#
#
# Elastic Compliance Matrix: (Units=1/GPa)
#
#
# Indices 1 2 3 4 5 6 
#
# 1 0.028024 -0.013753 -0.006879 0.000000 0.000000 0.000000
# 2 -0.013753 0.028024 -0.006880 0.000000 0.000000 0.000000
# 3 -0.006879 -0.006880 0.016379 0.000000 0.000000 0.000000
# 4 0.000000 0.000000 0.000000 0.052953 0.000000 0.000000
# 5 0.000000 0.000000 0.000000 0.000000 0.052954 0.000000
# 6 0.000000 0.000000 0.000000 0.000000 0.000000 0.037527
#
#
# Mechanical properties :
#
#
# Convention : Reuss Voigt Hill
#
# Bulk Modulus (GPa) = 57.46100 59.55091 58.50595
# Shear Modulus (GPa) = 18.07108 19.44760 18.75934
#
# Velocity S-wave (km/s) = 3.05501 3.16922 3.11264
# Velocity P-wave (km/s) = 6.49004 6.64439 6.56767
#
# Compressibility (1/GPa) = 0.01740311
#
# Stress axis : x y z
#
# Youngs Moduli (GPa) = 35.68416 35.68426 61.05306
#
# Poissons Ratio (x) = 0.49075 0.42001
# Poissons Ratio (y) = 0.49075 0.42002
# Poissons Ratio (z) = 0.24549 0.24549
#
# Static dielectric constant tensor:
#      x y z
#    x 3.360990 0.000000 0.000000 
#    y 0.000000 3.360990 0.000000 
#    z 0.000000 0.000000 4.151270 
# 
# 
# High freq. dielectric constant tensor:
#      x y z
#    x 1.722530 0.000000 0.000000 
#    y 0.000000 1.722530 0.000000 
#    z 0.000000 0.000000 1.770460 
# 
# From -- ./inp_files/3415.got.cif
#   From: 2010.03.12/outbox.cif.g09.slc.cpg/sg135_2_cif.got.tgz:3415.got - 2010.04.06 18:31:24.
