data_PCOD8317339
_publ_section_title
;
Structure prediction by ZEFSAII (Michael W. Deem and Ramdas Pophale) SiO2 
 PCOD8317339
Probable space group: P 42/N N M
;
_chemical_formula_sum "Si O2"
_cell_formula_units_Z 34
_cell_length_a 13.481573
_cell_length_b 13.481573
_cell_length_c 7.999928
_cell_angle_alpha 90.000000
_cell_angle_beta 90.000000
_cell_angle_gamma 90.000000
_cell_volume 1454.009398
_symmetry_space_group_name_H-M "P 42/N N M"
_symmetry_group_IT_number 134
_space_group.IT_coordinate_system_code '2'
_symmetry_cell_setting 'tetragonal'
loop_
_space_group_symop_operation_xyz
x,y,z
1/2-y,x,1/2+z
1/2-x,1/2-y,z
y,1/2-x,1/2+z
x,1/2-y,1/2-z
1/2-x,y,1/2-z
y,x,-z
1/2-y,1/2-x,-z
-x,-y,-z
1/2+y,-x,1/2-z
1/2+x,1/2+y,-z
-y,1/2+x,1/2-z
-x,1/2+y,1/2+z
1/2+x,-y,1/2+z
-y,-x,z
1/2+y,1/2+x,z
loop_
_atom_site_type_symbol
_atom_site_label
_atom_site_fract_x
_atom_site_fract_y
_atom_site_fract_z
Si Si1 0.250000 0.750000 0.750000
Si Si2 0.250000 0.033817 0.250000
Si Si3 0.419559 0.919559 0.052369
Si Si4 0.391857 0.391857 0.000000
Si Si5 0.100480 0.600480 0.675367
O O1 0.182224 0.682224 0.620011
O O2 0.202349 0.109649 0.119059
O O3 0.333583 0.965625 0.166466
O O4 0.382064 0.882064 0.874137
O O5 0.500000 0.000000 0.000000
O O6 0.490417 0.378260 0.111561
#
# Coordination Sequence:
#
# PCOD8317339 Si02
#       5
#     2   8   8   8   8
#     4  12  24  40  80 106 140 192 248 326 396 456
#     4  12  26  47  83 110 160 210 268 330 410 474
#     4  12  24  50  78 115 156 206 261 348 389 489
#     4  11  24  46  75 110 156 210 262 328 398 497
#     4  11  23  46  75 113 154 192 257 337 406 462
#
# _framework density 23.383616
#
# number of rings (size 3 to 8) (size 9 to 14) (size 15 to 20)
#    0.000    0.471    4.706    4.235    0.000    2.353 
#    0.000    3.529    0.000    0.000    0.000    0.000 
#    0.000    0.000    0.000    0.000    0.000    0.000 
#
# Total GULP energy -421301.119120 kJ/mol
# GULP energy per Si atom -12391.209386 kJ/mol
# Density = 2.333039 g / cm^3
# Si number density = 23.383616 Si / 1000 Ang^3
#
#
#
# Elastic Constant Matrix: (Units=GPa)
#
#
# Indices 1 2 3 4 5 6 
#
# 1 -168.8134 418.0261 73.7281 0.0000 0.0000 0.0000
# 2 418.0261 -168.8134 73.7281 0.0000 0.0000 0.0000
# 3 73.7281 73.7281 162.9254 0.0000 0.0000 0.0000
# 4 0.0000 0.0000 0.0000 39.1374 0.0000 0.0000
# 5 0.0000 0.0000 0.0000 0.0000 39.1374 0.0000
# 6 0.0000 0.0000 0.0000 0.0000 0.0000 58.5638
#
#
#
# Elastic Compliance Matrix: (Units=1/GPa)
#
#
# Indices 1 2 3 4 5 6 
#
# 1 0.001888 0.003592 -0.002480 0.000000 0.000000 0.000000
# 2 0.003592 0.001888 -0.002480 0.000000 0.000000 0.000000
# 3 -0.002480 -0.002480 0.008382 0.000000 0.000000 0.000000
# 4 0.000000 0.000000 0.000000 0.025551 0.000000 0.000000
# 5 0.000000 0.000000 0.000000 0.000000 0.025551 0.000000
# 6 0.000000 0.000000 0.000000 0.000000 0.000000 0.017075
#
#
# Mechanical properties :
#
#
# Convention : Reuss Voigt Hill
#
# Bulk Modulus (GPa) = 106.12634 106.25146 106.18890
# Shear Modulus (GPa) = 57.99680 -21.97788 18.00946
#
# Velocity S-wave (km/s) = 4.98560 -3.06908 2.77821
# Velocity P-wave (km/s) = 8.86707 5.74265 7.47004
#
# Compressibility (1/GPa) = 0.00942273
#
# Stress axis : x y z
#
# Youngs Moduli (GPa) = 529.67983 529.67983 119.30131
#
# Poissons Ratio (x) = -1.90260 0.29584
# Poissons Ratio (y) = -1.90260 0.29584
# Poissons Ratio (z) = 1.31350 1.31350
#
# Static dielectric constant tensor:
#      x y z
#    x 4.467710 0.000000 0.000000 
#    y 0.000000 4.467710 0.000000 
#    z 0.000000 0.000000 8.422440 
# 
# 
# High freq. dielectric constant tensor:
#      x y z
#    x 1.931510 0.000000 0.000000 
#    y 0.000000 1.931510 0.000000 
#    z 0.000000 0.000000 1.934870 
# 
# From -- ./inp_files/1689.got.cif
#   From: 2010.03.12/outbox.cif.g09.slc.cpg/sg134_1_cif.got.tgz:1689.got - 2010.04.06 18:17:22.
