data_PCOD8317635
_publ_section_title
;
Structure prediction by ZEFSAII (Michael W. Deem and Ramdas Pophale) SiO2 
 PCOD8317635
Probable space group: P 42/M B C
;
_chemical_formula_sum "Si O2"
_cell_formula_units_Z 96
_cell_length_a 23.589123
_cell_length_b 23.589123
_cell_length_c 8.653000
_cell_angle_alpha 90.000000
_cell_angle_beta 90.000000
_cell_angle_gamma 90.000000
_cell_volume 4814.933502
_symmetry_space_group_name_H-M "P 42/M B C"
_symmetry_group_IT_number 135
_symmetry_cell_setting 'tetragonal'
loop_
_space_group_symop_operation_xyz
x,y,z
-y,x,1/2+z
-x,-y,z
y,-x,1/2+z
1/2+x,1/2-y,-z
1/2-x,1/2+y,-z
1/2+y,1/2+x,1/2-z
1/2-y,1/2-x,1/2-z
-x,-y,-z
y,-x,1/2-z
x,y,-z
-y,x,1/2-z
1/2-x,1/2+y,z
1/2+x,1/2-y,z
1/2-y,1/2-x,1/2+z
1/2+y,1/2+x,1/2+z
loop_
_atom_site_type_symbol
_atom_site_label
_atom_site_fract_x
_atom_site_fract_y
_atom_site_fract_z
Si Si1 0.098680 0.116951 0.672225
Si Si2 0.498851 0.653892 0.173059
Si Si3 0.296612 0.325911 0.321808
Si Si4 0.136646 0.720588 0.817011
Si Si5 0.010160 0.730236 0.319009
Si Si6 0.812744 0.603887 0.683657
O O1 0.094782 0.142644 0.500000
O O2 0.036705 0.103329 0.744246
O O3 0.122698 0.160701 0.796232
O O4 0.138595 0.063670 0.668060
O O5 0.488734 0.706845 0.284216
O O6 0.477448 0.667244 0.000000
O O7 0.294245 0.307682 0.500000
O O8 0.320982 0.272295 0.227325
O O9 0.236432 0.351206 0.263755
O O10 0.162816 0.662816 0.750000
O O11 0.072222 0.723484 0.756751
O O12 0.133806 0.718567 0.000000
O O13 0.016006 0.718894 0.500000
O O14 0.960210 0.690968 0.250227
O O15 0.871393 0.628608 0.750000
O O16 0.813635 0.599302 0.500000
#
# Coordination Sequence:
#
# PCOD8317635 Si02
#       6
#    16  16  16  16  16  16
#     4  11  23  37  58  84 116 160 209 260 309 361
#     4  11  23  39  58  83 117 159 209 260 309 362
#     4  11  22  37  61  91 126 164 204 252 308 363
#     4  12  25  42  64  93 129 163 206 253 306 366
#     4  12  24  40  65  91 121 162 205 248 307 367
#     4  11  24  41  63  93 128 163 204 252 304 363
#
# _framework density 19.937971999999998
#
# number of rings (size 3 to 8) (size 9 to 14) (size 15 to 20)
#    0.000    0.667    3.333    5.500    0.000    5.667 
#    0.000    1.667    0.000    0.500    0.000    3.500 
#    0.000    0.000    0.000    0.000    0.000    0.000 
#
# Total GULP energy -1189766.348488 kJ/mol
# GULP energy per Si atom -12393.399463 kJ/mol
# Density = 1.989259 g / cm^3
# Si number density = 19.937972 Si / 1000 Ang^3
#
#
#
# Elastic Constant Matrix: (Units=GPa)
#
#
# Indices 1 2 3 4 5 6 
#
# 1 66.9819 49.2447 43.8871 0.0000 0.0000 0.0000
# 2 49.2447 66.9862 43.8880 0.0000 0.0000 0.0000
# 3 43.8871 43.8880 129.3224 0.0000 0.0000 0.0000
# 4 0.0000 0.0000 0.0000 32.3787 0.0000 0.0000
# 5 0.0000 0.0000 0.0000 0.0000 32.3783 0.0000
# 6 0.0000 0.0000 0.0000 0.0000 0.0000 27.7522
#
#
#
# Elastic Compliance Matrix: (Units=1/GPa)
#
#
# Indices 1 2 3 4 5 6 
#
# 1 0.033971 -0.022402 -0.003926 0.000000 0.000000 0.000000
# 2 -0.022402 0.033969 -0.003926 0.000000 0.000000 0.000000
# 3 -0.003926 -0.003926 0.010397 0.000000 0.000000 0.000000
# 4 0.000000 0.000000 0.000000 0.030885 0.000000 0.000000
# 5 0.000000 0.000000 0.000000 0.000000 0.030885 0.000000
# 6 0.000000 0.000000 0.000000 0.000000 0.000000 0.036033
#
#
# Mechanical properties :
#
#
# Convention : Reuss Voigt Hill
#
# Bulk Modulus (GPa) = 56.08347 59.70334 57.89341
# Shear Modulus (GPa) = 20.61085 26.91989 23.76537
#
# Velocity S-wave (km/s) = 3.21868 3.67847 3.45623
# Velocity P-wave (km/s) = 6.48099 6.93189 6.71023
#
# Compressibility (1/GPa) = 0.01783057
#
# Stress axis : x y z
#
# Youngs Moduli (GPa) = 29.43658 29.43868 96.17884
#
# Poissons Ratio (x) = 0.65947 0.37762
# Poissons Ratio (y) = 0.65942 0.37757
# Poissons Ratio (z) = 0.11557 0.11557
#
# Static dielectric constant tensor:
#      x y z
#    x 3.739990 0.000000 0.000000 
#    y 0.000000 3.739980 0.000000 
#    z 0.000000 0.000000 3.744530 
# 
# 
# High freq. dielectric constant tensor:
#      x y z
#    x 1.770360 0.000000 0.000000 
#    y 0.000000 1.770360 0.000000 
#    z 0.000000 0.000000 1.796540 
# 
# From -- ./inp_files/1201.got.cif
#   From: 2010.03.12/outbox.cif.g09.slc.cpg/sg135_1_cif.got.tgz:1201.got - 2010.04.06 18:31:24.
