data_PCOD8317777
_publ_section_title
;
Structure prediction by ZEFSAII (Michael W. Deem and Ramdas Pophale) SiO2 
 PCOD8317777
Probable space group: P 42/M N M
;
_chemical_formula_sum "Si O2"
_cell_formula_units_Z 112
_cell_length_a 16.549528
_cell_length_b 16.549528
_cell_length_c 22.055966
_cell_angle_alpha 90.000000
_cell_angle_beta 90.000000
_cell_angle_gamma 90.000000
_cell_volume 6040.839647
_symmetry_space_group_name_H-M "P 42/M N M"
_symmetry_group_IT_number 136
_symmetry_cell_setting 'tetragonal'
loop_
_space_group_symop_operation_xyz
x,y,z
1/2-y,1/2+x,1/2+z
-x,-y,z
1/2+y,1/2-x,1/2+z
1/2+x,1/2-y,1/2-z
1/2-x,1/2+y,1/2-z
y,x,-z
-y,-x,-z
-x,-y,-z
1/2+y,1/2-x,1/2-z
x,y,-z
1/2-y,1/2+x,1/2-z
1/2-x,1/2+y,1/2+z
1/2+x,1/2-y,1/2+z
-y,-x,z
y,x,z
loop_
_atom_site_type_symbol
_atom_site_label
_atom_site_fract_x
_atom_site_fract_y
_atom_site_fract_z
Si Si1 0.482839 0.187262 0.615416
Si Si2 0.670135 0.545275 0.770446
Si Si3 0.452906 0.081966 0.138237
Si Si4 0.906408 0.659752 0.568305
Si Si5 0.834503 0.600798 0.258342
Si Si6 0.000111 0.130322 0.137744
Si Si7 0.741293 0.389156 0.180739
O O1 0.565106 0.134815 0.607016
O O2 0.414976 0.156672 0.568554
O O3 0.455480 0.161869 0.682815
O O4 0.499239 0.282352 0.604830
O O5 0.593815 0.593815 0.798479
O O6 0.739423 0.611882 0.756422
O O7 0.642728 0.499501 0.709640
O O8 0.702850 0.478308 0.816628
O O9 0.504525 0.135745 0.091767
O O10 0.445895 0.125567 0.202613
O O11 0.500000 0.000000 0.150962
O O12 0.912976 0.692734 0.500000
O O13 0.872488 0.729783 0.612101
O O14 0.879112 0.685429 0.271356
O O15 0.080970 0.080970 0.119332
O O16 0.920584 0.079417 0.118007
O O17 0.675218 0.324783 0.199587
#
# Coordination Sequence:
#
# PCOD8317777 Si02
#       7
#    16  16  16  16  16  16  16
#     4   9  20  29  52  82 109 145 179 227 273 335
#     4  10  19  32  50  76 111 148 179 217 274 333
#     4  10  20  30  52  80 110 146 177 231 281 344
#     4  10  22  39  55  78 110 149 191 233 279 330
#     4  10  18  32  50  80 116 142 172 219 282 341
#     4   9  17  31  51  78 116 153 181 216 273 345
#     4  11  22  35  54  82 110 144 188 233 276 335
#
# _framework density 18.540469000000002
#
# number of rings (size 3 to 8) (size 9 to 14) (size 15 to 20)
#    0.000    2.143    1.429    2.571    4.000    7.143 
#    0.000    0.714    0.000    0.857    0.000    2.000 
#    0.000    0.000    0.000    0.000    0.000    0.000 
#
# Total GULP energy -1388316.513772 kJ/mol
# GULP energy per Si atom -12395.683159 kJ/mol
# Density = 1.849827 g / cm^3
# Si number density = 18.540469 Si / 1000 Ang^3
#
#
#
# Elastic Constant Matrix: (Units=GPa)
#
#
# Indices 1 2 3 4 5 6 
#
# 1 95.4785 37.7683 14.5063 0.0000 0.0000 0.0000
# 2 37.7683 95.4785 14.5063 0.0000 0.0000 0.0000
# 3 14.5063 14.5063 66.2926 0.0000 0.0000 0.0000
# 4 0.0000 0.0000 0.0000 12.7983 0.0000 0.0000
# 5 0.0000 0.0000 0.0000 0.0000 12.7983 0.0000
# 6 0.0000 0.0000 0.0000 0.0000 0.0000 27.5896
#
#
#
# Elastic Compliance Matrix: (Units=1/GPa)
#
#
# Indices 1 2 3 4 5 6 
#
# 1 0.012604 -0.004724 -0.001724 0.000000 0.000000 0.000000
# 2 -0.004724 0.012604 -0.001724 0.000000 0.000000 0.000000
# 3 -0.001724 -0.001724 0.015839 0.000000 0.000000 0.000000
# 4 0.000000 0.000000 0.000000 0.078135 0.000000 0.000000
# 5 0.000000 0.000000 0.000000 0.000000 0.078135 0.000000
# 6 0.000000 0.000000 0.000000 0.000000 0.000000 0.036246
#
#
# Mechanical properties :
#
#
# Convention : Reuss Voigt Hill
#
# Bulk Modulus (GPa) = 40.48190 43.42350 41.95270
# Shear Modulus (GPa) = 19.36908 23.33515 21.35212
#
# Velocity S-wave (km/s) = 3.23568 3.55153 3.39728
# Velocity P-wave (km/s) = 5.98675 6.34741 6.16972
#
# Compressibility (1/GPa) = 0.02470240
#
# Stress axis : x y z
#
# Youngs Moduli (GPa) = 79.33904 79.33904 63.13406
#
# Poissons Ratio (x) = 0.37478 0.10887
# Poissons Ratio (y) = 0.37478 0.10887
# Poissons Ratio (z) = 0.13681 0.13681
#
# Static dielectric constant tensor:
#      x y z
#    x 3.568380 0.000000 0.000000 
#    y 0.000000 3.568380 0.000000 
#    z 0.000000 0.000000 2.955640 
# 
# 
# High freq. dielectric constant tensor:
#      x y z
#    x 1.720600 0.000000 0.000000 
#    y 0.000000 1.720600 0.000000 
#    z 0.000000 0.000000 1.670320 
# 
# From -- ./inp_files/7754.got.cif
#   From: 2010.03.12/outbox.cif.g09.slc.cpg/sg136_4_cif.got.tgz:7754.got - 2010.04.06 18:39:43.
