data_PCOD8317671
_publ_section_title
;
Structure prediction by ZEFSAII (Michael W. Deem and Ramdas Pophale) SiO2 
 PCOD8317671
Probable space group: P 42/M N M
;
_chemical_formula_sum "Si O2"
_cell_formula_units_Z 80
_cell_length_a 19.275646
_cell_length_b 19.275646
_cell_length_c 16.983631
_cell_angle_alpha 90.000000
_cell_angle_beta 90.000000
_cell_angle_gamma 90.000000
_cell_volume 6310.277078
_symmetry_space_group_name_H-M "P 42/M N M"
_symmetry_group_IT_number 136
_symmetry_cell_setting 'tetragonal'
loop_
_space_group_symop_operation_xyz
x,y,z
1/2-y,1/2+x,1/2+z
-x,-y,z
1/2+y,1/2-x,1/2+z
1/2+x,1/2-y,1/2-z
1/2-x,1/2+y,1/2-z
y,x,-z
-y,-x,-z
-x,-y,-z
1/2+y,1/2-x,1/2-z
x,y,-z
1/2-y,1/2+x,1/2-z
1/2-x,1/2+y,1/2+z
1/2+x,1/2-y,1/2+z
-y,-x,z
y,x,z
loop_
_atom_site_type_symbol
_atom_site_label
_atom_site_fract_x
_atom_site_fract_y
_atom_site_fract_z
Si Si1 0.496514 0.612733 0.500000
Si Si2 0.849378 0.966182 0.689365
Si Si3 0.667247 0.550993 0.343104
Si Si4 0.875221 0.758845 0.411664
Si Si5 0.558056 0.558056 0.912256
Si Si6 0.349216 0.233052 0.412393
O O1 0.552807 0.552807 0.500000
O O2 0.419531 0.580470 0.500000
O O3 0.506391 0.658505 0.577722
O O4 0.908966 0.908966 0.703131
O O5 0.780203 0.935182 0.649139
O O6 0.826337 0.997346 0.772250
O O7 0.875955 0.027944 0.633582
O O8 0.602311 0.602311 0.328917
O O9 0.740237 0.592449 0.351425
O O10 0.905660 0.749053 0.500000
O O11 0.820226 0.820226 0.414328
O O12 0.838185 0.687387 0.382933
O O13 0.500000 0.500000 0.918518
O O14 0.580973 0.580973 0.000000
O O15 0.380899 0.221860 0.500000
O O16 0.292127 0.292127 0.419571
#
# Coordination Sequence:
#
# PCOD8317671 Si02
#       6
#     8  16  16  16   8  16
#     4   9  16  22  30  44  70 106 128 142 171 211
#     4  10  17  23  32  50  76 101 125 149 179 217
#     4  10  16  23  33  49  74  99 126 152 179 213
#     4   8  14  24  37  50  67  93 126 160 189 213
#     4   9  16  24  32  43  69 105 129 144 170 213
#     4   8  13  23  37  50  65  91 126 160 188 211
#
# _framework density 12.677732000000001
#
# number of rings (size 3 to 8) (size 9 to 14) (size 15 to 20)
#    0.000    3.000    2.000    2.400    0.000    3.200 
#    0.000    0.000    0.000    0.000    0.000    0.000 
#    6.000    0.800    0.000    4.400    0.000    0.400 
#
# Total GULP energy -991329.259655 kJ/mol
# GULP energy per Si atom -12391.615746 kJ/mol
# Density = 1.264888 g / cm^3
# Si number density = 12.677732 Si / 1000 Ang^3
#
#
#
# Elastic Constant Matrix: (Units=GPa)
#
#
# Indices 1 2 3 4 5 6 
#
# 1 48.4003 39.0431 43.2631 0.0000 0.0000 0.0000
# 2 39.0431 48.4001 43.2630 0.0000 0.0000 0.0000
# 3 43.2631 43.2630 106.0562 0.0000 0.0000 0.0000
# 4 0.0000 0.0000 0.0000 8.1420 0.0000 0.0000
# 5 0.0000 0.0000 0.0000 0.0000 8.1417 0.0000
# 6 0.0000 0.0000 0.0000 0.0000 0.0000 21.6242
#
#
#
# Elastic Compliance Matrix: (Units=1/GPa)
#
#
# Indices 1 2 3 4 5 6 
#
# 1 0.063024 -0.043847 -0.007823 0.000000 0.000000 0.000000
# 2 -0.043847 0.063024 -0.007823 0.000000 0.000000 0.000000
# 3 -0.007823 -0.007823 0.015811 0.000000 0.000000 0.000000
# 4 0.000000 0.000000 0.000000 0.122820 0.000000 0.000000
# 5 0.000000 0.000000 0.000000 0.000000 0.122824 0.000000
# 6 0.000000 0.000000 0.000000 0.000000 0.000000 0.046245
#
#
# Mechanical properties :
#
#
# Convention : Reuss Voigt Hill
#
# Bulk Modulus (GPa) = 43.71830 50.44388 47.08109
# Shear Modulus (GPa) = 8.92290 12.73408 10.82849
#
# Velocity S-wave (km/s) = 2.65585 3.17274 2.92573
# Velocity P-wave (km/s) = 6.63053 7.30051 6.97357
#
# Compressibility (1/GPa) = 0.02287371
#
# Stress axis : x y z
#
# Youngs Moduli (GPa) = 15.86709 15.86705 63.24690
#
# Poissons Ratio (x) = 0.69572 0.49476
# Poissons Ratio (y) = 0.69573 0.49475
# Poissons Ratio (z) = 0.12412 0.12412
#
# Static dielectric constant tensor:
#      x y z
#    x 2.475500 0.000000 0.000000 
#    y 0.000000 2.475510 0.000000 
#    z 0.000000 0.000000 2.634000 
# 
# 
# High freq. dielectric constant tensor:
#      x y z
#    x 1.445140 0.000000 0.000000 
#    y 0.000000 1.445140 0.000000 
#    z 0.000000 0.000000 1.483610 
# 
# From -- ./inp_files/5162.got.cif
#   From: 2010.03.12/outbox.cif.g09.slc.cpg/sg136_3_cif.got.tgz:5162.got - 2010.04.06 18:39:43.
