data_PCOD8317310
_publ_section_title
;
Structure prediction by ZEFSAII (Michael W. Deem and Ramdas Pophale) SiO2 
 PCOD8317310
Probable space group: P 42/N N M
;
_chemical_formula_sum "Si O2"
_cell_formula_units_Z 88
_cell_length_a 11.519879
_cell_length_b 11.519879
_cell_length_c 29.390307
_cell_angle_alpha 90.000000
_cell_angle_beta 90.000000
_cell_angle_gamma 90.000000
_cell_volume 3900.317463
_symmetry_space_group_name_H-M "P 42/N N M"
_symmetry_group_IT_number 134
_space_group.IT_coordinate_system_code '2'
_symmetry_cell_setting 'tetragonal'
loop_
_space_group_symop_operation_xyz
x,y,z
1/2-y,x,1/2+z
1/2-x,1/2-y,z
y,1/2-x,1/2+z
x,1/2-y,1/2-z
1/2-x,y,1/2-z
y,x,-z
1/2-y,1/2-x,-z
-x,-y,-z
1/2+y,-x,1/2-z
1/2+x,1/2+y,-z
-y,1/2+x,1/2-z
-x,1/2+y,1/2+z
1/2+x,-y,1/2+z
-y,-x,z
1/2+y,1/2+x,z
loop_
_atom_site_type_symbol
_atom_site_label
_atom_site_fract_x
_atom_site_fract_y
_atom_site_fract_z
Si Si1 0.875308 0.944605 0.367463
Si Si2 0.564991 0.698572 0.163729
Si Si3 0.071496 0.750000 0.250000
Si Si4 0.656087 0.156087 0.607287
Si Si5 0.205343 0.988790 0.800315
Si Si6 0.977790 0.672554 0.968920
Si Si7 0.157300 0.842701 0.000036
O O1 0.868703 0.818876 0.343916
O O2 0.813865 0.037317 0.333270
O O3 0.816018 0.936665 0.416888
O O4 0.007485 0.992516 0.373296
O O5 0.504175 0.691491 0.212064
O O6 0.472743 0.687196 0.123408
O O7 0.650380 0.590732 0.168531
O O8 0.150561 0.849440 0.273073
O O9 0.750000 0.250000 0.625805
O O10 0.655355 0.155355 0.553781
O O11 0.250000 0.026486 0.750000
O O12 0.122066 0.877935 0.795194
O O13 0.078647 0.578647 0.975501
O O14 0.029664 0.799896 0.982842
O O15 0.867482 0.632519 0.000000
O O16 0.250000 0.750000 0.981336
#
# Coordination Sequence:
#
# PCOD8317310 Si02
#       7
#    16  16   8   8  16  16   8
#     4  11  24  40  68  99 133 177 231 288 345 410
#     4  12  23  41  62  96 135 176 223 274 353 420
#     4  11  20  32  55  88 126 160 205 263 322 398
#     4  11  20  36  65 101 140 182 225 283 351 424
#     4  12  27  48  69  95 132 182 231 287 343 416
#     4   9  18  35  59  96 135 173 226 290 352 418
#     4   9  18  32  59  93 135 182 229 289 353 413
#
# _framework density 22.562268
#
# number of rings (size 3 to 8) (size 9 to 14) (size 15 to 20)
#    0.000    1.182    1.818    4.909    1.273    4.909 
#    0.000    0.000    0.000    8.727    0.000    0.000 
#    0.000    0.000    0.000    0.000    0.000    0.000 
#
# Total GULP energy -1090666.579273 kJ/mol
# GULP energy per Si atom -12393.938401 kJ/mol
# Density = 2.251091 g / cm^3
# Si number density = 22.562268 Si / 1000 Ang^3
#
#
#
# Elastic Constant Matrix: (Units=GPa)
#
#
# Indices 1 2 3 4 5 6 
#
# 1 89.4333 43.6661 32.5849 0.0000 0.0000 0.0000
# 2 43.6661 89.4328 32.5849 0.0000 0.0000 0.0000
# 3 32.5849 32.5849 133.1840 0.0000 0.0000 0.0000
# 4 0.0000 0.0000 0.0000 31.5606 0.0000 0.0000
# 5 0.0000 0.0000 0.0000 0.0000 31.5606 0.0000
# 6 0.0000 0.0000 0.0000 0.0000 0.0000 45.3142
#
#
#
# Elastic Compliance Matrix: (Units=1/GPa)
#
#
# Indices 1 2 3 4 5 6 
#
# 1 0.015193 -0.006657 -0.002088 0.000000 0.000000 0.000000
# 2 -0.006657 0.015193 -0.002088 0.000000 0.000000 0.000000
# 3 -0.002088 -0.002088 0.008530 0.000000 0.000000 0.000000
# 4 0.000000 0.000000 0.000000 0.031685 0.000000 0.000000
# 5 0.000000 0.000000 0.000000 0.000000 0.031685 0.000000
# 6 0.000000 0.000000 0.000000 0.000000 0.000000 0.022068
#
#
# Mechanical properties :
#
#
# Convention : Reuss Voigt Hill
#
# Bulk Modulus (GPa) = 57.97670 58.85800 58.41735
# Shear Modulus (GPa) = 32.94434 35.23468 34.08951
#
# Velocity S-wave (km/s) = 3.82534 3.95608 3.89126
# Velocity P-wave (km/s) = 6.72778 6.85645 6.79242
#
# Compressibility (1/GPa) = 0.01724831
#
# Stress axis : x y z
#
# Youngs Moduli (GPa) = 65.82096 65.82057 117.22937
#
# Poissons Ratio (x) = 0.43817 0.24482
# Poissons Ratio (y) = 0.43817 0.24482
# Poissons Ratio (z) = 0.13746 0.13746
#
# Static dielectric constant tensor:
#      x y z
#    x 4.149500 0.000000 0.000000 
#    y 0.000000 4.149500 0.000000 
#    z 0.000000 0.000000 4.277120 
# 
# 
# High freq. dielectric constant tensor:
#      x y z
#    x 1.885130 0.000000 0.000000 
#    y 0.000000 1.885130 0.000000 
#    z 0.000000 0.000000 1.894580 
# 
# From -- ./inp_files/11523.got.cif
#   From: 2010.03.12/outbox.cif.g09.slc.cpg/sg134_6_cif.got.tgz:11523.got - 2010.04.06 18:17:22.
