data_PCOD8317702
_publ_section_title
;
Structure prediction by ZEFSAII (Michael W. Deem and Ramdas Pophale) SiO2 
 PCOD8317702
Probable space group: P 42/M N M
;
_chemical_formula_sum "Si O2"
_cell_formula_units_Z 128
_cell_length_a 20.204243
_cell_length_b 20.204243
_cell_length_c 18.519544
_cell_angle_alpha 90.000000
_cell_angle_beta 90.000000
_cell_angle_gamma 90.000000
_cell_volume 7559.889636
_symmetry_space_group_name_H-M "P 42/M N M"
_symmetry_group_IT_number 136
_symmetry_cell_setting 'tetragonal'
loop_
_space_group_symop_operation_xyz
x,y,z
1/2-y,1/2+x,1/2+z
-x,-y,z
1/2+y,1/2-x,1/2+z
1/2+x,1/2-y,1/2-z
1/2-x,1/2+y,1/2-z
y,x,-z
-y,-x,-z
-x,-y,-z
1/2+y,1/2-x,1/2-z
x,y,-z
1/2-y,1/2+x,1/2-z
1/2-x,1/2+y,1/2+z
1/2+x,1/2-y,1/2+z
-y,-x,z
y,x,z
loop_
_atom_site_type_symbol
_atom_site_label
_atom_site_fract_x
_atom_site_fract_y
_atom_site_fract_z
Si Si1 0.926912 0.818650 0.216907
Si Si2 0.034021 0.596797 0.731551
Si Si3 0.526512 0.237090 0.581788
Si Si4 0.434618 0.327022 0.220834
Si Si5 0.362939 0.134906 0.124460
Si Si6 0.587519 0.791002 0.677691
Si Si7 0.724791 0.618789 0.078345
Si Si8 0.173745 0.282935 0.263694
O O1 0.879905 0.879905 0.200659
O O2 0.947483 0.791252 0.138412
O O3 0.890438 0.764146 0.267650
O O4 0.989539 0.843297 0.261732
O O5 0.074974 0.541784 0.777509
O O6 0.067136 0.605797 0.653030
O O7 0.036297 0.664637 0.776082
O O8 0.526826 0.265129 0.500000
O O9 0.575094 0.174110 0.584796
O O10 0.449882 0.218425 0.601204
O O11 0.395639 0.395639 0.223585
O O12 0.403610 0.277970 0.280156
O O13 0.432255 0.294919 0.141133
O O14 0.373571 0.195990 0.070953
O O15 0.323248 0.168626 0.189928
O O16 0.661392 0.823398 0.671923
O O17 0.689728 0.689728 0.093990
O O18 0.701199 0.591431 0.000000
O O19 0.240642 0.240642 0.264760
#
# Coordination Sequence:
#
# PCOD8317702 Si02
#       8
#    16  16  16  16  16  16  16  16
#     4   9  20  35  54  80 102 130 173 215 262 315
#     4  10  18  28  46  70  95 130 177 213 246 287
#     4  10  20  33  48  74 108 141 173 208 256 312
#     4  10  19  32  52  76 102 131 169 214 260 311
#     4  10  17  28  46  69 102 137 165 199 248 303
#     4  10  18  29  50  71  95 133 174 214 251 295
#     4  10  19  29  45  73 105 132 157 195 254 316
#     4   9  16  28  50  75  97 120 162 215 256 297
#
# _framework density 16.931464999999999
#
# number of rings (size 3 to 8) (size 9 to 14) (size 15 to 20)
#    0.000    2.250    3.750    1.125    1.750    1.000 
#    0.000    0.000    0.000   14.250    0.000    7.000 
#    0.000    0.000    0.000    0.000    0.000    0.000 
#
# Total GULP energy -1586340.900418 kJ/mol
# GULP energy per Si atom -12393.288285 kJ/mol
# Density = 1.689293 g / cm^3
# Si number density = 16.931465 Si / 1000 Ang^3
#
#
#
# Elastic Constant Matrix: (Units=GPa)
#
#
# Indices 1 2 3 4 5 6 
#
# 1 90.3866 28.7463 39.3880 0.0000 0.0000 0.0000
# 2 28.7463 90.3866 39.3880 0.0000 0.0000 0.0000
# 3 39.3880 39.3880 87.1807 0.0000 0.0000 0.0000
# 4 0.0000 0.0000 0.0000 16.7841 0.0000 0.0000
# 5 0.0000 0.0000 0.0000 0.0000 16.7841 0.0000
# 6 0.0000 0.0000 0.0000 0.0000 0.0000 20.1029
#
#
#
# Elastic Compliance Matrix: (Units=1/GPa)
#
#
# Indices 1 2 3 4 5 6 
#
# 1 0.014097 -0.002127 -0.005408 0.000000 0.000000 0.000000
# 2 -0.002127 0.014097 -0.005408 0.000000 0.000000 0.000000
# 3 -0.005408 -0.005408 0.016357 0.000000 0.000000 0.000000
# 4 0.000000 0.000000 0.000000 0.059580 0.000000 0.000000
# 5 0.000000 0.000000 0.000000 0.000000 0.059580 0.000000
# 6 0.000000 0.000000 0.000000 0.000000 0.000000 0.049744
#
#
# Mechanical properties :
#
#
# Convention : Reuss Voigt Hill
#
# Bulk Modulus (GPa) = 53.57612 53.66650 53.62131
# Shear Modulus (GPa) = 20.36146 21.42964 20.89555
#
# Velocity S-wave (km/s) = 3.47159 3.56148 3.51682
# Velocity P-wave (km/s) = 6.91237 6.97692 6.94472
#
# Compressibility (1/GPa) = 0.01866503
#
# Stress axis : x y z
#
# Youngs Moduli (GPa) = 70.93923 70.93923 61.13563
#
# Poissons Ratio (x) = 0.15086 0.33062
# Poissons Ratio (y) = 0.15086 0.33062
# Poissons Ratio (z) = 0.38364 0.38364
#
# Static dielectric constant tensor:
#      x y z
#    x 3.233290 0.000000 0.000000 
#    y 0.000000 3.233290 0.000000 
#    z 0.000000 0.000000 2.907350 
# 
# 
# High freq. dielectric constant tensor:
#      x y z
#    x 1.651910 0.000000 0.000000 
#    y 0.000000 1.651910 0.000000 
#    z 0.000000 0.000000 1.614680 
# 
# From -- ./inp_files/6658.got.cif
#   From: 2010.03.12/outbox.cif.g09.slc.cpg/sg136_4_cif.got.tgz:6658.got - 2010.04.06 18:39:43.
