data_PCOD8317760
_publ_section_title
;
Structure prediction by ZEFSAII (Michael W. Deem and Ramdas Pophale) SiO2 
 PCOD8317760
Probable space group: P 42/M N M
;
_chemical_formula_sum "Si O2"
_cell_formula_units_Z 88
_cell_length_a 17.135438
_cell_length_b 17.135438
_cell_length_c 16.178494
_cell_angle_alpha 90.000000
_cell_angle_beta 90.000000
_cell_angle_gamma 90.000000
_cell_volume 4750.381753
_symmetry_space_group_name_H-M "P 42/M N M"
_symmetry_group_IT_number 136
_symmetry_cell_setting 'tetragonal'
loop_
_space_group_symop_operation_xyz
x,y,z
1/2-y,1/2+x,1/2+z
-x,-y,z
1/2+y,1/2-x,1/2+z
1/2+x,1/2-y,1/2-z
1/2-x,1/2+y,1/2-z
y,x,-z
-y,-x,-z
-x,-y,-z
1/2+y,1/2-x,1/2-z
x,y,-z
1/2-y,1/2+x,1/2-z
1/2-x,1/2+y,1/2+z
1/2+x,1/2-y,1/2+z
-y,-x,z
y,x,z
loop_
_atom_site_type_symbol
_atom_site_label
_atom_site_fract_x
_atom_site_fract_y
_atom_site_fract_z
Si Si1 0.028304 0.226944 0.838276
Si Si2 0.999317 0.873929 0.680202
Si Si3 0.199243 0.676360 0.592566
Si Si4 0.501007 0.126427 0.756632
Si Si5 0.024536 0.718152 0.594309
Si Si6 0.000551 0.131009 0.000000
O O1 0.117231 0.255304 0.848085
O O2 0.981402 0.305569 0.810772
O O3 0.024675 0.162442 0.767568
O O4 0.994542 0.187479 0.920833
O O5 0.079712 0.920289 0.692770
O O6 0.010769 0.809608 0.609233
O O7 0.931103 0.931103 0.649579
O O8 0.201209 0.640732 0.500000
O O9 0.240583 0.759418 0.595868
O O10 0.111750 0.694074 0.619907
O O11 0.425184 0.073651 0.772613
O O12 0.527543 0.166319 0.843482
O O13 0.003933 0.697737 0.500000
O O14 0.927704 0.072297 0.000000
O O15 0.082096 0.082096 0.000000
#
# Coordination Sequence:
#
# PCOD8317760 Si02
#       6
#    16  16  16  16  16   8
#     4  11  20  34  57  83 115 154 192 236 289 342
#     4  10  21  36  55  81 115 153 189 229 284 346
#     4  10  18  30  51  80 111 142 184 237 284 330
#     4  10  21  40  59  83 114 148 191 241 292 343
#     4  10  21  37  57  84 111 144 191 238 283 333
#     4  11  22  36  58  89 124 158 195 238 284 350
#
# _framework density 18.524826999999998
#
# number of rings (size 3 to 8) (size 9 to 14) (size 15 to 20)
#    0.000    1.727    2.727    2.727    0.000    2.909 
#    1.636    1.818    0.000    0.000    0.000    0.000 
#    0.000    0.000    0.000    0.000    0.000    0.000 
#
# Total GULP energy -1090945.819627 kJ/mol
# GULP energy per Si atom -12397.111587 kJ/mol
# Density = 1.848266 g / cm^3
# Si number density = 18.524827 Si / 1000 Ang^3
#
#
#
# Elastic Constant Matrix: (Units=GPa)
#
#
# Indices 1 2 3 4 5 6 
#
# 1 89.5791 30.5058 38.4825 0.0000 0.0000 0.0000
# 2 30.5058 89.5795 38.4826 0.0000 0.0000 0.0000
# 3 38.4825 38.4826 107.7780 0.0000 0.0000 0.0000
# 4 0.0000 0.0000 0.0000 26.4703 0.0000 0.0000
# 5 0.0000 0.0000 0.0000 0.0000 26.4701 0.0000
# 6 0.0000 0.0000 0.0000 0.0000 0.0000 22.8542
#
#
#
# Elastic Compliance Matrix: (Units=1/GPa)
#
#
# Indices 1 2 3 4 5 6 
#
# 1 0.013863 -0.003065 -0.003856 0.000000 0.000000 0.000000
# 2 -0.003065 0.013863 -0.003856 0.000000 0.000000 0.000000
# 3 -0.003856 -0.003856 0.012032 0.000000 0.000000 0.000000
# 4 0.000000 0.000000 0.000000 0.037778 0.000000 0.000000
# 5 0.000000 0.000000 0.000000 0.000000 0.037778 0.000000
# 6 0.000000 0.000000 0.000000 0.000000 0.000000 0.043756
#
#
# Mechanical properties :
#
#
# Convention : Reuss Voigt Hill
#
# Bulk Modulus (GPa) = 54.92637 55.76428 55.34532
# Shear Modulus (GPa) = 26.78214 27.12331 26.95272
#
# Velocity S-wave (km/s) = 3.80642 3.83059 3.81852
# Velocity P-wave (km/s) = 7.00235 7.05211 7.02728
#
# Compressibility (1/GPa) = 0.01820619
#
# Stress axis : x y z
#
# Youngs Moduli (GPa) = 72.13255 72.13285 83.11376
#
# Poissons Ratio (x) = 0.22107 0.32046
# Poissons Ratio (y) = 0.22107 0.32046
# Poissons Ratio (z) = 0.27812 0.27812
#
# Static dielectric constant tensor:
#      x y z
#    x 3.429970 0.000000 0.000000 
#    y 0.000000 3.429970 0.000000 
#    z 0.000000 0.000000 3.377900 
# 
# 
# High freq. dielectric constant tensor:
#      x y z
#    x 1.717710 0.000000 0.000000 
#    y 0.000000 1.717710 0.000000 
#    z 0.000000 0.000000 1.716520 
# 
# From -- ./inp_files/5031.got.cif
#   From: 2010.03.12/outbox.cif.g09.slc.cpg/sg136_3_cif.got.tgz:5031.got - 2010.04.06 18:39:43.
