data_PCOD8317327
_publ_section_title
;
Structure prediction by ZEFSAII (Michael W. Deem and Ramdas Pophale) SiO2 
 PCOD8317327
Probable space group: P 42/N N M
;
_chemical_formula_sum "Si O2"
_cell_formula_units_Z 72
_cell_length_a 14.591487
_cell_length_b 14.591487
_cell_length_c 17.039309
_cell_angle_alpha 90.000000
_cell_angle_beta 90.000000
_cell_angle_gamma 90.000000
_cell_volume 3627.864717
_symmetry_space_group_name_H-M "P 42/N N M"
_symmetry_group_IT_number 134
_space_group.IT_coordinate_system_code '2'
_symmetry_cell_setting 'tetragonal'
loop_
_space_group_symop_operation_xyz
x,y,z
1/2-y,x,1/2+z
1/2-x,1/2-y,z
y,1/2-x,1/2+z
x,1/2-y,1/2-z
1/2-x,y,1/2-z
y,x,-z
1/2-y,1/2-x,-z
-x,-y,-z
1/2+y,-x,1/2-z
1/2+x,1/2+y,-z
-y,1/2+x,1/2-z
-x,1/2+y,1/2+z
1/2+x,-y,1/2+z
-y,-x,z
1/2+y,1/2+x,z
loop_
_atom_site_type_symbol
_atom_site_label
_atom_site_fract_x
_atom_site_fract_y
_atom_site_fract_z
Si Si1 0.816473 0.914303 0.682817
Si Si2 0.958670 0.041331 0.611733
Si Si3 0.801190 0.042664 0.100207
Si Si4 0.395259 0.895259 0.944593
Si Si5 0.247043 0.110840 0.481887
Si Si6 0.933560 0.750000 0.750000
O O1 0.750000 0.947114 0.750000
O O2 0.747506 0.907122 0.609799
O O3 0.868969 0.819781 0.702229
O O4 0.884928 0.996219 0.667504
O O5 0.908260 0.091741 0.538326
O O6 0.034254 0.965746 0.592511
O O7 0.887901 0.112100 0.091563
O O8 0.706068 0.092934 0.087634
O O9 0.804007 0.996254 0.186622
O O10 0.798142 0.967648 0.031019
O O11 0.137074 0.137074 0.500000
O O12 0.297025 0.202976 0.500000
#
# Coordination Sequence:
#
# PCOD8317327 Si02
#       6
#    16   8  16   8  16   8
#     4  12  25  43  69 101 132 173 223 283 342 402
#     4  11  22  44  76  94 130 182 237 282 330 427
#     4  12  26  42  65  99 137 175 223 281 338 406
#     4  11  21  46  70  96 127 183 236 269 334 413
#     4  11  22  44  68  95 129 176 233 280 335 404
#     4  12  25  42  65 104 138 174 214 279 347 410
#
# _framework density 19.846384
#
# number of rings (size 3 to 8) (size 9 to 14) (size 15 to 20)
#    0.000    0.444    6.667    2.000    6.222    0.444 
#    2.000    0.000    0.000    0.000    0.000    0.000 
#    0.000    0.000    0.000    0.000    0.000    0.000 
#
# Total GULP energy -891940.764170 kJ/mol
# GULP energy per Si atom -12388.066169 kJ/mol
# Density = 1.980121 g / cm^3
# Si number density = 19.846384 Si / 1000 Ang^3
#
#
#
# Elastic Constant Matrix: (Units=GPa)
#
#
# Indices 1 2 3 4 5 6 
#
# 1 108.5300 58.0981 62.4624 0.0000 0.0000 0.0000
# 2 58.0981 108.5267 62.4614 0.0000 0.0000 0.0000
# 3 62.4624 62.4614 161.6301 0.0000 0.0000 0.0000
# 4 0.0000 0.0000 0.0000 39.5478 0.0000 0.0000
# 5 0.0000 0.0000 0.0000 0.0000 39.5481 0.0000
# 6 0.0000 0.0000 0.0000 0.0000 0.0000 36.5302
#
#
#
# Elastic Compliance Matrix: (Units=1/GPa)
#
#
# Indices 1 2 3 4 5 6 
#
# 1 0.014139 -0.005690 -0.003265 0.000000 0.000000 0.000000
# 2 -0.005690 0.014140 -0.003265 0.000000 0.000000 0.000000
# 3 -0.003265 -0.003265 0.008711 0.000000 0.000000 0.000000
# 4 0.000000 0.000000 0.000000 0.025286 0.000000 0.000000
# 5 0.000000 0.000000 0.000000 0.000000 0.025286 0.000000
# 6 0.000000 0.000000 0.000000 0.000000 0.000000 0.027375
#
#
# Mechanical properties :
#
#
# Convention : Reuss Voigt Hill
#
# Bulk Modulus (GPa) = 79.69065 82.74782 81.21923
# Shear Modulus (GPa) = 34.82872 36.16955 35.49914
#
# Velocity S-wave (km/s) = 4.19372 4.27368 4.23389
# Velocity P-wave (km/s) = 7.98064 8.13247 8.05691
#
# Compressibility (1/GPa) = 0.01254852
#
# Stress axis : x y z
#
# Youngs Moduli (GPa) = 70.72522 70.72312 114.80097
#
# Poissons Ratio (x) = 0.40241 0.37486
# Poissons Ratio (y) = 0.40242 0.37486
# Poissons Ratio (z) = 0.23094 0.23093
#
# Static dielectric constant tensor:
#      x y z
#    x 3.653410 0.000000 0.000000 
#    y 0.000000 3.653420 0.000000 
#    z 0.000000 0.000000 3.885210 
# 
# 
# High freq. dielectric constant tensor:
#      x y z
#    x 1.773610 0.000000 0.000000 
#    y 0.000000 1.773610 0.000000 
#    z 0.000000 0.000000 1.786820 
# 
# From -- ./inp_files/7695.got.cif
#   From: 2010.03.12/outbox.cif.g09.slc.cpg/sg134_4_cif.got.tgz:7695.got - 2010.04.06 18:17:22.
