data_PCOD8317184
_publ_section_title
;
Structure prediction by ZEFSAII (Michael W. Deem and Ramdas Pophale) SiO2 
 PCOD8317184
Probable space group: P 42/N N M
;
_chemical_formula_sum "Si O2"
_cell_formula_units_Z 64
_cell_length_a 13.658997
_cell_length_b 13.658997
_cell_length_c 19.321766
_cell_angle_alpha 90.000000
_cell_angle_beta 90.000000
_cell_angle_gamma 90.000000
_cell_volume 3604.827085
_symmetry_space_group_name_H-M "P 42/N N M"
_symmetry_group_IT_number 134
_space_group.IT_coordinate_system_code '2'
_symmetry_cell_setting 'tetragonal'
loop_
_space_group_symop_operation_xyz
x,y,z
1/2-y,x,1/2+z
1/2-x,1/2-y,z
y,1/2-x,1/2+z
x,1/2-y,1/2-z
1/2-x,y,1/2-z
y,x,-z
1/2-y,1/2-x,-z
-x,-y,-z
1/2+y,-x,1/2-z
1/2+x,1/2+y,-z
-y,1/2+x,1/2-z
-x,1/2+y,1/2+z
1/2+x,-y,1/2+z
-y,-x,z
1/2+y,1/2+x,z
loop_
_atom_site_type_symbol
_atom_site_label
_atom_site_fract_x
_atom_site_fract_y
_atom_site_fract_z
Si Si1 0.694983 0.648862 0.683581
Si Si2 0.474167 0.814546 0.810678
Si Si3 0.020313 0.359774 0.944693
Si Si4 0.744714 0.093033 0.449373
O O1 0.750000 0.750000 0.662742
O O2 0.750000 0.601229 0.750000
O O3 0.585275 0.665579 0.709663
O O4 0.690883 0.575011 0.619134
O O5 0.424837 0.750000 0.750000
O O6 0.416265 0.916265 0.819130
O O7 0.476043 0.753683 0.882334
O O8 0.945296 0.445296 0.920021
O O9 0.095900 0.404101 0.000000
O O10 0.963857 0.270577 0.980752
O O11 0.818633 0.181368 0.436823
O O12 0.634608 0.134608 0.456339
#
# Coordination Sequence:
#
# PCOD8317184 Si02
#       4
#    16  16  16  16
#     4  11  22  38  55  80 117 154 191 231 283 348
#     4  11  20  35  58  85 115 149 188 234 291 347
#     4  10  19  36  62  84 104 144 199 239 278 342
#     4   9  18  33  55  84 113 138 177 236 290 336
#
# _framework density 17.753972999999998
#
# number of rings (size 3 to 8) (size 9 to 14) (size 15 to 20)
#    0.000    1.750    5.000    1.500    0.000    1.750 
#    0.000    2.500    0.000    1.500    0.000    0.000 
#    0.000    0.000    0.000    0.000    0.000    0.000 
#
# Total GULP energy -793299.957614 kJ/mol
# GULP energy per Si atom -12395.311838 kJ/mol
# Density = 1.771356 g / cm^3
# Si number density = 17.753973 Si / 1000 Ang^3
#
#
#
# Elastic Constant Matrix: (Units=GPa)
#
#
# Indices 1 2 3 4 5 6 
#
# 1 93.3598 44.7472 55.8985 0.0000 0.0000 0.0000
# 2 44.7472 93.3603 55.8985 0.0000 0.0000 0.0000
# 3 55.8985 55.8985 145.6066 0.0000 0.0000 0.0000
# 4 0.0000 0.0000 0.0000 31.2890 0.0000 0.0000
# 5 0.0000 0.0000 0.0000 0.0000 31.2886 0.0000
# 6 0.0000 0.0000 0.0000 0.0000 0.0000 21.1507
#
#
#
# Elastic Compliance Matrix: (Units=1/GPa)
#
#
# Indices 1 2 3 4 5 6 
#
# 1 0.015538 -0.005033 -0.004033 0.000000 0.000000 0.000000
# 2 -0.005033 0.015538 -0.004033 0.000000 0.000000 0.000000
# 3 -0.004033 -0.004033 0.009964 0.000000 0.000000 0.000000
# 4 0.000000 0.000000 0.000000 0.031960 0.000000 0.000000
# 5 0.000000 0.000000 0.000000 0.000000 0.031961 0.000000
# 6 0.000000 0.000000 0.000000 0.000000 0.000000 0.047280
#
#
# Mechanical properties :
#
#
# Convention : Reuss Voigt Hill
#
# Bulk Modulus (GPa) = 67.37123 71.71279 69.54201
# Shear Modulus (GPa) = 27.26485 28.46448 27.86466
#
# Velocity S-wave (km/s) = 3.92306 4.00843 3.96598
# Velocity P-wave (km/s) = 7.65180 7.86788 7.76059
#
# Compressibility (1/GPa) = 0.01484313
#
# Stress axis : x y z
#
# Youngs Moduli (GPa) = 64.35776 64.35812 100.35712
#
# Poissons Ratio (x) = 0.32389 0.40475
# Poissons Ratio (y) = 0.32389 0.40475
# Poissons Ratio (z) = 0.25956 0.25956
#
# Static dielectric constant tensor:
#      x y z
#    x 3.293050 0.000000 0.000000 
#    y 0.000000 3.293050 0.000000 
#    z 0.000000 0.000000 3.379790 
# 
# 
# High freq. dielectric constant tensor:
#      x y z
#    x 1.673790 0.000000 0.000000 
#    y 0.000000 1.673790 0.000000 
#    z 0.000000 0.000000 1.692240 
# 
# From -- ./inp_files/7410.got.cif
#   From: 2010.03.12/outbox.cif.g09.slc.cpg/sg134_4_cif.got.tgz:7410.got - 2010.04.06 18:17:22.
