data_PCOD8317011
_publ_section_title
;
Structure prediction by ZEFSAII (Michael W. Deem and Ramdas Pophale) SiO2 
 PCOD8317011
Probable space group: P 42/N B C
;
_chemical_formula_sum "Si O2"
_cell_formula_units_Z 88
_cell_length_a 16.084484
_cell_length_b 16.084484
_cell_length_c 13.708371
_cell_angle_alpha 90.000000
_cell_angle_beta 90.000000
_cell_angle_gamma 90.000000
_cell_volume 3546.501237
_symmetry_space_group_name_H-M "P 42/N B C"
_symmetry_group_IT_number 133
_space_group.IT_coordinate_system_code '2'
_symmetry_cell_setting 'tetragonal'
loop_
_space_group_symop_operation_xyz
x,y,z
1/2-y,x,1/2+z
1/2-x,1/2-y,z
y,1/2-x,1/2+z
x,1/2-y,-z
1/2-x,y,-z
y,x,1/2-z
1/2-y,1/2-x,1/2-z
-x,-y,-z
1/2+y,-x,1/2-z
1/2+x,1/2+y,-z
-y,1/2+x,1/2-z
-x,1/2+y,z
1/2+x,-y,z
-y,-x,1/2+z
1/2+y,1/2+x,1/2+z
loop_
_atom_site_type_symbol
_atom_site_label
_atom_site_fract_x
_atom_site_fract_y
_atom_site_fract_z
Si Si1 0.338897 0.611879 0.971794
Si Si2 0.582834 0.917167 0.750000
Si Si3 0.250000 0.121042 0.000000
Si Si4 0.750000 0.614853 0.500000
Si Si5 0.665196 0.496107 0.639482
Si Si6 0.240369 0.011958 0.829645
Si Si7 0.485498 0.956258 0.398907
O O1 0.413028 0.669271 0.929451
O O2 0.319701 0.555729 0.878147
O O3 0.250000 0.656394 0.000000
O O4 0.368730 0.560815 0.070307
O O5 0.576904 0.822838 0.716958
O O6 0.574557 0.988687 0.667462
O O7 0.287764 0.063315 0.914256
O O8 0.172005 0.174392 0.963494
O O9 0.730301 0.559445 0.593504
O O10 0.693656 0.475628 0.750752
O O11 0.576961 0.543325 0.650055
O O12 0.500000 0.000000 0.500000
#
# Coordination Sequence:
#
# PCOD8317011 Si02
#       7
#    16   8   8   8  16  16  16
#     4  11  25  48  76 107 153 200 258 324 386 463
#     4  12  24  44  80 115 142 195 260 322 374 490
#     4  11  26  48  72 118 156 211 236 344 395 472
#     4  11  26  48  75 106 166 200 267 302 418 467
#     4  11  26  46  75 113 148 209 251 327 385 479
#     4  12  25  44  75 110 152 185 259 320 390 452
#     4  10  23  44  73 109 144 197 262 309 377 452
#
# _framework density 24.813186999999999
#
# number of rings (size 3 to 8) (size 9 to 14) (size 15 to 20)
#    0.000    0.909    4.545    2.182   10.182    0.727 
#    0.000    2.273    0.000    0.000    0.000    0.000 
#    0.000    0.000    0.000    0.000    0.000    0.000 
#
# Total GULP energy -1090383.211324 kJ/mol
# GULP energy per Si atom -12390.718310 kJ/mol
# Density = 2.475671 g / cm^3
# Si number density = 24.813187 Si / 1000 Ang^3
#
#
#
# Elastic Constant Matrix: (Units=GPa)
#
#
# Indices 1 2 3 4 5 6 
#
# 1 115.8196 32.1064 42.6015 0.0000 0.0000 0.0000
# 2 32.1064 115.8195 42.6015 0.0000 0.0000 0.0000
# 3 42.6015 42.6015 143.4671 0.0000 0.0000 0.0000
# 4 0.0000 0.0000 0.0000 41.4960 0.0000 0.0000
# 5 0.0000 0.0000 0.0000 0.0000 41.4957 0.0000
# 6 0.0000 0.0000 0.0000 0.0000 0.0000 32.9390
#
#
#
# Elastic Compliance Matrix: (Units=1/GPa)
#
#
# Indices 1 2 3 4 5 6 
#
# 1 0.010050 -0.001895 -0.002422 0.000000 0.000000 0.000000
# 2 -0.001895 0.010050 -0.002422 0.000000 0.000000 0.000000
# 3 -0.002422 -0.002422 0.008408 0.000000 0.000000 0.000000
# 4 0.000000 0.000000 0.000000 0.024099 0.000000 0.000000
# 5 0.000000 0.000000 0.000000 0.000000 0.024099 0.000000
# 6 0.000000 0.000000 0.000000 0.000000 0.000000 0.030359
#
#
# Mechanical properties :
#
#
# Convention : Reuss Voigt Hill
#
# Bulk Modulus (GPa) = 66.52468 67.74720 67.13594
# Shear Modulus (GPa) = 39.82381 40.37259 40.09820
#
# Velocity S-wave (km/s) = 4.01052 4.03806 4.02432
# Velocity P-wave (km/s) = 6.95084 7.00738 6.97917
#
# Compressibility (1/GPa) = 0.01503202
#
# Stress axis : x y z
#
# Youngs Moduli (GPa) = 99.50031 99.50019 118.92935
#
# Poissons Ratio (x) = 0.18858 0.28799
# Poissons Ratio (y) = 0.18858 0.28799
# Poissons Ratio (z) = 0.24094 0.24094
#
# Static dielectric constant tensor:
#      x y z
#    x 5.062340 0.000000 0.000000 
#    y 0.000000 5.062380 0.000000 
#    z 0.000000 0.000000 5.406720 
# 
# 
# High freq. dielectric constant tensor:
#      x y z
#    x 1.982680 0.000000 0.000000 
#    y 0.000000 1.982680 0.000000 
#    z 0.000000 0.000000 2.002510 
# 
# From -- ./inp_files/4485.got.cif
#   From: 2010.03.12/outbox.cif.g09.slc.cpg/sg133_3_cif.got.tgz:4485.got - 2010.04.06 18:08:06.
