data_PCOD8317732
_publ_section_title
;
Structure prediction by ZEFSAII (Michael W. Deem and Ramdas Pophale) SiO2 
 PCOD8317732
Probable space group: P 42/M N M
;
_chemical_formula_sum "Si O2"
_cell_formula_units_Z 104
_cell_length_a 17.377917
_cell_length_b 17.377917
_cell_length_c 18.166270
_cell_angle_alpha 90.000000
_cell_angle_beta 90.000000
_cell_angle_gamma 90.000000
_cell_volume 5486.068196
_symmetry_space_group_name_H-M "P 42/M N M"
_symmetry_group_IT_number 136
_symmetry_cell_setting 'tetragonal'
loop_
_space_group_symop_operation_xyz
x,y,z
1/2-y,1/2+x,1/2+z
-x,-y,z
1/2+y,1/2-x,1/2+z
1/2+x,1/2-y,1/2-z
1/2-x,1/2+y,1/2-z
y,x,-z
-y,-x,-z
-x,-y,-z
1/2+y,1/2-x,1/2-z
x,y,-z
1/2-y,1/2+x,1/2-z
1/2-x,1/2+y,1/2+z
1/2+x,1/2-y,1/2+z
-y,-x,z
y,x,z
loop_
_atom_site_type_symbol
_atom_site_label
_atom_site_fract_x
_atom_site_fract_y
_atom_site_fract_z
Si Si1 0.384520 0.615481 0.356504
Si Si2 0.900898 0.323452 0.582790
Si Si3 0.946346 0.175695 0.354234
Si Si4 0.770548 0.770548 0.915769
Si Si5 0.955752 0.169305 0.916610
Si Si6 0.563625 0.436376 0.801280
Si Si7 0.623882 0.746664 0.711448
Si Si8 0.902171 0.574207 0.771746
O O1 0.319547 0.680454 0.358563
O O2 0.349861 0.543111 0.398903
O O3 0.402060 0.597941 0.272680
O O4 0.907785 0.356192 0.500000
O O5 0.957660 0.250396 0.594007
O O6 0.817872 0.287959 0.601335
O O7 0.920441 0.391652 0.639676
O O8 0.880537 0.119464 0.386721
O O9 0.925721 0.201464 0.271706
O O10 0.027017 0.130941 0.350600
O O11 0.791358 0.791358 0.000000
O O12 0.909002 0.090999 0.903759
O O13 0.920456 0.236347 0.865813
O O14 0.949609 0.199492 0.000000
O O15 0.500000 0.500000 0.779265
O O16 0.710358 0.710358 0.707706
O O17 0.625763 0.837436 0.730786
O O18 0.892809 0.485400 0.748064
#
# Coordination Sequence:
#
# PCOD8317732 Si02
#       8
#     8  16  16   8  16   8  16  16
#     4  12  20  29  46  79 121 159 195 246 285 343
#     4  10  21  39  62  84 114 151 193 245 300 346
#     4   9  16  30  52  77 108 146 188 232 284 344
#     4  10  22  34  50  82 115 147 194 248 299 344
#     4  10  19  30  46  74 117 164 199 232 284 348
#     4  10  18  28  49  81 114 156 199 233 285 356
#     4   9  18  34  56  80 111 152 195 239 288 348
#     4  10  23  42  63  88 118 151 195 245 290 352
#
# _framework density 18.957111000000001
#
# number of rings (size 3 to 8) (size 9 to 14) (size 15 to 20)
#    0.000    2.154    2.308    1.385    3.231    0.615 
#    0.000    2.692    6.769    1.385    0.000    0.000 
#    0.000    0.000    0.000    0.000    0.000    0.000 
#
# Total GULP energy -1289549.258263 kJ/mol
# GULP energy per Si atom -12399.512099 kJ/mol
# Density = 1.891396 g / cm^3
# Si number density = 18.957111 Si / 1000 Ang^3
#
#
#
# Elastic Constant Matrix: (Units=GPa)
#
#
# Indices 1 2 3 4 5 6 
#
# 1 117.6633 -5.6150 37.2365 0.0000 0.0000 0.0000
# 2 -5.6150 117.6633 37.2365 0.0000 0.0000 0.0000
# 3 37.2365 37.2365 106.7803 0.0000 0.0000 0.0000
# 4 0.0000 0.0000 0.0000 20.2230 0.0000 0.0000
# 5 0.0000 0.0000 0.0000 0.0000 20.2230 0.0000
# 6 0.0000 0.0000 0.0000 0.0000 0.0000 24.7749
#
#
#
# Elastic Compliance Matrix: (Units=1/GPa)
#
#
# Indices 1 2 3 4 5 6 
#
# 1 0.009865 0.001753 -0.004051 0.000000 0.000000 0.000000
# 2 0.001753 0.009865 -0.004051 0.000000 0.000000 0.000000
# 3 -0.004051 -0.004051 0.012191 0.000000 0.000000 0.000000
# 4 0.000000 0.000000 0.000000 0.049449 0.000000 0.000000
# 5 0.000000 0.000000 0.000000 0.000000 0.049449 0.000000
# 6 0.000000 0.000000 0.000000 0.000000 0.000000 0.040363
#
#
# Mechanical properties :
#
#
# Convention : Reuss Voigt Hill
#
# Bulk Modulus (GPa) = 52.02810 53.31365 52.67087
# Shear Modulus (GPa) = 26.27617 31.26076 28.76847
#
# Velocity S-wave (km/s) = 3.72706 4.06523 3.89981
# Velocity P-wave (km/s) = 6.78425 7.08654 6.93704
#
# Compressibility (1/GPa) = 0.01922038
#
# Stress axis : x y z
#
# Youngs Moduli (GPa) = 101.37308 101.37308 82.03099
#
# Poissons Ratio (x) = -0.17769 0.33233
# Poissons Ratio (y) = -0.17769 0.33233
# Poissons Ratio (z) = 0.41068 0.41068
#
# Static dielectric constant tensor:
#      x y z
#    x 3.381220 0.000000 0.000000 
#    y 0.000000 3.381220 0.000000 
#    z 0.000000 0.000000 3.458040 
# 
# 
# High freq. dielectric constant tensor:
#      x y z
#    x 1.722060 0.000000 0.000000 
#    y 0.000000 1.722060 0.000000 
#    z 0.000000 0.000000 1.729550 
# 
# From -- ./inp_files/6459.got.cif
#   From: 2010.03.12/outbox.cif.g09.slc.cpg/sg136_4_cif.got.tgz:6459.got - 2010.04.06 18:39:43.
