data_PCOD8317485
_publ_section_title
;
Structure prediction by ZEFSAII (Michael W. Deem and Ramdas Pophale) SiO2 
 PCOD8317485
Probable space group: P 42/M B C
;
_chemical_formula_sum "Si O2"
_cell_formula_units_Z 96
_cell_length_a 23.928895
_cell_length_b 23.928895
_cell_length_c 8.799592
_cell_angle_alpha 90.000000
_cell_angle_beta 90.000000
_cell_angle_gamma 90.000000
_cell_volume 5038.576123
_symmetry_space_group_name_H-M "P 42/M B C"
_symmetry_group_IT_number 135
_symmetry_cell_setting 'tetragonal'
loop_
_space_group_symop_operation_xyz
x,y,z
-y,x,1/2+z
-x,-y,z
y,-x,1/2+z
1/2+x,1/2-y,-z
1/2-x,1/2+y,-z
1/2+y,1/2+x,1/2-z
1/2-y,1/2-x,1/2-z
-x,-y,-z
y,-x,1/2-z
x,y,-z
-y,x,1/2-z
1/2-x,1/2+y,z
1/2+x,1/2-y,z
1/2-y,1/2-x,1/2+z
1/2+y,1/2+x,1/2+z
loop_
_atom_site_type_symbol
_atom_site_label
_atom_site_fract_x
_atom_site_fract_y
_atom_site_fract_z
Si Si1 0.211662 0.511214 0.322312
Si Si2 0.579610 0.527352 0.181793
Si Si3 0.000031 0.417049 0.820833
Si Si4 0.700054 0.569826 0.820589
Si Si5 0.192770 0.225790 0.320136
Si Si6 0.783081 0.363242 0.321600
O O1 0.222965 0.502993 0.500000
O O2 0.147955 0.497928 0.279844
O O3 0.251155 0.470795 0.229620
O O4 0.226762 0.573616 0.268099
O O5 0.570257 0.466198 0.252942
O O6 0.639929 0.548760 0.238253
O O7 0.574466 0.524487 0.000000
O O8 0.944516 0.444516 0.750000
O O9 0.055192 0.444809 0.750000
O O10 0.998898 0.427353 0.000000
O O11 0.713825 0.631198 0.754654
O O12 0.698345 0.572709 0.000000
O O13 0.216886 0.283115 0.250000
O O14 0.192629 0.232362 0.500000
O O15 0.230615 0.173588 0.267118
O O16 0.840105 0.340105 0.250000
O O17 0.791473 0.360949 0.500000
#
# Coordination Sequence:
#
# PCOD8317485 Si02
#       6
#    16  16  16  16  16  16
#     4  10  22  36  54  81 110 144 182 223 273 326
#     4  10  21  38  60  85 112 147 186 230 282 334
#     4  10  20  35  55  81 109 145 188 227 278 331
#     4  10  23  38  55  82 113 148 185 225 277 328
#     4   9  19  37  57  78 106 141 179 220 269 321
#     4   9  18  34  57  81 106 138 175 221 273 317
#
# _framework density 19.053003
#
# number of rings (size 3 to 8) (size 9 to 14) (size 15 to 20)
#    0.000    2.333    0.000    2.500    2.333    4.667 
#    0.000    3.333    0.000    0.000    0.000    0.000 
#    0.000    0.000    0.000    0.000    0.000    0.000 
#
# Total GULP energy -1190547.242323 kJ/mol
# GULP energy per Si atom -12401.533774 kJ/mol
# Density = 1.900964 g / cm^3
# Si number density = 19.053003 Si / 1000 Ang^3
#
#
#
# Elastic Constant Matrix: (Units=GPa)
#
#
# Indices 1 2 3 4 5 6 
#
# 1 146.3521 87.2179 32.4706 0.0000 0.0000 0.0000
# 2 87.2179 146.3588 32.4695 0.0000 0.0000 0.0000
# 3 32.4706 32.4695 41.7612 0.0000 0.0000 0.0000
# 4 0.0000 0.0000 0.0000 30.8025 0.0000 0.0000
# 5 0.0000 0.0000 0.0000 0.0000 30.8025 0.0000
# 6 0.0000 0.0000 0.0000 0.0000 0.0000 27.2372
#
#
#
# Elastic Compliance Matrix: (Units=1/GPa)
#
#
# Indices 1 2 3 4 5 6 
#
# 1 0.011186 -0.005724 -0.004247 0.000000 0.000000 0.000000
# 2 -0.005724 0.011186 -0.004246 0.000000 0.000000 0.000000
# 3 -0.004247 -0.004246 0.030550 0.000000 0.000000 0.000000
# 4 0.000000 0.000000 0.000000 0.032465 0.000000 0.000000
# 5 0.000000 0.000000 0.000000 0.000000 0.032465 0.000000
# 6 0.000000 0.000000 0.000000 0.000000 0.000000 0.036715
#
#
# Mechanical properties :
#
#
# Convention : Reuss Voigt Hill
#
# Bulk Modulus (GPa) = 40.83897 70.97645 55.90771
# Shear Modulus (GPa) = 26.15569 29.92270 28.03919
#
# Velocity S-wave (km/s) = 3.70913 3.96725 3.84036
# Velocity P-wave (km/s) = 6.31066 7.63665 7.00510
#
# Compressibility (1/GPa) = 0.02448641
#
# Stress axis : x y z
#
# Youngs Moduli (GPa) = 89.39526 89.40140 32.73356
#
# Poissons Ratio (x) = 0.51172 0.13903
# Poissons Ratio (y) = 0.51168 0.13900
# Poissons Ratio (z) = 0.37969 0.37963
#
# Static dielectric constant tensor:
#      x y z
#    x 3.683230 0.000000 0.000000 
#    y 0.000000 3.683230 0.000000 
#    z 0.000000 0.000000 3.324870 
# 
# 
# High freq. dielectric constant tensor:
#      x y z
#    x 1.747780 0.000000 0.000000 
#    y 0.000000 1.747780 0.000000 
#    z 0.000000 0.000000 1.734060 
# 
# From -- ./inp_files/1228.got.cif
#   From: 2010.03.12/outbox.cif.g09.slc.cpg/sg135_1_cif.got.tgz:1228.got - 2010.04.06 18:31:24.
