data_PCOD8317098
_publ_section_title
;
Structure prediction by ZEFSAII (Michael W. Deem and Ramdas Pophale) SiO2 
 PCOD8317098
Probable space group: P 42/N N M
;
_chemical_formula_sum "Si O2"
_cell_formula_units_Z 112
_cell_length_a 20.585562
_cell_length_b 20.585562
_cell_length_c 17.078188
_cell_angle_alpha 90.000000
_cell_angle_beta 90.000000
_cell_angle_gamma 90.000000
_cell_volume 7237.144535
_symmetry_space_group_name_H-M "P 42/N N M"
_symmetry_group_IT_number 134
_space_group.IT_coordinate_system_code '2'
_symmetry_cell_setting 'tetragonal'
loop_
_space_group_symop_operation_xyz
x,y,z
1/2-y,x,1/2+z
1/2-x,1/2-y,z
y,1/2-x,1/2+z
x,1/2-y,1/2-z
1/2-x,y,1/2-z
y,x,-z
1/2-y,1/2-x,-z
-x,-y,-z
1/2+y,-x,1/2-z
1/2+x,1/2+y,-z
-y,1/2+x,1/2-z
-x,1/2+y,1/2+z
1/2+x,-y,1/2+z
-y,-x,z
1/2+y,1/2+x,z
loop_
_atom_site_type_symbol
_atom_site_label
_atom_site_fract_x
_atom_site_fract_y
_atom_site_fract_z
Si Si1 0.334252 0.101969 0.423907
Si Si2 0.598337 0.996986 0.687456
Si Si3 0.183060 0.323096 0.275756
Si Si4 0.081461 0.812850 0.287965
Si Si5 0.094845 0.406647 0.822291
Si Si6 0.600799 0.502723 0.457883
Si Si7 0.298502 0.024967 0.082981
O O1 0.370047 0.129954 0.500000
O O2 0.382565 0.053177 0.379687
O O3 0.322007 0.164805 0.368845
O O4 0.267996 0.062041 0.440799
O O5 0.570756 0.963581 0.766314
O O6 0.542687 0.042687 0.651612
O O7 0.659811 0.038259 0.716568
O O8 0.190385 0.250000 0.250000
O O9 0.250000 0.360108 0.250000
O O10 0.118815 0.347945 0.232860
O O11 0.116554 0.750000 0.250000
O O12 0.134683 0.865317 0.316947
O O13 0.036426 0.789415 0.359760
O O14 0.117064 0.468904 0.871981
O O15 0.076403 0.347093 0.878595
O O16 0.550136 0.550136 0.500000
O O17 0.568640 0.431361 0.450765
O O18 0.668599 0.497530 0.503890
#
# Coordination Sequence:
#
# PCOD8317098 Si02
#       7
#    16  16  16  16  16  16  16
#     4  11  22  33  49  70  95 126 165 197 236 286
#     4   9  18  32  51  70  90 122 160 198 238 281
#     4  10  20  34  46  63  90 126 164 198 233 278
#     4  10  18  30  51  73  95 127 159 195 246 298
#     4   9  17  29  50  65  88 120 154 202 238 273
#     4   9  17  28  44  69  93 116 151 193 240 285
#     4  10  18  31  46  65  98 124 155 195 243 283
#
# _framework density 15.475716
#
# number of rings (size 3 to 8) (size 9 to 14) (size 15 to 20)
#    0.000    2.286    2.857    0.857    2.000    3.857 
#    0.000    1.429    0.000    0.000    0.000    0.000 
#    0.000    0.000    0.000    0.000    0.000    0.000 
#
# Total GULP energy -1387845.179974 kJ/mol
# GULP energy per Si atom -12391.474821 kJ/mol
# Density = 1.544049 g / cm^3
# Si number density = 15.475716 Si / 1000 Ang^3
#
#
#
# Elastic Constant Matrix: (Units=GPa)
#
#
# Indices 1 2 3 4 5 6 
#
# 1 73.1129 48.1778 46.2938 0.0000 0.0000 0.0000
# 2 48.1778 73.1133 46.2941 0.0000 0.0000 0.0000
# 3 46.2938 46.2941 95.0743 0.0000 0.0000 0.0000
# 4 0.0000 0.0000 0.0000 18.8203 0.0000 0.0000
# 5 0.0000 0.0000 0.0000 0.0000 18.8199 0.0000
# 6 0.0000 0.0000 0.0000 0.0000 0.0000 21.2132
#
#
#
# Elastic Compliance Matrix: (Units=1/GPa)
#
#
# Indices 1 2 3 4 5 6 
#
# 1 0.026613 -0.013491 -0.006389 0.000000 0.000000 0.000000
# 2 -0.013491 0.026613 -0.006389 0.000000 0.000000 0.000000
# 3 -0.006389 -0.006389 0.016740 0.000000 0.000000 0.000000
# 4 0.000000 0.000000 0.000000 0.053134 0.000000 0.000000
# 5 0.000000 0.000000 0.000000 0.000000 0.053135 0.000000
# 6 0.000000 0.000000 0.000000 0.000000 0.000000 0.047140
#
#
# Mechanical properties :
#
#
# Convention : Reuss Voigt Hill
#
# Bulk Modulus (GPa) = 57.38298 58.09243 57.73770
# Shear Modulus (GPa) = 17.74782 18.47298 18.11040
#
# Velocity S-wave (km/s) = 3.39014 3.45871 3.42460
# Velocity P-wave (km/s) = 7.24458 7.31912 7.28195
#
# Compressibility (1/GPa) = 0.01742677
#
# Stress axis : x y z
#
# Youngs Moduli (GPa) = 37.57567 37.57574 59.73559
#
# Poissons Ratio (x) = 0.50693 0.38167
# Poissons Ratio (y) = 0.50693 0.38168
# Poissons Ratio (z) = 0.24009 0.24009
#
# Static dielectric constant tensor:
#      x y z
#    x 2.912790 0.000000 0.000000 
#    y 0.000000 2.912790 0.000000 
#    z 0.000000 0.000000 2.916560 
# 
# 
# High freq. dielectric constant tensor:
#      x y z
#    x 1.578880 0.000000 0.000000 
#    y 0.000000 1.578880 0.000000 
#    z 0.000000 0.000000 1.582550 
# 
# From -- ./inp_files/8130.got.cif
#   From: 2010.03.12/outbox.cif.g09.slc.cpg/sg134_5_cif.got.tgz:8130.got - 2010.04.06 18:17:22.
