data_PCOD8317055
_publ_section_title
;
Structure prediction by ZEFSAII (Michael W. Deem and Ramdas Pophale) SiO2 
 PCOD8317055
Probable space group: P 42/N B C
;
_chemical_formula_sum "Si O2"
_cell_formula_units_Z 48
_cell_length_a 9.131916
_cell_length_b 9.131916
_cell_length_c 23.556270
_cell_angle_alpha 90.000000
_cell_angle_beta 90.000000
_cell_angle_gamma 90.000000
_cell_volume 1964.401873
_symmetry_space_group_name_H-M "P 42/N B C"
_symmetry_group_IT_number 133
_space_group.IT_coordinate_system_code '2'
_symmetry_cell_setting 'tetragonal'
loop_
_space_group_symop_operation_xyz
x,y,z
1/2-y,x,1/2+z
1/2-x,1/2-y,z
y,1/2-x,1/2+z
x,1/2-y,-z
1/2-x,y,-z
y,x,1/2-z
1/2-y,1/2-x,1/2-z
-x,-y,-z
1/2+y,-x,1/2-z
1/2+x,1/2+y,-z
-y,1/2+x,1/2-z
-x,1/2+y,z
1/2+x,-y,z
-y,-x,1/2+z
1/2+y,1/2+x,1/2+z
loop_
_atom_site_type_symbol
_atom_site_label
_atom_site_fract_x
_atom_site_fract_y
_atom_site_fract_z
Si Si1 0.959795 0.177839 0.227415
Si Si2 0.093864 0.677910 0.098421
Si Si3 0.395848 0.099408 0.035865
O O1 0.827953 0.065109 0.239088
O O2 0.967746 0.209756 0.160683
O O3 0.111337 0.111337 0.250000
O O4 0.250000 0.750000 0.086970
O O5 0.125193 0.503983 0.091279
O O6 0.971788 0.746118 0.054685
O O7 0.250000 0.132056 0.000000
O O8 0.500000 0.000000 0.000000
#
# Coordination Sequence:
#
# PCOD8317055 Si02
#       3
#    16  16  16
#     4  11  24  46  74 109 149 193 243 308 373 442
#     4  12  25  48  75 109 151 200 245 309 375 447
#     4  12  27  47  74 107 149 196 252 305 373 446
#
# _framework density 24.434920999999999
#
# number of rings (size 3 to 8) (size 9 to 14) (size 15 to 20)
#    0.000    0.333    6.667    3.000    0.000    3.333 
#    0.000    3.333    0.000    0.000    0.000    0.000 
#    0.000    0.000    0.000    0.000    0.000    0.000 
#
# Total GULP energy -595079.337950 kJ/mol
# GULP energy per Si atom -12397.486207 kJ/mol
# Density = 2.437931 g / cm^3
# Si number density = 24.434921 Si / 1000 Ang^3
#
#
#
# Elastic Constant Matrix: (Units=GPa)
#
#
# Indices 1 2 3 4 5 6 
#
# 1 127.3525 51.1414 47.8320 0.0000 0.0000 0.0000
# 2 51.1414 127.3525 47.8320 0.0000 0.0000 0.0000
# 3 47.8320 47.8320 137.3429 0.0000 0.0000 0.0000
# 4 0.0000 0.0000 0.0000 32.6515 0.0000 0.0000
# 5 0.0000 0.0000 0.0000 0.0000 32.6515 0.0000
# 6 0.0000 0.0000 0.0000 0.0000 0.0000 45.4644
#
#
#
# Elastic Compliance Matrix: (Units=1/GPa)
#
#
# Indices 1 2 3 4 5 6 
#
# 1 0.010005 -0.003117 -0.002399 0.000000 0.000000 0.000000
# 2 -0.003117 0.010005 -0.002399 0.000000 0.000000 0.000000
# 3 -0.002399 -0.002399 0.008952 0.000000 0.000000 0.000000
# 4 0.000000 0.000000 0.000000 0.030626 0.000000 0.000000
# 5 0.000000 0.000000 0.000000 0.000000 0.030626 0.000000
# 6 0.000000 0.000000 0.000000 0.000000 0.000000 0.021995
#
#
# Mechanical properties :
#
#
# Convention : Reuss Voigt Hill
#
# Bulk Modulus (GPa) = 76.14641 76.18429 76.16535
# Shear Modulus (GPa) = 37.75975 38.50298 38.13136
#
# Velocity S-wave (km/s) = 3.93532 3.97386 3.95464
# Velocity P-wave (km/s) = 7.20275 7.23198 7.21738
#
# Compressibility (1/GPa) = 0.01313260
#
# Stress axis : x y z
#
# Youngs Moduli (GPa) = 99.95208 99.95208 111.70723
#
# Poissons Ratio (x) = 0.31152 0.26798
# Poissons Ratio (y) = 0.31152 0.26798
# Poissons Ratio (z) = 0.23978 0.23978
#
# Static dielectric constant tensor:
#      x y z
#    x 6.254710 0.000000 0.000000 
#    y 0.000000 6.254710 0.000000 
#    z 0.000000 0.000000 4.858460 
# 
# 
# High freq. dielectric constant tensor:
#      x y z
#    x 1.984780 0.000000 0.000000 
#    y 0.000000 1.984780 0.000000 
#    z 0.000000 0.000000 1.981720 
# 
# From -- ./inp_files/7753.got.cif
#   From: 2010.03.12/outbox.cif.g09.slc.cpg/sg133_4_cif.got.tgz:7753.got - 2010.04.06 18:08:06.
