data_PCOD8317553
_publ_section_title
;
Structure prediction by ZEFSAII (Michael W. Deem and Ramdas Pophale) SiO2 
 PCOD8317553
Probable space group: P 42/M B C
;
_chemical_formula_sum "Si O2"
_cell_formula_units_Z 92
_cell_length_a 15.035709
_cell_length_b 15.035709
_cell_length_c 20.503383
_cell_angle_alpha 90.000000
_cell_angle_beta 90.000000
_cell_angle_gamma 90.000000
_cell_volume 4635.251979
_symmetry_space_group_name_H-M "P 42/M B C"
_symmetry_group_IT_number 135
_symmetry_cell_setting 'tetragonal'
loop_
_space_group_symop_operation_xyz
x,y,z
-y,x,1/2+z
-x,-y,z
y,-x,1/2+z
1/2+x,1/2-y,-z
1/2-x,1/2+y,-z
1/2+y,1/2+x,1/2-z
1/2-y,1/2-x,1/2-z
-x,-y,-z
y,-x,1/2-z
x,y,-z
-y,x,1/2-z
1/2-x,1/2+y,z
1/2+x,1/2-y,z
1/2-y,1/2-x,1/2+z
1/2+y,1/2+x,1/2+z
loop_
_atom_site_type_symbol
_atom_site_label
_atom_site_fract_x
_atom_site_fract_y
_atom_site_fract_z
Si Si1 0.000000 0.000000 0.250000
Si Si2 0.262248 0.543676 0.927235
Si Si3 0.795724 0.704277 0.250000
Si Si4 0.689405 0.139313 0.884182
Si Si5 0.166170 0.721994 0.926605
Si Si6 0.243759 0.468150 0.575402
Si Si7 0.130275 0.876176 0.324356
O O1 0.918194 0.043574 0.288149
O O2 0.222179 0.446407 0.921406
O O3 0.185837 0.617567 0.922857
O O4 0.322698 0.554507 0.863257
O O5 0.307785 0.550321 0.000000
O O6 0.869000 0.682843 0.305767
O O7 0.815143 0.805420 0.222263
O O8 0.758911 0.221847 0.889810
O O9 0.592555 0.156175 0.915730
O O10 0.067683 0.732334 0.896458
O O11 0.166334 0.757698 0.000000
O O12 0.272087 0.469907 0.500000
O O13 0.317327 0.419685 0.616779
#
# Coordination Sequence:
#
# PCOD8317553 Si02
#       7
#     4  16   8  16  16  16  16
#     4  12  28  40  54  96 132 168 212 282 304 380
#     4  11  22  39  66  93 121 160 208 262 322 380
#     4  10  22  42  64  83 121 176 210 246 306 386
#     4  11  22  41  61  90 124 165 205 259 311 376
#     4  10  21  38  62  93 121 156 205 254 317 376
#     4  10  21  39  64  90 122 160 202 260 317 376
#     4  11  24  40  62  88 126 166 213 254 321 379
#
# _framework density 19.847895999999999
#
# number of rings (size 3 to 8) (size 9 to 14) (size 15 to 20)
#    0.000    1.391    3.478    3.130    4.870    0.696 
#    0.000    3.478    0.000    4.174    0.000    0.000 
#    0.000    0.000    0.000    0.000    0.000    0.000 
#
# Total GULP energy -1139812.737583 kJ/mol
# GULP energy per Si atom -12389.268887 kJ/mol
# Density = 1.980272 g / cm^3
# Si number density = 19.847896 Si / 1000 Ang^3
#
#
#
# Elastic Constant Matrix: (Units=GPa)
#
#
# Indices 1 2 3 4 5 6 
#
# 1 97.3456 8.8165 21.2130 0.0000 0.0000 0.0000
# 2 8.8165 97.3467 21.2140 0.0000 0.0000 0.0000
# 3 21.2130 21.2140 94.2566 0.0000 0.0000 0.0000
# 4 0.0000 0.0000 0.0000 5.7858 0.0000 0.0000
# 5 0.0000 0.0000 0.0000 0.0000 5.7845 0.0000
# 6 0.0000 0.0000 0.0000 0.0000 0.0000 27.7590
#
#
#
# Elastic Compliance Matrix: (Units=1/GPa)
#
#
# Indices 1 2 3 4 5 6 
#
# 1 0.010823 -0.000473 -0.002329 0.000000 0.000000 0.000000
# 2 -0.000473 0.010823 -0.002330 0.000000 0.000000 0.000000
# 3 -0.002329 -0.002330 0.011658 0.000000 0.000000 0.000000
# 4 0.000000 0.000000 0.000000 0.172837 0.000000 0.000000
# 5 0.000000 0.000000 0.000000 0.000000 0.172877 0.000000
# 6 0.000000 0.000000 0.000000 0.000000 0.000000 0.036024
#
#
# Mechanical properties :
#
#
# Convention : Reuss Voigt Hill
#
# Bulk Modulus (GPa) = 43.40111 43.49286 43.44699
# Shear Modulus (GPa) = 11.54772 23.71287 17.63030
#
# Velocity S-wave (km/s) = 2.41469 3.46024 2.98362
# Velocity P-wave (km/s) = 5.44873 6.15832 5.81436
#
# Compressibility (1/GPa) = 0.02304088
#
# Stress axis : x y z
#
# Youngs Moduli (GPa) = 92.39499 92.39565 85.77878
#
# Poissons Ratio (x) = 0.04367 0.19982
# Poissons Ratio (y) = 0.04367 0.19983
# Poissons Ratio (z) = 0.21523 0.21524
#
# Static dielectric constant tensor:
#      x y z
#    x 3.662830 0.000000 0.000000 
#    y 0.000000 3.662830 0.000000 
#    z 0.000000 0.000000 3.916330 
# 
# 
# High freq. dielectric constant tensor:
#      x y z
#    x 1.766820 0.000000 0.000000 
#    y 0.000000 1.766820 0.000000 
#    z 0.000000 0.000000 1.790080 
# 
# From -- ./inp_files/5506.got.cif
#   From: 2010.03.12/outbox.cif.g09.slc.cpg/sg135_3_cif.got.tgz:5506.got - 2010.04.06 18:31:24.
