data_PCOD8317962
_publ_section_title
;
Structure prediction by ZEFSAII (Michael W. Deem and Ramdas Pophale) SiO2 
 PCOD8317962
Probable space group: P 42/M N M
;
_chemical_formula_sum "Si O2"
_cell_formula_units_Z 48
_cell_length_a 12.054765
_cell_length_b 12.054765
_cell_length_c 18.239138
_cell_angle_alpha 90.000000
_cell_angle_beta 90.000000
_cell_angle_gamma 90.000000
_cell_volume 2650.463368
_symmetry_space_group_name_H-M "P 42/M N M"
_symmetry_group_IT_number 136
_symmetry_cell_setting 'tetragonal'
loop_
_space_group_symop_operation_xyz
x,y,z
1/2-y,1/2+x,1/2+z
-x,-y,z
1/2+y,1/2-x,1/2+z
1/2+x,1/2-y,1/2-z
1/2-x,1/2+y,1/2-z
y,x,-z
-y,-x,-z
-x,-y,-z
1/2+y,1/2-x,1/2-z
x,y,-z
1/2-y,1/2+x,1/2-z
1/2-x,1/2+y,1/2+z
1/2+x,1/2-y,1/2+z
-y,-x,z
y,x,z
loop_
_atom_site_type_symbol
_atom_site_label
_atom_site_fract_x
_atom_site_fract_y
_atom_site_fract_z
Si Si1 0.321117 0.497116 0.350156
Si Si2 0.417846 0.896964 0.580929
Si Si3 0.964896 0.332887 0.273879
O O1 0.389242 0.610759 0.348918
O O2 0.396603 0.396603 0.380830
O O3 0.214583 0.513137 0.401888
O O4 0.285473 0.467810 0.266453
O O5 0.363512 0.886194 0.500000
O O6 0.323287 0.917665 0.642875
O O7 0.500000 0.000000 0.583336
O O8 0.884870 0.412077 0.225730
#
# Coordination Sequence:
#
# PCOD8317962 Si02
#       3
#    16  16  16
#     4  10  21  35  54  81 110 141 176 221 274 319
#     4  10  19  35  56  78 108 142 179 219 264 318
#     4   9  15  32  53  79 100 136 178 217 260 302
#
# _framework density 18.110040999999999
#
# number of rings (size 3 to 8) (size 9 to 14) (size 15 to 20)
#    0.000    2.333    6.667    0.000    0.000    6.667 
#    0.000    1.667    0.000    1.000    0.000    2.333 
#    0.000    0.000    0.000    0.000    0.000    0.000 
#
# Total GULP energy -594751.801166 kJ/mol
# GULP energy per Si atom -12390.662524 kJ/mol
# Density = 1.806882 g / cm^3
# Si number density = 18.110041 Si / 1000 Ang^3
#
#
#
# Elastic Constant Matrix: (Units=GPa)
#
#
# Indices 1 2 3 4 5 6 
#
# 1 89.5568 32.3865 28.2688 0.0000 0.0000 0.0000
# 2 32.3865 89.5568 28.2688 0.0000 0.0000 0.0000
# 3 28.2688 28.2688 160.9330 0.0000 0.0000 0.0000
# 4 0.0000 0.0000 0.0000 8.6992 0.0000 0.0000
# 5 0.0000 0.0000 0.0000 0.0000 8.6992 0.0000
# 6 0.0000 0.0000 0.0000 0.0000 0.0000 11.7852
#
#
#
# Elastic Compliance Matrix: (Units=1/GPa)
#
#
# Indices 1 2 3 4 5 6 
#
# 1 0.013210 -0.004282 -0.001568 0.000000 0.000000 0.000000
# 2 -0.004282 0.013210 -0.001568 0.000000 0.000000 0.000000
# 3 -0.001568 -0.001568 0.006765 0.000000 0.000000 0.000000
# 4 0.000000 0.000000 0.000000 0.114954 0.000000 0.000000
# 5 0.000000 0.000000 0.000000 0.000000 0.114954 0.000000
# 6 0.000000 0.000000 0.000000 0.000000 0.000000 0.084852
#
#
# Mechanical properties :
#
#
# Convention : Reuss Voigt Hill
#
# Bulk Modulus (GPa) = 54.50437 57.54388 56.02413
# Shear Modulus (GPa) = 13.55397 22.57821 18.06609
#
# Velocity S-wave (km/s) = 2.73870 3.53473 3.16186
# Velocity P-wave (km/s) = 6.33736 6.96438 6.65826
#
# Compressibility (1/GPa) = 0.01834715
#
# Stress axis : x y z
#
# Youngs Moduli (GPa) = 75.70258 75.70258 147.82642
#
# Poissons Ratio (x) = 0.32416 0.23182
# Poissons Ratio (y) = 0.32416 0.23182
# Poissons Ratio (z) = 0.11872 0.11872
#
# Static dielectric constant tensor:
#      x y z
#    x 3.209170 0.000000 0.000000 
#    y 0.000000 3.209170 0.000000 
#    z 0.000000 0.000000 3.899580 
# 
# 
# High freq. dielectric constant tensor:
#      x y z
#    x 1.682500 0.000000 0.000000 
#    y 0.000000 1.682500 0.000000 
#    z 0.000000 0.000000 1.698550 
# 
# From -- ./inp_files/5700.got.cif
#   From: 2010.03.12/outbox.cif.g09.slc.cpg/sg136_3_cif.got.tgz:5700.got - 2010.04.06 18:39:43.
