data_PCOD8317013
_publ_section_title
;
Structure prediction by ZEFSAII (Michael W. Deem and Ramdas Pophale) SiO2 
 PCOD8317013
Probable space group: P 42/N B C
;
_chemical_formula_sum "Si O2"
_cell_formula_units_Z 80
_cell_length_a 26.271661
_cell_length_b 26.271661
_cell_length_c 5.260863
_cell_angle_alpha 90.000000
_cell_angle_beta 90.000000
_cell_angle_gamma 90.000000
_cell_volume 3631.048546
_symmetry_space_group_name_H-M "P 42/N B C"
_symmetry_group_IT_number 133
_space_group.IT_coordinate_system_code '2'
_symmetry_cell_setting 'tetragonal'
loop_
_space_group_symop_operation_xyz
x,y,z
1/2-y,x,1/2+z
1/2-x,1/2-y,z
y,1/2-x,1/2+z
x,1/2-y,-z
1/2-x,y,-z
y,x,1/2-z
1/2-y,1/2-x,1/2-z
-x,-y,-z
1/2+y,-x,1/2-z
1/2+x,1/2+y,-z
-y,1/2+x,1/2-z
-x,1/2+y,z
1/2+x,-y,z
-y,-x,1/2+z
1/2+y,1/2+x,1/2+z
loop_
_atom_site_type_symbol
_atom_site_label
_atom_site_fract_x
_atom_site_fract_y
_atom_site_fract_z
Si Si1 0.557763 0.632095 0.105412
Si Si2 0.147763 0.191726 0.013403
Si Si3 0.442965 0.525468 0.585579
Si Si4 0.140852 0.606256 0.330524
Si Si5 0.984440 0.283756 0.247427
O O1 0.593572 0.593572 0.250000
O O2 0.515436 0.597018 0.969667
O O3 0.528583 0.673479 0.282295
O O4 0.594972 0.662777 0.916114
O O5 0.185708 0.185708 0.250000
O O6 0.133520 0.250000 0.000000
O O7 0.172101 0.172101 0.750000
O O8 0.487372 0.534241 0.371160
O O9 0.413421 0.577535 0.649240
O O10 0.145887 0.637791 0.594104
O O11 0.188946 0.569609 0.291762
O O12 0.983482 0.250000 0.500000
O O13 0.996462 0.250000 0.000000
#
# Coordination Sequence:
#
# PCOD8317013 Si02
#       5
#    16  16  16  16  16
#     4  10  24  40  59  85 119 160 202 246 296 348
#     4  11  25  44  66  89 114 147 192 249 311 368
#     4   9  19  35  55  80 112 153 198 238 279 334
#     4   9  17  33  56  83 117 154 194 243 295 352
#     4  11  23  39  61  89 123 161 204 251 301 361
#
# _framework density 22.032202999999999
#
# number of rings (size 3 to 8) (size 9 to 14) (size 15 to 20)
#    0.000    2.000    0.000    2.400    0.000   16.400 
#    0.000    0.000    0.000    0.000    0.000    0.000 
#    0.000   28.000    0.000    0.000    0.000    0.000 
#
# Total GULP energy -991365.363913 kJ/mol
# GULP energy per Si atom -12392.067049 kJ/mol
# Density = 2.198206 g / cm^3
# Si number density = 22.032203 Si / 1000 Ang^3
#
#
#
# Elastic Constant Matrix: (Units=GPa)
#
#
# Indices 1 2 3 4 5 6 
#
# 1 87.8487 60.1432 46.7888 0.0000 0.0000 0.0000
# 2 60.1432 87.8487 46.7888 0.0000 0.0000 0.0000
# 3 46.7888 46.7888 162.7134 0.0000 0.0000 0.0000
# 4 0.0000 0.0000 0.0000 22.5912 0.0000 0.0000
# 5 0.0000 0.0000 0.0000 0.0000 22.5912 0.0000
# 6 0.0000 0.0000 0.0000 0.0000 0.0000 36.2961
#
#
#
# Elastic Compliance Matrix: (Units=1/GPa)
#
#
# Indices 1 2 3 4 5 6 
#
# 1 0.022176 -0.013918 -0.002375 0.000000 0.000000 0.000000
# 2 -0.013918 0.022176 -0.002375 0.000000 0.000000 0.000000
# 3 -0.002375 -0.002375 0.007512 0.000000 0.000000 0.000000
# 4 0.000000 0.000000 0.000000 0.044265 0.000000 0.000000
# 5 0.000000 0.000000 0.000000 0.000000 0.044265 0.000000
# 6 0.000000 0.000000 0.000000 0.000000 0.000000 0.027551
#
#
# Mechanical properties :
#
#
# Convention : Reuss Voigt Hill
#
# Bulk Modulus (GPa) = 68.82429 71.76139 70.29284
# Shear Modulus (GPa) = 23.79555 28.60836 26.20196
#
# Velocity S-wave (km/s) = 3.28995 3.60735 3.45230
# Velocity P-wave (km/s) = 6.76296 7.07054 6.91846
#
# Compressibility (1/GPa) = 0.01452975
#
# Stress axis : x y z
#
# Youngs Moduli (GPa) = 45.09302 45.09302 133.12799
#
# Poissons Ratio (x) = 0.62759 0.31616
# Poissons Ratio (y) = 0.62759 0.31616
# Poissons Ratio (z) = 0.10709 0.10709
#
# Static dielectric constant tensor:
#      x y z
#    x 4.149580 0.000000 0.000000 
#    y 0.000000 4.149580 0.000000 
#    z 0.000000 0.000000 4.001060 
# 
# 
# High freq. dielectric constant tensor:
#      x y z
#    x 1.861270 0.000000 0.000000 
#    y 0.000000 1.861270 0.000000 
#    z 0.000000 0.000000 1.864990 
# 
# From -- ./inp_files/482.got.cif
#   From: 2010.03.12/outbox.cif.g09.slc.cpg/sg133_1_cif.got.tgz:482.got - 2010.04.06 18:08:06.
