data_PCOD8317735
_publ_section_title
;
Structure prediction by ZEFSAII (Michael W. Deem and Ramdas Pophale) SiO2 
 PCOD8317735
Probable space group: P 42/M N M
;
_chemical_formula_sum "Si O2"
_cell_formula_units_Z 96
_cell_length_a 13.404971
_cell_length_b 13.404971
_cell_length_c 32.276606
_cell_angle_alpha 90.000000
_cell_angle_beta 90.000000
_cell_angle_gamma 90.000000
_cell_volume 5799.888151
_symmetry_space_group_name_H-M "P 42/M N M"
_symmetry_group_IT_number 136
_symmetry_cell_setting 'tetragonal'
loop_
_space_group_symop_operation_xyz
x,y,z
1/2-y,1/2+x,1/2+z
-x,-y,z
1/2+y,1/2-x,1/2+z
1/2+x,1/2-y,1/2-z
1/2-x,1/2+y,1/2-z
y,x,-z
-y,-x,-z
-x,-y,-z
1/2+y,1/2-x,1/2-z
x,y,-z
1/2-y,1/2+x,1/2-z
1/2-x,1/2+y,1/2+z
1/2+x,1/2-y,1/2+z
-y,-x,z
y,x,z
loop_
_atom_site_type_symbol
_atom_site_label
_atom_site_fract_x
_atom_site_fract_y
_atom_site_fract_z
Si Si1 0.657044 0.495722 0.794129
Si Si2 0.798294 0.638205 0.662776
Si Si3 0.555499 0.102293 0.671624
Si Si4 0.638263 0.800049 0.242027
Si Si5 0.492754 0.777886 0.127117
Si Si6 0.663417 0.499250 0.953820
O O1 0.619264 0.380737 0.786047
O O2 0.564892 0.564892 0.783400
O O3 0.749441 0.528104 0.764773
O O4 0.685080 0.511427 0.842388
O O5 0.687481 0.687481 0.655261
O O6 0.810147 0.519103 0.654470
O O7 0.831739 0.654565 0.710497
O O8 0.877992 0.690621 0.633348
O O9 0.603432 0.146466 0.713253
O O10 0.500000 0.000000 0.683891
O O11 0.636136 0.074146 0.636559
O O12 0.721509 0.721509 0.227192
O O13 0.507389 0.751580 0.079242
O O14 0.596532 0.403468 0.943307
O O15 0.598398 0.598398 0.951362
O O16 0.709439 0.489055 0.000000
#
# Coordination Sequence:
#
# PCOD8317735 Si02
#       6
#    16  16  16  16  16  16
#     4   9  16  26  41  62  88 117 148 188 235 279
#     4  10  20  31  44  62  86 121 165 208 245 286
#     4   9  20  30  47  65  89 125 161 200 247 288
#     4   9  19  31  43  64  89 117 160 206 246 288
#     4  10  18  29  45  68  92 122 159 193 230 288
#     4   9  17  29  48  76 107 132 151 182 239 308
#
# _framework density 16.552043999999999
#
# number of rings (size 3 to 8) (size 9 to 14) (size 15 to 20)
#    0.000    2.667    0.000    2.500    7.000    2.000 
#    0.000    0.000    0.000    5.000    0.000    0.000 
#    0.000    0.000    0.000    1.833    0.000    0.000 
#
# Total GULP energy -1189492.529846 kJ/mol
# GULP energy per Si atom -12390.547186 kJ/mol
# Density = 1.651437 g / cm^3
# Si number density = 16.552044 Si / 1000 Ang^3
#
#
#
# Elastic Constant Matrix: (Units=GPa)
#
#
# Indices 1 2 3 4 5 6 
#
# 1 71.1745 31.8869 27.8368 0.0000 0.0000 0.0000
# 2 31.8869 71.1745 27.8368 0.0000 0.0000 0.0000
# 3 27.8368 27.8368 89.8070 0.0000 0.0000 0.0000
# 4 0.0000 0.0000 0.0000 22.8412 0.0000 0.0000
# 5 0.0000 0.0000 0.0000 0.0000 22.8412 0.0000
# 6 0.0000 0.0000 0.0000 0.0000 0.0000 31.2854
#
#
#
# Elastic Compliance Matrix: (Units=1/GPa)
#
#
# Indices 1 2 3 4 5 6 
#
# 1 0.018554 -0.006899 -0.003612 0.000000 0.000000 0.000000
# 2 -0.006899 0.018554 -0.003612 0.000000 0.000000 0.000000
# 3 -0.003612 -0.003612 0.013374 0.000000 0.000000 0.000000
# 4 0.000000 0.000000 0.000000 0.043781 0.000000 0.000000
# 5 0.000000 0.000000 0.000000 0.000000 0.043781 0.000000
# 6 0.000000 0.000000 0.000000 0.000000 0.000000 0.031964
#
#
# Mechanical properties :
#
#
# Convention : Reuss Voigt Hill
#
# Bulk Modulus (GPa) = 44.97719 45.25301 45.11510
# Shear Modulus (GPa) = 24.31114 25.03324 24.67219
#
# Velocity S-wave (km/s) = 3.83661 3.89317 3.86499
# Velocity P-wave (km/s) = 6.84531 6.89987 6.87265
#
# Compressibility (1/GPa) = 0.02223349
#
# Stress axis : x y z
#
# Youngs Moduli (GPa) = 53.89710 53.89710 74.76962
#
# Poissons Ratio (x) = 0.37186 0.27010
# Poissons Ratio (y) = 0.37186 0.27010
# Poissons Ratio (z) = 0.19470 0.19470
#
# Static dielectric constant tensor:
#      x y z
#    x 3.281840 0.000000 0.000000 
#    y 0.000000 3.281840 0.000000 
#    z 0.000000 0.000000 2.811370 
# 
# 
# High freq. dielectric constant tensor:
#      x y z
#    x 1.634010 0.000000 0.000000 
#    y 0.000000 1.634010 0.000000 
#    z 0.000000 0.000000 1.594840 
# 
# From -- ./inp_files/9883.got.cif
#   From: 2010.03.12/outbox.cif.g09.slc.cpg/sg136_5_cif.got.tgz:9883.got - 2010.04.06 18:39:43.
