data_PCOD8317675
_publ_section_title
;
Structure prediction by ZEFSAII (Michael W. Deem and Ramdas Pophale) SiO2 
 PCOD8317675
Probable space group: P 42/M N M
;
_chemical_formula_sum "Si O2"
_cell_formula_units_Z 112
_cell_length_a 16.211054
_cell_length_b 16.211054
_cell_length_c 30.551727
_cell_angle_alpha 90.000000
_cell_angle_beta 90.000000
_cell_angle_gamma 90.000000
_cell_volume 8028.941056
_symmetry_space_group_name_H-M "P 42/M N M"
_symmetry_group_IT_number 136
_symmetry_cell_setting 'tetragonal'
loop_
_space_group_symop_operation_xyz
x,y,z
1/2-y,1/2+x,1/2+z
-x,-y,z
1/2+y,1/2-x,1/2+z
1/2+x,1/2-y,1/2-z
1/2-x,1/2+y,1/2-z
y,x,-z
-y,-x,-z
-x,-y,-z
1/2+y,1/2-x,1/2-z
x,y,-z
1/2-y,1/2+x,1/2-z
1/2-x,1/2+y,1/2+z
1/2+x,1/2-y,1/2+z
-y,-x,z
y,x,z
loop_
_atom_site_type_symbol
_atom_site_label
_atom_site_fract_x
_atom_site_fract_y
_atom_site_fract_z
Si Si1 0.240394 0.016002 0.816382
Si Si2 0.081103 0.215431 0.278097
Si Si3 0.407451 0.275959 0.187020
Si Si4 0.284766 0.848947 0.220921
Si Si5 0.240484 0.102907 0.048111
Si Si6 0.004809 0.867340 0.102048
Si Si7 0.333832 0.802077 0.367017
O O1 0.202746 0.047173 0.770754
O O2 0.300705 0.084595 0.836912
O O3 0.289908 0.930525 0.809029
O O4 0.164550 0.997779 0.848369
O O5 0.140081 0.140081 0.290379
O O6 0.128499 0.301937 0.283047
O O7 0.005740 0.214626 0.312379
O O8 0.366577 0.366577 0.184508
O O9 0.373500 0.226787 0.228749
O O10 0.381183 0.221713 0.144742
O O11 0.209519 0.790482 0.205375
O O12 0.165619 0.165619 0.043399
O O13 0.307995 0.140340 0.081797
O O14 0.205809 0.016585 0.067846
O O15 0.280166 0.087359 0.000000
O O16 0.095250 0.904751 0.091617
O O17 0.937806 0.937806 0.097165
O O18 0.282619 0.717382 0.358070
#
# Coordination Sequence:
#
# PCOD8317675 Si02
#       7
#    16  16  16  16  16  16  16
#     4  10  16  25  40  53  72 105 139 163 188 232
#     4  10  18  28  41  55  77 104 133 168 201 233
#     4   9  17  28  41  56  75 102 134 163 198 235
#     4   9  17  27  38  54  76 103 133 166 199 226
#     4   8  14  23  36  55  77 104 134 161 195 240
#     4   9  16  23  33  53  79 106 135 166 198 231
#     4   9  15  26  42  56  77 107 135 164 199 236
#
# _framework density 13.949536999999999
#
# number of rings (size 3 to 8) (size 9 to 14) (size 15 to 20)
#    0.000    2.857    1.429    2.571    0.000    1.143 
#    0.000    2.143    0.000    0.000    0.000    0.000 
#    0.000    9.714    0.000   18.429    0.000    4.571 
#
# Total GULP energy -1388177.742185 kJ/mol
# GULP energy per Si atom -12394.444127 kJ/mol
# Density = 1.391779 g / cm^3
# Si number density = 13.949537 Si / 1000 Ang^3
#
#
#
# Elastic Constant Matrix: (Units=GPa)
#
#
# Indices 1 2 3 4 5 6 
#
# 1 76.4623 33.7187 28.9499 0.0000 0.0000 0.0000
# 2 33.7187 76.4623 28.9499 0.0000 0.0000 0.0000
# 3 28.9499 28.9499 74.4353 0.0000 0.0000 0.0000
# 4 0.0000 0.0000 0.0000 11.2242 0.0000 0.0000
# 5 0.0000 0.0000 0.0000 0.0000 11.2242 0.0000
# 6 0.0000 0.0000 0.0000 0.0000 0.0000 12.6797
#
#
#
# Elastic Compliance Matrix: (Units=1/GPa)
#
#
# Indices 1 2 3 4 5 6 
#
# 1 0.017401 -0.005994 -0.004437 0.000000 0.000000 0.000000
# 2 -0.005994 0.017401 -0.004437 0.000000 0.000000 0.000000
# 3 -0.004437 -0.004437 0.016886 0.000000 0.000000 0.000000
# 4 0.000000 0.000000 0.000000 0.089093 0.000000 0.000000
# 5 0.000000 0.000000 0.000000 0.000000 0.089093 0.000000
# 6 0.000000 0.000000 0.000000 0.000000 0.000000 0.078866
#
#
# Mechanical properties :
#
#
# Convention : Reuss Voigt Hill
#
# Bulk Modulus (GPa) = 45.55022 45.62186 45.58604
# Shear Modulus (GPa) = 14.45951 16.07505 15.26728
#
# Velocity S-wave (km/s) = 3.22306 3.39834 3.31186
# Velocity P-wave (km/s) = 6.82461 6.94077 6.88293
#
# Compressibility (1/GPa) = 0.02195379
#
# Stress axis : x y z
#
# Youngs Moduli (GPa) = 57.46668 57.46668 59.22226
#
# Poissons Ratio (x) = 0.34445 0.26275
# Poissons Ratio (y) = 0.34445 0.26275
# Poissons Ratio (z) = 0.25496 0.25496
#
# Static dielectric constant tensor:
#      x y z
#    x 2.678820 0.000000 0.000000 
#    y 0.000000 2.678820 0.000000 
#    z 0.000000 0.000000 2.777020 
# 
# 
# High freq. dielectric constant tensor:
#      x y z
#    x 1.513170 0.000000 0.000000 
#    y 0.000000 1.513170 0.000000 
#    z 0.000000 0.000000 1.509390 
# 
# From -- ./inp_files/9972.got.cif
#   From: 2010.03.12/outbox.cif.g09.slc.cpg/sg136_5_cif.got.tgz:9972.got - 2010.04.06 18:39:43.
