data_PCOD8317599
_publ_section_title
;
Structure prediction by ZEFSAII (Michael W. Deem and Ramdas Pophale) SiO2 
 PCOD8317599
Probable space group: P 42/M B C
;
_chemical_formula_sum "Si O2"
_cell_formula_units_Z 112
_cell_length_a 14.085012
_cell_length_b 14.085012
_cell_length_c 30.601099
_cell_angle_alpha 90.000000
_cell_angle_beta 90.000000
_cell_angle_gamma 90.000000
_cell_volume 6070.877457
_symmetry_space_group_name_H-M "P 42/M B C"
_symmetry_group_IT_number 135
_symmetry_cell_setting 'tetragonal'
loop_
_space_group_symop_operation_xyz
x,y,z
-y,x,1/2+z
-x,-y,z
y,-x,1/2+z
1/2+x,1/2-y,-z
1/2-x,1/2+y,-z
1/2+y,1/2+x,1/2-z
1/2-y,1/2-x,1/2-z
-x,-y,-z
y,-x,1/2-z
x,y,-z
-y,x,1/2-z
1/2-x,1/2+y,z
1/2+x,1/2-y,z
1/2-y,1/2-x,1/2+z
1/2+y,1/2+x,1/2+z
loop_
_atom_site_type_symbol
_atom_site_label
_atom_site_fract_x
_atom_site_fract_y
_atom_site_fract_z
Si Si1 0.338875 0.684942 0.386798
Si Si2 0.521520 0.351426 0.754842
Si Si3 0.583660 0.931324 0.702146
Si Si4 0.248560 0.506652 0.168402
Si Si5 0.002386 0.109983 0.551360
Si Si6 0.766338 0.004905 0.656770
Si Si7 0.174884 0.164706 0.107760
O O1 0.405579 0.749135 0.356015
O O2 0.402725 0.658645 0.428925
O O3 0.313579 0.591489 0.359737
O O4 0.240493 0.739359 0.399400
O O5 0.421499 0.400962 0.764342
O O6 0.509501 0.269285 0.719482
O O7 0.553919 0.318468 0.802328
O O8 0.613897 0.886104 0.750000
O O9 0.547950 0.856165 0.666663
O O10 0.662843 0.987133 0.675539
O O11 0.500000 0.000000 0.713776
O O12 0.313755 0.587967 0.146814
O O13 0.011478 0.121462 0.500000
O O14 0.902582 0.159713 0.565391
O O15 0.000000 0.000000 0.566127
O O16 0.771455 0.081809 0.617795
#
# Coordination Sequence:
#
# PCOD8317599 Si02
#       7
#    16  16  16  16  16  16  16
#     4  11  23  38  61  88 117 150 192 239 291 349
#     4  11  21  31  51  79 114 152 196 253 297 328
#     4  11  23  36  50  73 117 166 202 239 284 330
#     4  11  21  36  53  82 112 152 206 242 282 340
#     4  10  22  42  69  95 117 143 184 239 301 368
#     4  12  21  36  56  83 115 156 203 246 288 334
#     4  11  23  38  61  89 117 152 192 240 293 352
#
# _framework density 18.448734000000002
#
# number of rings (size 3 to 8) (size 9 to 14) (size 15 to 20)
#    0.000    1.000    7.143    0.857    0.000    0.571 
#    0.000    1.429    0.000    0.000    0.000    1.000 
#    0.000    0.000    0.000    0.000    0.000    0.000 
#
# Total GULP energy -1387835.291651 kJ/mol
# GULP energy per Si atom -12391.386533 kJ/mol
# Density = 1.840674 g / cm^3
# Si number density = 18.448734 Si / 1000 Ang^3
#
#
#
# Elastic Constant Matrix: (Units=GPa)
#
#
# Indices 1 2 3 4 5 6 
#
# 1 74.5954 15.7134 28.5591 0.0000 0.0000 0.0000
# 2 15.7134 74.5955 28.5590 0.0000 0.0000 0.0000
# 3 28.5591 28.5590 81.4721 0.0000 0.0000 0.0000
# 4 0.0000 0.0000 0.0000 32.4065 0.0000 0.0000
# 5 0.0000 0.0000 0.0000 0.0000 32.4059 0.0000
# 6 0.0000 0.0000 0.0000 0.0000 0.0000 139.7549
#
#
#
# Elastic Compliance Matrix: (Units=1/GPa)
#
#
# Indices 1 2 3 4 5 6 
#
# 1 0.015605 -0.001378 -0.004987 0.000000 0.000000 0.000000
# 2 -0.001378 0.015605 -0.004987 0.000000 0.000000 0.000000
# 3 -0.004987 -0.004987 0.015771 0.000000 0.000000 0.000000
# 4 0.000000 0.000000 0.000000 0.030858 0.000000 0.000000
# 5 0.000000 0.000000 0.000000 0.000000 0.030859 0.000000
# 6 0.000000 0.000000 0.000000 0.000000 0.000000 0.007155
#
#
# Mechanical properties :
#
#
# Convention : Reuss Voigt Hill
#
# Bulk Modulus (GPa) = 41.19222 41.81400 41.50311
# Shear Modulus (GPa) = 34.09481 51.43557 42.76519
#
# Velocity S-wave (km/s) = 4.30360 5.28591 4.81984
# Velocity P-wave (km/s) = 6.86083 7.74394 7.31572
#
# Compressibility (1/GPa) = 0.02427643
#
# Stress axis : x y z
#
# Youngs Moduli (GPa) = 64.08088 64.08105 63.40917
#
# Poissons Ratio (x) = 0.08829 0.31624
# Poissons Ratio (y) = 0.08829 0.31624
# Poissons Ratio (z) = 0.31959 0.31959
#
# Static dielectric constant tensor:
#      x y z
#    x 3.386310 0.000000 0.000000 
#    y 0.000000 3.386310 0.000000 
#    z 0.000000 0.000000 3.148490 
# 
# 
# High freq. dielectric constant tensor:
#      x y z
#    x 1.717910 0.000000 0.000000 
#    y 0.000000 1.717910 0.000000 
#    z 0.000000 0.000000 1.696500 
# 
# From -- ./inp_files/6526.got.cif
#   From: 2010.03.12/outbox.cif.g09.slc.cpg/sg135_4_cif.got.tgz:6526.got - 2010.04.06 18:31:24.
