data_PCOD8317015
_publ_section_title
;
Structure prediction by ZEFSAII (Michael W. Deem and Ramdas Pophale) SiO2 
 PCOD8317015
Probable space group: P 42/N B C
;
_chemical_formula_sum "Si O2"
_cell_formula_units_Z 84
_cell_length_a 10.788983
_cell_length_b 10.788983
_cell_length_c 29.508943
_cell_angle_alpha 90.000000
_cell_angle_beta 90.000000
_cell_angle_gamma 90.000000
_cell_volume 3434.904533
_symmetry_space_group_name_H-M "P 42/N B C"
_symmetry_group_IT_number 133
_space_group.IT_coordinate_system_code '2'
_symmetry_cell_setting 'tetragonal'
loop_
_space_group_symop_operation_xyz
x,y,z
1/2-y,x,1/2+z
1/2-x,1/2-y,z
y,1/2-x,1/2+z
x,1/2-y,-z
1/2-x,y,-z
y,x,1/2-z
1/2-y,1/2-x,1/2-z
-x,-y,-z
1/2+y,-x,1/2-z
1/2+x,1/2+y,-z
-y,1/2+x,1/2-z
-x,1/2+y,z
1/2+x,-y,z
-y,-x,1/2+z
1/2+y,1/2+x,1/2+z
loop_
_atom_site_type_symbol
_atom_site_label
_atom_site_fract_x
_atom_site_fract_y
_atom_site_fract_z
Si Si1 0.866701 0.903917 0.424636
Si Si2 0.567175 0.599006 0.697556
Si Si3 0.836243 0.093818 0.174029
Si Si4 0.250000 0.250000 0.646901
Si Si5 0.250000 0.750000 0.250000
Si Si6 0.250000 0.750000 0.000000
Si Si7 0.250000 0.250000 0.500000
Si Si8 0.143805 0.594072 0.578431
O O1 0.862965 0.802604 0.383995
O O2 0.843194 0.834929 0.471631
O O3 0.004179 0.965219 0.425222
O O4 0.752658 0.995684 0.416761
O O5 0.581248 0.581248 0.750000
O O6 0.476830 0.711390 0.686198
O O7 0.519893 0.468580 0.675346
O O8 0.700495 0.636361 0.676968
O O9 0.852271 0.193434 0.215176
O O10 0.821005 0.151461 0.123694
O O11 0.170392 0.838657 0.967664
#
# Coordination Sequence:
#
# PCOD8317015 Si02
#       8
#    16  16  16   8   4   4   4  16
#     4  11  25  47  77 109 156 207 267 345 424 512
#     4  12  26  49  80 118 163 222 282 345 413 515
#     4  12  27  49  81 115 170 217 279 346 424 504
#     4  11  23  45  75 114 152 214 273 333 423 493
#     4  12  26  48  72 118 156 228 262 344 412 498
#     4  12  30  48  80 122 150 224 284 370 424 526
#     4  10  24  44  74 112 148 196 268 346 410 516
#     4  12  27  51  79 113 161 212 280 348 433 500
#
# _framework density 24.454827999999999
#
# number of rings (size 3 to 8) (size 9 to 14) (size 15 to 20)
#    0.000    0.381    5.714    2.000    0.000   12.190 
#    0.000    0.000    0.000    0.000    0.000    0.000 
#    0.000    0.000    0.000    0.000    0.000    0.000 
#
# Total GULP energy -1040958.021348 kJ/mol
# GULP energy per Si atom -12392.357397 kJ/mol
# Density = 2.439917 g / cm^3
# Si number density = 24.454828 Si / 1000 Ang^3
#
#
#
# Elastic Constant Matrix: (Units=GPa)
#
#
# Indices 1 2 3 4 5 6 
#
# 1 150.4199 52.3823 40.5168 0.0000 0.0000 0.0000
# 2 52.3823 150.4199 40.5168 0.0000 0.0000 0.0000
# 3 40.5168 40.5168 184.3401 0.0000 0.0000 0.0000
# 4 0.0000 0.0000 0.0000 22.6175 0.0000 0.0000
# 5 0.0000 0.0000 0.0000 0.0000 22.6175 0.0000
# 6 0.0000 0.0000 0.0000 0.0000 0.0000 47.3130
#
#
#
# Elastic Compliance Matrix: (Units=1/GPa)
#
#
# Indices 1 2 3 4 5 6 
#
# 1 0.007803 -0.002397 -0.001188 0.000000 0.000000 0.000000
# 2 -0.002397 0.007803 -0.001188 0.000000 0.000000 0.000000
# 3 -0.001188 -0.001188 0.005947 0.000000 0.000000 0.000000
# 4 0.000000 0.000000 0.000000 0.044214 0.000000 0.000000
# 5 0.000000 0.000000 0.000000 0.000000 0.044214 0.000000
# 6 0.000000 0.000000 0.000000 0.000000 0.000000 0.021136
#
#
# Mechanical properties :
#
#
# Convention : Reuss Voigt Hill
#
# Bulk Modulus (GPa) = 83.29282 83.55683 83.42483
# Shear Modulus (GPa) = 34.56266 41.96054 38.26160
#
# Velocity S-wave (km/s) = 3.76350 4.14676 3.95977
# Velocity P-wave (km/s) = 7.28142 7.56105 7.42255
#
# Compressibility (1/GPa) = 0.01200584
#
# Stress axis : x y z
#
# Youngs Moduli (GPa) = 128.15733 128.15733 168.15086
#
# Poissons Ratio (x) = 0.30723 0.19978
# Poissons Ratio (y) = 0.30723 0.19978
# Poissons Ratio (z) = 0.15227 0.15227
#
# Static dielectric constant tensor:
#      x y z
#    x 4.597510 0.000000 0.000000 
#    y 0.000000 4.597510 0.000000 
#    z 0.000000 0.000000 5.051810 
# 
# 
# High freq. dielectric constant tensor:
#      x y z
#    x 1.964220 0.000000 0.000000 
#    y 0.000000 1.964220 0.000000 
#    z 0.000000 0.000000 2.008020 
# 
# From -- ./inp_files/8024.got.cif
#   From: 2010.03.12/outbox.cif.g09.slc.cpg/sg133_5_cif.got.tgz:8024.got - 2010.04.06 18:08:06.
