data_PCOD8317127
_publ_section_title
;
Structure prediction by ZEFSAII (Michael W. Deem and Ramdas Pophale) SiO2 
 PCOD8317127
Probable space group: P 42/N N M
;
_chemical_formula_sum "Si O2"
_cell_formula_units_Z 88
_cell_length_a 11.725024
_cell_length_b 11.725024
_cell_length_c 32.992518
_cell_angle_alpha 90.000000
_cell_angle_beta 90.000000
_cell_angle_gamma 90.000000
_cell_volume 4535.685601
_symmetry_space_group_name_H-M "P 42/N N M"
_symmetry_group_IT_number 134
_space_group.IT_coordinate_system_code '2'
_symmetry_cell_setting 'tetragonal'
loop_
_space_group_symop_operation_xyz
x,y,z
1/2-y,x,1/2+z
1/2-x,1/2-y,z
y,1/2-x,1/2+z
x,1/2-y,1/2-z
1/2-x,y,1/2-z
y,x,-z
1/2-y,1/2-x,-z
-x,-y,-z
1/2+y,-x,1/2-z
1/2+x,1/2+y,-z
-y,1/2+x,1/2-z
-x,1/2+y,1/2+z
1/2+x,-y,1/2+z
-y,-x,z
1/2+y,1/2+x,z
loop_
_atom_site_type_symbol
_atom_site_label
_atom_site_fract_x
_atom_site_fract_y
_atom_site_fract_z
Si Si1 0.240810 0.038610 0.648440
Si Si2 0.058951 0.120372 0.798699
Si Si3 0.250000 0.250000 0.408587
Si Si4 0.838633 0.338633 0.093962
Si Si5 0.413375 0.241407 0.520763
Si Si6 0.443473 0.378538 0.706071
Si Si7 0.094007 0.594007 0.993952
O O1 0.358511 0.046002 0.673051
O O2 0.227934 0.141541 0.618112
O O3 0.138998 0.041229 0.680560
O O4 0.231712 0.925278 0.622008
O O5 0.101115 0.117670 0.752243
O O6 0.055612 0.251665 0.812632
O O7 0.932882 0.067118 0.802675
O O8 0.233341 0.369223 0.433161
O O9 0.750000 0.250000 0.075175
O O10 0.895542 0.395542 0.054651
O O11 0.336521 0.336521 0.500000
O O12 0.382767 0.117234 0.500000
O O13 0.545592 0.286196 0.514476
O O14 0.571350 0.428651 0.703303
O O15 0.000000 0.500000 0.000000
#
# Coordination Sequence:
#
# PCOD8317127 Si02
#       7
#    16  16   8   8  16  16   8
#     4  12  20  36  56  85 121 159 199 244 296 360
#     4  10  21  36  57  81 117 158 199 257 306 349
#     4  10  19  30  59  90 112 144 196 260 285 342
#     4  12  26  38  58  92 130 156 190 246 310 360
#     4   8  15  29  48  79 107 131 183 234 281 336
#     4  10  20  37  58  83 111 156 212 249 293 364
#     4  10  18  36  60  82 106 156 198 240 282 356
#
# _framework density 19.401699000000001
#
# number of rings (size 3 to 8) (size 9 to 14) (size 15 to 20)
#    0.000    2.000    2.727    4.364    0.000    1.818 
#    0.000    1.818    0.000    6.000    0.000    0.000 
#    0.000    0.000    0.000    0.000    0.000    0.000 
#
# Total GULP energy -1090285.737551 kJ/mol
# GULP energy per Si atom -12389.610654 kJ/mol
# Density = 1.935754 g / cm^3
# Si number density = 19.401699 Si / 1000 Ang^3
#
#
#
# Elastic Constant Matrix: (Units=GPa)
#
#
# Indices 1 2 3 4 5 6 
#
# 1 75.2567 42.8027 27.3888 0.0000 0.0000 0.0000
# 2 42.8027 75.2571 27.3889 0.0000 0.0000 0.0000
# 3 27.3888 27.3889 82.6662 0.0000 0.0000 0.0000
# 4 0.0000 0.0000 0.0000 57.9646 0.0000 0.0000
# 5 0.0000 0.0000 0.0000 0.0000 57.9614 0.0000
# 6 0.0000 0.0000 0.0000 0.0000 0.0000 41.3851
#
#
#
# Elastic Compliance Matrix: (Units=1/GPa)
#
#
# Indices 1 2 3 4 5 6 
#
# 1 0.020411 -0.010402 -0.003316 0.000000 0.000000 0.000000
# 2 -0.010402 0.020411 -0.003316 0.000000 0.000000 0.000000
# 3 -0.003316 -0.003316 0.014294 0.000000 0.000000 0.000000
# 4 0.000000 0.000000 0.000000 0.017252 0.000000 0.000000
# 5 0.000000 0.000000 0.000000 0.000000 0.017253 0.000000
# 6 0.000000 0.000000 0.000000 0.000000 0.000000 0.024163
#
#
# Mechanical properties :
#
#
# Convention : Reuss Voigt Hill
#
# Bulk Modulus (GPa) = 47.51153 47.59343 47.55248
# Shear Modulus (GPa) = 32.28555 40.50221 36.39388
#
# Velocity S-wave (km/s) = 4.08371 4.57394 4.33576
# Velocity P-wave (km/s) = 6.83938 7.24419 7.04470
#
# Compressibility (1/GPa) = 0.02104752
#
# Stress axis : x y z
#
# Youngs Moduli (GPa) = 48.99351 48.99379 69.95827
#
# Poissons Ratio (x) = 0.50963 0.23199
# Poissons Ratio (y) = 0.50962 0.23199
# Poissons Ratio (z) = 0.16247 0.16247
#
# Static dielectric constant tensor:
#      x y z
#    x 3.976080 0.000000 0.000000 
#    y 0.000000 3.976080 0.000000 
#    z 0.000000 0.000000 3.718220 
# 
# 
# High freq. dielectric constant tensor:
#      x y z
#    x 1.741580 0.000000 0.000000 
#    y 0.000000 1.741580 0.000000 
#    z 0.000000 0.000000 1.759160 
# 
# From -- ./inp_files/11511.got.cif
#   From: 2010.03.12/outbox.cif.g09.slc.cpg/sg134_6_cif.got.tgz:11511.got - 2010.04.06 18:17:22.
