data_PCOD8317831
_publ_section_title
;
Structure prediction by ZEFSAII (Michael W. Deem and Ramdas Pophale) SiO2 
 PCOD8317831
Probable space group: P 42/M N M
;
_chemical_formula_sum "Si O2"
_cell_formula_units_Z 112
_cell_length_a 19.502990
_cell_length_b 19.502990
_cell_length_c 17.617120
_cell_angle_alpha 90.000000
_cell_angle_beta 90.000000
_cell_angle_gamma 90.000000
_cell_volume 6700.964370
_symmetry_space_group_name_H-M "P 42/M N M"
_symmetry_group_IT_number 136
_symmetry_cell_setting 'tetragonal'
loop_
_space_group_symop_operation_xyz
x,y,z
1/2-y,1/2+x,1/2+z
-x,-y,z
1/2+y,1/2-x,1/2+z
1/2+x,1/2-y,1/2-z
1/2-x,1/2+y,1/2-z
y,x,-z
-y,-x,-z
-x,-y,-z
1/2+y,1/2-x,1/2-z
x,y,-z
1/2-y,1/2+x,1/2-z
1/2-x,1/2+y,1/2+z
1/2+x,1/2-y,1/2+z
-y,-x,z
y,x,z
loop_
_atom_site_type_symbol
_atom_site_label
_atom_site_fract_x
_atom_site_fract_y
_atom_site_fract_z
Si Si1 0.707138 0.815660 0.143148
Si Si2 0.955073 0.747980 0.086440
Si Si3 0.854285 0.445503 0.174839
Si Si4 0.698997 0.193028 0.181983
Si Si5 0.294093 0.403398 0.412044
Si Si6 0.630792 0.069162 0.586148
Si Si7 0.996670 0.618213 0.162856
O O1 0.754402 0.754402 0.110365
O O2 0.751028 0.887152 0.139284
O O3 0.683606 0.797393 0.227663
O O4 0.637998 0.823716 0.094160
O O5 0.994726 0.675747 0.097179
O O6 0.014869 0.803708 0.105547
O O7 0.929639 0.754870 0.000000
O O8 0.804469 0.380831 0.160125
O O9 0.829155 0.500915 0.112499
O O10 0.845057 0.478864 0.257538
O O11 0.932568 0.421502 0.164345
O O12 0.736314 0.263687 0.156972
O O13 0.735911 0.128585 0.142370
O O14 0.271722 0.393232 0.500000
O O15 0.366743 0.366743 0.395943
O O16 0.607281 0.061818 0.500000
O O17 0.565000 0.066612 0.642007
#
# Coordination Sequence:
#
# PCOD8317831 Si02
#       7
#    16  16  16  16  16  16  16
#     4  10  20  35  53  72  97 130 169 212 251 296
#     4  10  19  30  49  72  93 125 164 197 242 293
#     4  12  20  32  50  69 102 136 162 202 247 291
#     4  10  19  32  52  74  94 129 173 205 247 296
#     4   9  18  32  49  71  99 126 159 203 245 293
#     4  11  24  34  47  73  99 133 173 204 246 300
#     4  11  19  31  47  67  97 137 163 197 235 286
#
# _framework density 16.714013000000001
#
# number of rings (size 3 to 8) (size 9 to 14) (size 15 to 20)
#    0.000    1.571    5.714    2.143    0.000    3.429 
#    0.000    0.000    0.000    0.429    0.000    2.000 
#    0.000    0.571    0.000    1.286    0.000    0.000 
#
# Total GULP energy -1387898.148687 kJ/mol
# GULP energy per Si atom -12391.947756 kJ/mol
# Density = 1.667597 g / cm^3
# Si number density = 16.714013 Si / 1000 Ang^3
#
#
#
# Elastic Constant Matrix: (Units=GPa)
#
#
# Indices 1 2 3 4 5 6 
#
# 1 69.9146 44.1456 21.2447 0.0000 0.0000 0.0000
# 2 44.1456 69.9146 21.2447 0.0000 0.0000 0.0000
# 3 21.2447 21.2447 65.9490 0.0000 0.0000 0.0000
# 4 0.0000 0.0000 0.0000 18.6389 0.0000 0.0000
# 5 0.0000 0.0000 0.0000 0.0000 18.6389 0.0000
# 6 0.0000 0.0000 0.0000 0.0000 0.0000 23.0311
#
#
#
# Elastic Compliance Matrix: (Units=1/GPa)
#
#
# Indices 1 2 3 4 5 6 
#
# 1 0.024385 -0.014422 -0.003209 0.000000 0.000000 0.000000
# 2 -0.014422 0.024385 -0.003209 0.000000 0.000000 0.000000
# 3 -0.003209 -0.003209 0.017231 0.000000 0.000000 0.000000
# 4 0.000000 0.000000 0.000000 0.053651 0.000000 0.000000
# 5 0.000000 0.000000 0.000000 0.000000 0.053651 0.000000
# 6 0.000000 0.000000 0.000000 0.000000 0.000000 0.043420
#
#
# Mechanical properties :
#
#
# Convention : Reuss Voigt Hill
#
# Bulk Modulus (GPa) = 41.12006 42.11647 41.61826
# Shear Modulus (GPa) = 18.76103 20.00465 19.38284
#
# Velocity S-wave (km/s) = 3.35397 3.46335 3.40910
# Velocity P-wave (km/s) = 6.29717 6.42231 6.36005
#
# Compressibility (1/GPa) = 0.02431903
#
# Stress axis : x y z
#
# Youngs Moduli (GPa) = 41.00952 41.00952 58.03505
#
# Poissons Ratio (x) = 0.59143 0.18626
# Poissons Ratio (y) = 0.59143 0.18626
# Poissons Ratio (z) = 0.13162 0.13162
#
# Static dielectric constant tensor:
#      x y z
#    x 3.193850 0.000000 0.000000 
#    y 0.000000 3.193850 0.000000 
#    z 0.000000 0.000000 3.140470 
# 
# 
# High freq. dielectric constant tensor:
#      x y z
#    x 1.625600 0.000000 0.000000 
#    y 0.000000 1.625600 0.000000 
#    z 0.000000 0.000000 1.644820 
# 
# From -- ./inp_files/6581.got.cif
#   From: 2010.03.12/outbox.cif.g09.slc.cpg/sg136_4_cif.got.tgz:6581.got - 2010.04.06 18:39:43.
