data_PCOD8317122
_publ_section_title
;
Structure prediction by ZEFSAII (Michael W. Deem and Ramdas Pophale) SiO2 
 PCOD8317122
Probable space group: P 42/N N M
;
_chemical_formula_sum "Si O2"
_cell_formula_units_Z 112
_cell_length_a 15.291428
_cell_length_b 15.291428
_cell_length_c 25.662231
_cell_angle_alpha 90.000000
_cell_angle_beta 90.000000
_cell_angle_gamma 90.000000
_cell_volume 6000.542255
_symmetry_space_group_name_H-M "P 42/N N M"
_symmetry_group_IT_number 134
_space_group.IT_coordinate_system_code '2'
_symmetry_cell_setting 'tetragonal'
loop_
_space_group_symop_operation_xyz
x,y,z
1/2-y,x,1/2+z
1/2-x,1/2-y,z
y,1/2-x,1/2+z
x,1/2-y,1/2-z
1/2-x,y,1/2-z
y,x,-z
1/2-y,1/2-x,-z
-x,-y,-z
1/2+y,-x,1/2-z
1/2+x,1/2+y,-z
-y,1/2+x,1/2-z
-x,1/2+y,1/2+z
1/2+x,-y,1/2+z
-y,-x,z
1/2+y,1/2+x,z
loop_
_atom_site_type_symbol
_atom_site_label
_atom_site_fract_x
_atom_site_fract_y
_atom_site_fract_z
Si Si1 0.060278 0.802321 0.797985
Si Si2 0.879882 0.649579 0.748825
Si Si3 0.175282 0.967134 0.210327
Si Si4 0.045433 0.686691 0.897564
Si Si5 0.282192 0.574020 0.388169
Si Si6 0.921306 0.558963 0.853211
Si Si7 0.392383 0.748535 0.998841
O O1 0.104652 0.750000 0.750000
O O2 0.126761 0.873240 0.820088
O O3 0.032008 0.743982 0.846295
O O4 0.976220 0.848776 0.774128
O O5 0.839928 0.750000 0.750000
O O6 0.830830 0.574126 0.714879
O O7 0.879064 0.616661 0.808017
O O8 0.250000 0.934354 0.250000
O O9 0.083752 0.916249 0.223523
O O10 0.204487 0.936795 0.153125
O O11 0.139985 0.639985 0.893706
O O12 0.966428 0.617859 0.897608
O O13 0.038673 0.741704 0.951248
O O14 0.332709 0.667292 0.381551
O O15 0.347729 0.493843 0.383082
O O16 0.236976 0.563557 0.444746
O O17 0.993049 0.493049 0.828195
O O18 0.335168 0.664833 0.984886
O O19 0.336479 0.836479 0.002170
#
# Coordination Sequence:
#
# PCOD8317122 Si02
#       7
#    16  16  16  16  16  16  16
#     4  11  20  30  48  74 107 149 187 231 289 346
#     4  11  22  38  56  79 115 156 193 234 287 348
#     4  12  24  38  59  87 118 152 194 247 302 357
#     4  10  19  31  51  79 113 151 193 243 293 347
#     4  10  21  37  58  82 114 154 193 243 303 359
#     4  10  18  34  54  80 116 147 191 243 287 348
#     4   9  18  33  52  78 114 152 192 242 300 358
#
# _framework density 18.664981000000001
#
# number of rings (size 3 to 8) (size 9 to 14) (size 15 to 20)
#    0.000    1.571    4.286    3.000    0.000    4.000 
#    0.000    2.857    0.000    0.857    0.000    3.000 
#    4.286    0.000    0.000    0.000    0.000    0.000 
#
# Total GULP energy -1388001.329006 kJ/mol
# GULP energy per Si atom -12392.869009 kJ/mol
# Density = 1.862250 g / cm^3
# Si number density = 18.664981 Si / 1000 Ang^3
#
#
#
# Elastic Constant Matrix: (Units=GPa)
#
#
# Indices 1 2 3 4 5 6 
#
# 1 62.6720 22.2009 16.8668 0.0000 0.0000 0.0000
# 2 22.2009 62.6720 16.8668 0.0000 0.0000 0.0000
# 3 16.8668 16.8668 110.4857 0.0000 0.0000 0.0000
# 4 0.0000 0.0000 0.0000 19.3231 0.0000 0.0000
# 5 0.0000 0.0000 0.0000 0.0000 19.3231 0.0000
# 6 0.0000 0.0000 0.0000 0.0000 0.0000 13.2573
#
#
#
# Elastic Compliance Matrix: (Units=1/GPa)
#
#
# Indices 1 2 3 4 5 6 
#
# 1 0.018626 -0.006083 -0.001915 0.000000 0.000000 0.000000
# 2 -0.006083 0.018626 -0.001915 0.000000 0.000000 0.000000
# 3 -0.001915 -0.001915 0.009636 0.000000 0.000000 0.000000
# 4 0.000000 0.000000 0.000000 0.051752 0.000000 0.000000
# 5 0.000000 0.000000 0.000000 0.000000 0.051752 0.000000
# 6 0.000000 0.000000 0.000000 0.000000 0.000000 0.075430
#
#
# Mechanical properties :
#
#
# Convention : Reuss Voigt Hill
#
# Bulk Modulus (GPa) = 36.95098 38.63321 37.79210
# Shear Modulus (GPa) = 19.63346 22.37372 21.00359
#
# Velocity S-wave (km/s) = 3.24680 3.46598 3.35818
# Velocity P-wave (km/s) = 5.82199 6.06305 5.94374
#
# Compressibility (1/GPa) = 0.02706288
#
# Stress axis : x y z
#
# Youngs Moduli (GPa) = 53.68785 53.68785 103.78184
#
# Poissons Ratio (x) = 0.32657 0.19873
# Poissons Ratio (y) = 0.32657 0.19873
# Poissons Ratio (z) = 0.10281 0.10281
#
# Static dielectric constant tensor:
#      x y z
#    x 3.443450 0.000000 0.000000 
#    y 0.000000 3.443450 0.000000 
#    z 0.000000 0.000000 3.513900 
# 
# 
# High freq. dielectric constant tensor:
#      x y z
#    x 1.712780 0.000000 0.000000 
#    y 0.000000 1.712780 0.000000 
#    z 0.000000 0.000000 1.719960 
# 
# From -- ./inp_files/10152.got.cif
#   From: 2010.03.12/outbox.cif.g09.slc.cpg/sg134_6_cif.got.tgz:10152.got - 2010.04.06 18:17:22.
