data_PCOD8317736
_publ_section_title
;
Structure prediction by ZEFSAII (Michael W. Deem and Ramdas Pophale) SiO2 
 PCOD8317736
Probable space group: P 42/M N M
;
_chemical_formula_sum "Si O2"
_cell_formula_units_Z 96
_cell_length_a 13.608203
_cell_length_b 13.608203
_cell_length_c 31.795692
_cell_angle_alpha 90.000000
_cell_angle_beta 90.000000
_cell_angle_gamma 90.000000
_cell_volume 5888.027637
_symmetry_space_group_name_H-M "P 42/M N M"
_symmetry_group_IT_number 136
_symmetry_cell_setting 'tetragonal'
loop_
_space_group_symop_operation_xyz
x,y,z
1/2-y,1/2+x,1/2+z
-x,-y,z
1/2+y,1/2-x,1/2+z
1/2+x,1/2-y,1/2-z
1/2-x,1/2+y,1/2-z
y,x,-z
-y,-x,-z
-x,-y,-z
1/2+y,1/2-x,1/2-z
x,y,-z
1/2-y,1/2+x,1/2-z
1/2-x,1/2+y,1/2+z
1/2+x,1/2-y,1/2+z
-y,-x,z
y,x,z
loop_
_atom_site_type_symbol
_atom_site_label
_atom_site_fract_x
_atom_site_fract_y
_atom_site_fract_z
Si Si1 0.657369 0.503900 0.796605
Si Si2 0.802416 0.645597 0.664523
Si Si3 0.549605 0.100907 0.671116
Si Si4 0.714706 0.871338 0.247193
Si Si5 0.500207 0.784809 0.126681
Si Si6 0.660633 0.498711 0.952705
O O1 0.591983 0.408018 0.805727
O O2 0.593234 0.593234 0.777923
O O3 0.739842 0.476028 0.762248
O O4 0.701970 0.538122 0.841048
O O5 0.695929 0.695929 0.653062
O O6 0.813894 0.527847 0.656393
O O7 0.822188 0.659560 0.713774
O O8 0.885753 0.697085 0.636649
O O9 0.614747 0.138583 0.709695
O O10 0.500000 0.000000 0.687424
O O11 0.619428 0.069785 0.632182
O O12 0.800747 0.800747 0.230250
O O13 0.509367 0.751904 0.078608
O O14 0.595127 0.404874 0.939961
O O15 0.596314 0.596314 0.949917
O O16 0.701831 0.485949 0.000000
#
# Coordination Sequence:
#
# PCOD8317736 Si02
#       6
#    16  16  16  16  16  16
#     4   9  17  28  42  61  87 121 156 191 231 275
#     4   9  19  32  46  61  83 121 162 199 241 289
#     4  10  22  31  45  65  91 121 158 202 243 280
#     4   9  19  31  41  60  87 116 157 201 240 281
#     4  10  18  29  45  68  94 119 153 195 235 286
#     4   9  17  29  48  75 104 131 155 183 231 297
#
# _framework density 16.304271
#
# number of rings (size 3 to 8) (size 9 to 14) (size 15 to 20)
#    0.000    2.667    0.000    3.500    7.000    3.333 
#    0.000    0.000    0.000    4.500    0.000    0.000 
#    0.000    0.000    0.000    1.833    0.000    0.000 
#
# Total GULP energy -1189828.224669 kJ/mol
# GULP energy per Si atom -12394.044007 kJ/mol
# Density = 1.626716 g / cm^3
# Si number density = 16.304271 Si / 1000 Ang^3
#
#
#
# Elastic Constant Matrix: (Units=GPa)
#
#
# Indices 1 2 3 4 5 6 
#
# 1 71.7520 32.7826 37.9443 0.0000 0.0000 0.0000
# 2 32.7826 71.7520 37.9443 0.0000 0.0000 0.0000
# 3 37.9443 37.9443 89.0862 0.0000 0.0000 0.0000
# 4 0.0000 0.0000 0.0000 19.3478 0.0000 0.0000
# 5 0.0000 0.0000 0.0000 0.0000 19.3478 0.0000
# 6 0.0000 0.0000 0.0000 0.0000 0.0000 26.8508
#
#
#
# Elastic Compliance Matrix: (Units=1/GPa)
#
#
# Indices 1 2 3 4 5 6 
#
# 1 0.019755 -0.005906 -0.005898 0.000000 0.000000 0.000000
# 2 -0.005906 0.019755 -0.005898 0.000000 0.000000 0.000000
# 3 -0.005898 -0.005898 0.016250 0.000000 0.000000 0.000000
# 4 0.000000 0.000000 0.000000 0.051685 0.000000 0.000000
# 5 0.000000 0.000000 0.000000 0.000000 0.051685 0.000000
# 6 0.000000 0.000000 0.000000 0.000000 0.000000 0.037243
#
#
# Mechanical properties :
#
#
# Convention : Reuss Voigt Hill
#
# Bulk Modulus (GPa) = 49.13358 49.99251 49.56305
# Shear Modulus (GPa) = 20.95881 21.37055 21.16468
#
# Velocity S-wave (km/s) = 3.58925 3.62433 3.60683
# Velocity P-wave (km/s) = 6.88315 6.94573 6.91451
#
# Compressibility (1/GPa) = 0.02035268
#
# Stress axis : x y z
#
# Youngs Moduli (GPa) = 50.62094 50.62094 61.53983
#
# Poissons Ratio (x) = 0.29899 0.36298
# Poissons Ratio (y) = 0.29899 0.36298
# Poissons Ratio (z) = 0.29858 0.29858
#
# Static dielectric constant tensor:
#      x y z
#    x 3.146000 0.000000 0.000000 
#    y 0.000000 3.146000 0.000000 
#    z 0.000000 0.000000 2.740150 
# 
# 
# High freq. dielectric constant tensor:
#      x y z
#    x 1.622330 0.000000 0.000000 
#    y 0.000000 1.622330 0.000000 
#    z 0.000000 0.000000 1.580970 
# 
# From -- ./inp_files/9857.got.cif
#   From: 2010.03.12/outbox.cif.g09.slc.cpg/sg136_5_cif.got.tgz:9857.got - 2010.04.06 18:39:43.
