data_PCOD8317663
_publ_section_title
;
Structure prediction by ZEFSAII (Michael W. Deem and Ramdas Pophale) SiO2 
 PCOD8317663
Probable space group: P 42/M B C
;
_chemical_formula_sum "Si O2"
_cell_formula_units_Z 48
_cell_length_a 8.896931
_cell_length_b 8.896931
_cell_length_c 23.978554
_cell_angle_alpha 90.000000
_cell_angle_beta 90.000000
_cell_angle_gamma 90.000000
_cell_volume 1898.031583
_symmetry_space_group_name_H-M "P 42/M B C"
_symmetry_group_IT_number 135
_symmetry_cell_setting 'tetragonal'
loop_
_space_group_symop_operation_xyz
x,y,z
-y,x,1/2+z
-x,-y,z
y,-x,1/2+z
1/2+x,1/2-y,-z
1/2-x,1/2+y,-z
1/2+y,1/2+x,1/2-z
1/2-y,1/2-x,1/2-z
-x,-y,-z
y,-x,1/2-z
x,y,-z
-y,x,1/2-z
1/2-x,1/2+y,z
1/2+x,1/2-y,z
1/2-y,1/2-x,1/2+z
1/2+y,1/2+x,1/2+z
loop_
_atom_site_type_symbol
_atom_site_label
_atom_site_fract_x
_atom_site_fract_y
_atom_site_fract_z
Si Si1 0.630926 0.615077 0.063122
Si Si2 0.548384 0.282511 0.730445
Si Si3 0.072502 0.653332 0.621554
O O1 0.500000 0.500000 0.079641
O O2 0.635127 0.753296 0.106132
O O3 0.785030 0.520820 0.068324
O O4 0.612658 0.674695 0.000000
O O5 0.628671 0.128671 0.750000
O O6 0.418829 0.329986 0.775286
O O7 0.456246 0.267346 0.672718
O O8 0.000000 0.500000 0.641061
#
# Coordination Sequence:
#
# PCOD8317663 Si02
#       3
#    16  16  16
#     4  11  26  49  79 114 156 204 265 335 405 487
#     4  11  28  49  78 113 155 204 267 328 397 480
#     4  12  27  46  78 111 154 210 263 328 408 484
#
# _framework density 25.289355
#
# number of rings (size 3 to 8) (size 9 to 14) (size 15 to 20)
#    0.000    0.667    0.000    5.000   14.000    5.333 
#    0.000    0.000    0.000    0.000    0.000    0.000 
#    0.000    0.000    0.000    0.000    0.000    0.000 
#
# Total GULP energy -595229.023544 kJ/mol
# GULP energy per Si atom -12400.604657 kJ/mol
# Density = 2.523180 g / cm^3
# Si number density = 25.289355 Si / 1000 Ang^3
#
#
#
# Elastic Constant Matrix: (Units=GPa)
#
#
# Indices 1 2 3 4 5 6 
#
# 1 154.7637 74.0121 75.8414 0.0000 0.0000 0.0000
# 2 74.0121 154.7637 75.8414 0.0000 0.0000 0.0000
# 3 75.8414 75.8414 131.3704 0.0000 0.0000 0.0000
# 4 0.0000 0.0000 0.0000 36.5031 0.0000 0.0000
# 5 0.0000 0.0000 0.0000 0.0000 36.5031 0.0000
# 6 0.0000 0.0000 0.0000 0.0000 0.0000 62.9482
#
#
#
# Elastic Compliance Matrix: (Units=1/GPa)
#
#
# Indices 1 2 3 4 5 6 
#
# 1 0.009733 -0.002651 -0.004088 0.000000 0.000000 0.000000
# 2 -0.002651 0.009733 -0.004088 0.000000 0.000000 0.000000
# 3 -0.004088 -0.004088 0.012333 0.000000 0.000000 0.000000
# 4 0.000000 0.000000 0.000000 0.027395 0.000000 0.000000
# 5 0.000000 0.000000 0.000000 0.000000 0.027395 0.000000
# 6 0.000000 0.000000 0.000000 0.000000 0.000000 0.015886
#
#
# Mechanical properties :
#
#
# Convention : Reuss Voigt Hill
#
# Bulk Modulus (GPa) = 98.59385 99.14306 98.86846
# Shear Modulus (GPa) = 39.21254 41.53773 40.37514
#
# Velocity S-wave (km/s) = 3.94198 4.05717 3.99999
# Velocity P-wave (km/s) = 7.73239 7.82535 7.77901
#
# Compressibility (1/GPa) = 0.01014262
#
# Stress axis : x y z
#
# Youngs Moduli (GPa) = 102.74625 102.74625 81.08604
#
# Poissons Ratio (x) = 0.27238 0.33151
# Poissons Ratio (y) = 0.27238 0.33151
# Poissons Ratio (z) = 0.42006 0.42006
#
# Static dielectric constant tensor:
#      x y z
#    x 4.936890 0.000000 0.000000 
#    y 0.000000 4.936890 0.000000 
#    z 0.000000 0.000000 4.270360 
# 
# 
# High freq. dielectric constant tensor:
#      x y z
#    x 2.019600 0.000000 0.000000 
#    y 0.000000 2.019600 0.000000 
#    z 0.000000 0.000000 2.005680 
# 
# From -- ./inp_files/6575.got.cif
#   From: 2010.03.12/outbox.cif.g09.slc.cpg/sg135_4_cif.got.tgz:6575.got - 2010.04.06 18:31:24.
