data_PCOD8317427
_publ_section_title
;
Structure prediction by ZEFSAII (Michael W. Deem and Ramdas Pophale) SiO2 
 PCOD8317427
Probable space group: P 42/M B C
;
_chemical_formula_sum "Si O2"
_cell_formula_units_Z 80
_cell_length_a 16.578928
_cell_length_b 16.578928
_cell_length_c 14.871355
_cell_angle_alpha 90.000000
_cell_angle_beta 90.000000
_cell_angle_gamma 90.000000
_cell_volume 4087.553330
_symmetry_space_group_name_H-M "P 42/M B C"
_symmetry_group_IT_number 135
_symmetry_cell_setting 'tetragonal'
loop_
_space_group_symop_operation_xyz
x,y,z
-y,x,1/2+z
-x,-y,z
y,-x,1/2+z
1/2+x,1/2-y,-z
1/2-x,1/2+y,-z
1/2+y,1/2+x,1/2-z
1/2-y,1/2-x,1/2-z
-x,-y,-z
y,-x,1/2-z
x,y,-z
-y,x,1/2-z
1/2-x,1/2+y,z
1/2+x,1/2-y,z
1/2-y,1/2-x,1/2+z
1/2+y,1/2+x,1/2+z
loop_
_atom_site_type_symbol
_atom_site_label
_atom_site_fract_x
_atom_site_fract_y
_atom_site_fract_z
Si Si1 0.952951 0.576117 0.353500
Si Si2 0.104994 0.759027 0.099420
Si Si3 0.192544 0.593274 0.103441
Si Si4 0.306746 0.675844 0.228406
Si Si5 0.769520 0.581051 0.598238
O O1 0.940795 0.559206 0.250000
O O2 0.865972 0.591238 0.396687
O O3 0.000000 0.500000 0.398589
O O4 0.008523 0.654291 0.366991
O O5 0.132318 0.667800 0.122917
O O6 0.136252 0.824514 0.173299
O O7 0.010011 0.758007 0.101520
O O8 0.136883 0.784464 0.000000
O O9 0.272862 0.606502 0.162371
O O10 0.218000 0.589352 0.000000
O O11 0.242329 0.742329 0.250000
O O12 0.380269 0.721171 0.180919
O O13 0.745240 0.617795 0.500000
#
# Coordination Sequence:
#
# PCOD8317427 Si02
#       5
#    16  16  16  16  16
#     4  11  21  31  53  84 121 157 192 234 287 345
#     4   9  19  35  57  79 107 146 189 233 286 344
#     4  10  19  33  52  78 114 157 192 228 286 350
#     4  10  21  35  53  78 113 151 191 235 287 344
#     4  11  21  35  56  85 115 148 191 238 287 347
#
# _framework density 19.57161
#
# number of rings (size 3 to 8) (size 9 to 14) (size 15 to 20)
#    0.000    1.800    2.000    3.000    5.600    1.600 
#    0.000    0.000    0.000    3.000    0.000    2.800 
#    0.000    0.000    0.000    0.000    0.000    0.000 
#
# Total GULP energy -991382.539719 kJ/mol
# GULP energy per Si atom -12392.281746 kJ/mol
# Density = 1.952706 g / cm^3
# Si number density = 19.571610 Si / 1000 Ang^3
#
#
#
# Elastic Constant Matrix: (Units=GPa)
#
#
# Indices 1 2 3 4 5 6 
#
# 1 47.7242 54.5871 50.6491 0.0000 0.0000 0.0000
# 2 54.5871 47.7222 50.6471 0.0000 0.0000 0.0000
# 3 50.6491 50.6471 167.3594 0.0000 0.0000 0.0000
# 4 0.0000 0.0000 0.0000 -591.3823 0.0000 0.0000
# 5 0.0000 0.0000 0.0000 0.0000 -591.5049 0.0000
# 6 0.0000 0.0000 0.0000 0.0000 0.0000 24.9869
#
#
#
# Elastic Compliance Matrix: (Units=1/GPa)
#
#
# Indices 1 2 3 4 5 6 
#
# 1 -0.065866 0.079822 -0.004223 0.000000 0.000000 0.000000
# 2 0.079822 -0.065867 -0.004224 0.000000 0.000000 0.000000
# 3 -0.004223 -0.004224 0.008531 0.000000 0.000000 0.000000
# 4 0.000000 0.000000 0.000000 -0.001691 0.000000 0.000000
# 5 0.000000 0.000000 0.000000 0.000000 -0.001691 0.000000
# 6 0.000000 0.000000 0.000000 0.000000 0.000000 0.040021
#
#
# Mechanical properties :
#
#
# Convention : Reuss Voigt Hill
#
# Bulk Modulus (GPa) = 51.15297 63.84138 57.49717
# Shear Modulus (GPa) = -22.44204 -224.45189 -123.44697
#
# Velocity S-wave (km/s) = -3.38991 -10.72060 -7.95056
# Velocity P-wave (km/s) = 3.29712 10.97960 7.40542
#
# Compressibility (1/GPa) = 0.01954921
#
# Stress axis : x y z
#
# Youngs Moduli (GPa) = -15.18242 -15.18206 117.21339
#
# Poissons Ratio (x) = 1.21187 0.49497
# Poissons Ratio (y) = 1.21189 0.49512
# Poissons Ratio (z) = -0.06411 -0.06413
#
# Static dielectric constant tensor:
#      x y z
#    x 4.066450 0.000000 0.000000 
#    y 0.000000 4.066370 0.000000 
#    z 0.000000 0.000000 4.650100 
# 
# 
# High freq. dielectric constant tensor:
#      x y z
#    x 1.730240 0.000000 0.000000 
#    y 0.000000 1.730240 0.000000 
#    z 0.000000 0.000000 1.792410 
# 
# From -- ./inp_files/3374.got.cif
#   From: 2010.03.12/outbox.cif.g09.slc.cpg/sg135_2_cif.got.tgz:3374.got - 2010.04.06 18:31:24.
