data_PCOD8317493
_publ_section_title
;
Structure prediction by ZEFSAII (Michael W. Deem and Ramdas Pophale) SiO2 
 PCOD8317493
Probable space group: P 42/M B C
;
_chemical_formula_sum "Si O2"
_cell_formula_units_Z 96
_cell_length_a 23.924766
_cell_length_b 23.924766
_cell_length_c 8.570391
_cell_angle_alpha 90.000000
_cell_angle_beta 90.000000
_cell_angle_gamma 90.000000
_cell_volume 4905.644056
_symmetry_space_group_name_H-M "P 42/M B C"
_symmetry_group_IT_number 135
_symmetry_cell_setting 'tetragonal'
loop_
_space_group_symop_operation_xyz
x,y,z
-y,x,1/2+z
-x,-y,z
y,-x,1/2+z
1/2+x,1/2-y,-z
1/2-x,1/2+y,-z
1/2+y,1/2+x,1/2-z
1/2-y,1/2-x,1/2-z
-x,-y,-z
y,-x,1/2-z
x,y,-z
-y,x,1/2-z
1/2-x,1/2+y,z
1/2+x,1/2-y,z
1/2-y,1/2-x,1/2+z
1/2+y,1/2+x,1/2+z
loop_
_atom_site_type_symbol
_atom_site_label
_atom_site_fract_x
_atom_site_fract_y
_atom_site_fract_z
Si Si1 0.367081 0.216166 0.184332
Si Si2 0.526154 0.419286 0.315011
Si Si3 0.306587 0.724048 0.683544
Si Si4 0.800508 0.070721 0.185037
Si Si5 0.514034 0.794769 0.683783
Si Si6 0.000199 0.584465 0.183488
O O1 0.341198 0.158803 0.250000
O O2 0.327808 0.267714 0.232262
O O3 0.425306 0.227202 0.268617
O O4 0.375678 0.210653 0.000000
O O5 0.466921 0.429675 0.231944
O O6 0.517258 0.419819 0.500000
O O7 0.549456 0.360266 0.252571
O O8 0.281728 0.781728 0.750000
O O9 0.309364 0.730556 0.500000
O O10 0.367953 0.712965 0.754340
O O11 0.752193 0.029128 0.241169
O O12 0.803132 0.073889 0.000000
O O13 0.510705 0.805113 0.500000
O O14 0.498286 0.851075 0.772395
O O15 0.056317 0.556317 0.250000
O O16 0.945110 0.554891 0.250000
O O17 0.000848 0.577148 0.000000
#
# Coordination Sequence:
#
# PCOD8317493 Si02
#       6
#    16  16  16  16  16  16
#     4  10  20  35  58  84 111 144 186 233 282 331
#     4  10  20  37  59  84 113 149 189 236 289 343
#     4   9  19  38  59  80 108 145 185 228 278 331
#     4   9  21  38  57  82 115 153 188 232 288 336
#     4  11  22  37  56  82 116 150 188 232 281 336
#     4  11  22  39  61  86 115 150 191 233 283 336
#
# _framework density 19.569295
#
# number of rings (size 3 to 8) (size 9 to 14) (size 15 to 20)
#    0.000    2.000    0.000    4.500    2.333    1.333 
#    0.000    7.500    0.000    0.000    0.000    0.000 
#    0.000    0.000    0.000    0.000    0.000    0.000 
#
# Total GULP energy -1190737.033376 kJ/mol
# GULP energy per Si atom -12403.510764 kJ/mol
# Density = 1.952475 g / cm^3
# Si number density = 19.569295 Si / 1000 Ang^3
#
#
#
# Elastic Constant Matrix: (Units=GPa)
#
#
# Indices 1 2 3 4 5 6 
#
# 1 154.7680 89.7573 27.9876 0.0000 0.0000 0.0000
# 2 89.7573 154.7626 27.9837 0.0000 0.0000 0.0000
# 3 27.9876 27.9837 69.8161 0.0000 0.0000 0.0000
# 4 0.0000 0.0000 0.0000 26.4239 0.0000 0.0000
# 5 0.0000 0.0000 0.0000 0.0000 26.4238 0.0000
# 6 0.0000 0.0000 0.0000 0.0000 0.0000 27.3583
#
#
#
# Elastic Compliance Matrix: (Units=1/GPa)
#
#
# Indices 1 2 3 4 5 6 
#
# 1 0.009943 -0.005440 -0.001805 0.000000 0.000000 0.000000
# 2 -0.005440 0.009943 -0.001805 0.000000 0.000000 0.000000
# 3 -0.001805 -0.001805 0.015770 0.000000 0.000000 0.000000
# 4 0.000000 0.000000 0.000000 0.037845 0.000000 0.000000
# 5 0.000000 0.000000 0.000000 0.000000 0.037845 0.000000
# 6 0.000000 0.000000 0.000000 0.000000 0.000000 0.036552
#
#
# Mechanical properties :
#
#
# Convention : Reuss Voigt Hill
#
# Bulk Modulus (GPa) = 56.96003 74.53376 65.74690
# Shear Modulus (GPa) = 29.09535 31.61573 30.35554
#
# Velocity S-wave (km/s) = 3.86007 4.02379 3.94278
# Velocity P-wave (km/s) = 7.00263 7.73030 7.37545
#
# Compressibility (1/GPa) = 0.01755617
#
# Stress axis : x y z
#
# Youngs Moduli (GPa) = 100.57675 100.57522 63.41012
#
# Poissons Ratio (x) = 0.54713 0.11448
# Poissons Ratio (y) = 0.54714 0.11442
# Poissons Ratio (z) = 0.18157 0.18149
#
# Static dielectric constant tensor:
#      x y z
#    x 3.167840 0.000000 0.000000 
#    y 0.000000 3.167810 0.000000 
#    z 0.000000 0.000000 3.461360 
# 
# 
# High freq. dielectric constant tensor:
#      x y z
#    x 1.769110 0.000000 0.000000 
#    y 0.000000 1.769110 0.000000 
#    z 0.000000 0.000000 1.755590 
# 
# From -- ./inp_files/1229.got.cif
#   From: 2010.03.12/outbox.cif.g09.slc.cpg/sg135_1_cif.got.tgz:1229.got - 2010.04.06 18:31:24.
