data_PCOD8317613
_publ_section_title
;
Structure prediction by ZEFSAII (Michael W. Deem and Ramdas Pophale) SiO2 
 PCOD8317613
Probable space group: P 42/M B C
;
_chemical_formula_sum "Si O2"
_cell_formula_units_Z 64
_cell_length_a 13.427533
_cell_length_b 13.427533
_cell_length_c 13.809385
_cell_angle_alpha 90.000000
_cell_angle_beta 90.000000
_cell_angle_gamma 90.000000
_cell_volume 2489.813369
_symmetry_space_group_name_H-M "P 42/M B C"
_symmetry_group_IT_number 135
_symmetry_cell_setting 'tetragonal'
loop_
_space_group_symop_operation_xyz
x,y,z
-y,x,1/2+z
-x,-y,z
y,-x,1/2+z
1/2+x,1/2-y,-z
1/2-x,1/2+y,-z
1/2+y,1/2+x,1/2-z
1/2-y,1/2-x,1/2-z
-x,-y,-z
y,-x,1/2-z
x,y,-z
-y,x,1/2-z
1/2-x,1/2+y,z
1/2+x,1/2-y,z
1/2-y,1/2-x,1/2+z
1/2+y,1/2+x,1/2+z
loop_
_atom_site_type_symbol
_atom_site_label
_atom_site_fract_x
_atom_site_fract_y
_atom_site_fract_z
Si Si1 0.298232 0.544721 0.301074
Si Si2 0.392102 0.960152 0.613270
Si Si3 0.605726 0.639868 0.607653
Si Si4 0.247943 0.314300 0.108217
O O1 0.183295 0.528077 0.326270
O O2 0.318499 0.526210 0.186143
O O3 0.366885 0.473788 0.366218
O O4 0.328148 0.659911 0.319482
O O5 0.366128 0.972318 0.500000
O O6 0.500000 0.000000 0.639934
O O7 0.384565 0.843753 0.642910
O O8 0.557878 0.642343 0.500000
O O9 0.701646 0.709799 0.610392
O O10 0.282414 0.342451 0.000000
#
# Coordination Sequence:
#
# PCOD8317613 Si02
#       4
#    16  16  16  16
#     4  11  21  42  73 100 144 201 246 306 388 462
#     4   9  19  39  72 115 155 192 252 324 385 455
#     4  10  23  43  69 103 142 187 246 309 371 456
#     4   9  18  38  69 104 144 191 242 303 381 454
#
# _framework density 25.704739
#
# number of rings (size 3 to 8) (size 9 to 14) (size 15 to 20)
#    0.000    2.250    0.000    4.500    0.000    0.500 
#    9.000    5.000    0.000    6.750    0.000    0.000 
#    0.000    0.000    0.000    0.000    0.000    0.000 
#
# Total GULP energy -793813.814472 kJ/mol
# GULP energy per Si atom -12403.340851 kJ/mol
# Density = 2.564623 g / cm^3
# Si number density = 25.704739 Si / 1000 Ang^3
#
#
#
# Elastic Constant Matrix: (Units=GPa)
#
#
# Indices 1 2 3 4 5 6 
#
# 1 132.1174 56.9225 60.5980 0.0000 0.0000 0.0000
# 2 56.9225 132.1174 60.5980 0.0000 0.0000 0.0000
# 3 60.5980 60.5980 194.8325 0.0000 0.0000 0.0000
# 4 0.0000 0.0000 0.0000 34.4766 0.0000 0.0000
# 5 0.0000 0.0000 0.0000 0.0000 34.4766 0.0000
# 6 0.0000 0.0000 0.0000 0.0000 0.0000 26.9854
#
#
#
# Elastic Compliance Matrix: (Units=1/GPa)
#
#
# Indices 1 2 3 4 5 6 
#
# 1 0.009953 -0.003346 -0.002055 0.000000 0.000000 0.000000
# 2 -0.003346 0.009953 -0.002055 0.000000 0.000000 0.000000
# 3 -0.002055 -0.002055 0.006411 0.000000 0.000000 0.000000
# 4 0.000000 0.000000 0.000000 0.029005 0.000000 0.000000
# 5 0.000000 0.000000 0.000000 0.000000 0.029005 0.000000
# 6 0.000000 0.000000 0.000000 0.000000 0.000000 0.037057
#
#
# Mechanical properties :
#
#
# Convention : Reuss Voigt Hill
#
# Bulk Modulus (GPa) = 87.67693 90.58936 89.13314
# Shear Modulus (GPa) = 35.68928 37.91765 36.80347
#
# Velocity S-wave (km/s) = 3.73021 3.84490 3.78799
# Velocity P-wave (km/s) = 7.26195 7.41821 7.34049
#
# Compressibility (1/GPa) = 0.01140551
#
# Stress axis : x y z
#
# Youngs Moduli (GPa) = 100.47115 100.47115 155.98230
#
# Poissons Ratio (x) = 0.33614 0.32056
# Poissons Ratio (y) = 0.33614 0.32056
# Poissons Ratio (z) = 0.20648 0.20648
#
# Static dielectric constant tensor:
#      x y z
#    x 4.473960 0.000000 0.000000 
#    y 0.000000 4.473960 0.000000 
#    z 0.000000 0.000000 5.020540 
# 
# 
# High freq. dielectric constant tensor:
#      x y z
#    x 2.021630 0.000000 0.000000 
#    y 0.000000 2.021630 0.000000 
#    z 0.000000 0.000000 2.044220 
# 
# From -- ./inp_files/3176.got.cif
#   From: 2010.03.12/outbox.cif.g09.slc.cpg/sg135_2_cif.got.tgz:3176.got - 2010.04.06 18:31:24.
