data_PCOD8317278
_publ_section_title
;
Structure prediction by ZEFSAII (Michael W. Deem and Ramdas Pophale) SiO2 
 PCOD8317278
Probable space group: P 42/N N M
;
_chemical_formula_sum "Si O2"
_cell_formula_units_Z 112
_cell_length_a 30.666461
_cell_length_b 30.666461
_cell_length_c 5.606952
_cell_angle_alpha 90.000000
_cell_angle_beta 90.000000
_cell_angle_gamma 90.000000
_cell_volume 5272.956132
_symmetry_space_group_name_H-M "P 42/N N M"
_symmetry_group_IT_number 134
_space_group.IT_coordinate_system_code '2'
_symmetry_cell_setting 'tetragonal'
loop_
_space_group_symop_operation_xyz
x,y,z
1/2-y,x,1/2+z
1/2-x,1/2-y,z
y,1/2-x,1/2+z
x,1/2-y,1/2-z
1/2-x,y,1/2-z
y,x,-z
1/2-y,1/2-x,-z
-x,-y,-z
1/2+y,-x,1/2-z
1/2+x,1/2+y,-z
-y,1/2+x,1/2-z
-x,1/2+y,1/2+z
1/2+x,-y,1/2+z
-y,-x,z
1/2+y,1/2+x,z
loop_
_atom_site_type_symbol
_atom_site_label
_atom_site_fract_x
_atom_site_fract_y
_atom_site_fract_z
Si Si1 0.939667 0.793456 0.392256
Si Si2 0.584719 0.346840 0.024118
Si Si3 0.495944 0.840674 0.818106
Si Si4 0.345798 0.775443 0.499289
Si Si5 0.346329 0.225263 0.008459
Si Si6 0.374045 0.443333 0.066071
Si Si7 0.595638 0.473876 0.697538
O O1 0.949633 0.750000 0.250000
O O2 0.897160 0.785847 0.555490
O O3 0.928149 0.837246 0.248913
O O4 0.986569 0.801813 0.516203
O O5 0.615718 0.384283 0.143977
O O6 0.549234 0.326024 0.200785
O O7 0.614054 0.307102 0.936887
O O8 0.558991 0.368316 0.804438
O O9 0.537566 0.847603 0.653159
O O10 0.485928 0.887540 0.936334
O O11 0.354991 0.750000 0.750000
O O12 0.301716 0.801716 0.549805
O O13 0.339478 0.750000 0.250000
O O14 0.330344 0.250000 0.250000
O O15 0.341125 0.250000 0.750000
O O16 0.318614 0.181387 0.000000
O O17 0.407064 0.481063 0.157014
O O18 0.400776 0.400776 0.000000
O O19 0.547933 0.452068 0.687443
#
# Coordination Sequence:
#
# PCOD8317278 Si02
#       7
#    16  16  16  16  16  16  16
#     4  10  25  41  60  91 130 171 217 268 326 395
#     4   9  20  40  63  90 125 166 217 272 327 393
#     4  10  21  39  63  90 123 169 213 266 331 392
#     4  11  25  44  67  98 133 175 224 277 337 401
#     4  11  26  45  72 103 134 175 221 272 337 397
#     4  10  23  40  62  92 125 169 219 271 330 399
#     4   9  19  38  61  91 127 167 216 272 334 396
#
# _framework density 21.240459000000001
#
# number of rings (size 3 to 8) (size 9 to 14) (size 15 to 20)
#    0.000    2.000    0.000    1.286    8.000    4.286 
#    7.714    0.714    0.000    0.000    0.000    0.000 
#    0.000    0.000    0.000    0.000    0.000    0.000 
#
# Total GULP energy -1387572.291119 kJ/mol
# GULP energy per Si atom -12389.038314 kJ/mol
# Density = 2.119211 g / cm^3
# Si number density = 21.240459 Si / 1000 Ang^3
#
#
#
# Elastic Constant Matrix: (Units=GPa)
#
#
# Indices 1 2 3 4 5 6 
#
# 1 59.0396 68.9125 15.9651 0.0000 0.0000 0.0000
# 2 68.9125 59.0502 15.9684 0.0000 0.0000 0.0000
# 3 15.9651 15.9684 84.1271 0.0000 0.0000 0.0000
# 4 0.0000 0.0000 0.0000 135.1002 0.0000 0.0000
# 5 0.0000 0.0000 0.0000 0.0000 135.1577 0.0000
# 6 0.0000 0.0000 0.0000 0.0000 0.0000 -56.1144
#
#
#
# Elastic Compliance Matrix: (Units=1/GPa)
#
#
# Indices 1 2 3 4 5 6 
#
# 1 -0.046573 0.054773 -0.001558 0.000000 0.000000 0.000000
# 2 0.054773 -0.046565 -0.001556 0.000000 0.000000 0.000000
# 3 -0.001558 -0.001556 0.012478 0.000000 0.000000 0.000000
# 4 0.000000 0.000000 0.000000 0.007402 0.000000 0.000000
# 5 0.000000 0.000000 0.000000 0.000000 0.007399 0.000000
# 6 0.000000 0.000000 0.000000 0.000000 0.000000 -0.017821
#
#
# Mechanical properties :
#
#
# Convention : Reuss Voigt Hill
#
# Bulk Modulus (GPa) = 44.13620 44.87875 44.50748
# Shear Modulus (GPa) = -27.86366 49.58675 10.86155
#
# Velocity S-wave (km/s) = -3.62583 4.83695 2.26378
# Velocity P-wave (km/s) = 1.81536 7.23668 5.27566
#
# Compressibility (1/GPa) = 0.02265714
#
# Stress axis : x y z
#
# Youngs Moduli (GPa) = -21.47172 -21.47531 80.14235
#
# Poissons Ratio (x) = 1.17626 0.12488
# Poissons Ratio (y) = 1.17606 0.12468
# Poissons Ratio (z) = -0.03346 -0.03341
#
# Static dielectric constant tensor:
#      x y z
#    x 3.843300 0.000000 0.000000 
#    y 0.000000 3.843290 0.000000 
#    z 0.000000 0.000000 4.071800 
# 
# 
# High freq. dielectric constant tensor:
#      x y z
#    x 1.835750 0.000000 0.000000 
#    y 0.000000 1.835750 0.000000 
#    z 0.000000 0.000000 1.831660 
# 
# From -- ./inp_files/1353.got.cif
#   From: 2010.03.12/outbox.cif.g09.slc.cpg/sg134_1_cif.got.tgz:1353.got - 2010.04.06 18:17:22.
