data_PCOD8317636
_publ_section_title
;
Structure prediction by ZEFSAII (Michael W. Deem and Ramdas Pophale) SiO2 
 PCOD8317636
Probable space group: P 42/M B C
;
_chemical_formula_sum "Si O2"
_cell_formula_units_Z 96
_cell_length_a 14.873502
_cell_length_b 14.873502
_cell_length_c 20.412485
_cell_angle_alpha 90.000000
_cell_angle_beta 90.000000
_cell_angle_gamma 90.000000
_cell_volume 4515.671605
_symmetry_space_group_name_H-M "P 42/M B C"
_symmetry_group_IT_number 135
_symmetry_cell_setting 'tetragonal'
loop_
_space_group_symop_operation_xyz
x,y,z
-y,x,1/2+z
-x,-y,z
y,-x,1/2+z
1/2+x,1/2-y,-z
1/2-x,1/2+y,-z
1/2+y,1/2+x,1/2-z
1/2-y,1/2-x,1/2-z
-x,-y,-z
y,-x,1/2-z
x,y,-z
-y,x,1/2-z
1/2-x,1/2+y,z
1/2+x,1/2-y,z
1/2-y,1/2-x,1/2+z
1/2+y,1/2+x,1/2+z
loop_
_atom_site_type_symbol
_atom_site_label
_atom_site_fract_x
_atom_site_fract_y
_atom_site_fract_z
Si Si1 0.951439 0.230939 0.624235
Si Si2 0.077075 0.572925 0.173466
Si Si3 0.271738 0.323534 0.572663
Si Si4 0.730327 0.974979 0.574723
Si Si5 0.324302 0.351685 0.121625
Si Si6 0.582992 0.616155 0.747438
O O1 0.969522 0.334396 0.641333
O O2 0.872966 0.216885 0.571205
O O3 0.910077 0.182292 0.687147
O O4 0.044991 0.189270 0.598960
O O5 0.095769 0.595769 0.250000
O O6 0.050064 0.659328 0.130926
O O7 0.000000 0.500000 0.166642
O O8 0.232739 0.312407 0.500000
O O9 0.270724 0.427901 0.593219
O O10 0.205422 0.267222 0.618937
O O11 0.690550 0.974322 0.500000
O O12 0.810277 0.902070 0.576260
O O13 0.350577 0.347604 0.197458
O O14 0.613280 0.517613 0.723327
#
# Coordination Sequence:
#
# PCOD8317636 Si02
#       6
#    16  16  16  16  16  16
#     4  11  23  39  66  96 128 172 220 277 335 400
#     4  11  24  43  66  98 137 177 228 281 337 407
#     4  11  25  42  64  96 129 173 229 271 331 408
#     4  11  24  44  67  93 134 180 224 282 342 405
#     4  11  22  41  65  94 133 172 218 280 335 399
#     4   9  19  36  61  97 133 168 214 270 340 409
#
# _framework density 21.259298000000001
#
# number of rings (size 3 to 8) (size 9 to 14) (size 15 to 20)
#    0.000    1.333    1.667    3.500    0.000    5.000 
#    0.000    1.667    0.000    0.000    0.000    0.000 
#    0.000    0.000    0.000    0.000    0.000    0.000 
#
# Total GULP energy -1190460.521607 kJ/mol
# GULP energy per Si atom -12400.630433 kJ/mol
# Density = 2.121091 g / cm^3
# Si number density = 21.259298 Si / 1000 Ang^3
#
#
#
# Elastic Constant Matrix: (Units=GPa)
#
#
# Indices 1 2 3 4 5 6 
#
# 1 130.8507 44.4404 50.4902 0.0000 0.0000 0.0000
# 2 44.4404 130.8507 50.4902 0.0000 0.0000 0.0000
# 3 50.4902 50.4902 94.6905 0.0000 0.0000 0.0000
# 4 0.0000 0.0000 0.0000 29.2187 0.0000 0.0000
# 5 0.0000 0.0000 0.0000 0.0000 29.2187 0.0000
# 6 0.0000 0.0000 0.0000 0.0000 0.0000 40.4156
#
#
#
# Elastic Compliance Matrix: (Units=1/GPa)
#
#
# Indices 1 2 3 4 5 6 
#
# 1 0.009903 -0.001669 -0.004391 0.000000 0.000000 0.000000
# 2 -0.001669 0.009903 -0.004391 0.000000 0.000000 0.000000
# 3 -0.004391 -0.004391 0.015243 0.000000 0.000000 0.000000
# 4 0.000000 0.000000 0.000000 0.034225 0.000000 0.000000
# 5 0.000000 0.000000 0.000000 0.000000 0.034225 0.000000
# 6 0.000000 0.000000 0.000000 0.000000 0.000000 0.024743
#
#
# Mechanical properties :
#
#
# Convention : Reuss Voigt Hill
#
# Bulk Modulus (GPa) = 70.67660 71.91483 71.29572
# Shear Modulus (GPa) = 32.49733 33.83534 33.16634
#
# Velocity S-wave (km/s) = 3.91400 3.99376 3.95408
# Velocity P-wave (km/s) = 7.33096 7.42750 7.37939
#
# Compressibility (1/GPa) = 0.01414895
#
# Stress axis : x y z
#
# Youngs Moduli (GPa) = 100.97568 100.97568 65.60445
#
# Poissons Ratio (x) = 0.16856 0.28804
# Poissons Ratio (y) = 0.16856 0.28804
# Poissons Ratio (z) = 0.44333 0.44333
#
# Static dielectric constant tensor:
#      x y z
#    x 3.969900 0.000000 0.000000 
#    y 0.000000 3.969900 0.000000 
#    z 0.000000 0.000000 3.742830 
# 
# 
# High freq. dielectric constant tensor:
#      x y z
#    x 1.841700 0.000000 0.000000 
#    y 0.000000 1.841700 0.000000 
#    z 0.000000 0.000000 1.828510 
# 
# From -- ./inp_files/5445.got.cif
#   From: 2010.03.12/outbox.cif.g09.slc.cpg/sg135_3_cif.got.tgz:5445.got - 2010.04.06 18:31:24.
