data_PCOD8317291
_publ_section_title
;
Structure prediction by ZEFSAII (Michael W. Deem and Ramdas Pophale) SiO2 
 PCOD8317291
Probable space group: P 42/N N M
;
_chemical_formula_sum "Si O2"
_cell_formula_units_Z 112
_cell_length_a 16.856729
_cell_length_b 16.856729
_cell_length_c 21.736472
_cell_angle_alpha 90.000000
_cell_angle_beta 90.000000
_cell_angle_gamma 90.000000
_cell_volume 6176.403577
_symmetry_space_group_name_H-M "P 42/N N M"
_symmetry_group_IT_number 134
_space_group.IT_coordinate_system_code '2'
_symmetry_cell_setting 'tetragonal'
loop_
_space_group_symop_operation_xyz
x,y,z
1/2-y,x,1/2+z
1/2-x,1/2-y,z
y,1/2-x,1/2+z
x,1/2-y,1/2-z
1/2-x,y,1/2-z
y,x,-z
1/2-y,1/2-x,-z
-x,-y,-z
1/2+y,-x,1/2-z
1/2+x,1/2+y,-z
-y,1/2+x,1/2-z
-x,1/2+y,1/2+z
1/2+x,-y,1/2+z
-y,-x,z
1/2+y,1/2+x,z
loop_
_atom_site_type_symbol
_atom_site_label
_atom_site_fract_x
_atom_site_fract_y
_atom_site_fract_z
Si Si1 0.647540 0.851703 0.074400
Si Si2 0.535806 0.331511 0.229363
Si Si3 0.629914 0.495656 0.998942
Si Si4 0.065039 0.437226 0.819557
Si Si5 0.065711 0.304974 0.387707
Si Si6 0.566263 0.806686 0.385428
Si Si7 0.037348 0.832096 0.230646
O O1 0.590405 0.909914 0.112345
O O2 0.735508 0.871636 0.098014
O O3 0.626593 0.763651 0.097311
O O4 0.639364 0.860637 0.000000
O O5 0.579740 0.250000 0.250000
O O6 0.600185 0.399816 0.213304
O O7 0.470799 0.362546 0.278523
O O8 0.487329 0.297567 0.172040
O O9 0.590367 0.409634 0.001221
O O10 0.684374 0.500797 0.938678
O O11 0.564782 0.564782 0.000000
O O12 0.689081 0.504292 0.056020
O O13 0.009073 0.509073 0.834933
O O14 0.018460 0.367633 0.784029
O O15 0.112633 0.385887 0.379961
O O16 0.519442 0.799226 0.322474
O O17 0.081189 0.750000 0.250000
O O18 0.102484 0.897517 0.209680
#
# Coordination Sequence:
#
# PCOD8317291 Si02
#       7
#    16  16  16  16  16  16  16
#     4  12  23  37  58  85 118 160 197 238 294 356
#     4  11  22  38  61  86 113 149 196 247 299 354
#     4   9  18  31  49  75 111 153 194 230 275 332
#     4  10  22  40  61  83 109 146 198 251 291 345
#     4  11  21  34  54  84 119 153 193 234 286 346
#     4  11  21  34  54  84 119 153 193 234 286 346
#     4  11  22  38  61  86 113 149 196 247 299 354
#
# _framework density 18.133528999999999
#
# number of rings (size 3 to 8) (size 9 to 14) (size 15 to 20)
#    0.000    1.286    5.714    1.286    0.000    2.286 
#    0.000    0.000    0.000    0.000    0.000    0.000 
#    0.000    9.143    0.000    0.000    0.000    0.000 
#
# Total GULP energy -1387723.728248 kJ/mol
# GULP energy per Si atom -12390.390431 kJ/mol
# Density = 1.809226 g / cm^3
# Si number density = 18.133529 Si / 1000 Ang^3
#
#
#
# Elastic Constant Matrix: (Units=GPa)
#
#
# Indices 1 2 3 4 5 6 
#
# 1 79.1662 29.1557 30.0193 0.0000 0.0000 0.0000
# 2 29.1557 79.1663 30.0194 0.0000 0.0000 0.0000
# 3 30.0193 30.0194 104.0055 0.0000 0.0000 0.0000
# 4 0.0000 0.0000 0.0000 21.6210 0.0000 0.0000
# 5 0.0000 0.0000 0.0000 0.0000 21.6211 0.0000
# 6 0.0000 0.0000 0.0000 0.0000 0.0000 36.0464
#
#
#
# Elastic Compliance Matrix: (Units=1/GPa)
#
#
# Indices 1 2 3 4 5 6 
#
# 1 0.015493 -0.004503 -0.003172 0.000000 0.000000 0.000000
# 2 -0.004503 0.015493 -0.003172 0.000000 0.000000 0.000000
# 3 -0.003172 -0.003172 0.011446 0.000000 0.000000 0.000000
# 4 0.000000 0.000000 0.000000 0.046251 0.000000 0.000000
# 5 0.000000 0.000000 0.000000 0.000000 0.046251 0.000000
# 6 0.000000 0.000000 0.000000 0.000000 0.000000 0.027742
#
#
# Mechanical properties :
#
#
# Convention : Reuss Voigt Hill
#
# Bulk Modulus (GPa) = 48.22159 48.96964 48.59562
# Shear Modulus (GPa) = 26.13932 27.40060 26.76996
#
# Velocity S-wave (km/s) = 3.80082 3.89143 3.84639
# Velocity P-wave (km/s) = 6.77583 6.87420 6.82519
#
# Compressibility (1/GPa) = 0.02073760
#
# Stress axis : x y z
#
# Youngs Moduli (GPa) = 64.54602 64.54601 87.36695
#
# Poissons Ratio (x) = 0.29065 0.27713
# Poissons Ratio (y) = 0.29065 0.27713
# Poissons Ratio (z) = 0.20474 0.20474
#
# Static dielectric constant tensor:
#      x y z
#    x 3.273950 0.000000 0.000000 
#    y 0.000000 3.273950 0.000000 
#    z 0.000000 0.000000 3.548440 
# 
# 
# High freq. dielectric constant tensor:
#      x y z
#    x 1.692480 0.000000 0.000000 
#    y 0.000000 1.692480 0.000000 
#    z 0.000000 0.000000 1.713470 
# 
# From -- ./inp_files/9342.got.cif
#   From: 2010.03.12/outbox.cif.g09.slc.cpg/sg134_5_cif.got.tgz:9342.got - 2010.04.06 18:17:22.
