data_PCOD8317595
_publ_section_title
;
Structure prediction by ZEFSAII (Michael W. Deem and Ramdas Pophale) SiO2 
 PCOD8317595
Probable space group: P 42/M B C
;
_chemical_formula_sum "Si O2"
_cell_formula_units_Z 96
_cell_length_a 23.712686
_cell_length_b 23.712686
_cell_length_c 8.372113
_cell_angle_alpha 90.000000
_cell_angle_beta 90.000000
_cell_angle_gamma 90.000000
_cell_volume 4707.567787
_symmetry_space_group_name_H-M "P 42/M B C"
_symmetry_group_IT_number 135
_symmetry_cell_setting 'tetragonal'
loop_
_space_group_symop_operation_xyz
x,y,z
-y,x,1/2+z
-x,-y,z
y,-x,1/2+z
1/2+x,1/2-y,-z
1/2-x,1/2+y,-z
1/2+y,1/2+x,1/2-z
1/2-y,1/2-x,1/2-z
-x,-y,-z
y,-x,1/2-z
x,y,-z
-y,x,1/2-z
1/2-x,1/2+y,z
1/2+x,1/2-y,z
1/2-y,1/2-x,1/2+z
1/2+y,1/2+x,1/2+z
loop_
_atom_site_type_symbol
_atom_site_label
_atom_site_fract_x
_atom_site_fract_y
_atom_site_fract_z
Si Si1 0.632477 0.218790 0.813243
Si Si2 0.694983 0.431200 0.316468
Si Si3 0.510820 0.211589 0.685144
Si Si4 0.922614 0.966434 0.182378
Si Si5 0.779568 0.804191 0.312271
Si Si6 0.999043 0.587196 0.189484
O O1 0.662741 0.162741 0.750000
O O2 0.575484 0.226532 0.715675
O O3 0.670465 0.273342 0.782122
O O4 0.619212 0.212189 0.000000
O O5 0.676740 0.433517 0.500000
O O6 0.745375 0.473959 0.286622
O O7 0.640760 0.447117 0.213615
O O8 0.717400 0.369604 0.268883
O O9 0.496483 0.218974 0.500000
O O10 0.495859 0.149097 0.740328
O O11 0.966899 0.929521 0.283808
O O12 0.937321 0.954763 0.000000
O O13 0.719668 0.780333 0.250000
O O14 0.786048 0.792042 0.500000
O O15 0.052689 0.552689 0.250000
O O16 0.941375 0.558626 0.250000
O O17 0.998331 0.589084 0.000000
#
# Coordination Sequence:
#
# PCOD8317595 Si02
#       6
#    16  16  16  16  16  16
#     4  11  22  39  64  92 124 160 205 255 309 363
#     4  11  25  43  63  92 127 166 211 259 314 375
#     4  12  25  41  61  90 126 163 207 255 311 367
#     4  11  23  42  67  94 126 164 208 260 316 378
#     4  10  22  41  65  90 122 160 205 252 305 367
#     4  11  22  40  64  92 125 164 209 256 312 370
#
# _framework density 20.392696000000001
#
# number of rings (size 3 to 8) (size 9 to 14) (size 15 to 20)
#    0.000    1.000    0.000    9.500    2.333    3.333 
#    0.000    1.667    0.000    0.000    0.000    0.000 
#    0.000    0.000    0.000    0.000    0.000    0.000 
#
# Total GULP energy -1191055.787722 kJ/mol
# GULP energy per Si atom -12406.831122 kJ/mol
# Density = 2.034628 g / cm^3
# Si number density = 20.392696 Si / 1000 Ang^3
#
#
#
# Elastic Constant Matrix: (Units=GPa)
#
#
# Indices 1 2 3 4 5 6 
#
# 1 141.4474 34.3219 12.2849 0.0000 0.0000 0.0000
# 2 34.3219 141.4376 12.2855 0.0000 0.0000 0.0000
# 3 12.2849 12.2855 84.5873 0.0000 0.0000 0.0000
# 4 0.0000 0.0000 0.0000 32.0225 0.0000 0.0000
# 5 0.0000 0.0000 0.0000 0.0000 32.0226 0.0000
# 6 0.0000 0.0000 0.0000 0.0000 0.0000 22.1495
#
#
#
# Elastic Compliance Matrix: (Units=1/GPa)
#
#
# Indices 1 2 3 4 5 6 
#
# 1 0.007571 -0.001764 -0.000843 0.000000 0.000000 0.000000
# 2 -0.001764 0.007572 -0.000844 0.000000 0.000000 0.000000
# 3 -0.000843 -0.000844 0.012067 0.000000 0.000000 0.000000
# 4 0.000000 0.000000 0.000000 0.031228 0.000000 0.000000
# 5 0.000000 0.000000 0.000000 0.000000 0.031228 0.000000
# 6 0.000000 0.000000 0.000000 0.000000 0.000000 0.045148
#
#
# Mechanical properties :
#
#
# Convention : Reuss Voigt Hill
#
# Bulk Modulus (GPa) = 49.24161 53.91743 51.57952
# Shear Modulus (GPa) = 33.67351 37.81089 35.74220
#
# Velocity S-wave (km/s) = 4.06797 4.31064 4.19106
# Velocity P-wave (km/s) = 6.80174 7.16048 6.98341
#
# Compressibility (1/GPa) = 0.02030803
#
# Stress axis : x y z
#
# Youngs Moduli (GPa) = 132.08226 132.07281 82.86991
#
# Poissons Ratio (x) = 0.23297 0.06989
# Poissons Ratio (y) = 0.23299 0.06990
# Poissons Ratio (z) = 0.11139 0.11141
#
# Static dielectric constant tensor:
#      x y z
#    x 3.723200 0.000000 0.000000 
#    y 0.000000 3.723210 0.000000 
#    z 0.000000 0.000000 3.856560 
# 
# 
# High freq. dielectric constant tensor:
#      x y z
#    x 1.802200 0.000000 0.000000 
#    y 0.000000 1.802200 0.000000 
#    z 0.000000 0.000000 1.816490 
# 
# From -- ./inp_files/1234.got.cif
#   From: 2010.03.12/outbox.cif.g09.slc.cpg/sg135_1_cif.got.tgz:1234.got - 2010.04.06 18:31:24.
