data_PCOD8317515
_publ_section_title
;
Structure prediction by ZEFSAII (Michael W. Deem and Ramdas Pophale) SiO2 
 PCOD8317515
Probable space group: P 42/M B C
;
_chemical_formula_sum "Si O2"
_cell_formula_units_Z 116
_cell_length_a 17.472403
_cell_length_b 17.472403
_cell_length_c 18.332213
_cell_angle_alpha 90.000000
_cell_angle_beta 90.000000
_cell_angle_gamma 90.000000
_cell_volume 5596.547200
_symmetry_space_group_name_H-M "P 42/M B C"
_symmetry_group_IT_number 135
_symmetry_cell_setting 'tetragonal'
loop_
_space_group_symop_operation_xyz
x,y,z
-y,x,1/2+z
-x,-y,z
y,-x,1/2+z
1/2+x,1/2-y,-z
1/2-x,1/2+y,-z
1/2+y,1/2+x,1/2-z
1/2-y,1/2-x,1/2-z
-x,-y,-z
y,-x,1/2-z
x,y,-z
-y,x,1/2-z
1/2-x,1/2+y,z
1/2+x,1/2-y,z
1/2-y,1/2-x,1/2+z
1/2+y,1/2+x,1/2+z
loop_
_atom_site_type_symbol
_atom_site_label
_atom_site_fract_x
_atom_site_fract_y
_atom_site_fract_z
Si Si1 0.160912 0.544103 0.228685
Si Si2 0.757793 0.896898 0.358658
Si Si3 0.500000 0.500000 0.750000
Si Si4 0.214319 0.939566 0.416855
Si Si5 0.391642 0.778076 0.776154
Si Si6 0.381448 0.193362 0.418516
Si Si7 0.635129 0.577267 0.181059
Si Si8 0.642393 0.433077 0.080337
O O1 0.078608 0.578608 0.250000
O O2 0.228136 0.586357 0.275982
O O3 0.160993 0.454396 0.247358
O O4 0.169856 0.555593 0.141726
O O5 0.701887 0.837772 0.398141
O O6 0.842001 0.860159 0.359990
O O7 0.761928 0.973008 0.406554
O O8 0.436198 0.547718 0.706079
O O9 0.230298 0.914242 0.500000
O O10 0.269182 0.889926 0.363644
O O11 0.123467 0.927554 0.397744
O O12 0.308599 0.808599 0.750000
O O13 0.416279 0.694921 0.746779
O O14 0.405442 0.164207 0.500000
O O15 0.376652 0.284908 0.418515
O O16 0.657217 0.504788 0.132115
O O17 0.627950 0.467553 0.000000
#
# Coordination Sequence:
#
# PCOD8317515 Si02
#       8
#    16  16   4  16  16  16  16  16
#     4   9  19  39  61  85 114 154 206 256 309 362
#     4  10  22  36  63  90 117 158 209 260 308 379
#     4  12  24  40  66  92 124 168 216 262 316 384
#     4  10  22  41  61  87 122 161 202 256 317 374
#     4  11  24  38  61  91 124 163 209 259 313 375
#     4  10  20  37  60  86 119 162 204 255 316 378
#     4  12  23  39  60  91 124 163 210 262 312 380
#     4  10  22  38  59  85 125 164 200 252 319 375
#
# _framework density 20.727066000000001
#
# number of rings (size 3 to 8) (size 9 to 14) (size 15 to 20)
#    0.000    1.655    1.379    3.724    3.862    1.931 
#    0.000    3.103    0.000    0.000    0.000    5.793 
#    0.000    0.000    0.000    0.000    0.000    0.000 
#
# Total GULP energy -1437834.553791 kJ/mol
# GULP energy per Si atom -12395.125464 kJ/mol
# Density = 2.067989 g / cm^3
# Si number density = 20.727066 Si / 1000 Ang^3
#
#
#
# Elastic Constant Matrix: (Units=GPa)
#
#
# Indices 1 2 3 4 5 6 
#
# 1 75.5680 37.0068 43.9941 0.0000 0.0000 0.0000
# 2 37.0068 75.5680 43.9941 0.0000 0.0000 0.0000
# 3 43.9941 43.9941 154.2380 0.0000 0.0000 0.0000
# 4 0.0000 0.0000 0.0000 21.7785 0.0000 0.0000
# 5 0.0000 0.0000 0.0000 0.0000 21.7785 0.0000
# 6 0.0000 0.0000 0.0000 0.0000 0.0000 39.7244
#
#
#
# Elastic Compliance Matrix: (Units=1/GPa)
#
#
# Indices 1 2 3 4 5 6 
#
# 1 0.018682 -0.007251 -0.003261 0.000000 0.000000 0.000000
# 2 -0.007251 0.018682 -0.003261 0.000000 0.000000 0.000000
# 3 -0.003261 -0.003261 0.008344 0.000000 0.000000 0.000000
# 4 0.000000 0.000000 0.000000 0.045917 0.000000 0.000000
# 5 0.000000 0.000000 0.000000 0.000000 0.045917 0.000000
# 6 0.000000 0.000000 0.000000 0.000000 0.000000 0.025173
#
#
# Mechanical properties :
#
#
# Convention : Reuss Voigt Hill
#
# Bulk Modulus (GPa) = 55.05408 61.70711 58.38060
# Shear Modulus (GPa) = 25.46943 28.68154 27.07549
#
# Velocity S-wave (km/s) = 3.50923 3.72394 3.61818
# Velocity P-wave (km/s) = 6.56039 6.95171 6.75888
#
# Compressibility (1/GPa) = 0.01816396
#
# Stress axis : x y z
#
# Youngs Moduli (GPa) = 53.52698 53.52698 119.85231
#
# Poissons Ratio (x) = 0.38811 0.39080
# Poissons Ratio (y) = 0.38811 0.39080
# Poissons Ratio (z) = 0.17453 0.17453
#
# Static dielectric constant tensor:
#      x y z
#    x 3.675920 0.000000 0.000000 
#    y 0.000000 3.675920 0.000000 
#    z 0.000000 0.000000 3.892490 
# 
# 
# High freq. dielectric constant tensor:
#      x y z
#    x 1.801410 0.000000 0.000000 
#    y 0.000000 1.801410 0.000000 
#    z 0.000000 0.000000 1.815460 
# 
# From -- ./inp_files/4616.got.cif
#   From: 2010.03.12/outbox.cif.g09.slc.cpg/sg135_3_cif.got.tgz:4616.got - 2010.04.06 18:31:24.
