data_PCOD8317334
_publ_section_title
;
Structure prediction by ZEFSAII (Michael W. Deem and Ramdas Pophale) SiO2 
 PCOD8317334
Probable space group: P 42/N N M
;
_chemical_formula_sum "Si O2"
_cell_formula_units_Z 52
_cell_length_a 15.115263
_cell_length_b 15.115263
_cell_length_c 11.099782
_cell_angle_alpha 90.000000
_cell_angle_beta 90.000000
_cell_angle_gamma 90.000000
_cell_volume 2535.980242
_symmetry_space_group_name_H-M "P 42/N N M"
_symmetry_group_IT_number 134
_space_group.IT_coordinate_system_code '2'
_symmetry_cell_setting 'tetragonal'
loop_
_space_group_symop_operation_xyz
x,y,z
1/2-y,x,1/2+z
1/2-x,1/2-y,z
y,1/2-x,1/2+z
x,1/2-y,1/2-z
1/2-x,y,1/2-z
y,x,-z
1/2-y,1/2-x,-z
-x,-y,-z
1/2+y,-x,1/2-z
1/2+x,1/2+y,-z
-y,1/2+x,1/2-z
-x,1/2+y,1/2+z
1/2+x,-y,1/2+z
-y,-x,z
1/2+y,1/2+x,z
loop_
_atom_site_type_symbol
_atom_site_label
_atom_site_fract_x
_atom_site_fract_y
_atom_site_fract_z
Si Si1 0.398894 0.601107 0.480656
Si Si2 0.250000 0.250000 0.750000
Si Si3 0.368144 0.399140 0.137010
Si Si4 0.489185 0.510816 0.702946
Si Si5 0.079667 0.781312 0.124612
O O1 0.434435 0.565566 0.605894
O O2 0.443925 0.556076 0.363811
O O3 0.415696 0.705893 0.476902
O O4 0.190599 0.316048 0.669857
O O5 0.454680 0.418629 0.218968
O O6 0.299933 0.478151 0.151602
O O7 0.398128 0.398128 0.000000
O O8 0.123647 0.750000 0.250000
O O9 0.132222 0.867779 0.077254
#
# Coordination Sequence:
#
# PCOD8317334 Si02
#       5
#     8   4  16   8  16
#     4  11  23  38  68 101 136 174 226 287 341 406
#     4  12  26  44  68 106 138 172 248 300 354 428
#     4  12  25  44  67  97 135 184 227 292 355 426
#     4  11  23  44  66  95 142 184 227 281 358 428
#     4  12  21  40  67 101 131 173 233 288 342 413
#
# _framework density 20.504892000000002
#
# number of rings (size 3 to 8) (size 9 to 14) (size 15 to 20)
#    0.000    0.308    7.692    1.385    4.308    0.000 
#    0.000    0.000    0.000    0.000    4.000    0.000 
#    0.000    0.000    0.000    0.000    0.000    0.000 
#
# Total GULP energy -644805.019215 kJ/mol
# GULP energy per Si atom -12400.096523 kJ/mol
# Density = 2.045822 g / cm^3
# Si number density = 20.504892 Si / 1000 Ang^3
#
#
#
# Elastic Constant Matrix: (Units=GPa)
#
#
# Indices 1 2 3 4 5 6 
#
# 1 124.0880 73.1250 52.1522 0.0000 0.0000 0.0000
# 2 73.1250 124.0880 52.1522 0.0000 0.0000 0.0000
# 3 52.1522 52.1522 127.9554 0.0000 0.0000 0.0000
# 4 0.0000 0.0000 0.0000 18.0466 0.0000 0.0000
# 5 0.0000 0.0000 0.0000 0.0000 18.0466 0.0000
# 6 0.0000 0.0000 0.0000 0.0000 0.0000 47.7339
#
#
#
# Elastic Compliance Matrix: (Units=1/GPa)
#
#
# Indices 1 2 3 4 5 6 
#
# 1 0.013043 -0.006579 -0.002635 0.000000 0.000000 0.000000
# 2 -0.006579 0.013043 -0.002635 0.000000 0.000000 0.000000
# 3 -0.002635 -0.002635 0.009963 0.000000 0.000000 0.000000
# 4 0.000000 0.000000 0.000000 0.055412 0.000000 0.000000
# 5 0.000000 0.000000 0.000000 0.000000 0.055412 0.000000
# 6 0.000000 0.000000 0.000000 0.000000 0.000000 0.020949
#
#
# Mechanical properties :
#
#
# Convention : Reuss Voigt Hill
#
# Bulk Modulus (GPa) = 80.95524 81.22116 81.08820
# Shear Modulus (GPa) = 25.55759 30.01223 27.78491
#
# Velocity S-wave (km/s) = 3.53429 3.82993 3.68508
# Velocity P-wave (km/s) = 7.49811 7.69769 7.59855
#
# Compressibility (1/GPa) = 0.01235250
#
# Stress axis : x y z
#
# Youngs Moduli (GPa) = 76.66896 76.66896 100.37249
#
# Poissons Ratio (x) = 0.50440 0.26445
# Poissons Ratio (y) = 0.50440 0.26445
# Poissons Ratio (z) = 0.20200 0.20200
#
# Static dielectric constant tensor:
#      x y z
#    x 3.912890 0.000000 0.000000 
#    y 0.000000 3.912890 0.000000 
#    z 0.000000 0.000000 3.716400 
# 
# 
# High freq. dielectric constant tensor:
#      x y z
#    x 1.811790 0.000000 0.000000 
#    y 0.000000 1.811790 0.000000 
#    z 0.000000 0.000000 1.785400 
# 
# From -- ./inp_files/4377.got.cif
#   From: 2010.03.12/outbox.cif.g09.slc.cpg/sg134_3_cif.got.tgz:4377.got - 2010.04.06 18:17:22.
