data_PCOD8317870
_publ_section_title
;
Structure prediction by ZEFSAII (Michael W. Deem and Ramdas Pophale) SiO2 
 PCOD8317870
Probable space group: P 42/M N M
;
_chemical_formula_sum "Si O2"
_cell_formula_units_Z 72
_cell_length_a 23.336198
_cell_length_b 23.336198
_cell_length_c 8.041779
_cell_angle_alpha 90.000000
_cell_angle_beta 90.000000
_cell_angle_gamma 90.000000
_cell_volume 4379.377027
_symmetry_space_group_name_H-M "P 42/M N M"
_symmetry_group_IT_number 136
_symmetry_cell_setting 'tetragonal'
loop_
_space_group_symop_operation_xyz
x,y,z
1/2-y,1/2+x,1/2+z
-x,-y,z
1/2+y,1/2-x,1/2+z
1/2+x,1/2-y,1/2-z
1/2-x,1/2+y,1/2-z
y,x,-z
-y,-x,-z
-x,-y,-z
1/2+y,1/2-x,1/2-z
x,y,-z
1/2-y,1/2+x,1/2-z
1/2-x,1/2+y,1/2+z
1/2+x,1/2-y,1/2+z
-y,-x,z
y,x,z
loop_
_atom_site_type_symbol
_atom_site_label
_atom_site_fract_x
_atom_site_fract_y
_atom_site_fract_z
Si Si1 0.497116 0.407895 0.500000
Si Si2 0.617556 0.710509 0.302207
Si Si3 0.209107 0.116134 0.810316
Si Si4 0.699243 0.204950 0.183163
Si Si5 0.999042 0.827253 0.313522
O O1 0.432726 0.432726 0.500000
O O2 0.542643 0.457358 0.500000
O O3 0.505260 0.374734 0.328378
O O4 0.608868 0.708507 0.500000
O O5 0.656184 0.656184 0.245028
O O6 0.647051 0.770859 0.247403
O O7 0.556231 0.709998 0.212501
O O8 0.158290 0.158290 0.745818
O O9 0.270492 0.148405 0.798099
O O10 0.211427 0.058245 0.702012
O O11 0.197570 0.099028 0.000000
O O12 0.750020 0.249981 0.169586
O O13 0.673328 0.194001 0.000000
O O14 0.000434 0.853802 0.500000
#
# Coordination Sequence:
#
# PCOD8317870 Si02
#       5
#     8  16  16  16  16
#     4  11  24  40  52  66  94 130 174 221 256 290
#     4   9  17  32  51  70  98 130 160 201 253 300
#     4  10  19  32  49  69  97 129 162 204 253 299
#     4   8  15  28  48  72  95 122 155 196 247 304
#     4  12  23  34  52  73  96 131 171 212 254 298
#
# _framework density 16.440694000000001
#
# number of rings (size 3 to 8) (size 9 to 14) (size 15 to 20)
#    0.000    2.111    2.222    3.333    0.000    5.333 
#    0.000    3.333    0.000    0.000    0.000    0.000 
#    0.000    0.889    0.000    9.333    0.000    4.000 
#
# Total GULP energy -892249.851584 kJ/mol
# GULP energy per Si atom -12392.359050 kJ/mol
# Density = 1.640327 g / cm^3
# Si number density = 16.440694 Si / 1000 Ang^3
#
#
#
# Elastic Constant Matrix: (Units=GPa)
#
#
# Indices 1 2 3 4 5 6 
#
# 1 83.6866 53.1184 34.2586 0.0000 0.0000 0.0000
# 2 53.1184 83.6855 34.2580 0.0000 0.0000 0.0000
# 3 34.2586 34.2580 91.0141 0.0000 0.0000 0.0000
# 4 0.0000 0.0000 0.0000 18.8199 0.0000 0.0000
# 5 0.0000 0.0000 0.0000 0.0000 18.8199 0.0000
# 6 0.0000 0.0000 0.0000 0.0000 0.0000 20.1866
#
#
#
# Elastic Compliance Matrix: (Units=1/GPa)
#
#
# Indices 1 2 3 4 5 6 
#
# 1 0.020861 -0.011853 -0.003391 0.000000 0.000000 0.000000
# 2 -0.011853 0.020861 -0.003391 0.000000 0.000000 0.000000
# 3 -0.003391 -0.003391 0.013540 0.000000 0.000000 0.000000
# 4 0.000000 0.000000 0.000000 0.053135 0.000000 0.000000
# 5 0.000000 0.000000 0.000000 0.000000 0.053135 0.000000
# 6 0.000000 0.000000 0.000000 0.000000 0.000000 0.049538
#
#
# Mechanical properties :
#
#
# Convention : Reuss Voigt Hill
#
# Bulk Modulus (GPa) = 55.57701 55.73957 55.65829
# Shear Modulus (GPa) = 19.65896 20.68203 20.17050
#
# Velocity S-wave (km/s) = 3.46171 3.55065 3.50646
# Velocity P-wave (km/s) = 7.06087 7.12646 7.09374
#
# Compressibility (1/GPa) = 0.01799305
#
# Stress axis : x y z
#
# Youngs Moduli (GPa) = 47.93637 47.93588 73.85633
#
# Poissons Ratio (x) = 0.56820 0.25042
# Poissons Ratio (y) = 0.56820 0.25041
# Poissons Ratio (z) = 0.16254 0.16253
#
# Static dielectric constant tensor:
#      x y z
#    x 3.173240 0.000000 0.000000 
#    y 0.000000 3.173240 0.000000 
#    z 0.000000 0.000000 3.105970 
# 
# 
# High freq. dielectric constant tensor:
#      x y z
#    x 1.609180 0.000000 0.000000 
#    y 0.000000 1.609180 0.000000 
#    z 0.000000 0.000000 1.636850 
# 
# From -- ./inp_files/1709.got.cif
#   From: 2010.03.12/outbox.cif.g09.slc.cpg/sg136_1_cif.got.tgz:1709.got - 2010.04.06 18:39:43.
