data_PCOD8317716
_publ_section_title
;
Structure prediction by ZEFSAII (Michael W. Deem and Ramdas Pophale) SiO2 
 PCOD8317716
Probable space group: P 42/M N M
;
_chemical_formula_sum "Si O2"
_cell_formula_units_Z 112
_cell_length_a 18.228123
_cell_length_b 18.228123
_cell_length_c 21.299728
_cell_angle_alpha 90.000000
_cell_angle_beta 90.000000
_cell_angle_gamma 90.000000
_cell_volume 7077.142795
_symmetry_space_group_name_H-M "P 42/M N M"
_symmetry_group_IT_number 136
_symmetry_cell_setting 'tetragonal'
loop_
_space_group_symop_operation_xyz
x,y,z
1/2-y,1/2+x,1/2+z
-x,-y,z
1/2+y,1/2-x,1/2+z
1/2+x,1/2-y,1/2-z
1/2-x,1/2+y,1/2-z
y,x,-z
-y,-x,-z
-x,-y,-z
1/2+y,1/2-x,1/2-z
x,y,-z
1/2-y,1/2+x,1/2-z
1/2-x,1/2+y,1/2+z
1/2+x,1/2-y,1/2+z
-y,-x,z
y,x,z
loop_
_atom_site_type_symbol
_atom_site_label
_atom_site_fract_x
_atom_site_fract_y
_atom_site_fract_z
Si Si1 0.528437 0.114383 0.659844
Si Si2 0.803865 0.316939 0.157746
Si Si3 0.329537 0.929358 0.930518
Si Si4 0.002239 0.595999 0.569915
Si Si5 0.842485 0.585463 0.242267
Si Si6 0.620271 0.500176 0.928653
Si Si7 0.486444 0.766506 0.145146
O O1 0.501425 0.182199 0.614224
O O2 0.540300 0.041937 0.617509
O O3 0.462639 0.105074 0.711061
O O4 0.604986 0.130077 0.694424
O O5 0.732137 0.267864 0.156194
O O6 0.854415 0.296148 0.097630
O O7 0.852354 0.299263 0.219288
O O8 0.778347 0.400984 0.158950
O O9 0.416659 0.919958 0.930020
O O10 0.297053 0.942207 0.000000
O O11 0.035079 0.584495 0.500000
O O12 0.015030 0.679642 0.590630
O O13 0.783476 0.532928 0.208204
O O14 0.569783 0.430218 0.914443
O O15 0.574465 0.574465 0.920379
O O16 0.684610 0.501402 0.877856
O O17 0.650741 0.494752 0.000000
#
# Coordination Sequence:
#
# PCOD8317716 Si02
#       7
#    16  16  16  16  16  16  16
#     4  10  18  26  41  60  88 119 152 190 224 258
#     4  10  20  33  46  65  92 126 159 192 231 280
#     4   9  18  29  41  63  88 117 154 190 227 267
#     4   9  17  26  39  63  89 115 151 188 224 264
#     4  10  20  30  43  66  91 122 161 193 226 276
#     4   9  18  32  50  71  91 115 154 202 246 283
#     4  10  18  31  47  66  90 123 159 190 232 282
#
# _framework density 15.825596000000001
#
# number of rings (size 3 to 8) (size 9 to 14) (size 15 to 20)
#    0.000    2.429    1.429    2.143    4.000    2.571 
#    0.000    0.000    0.000    0.000    0.000    0.000 
#    0.000    0.000    0.000    0.000    0.000    2.000 
#
# Total GULP energy -1387531.323440 kJ/mol
# GULP energy per Si atom -12388.672531 kJ/mol
# Density = 1.578958 g / cm^3
# Si number density = 15.825596 Si / 1000 Ang^3
#
#
#
# Elastic Constant Matrix: (Units=GPa)
#
#
# Indices 1 2 3 4 5 6 
#
# 1 73.8605 30.2882 41.5256 0.0000 0.0000 0.0000
# 2 30.2882 73.8605 41.5256 0.0000 0.0000 0.0000
# 3 41.5256 41.5256 112.9338 0.0000 0.0000 0.0000
# 4 0.0000 0.0000 0.0000 17.0307 0.0000 0.0000
# 5 0.0000 0.0000 0.0000 0.0000 17.0307 0.0000
# 6 0.0000 0.0000 0.0000 0.0000 0.0000 22.0006
#
#
#
# Elastic Compliance Matrix: (Units=1/GPa)
#
#
# Indices 1 2 3 4 5 6 
#
# 1 0.018268 -0.004683 -0.004995 0.000000 0.000000 0.000000
# 2 -0.004683 0.018268 -0.004995 0.000000 0.000000 0.000000
# 3 -0.004995 -0.004995 0.012528 0.000000 0.000000 0.000000
# 4 0.000000 0.000000 0.000000 0.058718 0.000000 0.000000
# 5 0.000000 0.000000 0.000000 0.000000 0.058718 0.000000
# 6 0.000000 0.000000 0.000000 0.000000 0.000000 0.045453
#
#
# Mechanical properties :
#
#
# Convention : Reuss Voigt Hill
#
# Bulk Modulus (GPa) = 50.71659 54.14815 52.43237
# Shear Modulus (GPa) = 20.17183 21.03342 20.60263
#
# Velocity S-wave (km/s) = 3.57407 3.64960 3.61204
# Velocity P-wave (km/s) = 7.01062 7.21452 7.11330
#
# Compressibility (1/GPa) = 0.01971741
#
# Stress axis : x y z
#
# Youngs Moduli (GPa) = 54.74159 54.74159 79.82011
#
# Poissons Ratio (x) = 0.25634 0.39871
# Poissons Ratio (y) = 0.25634 0.39871
# Poissons Ratio (z) = 0.27344 0.27344
#
# Static dielectric constant tensor:
#      x y z
#    x 2.799760 0.000000 0.000000 
#    y 0.000000 2.799760 0.000000 
#    z 0.000000 0.000000 3.475740 
# 
# 
# High freq. dielectric constant tensor:
#      x y z
#    x 1.577880 0.000000 0.000000 
#    y 0.000000 1.577880 0.000000 
#    z 0.000000 0.000000 1.621990 
# 
# From -- ./inp_files/7755.got.cif
#   From: 2010.03.12/outbox.cif.g09.slc.cpg/sg136_4_cif.got.tgz:7755.got - 2010.04.06 18:39:43.
