data_PCOD8317090
_publ_section_title
;
Structure prediction by ZEFSAII (Michael W. Deem and Ramdas Pophale) SiO2 
 PCOD8317090
Probable space group: P 42/N N M
;
_chemical_formula_sum "Si O2"
_cell_formula_units_Z 80
_cell_length_a 22.997072
_cell_length_b 22.997072
_cell_length_c 10.110325
_cell_angle_alpha 90.000000
_cell_angle_beta 90.000000
_cell_angle_gamma 90.000000
_cell_volume 5347.000272
_symmetry_space_group_name_H-M "P 42/N N M"
_symmetry_group_IT_number 134
_space_group.IT_coordinate_system_code '2'
_symmetry_cell_setting 'tetragonal'
loop_
_space_group_symop_operation_xyz
x,y,z
1/2-y,x,1/2+z
1/2-x,1/2-y,z
y,1/2-x,1/2+z
x,1/2-y,1/2-z
1/2-x,y,1/2-z
y,x,-z
1/2-y,1/2-x,-z
-x,-y,-z
1/2+y,-x,1/2-z
1/2+x,1/2+y,-z
-y,1/2+x,1/2-z
-x,1/2+y,1/2+z
1/2+x,-y,1/2+z
-y,-x,z
1/2+y,1/2+x,z
loop_
_atom_site_type_symbol
_atom_site_label
_atom_site_fract_x
_atom_site_fract_y
_atom_site_fract_z
Si Si1 0.814879 0.601604 0.750000
Si Si2 0.539296 0.039296 0.905631
Si Si3 0.134578 0.037647 0.485646
Si Si4 0.134579 0.037648 0.014353
Si Si5 0.073632 0.183012 0.250001
Si Si6 0.039297 0.960704 0.094367
O O1 0.750000 0.629532 0.750000
O O2 0.820197 0.560617 0.622364
O O3 0.863867 0.651268 0.750001
O O4 0.820198 0.560616 0.877634
O O5 0.526496 0.026496 0.749999
O O6 0.524277 0.106775 0.939740
O O7 0.500000 0.000000 0.000000
O O8 0.082049 0.082049 0.500000
O O9 0.167275 0.033302 0.625124
O O10 0.106776 0.975723 0.060258
O O11 0.082049 0.082049 0.000000
O O12 0.167275 0.033302 0.874874
O O13 0.089767 0.250000 0.250000
O O14 0.000000 0.000000 0.000000
#
# Coordination Sequence:
#
# PCOD8317090 Si02
#       6
#    16   8  16  16  16   8
#     4  10  18  30  45  61  83 119 160 198 229 258
#     4  10  18  28  46  68  88 106 136 181 234 285
#     4   9  18  29  44  62  85 109 143 186 231 275
#     4   9  18  29  44  62  85 109 143 186 231 275
#     4  10  20  32  43  61  87 119 158 198 227 256
#     4  10  18  28  46  68  88 106 136 181 234 285
#
# _framework density 14.96166
#
# number of rings (size 3 to 8) (size 9 to 14) (size 15 to 20)
#    0.000    2.400    2.000    1.200    8.400    0.400 
#    0.000    0.000    0.000    7.200    0.000    0.000 
#    0.000    0.000    0.000    0.000    0.000   70.000 
#
# Total GULP energy -991323.414677 kJ/mol
# GULP energy per Si atom -12391.542683 kJ/mol
# Density = 1.492761 g / cm^3
# Si number density = 14.961660 Si / 1000 Ang^3
#
#
#
# Elastic Constant Matrix: (Units=GPa)
#
#
# Indices 1 2 3 4 5 6 
#
# 1 51.3185 45.8417 36.6213 0.0000 0.0000 0.0000
# 2 45.8417 51.3185 36.6213 0.0000 0.0000 0.0000
# 3 36.6213 36.6213 147.6641 0.0000 0.0000 0.0000
# 4 0.0000 0.0000 0.0000 15.8212 0.0000 0.0000
# 5 0.0000 0.0000 0.0000 0.0000 15.8212 0.0000
# 6 0.0000 0.0000 0.0000 0.0000 0.0000 15.7205
#
#
#
# Elastic Compliance Matrix: (Units=1/GPa)
#
#
# Indices 1 2 3 4 5 6 
#
# 1 0.097625 -0.084966 -0.003139 0.000000 0.000000 0.000000
# 2 -0.084966 0.097625 -0.003139 0.000000 0.000000 0.000000
# 3 -0.003139 -0.003139 0.008329 0.000000 0.000000 0.000000
# 4 0.000000 0.000000 0.000000 0.063206 0.000000 0.000000
# 5 0.000000 0.000000 0.000000 0.000000 0.063206 0.000000
# 6 0.000000 0.000000 0.000000 0.000000 0.000000 0.063611
#
#
# Mechanical properties :
#
#
# Convention : Reuss Voigt Hill
#
# Bulk Modulus (GPa) = 47.41739 54.27440 50.84590
# Shear Modulus (GPa) = 8.57454 18.22035 13.39745
#
# Velocity S-wave (km/s) = 2.39655 3.49349 2.99566
# Velocity P-wave (km/s) = 6.27848 7.25445 6.78404
#
# Compressibility (1/GPa) = 0.02108931
#
# Stress axis : x y z
#
# Youngs Moduli (GPa) = 10.24332 10.24332 120.05777
#
# Poissons Ratio (x) = 0.87033 0.37692
# Poissons Ratio (y) = 0.87033 0.37692
# Poissons Ratio (z) = 0.03216 0.03216
#
# Static dielectric constant tensor:
#      x y z
#    x 2.835190 0.000000 0.000000 
#    y 0.000000 2.835190 0.000000 
#    z 0.000000 0.000000 3.641410 
# 
# 
# High freq. dielectric constant tensor:
#      x y z
#    x 1.536210 0.000000 0.000000 
#    y 0.000000 1.536210 0.000000 
#    z 0.000000 0.000000 1.601700 
# 
# From -- ./inp_files/3102.got.cif
#   From: 2010.03.12/outbox.cif.g09.slc.cpg/sg134_2_cif.got.tgz:3102.got - 2010.04.06 18:17:22.
