data_PCOD8317808
_publ_section_title
;
Structure prediction by ZEFSAII (Michael W. Deem and Ramdas Pophale) SiO2 
 PCOD8317808
Probable space group: P 42/M N M
;
_chemical_formula_sum "Si O2"
_cell_formula_units_Z 112
_cell_length_a 19.486859
_cell_length_b 19.486859
_cell_length_c 17.837704
_cell_angle_alpha 90.000000
_cell_angle_beta 90.000000
_cell_angle_gamma 90.000000
_cell_volume 6773.648221
_symmetry_space_group_name_H-M "P 42/M N M"
_symmetry_group_IT_number 136
_symmetry_cell_setting 'tetragonal'
loop_
_space_group_symop_operation_xyz
x,y,z
1/2-y,1/2+x,1/2+z
-x,-y,z
1/2+y,1/2-x,1/2+z
1/2+x,1/2-y,1/2-z
1/2-x,1/2+y,1/2-z
y,x,-z
-y,-x,-z
-x,-y,-z
1/2+y,1/2-x,1/2-z
x,y,-z
1/2-y,1/2+x,1/2-z
1/2-x,1/2+y,1/2+z
1/2+x,1/2-y,1/2+z
-y,-x,z
y,x,z
loop_
_atom_site_type_symbol
_atom_site_label
_atom_site_fract_x
_atom_site_fract_y
_atom_site_fract_z
Si Si1 0.369537 0.259725 0.148012
Si Si2 0.903223 0.330581 0.215213
Si Si3 0.732748 0.843928 0.085582
Si Si4 0.191363 0.557678 0.712743
Si Si5 0.472174 0.362355 0.913613
Si Si6 0.298846 0.186596 0.414824
Si Si7 0.407290 0.699738 0.830755
O O1 0.315483 0.315483 0.175962
O O2 0.399748 0.229354 0.224055
O O3 0.333778 0.203797 0.095186
O O4 0.428540 0.293085 0.097517
O O5 0.870145 0.398669 0.250828
O O6 0.864365 0.309464 0.139380
O O7 0.983227 0.340650 0.195633
O O8 0.801236 0.801236 0.108564
O O9 0.722145 0.910493 0.136715
O O10 0.737758 0.868525 0.000000
O O11 0.256304 0.554301 0.768001
O O12 0.428948 0.428948 0.886499
O O13 0.541293 0.355762 0.866255
O O14 0.491689 0.370322 0.000000
O O15 0.324463 0.176599 0.500000
O O16 0.257224 0.257224 0.405987
O O17 0.250829 0.121924 0.394274
O O18 0.343547 0.656454 0.795808
#
# Coordination Sequence:
#
# PCOD8317808 Si02
#       7
#    16  16  16  16  16  16  16
#     4   9  16  29  48  70  94 123 156 193 235 280
#     4  10  19  32  50  70  96 127 163 199 237 284
#     4   9  17  30  50  75  99 120 151 201 251 290
#     4  10  20  33  50  72  94 129 166 199 240 287
#     4  10  19  29  45  70  98 127 157 188 229 284
#     4   9  18  32  51  74  97 124 160 204 248 285
#     4  10  19  33  50  69  96 129 162 195 236 289
#
# _framework density 16.534663999999999
#
# number of rings (size 3 to 8) (size 9 to 14) (size 15 to 20)
#    0.000    2.429    1.429    1.714    0.000    7.143 
#    0.000    0.714    0.000    0.000    0.000    4.000 
#    0.000    0.000    0.000    9.429    0.000    0.000 
#
# Total GULP energy -1388511.064481 kJ/mol
# GULP energy per Si atom -12397.420219 kJ/mol
# Density = 1.649703 g / cm^3
# Si number density = 16.534664 Si / 1000 Ang^3
#
#
#
# Elastic Constant Matrix: (Units=GPa)
#
#
# Indices 1 2 3 4 5 6 
#
# 1 83.0243 33.5738 39.9287 0.0000 0.0000 0.0000
# 2 33.5738 83.0243 39.9287 0.0000 0.0000 0.0000
# 3 39.9287 39.9287 98.2826 0.0000 0.0000 0.0000
# 4 0.0000 0.0000 0.0000 22.5361 0.0000 0.0000
# 5 0.0000 0.0000 0.0000 0.0000 22.5361 0.0000
# 6 0.0000 0.0000 0.0000 0.0000 0.0000 17.8659
#
#
#
# Elastic Compliance Matrix: (Units=1/GPa)
#
#
# Indices 1 2 3 4 5 6 
#
# 1 0.016053 -0.004170 -0.004828 0.000000 0.000000 0.000000
# 2 -0.004170 0.016053 -0.004828 0.000000 0.000000 0.000000
# 3 -0.004828 -0.004828 0.014097 0.000000 0.000000 0.000000
# 4 0.000000 0.000000 0.000000 0.044373 0.000000 0.000000
# 5 0.000000 0.000000 0.000000 0.000000 0.044373 0.000000
# 6 0.000000 0.000000 0.000000 0.000000 0.000000 0.055973
#
#
# Mechanical properties :
#
#
# Convention : Reuss Voigt Hill
#
# Bulk Modulus (GPa) = 53.90055 54.57704 54.23880
# Shear Modulus (GPa) = 22.24643 22.64764 22.44703
#
# Velocity S-wave (km/s) = 3.67201 3.70497 3.68852
# Velocity P-wave (km/s) = 7.11670 7.16810 7.14245
#
# Compressibility (1/GPa) = 0.01855269
#
# Stress axis : x y z
#
# Youngs Moduli (GPa) = 62.29543 62.29543 70.93573
#
# Poissons Ratio (x) = 0.25975 0.34245
# Poissons Ratio (y) = 0.25975 0.34245
# Poissons Ratio (z) = 0.30074 0.30074
#
# Static dielectric constant tensor:
#      x y z
#    x 3.037050 0.000000 0.000000 
#    y 0.000000 3.037050 0.000000 
#    z 0.000000 0.000000 3.065680 
# 
# 
# High freq. dielectric constant tensor:
#      x y z
#    x 1.628980 0.000000 0.000000 
#    y 0.000000 1.628980 0.000000 
#    z 0.000000 0.000000 1.631260 
# 
# From -- ./inp_files/6583.got.cif
#   From: 2010.03.12/outbox.cif.g09.slc.cpg/sg136_4_cif.got.tgz:6583.got - 2010.04.06 18:39:43.
