data_PCOD8317075
_publ_section_title
;
Structure prediction by ZEFSAII (Michael W. Deem and Ramdas Pophale) SiO2 
 PCOD8317075
Probable space group: P 42/N N M
;
_chemical_formula_sum "Si O2"
_cell_formula_units_Z 96
_cell_length_a 17.814941
_cell_length_b 17.814941
_cell_length_c 18.754151
_cell_angle_alpha 90.000000
_cell_angle_beta 90.000000
_cell_angle_gamma 90.000000
_cell_volume 5952.044715
_symmetry_space_group_name_H-M "P 42/N N M"
_symmetry_group_IT_number 134
_space_group.IT_coordinate_system_code '2'
_symmetry_cell_setting 'tetragonal'
loop_
_space_group_symop_operation_xyz
x,y,z
1/2-y,x,1/2+z
1/2-x,1/2-y,z
y,1/2-x,1/2+z
x,1/2-y,1/2-z
1/2-x,y,1/2-z
y,x,-z
1/2-y,1/2-x,-z
-x,-y,-z
1/2+y,-x,1/2-z
1/2+x,1/2+y,-z
-y,1/2+x,1/2-z
-x,1/2+y,1/2+z
1/2+x,-y,1/2+z
-y,-x,z
1/2+y,1/2+x,z
loop_
_atom_site_type_symbol
_atom_site_label
_atom_site_fract_x
_atom_site_fract_y
_atom_site_fract_z
Si Si1 0.290664 0.170459 0.924227
Si Si2 0.059586 0.339035 0.449332
Si Si3 0.371392 0.744569 0.326938
Si Si4 0.836755 0.665573 0.228404
Si Si5 0.058671 0.064335 0.824648
Si Si6 0.836455 0.040101 0.924711
O O1 0.250000 0.250000 0.916137
O O2 0.230065 0.105188 0.918321
O O3 0.346450 0.159626 0.857488
O O4 0.334131 0.165870 0.000000
O O5 0.110908 0.389093 0.500000
O O6 0.026432 0.385276 0.382334
O O7 0.992766 0.310728 0.499616
O O8 0.412565 0.750000 0.250000
O O9 0.338013 0.661987 0.340279
O O10 0.305652 0.805652 0.325612
O O11 0.428884 0.760242 0.390199
O O12 0.860143 0.750000 0.250000
O O13 0.750000 0.649500 0.250000
O O14 0.893324 0.603427 0.261581
O O15 0.017248 0.130080 0.867327
O O16 0.999545 0.000456 0.796552
O O17 0.896106 0.103895 0.941867
#
# Coordination Sequence:
#
# PCOD8317075 Si02
#       6
#    16  16  16  16  16  16
#     4  11  19  31  49  75 104 127 161 201 256 304
#     4  10  17  28  48  70  99 127 153 197 252 305
#     4   8  14  27  45  62  86 123 163 200 235 276
#     4  11  20  33  53  79 101 130 168 215 252 303
#     4  10  20  33  49  73 102 132 165 206 256 304
#     4   9  18  29  43  69  98 124 156 195 243 294
#
# _framework density 16.128910999999999
#
# number of rings (size 3 to 8) (size 9 to 14) (size 15 to 20)
#    0.000    2.167    5.000    1.000    2.333    2.667 
#    0.000    0.000    0.000    1.500    0.000    0.000 
#    0.000    0.333    0.000    0.000    0.000    0.000 
#
# Total GULP energy -1189576.376107 kJ/mol
# GULP energy per Si atom -12391.420584 kJ/mol
# Density = 1.609220 g / cm^3
# Si number density = 16.128911 Si / 1000 Ang^3
#
#
#
# Elastic Constant Matrix: (Units=GPa)
#
#
# Indices 1 2 3 4 5 6 
#
# 1 60.7955 41.8676 48.6582 0.0000 0.0000 0.0000
# 2 41.8676 60.7957 48.6582 0.0000 0.0000 0.0000
# 3 48.6582 48.6582 136.6607 0.0000 0.0000 0.0000
# 4 0.0000 0.0000 0.0000 69.2387 0.0000 0.0000
# 5 0.0000 0.0000 0.0000 0.0000 69.2780 0.0000
# 6 0.0000 0.0000 0.0000 0.0000 0.0000 19.0795
#
#
#
# Elastic Compliance Matrix: (Units=1/GPa)
#
#
# Indices 1 2 3 4 5 6 
#
# 1 0.033767 -0.019064 -0.005235 0.000000 0.000000 0.000000
# 2 -0.019064 0.033767 -0.005235 0.000000 0.000000 0.000000
# 3 -0.005235 -0.005235 0.011045 0.000000 0.000000 0.000000
# 4 0.000000 0.000000 0.000000 0.014443 0.000000 0.000000
# 5 0.000000 0.000000 0.000000 0.000000 0.014435 0.000000
# 6 0.000000 0.000000 0.000000 0.000000 0.000000 0.052412
#
#
# Mechanical properties :
#
#
# Convention : Reuss Voigt Hill
#
# Bulk Modulus (GPa) = 51.25282 59.62447 55.43864
# Shear Modulus (GPa) = 22.17866 39.45712 30.81789
#
# Velocity S-wave (km/s) = 3.71224 4.95143 4.37592
# Velocity P-wave (km/s) = 7.08663 8.35085 7.74458
#
# Compressibility (1/GPa) = 0.01951112
#
# Stress axis : x y z
#
# Youngs Moduli (GPa) = 29.61436 29.61449 90.53666
#
# Poissons Ratio (x) = 0.56458 0.47396
# Poissons Ratio (y) = 0.56458 0.47396
# Poissons Ratio (z) = 0.15503 0.15503
#
# Static dielectric constant tensor:
#      x y z
#    x 3.022840 0.000000 0.000000 
#    y 0.000000 3.022770 0.000000 
#    z 0.000000 0.000000 3.322100 
# 
# 
# High freq. dielectric constant tensor:
#      x y z
#    x 1.592770 0.000000 0.000000 
#    y 0.000000 1.592770 0.000000 
#    z 0.000000 0.000000 1.624000 
# 
# From -- ./inp_files/7885.got.cif
#   From: 2010.03.12/outbox.cif.g09.slc.cpg/sg134_4_cif.got.tgz:7885.got - 2010.04.06 18:17:22.
