data_PCOD8317359
_publ_section_title
;
Structure prediction by ZEFSAII (Michael W. Deem and Ramdas Pophale) SiO2 
 PCOD8317359
Probable space group: P 42/M B C
;
_chemical_formula_sum "Si O2"
_cell_formula_units_Z 64
_cell_length_a 21.610402
_cell_length_b 21.610402
_cell_length_c 8.661785
_cell_angle_alpha 90.000000
_cell_angle_beta 90.000000
_cell_angle_gamma 90.000000
_cell_volume 4045.135662
_symmetry_space_group_name_H-M "P 42/M B C"
_symmetry_group_IT_number 135
_symmetry_cell_setting 'tetragonal'
loop_
_space_group_symop_operation_xyz
x,y,z
-y,x,1/2+z
-x,-y,z
y,-x,1/2+z
1/2+x,1/2-y,-z
1/2-x,1/2+y,-z
1/2+y,1/2+x,1/2-z
1/2-y,1/2-x,1/2-z
-x,-y,-z
y,-x,1/2-z
x,y,-z
-y,x,1/2-z
1/2-x,1/2+y,z
1/2+x,1/2-y,z
1/2-y,1/2-x,1/2+z
1/2+y,1/2+x,1/2+z
loop_
_atom_site_type_symbol
_atom_site_label
_atom_site_fract_x
_atom_site_fract_y
_atom_site_fract_z
Si Si1 0.929388 0.333235 0.318001
Si Si2 0.562806 0.159091 0.820151
Si Si3 0.255824 0.658531 0.682228
Si Si4 0.160255 0.245082 0.822016
O O1 0.888558 0.388558 0.250000
O O2 0.921849 0.333108 0.500000
O O3 0.907132 0.266471 0.251144
O O4 0.999630 0.344290 0.272439
O O5 0.607722 0.107722 0.750000
O O6 0.590585 0.228971 0.800120
O O7 0.551957 0.144357 0.000000
O O8 0.209894 0.709894 0.750000
O O9 0.252350 0.655178 0.500000
O O10 0.325245 0.679247 0.736649
O O11 0.202623 0.297378 0.750000
O O12 0.177286 0.236545 0.000000
#
# Coordination Sequence:
#
# PCOD8317359 Si02
#       4
#    16  16  16  16
#     4  11  21  33  47  63  87 118 153 188 223 261
#     4  10  20  33  47  65  89 118 152 186 221 260
#     4  10  17  27  44  64  86 110 141 179 221 265
#     4   9  16  27  44  64  86 110 139 177 220 264
#
# _framework density 15.821471000000001
#
# number of rings (size 3 to 8) (size 9 to 14) (size 15 to 20)
#    0.000    2.000    0.000    9.000    0.000    3.500 
#    0.000    2.500    0.000    0.000    0.000    0.000 
#    0.000    1.000    0.000   10.500    0.000    4.500 
#
# Total GULP energy -793014.015766 kJ/mol
# GULP energy per Si atom -12390.843996 kJ/mol
# Density = 1.578546 g / cm^3
# Si number density = 15.821471 Si / 1000 Ang^3
#
#
#
# Elastic Constant Matrix: (Units=GPa)
#
#
# Indices 1 2 3 4 5 6 
#
# 1 57.8851 61.3585 44.4782 0.0000 0.0000 0.0000
# 2 61.3585 57.8849 44.4801 0.0000 0.0000 0.0000
# 3 44.4782 44.4801 157.5850 0.0000 0.0000 0.0000
# 4 0.0000 0.0000 0.0000 22.6035 0.0000 0.0000
# 5 0.0000 0.0000 0.0000 0.0000 22.6027 0.0000
# 6 0.0000 0.0000 0.0000 0.0000 0.0000 19.5411
#
#
#
# Elastic Compliance Matrix: (Units=1/GPa)
#
#
# Indices 1 2 3 4 5 6 
#
# 1 -0.138635 0.149260 -0.003001 0.000000 0.000000 0.000000
# 2 0.149260 -0.138639 -0.002996 0.000000 0.000000 0.000000
# 3 -0.003001 -0.002996 0.008038 0.000000 0.000000 0.000000
# 4 0.000000 0.000000 0.000000 0.044241 0.000000 0.000000
# 5 0.000000 0.000000 0.000000 0.000000 0.044242 0.000000
# 6 0.000000 0.000000 0.000000 0.000000 0.000000 0.051174
#
#
# Mechanical properties :
#
#
# Convention : Reuss Voigt Hill
#
# Bulk Modulus (GPa) = 57.83382 63.77652 60.80517
# Shear Modulus (GPa) = -12.18501 21.15201 4.48350
#
# Velocity S-wave (km/s) = -2.77818 3.66036 1.68522
# Velocity P-wave (km/s) = 5.13248 7.63295 6.50401
#
# Compressibility (1/GPa) = 0.01729092
#
# Stress axis : x y z
#
# Youngs Moduli (GPa) = -7.21320 -7.21298 124.40253
#
# Poissons Ratio (x) = 1.07661 0.37330
# Poissons Ratio (y) = 1.07664 0.37272
# Poissons Ratio (z) = -0.02165 -0.02161
#
# Static dielectric constant tensor:
#      x y z
#    x 3.328680 0.000000 0.000000 
#    y 0.000000 3.328680 0.000000 
#    z 0.000000 0.000000 3.177020 
# 
# 
# High freq. dielectric constant tensor:
#      x y z
#    x 1.580810 0.000000 0.000000 
#    y 0.000000 1.580810 0.000000 
#    z 0.000000 0.000000 1.635690 
# 
# From -- ./inp_files/930.got.cif
#   From: 2010.03.12/outbox.cif.g09.slc.cpg/sg135_1_cif.got.tgz:930.got - 2010.04.06 18:31:24.
