data_PCOD8317607
_publ_section_title
;
Structure prediction by ZEFSAII (Michael W. Deem and Ramdas Pophale) SiO2 
 PCOD8317607
Probable space group: P 42/M B C
;
_chemical_formula_sum "Si O2"
_cell_formula_units_Z 112
_cell_length_a 14.436987
_cell_length_b 14.436987
_cell_length_c 26.239444
_cell_angle_alpha 90.000000
_cell_angle_beta 90.000000
_cell_angle_gamma 90.000000
_cell_volume 5468.997932
_symmetry_space_group_name_H-M "P 42/M B C"
_symmetry_group_IT_number 135
_symmetry_cell_setting 'tetragonal'
loop_
_space_group_symop_operation_xyz
x,y,z
-y,x,1/2+z
-x,-y,z
y,-x,1/2+z
1/2+x,1/2-y,-z
1/2-x,1/2+y,-z
1/2+y,1/2+x,1/2-z
1/2-y,1/2-x,1/2-z
-x,-y,-z
y,-x,1/2-z
x,y,-z
-y,x,1/2-z
1/2-x,1/2+y,z
1/2+x,1/2-y,z
1/2-y,1/2-x,1/2+z
1/2+y,1/2+x,1/2+z
loop_
_atom_site_type_symbol
_atom_site_label
_atom_site_fract_x
_atom_site_fract_y
_atom_site_fract_z
Si Si1 0.346688 0.747350 0.887489
Si Si2 0.824775 0.559841 0.709383
Si Si3 0.794690 0.118908 0.940898
Si Si4 0.921200 0.433875 0.630358
Si Si5 0.002116 0.854266 0.264844
Si Si6 0.961082 0.254141 0.059251
Si Si7 0.951470 0.226926 0.629425
O O1 0.366371 0.783858 0.830654
O O2 0.289351 0.825755 0.915934
O O3 0.440704 0.725753 0.917560
O O4 0.287580 0.654336 0.886337
O O5 0.886673 0.613328 0.750000
O O6 0.884440 0.480748 0.681966
O O7 0.742356 0.505880 0.736492
O O8 0.892309 0.168825 0.931256
O O9 0.800186 0.016557 0.917631
O O10 0.772317 0.108670 0.000000
O O11 0.843616 0.420439 0.587511
O O12 0.964541 0.334572 0.644659
O O13 0.000000 0.500000 0.606640
O O14 0.087430 0.907900 0.239152
O O15 0.021688 0.839204 0.324118
O O16 0.970645 0.278040 0.000000
#
# Coordination Sequence:
#
# PCOD8317607 Si02
#       7
#    16  16  16  16  16  16  16
#     4  11  23  44  68  98 138 182 224 291 341 408
#     4  11  24  44  67  96 134 176 226 281 340 406
#     4  11  25  44  69 101 139 181 230 287 348 419
#     4  11  24  42  66  97 131 175 221 280 341 399
#     4  11  25  42  65  96 131 178 224 275 342 412
#     4  10  23  42  67  96 132 176 224 281 344 408
#     4  12  25  43  69 102 135 182 232 285 344 418
#
# _framework density 20.479071999999999
#
# number of rings (size 3 to 8) (size 9 to 14) (size 15 to 20)
#    0.000    1.000    2.857    3.857    4.000    5.714 
#    0.000    1.429    0.000    0.000    0.000    0.000 
#    0.000    0.000    0.000    0.000    0.000    0.000 
#
# Total GULP energy -1389585.035001 kJ/mol
# GULP energy per Si atom -12407.009241 kJ/mol
# Density = 2.043246 g / cm^3
# Si number density = 20.479072 Si / 1000 Ang^3
#
#
#
# Elastic Constant Matrix: (Units=GPa)
#
#
# Indices 1 2 3 4 5 6 
#
# 1 90.4354 15.8946 37.1927 0.0000 0.0000 0.0000
# 2 15.8946 90.4355 37.1916 0.0000 0.0000 0.0000
# 3 37.1927 37.1916 112.7358 0.0000 0.0000 0.0000
# 4 0.0000 0.0000 0.0000 25.8781 0.0000 0.0000
# 5 0.0000 0.0000 0.0000 0.0000 25.8775 0.0000
# 6 0.0000 0.0000 0.0000 0.0000 0.0000 35.7510
#
#
#
# Elastic Compliance Matrix: (Units=1/GPa)
#
#
# Indices 1 2 3 4 5 6 
#
# 1 0.012821 -0.000595 -0.004034 0.000000 0.000000 0.000000
# 2 -0.000595 0.012821 -0.004033 0.000000 0.000000 0.000000
# 3 -0.004034 -0.004033 0.011532 0.000000 0.000000 0.000000
# 4 0.000000 0.000000 0.000000 0.038643 0.000000 0.000000
# 5 0.000000 0.000000 0.000000 0.000000 0.038644 0.000000
# 6 0.000000 0.000000 0.000000 0.000000 0.000000 0.027971
#
#
# Mechanical properties :
#
#
# Convention : Reuss Voigt Hill
#
# Bulk Modulus (GPa) = 50.37719 52.68494 51.53107
# Shear Modulus (GPa) = 30.05330 31.05651 30.55490
#
# Velocity S-wave (km/s) = 3.83497 3.89845 3.86684
# Velocity P-wave (km/s) = 6.65297 6.78572 6.71967
#
# Compressibility (1/GPa) = 0.01985025
#
# Stress axis : x y z
#
# Youngs Moduli (GPa) = 77.99705 77.99789 86.71768
#
# Poissons Ratio (x) = 0.04637 0.34979
# Poissons Ratio (y) = 0.04637 0.34977
# Poissons Ratio (z) = 0.31461 0.31460
#
# Static dielectric constant tensor:
#      x y z
#    x 3.815420 0.000000 0.000000 
#    y 0.000000 3.815420 0.000000 
#    z 0.000000 0.000000 3.752530 
# 
# 
# High freq. dielectric constant tensor:
#      x y z
#    x 1.812910 0.000000 0.000000 
#    y 0.000000 1.812910 0.000000 
#    z 0.000000 0.000000 1.806210 
# 
# From -- ./inp_files/6097.got.cif
#   From: 2010.03.12/outbox.cif.g09.slc.cpg/sg135_4_cif.got.tgz:6097.got - 2010.04.06 18:31:24.
