data_PCOD8317674
_publ_section_title
;
Structure prediction by ZEFSAII (Michael W. Deem and Ramdas Pophale) SiO2 
 PCOD8317674
Probable space group: P 42/M N M
;
_chemical_formula_sum "Si O2"
_cell_formula_units_Z 104
_cell_length_a 26.805030
_cell_length_b 26.805030
_cell_length_c 7.906031
_cell_angle_alpha 90.000000
_cell_angle_beta 90.000000
_cell_angle_gamma 90.000000
_cell_volume 5680.559435
_symmetry_space_group_name_H-M "P 42/M N M"
_symmetry_group_IT_number 136
_symmetry_cell_setting 'tetragonal'
loop_
_space_group_symop_operation_xyz
x,y,z
1/2-y,1/2+x,1/2+z
-x,-y,z
1/2+y,1/2-x,1/2+z
1/2+x,1/2-y,1/2-z
1/2-x,1/2+y,1/2-z
y,x,-z
-y,-x,-z
-x,-y,-z
1/2+y,1/2-x,1/2-z
x,y,-z
1/2-y,1/2+x,1/2-z
1/2-x,1/2+y,1/2+z
1/2+x,1/2-y,1/2+z
-y,-x,z
y,x,z
loop_
_atom_site_type_symbol
_atom_site_label
_atom_site_fract_x
_atom_site_fract_y
_atom_site_fract_z
Si Si1 0.582183 0.499219 0.000000
Si Si2 0.209137 0.638222 0.798560
Si Si3 0.363446 0.636554 0.693234
Si Si4 0.966615 0.748535 0.306876
Si Si5 0.851663 0.978430 0.809090
Si Si6 0.352663 0.994985 0.804911
Si Si7 0.105897 0.597394 0.799653
Si Si8 0.287405 0.712596 0.810238
O O1 0.614662 0.506333 0.829434
O O2 0.543508 0.543508 0.000000
O O3 0.553989 0.446012 0.000000
O O4 0.236821 0.588414 0.730383
O O5 0.151085 0.634750 0.743345
O O6 0.237475 0.687932 0.723860
O O7 0.213537 0.638955 0.000000
O O8 0.350343 0.649658 0.500000
O O9 0.352918 0.579554 0.735183
O O10 0.329830 0.670171 0.814709
O O11 0.962544 0.765477 0.500000
O O12 0.993515 0.793364 0.205402
O O13 0.999985 0.698994 0.295177
O O14 0.871144 0.990060 0.000000
O O15 0.387776 0.042996 0.781870
O O16 0.380494 0.946066 0.732970
O O17 0.339853 0.987078 0.000000
O O18 0.106797 0.590170 0.000000
O O19 0.272763 0.727238 0.000000
#
# Coordination Sequence:
#
# PCOD8317674 Si02
#       8
#     8  16   8  16  16  16  16   8
#     4  11  24  38  54  76 108 150 188 225 282 336
#     4   8  15  26  44  70  98 128 161 203 253 315
#     4  10  20  28  42  73 110 139 167 213 264 319
#     4  10  18  31  52  77 105 132 167 216 267 321
#     4  11  21  34  53  78 107 141 184 227 271 329
#     4  10  20  33  51  74 102 136 175 222 270 323
#     4   9  19  35  49  68 102 137 174 221 269 321
#     4  10  16  24  46  72  99 133 167 199 251 328
#
# _framework density 18.308057000000002
#
# number of rings (size 3 to 8) (size 9 to 14) (size 15 to 20)
#    0.000    2.231    3.077    1.846    1.077    1.846 
#    0.000    2.308    0.000    0.000    2.000    0.000 
#    0.000    0.000    0.000    0.000    0.000    0.000 
#
# Total GULP energy -1288953.868258 kJ/mol
# GULP energy per Si atom -12393.787195 kJ/mol
# Density = 1.826639 g / cm^3
# Si number density = 18.308057 Si / 1000 Ang^3
#
#
#
# Elastic Constant Matrix: (Units=GPa)
#
#
# Indices 1 2 3 4 5 6 
#
# 1 101.5982 59.5377 19.8277 0.0000 0.0000 0.0000
# 2 59.5377 101.6001 19.8277 0.0000 0.0000 0.0000
# 3 19.8277 19.8277 57.8686 0.0000 0.0000 0.0000
# 4 0.0000 0.0000 0.0000 18.6378 0.0000 0.0000
# 5 0.0000 0.0000 0.0000 0.0000 18.6377 0.0000
# 6 0.0000 0.0000 0.0000 0.0000 0.0000 26.9717
#
#
#
# Elastic Compliance Matrix: (Units=1/GPa)
#
#
# Indices 1 2 3 4 5 6 
#
# 1 0.015276 -0.008499 -0.002322 0.000000 0.000000 0.000000
# 2 -0.008499 0.015276 -0.002322 0.000000 0.000000 0.000000
# 3 -0.002322 -0.002322 0.018872 0.000000 0.000000 0.000000
# 4 0.000000 0.000000 0.000000 0.053654 0.000000 0.000000
# 5 0.000000 0.000000 0.000000 0.000000 0.053655 0.000000
# 6 0.000000 0.000000 0.000000 0.000000 0.000000 0.037076
#
#
# Mechanical properties :
#
#
# Convention : Reuss Voigt Hill
#
# Bulk Modulus (GPa) = 43.21904 51.05036 47.13470
# Shear Modulus (GPa) = 21.94835 23.64102 22.79469
#
# Velocity S-wave (km/s) = 3.46618 3.59735 3.53237
# Velocity P-wave (km/s) = 6.29897 6.72304 6.51445
#
# Compressibility (1/GPa) = 0.02313795
#
# Stress axis : x y z
#
# Youngs Moduli (GPa) = 65.46115 65.46246 52.98909
#
# Poissons Ratio (x) = 0.55635 0.12305
# Poissons Ratio (y) = 0.55633 0.12305
# Poissons Ratio (z) = 0.15201 0.15201
#
# Static dielectric constant tensor:
#      x y z
#    x 3.388450 0.000000 0.000000 
#    y 0.000000 3.388450 0.000000 
#    z 0.000000 0.000000 3.212670 
# 
# 
# High freq. dielectric constant tensor:
#      x y z
#    x 1.688400 0.000000 0.000000 
#    y 0.000000 1.688400 0.000000 
#    z 0.000000 0.000000 1.702810 
# 
# From -- ./inp_files/2257.got.cif
#   From: 2010.03.12/outbox.cif.g09.slc.cpg/sg136_2_cif.got.tgz:2257.got - 2010.04.06 18:39:43.
