data_PCOD8317135
_publ_section_title
;
Structure prediction by ZEFSAII (Michael W. Deem and Ramdas Pophale) SiO2 
 PCOD8317135
Probable space group: P 42/N N M
;
_chemical_formula_sum "Si O2"
_cell_formula_units_Z 112
_cell_length_a 16.058028
_cell_length_b 16.058028
_cell_length_c 23.741707
_cell_angle_alpha 90.000000
_cell_angle_beta 90.000000
_cell_angle_gamma 90.000000
_cell_volume 6122.042817
_symmetry_space_group_name_H-M "P 42/N N M"
_symmetry_group_IT_number 134
_space_group.IT_coordinate_system_code '2'
_symmetry_cell_setting 'tetragonal'
loop_
_space_group_symop_operation_xyz
x,y,z
1/2-y,x,1/2+z
1/2-x,1/2-y,z
y,1/2-x,1/2+z
x,1/2-y,1/2-z
1/2-x,y,1/2-z
y,x,-z
1/2-y,1/2-x,-z
-x,-y,-z
1/2+y,-x,1/2-z
1/2+x,1/2+y,-z
-y,1/2+x,1/2-z
-x,1/2+y,1/2+z
1/2+x,-y,1/2+z
-y,-x,z
1/2+y,1/2+x,z
loop_
_atom_site_type_symbol
_atom_site_label
_atom_site_fract_x
_atom_site_fract_y
_atom_site_fract_z
Si Si1 0.806316 0.679872 0.935432
Si Si2 0.237181 0.442532 0.149190
Si Si3 0.872428 0.826512 0.791812
Si Si4 0.748253 0.386117 0.465566
Si Si5 0.030797 0.222281 0.380633
Si Si6 0.748986 0.113148 0.905807
Si Si7 0.419730 0.446220 0.697233
O O1 0.750000 0.750000 0.903718
O O2 0.766885 0.593427 0.914444
O O3 0.903112 0.681998 0.922300
O O4 0.801466 0.698535 0.000000
O O5 0.297815 0.388116 0.188933
O O6 0.260862 0.539156 0.139942
O O7 0.146825 0.434455 0.176062
O O8 0.842272 0.750000 0.750000
O O9 0.922444 0.794118 0.845863
O O10 0.939997 0.882922 0.759784
O O11 0.661389 0.338612 0.455489
O O12 0.824648 0.324648 0.456119
O O13 0.758687 0.457083 0.418579
O O14 0.749881 0.420640 0.529699
O O15 0.001821 0.147306 0.339836
O O16 0.825890 0.174111 0.895781
O O17 0.662579 0.162579 0.894785
O O18 0.506891 0.493109 0.697685
#
# Coordination Sequence:
#
# PCOD8317135 Si02
#       7
#    16  16  16  16  16  16  16
#     4  10  19  30  48  77 109 134 164 204 251 311
#     4  11  20  34  57  77 103 141 181 212 266 329
#     4  10  22  37  54  75 104 141 177 222 274 327
#     4   9  18  34  56  80 108 143 180 216 260 316
#     4  10  19  34  55  76 104 140 176 212 267 319
#     4   9  19  36  56  80 111 144 179 221 264 310
#     4  10  22  35  52  76 101 130 177 231 269 307
#
# _framework density 18.294547000000001
#
# number of rings (size 3 to 8) (size 9 to 14) (size 15 to 20)
#    0.000    2.143    1.429    3.000    0.000    4.000 
#    0.000    0.000    0.000    8.571    0.000    9.000 
#    0.000    0.000    0.000    0.000    0.000    0.000 
#
# Total GULP energy -1387628.702129 kJ/mol
# GULP energy per Si atom -12389.541983 kJ/mol
# Density = 1.825291 g / cm^3
# Si number density = 18.294547 Si / 1000 Ang^3
#
#
#
# Elastic Constant Matrix: (Units=GPa)
#
#
# Indices 1 2 3 4 5 6 
#
# 1 87.1740 43.7849 36.4661 0.0000 0.0000 0.0000
# 2 43.7849 87.1752 36.4677 0.0000 0.0000 0.0000
# 3 36.4661 36.4677 71.4265 0.0000 0.0000 0.0000
# 4 0.0000 0.0000 0.0000 20.2699 0.0000 0.0000
# 5 0.0000 0.0000 0.0000 0.0000 20.2701 0.0000
# 6 0.0000 0.0000 0.0000 0.0000 0.0000 29.2420
#
#
#
# Elastic Compliance Matrix: (Units=1/GPa)
#
#
# Indices 1 2 3 4 5 6 
#
# 1 0.016858 -0.006189 -0.005447 0.000000 0.000000 0.000000
# 2 -0.006189 0.016858 -0.005448 0.000000 0.000000 0.000000
# 3 -0.005447 -0.005448 0.019563 0.000000 0.000000 0.000000
# 4 0.000000 0.000000 0.000000 0.049334 0.000000 0.000000
# 5 0.000000 0.000000 0.000000 0.000000 0.049334 0.000000
# 6 0.000000 0.000000 0.000000 0.000000 0.000000 0.034197
#
#
# Mechanical properties :
#
#
# Convention : Reuss Voigt Hill
#
# Bulk Modulus (GPa) = 52.32180 53.24588 52.78384
# Shear Modulus (GPa) = 22.05727 22.56021 22.30874
#
# Velocity S-wave (km/s) = 3.47605 3.51546 3.49581
# Velocity P-wave (km/s) = 6.69121 6.75617 6.72377
#
# Compressibility (1/GPa) = 0.01911249
#
# Stress axis : x y z
#
# Youngs Moduli (GPa) = 59.31803 59.31766 51.11745
#
# Poissons Ratio (x) = 0.36709 0.27844
# Poissons Ratio (y) = 0.36710 0.27847
# Poissons Ratio (z) = 0.32311 0.32315
#
# Static dielectric constant tensor:
#      x y z
#    x 3.320510 0.000000 0.000000 
#    y 0.000000 3.320500 0.000000 
#    z 0.000000 0.000000 3.542990 
# 
# 
# High freq. dielectric constant tensor:
#      x y z
#    x 1.702210 0.000000 0.000000 
#    y 0.000000 1.702210 0.000000 
#    z 0.000000 0.000000 1.713360 
# 
# From -- ./inp_files/10827.got.cif
#   From: 2010.03.12/outbox.cif.g09.slc.cpg/sg134_6_cif.got.tgz:10827.got - 2010.04.06 18:17:22.
