data_PCOD8317765
_publ_section_title
;
Structure prediction by ZEFSAII (Michael W. Deem and Ramdas Pophale) SiO2 
 PCOD8317765
Probable space group: P 42/M N M
;
_chemical_formula_sum "Si O2"
_cell_formula_units_Z 112
_cell_length_a 13.675706
_cell_length_b 13.675706
_cell_length_c 34.823807
_cell_angle_alpha 90.000000
_cell_angle_beta 90.000000
_cell_angle_gamma 90.000000
_cell_volume 6512.920227
_symmetry_space_group_name_H-M "P 42/M N M"
_symmetry_group_IT_number 136
_symmetry_cell_setting 'tetragonal'
loop_
_space_group_symop_operation_xyz
x,y,z
1/2-y,1/2+x,1/2+z
-x,-y,z
1/2+y,1/2-x,1/2+z
1/2+x,1/2-y,1/2-z
1/2-x,1/2+y,1/2-z
y,x,-z
-y,-x,-z
-x,-y,-z
1/2+y,1/2-x,1/2-z
x,y,-z
1/2-y,1/2+x,1/2-z
1/2-x,1/2+y,1/2+z
1/2+x,1/2-y,1/2+z
-y,-x,z
y,x,z
loop_
_atom_site_type_symbol
_atom_site_label
_atom_site_fract_x
_atom_site_fract_y
_atom_site_fract_z
Si Si1 0.085828 0.248318 0.664815
Si Si2 0.377247 0.220287 0.281355
Si Si3 0.277935 0.883225 0.955675
Si Si4 0.964525 0.706412 0.160373
Si Si5 0.883128 0.277584 0.306043
Si Si6 0.151866 0.001381 0.098933
Si Si7 0.088358 0.577041 0.106492
O O1 0.152872 0.152872 0.654392
O O2 0.140557 0.314749 0.695831
O O3 0.049080 0.309938 0.627536
O O4 0.982303 0.218768 0.683856
O O5 0.325725 0.325725 0.283051
O O6 0.485754 0.231877 0.298886
O O7 0.387586 0.184882 0.237646
O O8 0.217409 0.782592 0.950355
O O9 0.383492 0.876929 0.935096
O O10 0.224161 0.974626 0.935786
O O11 0.294410 0.907805 0.000000
O O12 0.872643 0.634964 0.167029
O O13 0.940586 0.802569 0.135556
O O14 0.047874 0.661307 0.133536
O O15 0.792465 0.207536 0.313138
O O16 0.074848 0.074848 0.079828
O O17 0.097186 0.902815 0.113902
O O18 0.000000 0.500000 0.101815
#
# Coordination Sequence:
#
# PCOD8317765 Si02
#       7
#    16  16  16  16  16  16  16
#     4  10  20  35  51  70  97 132 165 206 253 303
#     4   9  19  32  49  70  95 126 165 208 260 307
#     4   9  18  31  48  73 104 133 156 187 234 289
#     4  10  18  31  48  68  96 124 161 210 250 291
#     4  11  21  32  47  70  95 129 169 212 255 297
#     4   9  17  29  47  70  97 132 165 190 227 287
#     4  10  18  32  52  74  95 121 163 203 248 290
#
# _framework density 17.196586
#
# number of rings (size 3 to 8) (size 9 to 14) (size 15 to 20)
#    0.000    2.286    1.429    2.143    0.000    4.286 
#    0.000    3.571    0.000    1.714    0.000    0.000 
#    0.000    0.571    0.000    3.000    0.000    0.000 
#
# Total GULP energy -1387531.290103 kJ/mol
# GULP energy per Si atom -12388.672233 kJ/mol
# Density = 1.715745 g / cm^3
# Si number density = 17.196586 Si / 1000 Ang^3
#
#
#
# Elastic Constant Matrix: (Units=GPa)
#
#
# Indices 1 2 3 4 5 6 
#
# 1 62.0870 16.6433 37.9406 0.0000 0.0000 0.0000
# 2 16.6433 62.0870 37.9406 0.0000 0.0000 0.0000
# 3 37.9406 37.9406 104.0002 0.0000 0.0000 0.0000
# 4 0.0000 0.0000 0.0000 18.8970 0.0000 0.0000
# 5 0.0000 0.0000 0.0000 0.0000 18.8970 0.0000
# 6 0.0000 0.0000 0.0000 0.0000 0.0000 24.9688
#
#
#
# Elastic Compliance Matrix: (Units=1/GPa)
#
#
# Indices 1 2 3 4 5 6 
#
# 1 0.020797 -0.001208 -0.007146 0.000000 0.000000 0.000000
# 2 -0.001208 0.020797 -0.007146 0.000000 0.000000 0.000000
# 3 -0.007146 -0.007146 0.014830 0.000000 0.000000 0.000000
# 4 0.000000 0.000000 0.000000 0.052918 0.000000 0.000000
# 5 0.000000 0.000000 0.000000 0.000000 0.052918 0.000000
# 6 0.000000 0.000000 0.000000 0.000000 0.000000 0.040050
#
#
# Mechanical properties :
#
#
# Convention : Reuss Voigt Hill
#
# Bulk Modulus (GPa) = 39.33512 45.91371 42.62442
# Shear Modulus (GPa) = 20.67936 21.59589 21.13762
#
# Velocity S-wave (km/s) = 3.47151 3.54761 3.50976
# Velocity P-wave (km/s) = 6.24435 6.59833 6.42378
#
# Compressibility (1/GPa) = 0.02542258
#
# Stress axis : x y z
#
# Youngs Moduli (GPa) = 48.08309 48.08309 67.43266
#
# Poissons Ratio (x) = 0.05808 0.48191
# Poissons Ratio (y) = 0.05808 0.48191
# Poissons Ratio (z) = 0.34362 0.34362
#
# Static dielectric constant tensor:
#      x y z
#    x 3.113080 0.000000 0.000000 
#    y 0.000000 3.113080 0.000000 
#    z 0.000000 0.000000 3.189250 
# 
# 
# High freq. dielectric constant tensor:
#      x y z
#    x 1.652810 0.000000 0.000000 
#    y 0.000000 1.652810 0.000000 
#    z 0.000000 0.000000 1.652470 
# 
# From -- ./inp_files/9945.got.cif
#   From: 2010.03.12/outbox.cif.g09.slc.cpg/sg136_5_cif.got.tgz:9945.got - 2010.04.06 18:39:43.
