data_PCOD8317542
_publ_section_title
;
Structure prediction by ZEFSAII (Michael W. Deem and Ramdas Pophale) SiO2 
 PCOD8317542
Probable space group: P 42/M B C
;
_chemical_formula_sum "Si O2"
_cell_formula_units_Z 64
_cell_length_a 19.788981
_cell_length_b 19.788981
_cell_length_c 8.765648
_cell_angle_alpha 90.000000
_cell_angle_beta 90.000000
_cell_angle_gamma 90.000000
_cell_volume 3432.660795
_symmetry_space_group_name_H-M "P 42/M B C"
_symmetry_group_IT_number 135
_symmetry_cell_setting 'tetragonal'
loop_
_space_group_symop_operation_xyz
x,y,z
-y,x,1/2+z
-x,-y,z
y,-x,1/2+z
1/2+x,1/2-y,-z
1/2-x,1/2+y,-z
1/2+y,1/2+x,1/2-z
1/2-y,1/2-x,1/2-z
-x,-y,-z
y,-x,1/2-z
x,y,-z
-y,x,1/2-z
1/2-x,1/2+y,z
1/2+x,1/2-y,z
1/2-y,1/2-x,1/2+z
1/2+y,1/2+x,1/2+z
loop_
_atom_site_type_symbol
_atom_site_label
_atom_site_fract_x
_atom_site_fract_y
_atom_site_fract_z
Si Si1 0.923764 0.181225 0.676363
Si Si2 0.070092 0.327458 0.322934
Si Si3 0.677078 0.926701 0.679741
Si Si4 0.671164 0.576590 0.826404
O O1 0.918545 0.202858 0.500000
O O2 0.907288 0.246451 0.777267
O O3 0.871130 0.122383 0.711781
O O4 0.998862 0.154125 0.711781
O O5 0.128668 0.371333 0.250000
O O6 0.062294 0.344819 0.500000
O O7 0.090572 0.249895 0.297569
O O8 0.999491 0.344305 0.243223
O O9 0.628990 0.871011 0.750000
O O10 0.668937 0.927056 0.500000
O O11 0.651115 0.594113 0.000000
#
# Coordination Sequence:
#
# PCOD8317542 Si02
#       4
#    16  16  16  16
#     4  10  21  37  57  82 112 145 184 228 273 325
#     4  10  21  38  58  83 113 145 184 227 273 325
#     4  11  22  38  59  82 111 145 182 226 275 326
#     4   9  20  37  55  79 112 147 184 227 272 322
#
# _framework density 18.644428999999999
#
# number of rings (size 3 to 8) (size 9 to 14) (size 15 to 20)
#    0.000    2.000    0.000    5.250    0.000    8.000 
#    0.000    7.500    0.000    0.000    0.000    0.000 
#    0.000    0.000    0.000    0.000    0.000    0.000 
#
# Total GULP energy -793888.715382 kJ/mol
# GULP energy per Si atom -12404.511178 kJ/mol
# Density = 1.860199 g / cm^3
# Si number density = 18.644429 Si / 1000 Ang^3
#
#
#
# Elastic Constant Matrix: (Units=GPa)
#
#
# Indices 1 2 3 4 5 6 
#
# 1 92.3491 70.6438 55.1730 0.0000 0.0000 0.0000
# 2 70.6438 92.3683 55.1786 0.0000 0.0000 0.0000
# 3 55.1730 55.1786 134.6217 0.0000 0.0000 0.0000
# 4 0.0000 0.0000 0.0000 35.0150 0.0000 0.0000
# 5 0.0000 0.0000 0.0000 0.0000 35.0142 0.0000
# 6 0.0000 0.0000 0.0000 0.0000 0.0000 42.8032
#
#
#
# Elastic Compliance Matrix: (Units=1/GPa)
#
#
# Indices 1 2 3 4 5 6 
#
# 1 0.027274 -0.018780 -0.003480 0.000000 0.000000 0.000000
# 2 -0.018780 0.027268 -0.003480 0.000000 0.000000 0.000000
# 3 -0.003480 -0.003480 0.010281 0.000000 0.000000 0.000000
# 4 0.000000 0.000000 0.000000 0.028559 0.000000 0.000000
# 5 0.000000 0.000000 0.000000 0.000000 0.028560 0.000000
# 6 0.000000 0.000000 0.000000 0.000000 0.000000 0.023363
#
#
# Mechanical properties :
#
#
# Convention : Reuss Voigt Hill
#
# Bulk Modulus (GPa) = 74.94912 75.70334 75.32623
# Shear Modulus (GPa) = 24.84682 31.78940 28.31811
#
# Velocity S-wave (km/s) = 3.65453 4.13369 3.90147
# Velocity P-wave (km/s) = 7.62194 7.96712 7.79644
#
# Compressibility (1/GPa) = 0.01334238
#
# Stress axis : x y z
#
# Youngs Moduli (GPa) = 36.66502 36.67268 97.26809
#
# Poissons Ratio (x) = 0.68872 0.33852
# Poissons Ratio (y) = 0.68858 0.33848
# Poissons Ratio (z) = 0.12760 0.12761
#
# Static dielectric constant tensor:
#      x y z
#    x 3.431430 0.000000 0.000000 
#    y 0.000000 3.431400 0.000000 
#    z 0.000000 0.000000 3.508010 
# 
# 
# High freq. dielectric constant tensor:
#      x y z
#    x 1.725820 0.000000 0.000000 
#    y 0.000000 1.725820 0.000000 
#    z 0.000000 0.000000 1.737920 
# 
# From -- ./inp_files/941.got.cif
#   From: 2010.03.12/outbox.cif.g09.slc.cpg/sg135_1_cif.got.tgz:941.got - 2010.04.06 18:31:24.
