data_PCOD8317052
_publ_section_title
;
Structure prediction by ZEFSAII (Michael W. Deem and Ramdas Pophale) SiO2 
 PCOD8317052
Probable space group: P 42/N B C
;
_chemical_formula_sum "Si O2"
_cell_formula_units_Z 64
_cell_length_a 13.821114
_cell_length_b 13.821114
_cell_length_c 14.784183
_cell_angle_alpha 90.000000
_cell_angle_beta 90.000000
_cell_angle_gamma 90.000000
_cell_volume 2824.121831
_symmetry_space_group_name_H-M "P 42/N B C"
_symmetry_group_IT_number 133
_space_group.IT_coordinate_system_code '2'
_symmetry_cell_setting 'tetragonal'
loop_
_space_group_symop_operation_xyz
x,y,z
1/2-y,x,1/2+z
1/2-x,1/2-y,z
y,1/2-x,1/2+z
x,1/2-y,-z
1/2-x,y,-z
y,x,1/2-z
1/2-y,1/2-x,1/2-z
-x,-y,-z
1/2+y,-x,1/2-z
1/2+x,1/2+y,-z
-y,1/2+x,1/2-z
-x,1/2+y,z
1/2+x,-y,z
-y,-x,1/2+z
1/2+y,1/2+x,1/2+z
loop_
_atom_site_type_symbol
_atom_site_label
_atom_site_fract_x
_atom_site_fract_y
_atom_site_fract_z
Si Si1 0.493972 0.105793 0.877059
Si Si2 0.350816 0.221079 0.152771
Si Si3 0.653691 0.363867 0.263076
Si Si4 0.017139 0.611215 0.925237
O O1 0.413380 0.179625 0.839826
O O2 0.572304 0.087804 0.799005
O O3 0.452963 0.999769 0.903751
O O4 0.540624 0.143075 0.971788
O O5 0.250000 0.250000 0.104259
O O6 0.325357 0.174644 0.250000
O O7 0.404685 0.138737 0.093928
O O8 0.754363 0.371242 0.209139
O O9 0.675136 0.420719 0.355903
#
# Coordination Sequence:
#
# PCOD8317052 Si02
#       4
#    16  16  16  16
#     4  11  25  44  68 103 142 190 237 297 367 438
#     4  11  25  43  71 106 142 194 241 301 366 442
#     4  11  24  41  69  98 132 185 237 299 361 425
#     4  11  25  44  70 101 144 185 239 300 361 442
#
# _framework density 22.661912999999998
#
# number of rings (size 3 to 8) (size 9 to 14) (size 15 to 20)
#    0.000    1.000    2.500    3.000    7.000    3.000 
#    0.000    7.500    0.000    0.000    0.000    0.000 
#    0.000    0.000    0.000    0.000    0.000    0.000 
#
# Total GULP energy -793239.078111 kJ/mol
# GULP energy per Si atom -12394.360595 kJ/mol
# Density = 2.261033 g / cm^3
# Si number density = 22.661913 Si / 1000 Ang^3
#
#
#
# Elastic Constant Matrix: (Units=GPa)
#
#
# Indices 1 2 3 4 5 6 
#
# 1 83.7568 32.8790 29.6047 0.0000 0.0000 0.0000
# 2 32.8790 83.7572 29.6047 0.0000 0.0000 0.0000
# 3 29.6047 29.6047 135.4099 0.0000 0.0000 0.0000
# 4 0.0000 0.0000 0.0000 18.4108 0.0000 0.0000
# 5 0.0000 0.0000 0.0000 0.0000 18.4110 0.0000
# 6 0.0000 0.0000 0.0000 0.0000 0.0000 39.4557
#
#
#
# Elastic Compliance Matrix: (Units=1/GPa)
#
#
# Indices 1 2 3 4 5 6 
#
# 1 0.014649 -0.005005 -0.002108 0.000000 0.000000 0.000000
# 2 -0.005005 0.014649 -0.002108 0.000000 0.000000 0.000000
# 3 -0.002108 -0.002108 0.008307 0.000000 0.000000 0.000000
# 4 0.000000 0.000000 0.000000 0.054316 0.000000 0.000000
# 5 0.000000 0.000000 0.000000 0.000000 0.054315 0.000000
# 6 0.000000 0.000000 0.000000 0.000000 0.000000 0.025345
#
#
# Mechanical properties :
#
#
# Convention : Reuss Voigt Hill
#
# Bulk Modulus (GPa) = 52.18905 54.12227 53.15566
# Shear Modulus (GPa) = 25.45649 29.31122 27.38386
#
# Velocity S-wave (km/s) = 3.35523 3.60031 3.47993
# Velocity P-wave (km/s) = 6.17167 6.42007 6.29709
#
# Compressibility (1/GPa) = 0.01916111
#
# Stress axis : x y z
#
# Youngs Moduli (GPa) = 68.26183 68.26215 120.38128
#
# Poissons Ratio (x) = 0.34168 0.25382
# Poissons Ratio (y) = 0.34168 0.25382
# Poissons Ratio (z) = 0.14393 0.14393
#
# Static dielectric constant tensor:
#      x y z
#    x 4.204090 0.000000 0.000000 
#    y 0.000000 4.204090 0.000000 
#    z 0.000000 0.000000 4.267370 
# 
# 
# High freq. dielectric constant tensor:
#      x y z
#    x 1.896270 0.000000 0.000000 
#    y 0.000000 1.896270 0.000000 
#    z 0.000000 0.000000 1.893360 
# 
# From -- ./inp_files/4161.got.cif
#   From: 2010.03.12/outbox.cif.g09.slc.cpg/sg133_3_cif.got.tgz:4161.got - 2010.04.06 18:08:06.
