data_PCOD8317727
_publ_section_title
;
Structure prediction by ZEFSAII (Michael W. Deem and Ramdas Pophale) SiO2 
 PCOD8317727
Probable space group: P 42/M N M
;
_chemical_formula_sum "Si O2"
_cell_formula_units_Z 96
_cell_length_a 24.563997
_cell_length_b 24.563997
_cell_length_c 9.546438
_cell_angle_alpha 90.000000
_cell_angle_beta 90.000000
_cell_angle_gamma 90.000000
_cell_volume 5760.224734
_symmetry_space_group_name_H-M "P 42/M N M"
_symmetry_group_IT_number 136
_symmetry_cell_setting 'tetragonal'
loop_
_space_group_symop_operation_xyz
x,y,z
1/2-y,1/2+x,1/2+z
-x,-y,z
1/2+y,1/2-x,1/2+z
1/2+x,1/2-y,1/2-z
1/2-x,1/2+y,1/2-z
y,x,-z
-y,-x,-z
-x,-y,-z
1/2+y,1/2-x,1/2-z
x,y,-z
1/2-y,1/2+x,1/2-z
1/2-x,1/2+y,1/2+z
1/2+x,1/2-y,1/2+z
-y,-x,z
y,x,z
loop_
_atom_site_type_symbol
_atom_site_label
_atom_site_fract_x
_atom_site_fract_y
_atom_site_fract_z
Si Si1 0.698167 0.698167 0.335529
Si Si2 0.780121 0.526516 0.658261
Si Si3 0.177067 0.984502 0.658065
Si Si4 0.191302 0.103309 0.660614
Si Si5 0.379766 0.379766 0.838481
Si Si6 0.852976 0.315305 0.839055
Si Si7 0.298115 0.093608 0.164566
O O1 0.688924 0.688924 0.500000
O O2 0.658175 0.658175 0.254928
O O3 0.760603 0.681200 0.295782
O O4 0.759109 0.522268 0.500000
O O5 0.727865 0.532327 0.751548
O O6 0.813232 0.581858 0.680986
O O7 0.813287 0.470394 0.693329
O O8 0.196628 0.975778 0.500000
O O9 0.128517 0.943418 0.696251
O O10 0.158624 0.046692 0.681879
O O11 0.212520 0.108612 0.500000
O O12 0.151582 0.151582 0.700194
O O13 0.239643 0.106372 0.770224
O O14 0.366162 0.366162 0.000000
O O15 0.839601 0.366197 0.740532
O O16 0.838485 0.328710 0.000000
O O17 0.297622 0.106792 0.000000
#
# Coordination Sequence:
#
# PCOD8317727 Si02
#       7
#     8  16  16  16   8  16  16
#     4  10  20  32  50  73  99 133 168 195 235 292
#     4   9  18  34  53  71  95 128 166 200 235 288
#     4   9  17  29  46  69  95 126 164 205 248 290
#     4   9  18  33  50  66  92 133 174 204 237 290
#     4  10  18  28  45  72 102 126 156 206 257 291
#     4  10  20  34  52  75 102 132 164 198 238 291
#     4  10  21  34  51  77 102 126 159 203 249 288
#
# _framework density 16.666015999999999
#
# number of rings (size 3 to 8) (size 9 to 14) (size 15 to 20)
#    0.000    2.500    1.667    0.500    1.167    2.333 
#    0.000    0.417    0.000    3.000    0.000    3.500 
#    0.000    6.000    0.000    0.000    0.000    0.000 
#
# Total GULP energy -1189477.923560 kJ/mol
# GULP energy per Si atom -12390.395037 kJ/mol
# Density = 1.662808 g / cm^3
# Si number density = 16.666016 Si / 1000 Ang^3
#
#
#
# Elastic Constant Matrix: (Units=GPa)
#
#
# Indices 1 2 3 4 5 6 
#
# 1 87.2594 56.3446 44.6574 0.0000 0.0000 0.0000
# 2 56.3446 87.2594 44.6574 0.0000 0.0000 0.0000
# 3 44.6574 44.6574 66.4278 0.0000 0.0000 0.0000
# 4 0.0000 0.0000 0.0000 21.7516 0.0000 0.0000
# 5 0.0000 0.0000 0.0000 0.0000 21.7516 0.0000
# 6 0.0000 0.0000 0.0000 0.0000 0.0000 17.9506
#
#
#
# Elastic Compliance Matrix: (Units=1/GPa)
#
#
# Indices 1 2 3 4 5 6 
#
# 1 0.022157 -0.010190 -0.008045 0.000000 0.000000 0.000000
# 2 -0.010190 0.022157 -0.008045 0.000000 0.000000 0.000000
# 3 -0.008045 -0.008045 0.025871 0.000000 0.000000 0.000000
# 4 0.000000 0.000000 0.000000 0.045974 0.000000 0.000000
# 5 0.000000 0.000000 0.000000 0.000000 0.045974 0.000000
# 6 0.000000 0.000000 0.000000 0.000000 0.000000 0.055709
#
#
# Mechanical properties :
#
#
# Convention : Reuss Voigt Hill
#
# Bulk Modulus (GPa) = 56.73852 59.14059 57.93956
# Shear Modulus (GPa) = 18.09777 18.64322 18.37049
#
# Velocity S-wave (km/s) = 3.29889 3.34823 3.32365
# Velocity P-wave (km/s) = 6.97342 7.10706 7.04056
#
# Compressibility (1/GPa) = 0.01762471
#
# Stress axis : x y z
#
# Youngs Moduli (GPa) = 45.13210 45.13210 38.65309
#
# Poissons Ratio (x) = 0.45989 0.31098
# Poissons Ratio (y) = 0.45989 0.31098
# Poissons Ratio (z) = 0.36310 0.36310
#
# Static dielectric constant tensor:
#      x y z
#    x 3.225290 0.000000 0.000000 
#    y 0.000000 3.225290 0.000000 
#    z 0.000000 0.000000 3.234720 
# 
# 
# High freq. dielectric constant tensor:
#      x y z
#    x 1.633060 0.000000 0.000000 
#    y 0.000000 1.633060 0.000000 
#    z 0.000000 0.000000 1.648490 
# 
# From -- ./inp_files/2094.got.cif
#   From: 2010.03.12/outbox.cif.g09.slc.cpg/sg136_2_cif.got.tgz:2094.got - 2010.04.06 18:39:43.
