data_PCOD8317988
_publ_section_title
;
Structure prediction by ZEFSAII (Michael W. Deem and Ramdas Pophale) SiO2 
 PCOD8317988
Probable space group: P 42/M N M
;
_chemical_formula_sum "Si O2"
_cell_formula_units_Z 56
_cell_length_a 19.520637
_cell_length_b 19.520637
_cell_length_c 8.763157
_cell_angle_alpha 90.000000
_cell_angle_beta 90.000000
_cell_angle_gamma 90.000000
_cell_volume 3339.247147
_symmetry_space_group_name_H-M "P 42/M N M"
_symmetry_group_IT_number 136
_symmetry_cell_setting 'tetragonal'
loop_
_space_group_symop_operation_xyz
x,y,z
1/2-y,1/2+x,1/2+z
-x,-y,z
1/2+y,1/2-x,1/2+z
1/2+x,1/2-y,1/2-z
1/2-x,1/2+y,1/2-z
y,x,-z
-y,-x,-z
-x,-y,-z
1/2+y,1/2-x,1/2-z
x,y,-z
1/2-y,1/2+x,1/2-z
1/2-x,1/2+y,1/2+z
1/2+x,1/2-y,1/2+z
-y,-x,z
y,x,z
loop_
_atom_site_type_symbol
_atom_site_label
_atom_site_fract_x
_atom_site_fract_y
_atom_site_fract_z
Si Si1 0.147098 0.256988 0.322908
Si Si2 0.140670 0.749905 0.679545
Si Si3 0.261691 0.504354 0.329886
Si Si4 0.003170 0.889872 0.000000
O O1 0.152859 0.276160 0.500000
O O2 0.183262 0.183262 0.290547
O O3 0.184292 0.314877 0.224906
O O4 0.067831 0.258210 0.275903
O O5 0.130270 0.750971 0.500000
O O6 0.180914 0.819087 0.733121
O O7 0.067019 0.740208 0.755575
O O8 0.227886 0.510556 0.500000
O O9 0.344143 0.504826 0.347735
O O10 0.946752 0.946752 0.000000
O O11 0.078535 0.921466 0.000000
#
# Coordination Sequence:
#
# PCOD8317988 Si02
#       4
#    16  16  16   8
#     4  10  20  34  53  77 106 139 179 227 275 323
#     4  10  20  34  53  77 106 139 179 227 275 323
#     4  10  20  31  52  74 106 139 177 217 268 319
#     4   9  18  30  48  74 106 141 178 216 258 321
#
# _framework density 16.770246
#
# number of rings (size 3 to 8) (size 9 to 14) (size 15 to 20)
#    0.857    1.286    0.000    4.286    0.000    2.286 
#    0.000    0.000    0.000    0.857    0.000   18.000 
#    0.000    0.000    0.000    0.000    0.000    0.000 
#
# Total GULP energy -694022.262782 kJ/mol
# GULP energy per Si atom -12393.254693 kJ/mol
# Density = 1.673208 g / cm^3
# Si number density = 16.770246 Si / 1000 Ang^3
#
#
#
# Elastic Constant Matrix: (Units=GPa)
#
#
# Indices 1 2 3 4 5 6 
#
# 1 86.8951 18.0024 14.9010 0.0000 0.0000 0.0000
# 2 18.0024 86.8960 14.9010 0.0000 0.0000 0.0000
# 3 14.9010 14.9010 55.8192 0.0000 0.0000 0.0000
# 4 0.0000 0.0000 0.0000 32.3414 0.0000 0.0000
# 5 0.0000 0.0000 0.0000 0.0000 32.3415 0.0000
# 6 0.0000 0.0000 0.0000 0.0000 0.0000 16.4135
#
#
#
# Elastic Compliance Matrix: (Units=1/GPa)
#
#
# Indices 1 2 3 4 5 6 
#
# 1 0.012415 -0.002100 -0.002754 0.000000 0.000000 0.000000
# 2 -0.002100 0.012415 -0.002754 0.000000 0.000000 0.000000
# 3 -0.002754 -0.002754 0.019385 0.000000 0.000000 0.000000
# 4 0.000000 0.000000 0.000000 0.030920 0.000000 0.000000
# 5 0.000000 0.000000 0.000000 0.000000 0.030920 0.000000
# 6 0.000000 0.000000 0.000000 0.000000 0.000000 0.060925
#
#
# Mechanical properties :
#
#
# Convention : Reuss Voigt Hill
#
# Bulk Modulus (GPa) = 34.48135 36.13545 35.30840
# Shear Modulus (GPa) = 26.06023 28.33967 27.19995
#
# Velocity S-wave (km/s) = 3.94630 4.11527 4.03167
# Velocity P-wave (km/s) = 6.43196 6.64641 6.54006
#
# Compressibility (1/GPa) = 0.02900119
#
# Stress axis : x y z
#
# Youngs Moduli (GPa) = 80.54519 80.54609 51.58572
#
# Poissons Ratio (x) = 0.16914 0.14205
# Poissons Ratio (y) = 0.16914 0.14205
# Poissons Ratio (z) = 0.22180 0.22180
#
# Static dielectric constant tensor:
#      x y z
#    x 3.029780 0.000000 0.000000 
#    y 0.000000 3.029780 0.000000 
#    z 0.000000 0.000000 3.157180 
# 
# 
# High freq. dielectric constant tensor:
#      x y z
#    x 1.637710 0.000000 0.000000 
#    y 0.000000 1.637710 0.000000 
#    z 0.000000 0.000000 1.650820 
# 
# From -- ./inp_files/1342.got.cif
#   From: 2010.03.12/outbox.cif.g09.slc.cpg/sg136_1_cif.got.tgz:1342.got - 2010.04.06 18:39:43.
