data_PCOD8317425
_publ_section_title
;
Structure prediction by ZEFSAII (Michael W. Deem and Ramdas Pophale) SiO2 
 PCOD8317425
Probable space group: P 42/M B C
;
_chemical_formula_sum "Si O2"
_cell_formula_units_Z 96
_cell_length_a 25.494536
_cell_length_b 25.494536
_cell_length_c 8.556251
_cell_angle_alpha 90.000000
_cell_angle_beta 90.000000
_cell_angle_gamma 90.000000
_cell_volume 5561.318149
_symmetry_space_group_name_H-M "P 42/M B C"
_symmetry_group_IT_number 135
_symmetry_cell_setting 'tetragonal'
loop_
_space_group_symop_operation_xyz
x,y,z
-y,x,1/2+z
-x,-y,z
y,-x,1/2+z
1/2+x,1/2-y,-z
1/2-x,1/2+y,-z
1/2+y,1/2+x,1/2-z
1/2-y,1/2-x,1/2-z
-x,-y,-z
y,-x,1/2-z
x,y,-z
-y,x,1/2-z
1/2-x,1/2+y,z
1/2+x,1/2-y,z
1/2-y,1/2-x,1/2+z
1/2+y,1/2+x,1/2+z
loop_
_atom_site_type_symbol
_atom_site_label
_atom_site_fract_x
_atom_site_fract_y
_atom_site_fract_z
Si Si1 0.807945 0.610098 0.184387
Si Si2 0.498783 0.811991 0.826872
Si Si3 0.111442 0.804732 0.186713
Si Si4 0.891829 0.309969 0.684620
Si Si5 0.306894 0.386833 0.687048
Si Si6 0.187849 0.999454 0.329355
O O1 0.848580 0.651421 0.250000
O O2 0.828846 0.552245 0.228772
O O3 0.752237 0.623667 0.261196
O O4 0.802757 0.615038 0.000000
O O5 0.551306 0.830557 0.739527
O O6 0.499827 0.750074 0.844953
O O7 0.496488 0.837628 0.000000
O O8 0.122744 0.747522 0.253305
O O9 0.157071 0.842673 0.240234
O O10 0.054905 0.827010 0.253469
O O11 0.108742 0.801099 0.000000
O O12 0.848690 0.348690 0.750000
O O13 0.890189 0.309086 0.500000
O O14 0.309494 0.386100 0.500000
O O15 0.327040 0.444109 0.753548
O O16 0.161364 0.999047 0.500000
#
# Coordination Sequence:
#
# PCOD8317425 Si02
#       6
#    16  16  16  16  16  16
#     4  11  21  34  52  76 103 135 170 207 250 300
#     4   9  17  33  53  74  99 130 167 209 248 292
#     4  10  19  33  51  74 101 132 167 209 256 305
#     4  11  21  34  52  76 103 135 170 207 250 300
#     4  10  19  33  51  74 101 132 167 209 256 305
#     4   7  14  29  49  68  93 126 162 201 245 292
#
# _framework density 17.262094000000001
#
# number of rings (size 3 to 8) (size 9 to 14) (size 15 to 20)
#    0.000    2.333    0.000    6.500    0.000    0.667 
#    0.000    5.833    0.000    1.000    0.000    7.000 
#    0.000    0.000    0.000    0.000    0.000    0.000 
#
# Total GULP energy -1189471.687848 kJ/mol
# GULP energy per Si atom -12390.330082 kJ/mol
# Density = 1.722280 g / cm^3
# Si number density = 17.262094 Si / 1000 Ang^3
#
#
#
# Elastic Constant Matrix: (Units=GPa)
#
#
# Indices 1 2 3 4 5 6 
#
# 1 86.4646 43.7878 7.3517 0.0000 0.0000 0.0000
# 2 43.7878 86.4705 7.3563 0.0000 0.0000 0.0000
# 3 7.3517 7.3563 73.6749 0.0000 0.0000 0.0000
# 4 0.0000 0.0000 0.0000 24.1167 0.0000 0.0000
# 5 0.0000 0.0000 0.0000 0.0000 24.1170 0.0000
# 6 0.0000 0.0000 0.0000 0.0000 0.0000 -13.1526
#
#
#
# Elastic Compliance Matrix: (Units=1/GPa)
#
#
# Indices 1 2 3 4 5 6 
#
# 1 0.015598 -0.007833 -0.000774 0.000000 0.000000 0.000000
# 2 -0.007833 0.015597 -0.000776 0.000000 0.000000 0.000000
# 3 -0.000774 -0.000776 0.013728 0.000000 0.000000 0.000000
# 4 0.000000 0.000000 0.000000 0.041465 0.000000 0.000000
# 5 0.000000 0.000000 0.000000 0.000000 0.041465 0.000000
# 6 0.000000 0.000000 0.000000 0.000000 0.000000 -0.076030
#
#
# Mechanical properties :
#
#
# Convention : Reuss Voigt Hill
#
# Bulk Modulus (GPa) = 38.23048 40.40019 39.31533
# Shear Modulus (GPa) = 63.04625 19.55716 41.30171
#
# Velocity S-wave (km/s) = 6.04998 3.36959 4.89675
# Velocity P-wave (km/s) = 8.42604 6.21238 7.40242
#
# Compressibility (1/GPa) = 0.02615714
#
# Stress axis : x y z
#
# Youngs Moduli (GPa) = 64.11093 64.11463 72.84450
#
# Poissons Ratio (x) = 0.50220 0.05641
# Poissons Ratio (y) = 0.50217 0.05651
# Poissons Ratio (z) = 0.04965 0.04974
#
# Static dielectric constant tensor:
#      x y z
#    x 3.363570 0.000000 0.000000 
#    y 0.000000 3.363570 0.000000 
#    z 0.000000 0.000000 3.302820 
# 
# 
# High freq. dielectric constant tensor:
#      x y z
#    x 1.655580 0.000000 0.000000 
#    y 0.000000 1.655580 0.000000 
#    z 0.000000 0.000000 1.670880 
# 
# From -- ./inp_files/1251.got.cif
#   From: 2010.03.12/outbox.cif.g09.slc.cpg/sg135_1_cif.got.tgz:1251.got - 2010.04.06 18:31:24.
