data_PCOD8317383
_publ_section_title
;
Structure prediction by ZEFSAII (Michael W. Deem and Ramdas Pophale) SiO2 
 PCOD8317383
Probable space group: P 42/M B C
;
_chemical_formula_sum "Si O2"
_cell_formula_units_Z 60
_cell_length_a 14.093903
_cell_length_b 14.093903
_cell_length_c 13.601232
_cell_angle_alpha 90.000000
_cell_angle_beta 90.000000
_cell_angle_gamma 90.000000
_cell_volume 2701.722906
_symmetry_space_group_name_H-M "P 42/M B C"
_symmetry_group_IT_number 135
_symmetry_cell_setting 'tetragonal'
loop_
_space_group_symop_operation_xyz
x,y,z
-y,x,1/2+z
-x,-y,z
y,-x,1/2+z
1/2+x,1/2-y,-z
1/2-x,1/2+y,-z
1/2+y,1/2+x,1/2-z
1/2-y,1/2-x,1/2-z
-x,-y,-z
y,-x,1/2-z
x,y,-z
-y,x,1/2-z
1/2-x,1/2+y,z
1/2+x,1/2-y,z
1/2-y,1/2-x,1/2+z
1/2+y,1/2+x,1/2+z
loop_
_atom_site_type_symbol
_atom_site_label
_atom_site_fract_x
_atom_site_fract_y
_atom_site_fract_z
Si Si1 0.217271 0.747939 0.114094
Si Si2 0.151897 0.348104 0.250000
Si Si3 0.376238 0.602158 0.891251
Si Si4 0.281887 0.003176 0.610648
Si Si5 0.000000 0.000000 0.750000
O O1 0.259551 0.837948 0.173635
O O2 0.279490 0.654677 0.140401
O O3 0.111149 0.724576 0.146650
O O4 0.225921 0.774161 0.000000
O O5 0.154133 0.446217 0.310662
O O6 0.462043 0.676690 0.891966
O O7 0.406122 0.519502 0.815882
O O8 0.364475 0.557215 0.000000
O O9 0.326183 0.996728 0.500000
#
# Coordination Sequence:
#
# PCOD8317383 Si02
#       5
#    16   8  16  16   4
#     4   9  19  37  59  88 130 170 204 255 317 370
#     4  10  18  32  64  96 120 156 214 258 300 370
#     4   9  20  36  55  89 129 162 202 252 311 372
#     4   9  19  36  59  89 125 164 206 256 309 371
#     4  12  22  32  60  94 128 148 206 268 312 366
#
# _framework density 22.208048999999999
#
# number of rings (size 3 to 8) (size 9 to 14) (size 15 to 20)
#    0.000    2.667    0.000    2.800    7.467    0.000 
#    0.000    0.000    0.000    7.200    6.933    3.733 
#    0.000    0.000    0.000    0.000    0.000    0.000 
#
# Total GULP energy -743772.888397 kJ/mol
# GULP energy per Si atom -12396.214807 kJ/mol
# Density = 2.215750 g / cm^3
# Si number density = 22.208049 Si / 1000 Ang^3
#
#
#
# Elastic Constant Matrix: (Units=GPa)
#
#
# Indices 1 2 3 4 5 6 
#
# 1 125.2253 30.9102 40.6088 0.0000 0.0000 0.0000
# 2 30.9102 125.2248 40.6089 0.0000 0.0000 0.0000
# 3 40.6088 40.6089 108.0503 0.0000 0.0000 0.0000
# 4 0.0000 0.0000 0.0000 24.5839 0.0000 0.0000
# 5 0.0000 0.0000 0.0000 0.0000 24.5837 0.0000
# 6 0.0000 0.0000 0.0000 0.0000 0.0000 20.1883
#
#
#
# Elastic Compliance Matrix: (Units=1/GPa)
#
#
# Indices 1 2 3 4 5 6 
#
# 1 0.009282 -0.001321 -0.002992 0.000000 0.000000 0.000000
# 2 -0.001321 0.009282 -0.002992 0.000000 0.000000 0.000000
# 3 -0.002992 -0.002992 0.011504 0.000000 0.000000 0.000000
# 4 0.000000 0.000000 0.000000 0.040677 0.000000 0.000000
# 5 0.000000 0.000000 0.000000 0.000000 0.040677 0.000000
# 6 0.000000 0.000000 0.000000 0.000000 0.000000 0.049534
#
#
# Mechanical properties :
#
#
# Convention : Reuss Voigt Hill
#
# Bulk Modulus (GPa) = 64.69147 64.75068 64.72107
# Shear Modulus (GPa) = 27.66736 30.29602 28.98169
#
# Velocity S-wave (km/s) = 3.53346 3.69750 3.61641
# Velocity P-wave (km/s) = 6.77053 6.88828 6.82966
#
# Compressibility (1/GPa) = 0.01545799
#
# Stress axis : x y z
#
# Youngs Moduli (GPa) = 107.73640 107.73590 86.92655
#
# Poissons Ratio (x) = 0.14230 0.26009
# Poissons Ratio (y) = 0.14230 0.26009
# Poissons Ratio (z) = 0.32235 0.32235
#
# Static dielectric constant tensor:
#      x y z
#    x 3.696870 0.000000 0.000000 
#    y 0.000000 3.696860 0.000000 
#    z 0.000000 0.000000 4.475230 
# 
# 
# High freq. dielectric constant tensor:
#      x y z
#    x 1.843450 0.000000 0.000000 
#    y 0.000000 1.843450 0.000000 
#    z 0.000000 0.000000 1.904830 
# 
# From -- ./inp_files/3195.got.cif
#   From: 2010.03.12/outbox.cif.g09.slc.cpg/sg135_2_cif.got.tgz:3195.got - 2010.04.06 18:31:24.
