data_PCOD8317592
_publ_section_title
;
Structure prediction by ZEFSAII (Michael W. Deem and Ramdas Pophale) SiO2 
 PCOD8317592
Probable space group: P 42/M B C
;
_chemical_formula_sum "Si O2"
_cell_formula_units_Z 96
_cell_length_a 14.756411
_cell_length_b 14.756411
_cell_length_c 20.929904
_cell_angle_alpha 90.000000
_cell_angle_beta 90.000000
_cell_angle_gamma 90.000000
_cell_volume 4557.521457
_symmetry_space_group_name_H-M "P 42/M B C"
_symmetry_group_IT_number 135
_symmetry_cell_setting 'tetragonal'
loop_
_space_group_symop_operation_xyz
x,y,z
-y,x,1/2+z
-x,-y,z
y,-x,1/2+z
1/2+x,1/2-y,-z
1/2-x,1/2+y,-z
1/2+y,1/2+x,1/2-z
1/2-y,1/2-x,1/2-z
-x,-y,-z
y,-x,1/2-z
x,y,-z
-y,x,1/2-z
1/2-x,1/2+y,z
1/2+x,1/2-y,z
1/2-y,1/2-x,1/2+z
1/2+y,1/2+x,1/2+z
loop_
_atom_site_type_symbol
_atom_site_label
_atom_site_fract_x
_atom_site_fract_y
_atom_site_fract_z
Si Si1 0.587785 0.554004 0.073249
Si Si2 0.674872 0.047293 0.283490
Si Si3 0.284795 0.726798 0.179734
Si Si4 0.921857 0.429999 0.618273
Si Si5 0.247736 0.141092 0.569648
Si Si6 0.975826 0.237207 0.663509
O O1 0.500000 0.500000 0.098870
O O2 0.572390 0.662586 0.078928
O O3 0.674484 0.532707 0.116552
O O4 0.607628 0.524558 0.000000
O O5 0.586028 0.086028 0.250000
O O6 0.716832 0.122865 0.330939
O O7 0.636944 0.960309 0.320179
O O8 0.753584 0.022679 0.232755
O O9 0.245306 0.745306 0.250000
O O10 0.215094 0.756204 0.125193
O O11 0.307717 0.621693 0.172736
O O12 0.842680 0.414308 0.566412
O O13 0.972030 0.336862 0.633215
O O14 0.000000 0.500000 0.595663
O O15 0.237687 0.188807 0.500000
#
# Coordination Sequence:
#
# PCOD8317592 Si02
#       6
#    16  16  16  16  16  16
#     4  10  23  44  68  91 127 179 230 276 334 397
#     4  11  21  37  64  96 133 172 218 269 337 404
#     4  10  22  40  65  96 130 177 219 275 333 398
#     4  11  23  39  69 100 132 172 215 272 336 402
#     4  10  23  44  66  93 134 174 220 279 332 392
#     4  11  22  38  64  97 130 171 220 274 328 396
#
# _framework density 21.064080000000001
#
# number of rings (size 3 to 8) (size 9 to 14) (size 15 to 20)
#    0.000    1.500    1.667    4.500    2.333    3.000 
#    0.000    0.833    0.000    0.000    0.000    0.000 
#    0.000    0.000    0.000    0.000    0.000    0.000 
#
# Total GULP energy -1190007.827498 kJ/mol
# GULP energy per Si atom -12395.914870 kJ/mol
# Density = 2.101614 g / cm^3
# Si number density = 21.064080 Si / 1000 Ang^3
#
#
#
# Elastic Constant Matrix: (Units=GPa)
#
#
# Indices 1 2 3 4 5 6 
#
# 1 116.6802 50.8935 40.9404 0.0000 0.0000 0.0000
# 2 50.8935 116.6802 40.9404 0.0000 0.0000 0.0000
# 3 40.9404 40.9404 104.5030 0.0000 0.0000 0.0000
# 4 0.0000 0.0000 0.0000 24.0699 0.0000 0.0000
# 5 0.0000 0.0000 0.0000 0.0000 24.0699 0.0000
# 6 0.0000 0.0000 0.0000 0.0000 0.0000 33.0007
#
#
#
# Elastic Compliance Matrix: (Units=1/GPa)
#
#
# Indices 1 2 3 4 5 6 
#
# 1 0.011290 -0.003910 -0.002891 0.000000 0.000000 0.000000
# 2 -0.003910 0.011290 -0.002891 0.000000 0.000000 0.000000
# 3 -0.002891 -0.002891 0.011835 0.000000 0.000000 0.000000
# 4 0.000000 0.000000 0.000000 0.041546 0.000000 0.000000
# 5 0.000000 0.000000 0.000000 0.000000 0.041546 0.000000
# 6 0.000000 0.000000 0.000000 0.000000 0.000000 0.030302
#
#
# Mechanical properties :
#
#
# Convention : Reuss Voigt Hill
#
# Bulk Modulus (GPa) = 66.53436 67.04576 66.79006
# Shear Modulus (GPa) = 29.03522 29.90073 29.46798
#
# Velocity S-wave (km/s) = 3.71674 3.77173 3.74434
# Velocity P-wave (km/s) = 7.07631 7.13207 7.10424
#
# Compressibility (1/GPa) = 0.01502983
#
# Stress axis : x y z
#
# Youngs Moduli (GPa) = 88.57033 88.57033 84.49850
#
# Poissons Ratio (x) = 0.34632 0.24431
# Poissons Ratio (y) = 0.34632 0.24431
# Poissons Ratio (z) = 0.25609 0.25609
#
# Static dielectric constant tensor:
#      x y z
#    x 3.905620 0.000000 0.000000 
#    y 0.000000 3.905620 0.000000 
#    z 0.000000 0.000000 3.761190 
# 
# 
# High freq. dielectric constant tensor:
#      x y z
#    x 1.828860 0.000000 0.000000 
#    y 0.000000 1.828860 0.000000 
#    z 0.000000 0.000000 1.814880 
# 
# From -- ./inp_files/5409.got.cif
#   From: 2010.03.12/outbox.cif.g09.slc.cpg/sg135_3_cif.got.tgz:5409.got - 2010.04.06 18:31:24.
