data_PCOD8317583
_publ_section_title
;
Structure prediction by ZEFSAII (Michael W. Deem and Ramdas Pophale) SiO2 
 PCOD8317583
Probable space group: P 42/M B C
;
_chemical_formula_sum "Si O2"
_cell_formula_units_Z 96
_cell_length_a 13.657467
_cell_length_b 13.657467
_cell_length_c 26.462554
_cell_angle_alpha 90.000000
_cell_angle_beta 90.000000
_cell_angle_gamma 90.000000
_cell_volume 4935.965061
_symmetry_space_group_name_H-M "P 42/M B C"
_symmetry_group_IT_number 135
_symmetry_cell_setting 'tetragonal'
loop_
_space_group_symop_operation_xyz
x,y,z
-y,x,1/2+z
-x,-y,z
y,-x,1/2+z
1/2+x,1/2-y,-z
1/2-x,1/2+y,-z
1/2+y,1/2+x,1/2-z
1/2-y,1/2-x,1/2-z
-x,-y,-z
y,-x,1/2-z
x,y,-z
-y,x,1/2-z
1/2-x,1/2+y,z
1/2+x,1/2-y,z
1/2-y,1/2-x,1/2+z
1/2+y,1/2+x,1/2+z
loop_
_atom_site_type_symbol
_atom_site_label
_atom_site_fract_x
_atom_site_fract_y
_atom_site_fract_z
Si Si1 0.274226 0.119057 0.603891
Si Si2 0.917373 0.759357 0.849832
Si Si3 0.842166 0.000000 0.750000
Si Si4 0.371764 0.901597 0.000000
Si Si5 0.401597 0.128236 0.000000
Si Si6 0.274226 0.880943 0.896109
Si Si7 0.759357 0.917373 0.150168
O O1 0.319366 0.141444 0.549258
O O2 0.168485 0.168485 0.607834
O O3 0.346038 0.165117 0.646837
O O4 0.258809 0.004254 0.610942
O O5 0.962146 0.771109 0.794039
O O6 0.846038 0.665117 0.853163
O O7 0.857254 0.857253 0.865092
O O8 0.911024 0.088976 0.769767
O O9 0.771109 0.962146 0.794039
O O10 0.482022 0.864658 0.000000
O O11 0.319365 0.858556 0.049258
O O12 0.364658 0.017978 0.000000
O O13 0.258809 0.995746 0.889058
#
# Coordination Sequence:
#
# PCOD8317583 Si02
#       7
#    16  16  16   8   8  16  16
#     4  11  22  38  61  86 118 155 195 245 294 346
#     4  10  22  38  59  88 118 154 198 240 290 351
#     4   9  18  36  60  85 120 160 194 235 288 347
#     4  11  21  38  62  83 114 158 194 245 296 350
#     4  11  21  38  62  83 114 158 194 245 296 350
#     4  11  22  38  61  86 118 155 195 245 294 346
#     4  10  22  38  59  88 118 154 198 240 290 351
#
# _framework density 19.449083000000002
#
# number of rings (size 3 to 8) (size 9 to 14) (size 15 to 20)
#    0.000    1.667    3.333    1.500    0.000    4.000 
#    0.000    5.833    0.000    4.000    0.000    0.000 
#    0.000    0.000    0.000    0.000    0.000    0.000 
#
# Total GULP energy -1190469.514197 kJ/mol
# GULP energy per Si atom -12400.724106 kJ/mol
# Density = 1.940482 g / cm^3
# Si number density = 19.449083 Si / 1000 Ang^3
#
#
#
# Elastic Constant Matrix: (Units=GPa)
#
#
# Indices 1 2 3 4 5 6 
#
# 1 89.7770 39.6278 27.2027 0.0000 0.0000 0.0000
# 2 39.6278 89.7770 27.2027 0.0000 0.0000 0.0000
# 3 27.2027 27.2027 92.2215 0.0000 0.0000 0.0000
# 4 0.0000 0.0000 0.0000 31.4604 0.0000 0.0000
# 5 0.0000 0.0000 0.0000 0.0000 31.4604 0.0000
# 6 0.0000 0.0000 0.0000 0.0000 0.0000 16.7492
#
#
#
# Elastic Compliance Matrix: (Units=1/GPa)
#
#
# Indices 1 2 3 4 5 6 
#
# 1 0.014381 -0.005559 -0.002602 0.000000 0.000000 0.000000
# 2 -0.005559 0.014381 -0.002602 0.000000 0.000000 0.000000
# 3 -0.002602 -0.002602 0.012379 0.000000 0.000000 0.000000
# 4 0.000000 0.000000 0.000000 0.031786 0.000000 0.000000
# 5 0.000000 0.000000 0.000000 0.000000 0.031786 0.000000
# 6 0.000000 0.000000 0.000000 0.000000 0.000000 0.059704
#
#
# Mechanical properties :
#
#
# Convention : Reuss Voigt Hill
#
# Bulk Modulus (GPa) = 50.98561 51.09357 51.03959
# Shear Modulus (GPa) = 25.97641 27.78348 26.87995
#
# Velocity S-wave (km/s) = 3.65857 3.78368 3.72165
# Velocity P-wave (km/s) = 6.64219 6.73912 6.69083
#
# Compressibility (1/GPa) = 0.01961338
#
# Stress axis : x y z
#
# Youngs Moduli (GPa) = 69.53572 69.53572 80.78465
#
# Poissons Ratio (x) = 0.38658 0.21021
# Poissons Ratio (y) = 0.38658 0.21021
# Poissons Ratio (z) = 0.18094 0.18094
#
# Static dielectric constant tensor:
#      x y z
#    x 3.537900 0.000000 0.000000 
#    y 0.000000 3.537900 0.000000 
#    z 0.000000 0.000000 3.425770 
# 
# 
# High freq. dielectric constant tensor:
#      x y z
#    x 1.760200 0.000000 0.000000 
#    y 0.000000 1.760200 0.000000 
#    z 0.000000 0.000000 1.749150 
# 
# From -- ./inp_files/6072.got.cif
#   From: 2010.03.12/outbox.cif.g09.slc.cpg/sg135_4_cif.got.tgz:6072.got - 2010.04.06 18:31:24.
