data_PCOD8317779
_publ_section_title
;
Structure prediction by ZEFSAII (Michael W. Deem and Ramdas Pophale) SiO2 
 PCOD8317779
Probable space group: P 42/M N M
;
_chemical_formula_sum "Si O2"
_cell_formula_units_Z 104
_cell_length_a 25.778649
_cell_length_b 25.778649
_cell_length_c 9.024821
_cell_angle_alpha 90.000000
_cell_angle_beta 90.000000
_cell_angle_gamma 90.000000
_cell_volume 5997.343215
_symmetry_space_group_name_H-M "P 42/M N M"
_symmetry_group_IT_number 136
_symmetry_cell_setting 'tetragonal'
loop_
_space_group_symop_operation_xyz
x,y,z
1/2-y,1/2+x,1/2+z
-x,-y,z
1/2+y,1/2-x,1/2+z
1/2+x,1/2-y,1/2-z
1/2-x,1/2+y,1/2-z
y,x,-z
-y,-x,-z
-x,-y,-z
1/2+y,1/2-x,1/2-z
x,y,-z
1/2-y,1/2+x,1/2-z
1/2-x,1/2+y,1/2+z
1/2+x,1/2-y,1/2+z
-y,-x,z
y,x,z
loop_
_atom_site_type_symbol
_atom_site_label
_atom_site_fract_x
_atom_site_fract_y
_atom_site_fract_z
Si Si1 0.543245 0.543245 0.175720
Si Si2 0.211912 0.627508 0.668757
Si Si3 0.383515 0.616486 0.825410
Si Si4 0.986278 0.745979 0.168507
Si Si5 0.862908 0.990557 0.827307
Si Si6 0.351992 0.982803 0.672661
Si Si7 0.113195 0.597924 0.827232
Si Si8 0.309256 0.690745 0.669793
O O1 0.500000 0.500000 0.217694
O O2 0.529730 0.598540 0.246003
O O3 0.548373 0.548373 0.000000
O O4 0.192588 0.625883 0.500000
O O5 0.244162 0.575175 0.707703
O O6 0.161131 0.632831 0.770231
O O7 0.248639 0.677671 0.695876
O O8 0.365979 0.563776 0.752491
O O9 0.340744 0.659257 0.791837
O O10 0.391117 0.608884 0.000000
O O11 0.009215 0.803571 0.192078
O O12 0.018893 0.707356 0.271898
O O13 0.994564 0.727946 0.000000
O O14 0.877930 0.985532 0.000000
O O15 0.352199 0.971567 0.500000
O O16 0.386494 0.939949 0.751007
O O17 0.376642 0.038175 0.713201
O O18 0.107733 0.607376 0.000000
O O19 0.324951 0.675050 0.500000
#
# Coordination Sequence:
#
# PCOD8317779 Si02
#       8
#     8  16   8  16  16  16  16   8
#     4  11  23  35  47  72 104 137 176 223 275 314
#     4   9  17  31  52  77 106 137 171 211 254 306
#     4  12  22  29  45  74 107 139 171 219 269 314
#     4   9  18  33  54  77 101 132 171 212 255 306
#     4  11  21  35  53  72  99 140 182 218 265 320
#     4  10  21  36  56  81 108 139 173 210 259 314
#     4  10  21  36  54  79 110 141 176 216 259 312
#     4  10  18  32  51  76 107 142 178 212 259 317
#
# _framework density 17.341011999999999
#
# number of rings (size 3 to 8) (size 9 to 14) (size 15 to 20)
#    0.000    1.923    2.308    2.308    0.000    4.308 
#    0.000    1.538    0.000    0.923    0.000    4.308 
#    0.000    0.000    0.000    0.000    0.000    0.000 
#
# Total GULP energy -1289651.176824 kJ/mol
# GULP energy per Si atom -12400.492085 kJ/mol
# Density = 1.730154 g / cm^3
# Si number density = 17.341012 Si / 1000 Ang^3
#
#
#
# Elastic Constant Matrix: (Units=GPa)
#
#
# Indices 1 2 3 4 5 6 
#
# 1 92.6017 57.1850 58.5846 0.0000 0.0000 0.0000
# 2 57.1850 92.6020 58.5846 0.0000 0.0000 0.0000
# 3 58.5846 58.5846 107.2490 0.0000 0.0000 0.0000
# 4 0.0000 0.0000 0.0000 23.9097 0.0000 0.0000
# 5 0.0000 0.0000 0.0000 0.0000 23.9099 0.0000
# 6 0.0000 0.0000 0.0000 0.0000 0.0000 25.6983
#
#
#
# Elastic Compliance Matrix: (Units=1/GPa)
#
#
# Indices 1 2 3 4 5 6 
#
# 1 0.019946 -0.008289 -0.006368 0.000000 0.000000 0.000000
# 2 -0.008289 0.019946 -0.006368 0.000000 0.000000 0.000000
# 3 -0.006368 -0.006368 0.016281 0.000000 0.000000 0.000000
# 4 0.000000 0.000000 0.000000 0.041824 0.000000 0.000000
# 5 0.000000 0.000000 0.000000 0.000000 0.041824 0.000000
# 6 0.000000 0.000000 0.000000 0.000000 0.000000 0.038913
#
#
# Mechanical properties :
#
#
# Convention : Reuss Voigt Hill
#
# Bulk Modulus (GPa) = 70.79976 71.24011 71.01993
# Shear Modulus (GPa) = 22.17381 22.57680 22.37531
#
# Velocity S-wave (km/s) = 3.57976 3.61214 3.59599
# Velocity P-wave (km/s) = 7.61596 7.65296 7.63448
#
# Compressibility (1/GPa) = 0.01412434
#
# Stress axis : x y z
#
# Youngs Moduli (GPa) = 50.13473 50.13496 61.42174
#
# Poissons Ratio (x) = 0.41556 0.39112
# Poissons Ratio (y) = 0.41556 0.39112
# Poissons Ratio (z) = 0.31925 0.31925
#
# Static dielectric constant tensor:
#      x y z
#    x 3.616470 0.000000 0.000000 
#    y 0.000000 3.616530 0.000000 
#    z 0.000000 0.000000 3.346160 
# 
# 
# High freq. dielectric constant tensor:
#      x y z
#    x 1.654730 0.000000 0.000000 
#    y 0.000000 1.654730 0.000000 
#    z 0.000000 0.000000 1.680810 
# 
# From -- ./inp_files/2255.got.cif
#   From: 2010.03.12/outbox.cif.g09.slc.cpg/sg136_2_cif.got.tgz:2255.got - 2010.04.06 18:39:43.
