data_PCOD8317647
_publ_section_title
;
Structure prediction by ZEFSAII (Michael W. Deem and Ramdas Pophale) SiO2 
 PCOD8317647
Probable space group: P 42/M B C
;
_chemical_formula_sum "Si O2"
_cell_formula_units_Z 112
_cell_length_a 13.983879
_cell_length_b 13.983879
_cell_length_c 24.706269
_cell_angle_alpha 90.000000
_cell_angle_beta 90.000000
_cell_angle_gamma 90.000000
_cell_volume 4831.283031
_symmetry_space_group_name_H-M "P 42/M B C"
_symmetry_group_IT_number 135
_symmetry_cell_setting 'tetragonal'
loop_
_space_group_symop_operation_xyz
x,y,z
-y,x,1/2+z
-x,-y,z
y,-x,1/2+z
1/2+x,1/2-y,-z
1/2-x,1/2+y,-z
1/2+y,1/2+x,1/2-z
1/2-y,1/2-x,1/2-z
-x,-y,-z
y,-x,1/2-z
x,y,-z
-y,x,1/2-z
1/2-x,1/2+y,z
1/2+x,1/2-y,z
1/2-y,1/2-x,1/2+z
1/2+y,1/2+x,1/2+z
loop_
_atom_site_type_symbol
_atom_site_label
_atom_site_fract_x
_atom_site_fract_y
_atom_site_fract_z
Si Si1 0.750440 0.809457 0.937225
Si Si2 0.147877 0.998274 0.268161
Si Si3 0.397040 0.961942 0.438300
Si Si4 0.361302 0.380828 0.062466
Si Si5 0.994926 0.644507 0.273937
Si Si6 0.202078 0.493510 0.895654
Si Si7 0.698407 0.540804 0.390307
O O1 0.686631 0.719535 0.921239
O O2 0.849303 0.812542 0.905339
O O3 0.687203 0.901174 0.920365
O O4 0.775660 0.811471 0.000000
O O5 0.248482 0.019082 0.241584
O O6 0.086146 0.095078 0.264612
O O7 0.166180 0.968491 0.329135
O O8 0.374295 0.993060 0.500000
O O9 0.412761 0.847352 0.434277
O O10 0.308341 0.993114 0.400656
O O11 0.500000 0.000000 0.416993
O O12 0.314127 0.462804 0.101188
O O13 0.474221 0.372600 0.074616
O O14 0.347211 0.409027 0.000000
O O15 0.078136 0.578136 0.250000
O O16 0.893687 0.606314 0.250000
O O17 0.989100 0.647371 0.338587
#
# Coordination Sequence:
#
# PCOD8317647 Si02
#       7
#    16  16  16  16  16  16  16
#     4  11  24  42  68 107 147 184 235 287 353 441
#     4  11  26  50  72 100 141 191 251 312 364 427
#     4  11  23  40  68 105 143 182 233 288 362 444
#     4  11  24  42  68 107 147 184 237 290 353 443
#     4  11  27  46  70 105 142 178 244 308 356 429
#     4  12  24  43  69  95 143 186 228 292 365 407
#     4  12  24  43  75  99 145 199 239 295 365 433
#
# _framework density 23.182247
#
# number of rings (size 3 to 8) (size 9 to 14) (size 15 to 20)
#    0.000    0.714    1.429    6.000    6.000    4.571 
#    0.000    1.429    0.000    0.000    0.000    0.000 
#    0.000    0.000    0.000    0.000    0.000    0.000 
#
# Total GULP energy -1388843.278163 kJ/mol
# GULP energy per Si atom -12400.386412 kJ/mol
# Density = 2.312948 g / cm^3
# Si number density = 23.182247 Si / 1000 Ang^3
#
#
#
# Elastic Constant Matrix: (Units=GPa)
#
#
# Indices 1 2 3 4 5 6 
#
# 1 73.6078 -12.7885 21.9655 0.0000 0.0000 0.0000
# 2 -12.7885 73.6062 21.9653 0.0000 0.0000 0.0000
# 3 21.9655 21.9653 129.0704 0.0000 0.0000 0.0000
# 4 0.0000 0.0000 0.0000 24.8797 0.0000 0.0000
# 5 0.0000 0.0000 0.0000 0.0000 24.8806 0.0000
# 6 0.0000 0.0000 0.0000 0.0000 0.0000 37.6312
#
#
#
# Elastic Compliance Matrix: (Units=1/GPa)
#
#
# Indices 1 2 3 4 5 6 
#
# 1 0.015161 0.003586 -0.003190 0.000000 0.000000 0.000000
# 2 0.003586 0.015161 -0.003190 0.000000 0.000000 0.000000
# 3 -0.003190 -0.003190 0.008834 0.000000 0.000000 0.000000
# 4 0.000000 0.000000 0.000000 0.040193 0.000000 0.000000
# 5 0.000000 0.000000 0.000000 0.000000 0.040192 0.000000
# 6 0.000000 0.000000 0.000000 0.000000 0.000000 0.026574
#
#
# Mechanical properties :
#
#
# Convention : Reuss Voigt Hill
#
# Bulk Modulus (GPa) = 29.79218 37.61876 33.70547
# Shear Modulus (GPa) = 30.69517 33.82111 32.25814
#
# Velocity S-wave (km/s) = 3.64274 3.82373 3.73433
# Velocity P-wave (km/s) = 5.52919 5.97973 5.75887
#
# Compressibility (1/GPa) = 0.03356586
#
# Stress axis : x y z
#
# Youngs Moduli (GPa) = 65.96042 65.95898 113.20424
#
# Poissons Ratio (x) = -0.23654 0.36116
# Poissons Ratio (y) = -0.23654 0.36117
# Poissons Ratio (z) = 0.21044 0.21043
#
# Static dielectric constant tensor:
#      x y z
#    x 4.384470 0.000000 0.000000 
#    y 0.000000 4.384480 0.000000 
#    z 0.000000 0.000000 4.164100 
# 
# 
# High freq. dielectric constant tensor:
#      x y z
#    x 1.928930 0.000000 0.000000 
#    y 0.000000 1.928930 0.000000 
#    z 0.000000 0.000000 1.910510 
# 
# From -- ./inp_files/6135.got.cif
#   From: 2010.03.12/outbox.cif.g09.slc.cpg/sg135_4_cif.got.tgz:6135.got - 2010.04.06 18:31:24.
