data_PCOD8317631
_publ_section_title
;
Structure prediction by ZEFSAII (Michael W. Deem and Ramdas Pophale) SiO2 
 PCOD8317631
Probable space group: P 42/M B C
;
_chemical_formula_sum "Si O2"
_cell_formula_units_Z 64
_cell_length_a 13.388681
_cell_length_b 13.388681
_cell_length_c 16.612393
_cell_angle_alpha 90.000000
_cell_angle_beta 90.000000
_cell_angle_gamma 90.000000
_cell_volume 2977.884059
_symmetry_space_group_name_H-M "P 42/M B C"
_symmetry_group_IT_number 135
_symmetry_cell_setting 'tetragonal'
loop_
_space_group_symop_operation_xyz
x,y,z
-y,x,1/2+z
-x,-y,z
y,-x,1/2+z
1/2+x,1/2-y,-z
1/2-x,1/2+y,-z
1/2+y,1/2+x,1/2-z
1/2-y,1/2-x,1/2-z
-x,-y,-z
y,-x,1/2-z
x,y,-z
-y,x,1/2-z
1/2-x,1/2+y,z
1/2+x,1/2-y,z
1/2-y,1/2-x,1/2+z
1/2+y,1/2+x,1/2+z
loop_
_atom_site_type_symbol
_atom_site_label
_atom_site_fract_x
_atom_site_fract_y
_atom_site_fract_z
Si Si1 0.901947 0.189101 0.592764
Si Si2 0.705392 0.087686 0.406355
Si Si3 0.683483 0.878915 0.338689
Si Si4 0.800684 0.121079 0.094380
O O1 0.907321 0.164374 0.500000
O O2 0.815057 0.118443 0.629466
O O3 0.874672 0.305902 0.601042
O O4 0.011953 0.168274 0.628407
O O5 0.713036 0.058242 0.500000
O O6 0.632588 0.181637 0.393654
O O7 0.659939 0.994628 0.357269
O O8 0.648975 0.851026 0.250000
O O9 0.801933 0.862525 0.351216
O O10 0.827461 0.136297 0.000000
#
# Coordination Sequence:
#
# PCOD8317631 Si02
#       4
#    16  16  16  16
#     4   9  19  36  57  81 108 143 192 242 281 326
#     4   9  18  35  58  82 111 147 189 235 283 336
#     4  11  22  34  52  80 116 153 184 229 286 345
#     4   9  19  37  60  83 109 145 193 244 285 329
#
# _framework density 21.491769000000001
#
# number of rings (size 3 to 8) (size 9 to 14) (size 15 to 20)
#    0.000    2.500    0.000    3.750    0.000    6.000 
#    0.000    8.750    0.000    6.000    0.000    0.000 
#    0.000    0.000    0.000    0.000    0.000    0.000 
#
# Total GULP energy -793236.509552 kJ/mol
# GULP energy per Si atom -12394.320462 kJ/mol
# Density = 2.144285 g / cm^3
# Si number density = 21.491769 Si / 1000 Ang^3
#
#
#
# Elastic Constant Matrix: (Units=GPa)
#
#
# Indices 1 2 3 4 5 6 
#
# 1 78.3799 -13.6216 26.6493 0.0000 0.0000 0.0000
# 2 -13.6216 78.3775 26.6495 0.0000 0.0000 0.0000
# 3 26.6493 26.6495 44.1673 0.0000 0.0000 0.0000
# 4 0.0000 0.0000 0.0000 17.0464 0.0000 0.0000
# 5 0.0000 0.0000 0.0000 0.0000 17.0464 0.0000
# 6 0.0000 0.0000 0.0000 0.0000 0.0000 13.1121
#
#
#
# Elastic Compliance Matrix: (Units=1/GPa)
#
#
# Indices 1 2 3 4 5 6 
#
# 1 0.020773 0.009904 -0.018509 0.000000 0.000000 0.000000
# 2 0.009904 0.020774 -0.018510 0.000000 0.000000 0.000000
# 3 -0.018509 -0.018510 0.044977 0.000000 0.000000 0.000000
# 4 0.000000 0.000000 0.000000 0.058663 0.000000 0.000000
# 5 0.000000 0.000000 0.000000 0.000000 0.058663 0.000000
# 6 0.000000 0.000000 0.000000 0.000000 0.000000 0.076265
#
#
# Mechanical properties :
#
#
# Convention : Reuss Voigt Hill
#
# Bulk Modulus (GPa) = 30.96663 31.14213 31.05438
# Shear Modulus (GPa) = 14.48809 20.19082 17.33946
#
# Velocity S-wave (km/s) = 2.59920 3.06840 2.84350
# Velocity P-wave (km/s) = 4.84228 5.20338 5.02607
#
# Compressibility (1/GPa) = 0.03229282
#
# Stress axis : x y z
#
# Youngs Moduli (GPa) = 48.14024 48.13812 22.23334
#
# Poissons Ratio (x) = -0.47674 0.41152
# Poissons Ratio (y) = -0.47676 0.41154
# Poissons Ratio (z) = 0.89104 0.89103
#
# Static dielectric constant tensor:
#      x y z
#    x 4.050420 0.000000 0.000000 
#    y 0.000000 4.050420 0.000000 
#    z 0.000000 0.000000 3.511330 
# 
# 
# High freq. dielectric constant tensor:
#      x y z
#    x 1.842270 0.000000 0.000000 
#    y 0.000000 1.842270 0.000000 
#    z 0.000000 0.000000 1.808930 
# 
# From -- ./inp_files/3167.got.cif
#   From: 2010.03.12/outbox.cif.g09.slc.cpg/sg135_2_cif.got.tgz:3167.got - 2010.04.06 18:31:24.
