data_PCOD8317959
_publ_section_title
;
Structure prediction by ZEFSAII (Michael W. Deem and Ramdas Pophale) SiO2 
 PCOD8317959
Probable space group: P 42/M N M
;
_chemical_formula_sum "Si O2"
_cell_formula_units_Z 48
_cell_length_a 13.874926
_cell_length_b 13.874926
_cell_length_c 14.197978
_cell_angle_alpha 90.000000
_cell_angle_beta 90.000000
_cell_angle_gamma 90.000000
_cell_volume 2733.303453
_symmetry_space_group_name_H-M "P 42/M N M"
_symmetry_group_IT_number 136
_symmetry_cell_setting 'tetragonal'
loop_
_space_group_symop_operation_xyz
x,y,z
1/2-y,1/2+x,1/2+z
-x,-y,z
1/2+y,1/2-x,1/2+z
1/2+x,1/2-y,1/2-z
1/2-x,1/2+y,1/2-z
y,x,-z
-y,-x,-z
-x,-y,-z
1/2+y,1/2-x,1/2-z
x,y,-z
1/2-y,1/2+x,1/2-z
1/2-x,1/2+y,1/2+z
1/2+x,1/2-y,1/2+z
-y,-x,z
y,x,z
loop_
_atom_site_type_symbol
_atom_site_label
_atom_site_fract_x
_atom_site_fract_y
_atom_site_fract_z
Si Si1 0.158098 0.999887 0.688942
Si Si2 0.422730 0.265473 0.000000
Si Si3 0.852395 0.496259 0.291555
Si Si4 0.605000 0.959327 0.000000
O O1 0.097904 0.097904 0.688180
O O2 0.240867 0.008154 0.765946
O O3 0.208291 0.988229 0.588472
O O4 0.090696 0.909305 0.713706
O O5 0.393244 0.155218 0.000000
O O6 0.323394 0.323394 0.000000
O O7 0.902482 0.591360 0.247879
O O8 0.847166 0.499433 0.404817
O O9 0.500000 0.000000 0.000000
#
# Coordination Sequence:
#
# PCOD8317959 Si02
#       4
#    16   8  16   8
#     4  10  21  37  57  83 115 149 187 231 280 333
#     4  10  19  34  58  84 111 144 188 236 277 324
#     4  11  21  36  58  84 112 148 181 233 280 332
#     4  12  20  35  58  86 114 142 190 229 278 332
#
# _framework density 17.561167000000001
#
# number of rings (size 3 to 8) (size 9 to 14) (size 15 to 20)
#    0.000    1.333    6.667    0.500    0.000    4.667 
#    0.000    0.833    0.000    2.000    0.000    0.000 
#    0.000    0.000    0.000    0.000    0.000    0.000 
#
# Total GULP energy -595223.437699 kJ/mol
# GULP energy per Si atom -12400.488285 kJ/mol
# Density = 1.752120 g / cm^3
# Si number density = 17.561167 Si / 1000 Ang^3
#
#
#
# Elastic Constant Matrix: (Units=GPa)
#
#
# Indices 1 2 3 4 5 6 
#
# 1 62.0826 -15.5651 26.8362 0.0000 0.0000 0.0000
# 2 -15.5651 62.0826 26.8362 0.0000 0.0000 0.0000
# 3 26.8362 26.8362 150.6620 0.0000 0.0000 0.0000
# 4 0.0000 0.0000 0.0000 47.8754 0.0000 0.0000
# 5 0.0000 0.0000 0.0000 0.0000 47.8754 0.0000
# 6 0.0000 0.0000 0.0000 0.0000 0.0000 8.9948
#
#
#
# Elastic Compliance Matrix: (Units=1/GPa)
#
#
# Indices 1 2 3 4 5 6 
#
# 1 0.019968 0.007090 -0.004820 0.000000 0.000000 0.000000
# 2 0.007090 0.019968 -0.004820 0.000000 0.000000 0.000000
# 3 -0.004820 -0.004820 0.008354 0.000000 0.000000 0.000000
# 4 0.000000 0.000000 0.000000 0.020888 0.000000 0.000000
# 5 0.000000 0.000000 0.000000 0.000000 0.020888 0.000000
# 6 0.000000 0.000000 0.000000 0.000000 0.000000 0.111175
#
#
# Mechanical properties :
#
#
# Convention : Reuss Voigt Hill
#
# Bulk Modulus (GPa) = 23.15231 39.00464 31.07847
# Shear Modulus (GPa) = 22.65131 36.73044 29.69087
#
# Velocity S-wave (km/s) = 3.59535 4.57833 4.11629
# Velocity P-wave (km/s) = 5.51795 7.08570 6.35039
#
# Compressibility (1/GPa) = 0.04319224
#
# Stress axis : x y z
#
# Youngs Moduli (GPa) = 50.07890 50.07890 119.69809
#
# Poissons Ratio (x) = -0.35505 0.57691
# Poissons Ratio (y) = -0.35505 0.57691
# Poissons Ratio (z) = 0.24136 0.24136
#
# Static dielectric constant tensor:
#      x y z
#    x 3.228340 0.000000 0.000000 
#    y 0.000000 3.228340 0.000000 
#    z 0.000000 0.000000 3.345940 
# 
# 
# High freq. dielectric constant tensor:
#      x y z
#    x 1.675220 0.000000 0.000000 
#    y 0.000000 1.675220 0.000000 
#    z 0.000000 0.000000 1.688960 
# 
# From -- ./inp_files/2981.got.cif
#   From: 2010.03.12/outbox.cif.g09.slc.cpg/sg136_2_cif.got.tgz:2981.got - 2010.04.06 18:39:43.
