data_PCOD8317556
_publ_section_title
;
Structure prediction by ZEFSAII (Michael W. Deem and Ramdas Pophale) SiO2 
 PCOD8317556
Probable space group: P 42/M B C
;
_chemical_formula_sum "Si O2"
_cell_formula_units_Z 104
_cell_length_a 18.423096
_cell_length_b 18.423096
_cell_length_c 16.932753
_cell_angle_alpha 90.000000
_cell_angle_beta 90.000000
_cell_angle_gamma 90.000000
_cell_volume 5747.153590
_symmetry_space_group_name_H-M "P 42/M B C"
_symmetry_group_IT_number 135
_symmetry_cell_setting 'tetragonal'
loop_
_space_group_symop_operation_xyz
x,y,z
-y,x,1/2+z
-x,-y,z
y,-x,1/2+z
1/2+x,1/2-y,-z
1/2-x,1/2+y,-z
1/2+y,1/2+x,1/2-z
1/2-y,1/2-x,1/2-z
-x,-y,-z
y,-x,1/2-z
x,y,-z
-y,x,1/2-z
1/2-x,1/2+y,z
1/2+x,1/2-y,z
1/2-y,1/2-x,1/2+z
1/2+y,1/2+x,1/2+z
loop_
_atom_site_type_symbol
_atom_site_label
_atom_site_fract_x
_atom_site_fract_y
_atom_site_fract_z
Si Si1 0.954867 0.339019 0.223652
Si Si2 0.783072 0.716929 0.750000
Si Si3 0.626225 0.704934 0.713799
Si Si4 0.937839 0.917223 0.716000
Si Si5 0.316369 0.921812 0.848548
Si Si6 0.817449 0.994222 0.090981
Si Si7 0.079195 0.474182 0.590335
O O1 0.902780 0.402780 0.250000
O O2 0.912238 0.262921 0.227848
O O3 0.026042 0.337191 0.276943
O O4 0.982611 0.357122 0.135808
O O5 0.710029 0.721215 0.696956
O O6 0.846887 0.712954 0.686570
O O7 0.631844 0.629060 0.759596
O O8 0.583166 0.700270 0.631325
O O9 0.969926 0.887309 0.633825
O O10 0.998631 0.912173 0.786550
O O11 0.253192 0.955117 0.902809
O O12 0.387842 0.910440 0.900988
O O13 0.837444 0.981510 0.000000
O O14 0.088742 0.496685 0.500000
O O15 0.000000 0.500000 0.621237
#
# Coordination Sequence:
#
# PCOD8317556 Si02
#       7
#    16   8  16  16  16  16  16
#     4  11  20  36  58  82 114 155 198 232 273 353
#     4  12  20  36  61  88 107 152 198 232 286 338
#     4  10  22  37  58  83 115 154 199 237 283 352
#     4   9  18  36  61  85 109 145 194 245 285 347
#     4  11  21  34  61  87 116 150 193 237 284 349
#     4  10  21  39  60  87 118 152 191 244 301 347
#     4  11  22  35  55  87 122 152 189 241 290 334
#
# _framework density 18.095914
#
# number of rings (size 3 to 8) (size 9 to 14) (size 15 to 20)
#    0.000    1.538    5.385    0.462    0.000    0.000 
#    0.000    8.462    0.000    0.000    0.000    0.000 
#    0.000    0.000    0.000    0.000    0.000    0.000 
#
# Total GULP energy -1289238.263137 kJ/mol
# GULP energy per Si atom -12396.521761 kJ/mol
# Density = 1.805473 g / cm^3
# Si number density = 18.095914 Si / 1000 Ang^3
#
#
#
# Elastic Constant Matrix: (Units=GPa)
#
#
# Indices 1 2 3 4 5 6 
#
# 1 118.0569 41.3693 49.9180 0.0000 0.0000 0.0000
# 2 41.3693 118.0577 49.9180 0.0000 0.0000 0.0000
# 3 49.9180 49.9180 108.5923 0.0000 0.0000 0.0000
# 4 0.0000 0.0000 0.0000 21.4278 0.0000 0.0000
# 5 0.0000 0.0000 0.0000 0.0000 21.4279 0.0000
# 6 0.0000 0.0000 0.0000 0.0000 0.0000 23.4928
#
#
#
# Elastic Compliance Matrix: (Units=1/GPa)
#
#
# Indices 1 2 3 4 5 6 
#
# 1 0.010924 -0.002116 -0.004049 0.000000 0.000000 0.000000
# 2 -0.002116 0.010924 -0.004049 0.000000 0.000000 0.000000
# 3 -0.004049 -0.004049 0.012931 0.000000 0.000000 0.000000
# 4 0.000000 0.000000 0.000000 0.046668 0.000000 0.000000
# 5 0.000000 0.000000 0.000000 0.000000 0.046668 0.000000
# 6 0.000000 0.000000 0.000000 0.000000 0.000000 0.042566
#
#
# Mechanical properties :
#
#
# Convention : Reuss Voigt Hill
#
# Bulk Modulus (GPa) = 69.67867 69.67973 69.67920
# Shear Modulus (GPa) = 25.52414 26.83647 26.18030
#
# Velocity S-wave (km/s) = 3.75973 3.85517 3.80775
# Velocity P-wave (km/s) = 7.57867 7.64237 7.61058
#
# Compressibility (1/GPa) = 0.01435159
#
# Stress axis : x y z
#
# Youngs Moduli (GPa) = 91.54204 91.54274 77.33266
#
# Poissons Ratio (x) = 0.19370 0.31311
# Poissons Ratio (y) = 0.19370 0.31311
# Poissons Ratio (z) = 0.37064 0.37064
#
# Static dielectric constant tensor:
#      x y z
#    x 3.528400 0.000000 0.000000 
#    y 0.000000 3.528400 0.000000 
#    z 0.000000 0.000000 3.045850 
# 
# 
# High freq. dielectric constant tensor:
#      x y z
#    x 1.714160 0.000000 0.000000 
#    y 0.000000 1.714150 0.000000 
#    z 0.000000 0.000000 1.664570 
# 
# From -- ./inp_files/4560.got.cif
#   From: 2010.03.12/outbox.cif.g09.slc.cpg/sg135_3_cif.got.tgz:4560.got - 2010.04.06 18:31:24.
