data_PCOD8317942
_publ_section_title
;
Structure prediction by ZEFSAII (Michael W. Deem and Ramdas Pophale) SiO2 
 PCOD8317942
Probable space group: P 42/M N M
;
_chemical_formula_sum "Si O2"
_cell_formula_units_Z 56
_cell_length_a 19.030745
_cell_length_b 19.030745
_cell_length_c 9.419034
_cell_angle_alpha 90.000000
_cell_angle_beta 90.000000
_cell_angle_gamma 90.000000
_cell_volume 3411.284529
_symmetry_space_group_name_H-M "P 42/M N M"
_symmetry_group_IT_number 136
_symmetry_cell_setting 'tetragonal'
loop_
_space_group_symop_operation_xyz
x,y,z
1/2-y,1/2+x,1/2+z
-x,-y,z
1/2+y,1/2-x,1/2+z
1/2+x,1/2-y,1/2-z
1/2-x,1/2+y,1/2-z
y,x,-z
-y,-x,-z
-x,-y,-z
1/2+y,1/2-x,1/2-z
x,y,-z
1/2-y,1/2+x,1/2-z
1/2-x,1/2+y,1/2+z
1/2+x,1/2-y,1/2+z
-y,-x,z
y,x,z
loop_
_atom_site_type_symbol
_atom_site_label
_atom_site_fract_x
_atom_site_fract_y
_atom_site_fract_z
Si Si1 0.980405 0.196455 0.165781
Si Si2 0.941292 0.058709 0.664729
Si Si3 0.366942 0.747107 0.334983
Si Si4 0.273356 0.840881 0.162733
O O1 0.968803 0.128547 0.260647
O O2 0.921259 0.254713 0.197484
O O3 0.053712 0.231251 0.210418
O O4 0.979388 0.173963 0.000000
O O5 0.925429 0.074572 0.500000
O O6 0.000000 0.000000 0.682659
O O7 0.361024 0.763562 0.500000
O O8 0.319896 0.680105 0.291477
O O9 0.340142 0.816574 0.254386
O O10 0.204903 0.795098 0.201930
O O11 0.294545 0.830902 0.000000
#
# Coordination Sequence:
#
# PCOD8317942 Si02
#       4
#    16   8  16  16
#     4  10  19  34  53  72  97 134 173 203 244 302
#     4  11  23  33  45  73 109 137 163 202 253 300
#     4   9  18  31  49  73  98 126 163 206 247 292
#     4   9  17  31  50  71  95 126 164 205 248 294
#
# _framework density 16.416104000000001
#
# number of rings (size 3 to 8) (size 9 to 14) (size 15 to 20)
#    0.000    2.429    1.429    1.286    0.000    4.571 
#    0.000    2.857    0.000    0.857    0.000    6.000 
#    0.000    0.000    0.000    0.000    0.000    0.000 
#
# Total GULP energy -694506.543085 kJ/mol
# GULP energy per Si atom -12401.902555 kJ/mol
# Density = 1.637874 g / cm^3
# Si number density = 16.416104 Si / 1000 Ang^3
#
#
#
# Elastic Constant Matrix: (Units=GPa)
#
#
# Indices 1 2 3 4 5 6 
#
# 1 99.5514 88.7879 59.3860 0.0000 0.0000 0.0000
# 2 88.7879 99.5502 59.3857 0.0000 0.0000 0.0000
# 3 59.3860 59.3857 73.9444 0.0000 0.0000 0.0000
# 4 0.0000 0.0000 0.0000 28.2046 0.0000 0.0000
# 5 0.0000 0.0000 0.0000 0.0000 28.2045 0.0000
# 6 0.0000 0.0000 0.0000 0.0000 0.0000 23.4534
#
#
#
# Elastic Compliance Matrix: (Units=1/GPa)
#
#
# Indices 1 2 3 4 5 6 
#
# 1 0.051835 -0.041077 -0.008640 0.000000 0.000000 0.000000
# 2 -0.041077 0.051836 -0.008640 0.000000 0.000000 0.000000
# 3 -0.008640 -0.008640 0.027402 0.000000 0.000000 0.000000
# 4 0.000000 0.000000 0.000000 0.035455 0.000000 0.000000
# 5 0.000000 0.000000 0.000000 0.000000 0.035455 0.000000
# 6 0.000000 0.000000 0.000000 0.000000 0.000000 0.042638
#
#
# Mechanical properties :
#
#
# Convention : Reuss Voigt Hill
#
# Bulk Modulus (GPa) = 69.64885 76.46280 73.05583
# Shear Modulus (GPa) = 13.65670 20.33826 16.99748
#
# Velocity S-wave (km/s) = 2.88741 3.52365 3.22128
# Velocity P-wave (km/s) = 7.32362 7.95197 7.64426
#
# Compressibility (1/GPa) = 0.01435774
#
# Stress axis : x y z
#
# Youngs Moduli (GPa) = 19.29206 19.29175 36.49403
#
# Poissons Ratio (x) = 0.79245 0.31531
# Poissons Ratio (y) = 0.79246 0.31532
# Poissons Ratio (z) = 0.16668 0.16669
#
# Static dielectric constant tensor:
#      x y z
#    x 3.118940 0.000000 0.000000 
#    y 0.000000 3.118950 0.000000 
#    z 0.000000 0.000000 3.130920 
# 
# 
# High freq. dielectric constant tensor:
#      x y z
#    x 1.623200 0.000000 0.000000 
#    y 0.000000 1.623200 0.000000 
#    z 0.000000 0.000000 1.633000 
# 
# From -- ./inp_files/1104.got.cif
#   From: 2010.03.12/outbox.cif.g09.slc.cpg/sg136_1_cif.got.tgz:1104.got - 2010.04.06 18:39:43.
