data_PCOD8317342
_publ_section_title
;
Structure prediction by ZEFSAII (Michael W. Deem and Ramdas Pophale) SiO2 
 PCOD8317342
Probable space group: P 42/N N M
;
_chemical_formula_sum "Si O2"
_cell_formula_units_Z 58
_cell_length_a 16.656407
_cell_length_b 16.656407
_cell_length_c 9.432738
_cell_angle_alpha 90.000000
_cell_angle_beta 90.000000
_cell_angle_gamma 90.000000
_cell_volume 2616.980101
_symmetry_space_group_name_H-M "P 42/N N M"
_symmetry_group_IT_number 134
_space_group.IT_coordinate_system_code '2'
_symmetry_cell_setting 'tetragonal'
loop_
_space_group_symop_operation_xyz
x,y,z
1/2-y,x,1/2+z
1/2-x,1/2-y,z
y,1/2-x,1/2+z
x,1/2-y,1/2-z
1/2-x,y,1/2-z
y,x,-z
1/2-y,1/2-x,-z
-x,-y,-z
1/2+y,-x,1/2-z
1/2+x,1/2+y,-z
-y,1/2+x,1/2-z
-x,1/2+y,1/2+z
1/2+x,-y,1/2+z
-y,-x,z
1/2+y,1/2+x,z
loop_
_atom_site_type_symbol
_atom_site_label
_atom_site_fract_x
_atom_site_fract_y
_atom_site_fract_z
Si Si1 0.250000 0.089623 0.250000
Si Si2 0.250000 0.750000 0.250000
Si Si3 0.578695 0.862846 0.777628
Si Si4 0.004648 0.236186 0.037212
Si Si5 0.645579 0.145579 0.543692
Si Si6 0.024816 0.524816 0.340836
O O1 0.324935 0.144429 0.197035
O O2 0.276668 0.030926 0.376417
O O3 0.302772 0.697229 0.148149
O O4 0.522828 0.826647 0.905120
O O5 0.561720 0.818651 0.631220
O O6 0.558404 0.954956 0.757450
O O7 0.911818 0.204658 0.051994
O O8 0.591812 0.091812 0.646130
O O9 0.000000 0.500000 0.500000
#
# Coordination Sequence:
#
# PCOD8317342 Si02
#       6
#     8   2  16  16   8   8
#     4  12  21  41  64 102 148 180 228 304 359 423
#     4  12  32  48  72 110 144 192 224 306 372 436
#     4  11  24  41  70 107 139 191 250 289 360 430
#     4  11  24  42  70 103 142 188 239 298 360 434
#     4  12  24  48  74 100 144 195 242 288 382 430
#     4  12  20  43  78  99 137 202 248 297 352 446
#
# _framework density 22.162951
#
# number of rings (size 3 to 8) (size 9 to 14) (size 15 to 20)
#    0.000    0.552    5.517    2.483    0.000    3.310 
#    0.000   11.034    0.000    0.000    0.000    0.000 
#    0.000    0.000    0.000    0.000    0.000    0.000 
#
# Total GULP energy -718828.151582 kJ/mol
# GULP energy per Si atom -12393.588820 kJ/mol
# Density = 2.211251 g / cm^3
# Si number density = 22.162951 Si / 1000 Ang^3
#
#
#
# Elastic Constant Matrix: (Units=GPa)
#
#
# Indices 1 2 3 4 5 6 
#
# 1 127.4199 83.7293 31.3737 0.0000 0.0000 0.0000
# 2 83.7293 127.4199 31.3737 0.0000 0.0000 0.0000
# 3 31.3737 31.3737 98.9484 0.0000 0.0000 0.0000
# 4 0.0000 0.0000 0.0000 38.7146 0.0000 0.0000
# 5 0.0000 0.0000 0.0000 0.0000 38.7146 0.0000
# 6 0.0000 0.0000 0.0000 0.0000 0.0000 41.0373
#
#
#
# Elastic Compliance Matrix: (Units=1/GPa)
#
#
# Indices 1 2 3 4 5 6 
#
# 1 0.014058 -0.008830 -0.001658 0.000000 0.000000 0.000000
# 2 -0.008830 0.014058 -0.001658 0.000000 0.000000 0.000000
# 3 -0.001658 -0.001658 0.011158 0.000000 0.000000 0.000000
# 4 0.000000 0.000000 0.000000 0.025830 0.000000 0.000000
# 5 0.000000 0.000000 0.000000 0.000000 0.025830 0.000000
# 6 0.000000 0.000000 0.000000 0.000000 0.000000 0.024368
#
#
# Mechanical properties :
#
#
# Convention : Reuss Voigt Hill
#
# Bulk Modulus (GPa) = 66.74016 71.86016 69.30016
# Shear Modulus (GPa) = 34.58097 37.51406 36.04752
#
# Velocity S-wave (km/s) = 3.95436 4.11864 4.03733
# Velocity P-wave (km/s) = 7.14339 7.42372 7.28490
#
# Compressibility (1/GPa) = 0.01498348
#
# Stress axis : x y z
#
# Youngs Moduli (GPa) = 71.13160 71.13160 89.62506
#
# Poissons Ratio (x) = 0.62808 0.14859
# Poissons Ratio (y) = 0.62808 0.14859
# Poissons Ratio (z) = 0.11793 0.11793
#
# Static dielectric constant tensor:
#      x y z
#    x 4.431970 0.000000 0.000000 
#    y 0.000000 4.431970 0.000000 
#    z 0.000000 0.000000 4.521070 
# 
# 
# High freq. dielectric constant tensor:
#      x y z
#    x 1.876880 0.000000 0.000000 
#    y 0.000000 1.876880 0.000000 
#    z 0.000000 0.000000 1.862820 
# 
# From -- ./inp_files/2471.got.cif
#   From: 2010.03.12/outbox.cif.g09.slc.cpg/sg134_2_cif.got.tgz:2471.got - 2010.04.06 18:17:22.
