data_PCOD8317112
_publ_section_title
;
Structure prediction by ZEFSAII (Michael W. Deem and Ramdas Pophale) SiO2 
 PCOD8317112
Probable space group: P 42/N N M
;
_chemical_formula_sum "Si O2"
_cell_formula_units_Z 96
_cell_length_a 34.097929
_cell_length_b 34.097929
_cell_length_c 5.115130
_cell_angle_alpha 90.000000
_cell_angle_beta 90.000000
_cell_angle_gamma 90.000000
_cell_volume 5947.201865
_symmetry_space_group_name_H-M "P 42/N N M"
_symmetry_group_IT_number 134
_space_group.IT_coordinate_system_code '2'
_symmetry_cell_setting 'tetragonal'
loop_
_space_group_symop_operation_xyz
x,y,z
1/2-y,x,1/2+z
1/2-x,1/2-y,z
y,1/2-x,1/2+z
x,1/2-y,1/2-z
1/2-x,y,1/2-z
y,x,-z
1/2-y,1/2-x,-z
-x,-y,-z
1/2+y,-x,1/2-z
1/2+x,1/2+y,-z
-y,1/2+x,1/2-z
-x,1/2+y,1/2+z
1/2+x,-y,1/2+z
-y,-x,z
1/2+y,1/2+x,z
loop_
_atom_site_type_symbol
_atom_site_label
_atom_site_fract_x
_atom_site_fract_y
_atom_site_fract_z
Si Si1 0.143770 0.524092 0.472691
Si Si2 0.140994 0.359007 0.500000
Si Si3 0.103013 0.103013 0.500000
Si Si4 0.775921 0.987222 0.001460
Si Si5 0.951463 0.048538 0.432781
Si Si6 0.083818 0.583818 0.433526
Si Si7 0.397452 0.223447 0.499674
Si Si8 0.893302 0.512283 0.026232
O O1 0.190090 0.519827 0.506138
O O2 0.128893 0.570001 0.494220
O O3 0.122891 0.496862 0.686869
O O4 0.133365 0.509173 0.185215
O O5 0.118841 0.374769 0.249131
O O6 0.132696 0.312658 0.515641
O O7 0.057451 0.110311 0.535663
O O8 0.750000 0.995984 0.250000
O O9 0.792317 0.942451 0.007825
O O10 0.750000 0.994433 0.750000
O O11 0.925120 0.074881 0.630223
O O12 0.996638 0.061163 0.489608
O O13 0.942562 0.057439 0.129195
O O14 0.387908 0.250000 0.250000
O O15 0.390217 0.250000 0.750000
#
# Coordination Sequence:
#
# PCOD8317112 Si02
#       8
#    16   8   8  16   8   8  16  16
#     4  10  18  32  47  64  91 122 160 195 226 265
#     4  12  24  38  56  76  96 116 146 182 226 286
#     4  12  22  31  48  74  96 121 148 180 228 266
#     4  10  19  30  47  70  94 121 150 185 231 278
#     4   8  16  29  42  60  84 120 160 190 222 253
#     4   8  16  28  46  63  82 120 162 197 224 256
#     4  10  21  37  55  74  96 120 145 178 225 277
#     4  10  19  30  45  63  90 122 155 193 224 259
#
# _framework density 16.142047000000002
#
# number of rings (size 3 to 8) (size 9 to 14) (size 15 to 20)
#    0.000    2.000    0.000    5.000    0.000    3.000 
#    0.000    0.000    0.000    8.500    0.000    0.000 
#    0.000    0.000    0.000    0.000    0.000    2.500 
#
# Total GULP energy -1189509.442685 kJ/mol
# GULP energy per Si atom -12390.723361 kJ/mol
# Density = 1.610531 g / cm^3
# Si number density = 16.142047 Si / 1000 Ang^3
#
#
#
# Elastic Constant Matrix: (Units=GPa)
#
#
# Indices 1 2 3 4 5 6 
#
# 1 25.9659 129.7134 23.8497 0.0000 0.0000 0.0000
# 2 129.7134 25.9753 23.8541 0.0000 0.0000 0.0000
# 3 23.8497 23.8541 88.6647 0.0000 0.0000 0.0000
# 4 0.0000 0.0000 0.0000 13.1134 0.0000 0.0000
# 5 0.0000 0.0000 0.0000 0.0000 13.1134 0.0000
# 6 0.0000 0.0000 0.0000 0.0000 0.0000 30.4351
#
#
#
# Elastic Compliance Matrix: (Units=1/GPa)
#
#
# Indices 1 2 3 4 5 6 
#
# 1 -0.001320 0.008320 -0.001883 0.000000 0.000000 0.000000
# 2 0.008320 -0.001319 -0.001883 0.000000 0.000000 0.000000
# 3 -0.001883 -0.001883 0.012292 0.000000 0.000000 0.000000
# 4 0.000000 0.000000 0.000000 0.076258 0.000000 0.000000
# 5 0.000000 0.000000 0.000000 0.000000 0.076258 0.000000
# 6 0.000000 0.000000 0.000000 0.000000 0.000000 0.032857
#
#
# Mechanical properties :
#
#
# Convention : Reuss Voigt Hill
#
# Bulk Modulus (GPa) = 53.30616 55.04894 54.17755
# Shear Modulus (GPa) = 26.01845 8.87831 17.44838
#
# Velocity S-wave (km/s) = 4.01913 2.34778 3.29131
# Velocity P-wave (km/s) = 7.39140 6.44409 6.93394
#
# Compressibility (1/GPa) = 0.01875956
#
# Stress axis : x y z
#
# Youngs Moduli (GPa) = -757.74780 -758.01996 81.35615
#
# Poissons Ratio (x) = 6.30654 0.15322
# Poissons Ratio (y) = 6.30428 0.15319
# Poissons Ratio (z) = -1.42710 -1.42734
#
# Static dielectric constant tensor:
#      x y z
#    x 3.047640 0.000000 0.000000 
#    y 0.000000 3.047670 0.000000 
#    z 0.000000 0.000000 3.304010 
# 
# 
# High freq. dielectric constant tensor:
#      x y z
#    x 1.593720 0.000000 0.000000 
#    y 0.000000 1.593720 0.000000 
#    z 0.000000 0.000000 1.652580 
# 
# From -- ./inp_files/1337.got.cif
#   From: 2010.03.12/outbox.cif.g09.slc.cpg/sg134_1_cif.got.tgz:1337.got - 2010.04.06 18:17:22.
