data_PCOD8317170
_publ_section_title
;
Structure prediction by ZEFSAII (Michael W. Deem and Ramdas Pophale) SiO2 
 PCOD8317170
Probable space group: P 42/N N M
;
_chemical_formula_sum "Si O2"
_cell_formula_units_Z 96
_cell_length_a 18.803734
_cell_length_b 18.803734
_cell_length_c 15.576835
_cell_angle_alpha 90.000000
_cell_angle_beta 90.000000
_cell_angle_gamma 90.000000
_cell_volume 5507.663742
_symmetry_space_group_name_H-M "P 42/N N M"
_symmetry_group_IT_number 134
_space_group.IT_coordinate_system_code '2'
_symmetry_cell_setting 'tetragonal'
loop_
_space_group_symop_operation_xyz
x,y,z
1/2-y,x,1/2+z
1/2-x,1/2-y,z
y,1/2-x,1/2+z
x,1/2-y,1/2-z
1/2-x,y,1/2-z
y,x,-z
1/2-y,1/2-x,-z
-x,-y,-z
1/2+y,-x,1/2-z
1/2+x,1/2+y,-z
-y,1/2+x,1/2-z
-x,1/2+y,1/2+z
1/2+x,-y,1/2+z
-y,-x,z
1/2+y,1/2+x,z
loop_
_atom_site_type_symbol
_atom_site_label
_atom_site_fract_x
_atom_site_fract_y
_atom_site_fract_z
Si Si1 0.917209 0.696081 0.495990
Si Si2 0.196554 0.921870 0.994627
Si Si3 0.702868 0.417289 0.334424
Si Si4 0.578419 0.790624 0.838658
Si Si5 0.332739 0.271928 0.654338
Si Si6 0.245049 0.634876 0.158785
O O1 0.877625 0.622376 0.500000
O O2 0.906829 0.738506 0.583041
O O3 0.888010 0.739879 0.414196
O O4 0.998228 0.670716 0.496808
O O5 0.128306 0.871695 0.992663
O O6 0.245786 0.902029 0.914119
O O7 0.243804 0.916085 0.079475
O O8 0.750000 0.404690 0.250000
O O9 0.635286 0.364714 0.334878
O O10 0.674875 0.499226 0.340053
O O11 0.589944 0.750000 0.750000
O O12 0.642603 0.846598 0.848062
O O13 0.250000 0.250000 0.633554
O O14 0.354348 0.250000 0.750000
O O15 0.250000 0.593152 0.250000
O O16 0.302384 0.697617 0.159733
O O17 0.166705 0.666705 0.147472
#
# Coordination Sequence:
#
# PCOD8317170 Si02
#       6
#    16  16  16  16  16  16
#     4  11  21  32  52  77 103 136 176 219 270 323
#     4  10  21  34  49  73 105 140 178 222 268 316
#     4  10  21  35  55  81 109 144 186 228 272 321
#     4  10  19  34  53  81 112 135 173 229 277 320
#     4  11  19  33  58  83 104 133 174 223 270 322
#     4   8  14  27  48  69  89 120 163 207 249 294
#
# _framework density 17.430259
#
# number of rings (size 3 to 8) (size 9 to 14) (size 15 to 20)
#    0.000    2.000    3.333    2.000    0.000    2.833 
#    0.000    0.000    0.000   12.000    0.000    0.000 
#    0.000    0.000    0.000    0.000    0.000    0.000 
#
# Total GULP energy -1189283.823400 kJ/mol
# GULP energy per Si atom -12388.373160 kJ/mol
# Density = 1.739059 g / cm^3
# Si number density = 17.430259 Si / 1000 Ang^3
#
#
#
# Elastic Constant Matrix: (Units=GPa)
#
#
# Indices 1 2 3 4 5 6 
#
# 1 90.3469 71.0585 49.4628 0.0000 0.0000 0.0000
# 2 71.0585 90.3540 49.4642 0.0000 0.0000 0.0000
# 3 49.4628 49.4642 153.6730 0.0000 0.0000 0.0000
# 4 0.0000 0.0000 0.0000 28.8494 0.0000 0.0000
# 5 0.0000 0.0000 0.0000 0.0000 28.8540 0.0000
# 6 0.0000 0.0000 0.0000 0.0000 0.0000 21.0354
#
#
#
# Elastic Compliance Matrix: (Units=1/GPa)
#
#
# Indices 1 2 3 4 5 6 
#
# 1 0.029778 -0.022058 -0.002484 0.000000 0.000000 0.000000
# 2 -0.022058 0.029775 -0.002484 0.000000 0.000000 0.000000
# 3 -0.002484 -0.002484 0.008107 0.000000 0.000000 0.000000
# 4 0.000000 0.000000 0.000000 0.034663 0.000000 0.000000
# 5 0.000000 0.000000 0.000000 0.000000 0.034657 0.000000
# 6 0.000000 0.000000 0.000000 0.000000 0.000000 0.047539
#
#
# Mechanical properties :
#
#
# Convention : Reuss Voigt Hill
#
# Bulk Modulus (GPa) = 73.49888 74.92720 74.21304
# Shear Modulus (GPa) = 20.56702 26.70699 23.63701
#
# Velocity S-wave (km/s) = 3.43878 3.91860 3.68651
# Velocity P-wave (km/s) = 7.61747 7.97208 7.79680
#
# Compressibility (1/GPa) = 0.01360565
#
# Stress axis : x y z
#
# Youngs Moduli (GPa) = 33.58213 33.58490 123.35703
#
# Poissons Ratio (x) = 0.74083 0.30647
# Poissons Ratio (y) = 0.74077 0.30643
# Poissons Ratio (z) = 0.08343 0.08343
#
# Static dielectric constant tensor:
#      x y z
#    x 3.188510 0.000000 0.000000 
#    y 0.000000 3.188530 0.000000 
#    z 0.000000 0.000000 3.649950 
# 
# 
# High freq. dielectric constant tensor:
#      x y z
#    x 1.654750 0.000000 0.000000 
#    y 0.000000 1.654750 0.000000 
#    z 0.000000 0.000000 1.703170 
# 
# From -- ./inp_files/7929.got.cif
#   From: 2010.03.12/outbox.cif.g09.slc.cpg/sg134_4_cif.got.tgz:7929.got - 2010.04.06 18:17:22.
