data_PCOD8317153
_publ_section_title
;
Structure prediction by ZEFSAII (Michael W. Deem and Ramdas Pophale) SiO2 
 PCOD8317153
Probable space group: P 42/N N M
;
_chemical_formula_sum "Si O2"
_cell_formula_units_Z 80
_cell_length_a 13.067940
_cell_length_b 13.067940
_cell_length_c 23.729051
_cell_angle_alpha 90.000000
_cell_angle_beta 90.000000
_cell_angle_gamma 90.000000
_cell_volume 4052.235093
_symmetry_space_group_name_H-M "P 42/N N M"
_symmetry_group_IT_number 134
_space_group.IT_coordinate_system_code '2'
_symmetry_cell_setting 'tetragonal'
loop_
_space_group_symop_operation_xyz
x,y,z
1/2-y,x,1/2+z
1/2-x,1/2-y,z
y,1/2-x,1/2+z
x,1/2-y,1/2-z
1/2-x,y,1/2-z
y,x,-z
1/2-y,1/2-x,-z
-x,-y,-z
1/2+y,-x,1/2-z
1/2+x,1/2+y,-z
-y,1/2+x,1/2-z
-x,1/2+y,1/2+z
1/2+x,-y,1/2+z
-y,-x,z
1/2+y,1/2+x,z
loop_
_atom_site_type_symbol
_atom_site_label
_atom_site_fract_x
_atom_site_fract_y
_atom_site_fract_z
Si Si1 0.029787 0.809472 0.908649
Si Si2 0.132062 0.026619 0.109674
Si Si3 0.822915 0.491509 0.200932
Si Si4 0.636510 0.532980 0.762667
Si Si5 0.745214 0.583713 0.509720
O O1 0.146235 0.853766 0.901902
O O2 0.994602 0.740451 0.856155
O O3 0.955138 0.904431 0.917537
O O4 0.013011 0.747747 0.966744
O O5 0.142164 0.069126 0.172844
O O6 0.236769 0.038656 0.073224
O O7 0.091539 0.908462 0.108793
O O8 0.750000 0.448341 0.250000
O O9 0.910179 0.410179 0.188554
O O10 0.873193 0.598196 0.223149
O O11 0.750000 0.496051 0.750000
O O12 0.562569 0.437432 0.753762
O O13 0.633850 0.633850 0.500000
O O14 0.830201 0.669800 0.500000
#
# Coordination Sequence:
#
# PCOD8317153 Si02
#       5
#    16  16  16  16  16
#     4  10  19  33  52  77 112 152 191 232 287 351
#     4   9  17  33  53  77 109 144 185 236 287 337
#     4  11  22  37  55  83 118 152 191 235 284 349
#     4  10  22  38  58  84 114 148 191 239 291 349
#     4   9  18  30  49  79 111 143 188 239 287 341
#
# _framework density 19.742193
#
# number of rings (size 3 to 8) (size 9 to 14) (size 15 to 20)
#    0.000    2.200    2.000    1.200    2.800    4.400 
#    0.000    0.000    0.000    1.800    0.000    2.800 
#    0.000    0.000    0.000    0.000    0.000    0.000 
#
# Total GULP energy -991111.724633 kJ/mol
# GULP energy per Si atom -12388.896558 kJ/mol
# Density = 1.969726 g / cm^3
# Si number density = 19.742193 Si / 1000 Ang^3
#
#
#
# Elastic Constant Matrix: (Units=GPa)
#
#
# Indices 1 2 3 4 5 6 
#
# 1 79.1741 36.9720 53.5715 0.0000 0.0000 0.0000
# 2 36.9720 79.1741 53.5714 0.0000 0.0000 0.0000
# 3 53.5715 53.5714 127.4892 0.0000 0.0000 0.0000
# 4 0.0000 0.0000 0.0000 18.4130 0.0000 0.0000
# 5 0.0000 0.0000 0.0000 0.0000 18.4130 0.0000
# 6 0.0000 0.0000 0.0000 0.0000 0.0000 6.7455
#
#
#
# Elastic Compliance Matrix: (Units=1/GPa)
#
#
# Indices 1 2 3 4 5 6 
#
# 1 0.018878 -0.004818 -0.005908 0.000000 0.000000 0.000000
# 2 -0.004818 0.018878 -0.005908 0.000000 0.000000 0.000000
# 3 -0.005908 -0.005908 0.012809 0.000000 0.000000 0.000000
# 4 0.000000 0.000000 0.000000 0.054310 0.000000 0.000000
# 5 0.000000 0.000000 0.000000 0.000000 0.054310 0.000000
# 6 0.000000 0.000000 0.000000 0.000000 0.000000 0.148248
#
#
# Mechanical properties :
#
#
# Convention : Reuss Voigt Hill
#
# Bulk Modulus (GPa) = 57.81465 63.78527 60.79996
# Shear Modulus (GPa) = 14.43149 18.16244 16.29697
#
# Velocity S-wave (km/s) = 2.70663 3.03641 2.87625
# Velocity P-wave (km/s) = 6.25429 6.68373 6.47258
#
# Compressibility (1/GPa) = 0.01729665
#
# Stress axis : x y z
#
# Youngs Moduli (GPa) = 52.97251 52.97256 78.07037
#
# Poissons Ratio (x) = 0.25521 0.46124
# Poissons Ratio (y) = 0.25521 0.46124
# Poissons Ratio (z) = 0.31296 0.31296
#
# Static dielectric constant tensor:
#      x y z
#    x 3.465370 0.000000 0.000000 
#    y 0.000000 3.465370 0.000000 
#    z 0.000000 0.000000 3.871940 
# 
# 
# High freq. dielectric constant tensor:
#      x y z
#    x 1.742470 0.000000 0.000000 
#    y 0.000000 1.742470 0.000000 
#    z 0.000000 0.000000 1.779230 
# 
# From -- ./inp_files/8881.got.cif
#   From: 2010.03.12/outbox.cif.g09.slc.cpg/sg134_5_cif.got.tgz:8881.got - 2010.04.06 18:17:22.
