data_PCOD8317851
_publ_section_title
;
Structure prediction by ZEFSAII (Michael W. Deem and Ramdas Pophale) SiO2 
 PCOD8317851
Probable space group: P 42/M N M
;
_chemical_formula_sum "Si O2"
_cell_formula_units_Z 72
_cell_length_a 19.342707
_cell_length_b 19.342707
_cell_length_c 9.237141
_cell_angle_alpha 90.000000
_cell_angle_beta 90.000000
_cell_angle_gamma 90.000000
_cell_volume 3455.986835
_symmetry_space_group_name_H-M "P 42/M N M"
_symmetry_group_IT_number 136
_symmetry_cell_setting 'tetragonal'
loop_
_space_group_symop_operation_xyz
x,y,z
1/2-y,1/2+x,1/2+z
-x,-y,z
1/2+y,1/2-x,1/2+z
1/2+x,1/2-y,1/2-z
1/2-x,1/2+y,1/2-z
y,x,-z
-y,-x,-z
-x,-y,-z
1/2+y,1/2-x,1/2-z
x,y,-z
1/2-y,1/2+x,1/2-z
1/2-x,1/2+y,1/2+z
1/2+x,1/2-y,1/2+z
-y,-x,z
y,x,z
loop_
_atom_site_type_symbol
_atom_site_label
_atom_site_fract_x
_atom_site_fract_y
_atom_site_fract_z
Si Si1 0.870015 0.761975 0.163455
Si Si2 0.022660 0.790857 0.827132
Si Si3 0.055344 0.944657 0.172274
Si Si4 0.696022 0.147896 0.161161
Si Si5 0.068942 0.560066 0.161266
O O1 0.840366 0.840366 0.166777
O O2 0.810927 0.715998 0.242337
O O3 0.947887 0.763763 0.231733
O O4 0.874974 0.733924 0.000000
O O5 0.035433 0.868507 0.770174
O O6 0.086879 0.743625 0.770638
O O7 0.020699 0.788222 0.000000
O O8 0.054936 0.945065 0.000000
O O9 0.000000 0.000000 0.233036
O O10 0.616930 0.126441 0.152042
O O11 0.724049 0.166171 0.000000
O O12 0.093683 0.500374 0.270563
O O13 0.053903 0.531075 0.000000
#
# Coordination Sequence:
#
# PCOD8317851 Si02
#       5
#    16  16   8  16  16
#     4  10  21  37  57  81 113 149 184 229 286 343
#     4   9  18  33  53  80 112 145 182 229 281 331
#     4   9  16  28  52  82 107 135 179 232 283 330
#     4  10  21  34  52  78 109 145 183 224 274 333
#     4  10  19  31  48  72 102 140 184 227 274 324
#
# _framework density 20.833411000000002
#
# number of rings (size 3 to 8) (size 9 to 14) (size 15 to 20)
#    0.000    2.333    0.000    3.333    1.556    6.667 
#    0.000    1.111    0.000    0.000    0.000    0.000 
#    0.000    3.556    0.000    0.000    0.000    0.000 
#
# Total GULP energy -891943.718876 kJ/mol
# GULP energy per Si atom -12388.107207 kJ/mol
# Density = 2.078599 g / cm^3
# Si number density = 20.833411 Si / 1000 Ang^3
#
#
#
# Elastic Constant Matrix: (Units=GPa)
#
#
# Indices 1 2 3 4 5 6 
#
# 1 93.1669 62.5971 17.9214 0.0000 0.0000 0.0000
# 2 62.5971 93.1669 17.9214 0.0000 0.0000 0.0000
# 3 17.9214 17.9214 61.6030 0.0000 0.0000 0.0000
# 4 0.0000 0.0000 0.0000 17.1841 0.0000 0.0000
# 5 0.0000 0.0000 0.0000 0.0000 17.1840 0.0000
# 6 0.0000 0.0000 0.0000 0.0000 0.0000 44.8881
#
#
#
# Elastic Compliance Matrix: (Units=1/GPa)
#
#
# Indices 1 2 3 4 5 6 
#
# 1 0.019796 -0.012916 -0.002002 0.000000 0.000000 0.000000
# 2 -0.012916 0.019796 -0.002002 0.000000 0.000000 0.000000
# 3 -0.002002 -0.002002 0.017398 0.000000 0.000000 0.000000
# 4 0.000000 0.000000 0.000000 0.058193 0.000000 0.000000
# 5 0.000000 0.000000 0.000000 0.000000 0.058194 0.000000
# 6 0.000000 0.000000 0.000000 0.000000 0.000000 0.022278
#
#
# Mechanical properties :
#
#
# Convention : Reuss Voigt Hill
#
# Bulk Modulus (GPa) = 43.19268 49.42404 46.30836
# Shear Modulus (GPa) = 21.07835 25.81771 23.44803
#
# Velocity S-wave (km/s) = 3.18426 3.52411 3.35849
# Velocity P-wave (km/s) = 5.85635 6.35091 6.10864
#
# Compressibility (1/GPa) = 0.02315207
#
# Stress axis : x y z
#
# Youngs Moduli (GPa) = 50.51460 50.51460 57.47909
#
# Poissons Ratio (x) = 0.65243 0.11505
# Poissons Ratio (y) = 0.65243 0.11505
# Poissons Ratio (z) = 0.10111 0.10111
#
# Static dielectric constant tensor:
#      x y z
#    x 3.802290 0.000000 0.000000 
#    y 0.000000 3.802280 0.000000 
#    z 0.000000 0.000000 3.567200 
# 
# 
# High freq. dielectric constant tensor:
#      x y z
#    x 1.823880 0.000000 0.000000 
#    y 0.000000 1.823880 0.000000 
#    z 0.000000 0.000000 1.759760 
# 
# From -- ./inp_files/1534.got.cif
#   From: 2010.03.12/outbox.cif.g09.slc.cpg/sg136_1_cif.got.tgz:1534.got - 2010.04.06 18:39:43.
