data_PCOD8317829
_publ_section_title
;
Structure prediction by ZEFSAII (Michael W. Deem and Ramdas Pophale) SiO2 
 PCOD8317829
Probable space group: P 42/M N M
;
_chemical_formula_sum "Si O2"
_cell_formula_units_Z 64
_cell_length_a 20.215101
_cell_length_b 20.215101
_cell_length_c 8.616503
_cell_angle_alpha 90.000000
_cell_angle_beta 90.000000
_cell_angle_gamma 90.000000
_cell_volume 3521.136609
_symmetry_space_group_name_H-M "P 42/M N M"
_symmetry_group_IT_number 136
_symmetry_cell_setting 'tetragonal'
loop_
_space_group_symop_operation_xyz
x,y,z
1/2-y,1/2+x,1/2+z
-x,-y,z
1/2+y,1/2-x,1/2+z
1/2+x,1/2-y,1/2-z
1/2-x,1/2+y,1/2-z
y,x,-z
-y,-x,-z
-x,-y,-z
1/2+y,1/2-x,1/2-z
x,y,-z
1/2-y,1/2+x,1/2-z
1/2-x,1/2+y,1/2+z
1/2+x,1/2-y,1/2+z
-y,-x,z
y,x,z
loop_
_atom_site_type_symbol
_atom_site_label
_atom_site_fract_x
_atom_site_fract_y
_atom_site_fract_z
Si Si1 0.926216 0.073785 0.184946
Si Si2 0.321674 0.678327 0.316495
Si Si3 0.822642 0.177359 0.816615
Si Si4 0.573707 0.426294 0.315523
Si Si5 0.930748 0.428059 0.816443
Si Si6 0.680234 0.825474 0.316676
O O1 0.874227 0.125774 0.259183
O O2 0.999944 0.092502 0.242537
O O3 0.923607 0.076394 0.000000
O O4 0.322120 0.677881 0.500000
O O5 0.374123 0.625878 0.247103
O O6 0.249841 0.655671 0.259062
O O7 0.748237 0.159177 0.762869
O O8 0.827589 0.172412 0.000000
O O9 0.575000 0.425001 0.500000
O O10 0.908086 0.501256 0.767580
O O11 0.875252 0.376641 0.759643
O O12 0.941735 0.425063 0.000000
O O13 0.689841 0.828388 0.500000
#
# Coordination Sequence:
#
# PCOD8317829 Si02
#       6
#     8   8   8   8  16  16
#     4   8  13  24  42  64  93 122 149 189 231 271
#     4  10  19  30  48  73  99 126 159 204 246 283
#     4   8  14  27  46  64  86 122 163 194 226 277
#     4   8  15  25  39  67  99 120 145 187 239 279
#     4  10  20  34  52  73  99 130 164 206 251 299
#     4   9  19  34  49  68  96 130 165 199 241 293
#
# _framework density 18.175948000000002
#
# number of rings (size 3 to 8) (size 9 to 14) (size 15 to 20)
#    0.000    3.000    0.000    3.375    0.000    4.000 
#    0.000    5.000    0.000    0.000    0.000    8.750 
#    0.000    0.000    0.000    0.000    0.000    0.000 
#
# Total GULP energy -793382.871472 kJ/mol
# GULP energy per Si atom -12396.607367 kJ/mol
# Density = 1.813458 g / cm^3
# Si number density = 18.175948 Si / 1000 Ang^3
#
#
#
# Elastic Constant Matrix: (Units=GPa)
#
#
# Indices 1 2 3 4 5 6 
#
# 1 148.2021 127.5584 16.8269 0.0000 0.0000 0.0000
# 2 127.5584 148.2023 16.8273 0.0000 0.0000 0.0000
# 3 16.8269 16.8273 22.2259 0.0000 0.0000 0.0000
# 4 0.0000 0.0000 0.0000 19.2278 0.0000 0.0000
# 5 0.0000 0.0000 0.0000 0.0000 19.2278 0.0000
# 6 0.0000 0.0000 0.0000 0.0000 0.0000 48.6419
#
#
#
# Elastic Compliance Matrix: (Units=1/GPa)
#
#
# Indices 1 2 3 4 5 6 
#
# 1 0.026218 -0.022223 -0.003024 0.000000 0.000000 0.000000
# 2 -0.022223 0.026218 -0.003025 0.000000 0.000000 0.000000
# 3 -0.003024 -0.003025 0.049573 0.000000 0.000000 0.000000
# 4 0.000000 0.000000 0.000000 0.052008 0.000000 0.000000
# 5 0.000000 0.000000 0.000000 0.000000 0.052008 0.000000
# 6 0.000000 0.000000 0.000000 0.000000 0.000000 0.020558
#
#
# Mechanical properties :
#
#
# Convention : Reuss Voigt Hill
#
# Bulk Modulus (GPa) = 21.99543 71.22838 46.61190
# Shear Modulus (GPa) = 16.76259 27.91402 22.33831
#
# Velocity S-wave (km/s) = 3.04014 3.92314 3.50952
# Velocity P-wave (km/s) = 4.94478 7.73270 6.49021
#
# Compressibility (1/GPa) = 0.04546400
#
# Stress axis : x y z
#
# Youngs Moduli (GPa) = 38.14169 38.14157 20.17233
#
# Poissons Ratio (x) = 0.84760 0.06101
# Poissons Ratio (y) = 0.84761 0.06103
# Poissons Ratio (z) = 0.11536 0.11540
#
# Static dielectric constant tensor:
#      x y z
#    x 3.615170 0.000000 0.000000 
#    y 0.000000 3.615180 0.000000 
#    z 0.000000 0.000000 2.991770 
# 
# 
# High freq. dielectric constant tensor:
#      x y z
#    x 1.709560 0.000000 0.000000 
#    y 0.000000 1.709560 0.000000 
#    z 0.000000 0.000000 1.670210 
# 
# From -- ./inp_files/1503.got.cif
#   From: 2010.03.12/outbox.cif.g09.slc.cpg/sg136_1_cif.got.tgz:1503.got - 2010.04.06 18:39:43.
