data_PCOD8317654
_publ_section_title
;
Structure prediction by ZEFSAII (Michael W. Deem and Ramdas Pophale) SiO2 
 PCOD8317654
Probable space group: P 42/M B C
;
_chemical_formula_sum "Si O2"
_cell_formula_units_Z 116
_cell_length_a 17.110886
_cell_length_b 17.110886
_cell_length_c 18.953809
_cell_angle_alpha 90.000000
_cell_angle_beta 90.000000
_cell_angle_gamma 90.000000
_cell_volume 5549.342062
_symmetry_space_group_name_H-M "P 42/M B C"
_symmetry_group_IT_number 135
_symmetry_cell_setting 'tetragonal'
loop_
_space_group_symop_operation_xyz
x,y,z
-y,x,1/2+z
-x,-y,z
y,-x,1/2+z
1/2+x,1/2-y,-z
1/2-x,1/2+y,-z
1/2+y,1/2+x,1/2-z
1/2-y,1/2-x,1/2-z
-x,-y,-z
y,-x,1/2-z
x,y,-z
-y,x,1/2-z
1/2-x,1/2+y,z
1/2+x,1/2-y,z
1/2-y,1/2-x,1/2+z
1/2+y,1/2+x,1/2+z
loop_
_atom_site_type_symbol
_atom_site_label
_atom_site_fract_x
_atom_site_fract_y
_atom_site_fract_z
Si Si1 0.262514 0.645501 0.713287
Si Si2 0.047215 0.653029 0.582310
Si Si3 0.615095 0.124184 0.917002
Si Si4 0.853640 0.467557 0.661336
Si Si5 0.786457 0.164001 0.080088
Si Si6 0.500000 0.000000 0.750000
Si Si7 0.933090 0.095776 0.719711
Si Si8 0.671507 0.484162 0.080180
O O1 0.213824 0.713824 0.750000
O O2 0.215714 0.563093 0.711539
O O3 0.279957 0.667149 0.632271
O O4 0.341619 0.631564 0.756684
O O5 0.052148 0.637508 0.500000
O O6 0.118405 0.608541 0.618481
O O7 0.965339 0.618074 0.611458
O O8 0.055004 0.745077 0.598882
O O9 0.540516 0.172288 0.887631
O O10 0.695560 0.166991 0.896635
O O11 0.607014 0.120738 0.000000
O O12 0.921411 0.504108 0.706651
O O13 0.819944 0.076911 0.085757
O O14 0.796597 0.195006 0.000000
O O15 0.009878 0.103552 0.769528
O O16 0.954066 0.107955 0.636857
O O17 0.645700 0.461393 0.000000
#
# Coordination Sequence:
#
# PCOD8317654 Si02
#       8
#    16  16  16  16  16   4  16  16
#     4  12  26  42  62  94 131 171 212 265 331 397
#     4   9  17  32  58  88 120 161 208 257 306 372
#     4   9  18  35  60  85 116 161 210 257 314 376
#     4  12  22  35  55  87 130 164 209 255 311 379
#     4   9  20  41  64  92 128 167 214 267 325 391
#     4  12  24  36  46  84 136 168 196 258 294 374
#     4  11  24  45  69  95 128 166 217 274 323 379
#     4   9  18  38  68  95 123 168 217 261 321 390
#
# _framework density 20.903378
#
# number of rings (size 3 to 8) (size 9 to 14) (size 15 to 20)
#    0.000    1.793    3.448    2.897    0.000    3.310 
#    1.241    2.759    0.000    0.000    0.000    0.000 
#    0.000    0.000    0.000    0.000    0.000    0.000 
#
# Total GULP energy -1438259.031672 kJ/mol
# GULP energy per Si atom -12398.784756 kJ/mol
# Density = 2.085580 g / cm^3
# Si number density = 20.903378 Si / 1000 Ang^3
#
#
#
# Elastic Constant Matrix: (Units=GPa)
#
#
# Indices 1 2 3 4 5 6 
#
# 1 67.8929 28.4728 33.4900 0.0000 0.0000 0.0000
# 2 28.4728 67.8929 33.4900 0.0000 0.0000 0.0000
# 3 33.4900 33.4900 95.1273 0.0000 0.0000 0.0000
# 4 0.0000 0.0000 0.0000 9.8483 0.0000 0.0000
# 5 0.0000 0.0000 0.0000 0.0000 9.8483 0.0000
# 6 0.0000 0.0000 0.0000 0.0000 0.0000 26.6697
#
#
#
# Elastic Compliance Matrix: (Units=1/GPa)
#
#
# Indices 1 2 3 4 5 6 
#
# 1 0.019553 -0.005814 -0.004837 0.000000 0.000000 0.000000
# 2 -0.005814 0.019553 -0.004837 0.000000 0.000000 0.000000
# 3 -0.004837 -0.004837 0.013918 0.000000 0.000000 0.000000
# 4 0.000000 0.000000 0.000000 0.101540 0.000000 0.000000
# 5 0.000000 0.000000 0.000000 0.000000 0.101540 0.000000
# 6 0.000000 0.000000 0.000000 0.000000 0.000000 0.037496
#
#
# Mechanical properties :
#
#
# Convention : Reuss Voigt Hill
#
# Bulk Modulus (GPa) = 45.35460 46.86874 46.11167
# Shear Modulus (GPa) = 15.06355 18.30394 16.68375
#
# Velocity S-wave (km/s) = 2.68736 2.96234 2.82820
# Velocity P-wave (km/s) = 5.60121 5.84559 5.72470
#
# Compressibility (1/GPa) = 0.02204848
#
# Stress axis : x y z
#
# Youngs Moduli (GPa) = 51.14193 51.14193 71.84976
#
# Poissons Ratio (x) = 0.29736 0.34753
# Poissons Ratio (y) = 0.29736 0.34753
# Poissons Ratio (z) = 0.24737 0.24737
#
# Static dielectric constant tensor:
#      x y z
#    x 3.750400 0.000000 0.000000 
#    y 0.000000 3.750400 0.000000 
#    z 0.000000 0.000000 3.864380 
# 
# 
# High freq. dielectric constant tensor:
#      x y z
#    x 1.805130 0.000000 0.000000 
#    y 0.000000 1.805130 0.000000 
#    z 0.000000 0.000000 1.824000 
# 
# From -- ./inp_files/4605.got.cif
#   From: 2010.03.12/outbox.cif.g09.slc.cpg/sg135_3_cif.got.tgz:4605.got - 2010.04.06 18:31:24.
