data_PCOD8317886
_publ_section_title
;
Structure prediction by ZEFSAII (Michael W. Deem and Ramdas Pophale) SiO2 
 PCOD8317886
Probable space group: P 42/M N M
;
_chemical_formula_sum "Si O2"
_cell_formula_units_Z 96
_cell_length_a 24.835713
_cell_length_b 24.835713
_cell_length_c 8.855642
_cell_angle_alpha 90.000000
_cell_angle_beta 90.000000
_cell_angle_gamma 90.000000
_cell_volume 5462.271923
_symmetry_space_group_name_H-M "P 42/M N M"
_symmetry_group_IT_number 136
_symmetry_cell_setting 'tetragonal'
loop_
_space_group_symop_operation_xyz
x,y,z
1/2-y,1/2+x,1/2+z
-x,-y,z
1/2+y,1/2-x,1/2+z
1/2+x,1/2-y,1/2-z
1/2-x,1/2+y,1/2-z
y,x,-z
-y,-x,-z
-x,-y,-z
1/2+y,1/2-x,1/2-z
x,y,-z
1/2-y,1/2+x,1/2-z
1/2-x,1/2+y,1/2+z
1/2+x,1/2-y,1/2+z
-y,-x,z
y,x,z
loop_
_atom_site_type_symbol
_atom_site_label
_atom_site_fract_x
_atom_site_fract_y
_atom_site_fract_z
Si Si1 0.094487 0.256993 0.825281
Si Si2 0.123707 0.582456 0.672956
Si Si3 0.573976 0.426025 0.679607
Si Si4 0.236182 0.982454 0.677938
Si Si5 0.659093 0.340908 0.322694
Si Si6 0.375586 0.462900 0.677412
Si Si7 0.537395 0.845362 0.323710
O O1 0.111410 0.318741 0.801598
O O2 0.144819 0.220020 0.773872
O O3 0.044506 0.239282 0.724657
O O4 0.077935 0.247249 0.000000
O O5 0.104388 0.587798 0.500000
O O6 0.129785 0.520331 0.721246
O O7 0.081434 0.610496 0.781692
O O8 0.573149 0.426852 0.500000
O O9 0.616723 0.383277 0.747089
O O10 0.591450 0.485030 0.738601
O O11 0.235530 0.976814 0.500000
O O12 0.181950 0.956101 0.742588
O O13 0.289065 0.951405 0.739326
O O14 0.653669 0.346332 0.500000
O O15 0.365296 0.468929 0.500000
O O16 0.410057 0.410057 0.716064
O O17 0.539112 0.832948 0.500000
#
# Coordination Sequence:
#
# PCOD8317886 Si02
#       7
#    16  16   8  16   8  16  16
#     4   9  17  32  53  77 104 136 176 214 258 311
#     4   9  19  34  53  80 109 136 171 215 260 309
#     4   9  15  26  49  78 104 134 176 222 262 310
#     4  11  21  33  51  74 103 137 175 216 259 307
#     4   9  14  25  52  78 101 135 177 222 258 305
#     4  10  19  32  51  74 102 138 180 222 266 316
#     4  10  21  37  58  80 106 139 173 208 256 317
#
# _framework density 17.575104
#
# number of rings (size 3 to 8) (size 9 to 14) (size 15 to 20)
#    0.000    2.333    1.667    3.250    0.000    5.000 
#    0.000    3.333    1.833    1.000    0.000    0.000 
#    0.000    0.000    0.000    0.000    0.000    0.000 
#
# Total GULP energy -1190216.410061 kJ/mol
# GULP energy per Si atom -12398.087605 kJ/mol
# Density = 1.753510 g / cm^3
# Si number density = 17.575104 Si / 1000 Ang^3
#
#
#
# Elastic Constant Matrix: (Units=GPa)
#
#
# Indices 1 2 3 4 5 6 
#
# 1 109.5107 69.8678 42.7411 0.0000 0.0000 0.0000
# 2 69.8678 109.5105 42.7412 0.0000 0.0000 0.0000
# 3 42.7411 42.7412 66.4022 0.0000 0.0000 0.0000
# 4 0.0000 0.0000 0.0000 22.3108 0.0000 0.0000
# 5 0.0000 0.0000 0.0000 0.0000 22.3108 0.0000
# 6 0.0000 0.0000 0.0000 0.0000 0.0000 28.5128
#
#
#
# Elastic Compliance Matrix: (Units=1/GPa)
#
#
# Indices 1 2 3 4 5 6 
#
# 1 0.016633 -0.008592 -0.005176 0.000000 0.000000 0.000000
# 2 -0.008592 0.016633 -0.005176 0.000000 0.000000 0.000000
# 3 -0.005176 -0.005176 0.021723 0.000000 0.000000 0.000000
# 4 0.000000 0.000000 0.000000 0.044821 0.000000 0.000000
# 5 0.000000 0.000000 0.000000 0.000000 0.044821 0.000000
# 6 0.000000 0.000000 0.000000 0.000000 0.000000 0.035072
#
#
# Mechanical properties :
#
#
# Convention : Reuss Voigt Hill
#
# Bulk Modulus (GPa) = 58.47342 66.23597 62.35469
# Shear Modulus (GPa) = 22.39212 23.29845 22.84528
#
# Velocity S-wave (km/s) = 3.57330 3.64490 3.60928
# Velocity P-wave (km/s) = 7.09700 7.44869 7.27497
#
# Compressibility (1/GPa) = 0.01710179
#
# Stress axis : x y z
#
# Youngs Moduli (GPa) = 60.12024 60.12006 46.03406
#
# Poissons Ratio (x) = 0.51655 0.23827
# Poissons Ratio (y) = 0.51655 0.23827
# Poissons Ratio (z) = 0.31118 0.31118
#
# Static dielectric constant tensor:
#      x y z
#    x 3.320600 0.000000 0.000000 
#    y 0.000000 3.320590 0.000000 
#    z 0.000000 0.000000 3.022980 
# 
# 
# High freq. dielectric constant tensor:
#      x y z
#    x 1.673170 0.000000 0.000000 
#    y 0.000000 1.673170 0.000000 
#    z 0.000000 0.000000 1.659750 
# 
# From -- ./inp_files/2041.got.cif
#   From: 2010.03.12/outbox.cif.g09.slc.cpg/sg136_2_cif.got.tgz:2041.got - 2010.04.06 18:39:43.
