data_PCOD8317145
_publ_section_title
;
Structure prediction by ZEFSAII (Michael W. Deem and Ramdas Pophale) SiO2 
 PCOD8317145
Probable space group: P 42/N N M
;
_chemical_formula_sum "Si O2"
_cell_formula_units_Z 88
_cell_length_a 12.474753
_cell_length_b 12.474753
_cell_length_c 26.927954
_cell_angle_alpha 90.000000
_cell_angle_beta 90.000000
_cell_angle_gamma 90.000000
_cell_volume 4190.513725
_symmetry_space_group_name_H-M "P 42/N N M"
_symmetry_group_IT_number 134
_space_group.IT_coordinate_system_code '2'
_symmetry_cell_setting 'tetragonal'
loop_
_space_group_symop_operation_xyz
x,y,z
1/2-y,x,1/2+z
1/2-x,1/2-y,z
y,1/2-x,1/2+z
x,1/2-y,1/2-z
1/2-x,y,1/2-z
y,x,-z
1/2-y,1/2-x,-z
-x,-y,-z
1/2+y,-x,1/2-z
1/2+x,1/2+y,-z
-y,1/2+x,1/2-z
-x,1/2+y,1/2+z
1/2+x,-y,1/2+z
-y,-x,z
1/2+y,1/2+x,z
loop_
_atom_site_type_symbol
_atom_site_label
_atom_site_fract_x
_atom_site_fract_y
_atom_site_fract_z
Si Si1 0.749514 0.077625 0.841427
Si Si2 0.838859 0.513913 0.932760
Si Si3 0.938565 0.750000 0.250000
Si Si4 0.500623 0.828475 0.515271
Si Si5 0.846431 0.526113 0.215938
Si Si6 0.679921 0.004137 0.101270
O O1 0.835396 0.164605 0.857734
O O2 0.635024 0.135024 0.829422
O O3 0.742146 0.992385 0.886234
O O4 0.791276 0.013948 0.793993
O O5 0.907932 0.407932 0.929459
O O6 0.909888 0.618999 0.927683
O O7 0.780752 0.509790 0.985093
O O8 0.868942 0.648937 0.231479
O O9 0.394507 0.894507 0.501006
O O10 0.492155 0.795531 0.573709
O O11 0.604386 0.895615 0.500000
O O12 0.750000 0.480995 0.250000
O O13 0.806218 0.524535 0.159065
O O14 0.951543 0.451543 0.222414
O O15 0.616755 0.116755 0.095740
#
# Coordination Sequence:
#
# PCOD8317145 Si02
#       6
#    16  16   8  16  16  16
#     4  10  19  31  55  91 129 168 207 254 320 392
#     4  10  20  38  62  91 123 159 207 259 314 379
#     4  12  21  39  62  92 132 169 214 270 333 396
#     4  11  25  42  61  91 129 164 208 266 324 383
#     4  11  25  45  68  97 133 177 229 278 327 391
#     4  10  22  43  68  92 124 170 219 263 318 389
#
# _framework density 20.999811999999999
#
# number of rings (size 3 to 8) (size 9 to 14) (size 15 to 20)
#    0.000    1.455    1.818    3.545    0.000    8.182 
#    3.273    3.636    0.000    0.000    0.000    0.000 
#    0.000    0.000    0.000    0.000    0.000    0.000 
#
# Total GULP energy -1091135.289060 kJ/mol
# GULP energy per Si atom -12399.264648 kJ/mol
# Density = 2.095202 g / cm^3
# Si number density = 20.999812 Si / 1000 Ang^3
#
#
#
# Elastic Constant Matrix: (Units=GPa)
#
#
# Indices 1 2 3 4 5 6 
#
# 1 77.8648 23.8331 41.4592 0.0000 0.0000 0.0000
# 2 23.8331 77.8670 41.4606 0.0000 0.0000 0.0000
# 3 41.4592 41.4606 132.5733 0.0000 0.0000 0.0000
# 4 0.0000 0.0000 0.0000 36.3870 0.0000 0.0000
# 5 0.0000 0.0000 0.0000 0.0000 36.3873 0.0000
# 6 0.0000 0.0000 0.0000 0.0000 0.0000 4.5850
#
#
#
# Elastic Compliance Matrix: (Units=1/GPa)
#
#
# Indices 1 2 3 4 5 6 
#
# 1 0.015853 -0.002654 -0.004127 0.000000 0.000000 0.000000
# 2 -0.002654 0.015853 -0.004128 0.000000 0.000000 0.000000
# 3 -0.004127 -0.004128 0.010125 0.000000 0.000000 0.000000
# 4 0.000000 0.000000 0.000000 0.027482 0.000000 0.000000
# 5 0.000000 0.000000 0.000000 0.000000 0.027482 0.000000
# 6 0.000000 0.000000 0.000000 0.000000 0.000000 0.218101
#
#
# Mechanical properties :
#
#
# Convention : Reuss Voigt Hill
#
# Bulk Modulus (GPa) = 49.97228 55.75678 52.86453
# Shear Modulus (GPa) = 14.56092 27.57534 21.06813
#
# Velocity S-wave (km/s) = 2.63607 3.62764 3.17085
# Velocity P-wave (km/s) = 5.75442 6.64493 6.21564
#
# Compressibility (1/GPa) = 0.02001110
#
# Stress axis : x y z
#
# Youngs Moduli (GPa) = 63.07967 63.08103 98.76913
#
# Poissons Ratio (x) = 0.16745 0.40767
# Poissons Ratio (y) = 0.16744 0.40768
# Poissons Ratio (z) = 0.26036 0.26037
#
# Static dielectric constant tensor:
#      x y z
#    x 3.707600 0.000000 0.000000 
#    y 0.000000 3.707590 0.000000 
#    z 0.000000 0.000000 3.716400 
# 
# 
# High freq. dielectric constant tensor:
#      x y z
#    x 1.813300 0.000000 0.000000 
#    y 0.000000 1.813300 0.000000 
#    z 0.000000 0.000000 1.838250 
# 
# From -- ./inp_files/11445.got.cif
#   From: 2010.03.12/outbox.cif.g09.slc.cpg/sg134_6_cif.got.tgz:11445.got - 2010.04.06 18:17:22.
