data_PCOD8317277
_publ_section_title
;
Structure prediction by ZEFSAII (Michael W. Deem and Ramdas Pophale) SiO2 
 PCOD8317277
Probable space group: P 42/N N M
;
_chemical_formula_sum "Si O2"
_cell_formula_units_Z 96
_cell_length_a 15.204045
_cell_length_b 15.204045
_cell_length_c 21.347756
_cell_angle_alpha 90.000000
_cell_angle_beta 90.000000
_cell_angle_gamma 90.000000
_cell_volume 4934.810986
_symmetry_space_group_name_H-M "P 42/N N M"
_symmetry_group_IT_number 134
_space_group.IT_coordinate_system_code '2'
_symmetry_cell_setting 'tetragonal'
loop_
_space_group_symop_operation_xyz
x,y,z
1/2-y,x,1/2+z
1/2-x,1/2-y,z
y,1/2-x,1/2+z
x,1/2-y,1/2-z
1/2-x,y,1/2-z
y,x,-z
1/2-y,1/2-x,-z
-x,-y,-z
1/2+y,-x,1/2-z
1/2+x,1/2+y,-z
-y,1/2+x,1/2-z
-x,1/2+y,1/2+z
1/2+x,-y,1/2+z
-y,-x,z
1/2+y,1/2+x,z
loop_
_atom_site_type_symbol
_atom_site_label
_atom_site_fract_x
_atom_site_fract_y
_atom_site_fract_z
Si Si1 0.977566 0.336914 0.789195
Si Si2 0.324360 0.824360 0.597626
Si Si3 0.956162 0.189513 0.573137
Si Si4 0.883968 0.523677 0.245042
Si Si5 0.109493 0.253348 0.483549
Si Si6 0.820489 0.179512 0.959653
Si Si7 0.010311 0.243604 0.145510
O O1 0.968211 0.250000 0.750000
O O2 0.882725 0.382725 0.788885
O O3 0.005836 0.322509 0.861382
O O4 0.051121 0.394892 0.757348
O O5 0.250000 0.750000 0.603245
O O6 0.353869 0.853869 0.527490
O O7 0.412171 0.786698 0.629045
O O8 0.897351 0.102650 0.553910
O O9 0.894821 0.275174 0.582180
O O10 0.025165 0.217256 0.520632
O O11 0.819709 0.548836 0.301253
O O12 0.839463 0.507778 0.177291
O O13 0.934828 0.434828 0.262549
O O14 0.185620 0.185620 0.500000
O O15 0.148594 0.351407 0.500000
O O16 0.079412 0.255219 0.411455
O O17 0.750000 0.250000 0.981629
#
# Coordination Sequence:
#
# PCOD8317277 Si02
#       7
#    16   8  16  16  16   8  16
#     4  10  23  40  61  87 119 161 210 264 313 366
#     4  11  20  36  64  98 130 158 198 250 322 380
#     4  10  21  39  62  88 117 157 202 252 313 372
#     4  10  22  41  61  91 129 162 209 256 305 381
#     4  11  25  42  62  89 126 163 213 264 310 370
#     4   9  18  34  58  88 122 148 191 254 303 370
#     4  11  22  40  63  92 126 169 203 252 315 376
#
# _framework density 19.453633
#
# number of rings (size 3 to 8) (size 9 to 14) (size 15 to 20)
#    0.000    1.667    2.500    1.500    3.500    1.167 
#    0.000    2.500    0.000    0.000    0.000    0.000 
#    0.000    0.000    0.000    0.000    0.000    0.000 
#
# Total GULP energy -1189735.397912 kJ/mol
# GULP energy per Si atom -12393.077062 kJ/mol
# Density = 1.940936 g / cm^3
# Si number density = 19.453633 Si / 1000 Ang^3
#
#
#
# Elastic Constant Matrix: (Units=GPa)
#
#
# Indices 1 2 3 4 5 6 
#
# 1 81.9372 36.4689 42.1362 0.0000 0.0000 0.0000
# 2 36.4689 81.9361 42.1361 0.0000 0.0000 0.0000
# 3 42.1362 42.1361 115.7735 0.0000 0.0000 0.0000
# 4 0.0000 0.0000 0.0000 27.0268 0.0000 0.0000
# 5 0.0000 0.0000 0.0000 0.0000 27.0265 0.0000
# 6 0.0000 0.0000 0.0000 0.0000 0.0000 14.6275
#
#
#
# Elastic Compliance Matrix: (Units=1/GPa)
#
#
# Indices 1 2 3 4 5 6 
#
# 1 0.016696 -0.005298 -0.004148 0.000000 0.000000 0.000000
# 2 -0.005298 0.016696 -0.004148 0.000000 0.000000 0.000000
# 3 -0.004148 -0.004148 0.011657 0.000000 0.000000 0.000000
# 4 0.000000 0.000000 0.000000 0.037000 0.000000 0.000000
# 5 0.000000 0.000000 0.000000 0.000000 0.037001 0.000000
# 6 0.000000 0.000000 0.000000 0.000000 0.000000 0.068364
#
#
# Mechanical properties :
#
#
# Convention : Reuss Voigt Hill
#
# Bulk Modulus (GPa) = 55.99155 57.90323 56.94739
# Shear Modulus (GPa) = 22.66992 24.32987 23.49990
#
# Velocity S-wave (km/s) = 3.41740 3.54030 3.47939
# Velocity P-wave (km/s) = 6.66453 6.82210 6.74378
#
# Compressibility (1/GPa) = 0.01785984
#
# Stress axis : x y z
#
# Youngs Moduli (GPa) = 59.89569 59.89477 85.78413
#
# Poissons Ratio (x) = 0.31731 0.35586
# Poissons Ratio (y) = 0.31731 0.35587
# Poissons Ratio (z) = 0.24847 0.24847
#
# Static dielectric constant tensor:
#      x y z
#    x 3.544830 0.000000 0.000000 
#    y 0.000000 3.544830 0.000000 
#    z 0.000000 0.000000 3.578290 
# 
# 
# High freq. dielectric constant tensor:
#      x y z
#    x 1.758470 0.000000 0.000000 
#    y 0.000000 1.758470 0.000000 
#    z 0.000000 0.000000 1.765410 
# 
# From -- ./inp_files/9184.got.cif
#   From: 2010.03.12/outbox.cif.g09.slc.cpg/sg134_5_cif.got.tgz:9184.got - 2010.04.06 18:17:22.
