data_PCOD8317312
_publ_section_title
;
Structure prediction by ZEFSAII (Michael W. Deem and Ramdas Pophale) SiO2 
 PCOD8317312
Probable space group: P 42/N N M
;
_chemical_formula_sum "Si O2"
_cell_formula_units_Z 88
_cell_length_a 11.888369
_cell_length_b 11.888369
_cell_length_c 29.214828
_cell_angle_alpha 90.000000
_cell_angle_beta 90.000000
_cell_angle_gamma 90.000000
_cell_volume 4129.028561
_symmetry_space_group_name_H-M "P 42/N N M"
_symmetry_group_IT_number 134
_space_group.IT_coordinate_system_code '2'
_symmetry_cell_setting 'tetragonal'
loop_
_space_group_symop_operation_xyz
x,y,z
1/2-y,x,1/2+z
1/2-x,1/2-y,z
y,1/2-x,1/2+z
x,1/2-y,1/2-z
1/2-x,y,1/2-z
y,x,-z
1/2-y,1/2-x,-z
-x,-y,-z
1/2+y,-x,1/2-z
1/2+x,1/2+y,-z
-y,1/2+x,1/2-z
-x,1/2+y,1/2+z
1/2+x,-y,1/2+z
-y,-x,z
1/2+y,1/2+x,z
loop_
_atom_site_type_symbol
_atom_site_label
_atom_site_fract_x
_atom_site_fract_y
_atom_site_fract_z
Si Si1 0.503446 0.811476 0.960010
Si Si2 0.336320 0.663681 0.300836
Si Si3 0.846604 0.965322 0.214222
Si Si4 0.959584 0.750000 0.250000
Si Si5 0.542294 0.638560 0.890800
Si Si6 0.267312 0.433963 0.441822
Si Si7 0.664751 0.335250 0.595214
O O1 0.465742 0.724810 0.920565
O O2 0.626508 0.852174 0.944895
O O3 0.413481 0.913481 0.966156
O O4 0.518900 0.741299 0.007117
O O5 0.250000 0.750000 0.275715
O O6 0.464441 0.690589 0.288114
O O7 0.316171 0.683830 0.352651
O O8 0.750000 0.004255 0.250000
O O9 0.881361 0.839793 0.225915
O O10 0.809858 0.956142 0.160708
O O11 0.948831 0.051170 0.220223
O O12 0.483608 0.516393 0.889840
O O13 0.663020 0.625603 0.916145
O O14 0.306636 0.537059 0.412230
O O15 0.750000 0.250000 0.568433
#
# Coordination Sequence:
#
# PCOD8317312 Si02
#       7
#    16   8  16   8  16  16   8
#     4  11  23  43  67  95 135 178 226 266 324 399
#     4  11  20  34  59  95 132 172 196 251 349 412
#     4  11  26  47  67  94 131 172 225 279 333 398
#     4  12  20  40  66  92 128 163 207 276 334 402
#     4  11  26  44  65  97 133 171 220 280 333 389
#     4  11  21  43  65  95 135 174 214 269 331 395
#     4  11  22  33  59  95 130 167 215 260 318 402
#
# _framework density 21.312518000000001
#
# number of rings (size 3 to 8) (size 9 to 14) (size 15 to 20)
#    0.000    0.909    3.636    3.545    0.000   12.182 
#    0.000    1.818    0.000    0.000    0.000    0.000 
#    0.000    0.000    0.000    0.000    0.000    0.000 
#
# Total GULP energy -1090474.561182 kJ/mol
# GULP energy per Si atom -12391.756377 kJ/mol
# Density = 2.126401 g / cm^3
# Si number density = 21.312518 Si / 1000 Ang^3
#
#
#
# Elastic Constant Matrix: (Units=GPa)
#
#
# Indices 1 2 3 4 5 6 
#
# 1 90.2388 8.7482 49.1000 0.0000 0.0000 0.0000
# 2 8.7482 90.2388 49.1000 0.0000 0.0000 0.0000
# 3 49.1000 49.1000 163.8081 0.0000 0.0000 0.0000
# 4 0.0000 0.0000 0.0000 31.5214 0.0000 0.0000
# 5 0.0000 0.0000 0.0000 0.0000 31.5214 0.0000
# 6 0.0000 0.0000 0.0000 0.0000 0.0000 21.7559
#
#
#
# Elastic Compliance Matrix: (Units=1/GPa)
#
#
# Indices 1 2 3 4 5 6 
#
# 1 0.013324 0.001053 -0.004310 0.000000 0.000000 0.000000
# 2 0.001053 0.013324 -0.004310 0.000000 0.000000 0.000000
# 3 -0.004310 -0.004310 0.008688 0.000000 0.000000 0.000000
# 4 0.000000 0.000000 0.000000 0.031725 0.000000 0.000000
# 5 0.000000 0.000000 0.000000 0.000000 0.031725 0.000000
# 6 0.000000 0.000000 0.000000 0.000000 0.000000 0.045965
#
#
# Mechanical properties :
#
#
# Convention : Reuss Voigt Hill
#
# Bulk Modulus (GPa) = 49.49219 62.02025 55.75622
# Shear Modulus (GPa) = 30.00880 32.78223 31.39552
#
# Velocity S-wave (km/s) = 3.75645 3.92620 3.84227
# Velocity P-wave (km/s) = 6.48746 7.05103 6.77511
#
# Compressibility (1/GPa) = 0.02020521
#
# Stress axis : x y z
#
# Youngs Moduli (GPa) = 75.04977 75.04977 115.09847
#
# Poissons Ratio (x) = -0.07904 0.49602
# Poissons Ratio (y) = -0.07904 0.49602
# Poissons Ratio (z) = 0.32343 0.32343
#
# Static dielectric constant tensor:
#      x y z
#    x 3.729750 0.000000 0.000000 
#    y 0.000000 3.729750 0.000000 
#    z 0.000000 0.000000 4.126100 
# 
# 
# High freq. dielectric constant tensor:
#      x y z
#    x 1.833960 0.000000 0.000000 
#    y 0.000000 1.833960 0.000000 
#    z 0.000000 0.000000 1.856100 
# 
# From -- ./inp_files/11517.got.cif
#   From: 2010.03.12/outbox.cif.g09.slc.cpg/sg134_6_cif.got.tgz:11517.got - 2010.04.06 18:17:22.
