data_PCOD8317524
_publ_section_title
;
Structure prediction by ZEFSAII (Michael W. Deem and Ramdas Pophale) SiO2 
 PCOD8317524
Probable space group: P 42/M B C
;
_chemical_formula_sum "Si O2"
_cell_formula_units_Z 80
_cell_length_a 12.837272
_cell_length_b 12.837272
_cell_length_c 25.999943
_cell_angle_alpha 90.000000
_cell_angle_beta 90.000000
_cell_angle_gamma 90.000000
_cell_volume 4284.674969
_symmetry_space_group_name_H-M "P 42/M B C"
_symmetry_group_IT_number 135
_symmetry_cell_setting 'tetragonal'
loop_
_space_group_symop_operation_xyz
x,y,z
-y,x,1/2+z
-x,-y,z
y,-x,1/2+z
1/2+x,1/2-y,-z
1/2-x,1/2+y,-z
1/2+y,1/2+x,1/2-z
1/2-y,1/2-x,1/2-z
-x,-y,-z
y,-x,1/2-z
x,y,-z
-y,x,1/2-z
1/2-x,1/2+y,z
1/2+x,1/2-y,z
1/2-y,1/2-x,1/2+z
1/2+y,1/2+x,1/2+z
loop_
_atom_site_type_symbol
_atom_site_label
_atom_site_fract_x
_atom_site_fract_y
_atom_site_fract_z
Si Si1 0.519634 0.118779 0.943811
Si Si2 0.712926 0.880922 0.358665
Si Si3 0.241350 0.053307 0.193748
Si Si4 0.135842 0.298909 0.366672
Si Si5 0.567792 0.274727 0.202444
O O1 0.425948 0.156602 0.908212
O O2 0.630515 0.133762 0.916970
O O3 0.500000 0.000000 0.953815
O O4 0.520174 0.175343 0.000000
O O5 0.632968 0.838368 0.314381
O O6 0.781762 0.788731 0.380533
O O7 0.788462 0.966784 0.333479
O O8 0.251921 0.974302 0.241188
O O9 0.134051 0.118228 0.199433
O O10 0.246104 0.976400 0.144476
O O11 0.176131 0.364848 0.317103
#
# Coordination Sequence:
#
# PCOD8317524 Si02
#       5
#    16  16  16  16  16
#     4  10  20  38  61  82 104 141 188 229 279 330
#     4  10  21  37  55  83 111 142 185 228 271 326
#     4  11  20  36  53  79 115 150 182 225 265 319
#     4  10  21  36  56  82 111 144 182 227 276 324
#     4  10  22  33  54  81 110 151 187 218 267 329
#
# _framework density 18.671195000000001
#
# number of rings (size 3 to 8) (size 9 to 14) (size 15 to 20)
#    0.000    1.800    2.000    2.400    0.000    6.800 
#    0.000    2.000    0.000    0.000    0.000    5.600 
#    0.000    0.000    0.000    0.000    0.000    0.000 
#
# Total GULP energy -991480.430825 kJ/mol
# GULP energy per Si atom -12393.505385 kJ/mol
# Density = 1.862870 g / cm^3
# Si number density = 18.671195 Si / 1000 Ang^3
#
#
#
# Elastic Constant Matrix: (Units=GPa)
#
#
# Indices 1 2 3 4 5 6 
#
# 1 100.1363 55.4763 53.2077 0.0000 0.0000 0.0000
# 2 55.4763 100.1363 53.2077 0.0000 0.0000 0.0000
# 3 53.2077 53.2077 115.6075 0.0000 0.0000 0.0000
# 4 0.0000 0.0000 0.0000 37.9380 0.0000 0.0000
# 5 0.0000 0.0000 0.0000 0.0000 37.9380 0.0000
# 6 0.0000 0.0000 0.0000 0.0000 0.0000 23.9771
#
#
#
# Elastic Compliance Matrix: (Units=1/GPa)
#
#
# Indices 1 2 3 4 5 6 
#
# 1 0.015885 -0.006507 -0.004316 0.000000 0.000000 0.000000
# 2 -0.006507 0.015885 -0.004316 0.000000 0.000000 0.000000
# 3 -0.004316 -0.004316 0.012623 0.000000 0.000000 0.000000
# 4 0.000000 0.000000 0.000000 0.026359 0.000000 0.000000
# 5 0.000000 0.000000 0.000000 0.000000 0.026359 0.000000
# 6 0.000000 0.000000 0.000000 0.000000 0.000000 0.041706
#
#
# Mechanical properties :
#
#
# Convention : Reuss Voigt Hill
#
# Bulk Modulus (GPa) = 70.85107 71.07369 70.96238
# Shear Modulus (GPa) = 28.76892 30.23650 29.50271
#
# Velocity S-wave (km/s) = 3.92958 4.02857 3.97938
# Velocity P-wave (km/s) = 7.65624 7.73225 7.69434
#
# Compressibility (1/GPa) = 0.01411411
#
# Stress axis : x y z
#
# Youngs Moduli (GPa) = 62.95415 62.95415 79.22152
#
# Poissons Ratio (x) = 0.40963 0.34192
# Poissons Ratio (y) = 0.40963 0.34192
# Poissons Ratio (z) = 0.27171 0.27171
#
# Static dielectric constant tensor:
#      x y z
#    x 3.102990 0.000000 0.000000 
#    y 0.000000 3.102990 0.000000 
#    z 0.000000 0.000000 3.460180 
# 
# 
# High freq. dielectric constant tensor:
#      x y z
#    x 1.728230 0.000000 0.000000 
#    y 0.000000 1.728230 0.000000 
#    z 0.000000 0.000000 1.710950 
# 
# From -- ./inp_files/6678.got.cif
#   From: 2010.03.12/outbox.cif.g09.slc.cpg/sg135_4_cif.got.tgz:6678.got - 2010.04.06 18:31:24.
