data_PCOD8317201
_publ_section_title
;
Structure prediction by ZEFSAII (Michael W. Deem and Ramdas Pophale) SiO2 
 PCOD8317201
Probable space group: P 42/N N M
;
_chemical_formula_sum "Si O2"
_cell_formula_units_Z 112
_cell_length_a 17.051412
_cell_length_b 17.051412
_cell_length_c 22.586983
_cell_angle_alpha 90.000000
_cell_angle_beta 90.000000
_cell_angle_gamma 90.000000
_cell_volume 6567.180016
_symmetry_space_group_name_H-M "P 42/N N M"
_symmetry_group_IT_number 134
_space_group.IT_coordinate_system_code '2'
_symmetry_cell_setting 'tetragonal'
loop_
_space_group_symop_operation_xyz
x,y,z
1/2-y,x,1/2+z
1/2-x,1/2-y,z
y,1/2-x,1/2+z
x,1/2-y,1/2-z
1/2-x,y,1/2-z
y,x,-z
1/2-y,1/2-x,-z
-x,-y,-z
1/2+y,-x,1/2-z
1/2+x,1/2+y,-z
-y,1/2+x,1/2-z
-x,1/2+y,1/2+z
1/2+x,-y,1/2+z
-y,-x,z
1/2+y,1/2+x,z
loop_
_atom_site_type_symbol
_atom_site_label
_atom_site_fract_x
_atom_site_fract_y
_atom_site_fract_z
Si Si1 0.041318 0.338650 0.480146
Si Si2 0.026204 0.840257 0.750000
Si Si3 0.915294 0.541036 0.359322
Si Si4 0.839768 0.466831 0.602613
Si Si5 0.415294 0.458965 0.640679
Si Si6 0.660232 0.033170 0.897386
Si Si7 0.458686 0.161347 0.019854
O O1 0.121856 0.378145 0.500000
O O2 0.009511 0.378117 0.420339
O O3 0.062741 0.249999 0.465838
O O4 0.976163 0.346238 0.531468
O O5 0.055340 0.750000 0.750000
O O6 0.968829 0.853204 0.806407
O O7 0.968829 0.853204 0.693594
O O8 0.103439 0.896562 0.750000
O O9 0.987882 0.487882 0.341993
O O10 0.952802 0.628273 0.366467
O O11 0.890551 0.390551 0.620792
O O12 0.750000 0.454283 0.622846
O O13 0.487882 0.512119 0.658011
O O14 0.452802 0.371729 0.633532
O O15 0.378118 0.490493 0.579662
O O16 0.609449 0.109449 0.879206
O O17 0.653761 0.023841 0.968532
O O18 0.378150 0.121851 0.000000
#
# Coordination Sequence:
#
# PCOD8317201 Si02
#       7
#    16  16  16  16  16  16  16
#     4   9  16  26  42  64  90 119 150 186 226 269
#     4  10  20  33  51  73  96 124 154 184 218 256
#     4   9  17  30  47  66  89 121 159 190 218 263
#     4   9  17  29  46  68  92 118 150 190 235 279
#     4   9  17  30  47  66  89 121 159 190 218 263
#     4   9  17  29  46  68  92 118 150 190 235 279
#     4   9  16  26  42  64  90 119 150 186 226 269
#
# _framework density 17.054504000000001
#
# number of rings (size 3 to 8) (size 9 to 14) (size 15 to 20)
#    0.000    2.857    0.000    1.714    0.000    4.143 
#    0.000    0.714    0.000    3.429    0.000    4.000 
#    0.000    5.714    0.000    0.000    0.000    0.000 
#
# Total GULP energy -1387821.592386 kJ/mol
# GULP energy per Si atom -12391.264218 kJ/mol
# Density = 1.701569 g / cm^3
# Si number density = 17.054504 Si / 1000 Ang^3
#
#
#
# Elastic Constant Matrix: (Units=GPa)
#
#
# Indices 1 2 3 4 5 6 
#
# 1 95.2867 35.8083 27.2837 0.0000 0.0000 0.0000
# 2 35.8083 95.2867 27.2837 0.0000 0.0000 0.0000
# 3 27.2837 27.2837 81.0469 0.0000 0.0000 0.0000
# 4 0.0000 0.0000 0.0000 18.8364 0.0000 0.0000
# 5 0.0000 0.0000 0.0000 0.0000 18.8364 0.0000
# 6 0.0000 0.0000 0.0000 0.0000 0.0000 18.7078
#
#
#
# Elastic Compliance Matrix: (Units=1/GPa)
#
#
# Indices 1 2 3 4 5 6 
#
# 1 0.012842 -0.003971 -0.002986 0.000000 0.000000 0.000000
# 2 -0.003971 0.012842 -0.002986 0.000000 0.000000 0.000000
# 3 -0.002986 -0.002986 0.014349 0.000000 0.000000 0.000000
# 4 0.000000 0.000000 0.000000 0.053089 0.000000 0.000000
# 5 0.000000 0.000000 0.000000 0.000000 0.053089 0.000000
# 6 0.000000 0.000000 0.000000 0.000000 0.000000 0.053454
#
#
# Mechanical properties :
#
#
# Convention : Reuss Voigt Hill
#
# Bulk Modulus (GPa) = 49.63781 50.26349 49.95065
# Shear Modulus (GPa) = 22.09783 23.35910 22.72847
#
# Velocity S-wave (km/s) = 3.60351 3.70493 3.65457
# Velocity P-wave (km/s) = 6.81779 6.91652 6.86733
#
# Compressibility (1/GPa) = 0.02014593
#
# Stress axis : x y z
#
# Youngs Moduli (GPa) = 77.86964 77.86964 69.69026
#
# Poissons Ratio (x) = 0.30921 0.20812
# Poissons Ratio (y) = 0.30921 0.20812
# Poissons Ratio (z) = 0.23255 0.23255
#
# Static dielectric constant tensor:
#      x y z
#    x 3.117070 0.000000 0.000000 
#    y 0.000000 3.117070 0.000000 
#    z 0.000000 0.000000 3.307320 
# 
# 
# High freq. dielectric constant tensor:
#      x y z
#    x 1.644700 0.000000 0.000000 
#    y 0.000000 1.644700 0.000000 
#    z 0.000000 0.000000 1.650440 
# 
# From -- ./inp_files/10244.got.cif
#   From: 2010.03.12/outbox.cif.g09.slc.cpg/sg134_6_cif.got.tgz:10244.got - 2010.04.06 18:17:22.
