data_PCOD8317478
_publ_section_title
;
Structure prediction by ZEFSAII (Michael W. Deem and Ramdas Pophale) SiO2 
 PCOD8317478
Probable space group: P 42/M B C
;
_chemical_formula_sum "Si O2"
_cell_formula_units_Z 112
_cell_length_a 14.423733
_cell_length_b 14.423733
_cell_length_c 29.209437
_cell_angle_alpha 90.000000
_cell_angle_beta 90.000000
_cell_angle_gamma 90.000000
_cell_volume 6076.850263
_symmetry_space_group_name_H-M "P 42/M B C"
_symmetry_group_IT_number 135
_symmetry_cell_setting 'tetragonal'
loop_
_space_group_symop_operation_xyz
x,y,z
-y,x,1/2+z
-x,-y,z
y,-x,1/2+z
1/2+x,1/2-y,-z
1/2-x,1/2+y,-z
1/2+y,1/2+x,1/2-z
1/2-y,1/2-x,1/2-z
-x,-y,-z
y,-x,1/2-z
x,y,-z
-y,x,1/2-z
1/2-x,1/2+y,z
1/2+x,1/2-y,z
1/2-y,1/2-x,1/2+z
1/2+y,1/2+x,1/2+z
loop_
_atom_site_type_symbol
_atom_site_label
_atom_site_fract_x
_atom_site_fract_y
_atom_site_fract_z
Si Si1 0.562073 0.577508 0.051596
Si Si2 0.147692 0.807220 0.648780
Si Si3 0.592844 0.619641 0.254439
Si Si4 0.926076 0.580989 0.052896
Si Si5 0.478526 0.734450 0.900327
Si Si6 0.738189 0.550284 0.892826
Si Si7 0.654990 0.706562 0.836195
O O1 0.500000 0.500000 0.078128
O O2 0.506904 0.673322 0.055946
O O3 0.664832 0.583786 0.070113
O O4 0.573313 0.546822 0.000000
O O5 0.135646 0.856295 0.697051
O O6 0.207271 0.876551 0.617385
O O7 0.198578 0.709760 0.656245
O O8 0.052036 0.782832 0.624532
O O9 0.625693 0.517444 0.240764
O O10 0.630908 0.691640 0.216962
O O11 0.976550 0.662550 0.080446
O O12 0.837140 0.552168 0.082598
O O13 0.000000 0.500000 0.052374
O O14 0.899423 0.606733 0.000000
O O15 0.556856 0.714591 0.862203
O O16 0.723802 0.622992 0.851473
#
# Coordination Sequence:
#
# PCOD8317478 Si02
#       7
#    16  16  16  16  16  16  16
#     4  10  20  34  56  87 121 150 195 255 306 356
#     4  12  22  39  62  88 126 160 204 255 308 371
#     4  11  22  37  63  91 121 159 202 256 314 372
#     4  11  24  44  64  87 126 166 209 255 303 371
#     4  11  22  39  62  88 117 163 207 248 312 367
#     4  11  22  38  62  90 117 159 206 249 310 365
#     4  11  23  39  62  89 121 164 203 255 308 371
#
# _framework density 18.430599999999998
#
# number of rings (size 3 to 8) (size 9 to 14) (size 15 to 20)
#    0.000    1.000    5.714    2.143    0.000    0.000 
#    0.000    0.000    0.000    0.000    0.000    6.000 
#    0.000    0.000    0.000    0.000    0.000    0.000 
#
# Total GULP energy -1388545.533271 kJ/mol
# GULP energy per Si atom -12397.727976 kJ/mol
# Density = 1.838865 g / cm^3
# Si number density = 18.430600 Si / 1000 Ang^3
#
#
#
# Elastic Constant Matrix: (Units=GPa)
#
#
# Indices 1 2 3 4 5 6 
#
# 1 90.1893 25.3290 23.3553 0.0000 0.0000 0.0000
# 2 25.3290 90.1893 23.3553 0.0000 0.0000 0.0000
# 3 23.3553 23.3553 78.3965 0.0000 0.0000 0.0000
# 4 0.0000 0.0000 0.0000 22.2406 0.0000 0.0000
# 5 0.0000 0.0000 0.0000 0.0000 22.2406 0.0000
# 6 0.0000 0.0000 0.0000 0.0000 0.0000 37.1357
#
#
#
# Elastic Compliance Matrix: (Units=1/GPa)
#
#
# Indices 1 2 3 4 5 6 
#
# 1 0.012630 -0.002788 -0.002932 0.000000 0.000000 0.000000
# 2 -0.002788 0.012630 -0.002932 0.000000 0.000000 0.000000
# 3 -0.002932 -0.002932 0.014503 0.000000 0.000000 0.000000
# 4 0.000000 0.000000 0.000000 0.044963 0.000000 0.000000
# 5 0.000000 0.000000 0.000000 0.000000 0.044963 0.000000
# 6 0.000000 0.000000 0.000000 0.000000 0.000000 0.026928
#
#
# Mechanical properties :
#
#
# Convention : Reuss Voigt Hill
#
# Bulk Modulus (GPa) = 44.52615 44.76158 44.64386
# Shear Modulus (GPa) = 27.56237 28.77244 28.16741
#
# Velocity S-wave (km/s) = 3.87132 3.95539 3.91358
# Velocity P-wave (km/s) = 6.64787 6.72305 6.68557
#
# Compressibility (1/GPa) = 0.02245871
#
# Stress axis : x y z
#
# Youngs Moduli (GPa) = 79.17657 79.17657 68.95271
#
# Poissons Ratio (x) = 0.22072 0.20218
# Poissons Ratio (y) = 0.22072 0.20218
# Poissons Ratio (z) = 0.23216 0.23216
#
# Static dielectric constant tensor:
#      x y z
#    x 3.442150 0.000000 0.000000 
#    y 0.000000 3.442150 0.000000 
#    z 0.000000 0.000000 3.401840 
# 
# 
# High freq. dielectric constant tensor:
#      x y z
#    x 1.720480 0.000000 0.000000 
#    y 0.000000 1.720480 0.000000 
#    z 0.000000 0.000000 1.719540 
# 
# From -- ./inp_files/6862.got.cif
#   From: 2010.03.12/outbox.cif.g09.slc.cpg/sg135_4_cif.got.tgz:6862.got - 2010.04.06 18:31:24.
