data_PCOD8317317
_publ_section_title
;
Structure prediction by ZEFSAII (Michael W. Deem and Ramdas Pophale) SiO2 
 PCOD8317317
Probable space group: P 42/N N M
;
_chemical_formula_sum "Si O2"
_cell_formula_units_Z 54
_cell_length_a 11.035864
_cell_length_b 11.035864
_cell_length_c 21.730703
_cell_angle_alpha 90.000000
_cell_angle_beta 90.000000
_cell_angle_gamma 90.000000
_cell_volume 2646.588712
_symmetry_space_group_name_H-M "P 42/N N M"
_symmetry_group_IT_number 134
_space_group.IT_coordinate_system_code '2'
_symmetry_cell_setting 'tetragonal'
loop_
_space_group_symop_operation_xyz
x,y,z
1/2-y,x,1/2+z
1/2-x,1/2-y,z
y,1/2-x,1/2+z
x,1/2-y,1/2-z
1/2-x,y,1/2-z
y,x,-z
1/2-y,1/2-x,-z
-x,-y,-z
1/2+y,-x,1/2-z
1/2+x,1/2+y,-z
-y,1/2+x,1/2-z
-x,1/2+y,1/2+z
1/2+x,-y,1/2+z
-y,-x,z
1/2+y,1/2+x,z
loop_
_atom_site_type_symbol
_atom_site_label
_atom_site_fract_x
_atom_site_fract_y
_atom_site_fract_z
Si Si1 0.659343 0.340658 0.994462
Si Si2 0.431899 0.568102 0.679390
Si Si3 0.025738 0.974262 0.114410
Si Si4 0.750000 0.250000 0.250000
Si Si5 0.255943 0.029054 0.587017
Si Si6 0.750000 0.750000 0.000000
Si Si7 0.108658 0.891343 0.240253
O O1 0.750000 0.250000 0.957084
O O2 0.576578 0.423423 0.950598
O O3 0.582159 0.257860 0.040199
O O4 0.338931 0.661070 0.712362
O O5 0.350454 0.480577 0.637238
O O6 0.517300 0.482701 0.722707
O O7 0.093656 0.906345 0.167937
O O8 0.883251 0.951843 0.121464
O O9 0.233214 0.140806 0.544881
O O10 0.077648 0.750000 0.250000
#
# Coordination Sequence:
#
# PCOD8317317 Si02
#       7
#     8   8   8   2  16   4   8
#     4  11  20  41  68  99 135 178 217 273 358 429
#     4  12  25  45  76 101 138 183 233 303 346 408
#     4  11  23  45  68  92 137 187 224 282 350 418
#     4  12  24  52  72 108 136 172 252 300 330 412
#     4  11  23  41  68 102 134 170 224 283 356 417
#     4  12  24  40  60 106 144 168 220 284 344 446
#     4  11  29  50  65  98 138 190 243 282 344 423
#
# _framework density 20.403621999999999
#
# number of rings (size 3 to 8) (size 9 to 14) (size 15 to 20)
#    0.000    0.741    4.444    4.444    6.222    0.593 
#    0.000    1.481    0.000    0.000    0.000    0.000 
#    0.000    0.000    0.000    0.000    0.000    0.000 
#
# Total GULP energy -669056.621370 kJ/mol
# GULP energy per Si atom -12389.937433 kJ/mol
# Density = 2.035718 g / cm^3
# Si number density = 20.403622 Si / 1000 Ang^3
#
#
#
# Elastic Constant Matrix: (Units=GPa)
#
#
# Indices 1 2 3 4 5 6 
#
# 1 **********26026.8148 52.2939 0.0000 0.0000 0.0000
# 2 26026.8148********** 52.2939 0.0000 0.0000 0.0000
# 3 52.2939 52.2939 109.3420 0.0000 0.0000 0.0000
# 4 0.0000 0.0000 0.0000 72.1538 0.0000 0.0000
# 5 0.0000 0.0000 0.0000 0.0000 72.1538 0.0000
# 6 0.0000 0.0000 0.0000 0.0000 0.0000 42.1914
#
#
#
# Elastic Compliance Matrix: (Units=1/GPa)
#
#
# Indices 1 2 3 4 5 6 
#
# 1 0.003612 0.003631 -0.003464 0.000000 0.000000 0.000000
# 2 0.003631 0.003612 -0.003464 0.000000 0.000000 0.000000
# 3 -0.003464 -0.003464 0.012459 0.000000 0.000000 0.000000
# 4 0.000000 0.000000 0.000000 0.013859 0.000000 0.000000
# 5 0.000000 0.000000 0.000000 0.000000 0.013859 0.000000
# 6 0.000000 0.000000 0.000000 0.000000 0.000000 0.023701
#
#
# Mechanical properties :
#
#
# Convention : Reuss Voigt Hill
#
# Bulk Modulus (GPa) = 76.39841 77.18438 76.79140
# Shear Modulus (GPa) = 60.92995 -5142.67008 -2540.87006
#
# Velocity S-wave (km/s) = 5.47057 -50.25874 -35.32714
# Velocity P-wave (km/s) = 8.79930 57.70624 40.32730
#
# Compressibility (1/GPa) = 0.01308928
#
# Stress axis : x y z
#
# Youngs Moduli (GPa) = 276.83837 276.83837 80.26096
#
# Poissons Ratio (x) = -1.00534 0.27805
# Poissons Ratio (y) = -1.00534 0.27805
# Poissons Ratio (z) = 0.95907 0.95907
#
# Static dielectric constant tensor:
#      x y z
#    x 3.196460 0.000000 0.000000 
#    y 0.000000 3.196460 0.000000 
#    z 0.000000 0.000000 3.723600 
# 
# 
# High freq. dielectric constant tensor:
#      x y z
#    x 1.809810 0.000000 0.000000 
#    y 0.000000 1.809810 0.000000 
#    z 0.000000 0.000000 1.801230 
# 
# From -- ./inp_files/8663.got.cif
#   From: 2010.03.12/outbox.cif.g09.slc.cpg/sg134_5_cif.got.tgz:8663.got - 2010.04.06 18:17:22.
