data_PCOD8317126
_publ_section_title
;
Structure prediction by ZEFSAII (Michael W. Deem and Ramdas Pophale) SiO2 
 PCOD8317126
Probable space group: P 42/N N M
;
_chemical_formula_sum "Si O2"
_cell_formula_units_Z 88
_cell_length_a 29.673591
_cell_length_b 29.673591
_cell_length_c 5.226667
_cell_angle_alpha 90.000000
_cell_angle_beta 90.000000
_cell_angle_gamma 90.000000
_cell_volume 4602.195295
_symmetry_space_group_name_H-M "P 42/N N M"
_symmetry_group_IT_number 134
_space_group.IT_coordinate_system_code '2'
_symmetry_cell_setting 'tetragonal'
loop_
_space_group_symop_operation_xyz
x,y,z
1/2-y,x,1/2+z
1/2-x,1/2-y,z
y,1/2-x,1/2+z
x,1/2-y,1/2-z
1/2-x,y,1/2-z
y,x,-z
1/2-y,1/2-x,-z
-x,-y,-z
1/2+y,-x,1/2-z
1/2+x,1/2+y,-z
-y,1/2+x,1/2-z
-x,1/2+y,1/2+z
1/2+x,-y,1/2+z
-y,-x,z
1/2+y,1/2+x,z
loop_
_atom_site_type_symbol
_atom_site_label
_atom_site_fract_x
_atom_site_fract_y
_atom_site_fract_z
Si Si1 0.198204 0.698204 0.697761
Si Si2 0.017234 0.588770 0.567997
Si Si3 0.672363 0.432957 0.933225
Si Si4 0.794549 0.515658 0.864203
Si Si5 0.250000 0.549975 0.750000
Si Si6 0.960872 0.609440 0.063985
Si Si7 0.842443 0.342443 0.811787
O O1 0.187510 0.750000 0.750000
O O2 0.184891 0.684891 0.407459
O O3 0.169444 0.669444 0.899286
O O4 0.039144 0.539144 0.547831
O O5 0.058687 0.624452 0.566257
O O6 0.981171 0.593865 0.337057
O O7 0.994767 0.594175 0.843557
O O8 0.686643 0.482765 0.851261
O O9 0.667122 0.395733 0.713571
O O10 0.714803 0.416751 0.106961
O O11 0.750000 0.541601 0.750000
O O12 0.836141 0.548136 0.941400
O O13 0.781691 0.483067 0.091774
O O14 0.912859 0.587141 0.000000
#
# Coordination Sequence:
#
# PCOD8317126 Si02
#       7
#     8  16  16  16   8  16   8
#     4  11  28  48  60  74 104 138 171 226 307 377
#     4  11  22  39  57  79 121 156 193 236 286 342
#     4  10  22  36  56  87 109 141 182 237 291 343
#     4   9  20  36  57  81 115 148 187 230 290 334
#     4  10  18  36  58  78 111 140 183 230 296 344
#     4  11  23  38  58  85 115 155 202 238 279 337
#     4  12  26  39  66  84 103 132 182 242 285 347
#
# _framework density 19.121310000000001
#
# number of rings (size 3 to 8) (size 9 to 14) (size 15 to 20)
#    0.000    1.545    2.727    1.636    3.818    5.818 
#    0.000    0.000    0.000    0.000    0.000    0.000 
#    0.000    0.000    0.000    2.455    0.000    0.000 
#
# Total GULP energy -1090329.011252 kJ/mol
# GULP energy per Si atom -12390.102401 kJ/mol
# Density = 1.907779 g / cm^3
# Si number density = 19.121310 Si / 1000 Ang^3
#
#
#
# Elastic Constant Matrix: (Units=GPa)
#
#
# Indices 1 2 3 4 5 6 
#
# 1 81.0887 56.9445 9.7628 0.0000 0.0000 0.0000
# 2 56.9445 81.0860 9.7636 0.0000 0.0000 0.0000
# 3 9.7628 9.7636 67.3638 0.0000 0.0000 0.0000
# 4 0.0000 0.0000 0.0000 23.3984 0.0000 0.0000
# 5 0.0000 0.0000 0.0000 0.0000 23.3992 0.0000
# 6 0.0000 0.0000 0.0000 0.0000 0.0000 25.2340
#
#
#
# Elastic Compliance Matrix: (Units=1/GPa)
#
#
# Indices 1 2 3 4 5 6 
#
# 1 0.024408 -0.017012 -0.001072 0.000000 0.000000 0.000000
# 2 -0.017012 0.024409 -0.001072 0.000000 0.000000 0.000000
# 3 -0.001072 -0.001072 0.015155 0.000000 0.000000 0.000000
# 4 0.000000 0.000000 0.000000 0.042738 0.000000 0.000000
# 5 0.000000 0.000000 0.000000 0.000000 0.042737 0.000000
# 6 0.000000 0.000000 0.000000 0.000000 0.000000 0.039629
#
#
# Mechanical properties :
#
#
# Convention : Reuss Voigt Hill
#
# Bulk Modulus (GPa) = 38.97072 42.49784 40.73428
# Shear Modulus (GPa) = 21.19178 24.61083 22.90130
#
# Velocity S-wave (km/s) = 3.33270 3.59149 3.46451
# Velocity P-wave (km/s) = 5.93584 6.28268 6.11172
#
# Compressibility (1/GPa) = 0.02566029
#
# Stress axis : x y z
#
# Youngs Moduli (GPa) = 40.97058 40.96906 65.98271
#
# Poissons Ratio (x) = 0.69696 0.07071
# Poissons Ratio (y) = 0.69699 0.07075
# Poissons Ratio (z) = 0.04391 0.04393
#
# Static dielectric constant tensor:
#      x y z
#    x 3.461250 0.000000 0.000000 
#    y 0.000000 3.461260 0.000000 
#    z 0.000000 0.000000 3.555260 
# 
# 
# High freq. dielectric constant tensor:
#      x y z
#    x 1.721280 0.000000 0.000000 
#    y 0.000000 1.721280 0.000000 
#    z 0.000000 0.000000 1.755960 
# 
# From -- ./inp_files/1285.got.cif
#   From: 2010.03.12/outbox.cif.g09.slc.cpg/sg134_1_cif.got.tgz:1285.got - 2010.04.06 18:17:22.
