data_PCOD8317118
_publ_section_title
;
Structure prediction by ZEFSAII (Michael W. Deem and Ramdas Pophale) SiO2 
 PCOD8317118
Probable space group: P 42/N N M
;
_chemical_formula_sum "Si O2"
_cell_formula_units_Z 88
_cell_length_a 17.184730
_cell_length_b 17.184730
_cell_length_c 16.553501
_cell_angle_alpha 90.000000
_cell_angle_beta 90.000000
_cell_angle_gamma 90.000000
_cell_volume 4888.496240
_symmetry_space_group_name_H-M "P 42/N N M"
_symmetry_group_IT_number 134
_space_group.IT_coordinate_system_code '2'
_symmetry_cell_setting 'tetragonal'
loop_
_space_group_symop_operation_xyz
x,y,z
1/2-y,x,1/2+z
1/2-x,1/2-y,z
y,1/2-x,1/2+z
x,1/2-y,1/2-z
1/2-x,y,1/2-z
y,x,-z
1/2-y,1/2-x,-z
-x,-y,-z
1/2+y,-x,1/2-z
1/2+x,1/2+y,-z
-y,1/2+x,1/2-z
-x,1/2+y,1/2+z
1/2+x,-y,1/2+z
-y,-x,z
1/2+y,1/2+x,z
loop_
_atom_site_type_symbol
_atom_site_label
_atom_site_fract_x
_atom_site_fract_y
_atom_site_fract_z
Si Si1 0.688875 0.311126 0.120310
Si Si2 0.627030 0.001336 0.015443
Si Si3 0.240303 0.533764 0.124219
Si Si4 0.750000 0.074353 0.250000
Si Si5 0.185788 0.814213 0.055125
Si Si6 0.016019 0.388094 0.191248
Si Si7 0.001690 0.871622 0.236145
O O1 0.750000 0.250000 0.088922
O O2 0.737633 0.373921 0.170894
O O3 0.656153 0.343848 0.034519
O O4 0.656747 0.979863 0.105426
O O5 0.587539 0.087539 0.008106
O O6 0.562870 0.937131 0.000000
O O7 0.700886 0.995245 0.955264
O O8 0.277938 0.615897 0.105102
O O9 0.173555 0.544525 0.191244
O O10 0.312169 0.483118 0.161924
O O11 0.827215 0.022587 0.248570
O O12 0.250000 0.750000 0.046762
O O13 0.096667 0.418523 0.230042
O O14 0.964159 0.464159 0.176797
O O15 0.057603 0.942398 0.207348
#
# Coordination Sequence:
#
# PCOD8317118 Si02
#       7
#     8  16  16   8   8  16  16
#     4  11  20  34  53  79 122 144 170 223 297 352
#     4  10  18  32  54  81 110 141 189 237 276 329
#     4  11  20  33  52  78 116 152 191 234 280 337
#     4  12  19  34  56  85 110 142 182 236 284 349
#     4  11  22  32  49  81 117 157 180 215 284 359
#     4  10  20  34  57  80 110 148 189 233 283 334
#     4  10  20  35  52  77 114 157 191 232 276 342
#
# _framework density 18.001445
#
# number of rings (size 3 to 8) (size 9 to 14) (size 15 to 20)
#    0.000    1.455    4.545    2.727    0.000    2.909 
#    0.000    0.000    0.000    7.636    0.000    1.273 
#    0.000    0.000    0.000    0.000    0.000    0.000 
#
# Total GULP energy -1090403.389198 kJ/mol
# GULP energy per Si atom -12390.947605 kJ/mol
# Density = 1.796047 g / cm^3
# Si number density = 18.001445 Si / 1000 Ang^3
#
#
#
# Elastic Constant Matrix: (Units=GPa)
#
#
# Indices 1 2 3 4 5 6 
#
# 1 72.5713 48.0469 45.7493 0.0000 0.0000 0.0000
# 2 48.0469 72.5704 45.7481 0.0000 0.0000 0.0000
# 3 45.7493 45.7481 98.2240 0.0000 0.0000 0.0000
# 4 0.0000 0.0000 0.0000 -15.9690 0.0000 0.0000
# 5 0.0000 0.0000 0.0000 0.0000 -15.6814 0.0000
# 6 0.0000 0.0000 0.0000 0.0000 0.0000 32.9477
#
#
#
# Elastic Compliance Matrix: (Units=1/GPa)
#
#
# Indices 1 2 3 4 5 6 
#
# 1 0.026798 -0.013978 -0.005971 0.000000 0.000000 0.000000
# 2 -0.013978 0.026798 -0.005971 0.000000 0.000000 0.000000
# 3 -0.005971 -0.005971 0.015743 0.000000 0.000000 0.000000
# 4 0.000000 0.000000 0.000000 -0.062621 0.000000 0.000000
# 5 0.000000 0.000000 0.000000 0.000000 -0.063770 0.000000
# 6 0.000000 0.000000 0.000000 0.000000 0.000000 0.030351
#
#
# Mechanical properties :
#
#
# Convention : Reuss Voigt Hill
#
# Bulk Modulus (GPa) = 57.14640 58.05049 57.59844
# Shear Modulus (GPa) = 161.42935 7.18088 84.30511
#
# Velocity S-wave (km/s) = 9.48000 1.99943 6.85085
# Velocity P-wave (km/s) = 12.31429 6.13579 9.72856
#
# Compressibility (1/GPa) = 0.01749892
#
# Stress axis : x y z
#
# Youngs Moduli (GPa) = 37.31576 37.31588 63.52018
#
# Poissons Ratio (x) = 0.52160 0.37930
# Poissons Ratio (y) = 0.52160 0.37927
# Poissons Ratio (z) = 0.22283 0.22281
#
# Static dielectric constant tensor:
#      x y z
#    x 3.201030 0.000000 0.000000 
#    y 0.000000 3.201030 0.000000 
#    z 0.000000 0.000000 3.710540 
# 
# 
# High freq. dielectric constant tensor:
#      x y z
#    x 1.672240 0.000000 0.000000 
#    y 0.000000 1.672240 0.000000 
#    z 0.000000 0.000000 1.708850 
# 
# From -- ./inp_files/6521.got.cif
#   From: 2010.03.12/outbox.cif.g09.slc.cpg/sg134_4_cif.got.tgz:6521.got - 2010.04.06 18:17:22.
