data_PCOD8317489
_publ_section_title
;
Structure prediction by ZEFSAII (Michael W. Deem and Ramdas Pophale) SiO2 
 PCOD8317489
Probable space group: P 42/M B C
;
_chemical_formula_sum "Si O2"
_cell_formula_units_Z 112
_cell_length_a 14.807131
_cell_length_b 14.807131
_cell_length_c 24.837641
_cell_angle_alpha 90.000000
_cell_angle_beta 90.000000
_cell_angle_gamma 90.000000
_cell_volume 5445.680817
_symmetry_space_group_name_H-M "P 42/M B C"
_symmetry_group_IT_number 135
_symmetry_cell_setting 'tetragonal'
loop_
_space_group_symop_operation_xyz
x,y,z
-y,x,1/2+z
-x,-y,z
y,-x,1/2+z
1/2+x,1/2-y,-z
1/2-x,1/2+y,-z
1/2+y,1/2+x,1/2-z
1/2-y,1/2-x,1/2-z
-x,-y,-z
y,-x,1/2-z
x,y,-z
-y,x,1/2-z
1/2-x,1/2+y,z
1/2+x,1/2-y,z
1/2-y,1/2-x,1/2+z
1/2+y,1/2+x,1/2+z
loop_
_atom_site_type_symbol
_atom_site_label
_atom_site_fract_x
_atom_site_fract_y
_atom_site_fract_z
Si Si1 0.401157 0.598844 0.250000
Si Si2 0.273247 0.348529 0.656533
Si Si3 0.291346 0.603527 0.939511
Si Si4 0.399183 0.901563 0.602621
Si Si5 0.773247 0.848528 0.656533
Si Si6 0.098437 0.600818 0.102622
Si Si7 0.791345 0.103526 0.060489
O O1 0.500001 0.609933 0.276746
O O2 0.396509 0.671660 0.203005
O O3 0.328341 0.603495 0.296994
O O4 0.331272 0.344091 0.601258
O O5 0.178903 0.400968 0.647986
O O6 0.250003 0.250000 0.678089
O O7 0.182631 0.618470 0.937080
O O8 0.315836 0.500000 0.925750
O O9 0.322026 0.628049 0.000000
O O10 0.500001 0.890778 0.628587
O O11 0.381532 0.817370 0.562919
O O12 0.393949 0.000000 0.573128
O O13 0.678905 0.900970 0.647986
O O14 0.831273 0.844089 0.601259
O O15 0.822026 0.128049 0.000000
#
# Coordination Sequence:
#
# PCOD8317489 Si02
#       7
#    16  16  16  16  16  16  16
#     4  11  23  38  58  82 107 139 182 230 276 325
#     4  10  20  35  56  80 107 142 179 222 271 325
#     4   9  18  33  54  79 107 141 180 221 267 321
#     4   9  18  32  51  77 107 138 175 219 267 322
#     4  10  20  35  56  80 107 142 179 222 271 325
#     4   9  18  32  51  77 107 138 175 219 267 322
#     4   9  18  33  54  79 107 141 180 221 267 321
#
# _framework density 20.566759000000001
#
# number of rings (size 3 to 8) (size 9 to 14) (size 15 to 20)
#    0.000    2.429    0.000    2.143    0.000    6.857 
#    0.000    2.857    0.000    4.286    0.000   26.000 
#    0.000    0.000    0.000    0.000    0.000    0.000 
#
# Total GULP energy -1387629.702379 kJ/mol
# GULP energy per Si atom -12389.550914 kJ/mol
# Density = 2.051995 g / cm^3
# Si number density = 20.566759 Si / 1000 Ang^3
#
#
#
# Elastic Constant Matrix: (Units=GPa)
#
#
# Indices 1 2 3 4 5 6 
#
# 1 102.2903 27.5834 39.7710 0.0000 0.0000 0.0000
# 2 27.5834 102.2903 39.7710 0.0000 0.0000 0.0000
# 3 39.7710 39.7710 91.0396 0.0000 0.0000 0.0000
# 4 0.0000 0.0000 0.0000 12.8146 0.0000 0.0000
# 5 0.0000 0.0000 0.0000 0.0000 12.8146 0.0000
# 6 0.0000 0.0000 0.0000 0.0000 0.0000 20.3322
#
#
#
# Elastic Compliance Matrix: (Units=1/GPa)
#
#
# Indices 1 2 3 4 5 6 
#
# 1 0.011949 -0.001437 -0.004592 0.000000 0.000000 0.000000
# 2 -0.001437 0.011949 -0.004592 0.000000 0.000000 0.000000
# 3 -0.004592 -0.004592 0.014997 0.000000 0.000000 0.000000
# 4 0.000000 0.000000 0.000000 0.078036 0.000000 0.000000
# 5 0.000000 0.000000 0.000000 0.000000 0.078036 0.000000
# 6 0.000000 0.000000 0.000000 0.000000 0.000000 0.049183
#
#
# Mechanical properties :
#
#
# Convention : Reuss Voigt Hill
#
# Bulk Modulus (GPa) = 56.65105 56.65233 56.65169
# Shear Modulus (GPa) = 18.43136 21.75860 20.09498
#
# Velocity S-wave (km/s) = 2.99686 3.25614 3.12919
# Velocity P-wave (km/s) = 6.29124 6.46080 6.37658
#
# Compressibility (1/GPa) = 0.01765192
#
# Stress axis : x y z
#
# Youngs Moduli (GPa) = 83.68876 83.68876 66.68156
#
# Poissons Ratio (x) = 0.12023 0.30623
# Poissons Ratio (y) = 0.12023 0.30623
# Poissons Ratio (z) = 0.38433 0.38433
#
# Static dielectric constant tensor:
#      x y z
#    x 3.914630 0.000000 0.000000 
#    y 0.000000 3.914630 0.000000 
#    z 0.000000 0.000000 3.259720 
# 
# 
# High freq. dielectric constant tensor:
#      x y z
#    x 1.815270 0.000000 0.000000 
#    y 0.000000 1.815270 0.000000 
#    z 0.000000 0.000000 1.758720 
# 
# From -- ./inp_files/6146.got.cif
#   From: 2010.03.12/outbox.cif.g09.slc.cpg/sg135_4_cif.got.tgz:6146.got - 2010.04.06 18:31:24.
