data_PCOD8317466
_publ_section_title
;
Structure prediction by ZEFSAII (Michael W. Deem and Ramdas Pophale) SiO2 
 PCOD8317466
Probable space group: P 42/M B C
;
_chemical_formula_sum "Si O2"
_cell_formula_units_Z 96
_cell_length_a 25.084062
_cell_length_b 25.084062
_cell_length_c 8.829888
_cell_angle_alpha 90.000000
_cell_angle_beta 90.000000
_cell_angle_gamma 90.000000
_cell_volume 5555.855298
_symmetry_space_group_name_H-M "P 42/M B C"
_symmetry_group_IT_number 135
_symmetry_cell_setting 'tetragonal'
loop_
_space_group_symop_operation_xyz
x,y,z
-y,x,1/2+z
-x,-y,z
y,-x,1/2+z
1/2+x,1/2-y,-z
1/2-x,1/2+y,-z
1/2+y,1/2+x,1/2-z
1/2-y,1/2-x,1/2-z
-x,-y,-z
y,-x,1/2-z
x,y,-z
-y,x,1/2-z
1/2-x,1/2+y,z
1/2+x,1/2-y,z
1/2-y,1/2-x,1/2+z
1/2+y,1/2+x,1/2+z
loop_
_atom_site_type_symbol
_atom_site_label
_atom_site_fract_x
_atom_site_fract_y
_atom_site_fract_z
Si Si1 0.256864 0.562964 0.330928
Si Si2 0.552500 0.363389 0.829895
Si Si3 0.544809 0.254778 0.677296
Si Si4 0.677192 0.741555 0.677930
Si Si5 0.059924 0.881339 0.837515
Si Si6 0.843768 0.737573 0.178449
O O1 0.231943 0.568208 0.500000
O O2 0.231507 0.510892 0.247091
O O3 0.250382 0.617889 0.240950
O O4 0.318688 0.551103 0.343283
O O5 0.549899 0.317599 0.705312
O O6 0.602774 0.401204 0.797301
O O7 0.500734 0.401818 0.814494
O O8 0.559546 0.339672 0.000000
O O9 0.544911 0.242144 0.500000
O O10 0.597281 0.229721 0.753992
O O11 0.712676 0.787325 0.750000
O O12 0.675181 0.750498 0.500000
O O13 0.704314 0.683582 0.715728
O O14 0.082484 0.901680 0.000000
O O15 0.808210 0.691791 0.250000
O O16 0.846513 0.729065 0.000000
#
# Coordination Sequence:
#
# PCOD8317466 Si02
#       6
#    16  16  16  16  16  16
#     4  10  20  34  50  69  95 125 159 199 241 288
#     4  10  20  32  45  61  82 111 149 193 239 284
#     4  11  21  33  50  70  94 125 160 197 240 290
#     4  10  20  33  51  75 102 133 167 204 248 297
#     4   9  19  32  44  60  82 111 148 191 239 286
#     4  10  20  34  52  75 103 133 166 204 247 295
#
# _framework density 17.279067000000001
#
# number of rings (size 3 to 8) (size 9 to 14) (size 15 to 20)
#    0.000    2.000    0.000    5.500    0.000    9.000 
#    0.000    1.667    0.000    0.000    0.000    0.000 
#    0.000    0.667    0.000    6.667    0.000    4.000 
#
# Total GULP energy -1189525.264275 kJ/mol
# GULP energy per Si atom -12390.888170 kJ/mol
# Density = 1.723974 g / cm^3
# Si number density = 17.279067 Si / 1000 Ang^3
#
#
#
# Elastic Constant Matrix: (Units=GPa)
#
#
# Indices 1 2 3 4 5 6 
#
# 1 65.9199 18.7690 36.8451 0.0000 0.0000 0.0000
# 2 18.7690 65.9232 36.8405 0.0000 0.0000 0.0000
# 3 36.8451 36.8405 115.9612 0.0000 0.0000 0.0000
# 4 0.0000 0.0000 0.0000 27.8010 0.0000 0.0000
# 5 0.0000 0.0000 0.0000 0.0000 27.8008 0.0000
# 6 0.0000 0.0000 0.0000 0.0000 0.0000 19.4567
#
#
#
# Elastic Compliance Matrix: (Units=1/GPa)
#
#
# Indices 1 2 3 4 5 6 
#
# 1 0.018764 -0.002445 -0.005185 0.000000 0.000000 0.000000
# 2 -0.002445 0.018762 -0.005184 0.000000 0.000000 0.000000
# 3 -0.005185 -0.005184 0.011918 0.000000 0.000000 0.000000
# 4 0.000000 0.000000 0.000000 0.035970 0.000000 0.000000
# 5 0.000000 0.000000 0.000000 0.000000 0.035970 0.000000
# 6 0.000000 0.000000 0.000000 0.000000 0.000000 0.051396
#
#
# Mechanical properties :
#
#
# Convention : Reuss Voigt Hill
#
# Bulk Modulus (GPa) = 41.98748 48.07926 45.03337
# Shear Modulus (GPa) = 24.23095 25.36835 24.79965
#
# Velocity S-wave (km/s) = 3.74883 3.83581 3.79257
# Velocity P-wave (km/s) = 6.56435 6.89228 6.73031
#
# Compressibility (1/GPa) = 0.02381663
#
# Stress axis : x y z
#
# Youngs Moduli (GPa) = 53.29274 53.29885 83.90596
#
# Poissons Ratio (x) = 0.13029 0.43509
# Poissons Ratio (y) = 0.13028 0.43496
# Poissons Ratio (z) = 0.27635 0.27630
#
# Static dielectric constant tensor:
#      x y z
#    x 2.949860 0.000000 0.000000 
#    y 0.000000 2.949820 0.000000 
#    z 0.000000 0.000000 3.479740 
# 
# 
# High freq. dielectric constant tensor:
#      x y z
#    x 1.641550 0.000000 0.000000 
#    y 0.000000 1.641550 0.000000 
#    z 0.000000 0.000000 1.685530 
# 
# From -- ./inp_files/1196.got.cif
#   From: 2010.03.12/outbox.cif.g09.slc.cpg/sg135_1_cif.got.tgz:1196.got - 2010.04.06 18:31:24.
