data_PCOD8317888
_publ_section_title
;
Structure prediction by ZEFSAII (Michael W. Deem and Ramdas Pophale) SiO2 
 PCOD8317888
Probable space group: P 42/M N M
;
_chemical_formula_sum "Si O2"
_cell_formula_units_Z 64
_cell_length_a 12.826723
_cell_length_b 12.826723
_cell_length_c 22.454665
_cell_angle_alpha 90.000000
_cell_angle_beta 90.000000
_cell_angle_gamma 90.000000
_cell_volume 3694.349783
_symmetry_space_group_name_H-M "P 42/M N M"
_symmetry_group_IT_number 136
_symmetry_cell_setting 'tetragonal'
loop_
_space_group_symop_operation_xyz
x,y,z
1/2-y,1/2+x,1/2+z
-x,-y,z
1/2+y,1/2-x,1/2+z
1/2+x,1/2-y,1/2-z
1/2-x,1/2+y,1/2-z
y,x,-z
-y,-x,-z
-x,-y,-z
1/2+y,1/2-x,1/2-z
x,y,-z
1/2-y,1/2+x,1/2-z
1/2-x,1/2+y,1/2+z
1/2+x,1/2-y,1/2+z
-y,-x,z
y,x,z
loop_
_atom_site_type_symbol
_atom_site_label
_atom_site_fract_x
_atom_site_fract_y
_atom_site_fract_z
Si Si1 0.098038 0.268714 0.247106
Si Si2 0.542542 0.883219 0.665961
Si Si3 0.495223 0.334291 0.853367
Si Si4 0.801726 0.372787 0.068711
O O1 0.199392 0.199392 0.233989
O O2 0.130769 0.370999 0.283168
O O3 0.049805 0.303457 0.183698
O O4 0.013336 0.205568 0.286247
O O5 0.589409 0.848692 0.602059
O O6 0.500000 0.000000 0.663739
O O7 0.571675 0.428326 0.868225
O O8 0.376144 0.376144 0.859722
O O9 0.521314 0.244220 0.901492
O O10 0.724097 0.275904 0.078322
O O11 0.824483 0.394458 0.000000
#
# Coordination Sequence:
#
# PCOD8317888 Si02
#       4
#    16  16  16  16
#     4  10  19  32  51  76 106 138 168 210 264 316
#     4  11  19  35  52  76 104 135 176 210 256 312
#     4   8  15  27  45  72 102 130 165 211 261 308
#     4   9  19  34  51  72 100 138 179 216 257 304
#
# _framework density 17.323751999999999
#
# number of rings (size 3 to 8) (size 9 to 14) (size 15 to 20)
#    0.000    2.500    2.500    2.250    0.000    3.000 
#    0.000    2.500    0.000    0.750    0.000    1.750 
#    0.000    0.000    0.000    0.000    0.000    0.000 
#
# Total GULP energy -793226.695392 kJ/mol
# GULP energy per Si atom -12394.167115 kJ/mol
# Density = 1.728432 g / cm^3
# Si number density = 17.323752 Si / 1000 Ang^3
#
#
#
# Elastic Constant Matrix: (Units=GPa)
#
#
# Indices 1 2 3 4 5 6 
#
# 1 70.7802 39.9150 44.5009 0.0000 0.0000 0.0000
# 2 39.9150 70.7802 44.5009 0.0000 0.0000 0.0000
# 3 44.5009 44.5009 105.1080 0.0000 0.0000 0.0000
# 4 0.0000 0.0000 0.0000 23.0209 0.0000 0.0000
# 5 0.0000 0.0000 0.0000 0.0000 23.0209 0.0000
# 6 0.0000 0.0000 0.0000 0.0000 0.0000 34.3305
#
#
#
# Elastic Compliance Matrix: (Units=1/GPa)
#
#
# Indices 1 2 3 4 5 6 
#
# 1 0.023048 -0.009351 -0.005799 0.000000 0.000000 0.000000
# 2 -0.009351 0.023048 -0.005799 0.000000 0.000000 0.000000
# 3 -0.005799 -0.005799 0.014424 0.000000 0.000000 0.000000
# 4 0.000000 0.000000 0.000000 0.043439 0.000000 0.000000
# 5 0.000000 0.000000 0.000000 0.000000 0.043439 0.000000
# 6 0.000000 0.000000 0.000000 0.000000 0.000000 0.029129
#
#
# Mechanical properties :
#
#
# Convention : Reuss Voigt Hill
#
# Bulk Modulus (GPa) = 53.70107 56.05578 54.87843
# Shear Modulus (GPa) = 22.25877 23.92453 23.09165
#
# Velocity S-wave (km/s) = 3.58840 3.72025 3.65492
# Velocity P-wave (km/s) = 6.94511 7.13314 7.03975
#
# Compressibility (1/GPa) = 0.01862160
#
# Stress axis : x y z
#
# Youngs Moduli (GPa) = 43.38851 43.38851 69.32806
#
# Poissons Ratio (x) = 0.40575 0.40201
# Poissons Ratio (y) = 0.40575 0.40201
# Poissons Ratio (z) = 0.25160 0.25160
#
# Static dielectric constant tensor:
#      x y z
#    x 3.333820 0.000000 0.000000 
#    y 0.000000 3.333820 0.000000 
#    z 0.000000 0.000000 3.172980 
# 
# 
# High freq. dielectric constant tensor:
#      x y z
#    x 1.658130 0.000000 0.000000 
#    y 0.000000 1.658130 0.000000 
#    z 0.000000 0.000000 1.647040 
# 
# From -- ./inp_files/8109.got.cif
#   From: 2010.03.12/outbox.cif.g09.slc.cpg/sg136_5_cif.got.tgz:8109.got - 2010.04.06 18:39:43.
