data_PCOD8317794
_publ_section_title
;
Structure prediction by ZEFSAII (Michael W. Deem and Ramdas Pophale) SiO2 
 PCOD8317794
Probable space group: P 42/M N M
;
_chemical_formula_sum "Si O2"
_cell_formula_units_Z 96
_cell_length_a 24.533372
_cell_length_b 24.533372
_cell_length_c 9.122197
_cell_angle_alpha 90.000000
_cell_angle_beta 90.000000
_cell_angle_gamma 90.000000
_cell_volume 5490.525781
_symmetry_space_group_name_H-M "P 42/M N M"
_symmetry_group_IT_number 136
_symmetry_cell_setting 'tetragonal'
loop_
_space_group_symop_operation_xyz
x,y,z
1/2-y,1/2+x,1/2+z
-x,-y,z
1/2+y,1/2-x,1/2+z
1/2+x,1/2-y,1/2-z
1/2-x,1/2+y,1/2-z
y,x,-z
-y,-x,-z
-x,-y,-z
1/2+y,1/2-x,1/2-z
x,y,-z
1/2-y,1/2+x,1/2-z
1/2-x,1/2+y,1/2+z
1/2+x,1/2-y,1/2+z
-y,-x,z
y,x,z
loop_
_atom_site_type_symbol
_atom_site_label
_atom_site_fract_x
_atom_site_fract_y
_atom_site_fract_z
Si Si1 0.626950 0.626950 0.674598
Si Si2 0.592354 0.322588 0.172301
Si Si3 0.336162 0.489702 0.662848
Si Si4 0.700674 0.921624 0.328839
Si Si5 0.973122 0.291755 0.836434
Si Si6 0.192084 0.350751 0.326083
Si Si7 0.290926 0.290926 0.176659
O O1 0.636875 0.636875 0.500000
O O2 0.637930 0.565479 0.723636
O O3 0.665465 0.665465 0.768573
O O4 0.647005 0.352996 0.226173
O O5 0.539889 0.353972 0.236155
O O6 0.594845 0.260721 0.228959
O O7 0.587035 0.324921 0.000000
O O8 0.357844 0.501452 0.500000
O O9 0.271853 0.483203 0.663862
O O10 0.701550 0.933749 0.500000
O O11 0.662706 0.870656 0.289453
O O12 0.679628 0.977761 0.253922
O O13 0.912861 0.301112 0.769329
O O14 0.974816 0.316269 0.000000
O O15 0.204785 0.345510 0.500000
O O16 0.231981 0.309275 0.240024
O O17 0.288696 0.288696 0.000000
#
# Coordination Sequence:
#
# PCOD8317794 Si02
#       7
#     8  16  16  16  16  16   8
#     4  10  18  34  53  71  98 133 172 208 253 317
#     4   9  18  32  48  69  97 130 167 209 253 298
#     4   9  17  30  50  71  91 126 169 210 251 299
#     4   9  19  33  54  78 100 132 173 210 248 301
#     4   9  17  32  53  74 100 133 169 207 253 305
#     4  10  20  36  56  76 105 144 175 204 253 319
#     4  12  24  32  48  81 113 136 166 216 265 298
#
# _framework density 17.484663999999999
#
# number of rings (size 3 to 8) (size 9 to 14) (size 15 to 20)
#    0.000    2.500    1.667    0.750    1.167    2.333 
#    0.000    0.417    0.000    3.000    0.000    3.500 
#    0.000    0.000    0.000    0.000    0.000    0.000 
#
# Total GULP energy -1189929.568248 kJ/mol
# GULP energy per Si atom -12395.099669 kJ/mol
# Density = 1.744487 g / cm^3
# Si number density = 17.484664 Si / 1000 Ang^3
#
#
#
# Elastic Constant Matrix: (Units=GPa)
#
#
# Indices 1 2 3 4 5 6 
#
# 1 93.4767 26.5266 34.5364 0.0000 0.0000 0.0000
# 2 26.5266 93.4767 34.5364 0.0000 0.0000 0.0000
# 3 34.5364 34.5364 43.8693 0.0000 0.0000 0.0000
# 4 0.0000 0.0000 0.0000 25.7844 0.0000 0.0000
# 5 0.0000 0.0000 0.0000 0.0000 25.7844 0.0000
# 6 0.0000 0.0000 0.0000 0.0000 0.0000 24.2651
#
#
#
# Elastic Compliance Matrix: (Units=1/GPa)
#
#
# Indices 1 2 3 4 5 6 
#
# 1 0.015087 0.000151 -0.011996 0.000000 0.000000 0.000000
# 2 0.000151 0.015087 -0.011996 0.000000 0.000000 0.000000
# 3 -0.011996 -0.011996 0.041683 0.000000 0.000000 0.000000
# 4 0.000000 0.000000 0.000000 0.038783 0.000000 0.000000
# 5 0.000000 0.000000 0.000000 0.000000 0.038783 0.000000
# 6 0.000000 0.000000 0.000000 0.000000 0.000000 0.041211
#
#
# Mechanical properties :
#
#
# Convention : Reuss Voigt Hill
#
# Bulk Modulus (GPa) = 41.36621 46.89129 44.12875
# Shear Modulus (GPa) = 20.29410 24.18167 22.23788
#
# Velocity S-wave (km/s) = 3.41057 3.72293 3.57017
# Velocity P-wave (km/s) = 6.26253 6.73477 6.50293
#
# Compressibility (1/GPa) = 0.02417432
#
# Stress axis : x y z
#
# Youngs Moduli (GPa) = 66.28106 66.28106 23.99045
#
# Poissons Ratio (x) = -0.00999 0.28780
# Poissons Ratio (y) = -0.00999 0.28780
# Poissons Ratio (z) = 0.79512 0.79512
#
# Static dielectric constant tensor:
#      x y z
#    x 3.302920 0.000000 0.000000 
#    y 0.000000 3.302920 0.000000 
#    z 0.000000 0.000000 3.276870 
# 
# 
# High freq. dielectric constant tensor:
#      x y z
#    x 1.666740 0.000000 0.000000 
#    y 0.000000 1.666740 0.000000 
#    z 0.000000 0.000000 1.662460 
# 
# From -- ./inp_files/2067.got.cif
#   From: 2010.03.12/outbox.cif.g09.slc.cpg/sg136_2_cif.got.tgz:2067.got - 2010.04.06 18:39:43.
