data_PCOD8317824
_publ_section_title
;
Structure prediction by ZEFSAII (Michael W. Deem and Ramdas Pophale) SiO2 
 PCOD8317824
Probable space group: P 42/M N M
;
_chemical_formula_sum "Si O2"
_cell_formula_units_Z 72
_cell_length_a 14.761430
_cell_length_b 14.761430
_cell_length_c 20.474483
_cell_angle_alpha 90.000000
_cell_angle_beta 90.000000
_cell_angle_gamma 90.000000
_cell_volume 4461.386071
_symmetry_space_group_name_H-M "P 42/M N M"
_symmetry_group_IT_number 136
_symmetry_cell_setting 'tetragonal'
loop_
_space_group_symop_operation_xyz
x,y,z
1/2-y,1/2+x,1/2+z
-x,-y,z
1/2+y,1/2-x,1/2+z
1/2+x,1/2-y,1/2-z
1/2-x,1/2+y,1/2-z
y,x,-z
-y,-x,-z
-x,-y,-z
1/2+y,1/2-x,1/2-z
x,y,-z
1/2-y,1/2+x,1/2-z
1/2-x,1/2+y,1/2+z
1/2+x,1/2-y,1/2+z
-y,-x,z
y,x,z
loop_
_atom_site_type_symbol
_atom_site_label
_atom_site_fract_x
_atom_site_fract_y
_atom_site_fract_z
Si Si1 0.063977 0.625854 0.000000
Si Si2 0.075342 0.924659 0.074025
Si Si3 0.666979 0.819375 0.875901
Si Si4 0.940476 0.365370 0.749747
Si Si5 0.560863 0.858682 0.000000
Si Si6 0.478901 0.235406 0.378527
O O1 0.077012 0.685021 0.935166
O O2 0.141453 0.548468 0.000000
O O3 0.963241 0.587218 0.000000
O O4 0.035892 0.841393 0.114512
O O5 0.102889 0.897112 0.000000
O O6 0.000000 0.000000 0.071289
O O7 0.738804 0.738804 0.875280
O O8 0.608199 0.816180 0.810233
O O9 0.599015 0.806921 0.936660
O O10 0.718502 0.914176 0.883325
O O11 0.888694 0.456863 0.770800
O O12 0.938151 0.297163 0.810125
#
# Coordination Sequence:
#
# PCOD8317824 Si02
#       6
#     8   8  16  16   8  16
#     4   9  16  29  47  68  88 120 157 192 237 287
#     4  11  22  34  48  70 100 135 169 199 236 288
#     4  10  19  30  46  70  96 126 156 196 241 295
#     4   9  18  32  50  71  96 125 160 202 252 295
#     4   9  17  28  46  68  95 118 150 193 243 289
#     4  10  19  32  48  68  94 129 162 200 237 285
#
# _framework density 16.138483000000001
#
# number of rings (size 3 to 8) (size 9 to 14) (size 15 to 20)
#    0.000    2.333    1.111    2.333    1.556    5.333 
#    0.000    0.000    0.000    0.000    0.000    0.000 
#    0.000    0.000    0.000    8.778    0.000    0.111 
#
# Total GULP energy -892801.095570 kJ/mol
# GULP energy per Si atom -12400.015216 kJ/mol
# Density = 1.610175 g / cm^3
# Si number density = 16.138483 Si / 1000 Ang^3
#
#
#
# Elastic Constant Matrix: (Units=GPa)
#
#
# Indices 1 2 3 4 5 6 
#
# 1 79.6951 40.2651 56.6953 0.0000 0.0000 0.0000
# 2 40.2651 79.6950 56.6953 0.0000 0.0000 0.0000
# 3 56.6953 56.6953 130.2820 0.0000 0.0000 0.0000
# 4 0.0000 0.0000 0.0000 21.3089 0.0000 0.0000
# 5 0.0000 0.0000 0.0000 0.0000 21.3089 0.0000
# 6 0.0000 0.0000 0.0000 0.0000 0.0000 28.1170
#
#
#
# Elastic Compliance Matrix: (Units=1/GPa)
#
#
# Indices 1 2 3 4 5 6 
#
# 1 0.019761 -0.005600 -0.006163 0.000000 0.000000 0.000000
# 2 -0.005600 0.019761 -0.006163 0.000000 0.000000 0.000000
# 3 -0.006163 -0.006163 0.013039 0.000000 0.000000 0.000000
# 4 0.000000 0.000000 0.000000 0.046929 0.000000 0.000000
# 5 0.000000 0.000000 0.000000 0.000000 0.046929 0.000000
# 6 0.000000 0.000000 0.000000 0.000000 0.000000 0.035566
#
#
# Mechanical properties :
#
#
# Convention : Reuss Voigt Hill
#
# Bulk Modulus (GPa) = 59.83969 66.33149 63.08559
# Shear Modulus (GPa) = 22.38078 23.21473 22.79776
#
# Velocity S-wave (km/s) = 3.72801 3.79683 3.76258
# Velocity P-wave (km/s) = 7.46258 7.77251 7.61912
#
# Compressibility (1/GPa) = 0.01671132
#
# Stress axis : x y z
#
# Youngs Moduli (GPa) = 50.60393 50.60394 76.69151
#
# Poissons Ratio (x) = 0.28339 0.47262
# Poissons Ratio (y) = 0.28339 0.47262
# Poissons Ratio (z) = 0.31185 0.31185
#
# Static dielectric constant tensor:
#      x y z
#    x 2.910700 0.000000 0.000000 
#    y 0.000000 2.910700 0.000000 
#    z 0.000000 0.000000 3.181440 
# 
# 
# High freq. dielectric constant tensor:
#      x y z
#    x 1.603590 0.000000 0.000000 
#    y 0.000000 1.603590 0.000000 
#    z 0.000000 0.000000 1.633240 
# 
# From -- ./inp_files/6115.got.cif
#   From: 2010.03.12/outbox.cif.g09.slc.cpg/sg136_4_cif.got.tgz:6115.got - 2010.04.06 18:39:43.
