data_PCOD8317720
_publ_section_title
;
Structure prediction by ZEFSAII (Michael W. Deem and Ramdas Pophale) SiO2 
 PCOD8317720
Probable space group: P 42/M N M
;
_chemical_formula_sum "Si O2"
_cell_formula_units_Z 112
_cell_length_a 20.839175
_cell_length_b 20.839175
_cell_length_c 16.919951
_cell_angle_alpha 90.000000
_cell_angle_beta 90.000000
_cell_angle_gamma 90.000000
_cell_volume 7347.847673
_symmetry_space_group_name_H-M "P 42/M N M"
_symmetry_group_IT_number 136
_symmetry_cell_setting 'tetragonal'
loop_
_space_group_symop_operation_xyz
x,y,z
1/2-y,1/2+x,1/2+z
-x,-y,z
1/2+y,1/2-x,1/2+z
1/2+x,1/2-y,1/2-z
1/2-x,1/2+y,1/2-z
y,x,-z
-y,-x,-z
-x,-y,-z
1/2+y,1/2-x,1/2-z
x,y,-z
1/2-y,1/2+x,1/2-z
1/2-x,1/2+y,1/2+z
1/2+x,1/2-y,1/2+z
-y,-x,z
y,x,z
loop_
_atom_site_type_symbol
_atom_site_label
_atom_site_fract_x
_atom_site_fract_y
_atom_site_fract_z
Si Si1 0.450265 0.450265 0.093144
Si Si2 0.775965 0.882074 0.910864
Si Si3 0.776380 0.114705 0.732891
Si Si4 0.552824 0.552824 0.588452
Si Si5 0.176834 0.283202 0.230771
Si Si6 0.002408 0.175030 0.174448
Si Si7 0.805811 0.909904 0.678491
Si Si8 0.194164 0.968501 0.408463
O O1 0.500000 0.500000 0.133206
O O2 0.379359 0.467506 0.120632
O O3 0.455367 0.455367 0.000000
O O4 0.841254 0.841254 0.895282
O O5 0.718375 0.857559 0.854840
O O6 0.789219 0.957156 0.893771
O O7 0.751823 0.874214 0.000000
O O8 0.835539 0.164462 0.737199
O O9 0.707115 0.147389 0.749665
O O10 0.770188 0.084182 0.644958
O O11 0.783725 0.059230 0.798243
O O12 0.500000 0.500000 0.575347
O O13 0.575547 0.575547 0.500000
O O14 0.609136 0.522709 0.639671
O O15 0.235599 0.235599 0.227091
O O16 0.126752 0.259723 0.297279
O O17 0.050367 0.164768 0.248155
O O18 0.859487 0.859487 0.648644
O O19 0.784212 0.958225 0.608521
O O20 0.204398 0.950569 0.500000
#
# Coordination Sequence:
#
# PCOD8317720 Si02
#       8
#     8  16  16   8  16  16  16  16
#     4   9  16  25  35  53  85 122 149 169 195 238
#     4   9  16  28  45  65  86 110 143 186 225 255
#     4  10  18  30  43  60  86 121 150 180 216 258
#     4  11  20  27  39  61  88 123 155 181 210 245
#     4   8  16  29  45  61  79 108 153 187 217 256
#     4  10  18  28  40  61  88 117 148 180 214 258
#     4   9  17  29  44  60  79 114 152 188 217 247
#     4  10  19  28  41  63  90 116 147 182 218 254
#
# _framework density 15.242558000000001
#
# number of rings (size 3 to 8) (size 9 to 14) (size 15 to 20)
#    0.000    2.571    1.429    3.000    0.000    2.571 
#    0.000    3.571    0.000    1.714    0.000    0.000 
#    0.000   46.286    0.000   23.143    0.000    0.000 
#
# Total GULP energy -1388044.872435 kJ/mol
# GULP energy per Si atom -12393.257790 kJ/mol
# Density = 1.520787 g / cm^3
# Si number density = 15.242558 Si / 1000 Ang^3
#
#
#
# Elastic Constant Matrix: (Units=GPa)
#
#
# Indices 1 2 3 4 5 6 
#
# 1 64.1028 45.9276 18.5706 0.0000 0.0000 0.0000
# 2 45.9276 64.1028 18.5706 0.0000 0.0000 0.0000
# 3 18.5706 18.5706 33.3948 0.0000 0.0000 0.0000
# 4 0.0000 0.0000 0.0000 15.1593 0.0000 0.0000
# 5 0.0000 0.0000 0.0000 0.0000 15.1593 0.0000
# 6 0.0000 0.0000 0.0000 0.0000 0.0000 31.6670
#
#
#
# Elastic Compliance Matrix: (Units=1/GPa)
#
#
# Indices 1 2 3 4 5 6 
#
# 1 0.033104 -0.021916 -0.006222 0.000000 0.000000 0.000000
# 2 -0.021916 0.033104 -0.006222 0.000000 0.000000 0.000000
# 3 -0.006222 -0.006222 0.036865 0.000000 0.000000 0.000000
# 4 0.000000 0.000000 0.000000 0.065966 0.000000 0.000000
# 5 0.000000 0.000000 0.000000 0.000000 0.065966 0.000000
# 6 0.000000 0.000000 0.000000 0.000000 0.000000 0.031579
#
#
# Mechanical properties :
#
#
# Convention : Reuss Voigt Hill
#
# Bulk Modulus (GPa) = 29.10847 36.41535 32.76191
# Shear Modulus (GPa) = 14.41940 17.63255 16.02597
#
# Velocity S-wave (km/s) = 3.07904 3.40486 3.24604
# Velocity P-wave (km/s) = 5.63728 6.27693 5.96569
#
# Compressibility (1/GPa) = 0.03435426
#
# Stress axis : x y z
#
# Youngs Moduli (GPa) = 30.20746 30.20746 27.12623
#
# Poissons Ratio (x) = 0.66202 0.16878
# Poissons Ratio (y) = 0.66202 0.16878
# Poissons Ratio (z) = 0.18795 0.18795
#
# Static dielectric constant tensor:
#      x y z
#    x 3.000880 0.000000 0.000000 
#    y 0.000000 3.000880 0.000000 
#    z 0.000000 0.000000 2.920260 
# 
# 
# High freq. dielectric constant tensor:
#      x y z
#    x 1.559770 0.000000 0.000000 
#    y 0.000000 1.559770 0.000000 
#    z 0.000000 0.000000 1.581330 
# 
# From -- ./inp_files/6611.got.cif
#   From: 2010.03.12/outbox.cif.g09.slc.cpg/sg136_4_cif.got.tgz:6611.got - 2010.04.06 18:39:43.
