data_PCOD8317933
_publ_section_title
;
Structure prediction by ZEFSAII (Michael W. Deem and Ramdas Pophale) SiO2 
 PCOD8317933
Probable space group: P 42/M N M
;
_chemical_formula_sum "Si O2"
_cell_formula_units_Z 88
_cell_length_a 13.848838
_cell_length_b 13.848838
_cell_length_c 24.592029
_cell_angle_alpha 90.000000
_cell_angle_beta 90.000000
_cell_angle_gamma 90.000000
_cell_volume 4716.512963
_symmetry_space_group_name_H-M "P 42/M N M"
_symmetry_group_IT_number 136
_symmetry_cell_setting 'tetragonal'
loop_
_space_group_symop_operation_xyz
x,y,z
1/2-y,1/2+x,1/2+z
-x,-y,z
1/2+y,1/2-x,1/2+z
1/2+x,1/2-y,1/2-z
1/2-x,1/2+y,1/2-z
y,x,-z
-y,-x,-z
-x,-y,-z
1/2+y,1/2-x,1/2-z
x,y,-z
1/2-y,1/2+x,1/2-z
1/2-x,1/2+y,1/2+z
1/2+x,1/2-y,1/2+z
-y,-x,z
y,x,z
loop_
_atom_site_type_symbol
_atom_site_label
_atom_site_fract_x
_atom_site_fract_y
_atom_site_fract_z
Si Si1 0.581801 0.929916 0.439849
Si Si2 0.281365 0.874848 0.354497
Si Si3 0.102616 0.380377 0.749040
Si Si4 0.922817 0.922817 0.064760
Si Si5 0.791058 0.422272 0.439787
Si Si6 0.754724 0.407420 0.145971
O O1 0.608966 0.971471 0.500000
O O2 0.530988 0.827299 0.445068
O O3 0.678024 0.908475 0.406819
O O4 0.500000 0.000000 0.412274
O O5 0.196429 0.803572 0.368127
O O6 0.336118 0.843389 0.299895
O O7 0.356638 0.865359 0.404491
O O8 0.231056 0.979345 0.346726
O O9 0.128804 0.490508 0.734773
O O10 0.130796 0.314453 0.697722
O O11 0.814184 0.939800 0.086363
O O12 0.929755 0.929755 0.000000
O O13 0.000000 0.000000 0.090021
O O14 0.783388 0.374353 0.500000
O O15 0.658840 0.341161 0.137711
#
# Coordination Sequence:
#
# PCOD8317933 Si02
#       6
#    16  16  16   8  16  16
#     4  10  20  35  58  84 111 143 184 230 279 338
#     4  11  21  35  57  81 108 151 197 232 276 339
#     4   9  19  35  59  85 109 141 185 237 285 337
#     4   9  18  32  50  78 115 145 175 221 281 339
#     4  10  19  33  56  83 109 144 187 229 275 336
#     4  11  23  37  55  83 117 147 184 238 290 337
#
# _framework density 18.657851000000001
#
# number of rings (size 3 to 8) (size 9 to 14) (size 15 to 20)
#    0.000    1.909    2.727    1.636    2.545    1.455 
#    0.000    1.818    0.000    1.091    0.000    2.545 
#    0.000    0.000    0.000    0.000    0.000    0.000 
#
# Total GULP energy -1090262.367260 kJ/mol
# GULP energy per Si atom -12389.345083 kJ/mol
# Density = 1.861538 g / cm^3
# Si number density = 18.657851 Si / 1000 Ang^3
#
#
#
# Elastic Constant Matrix: (Units=GPa)
#
#
# Indices 1 2 3 4 5 6 
#
# 1 70.8130 23.5305 24.7777 0.0000 0.0000 0.0000
# 2 23.5305 70.8130 24.7777 0.0000 0.0000 0.0000
# 3 24.7777 24.7777 85.9203 0.0000 0.0000 0.0000
# 4 0.0000 0.0000 0.0000 19.6326 0.0000 0.0000
# 5 0.0000 0.0000 0.0000 0.0000 19.6326 0.0000
# 6 0.0000 0.0000 0.0000 0.0000 0.0000 43.2219
#
#
#
# Elastic Compliance Matrix: (Units=1/GPa)
#
#
# Indices 1 2 3 4 5 6 
#
# 1 0.016821 -0.004329 -0.003602 0.000000 0.000000 0.000000
# 2 -0.004329 0.016821 -0.003602 0.000000 0.000000 0.000000
# 3 -0.003602 -0.003602 0.013716 0.000000 0.000000 0.000000
# 4 0.000000 0.000000 0.000000 0.050936 0.000000 0.000000
# 5 0.000000 0.000000 0.000000 0.000000 0.050936 0.000000
# 6 0.000000 0.000000 0.000000 0.000000 0.000000 0.023136
#
#
# Mechanical properties :
#
#
# Convention : Reuss Voigt Hill
#
# Bulk Modulus (GPa) = 41.16848 41.52424 41.34636
# Shear Modulus (GPa) = 24.56649 26.79480 25.68064
#
# Velocity S-wave (km/s) = 3.63255 3.79372 3.71401
# Velocity P-wave (km/s) = 6.30133 6.44156 6.37183
#
# Compressibility (1/GPa) = 0.02429043
#
# Stress axis : x y z
#
# Youngs Moduli (GPa) = 59.45087 59.45087 72.90544
#
# Poissons Ratio (x) = 0.25735 0.26263
# Poissons Ratio (y) = 0.25735 0.26263
# Poissons Ratio (z) = 0.21416 0.21416
#
# Static dielectric constant tensor:
#      x y z
#    x 3.439010 0.000000 0.000000 
#    y 0.000000 3.439010 0.000000 
#    z 0.000000 0.000000 3.405130 
# 
# 
# High freq. dielectric constant tensor:
#      x y z
#    x 1.716340 0.000000 0.000000 
#    y 0.000000 1.716340 0.000000 
#    z 0.000000 0.000000 1.716690 
# 
# From -- ./inp_files/7389.got.cif
#   From: 2010.03.12/outbox.cif.g09.slc.cpg/sg136_4_cif.got.tgz:7389.got - 2010.04.06 18:39:43.
