data_PCOD8317281
_publ_section_title
;
Structure prediction by ZEFSAII (Michael W. Deem and Ramdas Pophale) SiO2 
 PCOD8317281
Probable space group: P 42/N N M
;
_chemical_formula_sum "Si O2"
_cell_formula_units_Z 80
_cell_length_a 16.598792
_cell_length_b 16.598792
_cell_length_c 14.776081
_cell_angle_alpha 90.000000
_cell_angle_beta 90.000000
_cell_angle_gamma 90.000000
_cell_volume 4071.104298
_symmetry_space_group_name_H-M "P 42/N N M"
_symmetry_group_IT_number 134
_space_group.IT_coordinate_system_code '2'
_symmetry_cell_setting 'tetragonal'
loop_
_space_group_symop_operation_xyz
x,y,z
1/2-y,x,1/2+z
1/2-x,1/2-y,z
y,1/2-x,1/2+z
x,1/2-y,1/2-z
1/2-x,y,1/2-z
y,x,-z
1/2-y,1/2-x,-z
-x,-y,-z
1/2+y,-x,1/2-z
1/2+x,1/2+y,-z
-y,1/2+x,1/2-z
-x,1/2+y,1/2+z
1/2+x,-y,1/2+z
-y,-x,z
1/2+y,1/2+x,z
loop_
_atom_site_type_symbol
_atom_site_label
_atom_site_fract_x
_atom_site_fract_y
_atom_site_fract_z
Si Si1 0.963285 0.594452 0.324524
Si Si2 0.748204 0.377395 0.571114
Si Si3 0.632307 0.867694 0.500000
Si Si4 0.561565 0.929125 0.871378
Si Si5 0.540926 0.708920 0.495359
Si Si6 0.750000 0.454924 0.750000
O O1 0.904356 0.592087 0.409981
O O2 0.916891 0.560810 0.236379
O O3 0.041335 0.541335 0.346642
O O4 0.990587 0.684676 0.301737
O O5 0.682659 0.317342 0.526933
O O6 0.835621 0.335621 0.575817
O O7 0.758015 0.457326 0.510346
O O8 0.714722 0.398082 0.671450
O O9 0.615257 0.771689 0.499706
O O10 0.536894 0.844243 0.914327
O O11 0.499625 0.999625 0.900682
O O12 0.650869 0.951688 0.907650
#
# Coordination Sequence:
#
# PCOD8317281 Si02
#       6
#    16  16   8  16  16   8
#     4  11  22  38  59  85 119 161 205 244 300 369
#     4  11  21  33  56  91 127 155 186 244 320 387
#     4  12  25  37  56  84 124 166 195 249 310 358
#     4  10  21  40  67  88 111 154 206 263 304 353
#     4  11  22  38  59  87 120 156 205 244 302 367
#     4  12  20  35  58  89 124 156 192 250 306 379
#
# _framework density 19.650689
#
# number of rings (size 3 to 8) (size 9 to 14) (size 15 to 20)
#    0.000    1.000    4.000    4.500    0.000    4.000 
#    0.000    0.000    0.000    6.000    0.000    0.000 
#    0.000    6.400    0.000    0.000    0.000    0.000 
#
# Total GULP energy -991862.337137 kJ/mol
# GULP energy per Si atom -12398.279214 kJ/mol
# Density = 1.960596 g / cm^3
# Si number density = 19.650689 Si / 1000 Ang^3
#
#
#
# Elastic Constant Matrix: (Units=GPa)
#
#
# Indices 1 2 3 4 5 6 
#
# 1 110.3855 65.1328 47.1835 0.0000 0.0000 0.0000
# 2 65.1328 110.3842 47.1840 0.0000 0.0000 0.0000
# 3 47.1835 47.1840 117.1632 0.0000 0.0000 0.0000
# 4 0.0000 0.0000 0.0000 27.3959 0.0000 0.0000
# 5 0.0000 0.0000 0.0000 0.0000 27.3956 0.0000
# 6 0.0000 0.0000 0.0000 0.0000 0.0000 39.7309
#
#
#
# Elastic Compliance Matrix: (Units=1/GPa)
#
#
# Indices 1 2 3 4 5 6 
#
# 1 0.014685 -0.007413 -0.002928 0.000000 0.000000 0.000000
# 2 -0.007413 0.014685 -0.002929 0.000000 0.000000 0.000000
# 3 -0.002928 -0.002929 0.010894 0.000000 0.000000 0.000000
# 4 0.000000 0.000000 0.000000 0.036502 0.000000 0.000000
# 5 0.000000 0.000000 0.000000 0.000000 0.036502 0.000000
# 6 0.000000 0.000000 0.000000 0.000000 0.000000 0.025169
#
#
# Mechanical properties :
#
#
# Convention : Reuss Voigt Hill
#
# Bulk Modulus (GPa) = 72.86719 72.99261 72.92990
# Shear Modulus (GPa) = 29.48933 30.80000 30.14467
#
# Velocity S-wave (km/s) = 3.87806 3.96330 3.92091
# Velocity P-wave (km/s) = 7.56401 7.62689 7.59551
#
# Compressibility (1/GPa) = 0.01372360
#
# Stress axis : x y z
#
# Youngs Moduli (GPa) = 68.09637 68.09505 91.79474
#
# Poissons Ratio (x) = 0.50480 0.26882
# Poissons Ratio (y) = 0.50481 0.26884
# Poissons Ratio (z) = 0.19942 0.19943
#
# Static dielectric constant tensor:
#      x y z
#    x 3.532820 0.000000 0.000000 
#    y 0.000000 3.532840 0.000000 
#    z 0.000000 0.000000 3.628200 
# 
# 
# High freq. dielectric constant tensor:
#      x y z
#    x 1.763080 0.000000 0.000000 
#    y 0.000000 1.763080 0.000000 
#    z 0.000000 0.000000 1.755320 
# 
# From -- ./inp_files/6401.got.cif
#   From: 2010.03.12/outbox.cif.g09.slc.cpg/sg134_4_cif.got.tgz:6401.got - 2010.04.06 18:17:22.
