data_PCOD8317001
_publ_section_title
;
Structure prediction by ZEFSAII (Michael W. Deem and Ramdas Pophale) SiO2 
 PCOD8317001
Probable space group: P 42/N B C
;
_chemical_formula_sum "Si O2"
_cell_formula_units_Z 112
_cell_length_a 14.108886
_cell_length_b 14.108886
_cell_length_c 30.635681
_cell_angle_alpha 90.000000
_cell_angle_beta 90.000000
_cell_angle_gamma 90.000000
_cell_volume 6098.359007
_symmetry_space_group_name_H-M "P 42/N B C"
_symmetry_group_IT_number 133
_space_group.IT_coordinate_system_code '2'
_symmetry_cell_setting 'tetragonal'
loop_
_space_group_symop_operation_xyz
x,y,z
1/2-y,x,1/2+z
1/2-x,1/2-y,z
y,1/2-x,1/2+z
x,1/2-y,-z
1/2-x,y,-z
y,x,1/2-z
1/2-y,1/2-x,1/2-z
-x,-y,-z
1/2+y,-x,1/2-z
1/2+x,1/2+y,-z
-y,1/2+x,1/2-z
-x,1/2+y,z
1/2+x,-y,z
-y,-x,1/2+z
1/2+y,1/2+x,1/2+z
loop_
_atom_site_type_symbol
_atom_site_label
_atom_site_fract_x
_atom_site_fract_y
_atom_site_fract_z
Si Si1 0.245599 0.516056 0.843355
Si Si2 0.066142 0.591155 0.112523
Si Si3 0.999166 0.758319 0.168554
Si Si4 0.925530 0.417450 0.108358
Si Si5 0.398496 0.729797 0.745056
Si Si6 0.249201 0.859943 0.551396
Si Si7 0.333295 0.318953 0.702181
O O1 0.339862 0.564879 0.861187
O O2 0.167195 0.518759 0.881588
O O3 0.197732 0.568529 0.802382
O O4 0.265029 0.413237 0.824519
O O5 0.091139 0.655038 0.070147
O O6 0.003843 0.658117 0.143773
O O7 0.010795 0.493219 0.100411
O O8 0.893534 0.796502 0.166820
O O9 0.062148 0.841934 0.147709
O O10 0.019624 0.742136 0.219596
O O11 0.909287 0.349482 0.066557
O O12 0.329239 0.651818 0.764284
O O13 0.250000 0.750000 0.565981
O O14 0.250000 0.871992 0.500000
O O15 0.250000 0.250000 0.713694
O O16 0.363704 0.363704 0.750000
#
# Coordination Sequence:
#
# PCOD8317001 Si02
#       7
#    16  16  16  16  16  16  16
#     4  12  21  36  56  83 115 156 203 245 289 334
#     4  11  23  38  61  88 117 151 192 238 291 352
#     4  11  21  36  53  82 112 152 206 242 282 340
#     4  11  23  38  61  89 117 151 192 241 292 350
#     4  11  21  31  51  79 114 152 196 253 297 328
#     4  10  22  42  69  95 117 143 184 239 301 367
#     4  11  23  36  50  73 117 165 201 240 286 330
#
# _framework density 18.365594999999999
#
# number of rings (size 3 to 8) (size 9 to 14) (size 15 to 20)
#    0.000    1.000    7.143    0.857    0.000    0.571 
#    0.000    1.429    0.000    0.000    0.000    1.000 
#    0.000    0.000    0.000    0.000    0.000    0.000 
#
# Total GULP energy -1387818.155541 kJ/mol
# GULP energy per Si atom -12391.233532 kJ/mol
# Density = 1.832379 g / cm^3
# Si number density = 18.365595 Si / 1000 Ang^3
#
#
#
# Elastic Constant Matrix: (Units=GPa)
#
#
# Indices 1 2 3 4 5 6 
#
# 1 79.4869 20.8448 33.4112 0.0000 0.0000 0.0000
# 2 20.8448 79.4869 33.4112 0.0000 0.0000 0.0000
# 3 33.4112 33.4112 88.3654 0.0000 0.0000 0.0000
# 4 0.0000 0.0000 0.0000 29.0674 0.0000 0.0000
# 5 0.0000 0.0000 0.0000 0.0000 29.0674 0.0000
# 6 0.0000 0.0000 0.0000 0.0000 0.0000 102.0687
#
#
#
# Elastic Compliance Matrix: (Units=1/GPa)
#
#
# Indices 1 2 3 4 5 6 
#
# 1 0.015187 -0.001865 -0.005037 0.000000 0.000000 0.000000
# 2 -0.001865 0.015187 -0.005037 0.000000 0.000000 0.000000
# 3 -0.005037 -0.005037 0.015126 0.000000 0.000000 0.000000
# 4 0.000000 0.000000 0.000000 0.034403 0.000000 0.000000
# 5 0.000000 0.000000 0.000000 0.000000 0.034403 0.000000
# 6 0.000000 0.000000 0.000000 0.000000 0.000000 0.009797
#
#
# Mechanical properties :
#
#
# Convention : Reuss Voigt Hill
#
# Bulk Modulus (GPa) = 46.25115 46.96373 46.60744
# Shear Modulus (GPa) = 32.21889 42.68551 37.45220
#
# Velocity S-wave (km/s) = 4.19299 4.82624 4.52071
# Velocity P-wave (km/s) = 6.97709 7.52887 7.25822
#
# Compressibility (1/GPa) = 0.02162108
#
# Stress axis : x y z
#
# Youngs Moduli (GPa) = 65.84536 65.84536 66.11299
#
# Poissons Ratio (x) = 0.12283 0.33301
# Poissons Ratio (y) = 0.12283 0.33301
# Poissons Ratio (z) = 0.33166 0.33166
#
# Static dielectric constant tensor:
#      x y z
#    x 3.393450 0.000000 0.000000 
#    y 0.000000 3.393450 0.000000 
#    z 0.000000 0.000000 3.151060 
# 
# 
# High freq. dielectric constant tensor:
#      x y z
#    x 1.714980 0.000000 0.000000 
#    y 0.000000 1.714980 0.000000 
#    z 0.000000 0.000000 1.693680 
# 
# From -- ./inp_files/8086.got.cif
#   From: 2010.03.12/outbox.cif.g09.slc.cpg/sg133_5_cif.got.tgz:8086.got - 2010.04.06 18:08:06.
