data_PCOD8317205
_publ_section_title
;
Structure prediction by ZEFSAII (Michael W. Deem and Ramdas Pophale) SiO2 
 PCOD8317205
Probable space group: P 42/N N M
;
_chemical_formula_sum "Si O2"
_cell_formula_units_Z 104
_cell_length_a 17.991438
_cell_length_b 17.991438
_cell_length_c 17.565515
_cell_angle_alpha 90.000000
_cell_angle_beta 90.000000
_cell_angle_gamma 90.000000
_cell_volume 5685.813894
_symmetry_space_group_name_H-M "P 42/N N M"
_symmetry_group_IT_number 134
_space_group.IT_coordinate_system_code '2'
_symmetry_cell_setting 'tetragonal'
loop_
_space_group_symop_operation_xyz
x,y,z
1/2-y,x,1/2+z
1/2-x,1/2-y,z
y,1/2-x,1/2+z
x,1/2-y,1/2-z
1/2-x,y,1/2-z
y,x,-z
1/2-y,1/2-x,-z
-x,-y,-z
1/2+y,-x,1/2-z
1/2+x,1/2+y,-z
-y,1/2+x,1/2-z
-x,1/2+y,1/2+z
1/2+x,-y,1/2+z
-y,-x,z
1/2+y,1/2+x,z
loop_
_atom_site_type_symbol
_atom_site_label
_atom_site_fract_x
_atom_site_fract_y
_atom_site_fract_z
Si Si1 0.872137 0.250000 0.750000
Si Si2 0.563388 0.319211 0.889285
Si Si3 0.201473 0.920841 0.823700
Si Si4 0.397934 0.168577 0.570824
Si Si5 0.279534 0.408825 0.832736
Si Si6 0.406301 0.716367 0.522598
Si Si7 0.074455 0.311372 0.021107
O O1 0.821737 0.178264 0.735013
O O2 0.925662 0.240476 0.822274
O O3 0.605703 0.394298 0.868871
O O4 0.478675 0.342911 0.895192
O O5 0.598463 0.285603 0.965774
O O6 0.250000 0.902834 0.750000
O O7 0.123735 0.876265 0.820781
O O8 0.251508 0.893824 0.893674
O O9 0.183460 0.008903 0.829627
O O10 0.387788 0.112212 0.500000
O O11 0.339749 0.151352 0.638324
O O12 0.389676 0.251716 0.537459
O O13 0.250000 0.384190 0.750000
O O14 0.210971 0.408865 0.891668
O O15 0.343436 0.656565 0.503522
O O16 0.486589 0.678651 0.511006
O O17 0.109923 0.390078 0.000000
#
# Coordination Sequence:
#
# PCOD8317205 Si02
#       7
#     8  16  16  16  16  16  16
#     4   9  18  34  54  72 101 144 180 218 265 304
#     4  10  20  34  53  78 107 141 178 216 261 311
#     4  10  20  33  52  79 112 145 173 209 258 313
#     4   9  19  35  54  78 106 135 170 215 265 315
#     4   9  19  36  54  77 106 135 174 215 257 312
#     4  10  20  33  52  79 107 137 179 222 258 312
#     4   9  19  37  55  72 103 139 171 217 270 314
#
# _framework density 18.291136000000002
#
# number of rings (size 3 to 8) (size 9 to 14) (size 15 to 20)
#    0.000    2.538    0.000    2.308    0.000    6.615 
#    5.538    0.769    0.000    0.000    0.000    0.000 
#    0.000    0.000    0.000    0.000    0.000    0.000 
#
# Total GULP energy -1289556.451368 kJ/mol
# GULP energy per Si atom -12399.581263 kJ/mol
# Density = 1.824950 g / cm^3
# Si number density = 18.291136 Si / 1000 Ang^3
#
#
#
# Elastic Constant Matrix: (Units=GPa)
#
#
# Indices 1 2 3 4 5 6 
#
# 1 53.9216 26.7468 29.6958 0.0000 0.0000 0.0000
# 2 26.7468 53.9177 29.6955 0.0000 0.0000 0.0000
# 3 29.6958 29.6955 106.2735 0.0000 0.0000 0.0000
# 4 0.0000 0.0000 0.0000 27.7495 0.0000 0.0000
# 5 0.0000 0.0000 0.0000 0.0000 27.7492 0.0000
# 6 0.0000 0.0000 0.0000 0.0000 0.0000 26.5080
#
#
#
# Elastic Compliance Matrix: (Units=1/GPa)
#
#
# Indices 1 2 3 4 5 6 
#
# 1 0.026203 -0.010597 -0.004361 0.000000 0.000000 0.000000
# 2 -0.010597 0.026206 -0.004361 0.000000 0.000000 0.000000
# 3 -0.004361 -0.004361 0.011847 0.000000 0.000000 0.000000
# 4 0.000000 0.000000 0.000000 0.036037 0.000000 0.000000
# 5 0.000000 0.000000 0.000000 0.000000 0.036037 0.000000
# 6 0.000000 0.000000 0.000000 0.000000 0.000000 0.037724
#
#
# Mechanical properties :
#
#
# Convention : Reuss Voigt Hill
#
# Bulk Modulus (GPa) = 39.03577 42.93212 40.98395
# Shear Modulus (GPa) = 22.60070 24.93299 23.76684
#
# Velocity S-wave (km/s) = 3.51894 3.69605 3.60858
# Velocity P-wave (km/s) = 6.15616 6.46041 6.31012
#
# Compressibility (1/GPa) = 0.02561753
#
# Stress axis : x y z
#
# Youngs Moduli (GPa) = 38.16286 38.15972 84.40984
#
# Poissons Ratio (x) = 0.40437 0.36811
# Poissons Ratio (y) = 0.40441 0.36815
# Poissons Ratio (z) = 0.16643 0.16643
#
# Static dielectric constant tensor:
#      x y z
#    x 3.226330 0.000000 0.000000 
#    y 0.000000 3.226330 0.000000 
#    z 0.000000 0.000000 3.526360 
# 
# 
# High freq. dielectric constant tensor:
#      x y z
#    x 1.698670 0.000000 0.000000 
#    y 0.000000 1.698670 0.000000 
#    z 0.000000 0.000000 1.719410 
# 
# From -- ./inp_files/7994.got.cif
#   From: 2010.03.12/outbox.cif.g09.slc.cpg/sg134_4_cif.got.tgz:7994.got - 2010.04.06 18:17:22.
