data_PCOD8317505
_publ_section_title
;
Structure prediction by ZEFSAII (Michael W. Deem and Ramdas Pophale) SiO2 
 PCOD8317505
Probable space group: P 42/M B C
;
_chemical_formula_sum "Si O2"
_cell_formula_units_Z 96
_cell_length_a 24.014623
_cell_length_b 24.014623
_cell_length_c 8.451126
_cell_angle_alpha 90.000000
_cell_angle_beta 90.000000
_cell_angle_gamma 90.000000
_cell_volume 4873.782262
_symmetry_space_group_name_H-M "P 42/M B C"
_symmetry_group_IT_number 135
_symmetry_cell_setting 'tetragonal'
loop_
_space_group_symop_operation_xyz
x,y,z
-y,x,1/2+z
-x,-y,z
y,-x,1/2+z
1/2+x,1/2-y,-z
1/2-x,1/2+y,-z
1/2+y,1/2+x,1/2-z
1/2-y,1/2-x,1/2-z
-x,-y,-z
y,-x,1/2-z
x,y,-z
-y,x,1/2-z
1/2-x,1/2+y,z
1/2+x,1/2-y,z
1/2-y,1/2-x,1/2+z
1/2+y,1/2+x,1/2+z
loop_
_atom_site_type_symbol
_atom_site_label
_atom_site_fract_x
_atom_site_fract_y
_atom_site_fract_z
Si Si1 0.862001 0.554656 0.684550
Si Si2 0.356889 0.649218 0.683737
Si Si3 0.060982 0.941581 0.316193
Si Si4 0.278449 0.858812 0.815586
Si Si5 0.351920 0.232694 0.185229
Si Si6 0.064723 0.646675 0.683959
O O1 0.918889 0.581112 0.750000
O O2 0.867997 0.540448 0.500000
O O3 0.810635 0.595515 0.713043
O O4 0.850103 0.500149 0.785649
O O5 0.361026 0.633271 0.500000
O O6 0.400910 0.611904 0.776981
O O7 0.370262 0.713816 0.712020
O O8 0.294873 0.639113 0.752734
O O9 0.047701 0.938087 0.500000
O O10 0.004938 0.922507 0.226438
O O11 0.298110 0.798110 0.750000
O O12 0.294527 0.863856 0.000000
O O13 0.296097 0.203904 0.250000
O O14 0.406398 0.197765 0.226815
O O15 0.343362 0.237514 0.000000
O O16 0.088507 0.588507 0.750000
O O17 0.078606 0.651825 0.500000
#
# Coordination Sequence:
#
# PCOD8317505 Si02
#       6
#    16  16  16  16  16  16
#     4  11  22  38  58  82 112 148 189 234 282 334
#     4  10  22  38  59  87 117 149 190 230 273 332
#     4  11  23  41  64  85 113 147 183 229 282 335
#     4  10  20  36  57  83 116 152 187 231 280 330
#     4  10  20  36  57  83 116 152 187 231 280 330
#     4  11  22  38  58  82 112 148 189 234 282 334
#
# _framework density 19.697227999999999
#
# number of rings (size 3 to 8) (size 9 to 14) (size 15 to 20)
#    0.000    1.500    0.000    8.500    0.000    4.333 
#    0.000    1.667    0.000    0.000    0.000    0.000 
#    0.000    0.000    0.000    0.000    0.000    0.000 
#
# Total GULP energy -1190653.044690 kJ/mol
# GULP energy per Si atom -12402.635882 kJ/mol
# Density = 1.965240 g / cm^3
# Si number density = 19.697228 Si / 1000 Ang^3
#
#
#
# Elastic Constant Matrix: (Units=GPa)
#
#
# Indices 1 2 3 4 5 6 
#
# 1 97.9370 48.4821 15.0099 0.0000 0.0000 0.0000
# 2 48.4821 97.9341 15.0091 0.0000 0.0000 0.0000
# 3 15.0099 15.0091 69.8279 0.0000 0.0000 0.0000
# 4 0.0000 0.0000 0.0000 30.9803 0.0000 0.0000
# 5 0.0000 0.0000 0.0000 0.0000 30.9805 0.0000
# 6 0.0000 0.0000 0.0000 0.0000 0.0000 25.9897
#
#
#
# Elastic Compliance Matrix: (Units=1/GPa)
#
#
# Indices 1 2 3 4 5 6 
#
# 1 0.013683 -0.006538 -0.001536 0.000000 0.000000 0.000000
# 2 -0.006538 0.013683 -0.001536 0.000000 0.000000 0.000000
# 3 -0.001536 -0.001536 0.014981 0.000000 0.000000 0.000000
# 4 0.000000 0.000000 0.000000 0.032279 0.000000 0.000000
# 5 0.000000 0.000000 0.000000 0.000000 0.032278 0.000000
# 6 0.000000 0.000000 0.000000 0.000000 0.000000 0.038477
#
#
# Mechanical properties :
#
#
# Convention : Reuss Voigt Hill
#
# Bulk Modulus (GPa) = 43.23867 46.96683 45.10275
# Shear Modulus (GPa) = 29.01761 30.06994 29.54378
#
# Velocity S-wave (km/s) = 3.84237 3.91142 3.87705
# Velocity P-wave (km/s) = 6.45634 6.65546 6.55666
#
# Compressibility (1/GPa) = 0.02312744
#
# Stress axis : x y z
#
# Youngs Moduli (GPa) = 73.08518 73.08322 66.75062
#
# Poissons Ratio (x) = 0.47783 0.10252
# Poissons Ratio (y) = 0.47785 0.10251
# Poissons Ratio (z) = 0.11225 0.11223
#
# Static dielectric constant tensor:
#      x y z
#    x 3.601410 0.000000 0.000000 
#    y 0.000000 3.601410 0.000000 
#    z 0.000000 0.000000 3.692660 
# 
# 
# High freq. dielectric constant tensor:
#      x y z
#    x 1.769840 0.000000 0.000000 
#    y 0.000000 1.769840 0.000000 
#    z 0.000000 0.000000 1.779690 
# 
# From -- ./inp_files/1277.got.cif
#   From: 2010.03.12/outbox.cif.g09.slc.cpg/sg135_1_cif.got.tgz:1277.got - 2010.04.06 18:31:24.
