data_PCOD8317104
_publ_section_title
;
Structure prediction by ZEFSAII (Michael W. Deem and Ramdas Pophale) SiO2 
 PCOD8317104
Probable space group: P 42/N N M
;
_chemical_formula_sum "Si O2"
_cell_formula_units_Z 56
_cell_length_a 17.611004
_cell_length_b 17.611004
_cell_length_c 10.677308
_cell_angle_alpha 90.000000
_cell_angle_beta 90.000000
_cell_angle_gamma 90.000000
_cell_volume 3311.539976
_symmetry_space_group_name_H-M "P 42/N N M"
_symmetry_group_IT_number 134
_space_group.IT_coordinate_system_code '2'
_symmetry_cell_setting 'tetragonal'
loop_
_space_group_symop_operation_xyz
x,y,z
1/2-y,x,1/2+z
1/2-x,1/2-y,z
y,1/2-x,1/2+z
x,1/2-y,1/2-z
1/2-x,y,1/2-z
y,x,-z
1/2-y,1/2-x,-z
-x,-y,-z
1/2+y,-x,1/2-z
1/2+x,1/2+y,-z
-y,1/2+x,1/2-z
-x,1/2+y,1/2+z
1/2+x,-y,1/2+z
-y,-x,z
1/2+y,1/2+x,z
loop_
_atom_site_type_symbol
_atom_site_label
_atom_site_fract_x
_atom_site_fract_y
_atom_site_fract_z
Si Si1 0.165717 0.959046 0.215749
Si Si2 0.894184 0.838202 0.374897
Si Si3 0.097896 0.250000 0.250000
Si Si4 0.312988 0.061627 0.496801
O O1 0.250000 0.931523 0.250000
O O2 0.110023 0.889978 0.241872
O O3 0.138280 0.030788 0.298750
O O4 0.164025 0.982361 0.068689
O O5 0.889879 0.889879 0.500000
O O6 0.819053 0.848759 0.292223
O O7 0.896953 0.749311 0.409310
O O8 0.045204 0.220975 0.135124
O O9 0.386231 0.113770 0.500000
#
# Coordination Sequence:
#
# PCOD8317104 Si02
#       4
#    16  16   8  16
#     4  10  21  38  54  75 102 131 180 228 265 311
#     4   9  19  31  49  76 107 142 171 208 248 313
#     4  10  18  31  46  74 116 143 172 198 256 309
#     4  10  19  31  48  76 107 143 175 206 252 312
#
# _framework density 16.910561999999999
#
# number of rings (size 3 to 8) (size 9 to 14) (size 15 to 20)
#    0.000    2.286    2.857    0.000    0.000    7.714 
#    0.000    0.000    0.000    1.714    0.000    0.000 
#    0.000    0.000    0.000    0.000    0.000    0.000 
#
# Total GULP energy -694240.602866 kJ/mol
# GULP energy per Si atom -12397.153623 kJ/mol
# Density = 1.687207 g / cm^3
# Si number density = 16.910562 Si / 1000 Ang^3
#
#
#
# Elastic Constant Matrix: (Units=GPa)
#
#
# Indices 1 2 3 4 5 6 
#
# 1 89.9612 61.5053 45.0613 0.0000 0.0000 0.0000
# 2 61.5053 89.9617 45.0618 0.0000 0.0000 0.0000
# 3 45.0613 45.0618 107.3302 0.0000 0.0000 0.0000
# 4 0.0000 0.0000 0.0000 15.4321 0.0000 0.0000
# 5 0.0000 0.0000 0.0000 0.0000 15.4314 0.0000
# 6 0.0000 0.0000 0.0000 0.0000 0.0000 23.9460
#
#
#
# Elastic Compliance Matrix: (Units=1/GPa)
#
#
# Indices 1 2 3 4 5 6 
#
# 1 0.021971 -0.013171 -0.003695 0.000000 0.000000 0.000000
# 2 -0.013171 0.021971 -0.003695 0.000000 0.000000 0.000000
# 3 -0.003695 -0.003695 0.012420 0.000000 0.000000 0.000000
# 4 0.000000 0.000000 0.000000 0.064800 0.000000 0.000000
# 5 0.000000 0.000000 0.000000 0.000000 0.064803 0.000000
# 6 0.000000 0.000000 0.000000 0.000000 0.000000 0.041761
#
#
# Mechanical properties :
#
#
# Convention : Reuss Voigt Hill
#
# Bulk Modulus (GPa) = 65.61121 65.61223 65.61172
# Shear Modulus (GPa) = 18.25308 20.00355 19.12831
#
# Velocity S-wave (km/s) = 3.28897 3.44307 3.36690
# Velocity P-wave (km/s) = 7.30112 7.39527 7.34835
#
# Compressibility (1/GPa) = 0.01524130
#
# Stress axis : x y z
#
# Youngs Moduli (GPa) = 45.51411 45.51414 80.51847
#
# Poissons Ratio (x) = 0.59945 0.29749
# Poissons Ratio (y) = 0.59945 0.29751
# Poissons Ratio (z) = 0.16816 0.16817
#
# Static dielectric constant tensor:
#      x y z
#    x 2.871760 0.000000 0.000000 
#    y 0.000000 2.871760 0.000000 
#    z 0.000000 0.000000 3.772070 
# 
# 
# High freq. dielectric constant tensor:
#      x y z
#    x 1.621860 0.000000 0.000000 
#    y 0.000000 1.621850 0.000000 
#    z 0.000000 0.000000 1.675460 
# 
# From -- ./inp_files/4434.got.cif
#   From: 2010.03.12/outbox.cif.g09.slc.cpg/sg134_3_cif.got.tgz:4434.got - 2010.04.06 18:17:22.
