data_PCOD8317996
_publ_section_title
;
Structure prediction by ZEFSAII (Michael W. Deem and Ramdas Pophale) SiO2 
 PCOD8317996
Probable space group: P 42/M N M
;
_chemical_formula_sum "Si O2"
_cell_formula_units_Z 96
_cell_length_a 25.058283
_cell_length_b 25.058283
_cell_length_c 9.241465
_cell_angle_alpha 90.000000
_cell_angle_beta 90.000000
_cell_angle_gamma 90.000000
_cell_volume 5802.878033
_symmetry_space_group_name_H-M "P 42/M N M"
_symmetry_group_IT_number 136
_symmetry_cell_setting 'tetragonal'
loop_
_space_group_symop_operation_xyz
x,y,z
1/2-y,1/2+x,1/2+z
-x,-y,z
1/2+y,1/2-x,1/2+z
1/2+x,1/2-y,1/2-z
1/2-x,1/2+y,1/2-z
y,x,-z
-y,-x,-z
-x,-y,-z
1/2+y,1/2-x,1/2-z
x,y,-z
1/2-y,1/2+x,1/2-z
1/2-x,1/2+y,1/2+z
1/2+x,1/2-y,1/2+z
-y,-x,z
y,x,z
loop_
_atom_site_type_symbol
_atom_site_label
_atom_site_fract_x
_atom_site_fract_y
_atom_site_fract_z
Si Si1 0.598410 0.684990 0.168362
Si Si2 0.688955 0.002091 0.159456
Si Si3 0.103150 0.692867 0.331077
Si Si4 0.804375 0.893066 0.666666
Si Si5 0.304580 0.114853 0.171309
Si Si6 0.504230 0.315689 0.337155
O O1 0.650204 0.650204 0.205497
O O2 0.612090 0.745659 0.213744
O O3 0.548554 0.661714 0.258463
O O4 0.583202 0.681919 0.000000
O O5 0.669613 0.943184 0.208608
O O6 0.752459 0.999460 0.159669
O O7 0.668772 0.048784 0.264169
O O8 0.667187 0.015599 0.000000
O O9 0.096553 0.685665 0.500000
O O10 0.153833 0.659535 0.275708
O O11 0.793362 0.908650 0.500000
O O12 0.843592 0.843592 0.679329
O O13 0.749556 0.875289 0.741737
O O14 0.831846 0.943343 0.746792
O O15 0.291889 0.118423 0.000000
O O16 0.507750 0.339071 0.500000
#
# Coordination Sequence:
#
# PCOD8317996 Si02
#       6
#    16  16  16  16  16  16
#     4   9  17  29  46  69  96 124 153 187 228 272
#     4   8  15  28  44  63  87 116 151 189 226 264
#     4   9  17  29  46  68  92 120 154 189 225 268
#     4  10  20  32  47  69  95 121 150 185 226 272
#     4   9  18  31  47  68  94 122 152 188 228 269
#     4   9  17  30  48  67  88 119 157 192 225 264
#
# _framework density 16.543514999999999
#
# number of rings (size 3 to 8) (size 9 to 14) (size 15 to 20)
#    0.000    3.000    0.000    2.000    0.000    7.000 
#    0.000    1.667    0.000    1.000    0.000    7.000 
#    0.000    0.000    0.000    0.000    0.000    0.000 
#
# Total GULP energy -1190072.279678 kJ/mol
# GULP energy per Si atom -12396.586247 kJ/mol
# Density = 1.650586 g / cm^3
# Si number density = 16.543515 Si / 1000 Ang^3
#
#
#
# Elastic Constant Matrix: (Units=GPa)
#
#
# Indices 1 2 3 4 5 6 
#
# 1 87.2779 49.7328 48.6212 0.0000 0.0000 0.0000
# 2 49.7328 87.2779 48.6212 0.0000 0.0000 0.0000
# 3 48.6212 48.6212 80.9038 0.0000 0.0000 0.0000
# 4 0.0000 0.0000 0.0000 24.1037 0.0000 0.0000
# 5 0.0000 0.0000 0.0000 0.0000 24.1037 0.0000
# 6 0.0000 0.0000 0.0000 0.0000 0.0000 3.6732
#
#
#
# Elastic Compliance Matrix: (Units=1/GPa)
#
#
# Indices 1 2 3 4 5 6 
#
# 1 0.019681 -0.006954 -0.007649 0.000000 0.000000 0.000000
# 2 -0.006954 0.019681 -0.007649 0.000000 0.000000 0.000000
# 3 -0.007649 -0.007649 0.021554 0.000000 0.000000 0.000000
# 4 0.000000 0.000000 0.000000 0.041487 0.000000 0.000000
# 5 0.000000 0.000000 0.000000 0.000000 0.041487 0.000000
# 6 0.000000 0.000000 0.000000 0.000000 0.000000 0.272240
#
#
# Mechanical properties :
#
#
# Convention : Reuss Voigt Hill
#
# Bulk Modulus (GPa) = 60.92621 61.04557 60.98589
# Shear Modulus (GPa) = 10.72721 17.60844 14.16782
#
# Velocity S-wave (km/s) = 2.54918 3.26601 2.92960
# Velocity P-wave (km/s) = 6.75072 7.15559 6.95610
#
# Compressibility (1/GPa) = 0.01641330
#
# Stress axis : x y z
#
# Youngs Moduli (GPa) = 50.81037 50.81037 46.39529
#
# Poissons Ratio (x) = 0.35332 0.35487
# Poissons Ratio (y) = 0.35332 0.35487
# Poissons Ratio (z) = 0.38864 0.38864
#
# Static dielectric constant tensor:
#      x y z
#    x 3.106300 0.000000 0.000000 
#    y 0.000000 3.106300 0.000000 
#    z 0.000000 0.000000 3.275800 
# 
# 
# High freq. dielectric constant tensor:
#      x y z
#    x 1.619290 0.000000 0.000000 
#    y 0.000000 1.619290 0.000000 
#    z 0.000000 0.000000 1.642060 
# 
# From -- ./inp_files/2125.got.cif
#   From: 2010.03.12/outbox.cif.g09.slc.cpg/sg136_2_cif.got.tgz:2125.got - 2010.04.06 18:39:43.
