data_PCOD8317842
_publ_section_title
;
Structure prediction by ZEFSAII (Michael W. Deem and Ramdas Pophale) SiO2 
 PCOD8317842
Probable space group: P 42/M N M
;
_chemical_formula_sum "Si O2"
_cell_formula_units_Z 80
_cell_length_a 11.340572
_cell_length_b 11.340572
_cell_length_c 29.091560
_cell_angle_alpha 90.000000
_cell_angle_beta 90.000000
_cell_angle_gamma 90.000000
_cell_volume 3741.424026
_symmetry_space_group_name_H-M "P 42/M N M"
_symmetry_group_IT_number 136
_symmetry_cell_setting 'tetragonal'
loop_
_space_group_symop_operation_xyz
x,y,z
1/2-y,1/2+x,1/2+z
-x,-y,z
1/2+y,1/2-x,1/2+z
1/2+x,1/2-y,1/2-z
1/2-x,1/2+y,1/2-z
y,x,-z
-y,-x,-z
-x,-y,-z
1/2+y,1/2-x,1/2-z
x,y,-z
1/2-y,1/2+x,1/2-z
1/2-x,1/2+y,1/2+z
1/2+x,1/2-y,1/2+z
-y,-x,z
y,x,z
loop_
_atom_site_type_symbol
_atom_site_label
_atom_site_fract_x
_atom_site_fract_y
_atom_site_fract_z
Si Si1 0.007019 0.808519 0.891355
Si Si2 0.438303 0.251568 0.796134
Si Si3 0.751569 0.938304 0.796136
Si Si4 0.808519 0.992982 0.608647
Si Si5 0.349514 0.150488 0.947985
O O1 0.900747 0.900747 0.890880
O O2 0.028227 0.764999 0.838891
O O3 0.969196 0.699174 0.923793
O O4 0.127543 0.872458 0.908881
O O5 0.375693 0.375693 0.784706
O O6 0.343445 0.156555 0.812742
O O7 0.499998 0.206180 0.749999
O O8 0.528228 0.264999 0.838888
O O9 0.875694 0.875694 0.784708
O O10 0.900745 0.099256 0.609123
O O11 0.699175 0.030804 0.576209
O O12 0.872459 0.872459 0.591121
O O13 0.250001 0.250001 0.946519
O O14 0.382688 0.117317 0.000000
#
# Coordination Sequence:
#
# PCOD8317842 Si02
#       5
#    16  16  16  16  16
#     4   9  16  27  43  63  92 131 173 219 272 330
#     4  10  19  31  47  68  96 129 168 213 262 323
#     4  10  19  31  47  68  96 129 168 213 262 323
#     4   9  16  27  43  63  92 131 173 219 272 330
#     4   9  16  26  40  62  95 133 175 225 277 330
#
# _framework density 21.382231000000001
#
# number of rings (size 3 to 8) (size 9 to 14) (size 15 to 20)
#    0.000    2.600    2.000    1.200    0.000    3.200 
#    0.000    4.000    0.000    0.000    0.000    0.000 
#    0.000    3.200    0.000    8.400    0.000    8.000 
#
# Total GULP energy -991528.090372 kJ/mol
# GULP energy per Si atom -12394.101130 kJ/mol
# Density = 2.133356 g / cm^3
# Si number density = 21.382231 Si / 1000 Ang^3
#
#
#
# Elastic Constant Matrix: (Units=GPa)
#
#
# Indices 1 2 3 4 5 6 
#
# 1 59.7566 46.4127 48.3157 0.0000 0.0000 0.0000
# 2 46.4127 59.7566 48.3157 0.0000 0.0000 0.0000
# 3 48.3157 48.3157 160.9314 0.0000 0.0000 0.0000
# 4 0.0000 0.0000 0.0000 16.1875 0.0000 0.0000
# 5 0.0000 0.0000 0.0000 0.0000 16.1875 0.0000
# 6 0.0000 0.0000 0.0000 0.0000 0.0000 37.2652
#
#
#
# Elastic Compliance Matrix: (Units=1/GPa)
#
#
# Indices 1 2 3 4 5 6 
#
# 1 0.043951 -0.030990 -0.003891 0.000000 0.000000 0.000000
# 2 -0.030990 0.043951 -0.003891 0.000000 0.000000 0.000000
# 3 -0.003891 -0.003891 0.008550 0.000000 0.000000 0.000000
# 4 0.000000 0.000000 0.000000 0.061776 0.000000 0.000000
# 5 0.000000 0.000000 0.000000 0.000000 0.061776 0.000000
# 6 0.000000 0.000000 0.000000 0.000000 0.000000 0.026835
#
#
# Mechanical properties :
#
#
# Convention : Reuss Voigt Hill
#
# Bulk Modulus (GPa) = 52.89090 62.94808 57.91949
# Shear Modulus (GPa) = 15.12011 23.08807 19.10409
#
# Velocity S-wave (km/s) = 2.66208 3.28956 2.99232
# Velocity P-wave (km/s) = 5.85137 6.62810 6.25181
#
# Compressibility (1/GPa) = 0.01890685
#
# Stress axis : x y z
#
# Youngs Moduli (GPa) = 22.75274 22.75274 116.95621
#
# Poissons Ratio (x) = 0.70512 0.45508
# Poissons Ratio (y) = 0.70512 0.45508
# Poissons Ratio (z) = 0.08853 0.08853
#
# Static dielectric constant tensor:
#      x y z
#    x 3.581800 0.000000 0.000000 
#    y 0.000000 3.581800 0.000000 
#    z 0.000000 0.000000 3.811560 
# 
# 
# High freq. dielectric constant tensor:
#      x y z
#    x 1.808460 0.000000 0.000000 
#    y 0.000000 1.808460 0.000000 
#    z 0.000000 0.000000 1.834450 
# 
# From -- ./inp_files/9514.got.cif
#   From: 2010.03.12/outbox.cif.g09.slc.cpg/sg136_5_cif.got.tgz:9514.got - 2010.04.06 18:39:43.
