data_PCOD8317421
_publ_section_title
;
Structure prediction by ZEFSAII (Michael W. Deem and Ramdas Pophale) SiO2 
 PCOD8317421
Probable space group: P 42/M B C
;
_chemical_formula_sum "Si O2"
_cell_formula_units_Z 112
_cell_length_a 18.324844
_cell_length_b 18.324844
_cell_length_c 17.980963
_cell_angle_alpha 90.000000
_cell_angle_beta 90.000000
_cell_angle_gamma 90.000000
_cell_volume 6038.005714
_symmetry_space_group_name_H-M "P 42/M B C"
_symmetry_group_IT_number 135
_symmetry_cell_setting 'tetragonal'
loop_
_space_group_symop_operation_xyz
x,y,z
-y,x,1/2+z
-x,-y,z
y,-x,1/2+z
1/2+x,1/2-y,-z
1/2-x,1/2+y,-z
1/2+y,1/2+x,1/2-z
1/2-y,1/2-x,1/2-z
-x,-y,-z
y,-x,1/2-z
x,y,-z
-y,x,1/2-z
1/2-x,1/2+y,z
1/2+x,1/2-y,z
1/2-y,1/2-x,1/2+z
1/2+y,1/2+x,1/2+z
loop_
_atom_site_type_symbol
_atom_site_label
_atom_site_fract_x
_atom_site_fract_y
_atom_site_fract_z
Si Si1 0.754995 0.202392 0.585652
Si Si2 0.991752 0.266987 0.696074
Si Si3 0.484563 0.172217 0.859676
Si Si4 0.012377 0.116921 0.765071
Si Si5 0.363976 0.880848 0.835888
Si Si6 0.185285 0.952694 0.417202
Si Si7 0.677984 0.844416 0.163200
O O1 0.746904 0.221978 0.500000
O O2 0.677381 0.179025 0.616213
O O3 0.809314 0.134064 0.598164
O O4 0.779638 0.276676 0.625751
O O5 0.916618 0.273176 0.650602
O O6 0.979915 0.296950 0.777666
O O7 0.019701 0.184262 0.707305
O O8 0.045564 0.319309 0.650155
O O9 0.550110 0.111457 0.860703
O O10 0.508558 0.235473 0.916396
O O11 0.402140 0.143944 0.876049
O O12 0.013466 0.135906 0.852593
O O13 0.934916 0.079572 0.752810
O O14 0.357860 0.857860 0.750000
O O15 0.152195 0.966531 0.500000
O O16 0.671808 0.828193 0.250000
#
# Coordination Sequence:
#
# PCOD8317421 Si02
#       7
#    16  16  16  16  16  16  16
#     4  10  20  33  51  75 101 133 174 219 260 306
#     4   9  18  31  51  75 100 133 172 212 258 308
#     4   8  17  30  48  76 103 129 166 213 260 311
#     4  10  20  34  52  77 106 137 177 227 273 321
#     4   9  17  32  52  74 100 133 170 211 262 315
#     4   9  18  34  54  74 101 137 177 220 268 320
#     4  10  19  32  51  77 105 134 169 210 258 312
#
# _framework density 18.54917
#
# number of rings (size 3 to 8) (size 9 to 14) (size 15 to 20)
#    0.000    2.714    0.000    2.143    0.000    4.571 
#    0.000    5.000    0.000    1.714    0.000    5.000 
#    0.000    0.000    0.000    0.000    0.000    0.000 
#
# Total GULP energy -1387758.922560 kJ/mol
# GULP energy per Si atom -12390.704666 kJ/mol
# Density = 1.850695 g / cm^3
# Si number density = 18.549170 Si / 1000 Ang^3
#
#
#
# Elastic Constant Matrix: (Units=GPa)
#
#
# Indices 1 2 3 4 5 6 
#
# 1 94.8857 39.1727 36.2592 0.0000 0.0000 0.0000
# 2 39.1727 94.8853 36.2586 0.0000 0.0000 0.0000
# 3 36.2592 36.2586 67.0014 0.0000 0.0000 0.0000
# 4 0.0000 0.0000 0.0000 14.6748 0.0000 0.0000
# 5 0.0000 0.0000 0.0000 0.0000 14.6747 0.0000
# 6 0.0000 0.0000 0.0000 0.0000 0.0000 26.4733
#
#
#
# Elastic Compliance Matrix: (Units=1/GPa)
#
#
# Indices 1 2 3 4 5 6 
#
# 1 0.014248 -0.003701 -0.005708 0.000000 0.000000 0.000000
# 2 -0.003701 0.014248 -0.005708 0.000000 0.000000 0.000000
# 3 -0.005708 -0.005708 0.021103 0.000000 0.000000 0.000000
# 4 0.000000 0.000000 0.000000 0.068144 0.000000 0.000000
# 5 0.000000 0.000000 0.000000 0.000000 0.068144 0.000000
# 6 0.000000 0.000000 0.000000 0.000000 0.000000 0.037774
#
#
# Mechanical properties :
#
#
# Convention : Reuss Voigt Hill
#
# Bulk Modulus (GPa) = 51.63706 53.35036 52.49371
# Shear Modulus (GPa) = 19.20496 20.83670 20.02083
#
# Velocity S-wave (km/s) = 3.22118 3.35524 3.28889
# Velocity P-wave (km/s) = 6.46011 6.62074 6.54092
#
# Compressibility (1/GPa) = 0.01936594
#
# Stress axis : x y z
#
# Youngs Moduli (GPa) = 70.18481 70.18500 47.38743
#
# Poissons Ratio (x) = 0.25976 0.27048
# Poissons Ratio (y) = 0.25976 0.27047
# Poissons Ratio (z) = 0.40060 0.40059
#
# Static dielectric constant tensor:
#      x y z
#    x 3.552940 0.000000 0.000000 
#    y 0.000000 3.552940 0.000000 
#    z 0.000000 0.000000 3.224290 
# 
# 
# High freq. dielectric constant tensor:
#      x y z
#    x 1.715510 0.000000 0.000000 
#    y 0.000000 1.715510 0.000000 
#    z 0.000000 0.000000 1.697060 
# 
# From -- ./inp_files/5637.got.cif
#   From: 2010.03.12/outbox.cif.g09.slc.cpg/sg135_3_cif.got.tgz:5637.got - 2010.04.06 18:31:24.
