data_PCOD8317336
_publ_section_title
;
Structure prediction by ZEFSAII (Michael W. Deem and Ramdas Pophale) SiO2 
 PCOD8317336
Probable space group: P 42/N N M
;
_chemical_formula_sum "Si O2"
_cell_formula_units_Z 32
_cell_length_a 17.426361
_cell_length_b 17.426361
_cell_length_c 4.809349
_cell_angle_alpha 90.000000
_cell_angle_beta 90.000000
_cell_angle_gamma 90.000000
_cell_volume 1460.493763
_symmetry_space_group_name_H-M "P 42/N N M"
_symmetry_group_IT_number 134
_space_group.IT_coordinate_system_code '2'
_symmetry_cell_setting 'tetragonal'
loop_
_space_group_symop_operation_xyz
x,y,z
1/2-y,x,1/2+z
1/2-x,1/2-y,z
y,1/2-x,1/2+z
x,1/2-y,1/2-z
1/2-x,y,1/2-z
y,x,-z
1/2-y,1/2-x,-z
-x,-y,-z
1/2+y,-x,1/2-z
1/2+x,1/2+y,-z
-y,1/2+x,1/2-z
-x,1/2+y,1/2+z
1/2+x,-y,1/2+z
-y,-x,z
1/2+y,1/2+x,z
loop_
_atom_site_type_symbol
_atom_site_label
_atom_site_fract_x
_atom_site_fract_y
_atom_site_fract_z
Si Si1 0.159729 0.082628 0.736987
Si Si2 0.573587 0.196344 0.006870
O O1 0.250000 0.091448 0.750000
O O2 0.141198 0.141198 0.500000
O O3 0.144334 0.995019 0.637209
O O4 0.107454 0.107454 0.000000
O O5 0.607221 0.250000 0.250000
O O6 0.640112 0.140112 0.897531
O O7 0.544807 0.250000 0.750000
#
# Coordination Sequence:
#
# PCOD8317336 Si02
#       2
#    16  16
#     4  11  23  40  62  90 125 163 208 261 316 379
#     4  11  24  42  64  93 128 166 214 268 321 383
#
# _framework density 21.910398000000001
#
# number of rings (size 3 to 8) (size 9 to 14) (size 15 to 20)
#    0.000    1.000    0.000    9.000    0.000    8.000 
#    0.000    0.000    0.000    0.000    0.000    0.000 
#    0.000    0.000    0.000    0.000    0.000    0.000 
#
# Total GULP energy -396463.023006 kJ/mol
# GULP energy per Si atom -12389.469469 kJ/mol
# Density = 2.186053 g / cm^3
# Si number density = 21.910398 Si / 1000 Ang^3
#
#
#
# Elastic Constant Matrix: (Units=GPa)
#
#
# Indices 1 2 3 4 5 6 
#
# 1 75.9263 56.1771 32.9749 0.0000 0.0000 0.0000
# 2 56.1771 75.9263 32.9749 0.0000 0.0000 0.0000
# 3 32.9749 32.9749 142.9548 0.0000 0.0000 0.0000
# 4 0.0000 0.0000 0.0000 40.8080 0.0000 0.0000
# 5 0.0000 0.0000 0.0000 0.0000 40.8080 0.0000
# 6 0.0000 0.0000 0.0000 0.0000 0.0000 35.2226
#
#
#
# Elastic Compliance Matrix: (Units=1/GPa)
#
#
# Indices 1 2 3 4 5 6 
#
# 1 0.029595 -0.021040 -0.001973 0.000000 0.000000 0.000000
# 2 -0.021040 0.029595 -0.001973 0.000000 0.000000 0.000000
# 3 -0.001973 -0.001973 0.007906 0.000000 0.000000 0.000000
# 4 0.000000 0.000000 0.000000 0.024505 0.000000 0.000000
# 5 0.000000 0.000000 0.000000 0.000000 0.024505 0.000000
# 6 0.000000 0.000000 0.000000 0.000000 0.000000 0.028391
#
#
# Mechanical properties :
#
#
# Convention : Reuss Voigt Hill
#
# Bulk Modulus (GPa) = 58.40386 59.89569 59.14978
# Shear Modulus (GPa) = 24.97785 34.87976 29.92880
#
# Velocity S-wave (km/s) = 3.38005 3.99422 3.69990
# Velocity P-wave (km/s) = 6.47662 6.97623 6.73106
#
# Compressibility (1/GPa) = 0.01712215
#
# Stress axis : x y z
#
# Youngs Moduli (GPa) = 33.78946 33.78946 126.49277
#
# Poissons Ratio (x) = 0.71093 0.24961
# Poissons Ratio (y) = 0.71093 0.24961
# Poissons Ratio (z) = 0.06668 0.06668
#
# Static dielectric constant tensor:
#      x y z
#    x 4.437820 0.000000 0.000000 
#    y 0.000000 4.437820 0.000000 
#    z 0.000000 0.000000 4.273550 
# 
# 
# High freq. dielectric constant tensor:
#      x y z
#    x 1.859530 0.000000 0.000000 
#    y 0.000000 1.859530 0.000000 
#    z 0.000000 0.000000 1.880440 
# 
# From -- ./inp_files/273.got.cif
#   From: 2010.03.12/outbox.cif.g09.slc.cpg/sg134_1_cif.got.tgz:273.got - 2010.04.06 18:17:22.
