data_PCOD8317929
_publ_section_title
;
Structure prediction by ZEFSAII (Michael W. Deem and Ramdas Pophale) SiO2 
 PCOD8317929
Probable space group: P 42/M N M
;
_chemical_formula_sum "Si O2"
_cell_formula_units_Z 120
_cell_length_a 17.260038
_cell_length_b 17.260038
_cell_length_c 20.084401
_cell_angle_alpha 90.000000
_cell_angle_beta 90.000000
_cell_angle_gamma 90.000000
_cell_volume 5983.322045
_symmetry_space_group_name_H-M "P 42/M N M"
_symmetry_group_IT_number 136
_symmetry_cell_setting 'tetragonal'
loop_
_space_group_symop_operation_xyz
x,y,z
1/2-y,1/2+x,1/2+z
-x,-y,z
1/2+y,1/2-x,1/2+z
1/2+x,1/2-y,1/2-z
1/2-x,1/2+y,1/2-z
y,x,-z
-y,-x,-z
-x,-y,-z
1/2+y,1/2-x,1/2-z
x,y,-z
1/2-y,1/2+x,1/2-z
1/2-x,1/2+y,1/2+z
1/2+x,1/2-y,1/2+z
-y,-x,z
y,x,z
loop_
_atom_site_type_symbol
_atom_site_label
_atom_site_fract_x
_atom_site_fract_y
_atom_site_fract_z
Si Si1 0.520038 0.081893 0.389677
Si Si2 0.903661 0.626978 0.307490
Si Si3 0.748784 0.026248 0.927692
Si Si4 0.186682 0.310926 0.425271
Si Si5 0.934561 0.934561 0.575802
Si Si6 0.000521 0.872936 0.818966
Si Si7 0.672871 0.068406 0.687676
Si Si8 0.339970 0.468670 0.170373
O O1 0.462869 0.082239 0.326060
O O2 0.504944 0.160142 0.430631
O O3 0.610155 0.082905 0.369733
O O4 0.500000 0.000000 0.428170
O O5 0.880044 0.679446 0.370679
O O6 0.839625 0.629167 0.248463
O O7 0.982690 0.663850 0.281092
O O8 0.747048 0.118503 0.916971
O O9 0.801077 0.990724 0.869440
O O10 0.785525 0.006365 0.000000
O O11 0.150878 0.311691 0.500000
O O12 0.230999 0.230999 0.411907
O O13 0.911590 0.911590 0.500000
O O14 0.965671 0.858264 0.614839
O O15 0.000000 0.000000 0.575192
O O16 0.929371 0.929371 0.832902
O O17 0.994558 0.840457 0.744132
O O18 0.081402 0.918599 0.830335
O O19 0.758508 0.074481 0.656563
O O20 0.405687 0.405687 0.164460
#
# Coordination Sequence:
#
# PCOD8317929 Si02
#       8
#    16  16  16  16   8  16  16  16
#     4   9  19  34  54  79 108 148 196 242 289 337
#     4  10  19  33  55  81 111 150 193 239 287 341
#     4  10  20  34  54  81 112 154 201 239 283 343
#     4   9  18  34  54  78 113 151 186 231 291 352
#     4   9  18  38  66  88 111 149 191 229 284 355
#     4  10  20  35  56  83 117 152 189 239 291 344
#     4  11  20  33  56  85 110 147 197 241 290 343
#     4  10  20  37  60  87 116 144 184 240 293 346
#
# _framework density 20.055747
#
# number of rings (size 3 to 8) (size 9 to 14) (size 15 to 20)
#    0.000    2.200    2.000    2.000    0.000    2.933 
#    1.200    4.667    0.000    0.000    0.000    0.000 
#    0.000    0.000    0.000    0.000    0.000    0.000 
#
# Total GULP energy -1487147.025136 kJ/mol
# GULP energy per Si atom -12392.891876 kJ/mol
# Density = 2.001010 g / cm^3
# Si number density = 20.055747 Si / 1000 Ang^3
#
#
#
# Elastic Constant Matrix: (Units=GPa)
#
#
# Indices 1 2 3 4 5 6 
#
# 1 68.1714 -5.9397 30.0977 0.0000 0.0000 0.0000
# 2 -5.9397 68.1714 30.0977 0.0000 0.0000 0.0000
# 3 30.0977 30.0977 112.0601 0.0000 0.0000 0.0000
# 4 0.0000 0.0000 0.0000 19.4234 0.0000 0.0000
# 5 0.0000 0.0000 0.0000 0.0000 19.4234 0.0000
# 6 0.0000 0.0000 0.0000 0.0000 0.0000 22.3224
#
#
#
# Elastic Compliance Matrix: (Units=1/GPa)
#
#
# Indices 1 2 3 4 5 6 
#
# 1 0.017601 0.004108 -0.005831 0.000000 0.000000 0.000000
# 2 0.004108 0.017601 -0.005831 0.000000 0.000000 0.000000
# 3 -0.005831 -0.005831 0.012056 0.000000 0.000000 0.000000
# 4 0.000000 0.000000 0.000000 0.051484 0.000000 0.000000
# 5 0.000000 0.000000 0.000000 0.000000 0.051484 0.000000
# 6 0.000000 0.000000 0.000000 0.000000 0.000000 0.044798
#
#
# Mechanical properties :
#
#
# Convention : Reuss Voigt Hill
#
# Bulk Modulus (GPa) = 31.10338 39.65714 35.38026
# Shear Modulus (GPa) = 22.63993 25.17698 23.90845
#
# Velocity S-wave (km/s) = 3.36348 3.54694 3.45643
# Velocity P-wave (km/s) = 5.53409 6.04903 5.79728
#
# Compressibility (1/GPa) = 0.03215085
#
# Stress axis : x y z
#
# Youngs Moduli (GPa) = 56.81480 56.81480 82.94734
#
# Poissons Ratio (x) = -0.23338 0.48364
# Poissons Ratio (y) = -0.23338 0.48364
# Poissons Ratio (z) = 0.33127 0.33127
#
# Static dielectric constant tensor:
#      x y z
#    x 3.571960 0.000000 0.000000 
#    y 0.000000 3.571960 0.000000 
#    z 0.000000 0.000000 3.552270 
# 
# 
# High freq. dielectric constant tensor:
#      x y z
#    x 1.768680 0.000000 0.000000 
#    y 0.000000 1.768680 0.000000 
#    z 0.000000 0.000000 1.772700 
# 
# From -- ./inp_files/7821.got.cif
#   From: 2010.03.12/outbox.cif.g09.slc.cpg/sg136_4_cif.got.tgz:7821.got - 2010.04.06 18:39:43.
