data_PCOD8317538
_publ_section_title
;
Structure prediction by ZEFSAII (Michael W. Deem and Ramdas Pophale) SiO2 
 PCOD8317538
Probable space group: P 42/M B C
;
_chemical_formula_sum "Si O2"
_cell_formula_units_Z 72
_cell_length_a 20.399685
_cell_length_b 20.399685
_cell_length_c 8.861667
_cell_angle_alpha 90.000000
_cell_angle_beta 90.000000
_cell_angle_gamma 90.000000
_cell_volume 3687.757449
_symmetry_space_group_name_H-M "P 42/M B C"
_symmetry_group_IT_number 135
_symmetry_cell_setting 'tetragonal'
loop_
_space_group_symop_operation_xyz
x,y,z
-y,x,1/2+z
-x,-y,z
y,-x,1/2+z
1/2+x,1/2-y,-z
1/2-x,1/2+y,-z
1/2+y,1/2+x,1/2-z
1/2-y,1/2-x,1/2-z
-x,-y,-z
y,-x,1/2-z
x,y,-z
-y,x,1/2-z
1/2-x,1/2+y,z
1/2+x,1/2-y,z
1/2-y,1/2-x,1/2+z
1/2+y,1/2+x,1/2+z
loop_
_atom_site_type_symbol
_atom_site_label
_atom_site_fract_x
_atom_site_fract_y
_atom_site_fract_z
Si Si1 0.762023 0.904799 0.829202
Si Si2 0.892768 0.521073 0.339101
Si Si3 0.958638 0.750093 0.818462
Si Si4 0.882122 0.382122 0.250000
Si Si5 0.322154 0.720354 0.679985
O O1 0.684858 0.889170 0.842005
O O2 0.791666 0.849331 0.722178
O O3 0.779620 0.974861 0.754111
O O4 0.790433 0.902408 0.000000
O O5 0.956745 0.543256 0.250000
O O6 0.899819 0.555184 0.500000
O O7 0.825473 0.546592 0.265095
O O8 0.888924 0.443028 0.364044
O O9 0.895080 0.783994 0.748359
O O10 0.961486 0.757898 0.000000
O O11 0.280053 0.780053 0.750000
O O12 0.323670 0.728946 0.500000
#
# Coordination Sequence:
#
# PCOD8317538 Si02
#       5
#    16  16  16   8  16
#     4  11  22  38  61  87 118 155 198 248 306 360
#     4  10  21  34  50  75 109 152 196 238 284 341
#     4  10  22  40  59  83 118 155 198 250 305 362
#     4  10  21  34  54  78 114 152 198 239 290 344
#     4  12  24  39  62  91 122 158 204 253 306 363
#
# _framework density 19.524059000000001
#
# number of rings (size 3 to 8) (size 9 to 14) (size 15 to 20)
#    0.000    1.333    1.111    5.000    0.000    9.778 
#    0.000    0.000    0.000    0.667    0.000    4.667 
#    0.000    0.000    0.000    0.000    0.000    0.000 
#
# Total GULP energy -892299.173530 kJ/mol
# GULP energy per Si atom -12393.044077 kJ/mol
# Density = 1.947962 g / cm^3
# Si number density = 19.524059 Si / 1000 Ang^3
#
#
#
# Elastic Constant Matrix: (Units=GPa)
#
#
# Indices 1 2 3 4 5 6 
#
# 1 91.5469 40.8238 27.2969 0.0000 0.0000 0.0000
# 2 40.8238 91.5471 27.2963 0.0000 0.0000 0.0000
# 3 27.2969 27.2963 120.1286 0.0000 0.0000 0.0000
# 4 0.0000 0.0000 0.0000 24.2501 0.0000 0.0000
# 5 0.0000 0.0000 0.0000 0.0000 24.2503 0.0000
# 6 0.0000 0.0000 0.0000 0.0000 0.0000 30.3773
#
#
#
# Elastic Compliance Matrix: (Units=1/GPa)
#
#
# Indices 1 2 3 4 5 6 
#
# 1 0.014025 -0.005690 -0.001894 0.000000 0.000000 0.000000
# 2 -0.005690 0.014025 -0.001894 0.000000 0.000000 0.000000
# 3 -0.001894 -0.001894 0.009185 0.000000 0.000000 0.000000
# 4 0.000000 0.000000 0.000000 0.041237 0.000000 0.000000
# 5 0.000000 0.000000 0.000000 0.000000 0.041237 0.000000
# 6 0.000000 0.000000 0.000000 0.000000 0.000000 0.032919
#
#
# Mechanical properties :
#
#
# Convention : Reuss Voigt Hill
#
# Bulk Modulus (GPa) = 54.70400 54.89518 54.79959
# Shear Modulus (GPa) = 28.14087 29.62926 28.88507
#
# Velocity S-wave (km/s) = 3.80062 3.89984 3.85055
# Velocity P-wave (km/s) = 6.88035 6.96103 6.92081
#
# Compressibility (1/GPa) = 0.01828020
#
# Stress axis : x y z
#
# Youngs Moduli (GPa) = 71.29964 71.30004 108.87079
#
# Poissons Ratio (x) = 0.40567 0.20622
# Poissons Ratio (y) = 0.40566 0.20621
# Poissons Ratio (z) = 0.13505 0.13505
#
# Static dielectric constant tensor:
#      x y z
#    x 3.553310 0.000000 0.000000 
#    y 0.000000 3.553310 0.000000 
#    z 0.000000 0.000000 3.531630 
# 
# 
# High freq. dielectric constant tensor:
#      x y z
#    x 1.750870 0.000000 0.000000 
#    y 0.000000 1.750870 0.000000 
#    z 0.000000 0.000000 1.770820 
# 
# From -- ./inp_files/1038.got.cif
#   From: 2010.03.12/outbox.cif.g09.slc.cpg/sg135_1_cif.got.tgz:1038.got - 2010.04.06 18:31:24.
