data_PCOD8317698
_publ_section_title
;
Structure prediction by ZEFSAII (Michael W. Deem and Ramdas Pophale) SiO2 
 PCOD8317698
Probable space group: P 42/M N M
;
_chemical_formula_sum "Si O2"
_cell_formula_units_Z 76
_cell_length_a 18.209231
_cell_length_b 18.209231
_cell_length_c 14.150787
_cell_angle_alpha 90.000000
_cell_angle_beta 90.000000
_cell_angle_gamma 90.000000
_cell_volume 4692.062675
_symmetry_space_group_name_H-M "P 42/M N M"
_symmetry_group_IT_number 136
_symmetry_cell_setting 'tetragonal'
loop_
_space_group_symop_operation_xyz
x,y,z
1/2-y,1/2+x,1/2+z
-x,-y,z
1/2+y,1/2-x,1/2+z
1/2+x,1/2-y,1/2-z
1/2-x,1/2+y,1/2-z
y,x,-z
-y,-x,-z
-x,-y,-z
1/2+y,1/2-x,1/2-z
x,y,-z
1/2-y,1/2+x,1/2-z
1/2-x,1/2+y,1/2+z
1/2+x,1/2-y,1/2+z
-y,-x,z
y,x,z
loop_
_atom_site_type_symbol
_atom_site_label
_atom_site_fract_x
_atom_site_fract_y
_atom_site_fract_z
Si Si1 0.202741 0.013161 0.311987
Si Si2 0.234990 0.886051 0.816628
Si Si3 0.548081 0.670309 0.500000
Si Si4 0.943459 0.943459 0.211368
Si Si5 0.497447 0.618482 0.000000
Si Si6 0.572852 0.427149 0.500000
Si Si7 0.847639 0.725280 0.390318
O O1 0.139643 0.038250 0.239421
O O2 0.167686 0.987995 0.409665
O O3 0.259958 0.078166 0.332397
O O4 0.246110 0.943532 0.268731
O O5 0.168920 0.831081 0.790825
O O6 0.217520 0.931339 0.910134
O O7 0.309695 0.842184 0.836148
O O8 0.592011 0.592011 0.500000
O O9 0.458522 0.656598 0.500000
O O10 0.956938 0.956938 0.100313
O O11 0.000000 0.000000 0.263466
O O12 0.551795 0.551795 0.000000
O O13 0.413657 0.586344 0.000000
O O14 0.863780 0.705567 0.500000
O O15 0.796842 0.796842 0.386095
#
# Coordination Sequence:
#
# PCOD8317698 Si02
#       7
#    16  16   8   8   8   4  16
#     4  12  21  32  50  79 110 146 182 224 275 322
#     4  10  20  33  52  76 107 145 188 225 269 323
#     4  10  17  27  44  71 103 142 175 215 252 312
#     4  12  21  29  46  77 117 148 177 211 269 341
#     4  11  20  29  45  76 118 150 171 205 264 344
#     4  12  21  28  44  74 122 150 178 208 256 333
#     4  10  19  35  55  79 108 143 190 234 267 323
#
# _framework density 16.197565999999998
#
# number of rings (size 3 to 8) (size 9 to 14) (size 15 to 20)
#    0.000    1.158    6.316    2.842    0.000    0.000 
#    0.000    0.000    0.000    3.158    0.000    1.474 
#    0.000    0.000    0.000    0.000    0.000    0.000 
#
# Total GULP energy -941754.688136 kJ/mol
# GULP energy per Si atom -12391.509054 kJ/mol
# Density = 1.616070 g / cm^3
# Si number density = 16.197566 Si / 1000 Ang^3
#
#
#
# Elastic Constant Matrix: (Units=GPa)
#
#
# Indices 1 2 3 4 5 6 
#
# 1 91.6526 57.9351 51.0339 0.0000 0.0000 0.0000
# 2 57.9351 91.6519 51.0339 0.0000 0.0000 0.0000
# 3 51.0339 51.0339 117.2941 0.0000 0.0000 0.0000
# 4 0.0000 0.0000 0.0000 4.4939 0.0000 0.0000
# 5 0.0000 0.0000 0.0000 0.0000 4.4952 0.0000
# 6 0.0000 0.0000 0.0000 0.0000 0.0000 32.5016
#
#
#
# Elastic Compliance Matrix: (Units=1/GPa)
#
#
# Indices 1 2 3 4 5 6 
#
# 1 0.019583 -0.010075 -0.004137 0.000000 0.000000 0.000000
# 2 -0.010075 0.019583 -0.004137 0.000000 0.000000 0.000000
# 3 -0.004137 -0.004137 0.012125 0.000000 0.000000 0.000000
# 4 0.000000 0.000000 0.000000 0.222522 0.000000 0.000000
# 5 0.000000 0.000000 0.000000 0.000000 0.222462 0.000000
# 6 0.000000 0.000000 0.000000 0.000000 0.000000 0.030768
#
#
# Mechanical properties :
#
#
# Convention : Reuss Voigt Hill
#
# Bulk Modulus (GPa) = 68.52255 68.95605 68.73930
# Shear Modulus (GPa) = 8.79345 17.67119 13.23232
#
# Velocity S-wave (km/s) = 2.33252 3.30658 2.86130
# Velocity P-wave (km/s) = 7.04630 7.56586 7.31069
#
# Compressibility (1/GPa) = 0.01459374
#
# Stress axis : x y z
#
# Youngs Moduli (GPa) = 51.06470 51.06426 82.47216
#
# Poissons Ratio (x) = 0.51449 0.34116
# Poissons Ratio (y) = 0.51450 0.34117
# Poissons Ratio (z) = 0.21124 0.21124
#
# Static dielectric constant tensor:
#      x y z
#    x 2.936260 0.000000 0.000000 
#    y 0.000000 2.936260 0.000000 
#    z 0.000000 0.000000 3.198340 
# 
# 
# High freq. dielectric constant tensor:
#      x y z
#    x 1.594750 0.000000 0.000000 
#    y 0.000000 1.594750 0.000000 
#    z 0.000000 0.000000 1.636550 
# 
# From -- ./inp_files/4998.got.cif
#   From: 2010.03.12/outbox.cif.g09.slc.cpg/sg136_3_cif.got.tgz:4998.got - 2010.04.06 18:39:43.
