data_PCOD8317318
_publ_section_title
;
Structure prediction by ZEFSAII (Michael W. Deem and Ramdas Pophale) SiO2 
 PCOD8317318
Probable space group: P 42/N N M
;
_chemical_formula_sum "Si O2"
_cell_formula_units_Z 112
_cell_length_a 15.213054
_cell_length_b 15.213054
_cell_length_c 26.764049
_cell_angle_alpha 90.000000
_cell_angle_beta 90.000000
_cell_angle_gamma 90.000000
_cell_volume 6194.191530
_symmetry_space_group_name_H-M "P 42/N N M"
_symmetry_group_IT_number 134
_space_group.IT_coordinate_system_code '2'
_symmetry_cell_setting 'tetragonal'
loop_
_space_group_symop_operation_xyz
x,y,z
1/2-y,x,1/2+z
1/2-x,1/2-y,z
y,1/2-x,1/2+z
x,1/2-y,1/2-z
1/2-x,y,1/2-z
y,x,-z
1/2-y,1/2-x,-z
-x,-y,-z
1/2+y,-x,1/2-z
1/2+x,1/2+y,-z
-y,1/2+x,1/2-z
-x,1/2+y,1/2+z
1/2+x,-y,1/2+z
-y,-x,z
1/2+y,1/2+x,z
loop_
_atom_site_type_symbol
_atom_site_label
_atom_site_fract_x
_atom_site_fract_y
_atom_site_fract_z
Si Si1 0.322488 0.822488 0.547474
Si Si2 0.499876 0.251026 0.569998
Si Si3 0.930820 0.922410 0.905903
Si Si4 0.150934 0.989522 0.809257
Si Si5 0.352159 0.991723 0.802939
Si Si6 0.254009 0.003756 0.547378
Si Si7 0.935112 0.921651 0.601401
Si Si8 0.178546 0.678546 0.436911
O O1 0.250000 0.750000 0.547396
O O2 0.409275 0.780010 0.572993
O O3 0.353185 0.853185 0.491892
O O4 0.440617 0.171050 0.587334
O O5 0.503989 0.267003 0.510892
O O6 0.462236 0.339319 0.593866
O O7 0.596567 0.224274 0.591278
O O8 0.940585 0.841637 0.944018
O O9 0.944792 0.893768 0.848549
O O10 0.995255 0.004746 0.919967
O O11 0.106275 0.893726 0.813371
O O12 0.253016 0.978926 0.821600
O O13 0.139619 0.029131 0.753428
O O14 0.402140 0.058917 0.839482
O O15 0.395614 0.895614 0.806455
O O16 0.168748 0.048363 0.571771
O O17 0.008210 0.991791 0.583721
O O18 0.250000 0.750000 0.446295
#
# Coordination Sequence:
#
# PCOD8317318 Si02
#       8
#     8  16  16  16  16  16  16   8
#     4   9  18  31  51  77 109 146 191 227 273 333
#     4  11  23  36  56  79 110 151 196 238 282 330
#     4  11  21  37  58  83 114 148 192 235 280 334
#     4   9  18  34  58  84 113 147 185 231 277 333
#     4   9  18  35  57  83 115 147 183 229 283 335
#     4  11  21  35  54  81 113 154 189 232 280 332
#     4  11  23  39  57  82 117 152 189 233 288 344
#     4   9  18  35  55  77 101 140 193 245 283 323
#
# _framework density 18.081454000000001
#
# number of rings (size 3 to 8) (size 9 to 14) (size 15 to 20)
#    0.000    1.857    2.857    1.714    0.000    3.714 
#    0.000    3.571    0.000    1.714    0.000    0.000 
#    0.000    0.000    0.000    0.000    0.000    0.000 
#
# Total GULP energy -1388054.385910 kJ/mol
# GULP energy per Si atom -12393.342731 kJ/mol
# Density = 1.804030 g / cm^3
# Si number density = 18.081454 Si / 1000 Ang^3
#
#
#
# Elastic Constant Matrix: (Units=GPa)
#
#
# Indices 1 2 3 4 5 6 
#
# 1 117.2312 45.2922 29.0301 0.0000 0.0000 0.0000
# 2 45.2922 117.2312 29.0301 0.0000 0.0000 0.0000
# 3 29.0301 29.0301 52.8025 0.0000 0.0000 0.0000
# 4 0.0000 0.0000 0.0000 16.6445 0.0000 0.0000
# 5 0.0000 0.0000 0.0000 0.0000 16.6445 0.0000
# 6 0.0000 0.0000 0.0000 0.0000 0.0000 31.3563
#
#
#
# Elastic Compliance Matrix: (Units=1/GPa)
#
#
# Indices 1 2 3 4 5 6 
#
# 1 0.010779 -0.003122 -0.004210 0.000000 0.000000 0.000000
# 2 -0.003122 0.010779 -0.004210 0.000000 0.000000 0.000000
# 3 -0.004210 -0.004210 0.023567 0.000000 0.000000 0.000000
# 4 0.000000 0.000000 0.000000 0.060080 0.000000 0.000000
# 5 0.000000 0.000000 0.000000 0.000000 0.060080 0.000000
# 6 0.000000 0.000000 0.000000 0.000000 0.000000 0.031891
#
#
# Mechanical properties :
#
#
# Convention : Reuss Voigt Hill
#
# Bulk Modulus (GPa) = 45.36702 54.88555 50.12628
# Shear Modulus (GPa) = 21.96781 25.18990 23.57886
#
# Velocity S-wave (km/s) = 3.48937 3.73652 3.61506
# Velocity P-wave (km/s) = 6.43266 7.00257 6.72366
#
# Compressibility (1/GPa) = 0.02204244
#
# Stress axis : x y z
#
# Youngs Moduli (GPa) = 92.77523 92.77523 42.43169
#
# Poissons Ratio (x) = 0.28964 0.17862
# Poissons Ratio (y) = 0.28964 0.17862
# Poissons Ratio (z) = 0.39055 0.39055
#
# Static dielectric constant tensor:
#      x y z
#    x 3.329990 0.000000 0.000000 
#    y 0.000000 3.329990 0.000000 
#    z 0.000000 0.000000 3.437050 
# 
# 
# High freq. dielectric constant tensor:
#      x y z
#    x 1.698610 0.000000 0.000000 
#    y 0.000000 1.698610 0.000000 
#    z 0.000000 0.000000 1.689830 
# 
# From -- ./inp_files/10911.got.cif
#   From: 2010.03.12/outbox.cif.g09.slc.cpg/sg134_6_cif.got.tgz:10911.got - 2010.04.06 18:17:22.
