data_PCOD8317331
_publ_section_title
;
Structure prediction by ZEFSAII (Michael W. Deem and Ramdas Pophale) SiO2 
 PCOD8317331
Probable space group: P 42/N N M
;
_chemical_formula_sum "Si O2"
_cell_formula_units_Z 56
_cell_length_a 15.103020
_cell_length_b 15.103020
_cell_length_c 11.687882
_cell_angle_alpha 90.000000
_cell_angle_beta 90.000000
_cell_angle_gamma 90.000000
_cell_volume 2666.020063
_symmetry_space_group_name_H-M "P 42/N N M"
_symmetry_group_IT_number 134
_space_group.IT_coordinate_system_code '2'
_symmetry_cell_setting 'tetragonal'
loop_
_space_group_symop_operation_xyz
x,y,z
1/2-y,x,1/2+z
1/2-x,1/2-y,z
y,1/2-x,1/2+z
x,1/2-y,1/2-z
1/2-x,y,1/2-z
y,x,-z
1/2-y,1/2-x,-z
-x,-y,-z
1/2+y,-x,1/2-z
1/2+x,1/2+y,-z
-y,1/2+x,1/2-z
-x,1/2+y,1/2+z
1/2+x,-y,1/2+z
-y,-x,z
1/2+y,1/2+x,z
loop_
_atom_site_type_symbol
_atom_site_label
_atom_site_fract_x
_atom_site_fract_y
_atom_site_fract_z
Si Si1 0.479854 0.979854 0.681674
Si Si2 0.676207 0.176207 0.570063
Si Si3 0.748991 0.507421 0.621022
Si Si4 0.657743 0.157743 0.300657
Si Si5 0.446643 0.946643 0.092022
Si Si6 0.104675 0.104675 0.000000
O O1 0.412827 0.912827 0.742342
O O2 0.546447 0.921192 0.608455
O O3 0.531802 0.031802 0.777748
O O4 0.750000 0.250000 0.603127
O O5 0.581508 0.193673 0.625611
O O6 0.666562 0.166562 0.435543
O O7 0.750000 0.546887 0.750000
O O8 0.655108 0.474369 0.571412
O O9 0.793243 0.582349 0.536595
O O10 0.626056 0.250000 0.250000
O O11 0.500000 0.000000 0.000000
#
# Coordination Sequence:
#
# PCOD8317331 Si02
#       6
#     8   8  16   8   8   8
#     4  11  22  40  63  95 136 188 230 287 358 440
#     4  12  22  35  59  99 137 173 216 289 357 425
#     4  12  24  44  68 102 139 183 235 296 359 431
#     4  11  23  36  60  91 134 176 228 281 357 426
#     4  12  28  42  67 103 144 178 237 302 364 422
#     4  11  22  42  71  98 136 190 243 287 364 441
#
# _framework density 21.005092999999999
#
# number of rings (size 3 to 8) (size 9 to 14) (size 15 to 20)
#    0.000    0.429    8.571    1.714    4.000    0.000 
#    0.000    0.714    0.000    1.714    0.000    0.000 
#    0.000    0.000    0.000    0.000    0.000    0.000 
#
# Total GULP energy -694246.073197 kJ/mol
# GULP energy per Si atom -12397.251307 kJ/mol
# Density = 2.095728 g / cm^3
# Si number density = 21.005093 Si / 1000 Ang^3
#
#
#
# Elastic Constant Matrix: (Units=GPa)
#
#
# Indices 1 2 3 4 5 6 
#
# 1 89.6652 91.9824 36.2151 0.0000 0.0000 0.0000
# 2 91.9824 89.6652 36.2151 0.0000 0.0000 0.0000
# 3 36.2151 36.2151 100.9464 0.0000 0.0000 0.0000
# 4 0.0000 0.0000 0.0000 49.5536 0.0000 0.0000
# 5 0.0000 0.0000 0.0000 0.0000 49.5536 0.0000
# 6 0.0000 0.0000 0.0000 0.0000 0.0000 41.6934
#
#
#
# Elastic Compliance Matrix: (Units=1/GPa)
#
#
# Indices 1 2 3 4 5 6 
#
# 1 -0.212563 0.218987 -0.002305 0.000000 0.000000 0.000000
# 2 0.218987 -0.212563 -0.002305 0.000000 0.000000 0.000000
# 3 -0.002305 -0.002305 0.011560 0.000000 0.000000 0.000000
# 4 0.000000 0.000000 0.000000 0.020180 0.000000 0.000000
# 5 0.000000 0.000000 0.000000 0.000000 0.020180 0.000000
# 6 0.000000 0.000000 0.000000 0.000000 0.000000 0.023985
#
#
# Mechanical properties :
#
#
# Convention : Reuss Voigt Hill
#
# Bulk Modulus (GPa) = 65.83544 67.67799 66.75671
# Shear Modulus (GPa) = -6.46902 35.88441 14.70769
#
# Velocity S-wave (km/s) = -1.75682 4.13772 2.64899
# Velocity P-wave (km/s) = 5.22450 7.42411 6.41922
#
# Compressibility (1/GPa) = 0.01518939
#
# Stress axis : x y z
#
# Youngs Moduli (GPa) = -4.70448 -4.70448 86.50598
#
# Poissons Ratio (x) = 1.03022 0.19937
# Poissons Ratio (y) = 1.03022 0.19937
# Poissons Ratio (z) = -0.01084 -0.01084
#
# Static dielectric constant tensor:
#      x y z
#    x 3.779250 0.000000 0.000000 
#    y 0.000000 3.779250 0.000000 
#    z 0.000000 0.000000 4.008790 
# 
# 
# High freq. dielectric constant tensor:
#      x y z
#    x 1.816010 0.000000 0.000000 
#    y 0.000000 1.816010 0.000000 
#    z 0.000000 0.000000 1.831340 
# 
# From -- ./inp_files/4400.got.cif
#   From: 2010.03.12/outbox.cif.g09.slc.cpg/sg134_3_cif.got.tgz:4400.got - 2010.04.06 18:17:22.
