data_PCOD8317217
_publ_section_title
;
Structure prediction by ZEFSAII (Michael W. Deem and Ramdas Pophale) SiO2 
 PCOD8317217
Probable space group: P 42/N N M
;
_chemical_formula_sum "Si O2"
_cell_formula_units_Z 64
_cell_length_a 12.542749
_cell_length_b 12.542749
_cell_length_c 23.045664
_cell_angle_alpha 90.000000
_cell_angle_beta 90.000000
_cell_angle_gamma 90.000000
_cell_volume 3625.556593
_symmetry_space_group_name_H-M "P 42/N N M"
_symmetry_group_IT_number 134
_space_group.IT_coordinate_system_code '2'
_symmetry_cell_setting 'tetragonal'
loop_
_space_group_symop_operation_xyz
x,y,z
1/2-y,x,1/2+z
1/2-x,1/2-y,z
y,1/2-x,1/2+z
x,1/2-y,1/2-z
1/2-x,y,1/2-z
y,x,-z
1/2-y,1/2-x,-z
-x,-y,-z
1/2+y,-x,1/2-z
1/2+x,1/2+y,-z
-y,1/2+x,1/2-z
-x,1/2+y,1/2+z
1/2+x,-y,1/2+z
-y,-x,z
1/2+y,1/2+x,z
loop_
_atom_site_type_symbol
_atom_site_label
_atom_site_fract_x
_atom_site_fract_y
_atom_site_fract_z
Si Si1 0.668173 0.168173 0.379497
Si Si2 0.012822 0.812670 0.692763
Si Si3 0.191627 0.987475 0.486038
Si Si4 0.588976 0.088976 0.495372
Si Si5 0.822834 0.643476 0.090257
O O1 0.750000 0.250000 0.411373
O O2 0.732852 0.090120 0.339349
O O3 0.603500 0.103500 0.426836
O O4 0.975194 0.750000 0.750000
O O5 0.075533 0.924468 0.705257
O O6 0.907009 0.830775 0.654236
O O7 0.096105 0.903896 0.498759
O O8 0.302780 0.935125 0.470854
O O9 0.166704 0.056997 0.429672
O O10 0.218401 0.057516 0.543372
O O11 0.500000 0.000000 0.500000
O O12 0.750000 0.750000 0.089937
#
# Coordination Sequence:
#
# PCOD8317217 Si02
#       5
#     8  16  16   8  16
#     4  10  20  34  56  86 120 143 185 238 293 342
#     4  11  21  36  59  86 114 148 190 239 294 348
#     4  11  21  36  56  81 113 155 195 233 286 345
#     4  12  22  34  56  86 118 152 189 234 293 354
#     4  11  22  36  54  80 117 152 187 233 291 348
#
# _framework density 17.652462
#
# number of rings (size 3 to 8) (size 9 to 14) (size 15 to 20)
#    0.000    1.000    3.750    7.125    0.000    0.500 
#    0.000    0.000    0.000    0.000    0.000    0.000 
#    0.000    0.000    0.000    0.000    0.000    0.000 
#
# Total GULP energy -793099.289448 kJ/mol
# GULP energy per Si atom -12392.176398 kJ/mol
# Density = 1.761228 g / cm^3
# Si number density = 17.652462 Si / 1000 Ang^3
#
#
#
# Elastic Constant Matrix: (Units=GPa)
#
#
# Indices 1 2 3 4 5 6 
#
# 1 120.4999 51.4014 47.1097 0.0000 0.0000 0.0000
# 2 51.4014 120.4999 47.1097 0.0000 0.0000 0.0000
# 3 47.1097 47.1097 113.9202 0.0000 0.0000 0.0000
# 4 0.0000 0.0000 0.0000 15.6740 0.0000 0.0000
# 5 0.0000 0.0000 0.0000 0.0000 15.6740 0.0000
# 6 0.0000 0.0000 0.0000 0.0000 0.0000 43.5544
#
#
#
# Elastic Compliance Matrix: (Units=1/GPa)
#
#
# Indices 1 2 3 4 5 6 
#
# 1 0.010997 -0.003475 -0.003111 0.000000 0.000000 0.000000
# 2 -0.003475 0.010997 -0.003111 0.000000 0.000000 0.000000
# 3 -0.003111 -0.003111 0.011351 0.000000 0.000000 0.000000
# 4 0.000000 0.000000 0.000000 0.063800 0.000000 0.000000
# 5 0.000000 0.000000 0.000000 0.000000 0.063800 0.000000
# 6 0.000000 0.000000 0.000000 0.000000 0.000000 0.022960
#
#
# Mechanical properties :
#
#
# Convention : Reuss Voigt Hill
#
# Bulk Modulus (GPa) = 71.67144 71.79573 71.73358
# Shear Modulus (GPa) = 24.04448 28.93377 26.48912
#
# Velocity S-wave (km/s) = 3.69467 4.05295 3.87795
# Velocity P-wave (km/s) = 7.67400 7.91593 7.79590
#
# Compressibility (1/GPa) = 0.01395256
#
# Stress axis : x y z
#
# Youngs Moduli (GPa) = 90.93237 90.93237 88.09931
#
# Poissons Ratio (x) = 0.31598 0.27405
# Poissons Ratio (y) = 0.31598 0.27405
# Poissons Ratio (z) = 0.28286 0.28286
#
# Static dielectric constant tensor:
#      x y z
#    x 3.396480 0.000000 0.000000 
#    y 0.000000 3.396480 0.000000 
#    z 0.000000 0.000000 3.222730 
# 
# 
# High freq. dielectric constant tensor:
#      x y z
#    x 1.689800 0.000000 0.000000 
#    y 0.000000 1.689800 0.000000 
#    z 0.000000 0.000000 1.660550 
# 
# From -- ./inp_files/9830.got.cif
#   From: 2010.03.12/outbox.cif.g09.slc.cpg/sg134_5_cif.got.tgz:9830.got - 2010.04.06 18:17:22.
