data_PCOD8317285
_publ_section_title
;
Structure prediction by ZEFSAII (Michael W. Deem and Ramdas Pophale) SiO2 
 PCOD8317285
Probable space group: P 42/N N M
;
_chemical_formula_sum "Si O2"
_cell_formula_units_Z 96
_cell_length_a 15.420182
_cell_length_b 15.420182
_cell_length_c 21.927064
_cell_angle_alpha 90.000000
_cell_angle_beta 90.000000
_cell_angle_gamma 90.000000
_cell_volume 5213.861415
_symmetry_space_group_name_H-M "P 42/N N M"
_symmetry_group_IT_number 134
_space_group.IT_coordinate_system_code '2'
_symmetry_cell_setting 'tetragonal'
loop_
_space_group_symop_operation_xyz
x,y,z
1/2-y,x,1/2+z
1/2-x,1/2-y,z
y,1/2-x,1/2+z
x,1/2-y,1/2-z
1/2-x,y,1/2-z
y,x,-z
1/2-y,1/2-x,-z
-x,-y,-z
1/2+y,-x,1/2-z
1/2+x,1/2+y,-z
-y,1/2+x,1/2-z
-x,1/2+y,1/2+z
1/2+x,-y,1/2+z
-y,-x,z
1/2+y,1/2+x,z
loop_
_atom_site_type_symbol
_atom_site_label
_atom_site_fract_x
_atom_site_fract_y
_atom_site_fract_z
Si Si1 0.444566 0.410049 0.361302
Si Si2 0.622505 0.893595 0.606983
Si Si3 0.405789 0.202698 0.955906
Si Si4 0.150819 0.352337 0.256294
Si Si5 0.943281 0.056720 0.952864
Si Si6 0.179768 0.679768 0.530101
Si Si7 0.008488 0.750964 0.932874
O O1 0.516080 0.483921 0.361597
O O2 0.369231 0.436494 0.407917
O O3 0.406581 0.400665 0.293892
O O4 0.486052 0.319184 0.381798
O O5 0.716019 0.865486 0.580712
O O6 0.615417 0.881909 0.678842
O O7 0.547627 0.837620 0.575557
O O8 0.610958 0.993729 0.590613
O O9 0.329179 0.170822 0.000000
O O10 0.489605 0.220948 0.997765
O O11 0.141217 0.250000 0.250000
O O12 0.250000 0.381725 0.250000
O O13 0.874738 0.125263 0.980248
O O14 0.000000 0.000000 0.000000
O O15 0.250000 0.750000 0.503824
O O16 0.229935 0.610616 0.572563
#
# Coordination Sequence:
#
# PCOD8317285 Si02
#       7
#    16  16  16  16   8   8  16
#     4  11  24  41  57  87 127 165 204 246 310 382
#     4  12  21  39  62  91 126 155 208 263 314 372
#     4  10  22  35  60  92 121 156 196 252 318 369
#     4  11  23  40  62  87 116 159 207 259 309 361
#     4  12  22  40  64  96 126 160 211 268 315 376
#     4  12  24  40  62  94 130 168 206 256 318 388
#     4  11  22  39  62  89 125 163 200 257 315 377
#
# _framework density 18.412458000000001
#
# number of rings (size 3 to 8) (size 9 to 14) (size 15 to 20)
#    0.000    0.833    6.667    1.000    1.167    8.333 
#    0.000    0.000    0.000    0.000    0.000    0.000 
#    0.000    0.000    0.000    0.000    0.000    0.000 
#
# Total GULP energy -1190562.544296 kJ/mol
# GULP energy per Si atom -12401.693170 kJ/mol
# Density = 1.837055 g / cm^3
# Si number density = 18.412458 Si / 1000 Ang^3
#
#
#
# Elastic Constant Matrix: (Units=GPa)
#
#
# Indices 1 2 3 4 5 6 
#
# 1 104.1623 55.3422 37.6872 0.0000 0.0000 0.0000
# 2 55.3422 104.1620 37.6871 0.0000 0.0000 0.0000
# 3 37.6872 37.6871 108.9548 0.0000 0.0000 0.0000
# 4 0.0000 0.0000 0.0000 25.0991 0.0000 0.0000
# 5 0.0000 0.0000 0.0000 0.0000 25.0991 0.0000
# 6 0.0000 0.0000 0.0000 0.0000 0.0000 30.2111
#
#
#
# Elastic Compliance Matrix: (Units=1/GPa)
#
#
# Indices 1 2 3 4 5 6 
#
# 1 0.013989 -0.006494 -0.002592 0.000000 0.000000 0.000000
# 2 -0.006494 0.013989 -0.002592 0.000000 0.000000 0.000000
# 3 -0.002592 -0.002592 0.010971 0.000000 0.000000 0.000000
# 4 0.000000 0.000000 0.000000 0.039842 0.000000 0.000000
# 5 0.000000 0.000000 0.000000 0.000000 0.039842 0.000000
# 6 0.000000 0.000000 0.000000 0.000000 0.000000 0.033100
#
#
# Mechanical properties :
#
#
# Convention : Reuss Voigt Hill
#
# Bulk Modulus (GPa) = 64.13913 64.30133 64.22023
# Shear Modulus (GPa) = 27.73324 28.51937 28.12630
#
# Velocity S-wave (km/s) = 3.88522 3.93990 3.91265
# Velocity P-wave (km/s) = 7.41868 7.46295 7.44085
#
# Compressibility (1/GPa) = 0.01559111
#
# Stress axis : x y z
#
# Youngs Moduli (GPa) = 71.48530 71.48509 91.14569
#
# Poissons Ratio (x) = 0.46426 0.23628
# Poissons Ratio (y) = 0.46426 0.23628
# Poissons Ratio (z) = 0.18531 0.18531
#
# Static dielectric constant tensor:
#      x y z
#    x 3.498670 0.000000 0.000000 
#    y 0.000000 3.498670 0.000000 
#    z 0.000000 0.000000 3.439700 
# 
# 
# High freq. dielectric constant tensor:
#      x y z
#    x 1.714870 0.000000 0.000000 
#    y 0.000000 1.714870 0.000000 
#    z 0.000000 0.000000 1.710360 
# 
# From -- ./inp_files/10072.got.cif
#   From: 2010.03.12/outbox.cif.g09.slc.cpg/sg134_6_cif.got.tgz:10072.got - 2010.04.06 18:17:22.
