data_PCOD8317101
_publ_section_title
;
Structure prediction by ZEFSAII (Michael W. Deem and Ramdas Pophale) SiO2 
 PCOD8317101
Probable space group: P 42/N N M
;
_chemical_formula_sum "Si O2"
_cell_formula_units_Z 80
_cell_length_a 13.515622
_cell_length_b 13.515622
_cell_length_c 25.497920
_cell_angle_alpha 90.000000
_cell_angle_beta 90.000000
_cell_angle_gamma 90.000000
_cell_volume 4657.757012
_symmetry_space_group_name_H-M "P 42/N N M"
_symmetry_group_IT_number 134
_space_group.IT_coordinate_system_code '2'
_symmetry_cell_setting 'tetragonal'
loop_
_space_group_symop_operation_xyz
x,y,z
1/2-y,x,1/2+z
1/2-x,1/2-y,z
y,1/2-x,1/2+z
x,1/2-y,1/2-z
1/2-x,y,1/2-z
y,x,-z
1/2-y,1/2-x,-z
-x,-y,-z
1/2+y,-x,1/2-z
1/2+x,1/2+y,-z
-y,1/2+x,1/2-z
-x,1/2+y,1/2+z
1/2+x,-y,1/2+z
-y,-x,z
1/2+y,1/2+x,z
loop_
_atom_site_type_symbol
_atom_site_label
_atom_site_fract_x
_atom_site_fract_y
_atom_site_fract_z
Si Si1 0.632497 0.860182 0.750492
Si Si2 0.989716 0.854152 0.347409
Si Si3 0.045704 0.109204 0.442857
Si Si4 0.304707 0.353006 0.941836
Si Si5 0.032833 0.128242 0.853577
O O1 0.586805 0.750000 0.750000
O O2 0.750000 0.853733 0.750000
O O3 0.601018 0.916861 0.803176
O O4 0.590031 0.915292 0.699425
O O5 0.943788 0.879132 0.403486
O O6 0.008039 0.737786 0.343064
O O7 0.096642 0.903359 0.340288
O O8 0.083608 0.083608 0.500000
O O9 0.055111 0.227525 0.436332
O O10 0.933515 0.066486 0.434403
O O11 0.250000 0.250000 0.927975
O O12 0.390984 0.373502 0.901245
O O13 0.349841 0.349841 0.000000
O O14 0.941639 0.058362 0.868269
#
# Coordination Sequence:
#
# PCOD8317101 Si02
#       5
#    16  16  16  16  16
#     4   9  18  31  51  73  97 132 173 221 260 303
#     4  10  19  32  49  72 106 142 176 213 267 323
#     4  10  18  30  52  80 102 128 172 221 264 311
#     4  11  19  34  55  77 105 140 175 221 271 316
#     4  11  22  33  50  77 108 139 177 218 262 319
#
# _framework density 17.175650000000001
#
# number of rings (size 3 to 8) (size 9 to 14) (size 15 to 20)
#    0.000    1.800    4.000    1.800    2.800    0.800 
#    0.000    0.000    0.000    4.200    0.000    0.000 
#    0.000    5.200    0.000    0.000    0.000    0.000 
#
# Total GULP energy -991851.668976 kJ/mol
# GULP energy per Si atom -12398.145862 kJ/mol
# Density = 1.713656 g / cm^3
# Si number density = 17.175650 Si / 1000 Ang^3
#
#
#
# Elastic Constant Matrix: (Units=GPa)
#
#
# Indices 1 2 3 4 5 6 
#
# 1 94.6770 63.7022 50.3883 0.0000 0.0000 0.0000
# 2 63.7022 94.6770 50.3883 0.0000 0.0000 0.0000
# 3 50.3883 50.3883 126.8377 0.0000 0.0000 0.0000
# 4 0.0000 0.0000 0.0000 7.4735 0.0000 0.0000
# 5 0.0000 0.0000 0.0000 0.0000 7.4735 0.0000
# 6 0.0000 0.0000 0.0000 0.0000 0.0000 24.7901
#
#
#
# Elastic Compliance Matrix: (Units=1/GPa)
#
#
# Indices 1 2 3 4 5 6 
#
# 1 0.020367 -0.011917 -0.003357 0.000000 0.000000 0.000000
# 2 -0.011917 0.020367 -0.003357 0.000000 0.000000 0.000000
# 3 -0.003357 -0.003357 0.010551 0.000000 0.000000 0.000000
# 4 0.000000 0.000000 0.000000 0.133805 0.000000 0.000000
# 5 0.000000 0.000000 0.000000 0.000000 0.133805 0.000000
# 6 0.000000 0.000000 0.000000 0.000000 0.000000 0.040339
#
#
# Mechanical properties :
#
#
# Convention : Reuss Voigt Hill
#
# Bulk Modulus (GPa) = 71.30830 71.68328 71.49579
# Shear Modulus (GPa) = 12.46350 18.06162 15.26256
#
# Velocity S-wave (km/s) = 2.69671 3.24633 2.98420
# Velocity P-wave (km/s) = 7.16265 7.47513 7.32056
#
# Compressibility (1/GPa) = 0.01402361
#
# Stress axis : x y z
#
# Youngs Moduli (GPa) = 49.09868 49.09868 94.77561
#
# Poissons Ratio (x) = 0.58512 0.31815
# Poissons Ratio (y) = 0.58512 0.31815
# Poissons Ratio (z) = 0.16482 0.16482
#
# Static dielectric constant tensor:
#      x y z
#    x 3.198820 0.000000 0.000000 
#    y 0.000000 3.198820 0.000000 
#    z 0.000000 0.000000 3.423820 
# 
# 
# High freq. dielectric constant tensor:
#      x y z
#    x 1.640310 0.000000 0.000000 
#    y 0.000000 1.640310 0.000000 
#    z 0.000000 0.000000 1.686660 
# 
# From -- ./inp_files/9909.got.cif
#   From: 2010.03.12/outbox.cif.g09.slc.cpg/sg134_5_cif.got.tgz:9909.got - 2010.04.06 18:17:22.
