data_PCOD8317770
_publ_section_title
;
Structure prediction by ZEFSAII (Michael W. Deem and Ramdas Pophale) SiO2 
 PCOD8317770
Probable space group: P 42/M N M
;
_chemical_formula_sum "Si O2"
_cell_formula_units_Z 72
_cell_length_a 21.301422
_cell_length_b 21.301422
_cell_length_c 9.014869
_cell_angle_alpha 90.000000
_cell_angle_beta 90.000000
_cell_angle_gamma 90.000000
_cell_volume 4090.502030
_symmetry_space_group_name_H-M "P 42/M N M"
_symmetry_group_IT_number 136
_symmetry_cell_setting 'tetragonal'
loop_
_space_group_symop_operation_xyz
x,y,z
1/2-y,1/2+x,1/2+z
-x,-y,z
1/2+y,1/2-x,1/2+z
1/2+x,1/2-y,1/2-z
1/2-x,1/2+y,1/2-z
y,x,-z
-y,-x,-z
-x,-y,-z
1/2+y,1/2-x,1/2-z
x,y,-z
1/2-y,1/2+x,1/2-z
1/2-x,1/2+y,1/2+z
1/2+x,1/2-y,1/2+z
-y,-x,z
y,x,z
loop_
_atom_site_type_symbol
_atom_site_label
_atom_site_fract_x
_atom_site_fract_y
_atom_site_fract_z
Si Si1 0.194212 0.962336 0.674574
Si Si2 0.151806 0.751009 0.165065
Si Si3 0.489321 0.812890 0.673137
Si Si4 0.617887 0.880964 0.667696
Si Si5 0.551020 0.551020 0.823706
O O1 0.197551 0.973346 0.500000
O O2 0.217496 0.892735 0.713480
O O3 0.121537 0.968756 0.730905
O O4 0.243832 0.010861 0.749687
O O5 0.220193 0.779808 0.179257
O O6 0.164771 0.677545 0.186355
O O7 0.121821 0.762248 0.000000
O O8 0.484605 0.800284 0.500000
O O9 0.550422 0.853496 0.715295
O O10 0.433101 0.857493 0.721993
O O11 0.616495 0.907663 0.500000
O O12 0.500000 0.500000 0.764025
O O13 0.551560 0.551560 0.000000
#
# Coordination Sequence:
#
# PCOD8317770 Si02
#       5
#    16  16  16  16   8
#     4  10  18  31  53  77 101 132 171 214 255 303
#     4   9  17  31  52  76 103 132 167 214 262 308
#     4  10  21  36  53  75 104 137 172 215 267 314
#     4   9  19  34  51  74 101 135 176 213 258 314
#     4   9  18  32  51  79 109 137 175 215 253 304
#
# _framework density 17.601752000000001
#
# number of rings (size 3 to 8) (size 9 to 14) (size 15 to 20)
#    0.000    2.556    1.111    2.667    0.000    4.889 
#    0.000    3.333    0.000   12.000    0.000    0.000 
#    0.000    0.000    0.000    0.000    0.000    0.000 
#
# Total GULP energy -892088.737937 kJ/mol
# GULP energy per Si atom -12390.121360 kJ/mol
# Density = 1.756169 g / cm^3
# Si number density = 17.601752 Si / 1000 Ang^3
#
#
#
# Elastic Constant Matrix: (Units=GPa)
#
#
# Indices 1 2 3 4 5 6 
#
# 1 96.1114 63.7090 41.2209 0.0000 0.0000 0.0000
# 2 63.7090 96.1114 41.2209 0.0000 0.0000 0.0000
# 3 41.2209 41.2209 61.7119 0.0000 0.0000 0.0000
# 4 0.0000 0.0000 0.0000 24.2999 0.0000 0.0000
# 5 0.0000 0.0000 0.0000 0.0000 24.2999 0.0000
# 6 0.0000 0.0000 0.0000 0.0000 0.0000 29.0095
#
#
#
# Elastic Compliance Matrix: (Units=1/GPa)
#
#
# Indices 1 2 3 4 5 6 
#
# 1 0.020204 -0.010658 -0.006377 0.000000 0.000000 0.000000
# 2 -0.010658 0.020204 -0.006377 0.000000 0.000000 0.000000
# 3 -0.006377 -0.006377 0.024723 0.000000 0.000000 0.000000
# 4 0.000000 0.000000 0.000000 0.041152 0.000000 0.000000
# 5 0.000000 0.000000 0.000000 0.000000 0.041152 0.000000
# 6 0.000000 0.000000 0.000000 0.000000 0.000000 0.034471
#
#
# Mechanical properties :
#
#
# Convention : Reuss Voigt Hill
#
# Bulk Modulus (GPa) = 54.61694 60.69292 57.65493
# Shear Modulus (GPa) = 21.29179 22.70744 21.99961
#
# Velocity S-wave (km/s) = 3.48176 3.59565 3.53916
# Velocity P-wave (km/s) = 6.87460 7.19682 7.03756
#
# Compressibility (1/GPa) = 0.01830934
#
# Stress axis : x y z
#
# Youngs Moduli (GPa) = 49.49482 49.49482 40.44845
#
# Poissons Ratio (x) = 0.52751 0.25792
# Poissons Ratio (y) = 0.52751 0.25792
# Poissons Ratio (z) = 0.31560 0.31560
#
# Static dielectric constant tensor:
#      x y z
#    x 3.320310 0.000000 0.000000 
#    y 0.000000 3.320310 0.000000 
#    z 0.000000 0.000000 3.204580 
# 
# 
# High freq. dielectric constant tensor:
#      x y z
#    x 1.673000 0.000000 0.000000 
#    y 0.000000 1.673000 0.000000 
#    z 0.000000 0.000000 1.674420 
# 
# From -- ./inp_files/1550.got.cif
#   From: 2010.03.12/outbox.cif.g09.slc.cpg/sg136_1_cif.got.tgz:1550.got - 2010.04.06 18:39:43.
