data_PCOD8317313
_publ_section_title
;
Structure prediction by ZEFSAII (Michael W. Deem and Ramdas Pophale) SiO2 
 PCOD8317313
Probable space group: P 42/N N M
;
_chemical_formula_sum "Si O2"
_cell_formula_units_Z 64
_cell_length_a 20.536720
_cell_length_b 20.536720
_cell_length_c 8.497125
_cell_angle_alpha 90.000000
_cell_angle_beta 90.000000
_cell_angle_gamma 90.000000
_cell_volume 3583.720830
_symmetry_space_group_name_H-M "P 42/N N M"
_symmetry_group_IT_number 134
_space_group.IT_coordinate_system_code '2'
_symmetry_cell_setting 'tetragonal'
loop_
_space_group_symop_operation_xyz
x,y,z
1/2-y,x,1/2+z
1/2-x,1/2-y,z
y,1/2-x,1/2+z
x,1/2-y,1/2-z
1/2-x,y,1/2-z
y,x,-z
1/2-y,1/2-x,-z
-x,-y,-z
1/2+y,-x,1/2-z
1/2+x,1/2+y,-z
-y,1/2+x,1/2-z
-x,1/2+y,1/2+z
1/2+x,-y,1/2+z
-y,-x,z
1/2+y,1/2+x,z
loop_
_atom_site_type_symbol
_atom_site_label
_atom_site_fract_x
_atom_site_fract_y
_atom_site_fract_z
Si Si1 0.771481 0.979068 0.908423
Si Si2 0.931173 0.847890 0.617719
Si Si3 0.101819 0.005851 0.916496
Si Si4 0.187702 0.338348 0.327667
O O1 0.750000 0.019570 0.750000
O O2 0.804999 0.915789 0.832099
O O3 0.710531 0.965623 0.023588
O O4 0.829113 0.014021 0.004819
O O5 0.900296 0.900296 0.500000
O O6 0.981505 0.885791 0.731155
O O7 0.875775 0.816976 0.729804
O O8 0.069740 0.069740 0.000000
O O9 0.055443 0.944558 0.936927
O O10 0.250000 0.304926 0.250000
O O11 0.188610 0.311391 0.500000
#
# Coordination Sequence:
#
# PCOD8317313 Si02
#       4
#    16  16  16  16
#     4  11  20  36  57  77 109 147 185 234 278 320
#     4  12  20  34  57  78 109 146 187 234 276 328
#     4  11  22  37  56  78 110 149 190 230 274 328
#     4  11  21  35  49  74 104 147 189 230 271 316
#
# _framework density 17.858533999999999
#
# number of rings (size 3 to 8) (size 9 to 14) (size 15 to 20)
#    0.000    0.750   10.000    0.750    0.000    0.500 
#    0.000   10.000    0.000    0.000    0.000    0.000 
#    0.000   16.500    0.000    0.000    0.000    0.000 
#
# Total GULP energy -793179.938943 kJ/mol
# GULP energy per Si atom -12393.436546 kJ/mol
# Density = 1.781789 g / cm^3
# Si number density = 17.858534 Si / 1000 Ang^3
#
#
#
# Elastic Constant Matrix: (Units=GPa)
#
#
# Indices 1 2 3 4 5 6 
#
# 1 57.2211 35.0278 39.1087 0.0000 0.0000 0.0000
# 2 35.0278 57.2211 39.1087 0.0000 0.0000 0.0000
# 3 39.1087 39.1087 150.5740 0.0000 0.0000 0.0000
# 4 0.0000 0.0000 0.0000 85.6740 0.0000 0.0000
# 5 0.0000 0.0000 0.0000 0.0000 85.6888 0.0000
# 6 0.0000 0.0000 0.0000 0.0000 0.0000 -215.2106
#
#
#
# Elastic Compliance Matrix: (Units=1/GPa)
#
#
# Indices 1 2 3 4 5 6 
#
# 1 0.029480 -0.015578 -0.003611 0.000000 0.000000 0.000000
# 2 -0.015578 0.029480 -0.003611 0.000000 0.000000 0.000000
# 3 -0.003611 -0.003611 0.008517 0.000000 0.000000 0.000000
# 4 0.000000 0.000000 0.000000 0.011672 0.000000 0.000000
# 5 0.000000 0.000000 0.000000 0.000000 0.011670 0.000000
# 6 0.000000 0.000000 0.000000 0.000000 0.000000 -0.004647
#
#
# Mechanical properties :
#
#
# Convention : Reuss Voigt Hill
#
# Bulk Modulus (GPa) = 45.70904 54.61186 50.16045
# Shear Modulus (GPa) = 35.95440 1.34853 18.65146
#
# Velocity S-wave (km/s) = 4.49184 0.86992 3.23522
# Velocity P-wave (km/s) = 7.24933 5.62634 6.48878
#
# Compressibility (1/GPa) = 0.02187751
#
# Stress axis : x y z
#
# Youngs Moduli (GPa) = 33.92114 33.92110 117.41388
#
# Poissons Ratio (x) = 0.52844 0.42395
# Poissons Ratio (y) = 0.52844 0.42395
# Poissons Ratio (z) = 0.12248 0.12248
#
# Static dielectric constant tensor:
#      x y z
#    x 2.915730 0.000000 0.000000 
#    y 0.000000 2.915680 0.000000 
#    z 0.000000 0.000000 4.146340 
# 
# 
# High freq. dielectric constant tensor:
#      x y z
#    x 1.650120 0.000000 0.000000 
#    y 0.000000 1.650120 0.000000 
#    z 0.000000 0.000000 1.725490 
# 
# From -- ./inp_files/2710.got.cif
#   From: 2010.03.12/outbox.cif.g09.slc.cpg/sg134_2_cif.got.tgz:2710.got - 2010.04.06 18:17:22.
