data_PCOD8317562
_publ_section_title
;
Structure prediction by ZEFSAII (Michael W. Deem and Ramdas Pophale) SiO2 
 PCOD8317562
Probable space group: P 42/M B C
;
_chemical_formula_sum "Si O2"
_cell_formula_units_Z 88
_cell_length_a 13.552593
_cell_length_b 13.552593
_cell_length_c 22.982305
_cell_angle_alpha 90.000000
_cell_angle_beta 90.000000
_cell_angle_gamma 90.000000
_cell_volume 4221.223782
_symmetry_space_group_name_H-M "P 42/M B C"
_symmetry_group_IT_number 135
_symmetry_cell_setting 'tetragonal'
loop_
_space_group_symop_operation_xyz
x,y,z
-y,x,1/2+z
-x,-y,z
y,-x,1/2+z
1/2+x,1/2-y,-z
1/2-x,1/2+y,-z
1/2+y,1/2+x,1/2-z
1/2-y,1/2-x,1/2-z
-x,-y,-z
y,-x,1/2-z
x,y,-z
-y,x,1/2-z
1/2-x,1/2+y,z
1/2+x,1/2-y,z
1/2-y,1/2-x,1/2+z
1/2+y,1/2+x,1/2+z
loop_
_atom_site_type_symbol
_atom_site_label
_atom_site_fract_x
_atom_site_fract_y
_atom_site_fract_z
Si Si1 0.575808 0.195047 0.316231
Si Si2 0.430496 0.340035 0.000000
Si Si3 0.802982 0.420049 0.610115
Si Si4 0.403061 0.280834 0.377506
Si Si5 0.638943 0.446342 0.000000
Si Si6 0.764875 0.087475 0.686630
Si Si7 0.500000 0.000000 0.642908
O O1 0.517859 0.262406 0.362090
O O2 0.684900 0.166564 0.338396
O O3 0.579637 0.253239 0.255628
O O4 0.517834 0.090700 0.312672
O O5 0.417740 0.268492 0.945126
O O6 0.532486 0.397607 0.000000
O O7 0.355238 0.433416 0.000000
O O8 0.829469 0.310924 0.632166
O O9 0.746367 0.477259 0.661638
O O10 0.907140 0.477922 0.599790
O O11 0.400951 0.306119 0.444922
O O12 0.369207 0.369757 0.335072
#
# Coordination Sequence:
#
# PCOD8317562 Si02
#       7
#    16   8  16  16   8  16   8
#     4   9  21  38  62  92 127 165 199 261 318 376
#     4  11  23  43  64  85 125 170 209 255 325 367
#     4  10  21  39  66  93 121 167 205 267 311 367
#     4  11  23  42  63  94 126 165 219 254 316 380
#     4  11  25  44  62  86 128 174 207 261 310 389
#     4  10  21  39  63  95 129 161 210 260 316 374
#     4   8  18  38  62  92 126 153 206 257 316 376
#
# _framework density 20.847034000000001
#
# number of rings (size 3 to 8) (size 9 to 14) (size 15 to 20)
#    0.000    2.000    1.818    0.545    2.545   14.182 
#    0.000    5.455    0.000    0.000    0.000    0.000 
#    0.000    0.000    0.000    0.000    0.000    0.000 
#
# Total GULP energy -1090284.708469 kJ/mol
# GULP energy per Si atom -12389.598960 kJ/mol
# Density = 2.079959 g / cm^3
# Si number density = 20.847034 Si / 1000 Ang^3
#
#
#
# Elastic Constant Matrix: (Units=GPa)
#
#
# Indices 1 2 3 4 5 6 
#
# 1 68.7146 22.4207 25.9145 0.0000 0.0000 0.0000
# 2 22.4207 68.7146 25.9145 0.0000 0.0000 0.0000
# 3 25.9145 25.9145 92.5165 0.0000 0.0000 0.0000
# 4 0.0000 0.0000 0.0000 42.1903 0.0000 0.0000
# 5 0.0000 0.0000 0.0000 0.0000 42.1903 0.0000
# 6 0.0000 0.0000 0.0000 0.0000 0.0000 30.8968
#
#
#
# Elastic Compliance Matrix: (Units=1/GPa)
#
#
# Indices 1 2 3 4 5 6 
#
# 1 0.017326 -0.004275 -0.003656 0.000000 0.000000 0.000000
# 2 -0.004275 0.017326 -0.003656 0.000000 0.000000 0.000000
# 3 -0.003656 -0.003656 0.012857 0.000000 0.000000 0.000000
# 4 0.000000 0.000000 0.000000 0.023702 0.000000 0.000000
# 5 0.000000 0.000000 0.000000 0.000000 0.023702 0.000000
# 6 0.000000 0.000000 0.000000 0.000000 0.000000 0.032366
#
#
# Mechanical properties :
#
#
# Convention : Reuss Voigt Hill
#
# Bulk Modulus (GPa) = 41.08969 42.04944 41.56956
# Shear Modulus (GPa) = 31.53278 33.43523 32.48400
#
# Velocity S-wave (km/s) = 3.89341 4.00914 3.95170
# Velocity P-wave (km/s) = 6.32174 6.45331 6.38786
#
# Compressibility (1/GPa) = 0.02433701
#
# Stress axis : x y z
#
# Youngs Moduli (GPa) = 57.71519 57.71519 77.77884
#
# Poissons Ratio (x) = 0.24671 0.28435
# Poissons Ratio (y) = 0.24671 0.28435
# Poissons Ratio (z) = 0.21100 0.21100
#
# Static dielectric constant tensor:
#      x y z
#    x 3.905820 0.000000 0.000000 
#    y 0.000000 3.905820 0.000000 
#    z 0.000000 0.000000 3.502930 
# 
# 
# High freq. dielectric constant tensor:
#      x y z
#    x 1.819390 0.000000 0.000000 
#    y 0.000000 1.819390 0.000000 
#    z 0.000000 0.000000 1.795320 
# 
# From -- ./inp_files/5368.got.cif
#   From: 2010.03.12/outbox.cif.g09.slc.cpg/sg135_3_cif.got.tgz:5368.got - 2010.04.06 18:31:24.
