data_PCOD8317758
_publ_section_title
;
Structure prediction by ZEFSAII (Michael W. Deem and Ramdas Pophale) SiO2 
 PCOD8317758
Probable space group: P 42/M N M
;
_chemical_formula_sum "Si O2"
_cell_formula_units_Z 64
_cell_length_a 14.056216
_cell_length_b 14.056216
_cell_length_c 19.449541
_cell_angle_alpha 90.000000
_cell_angle_beta 90.000000
_cell_angle_gamma 90.000000
_cell_volume 3842.786012
_symmetry_space_group_name_H-M "P 42/M N M"
_symmetry_group_IT_number 136
_symmetry_cell_setting 'tetragonal'
loop_
_space_group_symop_operation_xyz
x,y,z
1/2-y,1/2+x,1/2+z
-x,-y,z
1/2+y,1/2-x,1/2+z
1/2+x,1/2-y,1/2-z
1/2-x,1/2+y,1/2-z
y,x,-z
-y,-x,-z
-x,-y,-z
1/2+y,1/2-x,1/2-z
x,y,-z
1/2-y,1/2+x,1/2-z
1/2-x,1/2+y,1/2+z
1/2+x,1/2-y,1/2+z
-y,-x,z
y,x,z
loop_
_atom_site_type_symbol
_atom_site_label
_atom_site_fract_x
_atom_site_fract_y
_atom_site_fract_z
Si Si1 0.852316 0.503262 0.777780
Si Si2 0.154263 0.001478 0.205711
Si Si3 0.043938 0.396963 0.575673
Si Si4 0.415975 0.263442 0.423176
O O1 0.908088 0.594961 0.748860
O O2 0.744010 0.503912 0.755092
O O3 0.844861 0.507957 0.861061
O O4 0.102787 0.102787 0.214168
O O5 0.187693 0.992191 0.126828
O O6 0.083538 0.916463 0.226345
O O7 0.031026 0.346769 0.500000
O O8 0.154082 0.402896 0.596046
O O9 0.000000 0.500000 0.570365
O O10 0.456915 0.275185 0.500000
O O11 0.313161 0.313161 0.415523
#
# Coordination Sequence:
#
# PCOD8317758 Si02
#       4
#    16  16  16  16
#     4  11  19  33  52  77 102 129 168 205 247 302
#     4  10  21  34  49  73 103 135 170 208 251 296
#     4  10  18  30  50  75 103 130 160 205 252 295
#     4   9  17  30  48  71 100 132 165 201 247 302
#
# _framework density 16.654584
#
# number of rings (size 3 to 8) (size 9 to 14) (size 15 to 20)
#    0.000    2.000    5.000    0.000    0.000    2.500 
#    0.000    2.500    0.000    0.750    0.000    1.750 
#    0.000    0.000    0.000    0.000    0.000    0.000 
#
# Total GULP energy -793262.015349 kJ/mol
# GULP energy per Si atom -12394.718990 kJ/mol
# Density = 1.661668 g / cm^3
# Si number density = 16.654584 Si / 1000 Ang^3
#
#
#
# Elastic Constant Matrix: (Units=GPa)
#
#
# Indices 1 2 3 4 5 6 
#
# 1 76.3585 22.4118 40.2165 0.0000 0.0000 0.0000
# 2 22.4118 76.3585 40.2165 0.0000 0.0000 0.0000
# 3 40.2165 40.2165 129.9012 0.0000 0.0000 0.0000
# 4 0.0000 0.0000 0.0000 20.4592 0.0000 0.0000
# 5 0.0000 0.0000 0.0000 0.0000 20.4592 0.0000
# 6 0.0000 0.0000 0.0000 0.0000 0.0000 10.3952
#
#
#
# Elastic Compliance Matrix: (Units=1/GPa)
#
#
# Indices 1 2 3 4 5 6 
#
# 1 0.016037 -0.002500 -0.004191 0.000000 0.000000 0.000000
# 2 -0.002500 0.016037 -0.004191 0.000000 0.000000 0.000000
# 3 -0.004191 -0.004191 0.010293 0.000000 0.000000 0.000000
# 4 0.000000 0.000000 0.000000 0.048878 0.000000 0.000000
# 5 0.000000 0.000000 0.000000 0.000000 0.048878 0.000000
# 6 0.000000 0.000000 0.000000 0.000000 0.000000 0.096198
#
#
# Mechanical properties :
#
#
# Convention : Reuss Voigt Hill
#
# Bulk Modulus (GPa) = 48.53474 54.25642 51.39558
# Shear Modulus (GPa) = 18.87129 22.24762 20.55946
#
# Velocity S-wave (km/s) = 3.36981 3.65886 3.51730
# Velocity P-wave (km/s) = 6.65928 7.10618 6.88636
#
# Compressibility (1/GPa) = 0.02060380
#
# Stress axis : x y z
#
# Youngs Moduli (GPa) = 62.35512 62.35512 97.15103
#
# Poissons Ratio (x) = 0.15587 0.40717
# Poissons Ratio (y) = 0.15587 0.40717
# Poissons Ratio (z) = 0.26134 0.26134
#
# Static dielectric constant tensor:
#      x y z
#    x 3.030390 0.000000 0.000000 
#    y 0.000000 3.030390 0.000000 
#    z 0.000000 0.000000 3.666610 
# 
# 
# High freq. dielectric constant tensor:
#      x y z
#    x 1.624000 0.000000 0.000000 
#    y 0.000000 1.624000 0.000000 
#    z 0.000000 0.000000 1.658480 
# 
# From -- ./inp_files/5904.got.cif
#   From: 2010.03.12/outbox.cif.g09.slc.cpg/sg136_3_cif.got.tgz:5904.got - 2010.04.06 18:39:43.
