data_PCOD8317803
_publ_section_title
;
Structure prediction by ZEFSAII (Michael W. Deem and Ramdas Pophale) SiO2 
 PCOD8317803
Probable space group: P 42/M N M
;
_chemical_formula_sum "Si O2"
_cell_formula_units_Z 128
_cell_length_a 18.488418
_cell_length_b 18.488418
_cell_length_c 22.856097
_cell_angle_alpha 90.000000
_cell_angle_beta 90.000000
_cell_angle_gamma 90.000000
_cell_volume 7812.707650
_symmetry_space_group_name_H-M "P 42/M N M"
_symmetry_group_IT_number 136
_symmetry_cell_setting 'tetragonal'
loop_
_space_group_symop_operation_xyz
x,y,z
1/2-y,1/2+x,1/2+z
-x,-y,z
1/2+y,1/2-x,1/2+z
1/2+x,1/2-y,1/2-z
1/2-x,1/2+y,1/2-z
y,x,-z
-y,-x,-z
-x,-y,-z
1/2+y,1/2-x,1/2-z
x,y,-z
1/2-y,1/2+x,1/2-z
1/2-x,1/2+y,1/2+z
1/2+x,1/2-y,1/2+z
-y,-x,z
y,x,z
loop_
_atom_site_type_symbol
_atom_site_label
_atom_site_fract_x
_atom_site_fract_y
_atom_site_fract_z
Si Si1 0.140474 0.257309 0.735171
Si Si2 0.500468 0.387413 0.430555
Si Si3 0.620982 0.890571 0.931248
Si Si4 0.280099 0.838196 0.336463
Si Si5 0.666982 0.113156 0.157274
Si Si6 0.494672 0.919571 0.848275
Si Si7 0.207814 0.474745 0.232367
Si Si8 0.229325 0.478808 0.432094
O O1 0.177849 0.177849 0.731609
O O2 0.161966 0.298136 0.794646
O O3 0.173387 0.305653 0.682119
O O4 0.052792 0.251303 0.731042
O O5 0.504397 0.388575 0.500000
O O6 0.569054 0.430947 0.404663
O O7 0.426398 0.426398 0.409656
O O8 0.505501 0.306274 0.406912
O O9 0.650424 0.819225 0.898604
O O10 0.541571 0.908997 0.907135
O O11 0.671562 0.959182 0.917731
O O12 0.617275 0.873467 0.000000
O O13 0.209576 0.790425 0.347364
O O14 0.251873 0.913681 0.307214
O O15 0.586072 0.100640 0.135847
O O16 0.696832 0.052597 0.202061
O O17 0.712702 0.098107 0.098820
O O18 0.522013 0.872131 0.794375
O O19 0.500000 0.000000 0.824502
O O20 0.233757 0.461130 0.500000
#
# Coordination Sequence:
#
# PCOD8317803 Si02
#       8
#    16  16  16  16  16  16  16  16
#     4   9  18  32  50  70  94 121 152 199 247 285
#     4   8  15  29  46  59  73 102 147 193 229 259
#     4  10  20  31  43  67 101 134 162 186 228 286
#     4   9  18  33  50  71  97 125 158 197 237 279
#     4  10  19  29  45  68  92 121 160 189 230 278
#     4  10  19  28  45  66  94 124 157 194 226 261
#     4   9  19  31  49  72  91 117 160 198 235 284
#     4  10  19  29  41  62  91 120 152 188 226 278
#
# _framework density 16.383564
#
# number of rings (size 3 to 8) (size 9 to 14) (size 15 to 20)
#    0.000    2.625    1.250    1.125    5.250    2.000 
#    0.000    1.875    0.000    0.375    0.000    0.000 
#    0.000    0.000    0.000   10.125    0.000    0.000 
#
# Total GULP energy -1586317.481249 kJ/mol
# GULP energy per Si atom -12393.105322 kJ/mol
# Density = 1.634627 g / cm^3
# Si number density = 16.383564 Si / 1000 Ang^3
#
#
#
# Elastic Constant Matrix: (Units=GPa)
#
#
# Indices 1 2 3 4 5 6 
#
# 1 63.3682 21.5028 25.4026 0.0000 0.0000 0.0000
# 2 21.5028 63.3682 25.4026 0.0000 0.0000 0.0000
# 3 25.4026 25.4026 60.8395 0.0000 0.0000 0.0000
# 4 0.0000 0.0000 0.0000 -13.9666 0.0000 0.0000
# 5 0.0000 0.0000 0.0000 0.0000 -13.9666 0.0000
# 6 0.0000 0.0000 0.0000 0.0000 0.0000 23.8273
#
#
#
# Elastic Compliance Matrix: (Units=1/GPa)
#
#
# Indices 1 2 3 4 5 6 
#
# 1 0.019798 -0.004089 -0.006559 0.000000 0.000000 0.000000
# 2 -0.004089 0.019798 -0.006559 0.000000 0.000000 0.000000
# 3 -0.006559 -0.006559 0.021914 0.000000 0.000000 0.000000
# 4 0.000000 0.000000 0.000000 -0.071600 0.000000 0.000000
# 5 0.000000 0.000000 0.000000 0.000000 -0.071600 0.000000
# 6 0.000000 0.000000 0.000000 0.000000 0.000000 0.041969
#
#
# Mechanical properties :
#
#
# Convention : Reuss Voigt Hill
#
# Bulk Modulus (GPa) = 36.90621 36.91019 36.90820
# Shear Modulus (GPa) = 1342.77204 6.86336 674.81770
#
# Velocity S-wave (km/s) = 28.65945 2.04897 20.31702
# Velocity P-wave (km/s) = 33.43243 5.30805 23.93640
#
# Compressibility (1/GPa) = 0.02709571
#
# Stress axis : x y z
#
# Youngs Moduli (GPa) = 50.51141 50.51141 45.63305
#
# Poissons Ratio (x) = 0.20652 0.29931
# Poissons Ratio (y) = 0.20652 0.29931
# Poissons Ratio (z) = 0.33131 0.33131
#
# Static dielectric constant tensor:
#      x y z
#    x 2.886930 0.000000 0.000000 
#    y 0.000000 2.886930 0.000000 
#    z 0.000000 0.000000 2.937910 
# 
# 
# High freq. dielectric constant tensor:
#      x y z
#    x 1.620960 0.000000 0.000000 
#    y 0.000000 1.620960 0.000000 
#    z 0.000000 0.000000 1.615980 
# 
# From -- ./inp_files/8677.got.cif
#   From: 2010.03.12/outbox.cif.g09.slc.cpg/sg136_5_cif.got.tgz:8677.got - 2010.04.06 18:39:43.
