data_PCOD8317389
_publ_section_title
;
Structure prediction by ZEFSAII (Michael W. Deem and Ramdas Pophale) SiO2 
 PCOD8317389
Probable space group: P 42/M B C
;
_chemical_formula_sum "Si O2"
_cell_formula_units_Z 112
_cell_length_a 14.641081
_cell_length_b 14.641081
_cell_length_c 25.692500
_cell_angle_alpha 90.000000
_cell_angle_beta 90.000000
_cell_angle_gamma 90.000000
_cell_volume 5507.476489
_symmetry_space_group_name_H-M "P 42/M B C"
_symmetry_group_IT_number 135
_symmetry_cell_setting 'tetragonal'
loop_
_space_group_symop_operation_xyz
x,y,z
-y,x,1/2+z
-x,-y,z
y,-x,1/2+z
1/2+x,1/2-y,-z
1/2-x,1/2+y,-z
1/2+y,1/2+x,1/2-z
1/2-y,1/2-x,1/2-z
-x,-y,-z
y,-x,1/2-z
x,y,-z
-y,x,1/2-z
1/2-x,1/2+y,z
1/2+x,1/2-y,z
1/2-y,1/2-x,1/2+z
1/2+y,1/2+x,1/2+z
loop_
_atom_site_type_symbol
_atom_site_label
_atom_site_fract_x
_atom_site_fract_y
_atom_site_fract_z
Si Si1 0.474152 0.600026 0.939052
Si Si2 0.184962 0.179678 0.229281
Si Si3 0.496147 0.150067 0.346772
Si Si4 0.992069 0.634130 0.860620
Si Si5 0.007340 0.256831 0.240127
Si Si6 0.278411 0.644705 0.110922
Si Si7 0.393149 0.238076 0.939132
O O1 0.500000 0.500000 0.916705
O O2 0.378057 0.637481 0.915652
O O3 0.564623 0.661366 0.927084
O O4 0.455318 0.595363 0.000000
O O5 0.225484 0.274517 0.250000
O O6 0.077592 0.172061 0.242735
O O7 0.207163 0.177468 0.168932
O O8 0.229448 0.097345 0.260992
O O9 0.422704 0.072516 0.333637
O O10 0.529420 0.182265 0.290356
O O11 0.454982 0.228869 0.384715
O O12 0.579412 0.099895 0.376432
O O13 0.030367 0.672951 0.914431
O O14 0.964451 0.703871 0.815809
O O15 0.209146 0.718002 0.083354
O O16 0.388795 0.217952 0.000000
#
# Coordination Sequence:
#
# PCOD8317389 Si02
#       7
#    16  16  16  16  16  16  16
#     4  10  22  43  64  89 123 162 209 257 312 375
#     4  11  23  39  57  84 120 158 199 242 305 359
#     4   9  19  34  57  88 114 157 201 239 306 367
#     4  10  18  35  59  84 119 152 202 252 301 362
#     4  11  21  36  55  82 118 160 198 247 293 360
#     4  10  21  41  61  91 121 161 203 253 306 371
#     4  10  21  39  64  90 119 158 203 260 313 362
#
# _framework density 20.335992000000001
#
# number of rings (size 3 to 8) (size 9 to 14) (size 15 to 20)
#    0.000    1.857    0.000    5.571    0.000    1.429 
#   20.571    6.429    0.000    0.000    0.000    0.000 
#    0.000    0.000    0.000    0.000    0.000    0.000 
#
# Total GULP energy -1387488.796365 kJ/mol
# GULP energy per Si atom -12388.292825 kJ/mol
# Density = 2.028971 g / cm^3
# Si number density = 20.335992 Si / 1000 Ang^3
#
#
#
# Elastic Constant Matrix: (Units=GPa)
#
#
# Indices 1 2 3 4 5 6 
#
# 1 76.8929 81.9139 38.7757 0.0000 0.0000 0.0000
# 2 81.9139 76.8958 38.7790 0.0000 0.0000 0.0000
# 3 38.7757 38.7790 79.8268 0.0000 0.0000 0.0000
# 4 0.0000 0.0000 0.0000 15.6292 0.0000 0.0000
# 5 0.0000 0.0000 0.0000 0.0000 15.6292 0.0000
# 6 0.0000 0.0000 0.0000 0.0000 0.0000 37.0281
#
#
#
# Elastic Compliance Matrix: (Units=1/GPa)
#
#
# Indices 1 2 3 4 5 6 
#
# 1 -0.095482 0.103737 -0.004014 0.000000 0.000000 0.000000
# 2 0.103737 -0.095482 -0.004006 0.000000 0.000000 0.000000
# 3 -0.004014 -0.004006 0.016423 0.000000 0.000000 0.000000
# 4 0.000000 0.000000 0.000000 0.063983 0.000000 0.000000
# 5 0.000000 0.000000 0.000000 0.000000 0.063983 0.000000
# 6 0.000000 0.000000 0.000000 0.000000 0.000000 0.027006
#
#
# Mechanical properties :
#
#
# Convention : Reuss Voigt Hill
#
# Bulk Modulus (GPa) = 59.19587 61.39476 60.29531
# Shear Modulus (GPa) = -24.34615 18.60044 -2.87286
#
# Velocity S-wave (km/s) = -3.46380 3.02761 -1.18986
# Velocity P-wave (km/s) = 3.62972 6.51749 5.27506
#
# Compressibility (1/GPa) = 0.01689307
#
# Stress axis : x y z
#
# Youngs Moduli (GPa) = -10.47322 -10.47317 60.88969
#
# Poissons Ratio (x) = 1.08646 0.24443
# Poissons Ratio (y) = 1.08646 0.24392
# Poissons Ratio (z) = -0.04204 -0.04196
#
# Static dielectric constant tensor:
#      x y z
#    x 4.025020 0.000000 0.000000 
#    y 0.000000 4.025030 0.000000 
#    z 0.000000 0.000000 3.570660 
# 
# 
# High freq. dielectric constant tensor:
#      x y z
#    x 1.798220 0.000000 0.000000 
#    y 0.000000 1.798220 0.000000 
#    z 0.000000 0.000000 1.785030 
# 
# From -- ./inp_files/6153.got.cif
#   From: 2010.03.12/outbox.cif.g09.slc.cpg/sg135_4_cif.got.tgz:6153.got - 2010.04.06 18:31:24.
