data_PCOD8317294
_publ_section_title
;
Structure prediction by ZEFSAII (Michael W. Deem and Ramdas Pophale) SiO2 
 PCOD8317294
Probable space group: P 42/N N M
;
_chemical_formula_sum "Si O2"
_cell_formula_units_Z 112
_cell_length_a 15.607802
_cell_length_b 15.607802
_cell_length_c 22.385507
_cell_angle_alpha 90.000000
_cell_angle_beta 90.000000
_cell_angle_gamma 90.000000
_cell_volume 5453.187480
_symmetry_space_group_name_H-M "P 42/N N M"
_symmetry_group_IT_number 134
_space_group.IT_coordinate_system_code '2'
_symmetry_cell_setting 'tetragonal'
loop_
_space_group_symop_operation_xyz
x,y,z
1/2-y,x,1/2+z
1/2-x,1/2-y,z
y,1/2-x,1/2+z
x,1/2-y,1/2-z
1/2-x,y,1/2-z
y,x,-z
1/2-y,1/2-x,-z
-x,-y,-z
1/2+y,-x,1/2-z
1/2+x,1/2+y,-z
-y,1/2+x,1/2-z
-x,1/2+y,1/2+z
1/2+x,-y,1/2+z
-y,-x,z
1/2+y,1/2+x,z
loop_
_atom_site_type_symbol
_atom_site_label
_atom_site_fract_x
_atom_site_fract_y
_atom_site_fract_z
Si Si1 0.696208 0.674270 0.068226
Si Si2 0.908150 0.548200 0.717112
Si Si3 0.613285 0.250653 0.974002
Si Si4 0.002571 0.712409 0.911943
Si Si5 0.473822 0.275770 0.880080
Si Si6 0.543476 0.184369 0.303466
Si Si7 0.916136 0.552914 0.854119
O O1 0.750000 0.750000 0.101946
O O2 0.738984 0.585036 0.080375
O O3 0.598555 0.668743 0.088152
O O4 0.697312 0.697312 0.000000
O O5 0.816354 0.524371 0.686808
O O6 0.898622 0.577992 0.785537
O O7 0.961980 0.461980 0.711882
O O8 0.958286 0.627006 0.685988
O O9 0.670101 0.329900 0.998925
O O10 0.674542 0.174542 0.951223
O O11 0.561420 0.286678 0.916932
O O12 0.553120 0.211515 0.025750
O O13 0.060803 0.761480 0.863389
O O14 0.979981 0.617847 0.887962
O O15 0.449643 0.176110 0.884518
O O16 0.528507 0.250000 0.250000
O O17 0.625022 0.125022 0.288832
O O18 0.959487 0.459487 0.858049
#
# Coordination Sequence:
#
# PCOD8317294 Si02
#       7
#    16  16  16  16  16  16  16
#     4  11  22  38  58  92 129 161 198 254 313 384
#     4  10  22  40  62  91 127 164 210 268 320 379
#     4  11  26  45  64  91 129 173 219 267 321 390
#     4  12  22  41  65  95 129 167 214 262 326 385
#     4  12  22  41  66  93 123 165 214 264 330 382
#     4  11  23  39  62  91 127 170 214 258 311 382
#     4  11  24  40  63  94 128 166 209 263 325 389
#
# _framework density 20.538446
#
# number of rings (size 3 to 8) (size 9 to 14) (size 15 to 20)
#    0.000    0.857    5.714    2.143    0.000    1.286 
#    0.000    2.143    0.000    0.000    0.000    6.000 
#    0.000    0.000    0.000    0.000    0.000    0.000 
#
# Total GULP energy -1388489.943712 kJ/mol
# GULP energy per Si atom -12397.231640 kJ/mol
# Density = 2.049170 g / cm^3
# Si number density = 20.538446 Si / 1000 Ang^3
#
#
#
# Elastic Constant Matrix: (Units=GPa)
#
#
# Indices 1 2 3 4 5 6 
#
# 1 103.8947 41.1146 33.0386 0.0000 0.0000 0.0000
# 2 41.1146 103.8947 33.0386 0.0000 0.0000 0.0000
# 3 33.0386 33.0386 89.6021 0.0000 0.0000 0.0000
# 4 0.0000 0.0000 0.0000 50.3708 0.0000 0.0000
# 5 0.0000 0.0000 0.0000 0.0000 50.3708 0.0000
# 6 0.0000 0.0000 0.0000 0.0000 0.0000 29.2035
#
#
#
# Elastic Compliance Matrix: (Units=1/GPa)
#
#
# Indices 1 2 3 4 5 6 
#
# 1 0.012109 -0.003820 -0.003056 0.000000 0.000000 0.000000
# 2 -0.003820 0.012109 -0.003056 0.000000 0.000000 0.000000
# 3 -0.003056 -0.003056 0.013414 0.000000 0.000000 0.000000
# 4 0.000000 0.000000 0.000000 0.019853 0.000000 0.000000
# 5 0.000000 0.000000 0.000000 0.000000 0.019853 0.000000
# 6 0.000000 0.000000 0.000000 0.000000 0.000000 0.034242
#
#
# Mechanical properties :
#
#
# Convention : Reuss Voigt Hill
#
# Bulk Modulus (GPa) = 56.28499 56.86393 56.57446
# Shear Modulus (GPa) = 36.39886 38.66899 37.53393
#
# Velocity S-wave (km/s) = 4.21435 4.34379 4.27956
# Velocity P-wave (km/s) = 7.15159 7.27356 7.21283
#
# Compressibility (1/GPa) = 0.01776673
#
# Stress axis : x y z
#
# Youngs Moduli (GPa) = 82.58524 82.58524 74.54725
#
# Poissons Ratio (x) = 0.31547 0.22784
# Poissons Ratio (y) = 0.31547 0.22784
# Poissons Ratio (z) = 0.25240 0.25240
#
# Static dielectric constant tensor:
#      x y z
#    x 3.825360 0.000000 0.000000 
#    y 0.000000 3.825360 0.000000 
#    z 0.000000 0.000000 3.734190 
# 
# 
# High freq. dielectric constant tensor:
#      x y z
#    x 1.807910 0.000000 0.000000 
#    y 0.000000 1.807910 0.000000 
#    z 0.000000 0.000000 1.798980 
# 
# From -- ./inp_files/10107.got.cif
#   From: 2010.03.12/outbox.cif.g09.slc.cpg/sg134_6_cif.got.tgz:10107.got - 2010.04.06 18:17:22.
