data_PCOD8317447
_publ_section_title
;
Structure prediction by ZEFSAII (Michael W. Deem and Ramdas Pophale) SiO2 
 PCOD8317447
Probable space group: P 42/M B C
;
_chemical_formula_sum "Si O2"
_cell_formula_units_Z 112
_cell_length_a 15.035894
_cell_length_b 15.035894
_cell_length_c 25.636518
_cell_angle_alpha 90.000000
_cell_angle_beta 90.000000
_cell_angle_gamma 90.000000
_cell_volume 5795.855495
_symmetry_space_group_name_H-M "P 42/M B C"
_symmetry_group_IT_number 135
_symmetry_cell_setting 'tetragonal'
loop_
_space_group_symop_operation_xyz
x,y,z
-y,x,1/2+z
-x,-y,z
y,-x,1/2+z
1/2+x,1/2-y,-z
1/2-x,1/2+y,-z
1/2+y,1/2+x,1/2-z
1/2-y,1/2-x,1/2-z
-x,-y,-z
y,-x,1/2-z
x,y,-z
-y,x,1/2-z
1/2-x,1/2+y,z
1/2+x,1/2-y,z
1/2-y,1/2-x,1/2+z
1/2+y,1/2+x,1/2+z
loop_
_atom_site_type_symbol
_atom_site_label
_atom_site_fract_x
_atom_site_fract_y
_atom_site_fract_z
Si Si1 0.225464 0.944710 0.842692
Si Si2 0.909227 0.691618 0.940244
Si Si3 0.315578 0.992725 0.941531
Si Si4 0.186399 0.612159 0.560365
Si Si5 0.098127 0.075186 0.726658
Si Si6 0.239061 0.252367 0.131953
Si Si7 0.271557 0.108969 0.219135
O O1 0.232860 0.980588 0.901881
O O2 0.121835 0.941931 0.825231
O O3 0.265771 0.846032 0.837665
O O4 0.281546 0.009332 0.803726
O O5 0.884609 0.587729 0.933743
O O6 0.848517 0.755278 0.904361
O O7 0.010931 0.704185 0.922697
O O8 0.895731 0.721436 0.000000
O O9 0.366809 0.083253 0.928587
O O10 0.276169 0.993750 0.000000
O O11 0.210056 0.627659 0.500000
O O12 0.250269 0.674217 0.594737
O O13 0.194873 0.114850 0.737411
O O14 0.032244 0.099718 0.776093
O O15 0.242401 0.172280 0.172114
O O16 0.360618 0.139383 0.250000
#
# Coordination Sequence:
#
# PCOD8317447 Si02
#       7
#    16  16  16  16  16  16  16
#     4  10  20  36  57  82 117 150 193 246 300 353
#     4   9  19  34  54  84 121 155 196 246 296 360
#     4   9  17  32  57  87 117 153 198 247 302 365
#     4  10  19  34  57  84 117 160 203 242 296 363
#     4   9  19  35  57  82 109 152 204 247 282 356
#     4  11  21  35  57  87 113 151 194 244 300 361
#     4  11  21  38  58  82 110 150 198 254 304 346
#
# _framework density 19.324154
#
# number of rings (size 3 to 8) (size 9 to 14) (size 15 to 20)
#    0.000    2.143    2.857    0.857    0.000    3.429 
#    0.000    0.000    0.000    0.000    0.000   10.000 
#    0.000    0.000    0.000    0.000    0.000    0.000 
#
# Total GULP energy -1388112.005701 kJ/mol
# GULP energy per Si atom -12393.857194 kJ/mol
# Density = 1.928017 g / cm^3
# Si number density = 19.324154 Si / 1000 Ang^3
#
#
#
# Elastic Constant Matrix: (Units=GPa)
#
#
# Indices 1 2 3 4 5 6 
#
# 1 77.5543 30.8910 33.3757 0.0000 0.0000 0.0000
# 2 30.8910 77.5542 33.3749 0.0000 0.0000 0.0000
# 3 33.3757 33.3749 66.6094 0.0000 0.0000 0.0000
# 4 0.0000 0.0000 0.0000 28.5438 0.0000 0.0000
# 5 0.0000 0.0000 0.0000 0.0000 28.5436 0.0000
# 6 0.0000 0.0000 0.0000 0.0000 0.0000 23.9821
#
#
#
# Elastic Compliance Matrix: (Units=1/GPa)
#
#
# Indices 1 2 3 4 5 6 
#
# 1 0.017382 -0.004048 -0.006681 0.000000 0.000000 0.000000
# 2 -0.004048 0.017382 -0.006681 0.000000 0.000000 0.000000
# 3 -0.006681 -0.006681 0.021708 0.000000 0.000000 0.000000
# 4 0.000000 0.000000 0.000000 0.035034 0.000000 0.000000
# 5 0.000000 0.000000 0.000000 0.000000 0.035034 0.000000
# 6 0.000000 0.000000 0.000000 0.000000 0.000000 0.041698
#
#
# Mechanical properties :
#
#
# Convention : Reuss Voigt Hill
#
# Bulk Modulus (GPa) = 46.18639 46.33345 46.25992
# Shear Modulus (GPa) = 23.77845 24.48567 24.13206
#
# Velocity S-wave (km/s) = 3.51166 3.56350 3.53767
# Velocity P-wave (km/s) = 6.35571 6.40003 6.37791
#
# Compressibility (1/GPa) = 0.02165140
#
# Stress axis : x y z
#
# Youngs Moduli (GPa) = 57.53110 57.53182 46.06616
#
# Poissons Ratio (x) = 0.23291 0.30777
# Poissons Ratio (y) = 0.23290 0.30775
# Poissons Ratio (z) = 0.38437 0.38435
#
# Static dielectric constant tensor:
#      x y z
#    x 3.514050 0.000000 0.000000 
#    y 0.000000 3.514050 0.000000 
#    z 0.000000 0.000000 3.629080 
# 
# 
# High freq. dielectric constant tensor:
#      x y z
#    x 1.742630 0.000000 0.000000 
#    y 0.000000 1.742630 0.000000 
#    z 0.000000 0.000000 1.746920 
# 
# From -- ./inp_files/6531.got.cif
#   From: 2010.03.12/outbox.cif.g09.slc.cpg/sg135_4_cif.got.tgz:6531.got - 2010.04.06 18:31:24.
