data_PCOD8317708
_publ_section_title
;
Structure prediction by ZEFSAII (Michael W. Deem and Ramdas Pophale) SiO2 
 PCOD8317708
Probable space group: P 42/M N M
;
_chemical_formula_sum "Si O2"
_cell_formula_units_Z 64
_cell_length_a 13.069256
_cell_length_b 13.069256
_cell_length_c 19.377574
_cell_angle_alpha 90.000000
_cell_angle_beta 90.000000
_cell_angle_gamma 90.000000
_cell_volume 3309.795293
_symmetry_space_group_name_H-M "P 42/M N M"
_symmetry_group_IT_number 136
_symmetry_cell_setting 'tetragonal'
loop_
_space_group_symop_operation_xyz
x,y,z
1/2-y,1/2+x,1/2+z
-x,-y,z
1/2+y,1/2-x,1/2+z
1/2+x,1/2-y,1/2-z
1/2-x,1/2+y,1/2-z
y,x,-z
-y,-x,-z
-x,-y,-z
1/2+y,1/2-x,1/2-z
x,y,-z
1/2-y,1/2+x,1/2-z
1/2-x,1/2+y,1/2+z
1/2+x,1/2-y,1/2+z
-y,-x,z
y,x,z
loop_
_atom_site_type_symbol
_atom_site_label
_atom_site_fract_x
_atom_site_fract_y
_atom_site_fract_z
Si Si1 0.732953 0.438714 0.000000
Si Si2 0.372973 0.797676 0.766730
Si Si3 0.385707 0.961491 0.000000
Si Si4 0.003246 0.622267 0.850120
Si Si5 0.165502 0.994413 0.359623
O O1 0.839465 0.379645 0.000000
O O2 0.725299 0.510691 0.067438
O O3 0.646002 0.353999 0.000000
O O4 0.277258 0.722743 0.760580
O O5 0.405113 0.834652 0.690528
O O6 0.339852 0.891979 0.814820
O O7 0.472539 0.742156 0.799283
O O8 0.334307 0.001947 0.928827
O O9 0.500000 0.000000 0.000000
O O10 0.000000 0.500000 0.847265
O O11 0.116718 0.883283 0.342457
O O12 0.076514 0.076514 0.367271
#
# Coordination Sequence:
#
# PCOD8317708 Si02
#       5
#     8  16   8  16  16
#     4  10  17  30  54  82 111 149 195 233 280 344
#     4  11  21  35  60  87 113 153 199 241 291 346
#     4  10  22  35  58  79 112 154 189 227 285 349
#     4  11  21  41  59  82 116 153 191 237 287 347
#     4   9  18  31  49  81 121 150 181 235 293 339
#
# _framework density 19.336542999999999
#
# number of rings (size 3 to 8) (size 9 to 14) (size 15 to 20)
#    0.000    1.750    5.000    0.375    0.000    2.500 
#    0.000    0.625    0.000    0.000    0.000    0.000 
#    0.000    7.000    0.000    0.000    0.000    0.000 
#
# Total GULP energy -793400.201529 kJ/mol
# GULP energy per Si atom -12396.878149 kJ/mol
# Density = 1.929253 g / cm^3
# Si number density = 19.336543 Si / 1000 Ang^3
#
#
#
# Elastic Constant Matrix: (Units=GPa)
#
#
# Indices 1 2 3 4 5 6 
#
# 1 58.0606 16.3721 38.7385 0.0000 0.0000 0.0000
# 2 16.3721 58.0601 38.7385 0.0000 0.0000 0.0000
# 3 38.7385 38.7385 177.4758 0.0000 0.0000 0.0000
# 4 0.0000 0.0000 0.0000 18.0823 0.0000 0.0000
# 5 0.0000 0.0000 0.0000 0.0000 18.0822 0.0000
# 6 0.0000 0.0000 0.0000 0.0000 0.0000 31.1536
#
#
#
# Elastic Compliance Matrix: (Units=1/GPa)
#
#
# Indices 1 2 3 4 5 6 
#
# 1 0.020686 -0.003301 -0.003795 0.000000 0.000000 0.000000
# 2 -0.003301 0.020686 -0.003795 0.000000 0.000000 0.000000
# 3 -0.003795 -0.003795 0.007291 0.000000 0.000000 0.000000
# 4 0.000000 0.000000 0.000000 0.055303 0.000000 0.000000
# 5 0.000000 0.000000 0.000000 0.000000 0.055303 0.000000
# 6 0.000000 0.000000 0.000000 0.000000 0.000000 0.032099
#
#
# Mechanical properties :
#
#
# Convention : Reuss Voigt Hill
#
# Bulk Modulus (GPa) = 37.19935 53.47720 45.33827
# Shear Modulus (GPa) = 22.51132 26.78012 24.64572
#
# Velocity S-wave (km/s) = 3.41572 3.72553 3.57398
# Velocity P-wave (km/s) = 5.90218 6.79869 6.36624
#
# Compressibility (1/GPa) = 0.02688219
#
# Stress axis : x y z
#
# Youngs Moduli (GPa) = 48.34163 48.34110 137.15280
#
# Poissons Ratio (x) = 0.15959 0.52045
# Poissons Ratio (y) = 0.15959 0.52046
# Poissons Ratio (z) = 0.18344 0.18344
#
# Static dielectric constant tensor:
#      x y z
#    x 3.386580 0.000000 0.000000 
#    y 0.000000 3.386590 0.000000 
#    z 0.000000 0.000000 4.113670 
# 
# 
# High freq. dielectric constant tensor:
#      x y z
#    x 1.731340 0.000000 0.000000 
#    y 0.000000 1.731340 0.000000 
#    z 0.000000 0.000000 1.766440 
# 
# From -- ./inp_files/5948.got.cif
#   From: 2010.03.12/outbox.cif.g09.slc.cpg/sg136_3_cif.got.tgz:5948.got - 2010.04.06 18:39:43.
