data_PCOD8317464
_publ_section_title
;
Structure prediction by ZEFSAII (Michael W. Deem and Ramdas Pophale) SiO2 
 PCOD8317464
Probable space group: P 42/M B C
;
_chemical_formula_sum "Si O2"
_cell_formula_units_Z 96
_cell_length_a 28.792803
_cell_length_b 28.792803
_cell_length_c 9.170110
_cell_angle_alpha 90.000000
_cell_angle_beta 90.000000
_cell_angle_gamma 90.000000
_cell_volume 7602.255070
_symmetry_space_group_name_H-M "P 42/M B C"
_symmetry_group_IT_number 135
_symmetry_cell_setting 'tetragonal'
loop_
_space_group_symop_operation_xyz
x,y,z
-y,x,1/2+z
-x,-y,z
y,-x,1/2+z
1/2+x,1/2-y,-z
1/2-x,1/2+y,-z
1/2+y,1/2+x,1/2-z
1/2-y,1/2-x,1/2-z
-x,-y,-z
y,-x,1/2-z
x,y,-z
-y,x,1/2-z
1/2-x,1/2+y,z
1/2+x,1/2-y,z
1/2-y,1/2-x,1/2+z
1/2+y,1/2+x,1/2+z
loop_
_atom_site_type_symbol
_atom_site_label
_atom_site_fract_x
_atom_site_fract_y
_atom_site_fract_z
Si Si1 0.872199 0.955763 0.830204
Si Si2 0.186859 0.110784 0.672995
Si Si3 0.317531 0.753851 0.333261
Si Si4 0.762414 0.323118 0.661752
Si Si5 0.125624 0.186434 0.831699
Si Si6 0.048344 0.118535 0.835098
O O1 0.826244 0.939526 0.738964
O O2 0.915436 0.922211 0.797332
O O3 0.885890 0.006977 0.779248
O O4 0.859372 0.956010 0.000000
O O5 0.177257 0.112804 0.500000
O O6 0.240316 0.126704 0.706168
O O7 0.154288 0.146006 0.757143
O O8 0.299921 0.799921 0.250000
O O9 0.329419 0.766362 0.500000
O O10 0.278381 0.714509 0.322901
O O11 0.364091 0.734727 0.252960
O O12 0.808059 0.308059 0.750000
O O13 0.781507 0.325677 0.500000
O O14 0.072131 0.169698 0.820615
O O15 0.141089 0.191857 0.000000
O O16 0.029716 0.112066 0.000000
#
# Coordination Sequence:
#
# PCOD8317464 Si02
#       6
#    16  16  16  16  16  16
#     4  10  20  31  43  56  66  82 109 140 177 218
#     4   9  16  26  38  51  68  88 107 129 162 200
#     4   9  15  22  33  50  70  91 111 130 155 187
#     4   8  14  21  31  48  67  87 106 123 147 181
#     4   9  16  26  38  52  69  87 108 132 161 200
#     4   9  19  32  42  53  68  85 106 138 180 220
#
# _framework density 12.627832
#
# number of rings (size 3 to 8) (size 9 to 14) (size 15 to 20)
#    0.000    3.000    0.000    4.000    0.000    9.000 
#    0.000    1.667    0.000    0.000    0.000    0.000 
#    0.000    0.000    0.000    0.000    0.000    0.000 
#
# Total GULP energy -1189302.576349 kJ/mol
# GULP energy per Si atom -12388.568504 kJ/mol
# Density = 1.259909 g / cm^3
# Si number density = 12.627832 Si / 1000 Ang^3
#
#
#
# Elastic Constant Matrix: (Units=GPa)
#
#
# Indices 1 2 3 4 5 6 
#
# 1 38.9493 38.6571 36.4019 0.0000 0.0000 0.0000
# 2 38.6571 38.9493 36.4019 0.0000 0.0000 0.0000
# 3 36.4019 36.4019 93.2376 0.0000 0.0000 0.0000
# 4 0.0000 0.0000 0.0000 19.8202 0.0000 0.0000
# 5 0.0000 0.0000 0.0000 0.0000 19.8202 0.0000
# 6 0.0000 0.0000 0.0000 0.0000 0.0000 13.8619
#
#
#
# Elastic Compliance Matrix: (Units=1/GPa)
#
#
# Indices 1 2 3 4 5 6 
#
# 1 1.721502 -1.701169 -0.007938 0.000000 0.000000 0.000000
# 2 -1.701169 1.721502 -0.007938 0.000000 0.000000 0.000000
# 3 -0.007938 -0.007938 0.016924 0.000000 0.000000 0.000000
# 4 0.000000 0.000000 0.000000 0.050454 0.000000 0.000000
# 5 0.000000 0.000000 0.000000 0.000000 0.050454 0.000000
# 6 0.000000 0.000000 0.000000 0.000000 0.000000 0.072140
#
#
# Mechanical properties :
#
#
# Convention : Reuss Voigt Hill
#
# Bulk Modulus (GPa) = 38.70584 43.78423 41.24504
# Shear Modulus (GPa) = 0.70665 14.67880 7.69272
#
# Velocity S-wave (km/s) = 0.74887 3.41312 2.47085
# Velocity P-wave (km/s) = 5.60941 7.09088 6.39320
#
# Compressibility (1/GPa) = 0.02583589
#
# Stress axis : x y z
#
# Youngs Moduli (GPa) = 0.58089 0.58089 59.08839
#
# Poissons Ratio (x) = 0.98819 0.46906
# Poissons Ratio (y) = 0.98819 0.46906
# Poissons Ratio (z) = 0.00461 0.00461
#
# Static dielectric constant tensor:
#      x y z
#    x 2.569840 0.000000 0.000000 
#    y 0.000000 2.569840 0.000000 
#    z 0.000000 0.000000 2.744660 
# 
# 
# High freq. dielectric constant tensor:
#      x y z
#    x 1.441410 0.000000 0.000000 
#    y 0.000000 1.441410 0.000000 
#    z 0.000000 0.000000 1.499730 
# 
# From -- ./inp_files/1359.got.cif
#   From: 2010.03.12/outbox.cif.g09.slc.cpg/sg135_1_cif.got.tgz:1359.got - 2010.04.06 18:31:24.
