data_PCOD8317931
_publ_section_title
;
Structure prediction by ZEFSAII (Michael W. Deem and Ramdas Pophale) SiO2 
 PCOD8317931
Probable space group: P 42/M N M
;
_chemical_formula_sum "Si O2"
_cell_formula_units_Z 96
_cell_length_a 23.778367
_cell_length_b 23.778367
_cell_length_c 9.048318
_cell_angle_alpha 90.000000
_cell_angle_beta 90.000000
_cell_angle_gamma 90.000000
_cell_volume 5116.016151
_symmetry_space_group_name_H-M "P 42/M N M"
_symmetry_group_IT_number 136
_symmetry_cell_setting 'tetragonal'
loop_
_space_group_symop_operation_xyz
x,y,z
1/2-y,1/2+x,1/2+z
-x,-y,z
1/2+y,1/2-x,1/2+z
1/2+x,1/2-y,1/2-z
1/2-x,1/2+y,1/2-z
y,x,-z
-y,-x,-z
-x,-y,-z
1/2+y,1/2-x,1/2-z
x,y,-z
1/2-y,1/2+x,1/2-z
1/2-x,1/2+y,1/2+z
1/2+x,1/2-y,1/2+z
-y,-x,z
y,x,z
loop_
_atom_site_type_symbol
_atom_site_label
_atom_site_fract_x
_atom_site_fract_y
_atom_site_fract_z
Si Si1 0.742579 0.742579 0.677054
Si Si2 0.345106 0.345106 0.675689
Si Si3 0.924312 0.630464 0.674033
Si Si4 0.154478 0.066039 0.673303
Si Si5 0.708402 0.538784 0.324418
Si Si6 0.634694 0.239907 0.174402
Si Si7 0.339000 0.966802 0.174423
O O1 0.740929 0.740929 0.500000
O O2 0.698887 0.698887 0.743965
O O3 0.727537 0.803967 0.739933
O O4 0.344197 0.344197 0.500000
O O5 0.405788 0.324393 0.732628
O O6 0.935262 0.626617 0.500000
O O7 0.907011 0.692144 0.730654
O O8 0.874290 0.588414 0.720787
O O9 0.983466 0.622907 0.756528
O O10 0.159849 0.052334 0.500000
O O11 0.092596 0.092596 0.708858
O O12 0.199506 0.112675 0.723732
O O13 0.168446 0.010339 0.763658
O O14 0.709123 0.535819 0.500000
O O15 0.773780 0.536946 0.266955
O O16 0.639594 0.236977 0.000000
O O17 0.337750 0.974336 0.000000
#
# Coordination Sequence:
#
# PCOD8317931 Si02
#       7
#     8   8  16  16  16  16  16
#     4   9  14  24  48  80 106 126 163 224 271 307
#     4   9  18  32  52  78 107 140 177 215 264 323
#     4  10  20  34  52  73 101 140 180 218 265 319
#     4  10  19  33  55  83 108 135 176 218 259 313
#     4  10  20  36  56  80 110 141 173 217 270 322
#     4   9  15  26  47  75 102 128 163 211 265 313
#     4  10  21  35  52  77 106 137 179 225 267 315
#
# _framework density 18.764602
#
# number of rings (size 3 to 8) (size 9 to 14) (size 15 to 20)
#    0.000    2.333    2.500    1.000    0.000    5.333 
#    0.000    2.500    0.000    2.500    0.000    2.333 
#    0.000    0.000    0.000    0.000    0.000    0.000 
#
# Total GULP energy -1189500.693946 kJ/mol
# GULP energy per Si atom -12390.632229 kJ/mol
# Density = 1.872189 g / cm^3
# Si number density = 18.764602 Si / 1000 Ang^3
#
#
#
# Elastic Constant Matrix: (Units=GPa)
#
#
# Indices 1 2 3 4 5 6 
#
# 1 129.5552 44.7094 24.5292 0.0000 0.0000 0.0000
# 2 44.7094 129.5552 24.5292 0.0000 0.0000 0.0000
# 3 24.5292 24.5292 15.5538 0.0000 0.0000 0.0000
# 4 0.0000 0.0000 0.0000 23.9473 0.0000 0.0000
# 5 0.0000 0.0000 0.0000 0.0000 23.9473 0.0000
# 6 0.0000 0.0000 0.0000 0.0000 0.0000 32.6099
#
#
#
# Elastic Compliance Matrix: (Units=1/GPa)
#
#
# Indices 1 2 3 4 5 6 
#
# 1 0.011053 -0.000733 -0.016276 0.000000 0.000000 0.000000
# 2 -0.000733 0.011053 -0.016276 0.000000 0.000000 0.000000
# 3 -0.016276 -0.016276 0.115628 0.000000 0.000000 0.000000
# 4 0.000000 0.000000 0.000000 0.041758 0.000000 0.000000
# 5 0.000000 0.000000 0.000000 0.000000 0.041758 0.000000
# 6 0.000000 0.000000 0.000000 0.000000 0.000000 0.030666
#
#
# Mechanical properties :
#
#
# Convention : Reuss Voigt Hill
#
# Bulk Modulus (GPa) = 14.05158 51.35553 32.70356
# Shear Modulus (GPa) = 14.61102 28.16068 21.38585
#
# Velocity S-wave (km/s) = 2.79345 3.87813 3.37959
# Velocity P-wave (km/s) = 4.23192 6.89064 5.71796
#
# Compressibility (1/GPa) = 0.07116637
#
# Stress axis : x y z
#
# Youngs Moduli (GPa) = 90.47175 90.47175 8.64839
#
# Poissons Ratio (x) = 0.06631 0.14076
# Poissons Ratio (y) = 0.06631 0.14076
# Poissons Ratio (z) = 1.47249 1.47249
#
# Static dielectric constant tensor:
#      x y z
#    x 3.650320 0.000000 0.000000 
#    y 0.000000 3.650320 0.000000 
#    z 0.000000 0.000000 2.944210 
# 
# 
# High freq. dielectric constant tensor:
#      x y z
#    x 1.736160 0.000000 0.000000 
#    y 0.000000 1.736160 0.000000 
#    z 0.000000 0.000000 1.677680 
# 
# From -- ./inp_files/2086.got.cif
#   From: 2010.03.12/outbox.cif.g09.slc.cpg/sg136_2_cif.got.tgz:2086.got - 2010.04.06 18:39:43.
