data_PCOD8317341
_publ_section_title
;
Structure prediction by ZEFSAII (Michael W. Deem and Ramdas Pophale) SiO2 
 PCOD8317341
Probable space group: P 42/N N M
;
_chemical_formula_sum "Si O2"
_cell_formula_units_Z 48
_cell_length_a 20.266560
_cell_length_b 20.266560
_cell_length_c 5.165890
_cell_angle_alpha 90.000000
_cell_angle_beta 90.000000
_cell_angle_gamma 90.000000
_cell_volume 2121.803844
_symmetry_space_group_name_H-M "P 42/N N M"
_symmetry_group_IT_number 134
_space_group.IT_coordinate_system_code '2'
_symmetry_cell_setting 'tetragonal'
loop_
_space_group_symop_operation_xyz
x,y,z
1/2-y,x,1/2+z
1/2-x,1/2-y,z
y,1/2-x,1/2+z
x,1/2-y,1/2-z
1/2-x,y,1/2-z
y,x,-z
1/2-y,1/2-x,-z
-x,-y,-z
1/2+y,-x,1/2-z
1/2+x,1/2+y,-z
-y,1/2+x,1/2-z
-x,1/2+y,1/2+z
1/2+x,-y,1/2+z
-y,-x,z
1/2+y,1/2+x,z
loop_
_atom_site_type_symbol
_atom_site_label
_atom_site_fract_x
_atom_site_fract_y
_atom_site_fract_z
Si Si1 0.403170 0.497265 0.836459
Si Si2 0.404060 0.795947 0.498777
Si Si3 0.618728 0.675573 0.733958
O O1 0.447450 0.552551 0.684216
O O2 0.364399 0.447241 0.649263
O O3 0.452978 0.452978 0.000000
O O4 0.348733 0.535707 0.009355
O O5 0.410727 0.750000 0.250000
O O6 0.334363 0.834363 0.494833
O O7 0.407852 0.750000 0.750000
O O8 0.596176 0.750000 0.750000
O O9 0.670540 0.670540 0.500000
O O10 0.649888 0.649888 0.000000
#
# Coordination Sequence:
#
# PCOD8317341 Si02
#       3
#    16  16  16
#     4   9  21  41  64  92 125 162 208 260 314 373
#     4  11  24  42  66  95 129 170 215 267 325 388
#     4  11  24  41  64  92 123 162 204 251 306 365
#
# _framework density 22.622263
#
# number of rings (size 3 to 8) (size 9 to 14) (size 15 to 20)
#    0.000    1.667    0.000    3.000    0.000   15.333 
#    0.000   10.000    0.000    0.000    0.000    0.000 
#    0.000    0.000    0.000    0.000    0.000    0.000 
#
# Total GULP energy -594699.062936 kJ/mol
# GULP energy per Si atom -12389.563811 kJ/mol
# Density = 2.257077 g / cm^3
# Si number density = 22.622263 Si / 1000 Ang^3
#
#
#
# Elastic Constant Matrix: (Units=GPa)
#
#
# Indices 1 2 3 4 5 6 
#
# 1 166.5059 71.5452 47.9052 0.0000 0.0000 0.0000
# 2 71.5452 166.5059 47.9052 0.0000 0.0000 0.0000
# 3 47.9052 47.9052 131.3693 0.0000 0.0000 0.0000
# 4 0.0000 0.0000 0.0000 2.6013 0.0000 0.0000
# 5 0.0000 0.0000 0.0000 0.0000 2.6013 0.0000
# 6 0.0000 0.0000 0.0000 0.0000 0.0000 33.2347
#
#
#
# Elastic Compliance Matrix: (Units=1/GPa)
#
#
# Indices 1 2 3 4 5 6 
#
# 1 0.007727 -0.002804 -0.001795 0.000000 0.000000 0.000000
# 2 -0.002804 0.007727 -0.001795 0.000000 0.000000 0.000000
# 3 -0.001795 -0.001795 0.008922 0.000000 0.000000 0.000000
# 4 0.000000 0.000000 0.000000 0.384418 0.000000 0.000000
# 5 0.000000 0.000000 0.000000 0.000000 0.384418 0.000000
# 6 0.000000 0.000000 0.000000 0.000000 0.000000 0.030089
#
#
# Mechanical properties :
#
#
# Convention : Reuss Voigt Hill
#
# Bulk Modulus (GPa) = 86.30491 88.78804 87.54647
# Shear Modulus (GPa) = 5.95273 27.48919 16.72096
#
# Velocity S-wave (km/s) = 1.62391 3.48967 2.72166
# Velocity P-wave (km/s) = 6.46137 7.45455 6.97566
#
# Compressibility (1/GPa) = 0.01158683
#
# Stress axis : x y z
#
# Youngs Moduli (GPa) = 129.41602 129.41602 112.08851
#
# Poissons Ratio (x) = 0.36284 0.20124
# Poissons Ratio (y) = 0.36284 0.20124
# Poissons Ratio (z) = 0.23235 0.23235
#
# Static dielectric constant tensor:
#      x y z
#    x 4.676510 0.000000 0.000000 
#    y 0.000000 4.676510 0.000000 
#    z 0.000000 0.000000 0.281580 
# 
# 
# High freq. dielectric constant tensor:
#      x y z
#    x 1.919950 0.000000 0.000000 
#    y 0.000000 1.919950 0.000000 
#    z 0.000000 0.000000 1.854060 
# 
# From -- ./inp_files/604.got.cif
#   From: 2010.03.12/outbox.cif.g09.slc.cpg/sg134_1_cif.got.tgz:604.got - 2010.04.06 18:17:22.
