data_PCOD8317249
_publ_section_title
;
Structure prediction by ZEFSAII (Michael W. Deem and Ramdas Pophale) SiO2 
 PCOD8317249
Probable space group: P 42/N N M
;
_chemical_formula_sum "Si O2"
_cell_formula_units_Z 88
_cell_length_a 12.299919
_cell_length_b 12.299919
_cell_length_c 29.290152
_cell_angle_alpha 90.000000
_cell_angle_beta 90.000000
_cell_angle_gamma 90.000000
_cell_volume 4431.248733
_symmetry_space_group_name_H-M "P 42/N N M"
_symmetry_group_IT_number 134
_space_group.IT_coordinate_system_code '2'
_symmetry_cell_setting 'tetragonal'
loop_
_space_group_symop_operation_xyz
x,y,z
1/2-y,x,1/2+z
1/2-x,1/2-y,z
y,1/2-x,1/2+z
x,1/2-y,1/2-z
1/2-x,y,1/2-z
y,x,-z
1/2-y,1/2-x,-z
-x,-y,-z
1/2+y,-x,1/2-z
1/2+x,1/2+y,-z
-y,1/2+x,1/2-z
-x,1/2+y,1/2+z
1/2+x,-y,1/2+z
-y,-x,z
1/2+y,1/2+x,z
loop_
_atom_site_type_symbol
_atom_site_label
_atom_site_fract_x
_atom_site_fract_y
_atom_site_fract_z
Si Si1 0.543803 0.623381 0.395481
Si Si2 0.983693 0.306661 0.545217
Si Si3 0.620581 0.948560 0.392691
Si Si4 0.750000 0.064017 0.750000
Si Si5 0.765545 0.632332 0.678891
Si Si6 0.517691 0.193628 0.049130
O O1 0.470125 0.529876 0.372815
O O2 0.465119 0.716718 0.415489
O O3 0.624830 0.666703 0.356993
O O4 0.608839 0.577754 0.439238
O O5 0.873115 0.373115 0.539747
O O6 0.013438 0.253622 0.497231
O O7 0.084020 0.380553 0.562362
O O8 0.644727 0.876982 0.348508
O O9 0.524892 0.024892 0.375722
O O10 0.722656 0.021278 0.408403
O O11 0.642612 0.142612 0.754776
O O12 0.735628 0.979237 0.708168
O O13 0.750000 0.750000 0.705001
O O14 0.634231 0.134231 0.044990
#
# Coordination Sequence:
#
# PCOD8317249 Si02
#       6
#    16  16  16   8  16  16
#     4  10  21  36  55  82 117 155 198 244 294 346
#     4  10  21  34  52  77 111 157 208 258 305 345
#     4  10  21  37  56  82 116 155 200 248 296 346
#     4  11  25  44  70 102 127 149 184 238 302 363
#     4  11  21  41  65  91 120 156 191 232 286 366
#     4  11  21  34  52  77 112 156 205 254 294 340
#
# _framework density 19.858962999999999
#
# number of rings (size 3 to 8) (size 9 to 14) (size 15 to 20)
#    0.000    1.545    1.818    3.545    0.000    6.182 
#    0.000    1.818    0.000    0.000    0.000    0.000 
#    0.000    2.909    0.000    0.000    0.000    0.000 
#
# Total GULP energy -1090361.661890 kJ/mol
# GULP energy per Si atom -12390.473431 kJ/mol
# Density = 1.981376 g / cm^3
# Si number density = 19.858963 Si / 1000 Ang^3
#
#
#
# Elastic Constant Matrix: (Units=GPa)
#
#
# Indices 1 2 3 4 5 6 
#
# 1 101.5555 46.7435 32.6396 0.0000 0.0000 0.0000
# 2 46.7435 101.5555 32.6396 0.0000 0.0000 0.0000
# 3 32.6396 32.6396 72.5170 0.0000 0.0000 0.0000
# 4 0.0000 0.0000 0.0000 18.9130 0.0000 0.0000
# 5 0.0000 0.0000 0.0000 0.0000 18.9130 0.0000
# 6 0.0000 0.0000 0.0000 0.0000 0.0000 14.7210
#
#
#
# Elastic Compliance Matrix: (Units=1/GPa)
#
#
# Indices 1 2 3 4 5 6 
#
# 1 0.013327 -0.004917 -0.003785 0.000000 0.000000 0.000000
# 2 -0.004917 0.013327 -0.003785 0.000000 0.000000 0.000000
# 3 -0.003785 -0.003785 0.017197 0.000000 0.000000 0.000000
# 4 0.000000 0.000000 0.000000 0.052874 0.000000 0.000000
# 5 0.000000 0.000000 0.000000 0.000000 0.052874 0.000000
# 6 0.000000 0.000000 0.000000 0.000000 0.000000 0.067930
#
#
# Mechanical properties :
#
#
# Convention : Reuss Voigt Hill
#
# Bulk Modulus (GPa) = 52.97821 55.51923 54.24872
# Shear Modulus (GPa) = 20.09688 21.41641 20.75665
#
# Velocity S-wave (km/s) = 3.18462 3.28750 3.23647
# Velocity P-wave (km/s) = 6.34488 6.51365 6.42982
#
# Compressibility (1/GPa) = 0.01887568
#
# Stress axis : x y z
#
# Youngs Moduli (GPa) = 75.03734 75.03734 58.14954
#
# Poissons Ratio (x) = 0.36899 0.22009
# Poissons Ratio (y) = 0.36899 0.22009
# Poissons Ratio (z) = 0.28401 0.28401
#
# Static dielectric constant tensor:
#      x y z
#    x 3.741280 0.000000 0.000000 
#    y 0.000000 3.741280 0.000000 
#    z 0.000000 0.000000 3.368900 
# 
# 
# High freq. dielectric constant tensor:
#      x y z
#    x 1.781590 0.000000 0.000000 
#    y 0.000000 1.781590 0.000000 
#    z 0.000000 0.000000 1.749670 
# 
# From -- ./inp_files/11480.got.cif
#   From: 2010.03.12/outbox.cif.g09.slc.cpg/sg134_6_cif.got.tgz:11480.got - 2010.04.06 18:17:22.
