data_PCOD8317865
_publ_section_title
;
Structure prediction by ZEFSAII (Michael W. Deem and Ramdas Pophale) SiO2 
 PCOD8317865
Probable space group: P 42/M N M
;
_chemical_formula_sum "Si O2"
_cell_formula_units_Z 88
_cell_length_a 15.976479
_cell_length_b 15.976479
_cell_length_c 20.674215
_cell_angle_alpha 90.000000
_cell_angle_beta 90.000000
_cell_angle_gamma 90.000000
_cell_volume 5277.049575
_symmetry_space_group_name_H-M "P 42/M N M"
_symmetry_group_IT_number 136
_symmetry_cell_setting 'tetragonal'
loop_
_space_group_symop_operation_xyz
x,y,z
1/2-y,1/2+x,1/2+z
-x,-y,z
1/2+y,1/2-x,1/2+z
1/2+x,1/2-y,1/2-z
1/2-x,1/2+y,1/2-z
y,x,-z
-y,-x,-z
-x,-y,-z
1/2+y,1/2-x,1/2-z
x,y,-z
1/2-y,1/2+x,1/2-z
1/2-x,1/2+y,1/2+z
1/2+x,1/2-y,1/2+z
-y,-x,z
y,x,z
loop_
_atom_site_type_symbol
_atom_site_label
_atom_site_fract_x
_atom_site_fract_y
_atom_site_fract_z
Si Si1 0.158365 0.293028 0.210062
Si Si2 0.708223 0.153656 0.925274
Si Si3 0.070009 0.070009 0.926123
Si Si4 0.500980 0.272214 0.348911
Si Si5 0.733852 0.399922 0.152472
Si Si6 0.291980 0.429216 0.790022
O O1 0.220119 0.220119 0.186056
O O2 0.077197 0.291943 0.164187
O O3 0.132389 0.278941 0.283480
O O4 0.203247 0.382314 0.206671
O O5 0.787409 0.212592 0.909239
O O6 0.622917 0.201792 0.905272
O O7 0.719236 0.068625 0.885908
O O8 0.702873 0.130599 0.000000
O O9 0.151145 0.033637 0.891189
O O10 0.093203 0.093203 0.000000
O O11 0.000000 0.000000 0.924599
O O12 0.466559 0.308385 0.281166
O O13 0.645583 0.354418 0.141271
O O14 0.713609 0.498237 0.156098
O O15 0.368172 0.368172 0.808126
#
# Coordination Sequence:
#
# PCOD8317865 Si02
#       6
#    16  16   8  16  16  16
#     4   9  17  32  49  71 101 136 169 210 254 304
#     4  10  19  33  54  76 104 140 172 205 250 311
#     4  11  22  32  46  78 118 146 172 206 249 314
#     4  11  19  32  51  75 106 141 175 210 254 311
#     4   9  18  32  49  75 103 128 167 211 260 306
#     4  10  19  31  53  76 101 132 169 218 266 306
#
# _framework density 16.675985000000001
#
# number of rings (size 3 to 8) (size 9 to 14) (size 15 to 20)
#    0.000    2.091    2.727    2.182    1.273    1.818 
#    0.000    0.909    0.000    3.818    0.000    2.545 
#    0.000    0.000    0.000    0.000    0.000    0.000 
#
# Total GULP energy -1091193.706084 kJ/mol
# GULP energy per Si atom -12399.928478 kJ/mol
# Density = 1.663803 g / cm^3
# Si number density = 16.675985 Si / 1000 Ang^3
#
#
#
# Elastic Constant Matrix: (Units=GPa)
#
#
# Indices 1 2 3 4 5 6 
#
# 1 91.9040 36.7653 22.9432 0.0000 0.0000 0.0000
# 2 36.7653 91.9040 22.9432 0.0000 0.0000 0.0000
# 3 22.9432 22.9432 53.2808 0.0000 0.0000 0.0000
# 4 0.0000 0.0000 0.0000 25.0277 0.0000 0.0000
# 5 0.0000 0.0000 0.0000 0.0000 25.0277 0.0000
# 6 0.0000 0.0000 0.0000 0.0000 0.0000 19.6772
#
#
#
# Elastic Compliance Matrix: (Units=1/GPa)
#
#
# Indices 1 2 3 4 5 6 
#
# 1 0.013659 -0.004477 -0.003954 0.000000 0.000000 0.000000
# 2 -0.004477 0.013659 -0.003954 0.000000 0.000000 0.000000
# 3 -0.003954 -0.003954 0.022174 0.000000 0.000000 0.000000
# 4 0.000000 0.000000 0.000000 0.039956 0.000000 0.000000
# 5 0.000000 0.000000 0.000000 0.000000 0.039956 0.000000
# 6 0.000000 0.000000 0.000000 0.000000 0.000000 0.050820
#
#
# Mechanical properties :
#
#
# Convention : Reuss Voigt Hill
#
# Bulk Modulus (GPa) = 40.44961 44.71025 42.57993
# Shear Modulus (GPa) = 23.44848 24.24232 23.84540
#
# Velocity S-wave (km/s) = 3.75390 3.81691 3.78554
# Velocity P-wave (km/s) = 6.56490 6.80400 6.68552
#
# Compressibility (1/GPa) = 0.02472212
#
# Stress axis : x y z
#
# Youngs Moduli (GPa) = 73.21184 73.21184 45.09878
#
# Poissons Ratio (x) = 0.32778 0.17831
# Poissons Ratio (y) = 0.32778 0.17831
# Poissons Ratio (z) = 0.28946 0.28946
#
# Static dielectric constant tensor:
#      x y z
#    x 3.113760 0.000000 0.000000 
#    y 0.000000 3.113760 0.000000 
#    z 0.000000 0.000000 3.082260 
# 
# 
# High freq. dielectric constant tensor:
#      x y z
#    x 1.638670 0.000000 0.000000 
#    y 0.000000 1.638670 0.000000 
#    z 0.000000 0.000000 1.624280 
# 
# From -- ./inp_files/7363.got.cif
#   From: 2010.03.12/outbox.cif.g09.slc.cpg/sg136_4_cif.got.tgz:7363.got - 2010.04.06 18:39:43.
