data_PCOD8317816
_publ_section_title
;
Structure prediction by ZEFSAII (Michael W. Deem and Ramdas Pophale) SiO2 
 PCOD8317816
Probable space group: P 42/M N M
;
_chemical_formula_sum "Si O2"
_cell_formula_units_Z 80
_cell_length_a 25.154002
_cell_length_b 25.154002
_cell_length_c 9.172558
_cell_angle_alpha 90.000000
_cell_angle_beta 90.000000
_cell_angle_gamma 90.000000
_cell_volume 5803.695906
_symmetry_space_group_name_H-M "P 42/M N M"
_symmetry_group_IT_number 136
_symmetry_cell_setting 'tetragonal'
loop_
_space_group_symop_operation_xyz
x,y,z
1/2-y,1/2+x,1/2+z
-x,-y,z
1/2+y,1/2-x,1/2+z
1/2+x,1/2-y,1/2-z
1/2-x,1/2+y,1/2-z
y,x,-z
-y,-x,-z
-x,-y,-z
1/2+y,1/2-x,1/2-z
x,y,-z
1/2-y,1/2+x,1/2-z
1/2-x,1/2+y,1/2+z
1/2+x,1/2-y,1/2+z
-y,-x,z
y,x,z
loop_
_atom_site_type_symbol
_atom_site_label
_atom_site_fract_x
_atom_site_fract_y
_atom_site_fract_z
Si Si1 0.942618 0.637882 0.170220
Si Si2 0.780794 0.636232 0.164126
Si Si3 0.202298 0.202298 0.662014
Si Si4 0.272534 0.132013 0.160603
Si Si5 0.207861 0.792140 0.165601
Si Si6 0.360667 0.933439 0.828932
O O1 0.920903 0.696618 0.215263
O O2 0.913803 0.593021 0.265356
O O3 0.004432 0.634947 0.203354
O O4 0.929276 0.627699 0.000000
O O5 0.821274 0.684676 0.157117
O O6 0.728470 0.655256 0.251157
O O7 0.807670 0.587515 0.249954
O O8 0.765181 0.618431 0.000000
O O9 0.186409 0.186409 0.500000
O O10 0.148254 0.223603 0.736567
O O11 0.247145 0.247145 0.666351
O O12 0.248519 0.123023 0.000000
O O13 0.192800 0.807201 0.000000
O O14 0.356435 0.920739 0.000000
#
# Coordination Sequence:
#
# PCOD8317816 Si02
#       6
#    16  16   8  16   8  16
#     4   9  19  32  42  54  72  95 126 163 200 236
#     4   9  16  26  39  55  75  96 118 147 186 229
#     4   9  15  21  33  55  75  87 107 140 175 214
#     4   8  14  25  38  50  68  93 116 140 177 224
#     4   9  15  23  37  57  77  95 117 144 177 220
#     4  10  19  30  43  56  71  94 127 166 201 232
#
# _framework density 13.784319999999999
#
# number of rings (size 3 to 8) (size 9 to 14) (size 15 to 20)
#    0.000    3.000    0.000    3.000    0.000    9.200 
#    0.000    2.000    0.000    0.000    0.000    0.000 
#    0.000    0.000    0.000    0.000    0.000    1.000 
#
# Total GULP energy -991625.213885 kJ/mol
# GULP energy per Si atom -12395.315174 kJ/mol
# Density = 1.375295 g / cm^3
# Si number density = 13.784320 Si / 1000 Ang^3
#
#
#
# Elastic Constant Matrix: (Units=GPa)
#
#
# Indices 1 2 3 4 5 6 
#
# 1 55.0738 55.5409 51.8109 0.0000 0.0000 0.0000
# 2 55.5409 55.0738 51.8109 0.0000 0.0000 0.0000
# 3 51.8109 51.8109 113.8153 0.0000 0.0000 0.0000
# 4 0.0000 0.0000 0.0000 18.5765 0.0000 0.0000
# 5 0.0000 0.0000 0.0000 0.0000 18.5765 0.0000
# 6 0.0000 0.0000 0.0000 0.0000 0.0000 13.7239
#
#
#
# Elastic Compliance Matrix: (Units=1/GPa)
#
#
# Indices 1 2 3 4 5 6 
#
# 1 -1.062636 1.078398 -0.007176 0.000000 0.000000 0.000000
# 2 1.078398 -1.062637 -0.007174 0.000000 0.000000 0.000000
# 3 -0.007176 -0.007174 0.015319 0.000000 0.000000 0.000000
# 4 0.000000 0.000000 0.000000 0.053832 0.000000 0.000000
# 5 0.000000 0.000000 0.000000 0.000000 0.053832 0.000000
# 6 0.000000 0.000000 0.000000 0.000000 0.000000 0.072865
#
#
# Mechanical properties :
#
#
# Convention : Reuss Voigt Hill
#
# Bulk Modulus (GPa) = 55.12069 60.25425 57.68747
# Shear Modulus (GPa) = -1.23412 14.49539 6.63063
#
# Velocity S-wave (km/s) = -0.94723 3.24633 2.19561
# Velocity P-wave (km/s) = 6.23526 7.60649 6.95475
#
# Compressibility (1/GPa) = 0.01814201
#
# Stress axis : x y z
#
# Youngs Moduli (GPa) = -0.94106 -0.94105 65.27981
#
# Poissons Ratio (x) = 1.01483 0.46844
# Poissons Ratio (y) = 1.01483 0.46834
# Poissons Ratio (z) = -0.00675 -0.00675
#
# Static dielectric constant tensor:
#      x y z
#    x 2.583950 0.000000 0.000000 
#    y 0.000000 2.583950 0.000000 
#    z 0.000000 0.000000 2.953130 
# 
# 
# High freq. dielectric constant tensor:
#      x y z
#    x 1.489870 0.000000 0.000000 
#    y 0.000000 1.489870 0.000000 
#    z 0.000000 0.000000 1.543200 
# 
# From -- ./inp_files/1829.got.cif
#   From: 2010.03.12/outbox.cif.g09.slc.cpg/sg136_1_cif.got.tgz:1829.got - 2010.04.06 18:39:43.
