data_PCOD8317208
_publ_section_title
;
Structure prediction by ZEFSAII (Michael W. Deem and Ramdas Pophale) SiO2 
 PCOD8317208
Probable space group: P 42/N N M
;
_chemical_formula_sum "Si O2"
_cell_formula_units_Z 112
_cell_length_a 13.263476
_cell_length_b 13.263476
_cell_length_c 33.542557
_cell_angle_alpha 90.000000
_cell_angle_beta 90.000000
_cell_angle_gamma 90.000000
_cell_volume 5900.799771
_symmetry_space_group_name_H-M "P 42/N N M"
_symmetry_group_IT_number 134
_space_group.IT_coordinate_system_code '2'
_symmetry_cell_setting 'tetragonal'
loop_
_space_group_symop_operation_xyz
x,y,z
1/2-y,x,1/2+z
1/2-x,1/2-y,z
y,1/2-x,1/2+z
x,1/2-y,1/2-z
1/2-x,y,1/2-z
y,x,-z
1/2-y,1/2-x,-z
-x,-y,-z
1/2+y,-x,1/2-z
1/2+x,1/2+y,-z
-y,1/2+x,1/2-z
-x,1/2+y,1/2+z
1/2+x,-y,1/2+z
-y,-x,z
1/2+y,1/2+x,z
loop_
_atom_site_type_symbol
_atom_site_label
_atom_site_fract_x
_atom_site_fract_y
_atom_site_fract_z
Si Si1 0.084729 0.745663 0.487977
Si Si2 0.321566 0.986971 0.933639
Si Si3 0.149563 0.136820 0.265203
Si Si4 0.586207 0.252358 0.353504
Si Si5 0.890368 0.546579 0.308372
Si Si6 0.351431 0.482191 0.418394
Si Si7 0.238101 0.136586 0.346699
O O1 0.167503 0.832498 0.490327
O O2 0.136520 0.636520 0.483382
O O3 0.017251 0.746999 0.528293
O O4 0.014310 0.766527 0.450004
O O5 0.385302 0.885302 0.933400
O O6 0.261977 0.987777 0.891818
O O7 0.391915 0.084580 0.937830
O O8 0.159488 0.250000 0.250000
O O9 0.250000 0.078454 0.250000
O O10 0.054465 0.094395 0.240017
O O11 0.147738 0.132541 0.313350
O O12 0.641395 0.358606 0.341974
O O13 0.670977 0.170977 0.364340
O O14 0.514150 0.214046 0.317626
O O15 0.895087 0.655662 0.328202
O O16 0.982867 0.482867 0.326146
O O17 0.424843 0.575158 0.406645
O O18 0.292317 0.443484 0.379893
O O19 0.250000 0.250000 0.363883
#
# Coordination Sequence:
#
# PCOD8317208 Si02
#       7
#    16  16  16  16  16  16  16
#     4   9  17  31  51  75 106 142 175 213 269 325
#     4   9  16  28  49  77 105 135 177 220 260 310
#     4   9  16  33  54  70  94 132 174 212 254 309
#     4   9  17  30  50  79 113 142 171 211 259 311
#     4  10  20  33  53  81 107 139 181 219 261 322
#     4  10  21  33  51  82 108 130 172 230 271 308
#     4  11  20  36  59  74 104 143 176 214 269 326
#
# _framework density 18.980477
#
# number of rings (size 3 to 8) (size 9 to 14) (size 15 to 20)
#    0.000    2.429    2.857    1.714    0.000    4.571 
#    0.000    0.714    0.000    6.000    0.000    6.000 
#    0.000    0.000    0.000    0.000    0.000    0.000 
#
# Total GULP energy -1387569.819776 kJ/mol
# GULP energy per Si atom -12389.016248 kJ/mol
# Density = 1.893728 g / cm^3
# Si number density = 18.980477 Si / 1000 Ang^3
#
#
#
# Elastic Constant Matrix: (Units=GPa)
#
#
# Indices 1 2 3 4 5 6 
#
# 1 75.2560 39.1995 50.1008 0.0000 0.0000 0.0000
# 2 39.1995 75.2560 50.1008 0.0000 0.0000 0.0000
# 3 50.1008 50.1008 129.5843 0.0000 0.0000 0.0000
# 4 0.0000 0.0000 0.0000 27.2640 0.0000 0.0000
# 5 0.0000 0.0000 0.0000 0.0000 27.2640 0.0000
# 6 0.0000 0.0000 0.0000 0.0000 0.0000 22.1462
#
#
#
# Elastic Compliance Matrix: (Units=1/GPa)
#
#
# Indices 1 2 3 4 5 6 
#
# 1 0.020471 -0.007263 -0.005106 0.000000 0.000000 0.000000
# 2 -0.007263 0.020471 -0.005106 0.000000 0.000000 0.000000
# 3 -0.005106 -0.005106 0.011665 0.000000 0.000000 0.000000
# 4 0.000000 0.000000 0.000000 0.036678 0.000000 0.000000
# 5 0.000000 0.000000 0.000000 0.000000 0.036678 0.000000
# 6 0.000000 0.000000 0.000000 0.000000 0.000000 0.045155
#
#
# Mechanical properties :
#
#
# Convention : Reuss Voigt Hill
#
# Bulk Modulus (GPa) = 56.64131 62.09984 59.37057
# Shear Modulus (GPa) = 23.58984 24.71453 24.15218
#
# Velocity S-wave (km/s) = 3.52923 3.61238 3.57105
# Velocity P-wave (km/s) = 6.82011 7.08434 6.95348
#
# Compressibility (1/GPa) = 0.01765496
#
# Stress axis : x y z
#
# Youngs Moduli (GPa) = 48.84998 48.84998 85.72296
#
# Poissons Ratio (x) = 0.35482 0.43773
# Poissons Ratio (y) = 0.35482 0.43773
# Poissons Ratio (z) = 0.24945 0.24945
#
# Static dielectric constant tensor:
#      x y z
#    x 3.413620 0.000000 0.000000 
#    y 0.000000 3.413620 0.000000 
#    z 0.000000 0.000000 3.821970 
# 
# 
# High freq. dielectric constant tensor:
#      x y z
#    x 1.717690 0.000000 0.000000 
#    y 0.000000 1.717690 0.000000 
#    z 0.000000 0.000000 1.737320 
# 
# From -- ./inp_files/11637.got.cif
#   From: 2010.03.12/outbox.cif.g09.slc.cpg/sg134_6_cif.got.tgz:11637.got - 2010.04.06 18:17:22.
