data_PCOD8317018
_publ_section_title
;
Structure prediction by ZEFSAII (Michael W. Deem and Ramdas Pophale) SiO2 
 PCOD8317018
Probable space group: P 42/N B C
;
_chemical_formula_sum "Si O2"
_cell_formula_units_Z 88
_cell_length_a 14.671405
_cell_length_b 14.671405
_cell_length_c 17.701612
_cell_angle_alpha 90.000000
_cell_angle_beta 90.000000
_cell_angle_gamma 90.000000
_cell_volume 3810.274190
_symmetry_space_group_name_H-M "P 42/N B C"
_symmetry_group_IT_number 133
_space_group.IT_coordinate_system_code '2'
_symmetry_cell_setting 'tetragonal'
loop_
_space_group_symop_operation_xyz
x,y,z
1/2-y,x,1/2+z
1/2-x,1/2-y,z
y,1/2-x,1/2+z
x,1/2-y,-z
1/2-x,y,-z
y,x,1/2-z
1/2-y,1/2-x,1/2-z
-x,-y,-z
1/2+y,-x,1/2-z
1/2+x,1/2+y,-z
-y,1/2+x,1/2-z
-x,1/2+y,z
1/2+x,-y,z
-y,-x,1/2+z
1/2+y,1/2+x,1/2+z
loop_
_atom_site_type_symbol
_atom_site_label
_atom_site_fract_x
_atom_site_fract_y
_atom_site_fract_z
Si Si1 0.314705 0.072059 0.567771
Si Si2 0.750000 0.750000 0.846380
Si Si3 0.127352 0.727072 0.708478
Si Si4 0.974453 0.853583 0.478848
Si Si5 0.173451 0.875376 0.438172
Si Si6 0.666845 0.929402 0.809937
O O1 0.250000 0.047801 0.500000
O O2 0.266932 0.156890 0.608127
O O3 0.417710 0.090277 0.540625
O O4 0.315324 0.972107 0.608128
O O5 0.735725 0.843260 0.799628
O O6 0.159531 0.829498 0.728132
O O7 0.164497 0.703146 0.624816
O O8 0.018775 0.723275 0.712166
O O9 0.955949 0.750000 0.500000
O O10 0.079728 0.880116 0.486406
O O11 0.936758 0.872696 0.394318
O O12 0.250000 0.850769 0.500000
O O13 0.584438 0.915562 0.750000
#
# Coordination Sequence:
#
# PCOD8317018 Si02
#       6
#    16   8  16  16  16  16
#     4  11  20  39  70 102 140 177 216 291 366 423
#     4  12  22  42  72 102 142 176 228 286 366 430
#     4  10  25  51  71  93 143 199 240 294 363 420
#     4  11  21  41  66  99 140 183 234 288 364 423
#     4  10  25  42  70 106 133 181 248 298 353 420
#     4  11  25  43  67 106 137 185 242 289 357 442
#
# _framework density 23.09545
#
# number of rings (size 3 to 8) (size 9 to 14) (size 15 to 20)
#    0.000    1.273    3.636    1.091    2.545    6.182 
#    6.545    0.000    0.000    0.000    0.000    0.000 
#    0.000    0.000    0.000    0.000    0.000    0.000 
#
# Total GULP energy -1090387.116422 kJ/mol
# GULP energy per Si atom -12390.762687 kJ/mol
# Density = 2.304288 g / cm^3
# Si number density = 23.095450 Si / 1000 Ang^3
#
#
#
# Elastic Constant Matrix: (Units=GPa)
#
#
# Indices 1 2 3 4 5 6 
#
# 1 142.5298 19.6296 39.7477 0.0000 0.0000 0.0000
# 2 19.6296 142.5298 39.7477 0.0000 0.0000 0.0000
# 3 39.7477 39.7477 82.9021 0.0000 0.0000 0.0000
# 4 0.0000 0.0000 0.0000 30.9829 0.0000 0.0000
# 5 0.0000 0.0000 0.0000 0.0000 30.9829 0.0000
# 6 0.0000 0.0000 0.0000 0.0000 0.0000 28.8289
#
#
#
# Elastic Compliance Matrix: (Units=1/GPa)
#
#
# Indices 1 2 3 4 5 6 
#
# 1 0.008099 -0.000038 -0.003865 0.000000 0.000000 0.000000
# 2 -0.000038 0.008099 -0.003865 0.000000 0.000000 0.000000
# 3 -0.003865 -0.003865 0.015769 0.000000 0.000000 0.000000
# 4 0.000000 0.000000 0.000000 0.032276 0.000000 0.000000
# 5 0.000000 0.000000 0.000000 0.000000 0.032276 0.000000
# 6 0.000000 0.000000 0.000000 0.000000 0.000000 0.034687
#
#
# Mechanical properties :
#
#
# Convention : Reuss Voigt Hill
#
# Bulk Modulus (GPa) = 60.85947 62.91240 61.88593
# Shear Modulus (GPa) = 32.84742 36.08138 34.46440
#
# Velocity S-wave (km/s) = 3.77536 3.95685 3.86717
# Velocity P-wave (km/s) = 6.73891 6.94081 6.84061
#
# Compressibility (1/GPa) = 0.01643130
#
# Stress axis : x y z
#
# Youngs Moduli (GPa) = 123.46999 123.46999 63.41666
#
# Poissons Ratio (x) = 0.00464 0.24511
# Poissons Ratio (y) = 0.00464 0.24511
# Poissons Ratio (z) = 0.47723 0.47723
#
# Static dielectric constant tensor:
#      x y z
#    x 4.625330 0.000000 0.000000 
#    y 0.000000 4.625330 0.000000 
#    z 0.000000 0.000000 4.337780 
# 
# 
# High freq. dielectric constant tensor:
#      x y z
#    x 1.921110 0.000000 0.000000 
#    y 0.000000 1.921110 0.000000 
#    z 0.000000 0.000000 1.898680 
# 
# From -- ./inp_files/6413.got.cif
#   From: 2010.03.12/outbox.cif.g09.slc.cpg/sg133_4_cif.got.tgz:6413.got - 2010.04.06 18:08:06.
