data_PCOD8317481
_publ_section_title
;
Structure prediction by ZEFSAII (Michael W. Deem and Ramdas Pophale) SiO2 
 PCOD8317481
Probable space group: P 42/M B C
;
_chemical_formula_sum "Si O2"
_cell_formula_units_Z 64
_cell_length_a 19.770148
_cell_length_b 19.770148
_cell_length_c 8.721865
_cell_angle_alpha 90.000000
_cell_angle_beta 90.000000
_cell_angle_gamma 90.000000
_cell_volume 3409.017269
_symmetry_space_group_name_H-M "P 42/M B C"
_symmetry_group_IT_number 135
_symmetry_cell_setting 'tetragonal'
loop_
_space_group_symop_operation_xyz
x,y,z
-y,x,1/2+z
-x,-y,z
y,-x,1/2+z
1/2+x,1/2-y,-z
1/2-x,1/2+y,-z
1/2+y,1/2+x,1/2-z
1/2-y,1/2-x,1/2-z
-x,-y,-z
y,-x,1/2-z
x,y,-z
-y,x,1/2-z
1/2-x,1/2+y,z
1/2+x,1/2-y,z
1/2-y,1/2-x,1/2+z
1/2+y,1/2+x,1/2+z
loop_
_atom_site_type_symbol
_atom_site_label
_atom_site_fract_x
_atom_site_fract_y
_atom_site_fract_z
Si Si1 0.210041 0.810656 0.818833
Si Si2 0.054554 0.266380 0.180816
Si Si3 0.775255 0.925743 0.826966
Si Si4 0.131621 0.533441 0.172508
O O1 0.243705 0.743705 0.750000
O O2 0.250758 0.875193 0.761050
O O3 0.132677 0.814235 0.763494
O O4 0.212749 0.807292 0.000000
O O5 0.997714 0.212764 0.240556
O O6 0.031993 0.342647 0.230893
O O7 0.062930 0.261371 0.000000
O O8 0.693875 0.912529 0.829919
O O9 0.804014 0.929936 0.000000
O O10 0.065886 0.565886 0.250000
O O11 0.112847 0.511156 0.000000
#
# Coordination Sequence:
#
# PCOD8317481 Si02
#       4
#    16  16  16  16
#     4  12  23  36  56  84 115 148 186 233 283 333
#     4  10  20  35  53  78 112 148 183 229 282 332
#     4   9  19  34  53  79 109 142 182 226 273 326
#     4   9  17  29  49  75 103 135 177 221 265 317
#
# _framework density 18.773738000000002
#
# number of rings (size 3 to 8) (size 9 to 14) (size 15 to 20)
#    1.500    0.500    0.000    6.000    0.000    2.000 
#    0.000    0.000    0.000    1.500    0.000   10.500 
#    0.000    0.000    0.000    0.000    0.000    0.000 
#
# Total GULP energy -793092.848052 kJ/mol
# GULP energy per Si atom -12392.075751 kJ/mol
# Density = 1.873101 g / cm^3
# Si number density = 18.773738 Si / 1000 Ang^3
#
#
#
# Elastic Constant Matrix: (Units=GPa)
#
#
# Indices 1 2 3 4 5 6 
#
# 1 43.0997 -8.3535 14.9851 0.0000 0.0000 0.0000
# 2 -8.3535 43.0997 14.9851 0.0000 0.0000 0.0000
# 3 14.9851 14.9851 164.3507 0.0000 0.0000 0.0000
# 4 0.0000 0.0000 0.0000 30.5640 0.0000 0.0000
# 5 0.0000 0.0000 0.0000 0.0000 30.5640 0.0000
# 6 0.0000 0.0000 0.0000 0.0000 0.0000 13.3858
#
#
#
# Elastic Compliance Matrix: (Units=1/GPa)
#
#
# Indices 1 2 3 4 5 6 
#
# 1 0.025336 0.005901 -0.002848 0.000000 0.000000 0.000000
# 2 0.005901 0.025336 -0.002848 0.000000 0.000000 0.000000
# 3 -0.002848 -0.002848 0.006604 0.000000 0.000000 0.000000
# 4 0.000000 0.000000 0.000000 0.032718 0.000000 0.000000
# 5 0.000000 0.000000 0.000000 0.000000 0.032718 0.000000
# 6 0.000000 0.000000 0.000000 0.000000 0.000000 0.074706
#
#
# Mechanical properties :
#
#
# Convention : Reuss Voigt Hill
#
# Bulk Modulus (GPa) = 17.33553 32.64262 24.98908
# Shear Modulus (GPa) = 23.12274 30.16499 26.64386
#
# Velocity S-wave (km/s) = 3.51330 4.01280 3.77133
# Velocity P-wave (km/s) = 5.07067 6.23660 5.68361
#
# Compressibility (1/GPa) = 0.05768499
#
# Stress axis : x y z
#
# Youngs Moduli (GPa) = 39.46962 39.46962 151.42531
#
# Poissons Ratio (x) = -0.23290 0.43127
# Poissons Ratio (y) = -0.23290 0.43127
# Poissons Ratio (z) = 0.11241 0.11241
#
# Static dielectric constant tensor:
#      x y z
#    x 3.174360 0.000000 0.000000 
#    y 0.000000 3.174360 0.000000 
#    z 0.000000 0.000000 3.513840 
# 
# 
# High freq. dielectric constant tensor:
#      x y z
#    x 1.702700 0.000000 0.000000 
#    y 0.000000 1.702700 0.000000 
#    z 0.000000 0.000000 1.751130 
# 
# From -- ./inp_files/938.got.cif
#   From: 2010.03.12/outbox.cif.g09.slc.cpg/sg135_1_cif.got.tgz:938.got - 2010.04.06 18:31:24.
