data_PCOD8317279
_publ_section_title
;
Structure prediction by ZEFSAII (Michael W. Deem and Ramdas Pophale) SiO2 
 PCOD8317279
Probable space group: P 42/N N M
;
_chemical_formula_sum "Si O2"
_cell_formula_units_Z 40
_cell_length_a 11.958009
_cell_length_b 11.958009
_cell_length_c 12.300317
_cell_angle_alpha 90.000000
_cell_angle_beta 90.000000
_cell_angle_gamma 90.000000
_cell_volume 1758.871274
_symmetry_space_group_name_H-M "P 42/N N M"
_symmetry_group_IT_number 134
_space_group.IT_coordinate_system_code '2'
_symmetry_cell_setting 'tetragonal'
loop_
_space_group_symop_operation_xyz
x,y,z
1/2-y,x,1/2+z
1/2-x,1/2-y,z
y,1/2-x,1/2+z
x,1/2-y,1/2-z
1/2-x,y,1/2-z
y,x,-z
1/2-y,1/2-x,-z
-x,-y,-z
1/2+y,-x,1/2-z
1/2+x,1/2+y,-z
-y,1/2+x,1/2-z
-x,1/2+y,1/2+z
1/2+x,-y,1/2+z
-y,-x,z
1/2+y,1/2+x,z
loop_
_atom_site_type_symbol
_atom_site_label
_atom_site_fract_x
_atom_site_fract_y
_atom_site_fract_z
Si Si1 0.250000 0.431679 0.250000
Si Si2 0.161102 0.022096 0.832083
Si Si3 0.747633 0.070325 0.955560
O O1 0.149811 0.356881 0.296866
O O2 0.204686 0.506668 0.151049
O O3 0.250000 0.966136 0.750000
O O4 0.045127 0.954874 0.828205
O O5 0.213989 0.017576 0.952598
O O6 0.852668 0.147332 0.922739
O O7 0.645978 0.145978 0.000489
#
# Coordination Sequence:
#
# PCOD8317279 Si02
#       3
#     8  16  16
#     4  12  23  39  64  98 134 167 210 270 335 386
#     4  11  24  42  64  92 129 172 218 267 321 384
#     4  10  21  39  65  95 129 173 222 267 315 381
#
# _framework density 22.741859000000002
#
# number of rings (size 3 to 8) (size 9 to 14) (size 15 to 20)
#    0.000    1.200    0.000    6.600    0.000    8.400 
#    0.000    8.000    0.000    0.000    0.000    0.000 
#    0.000    0.000    0.000    0.000    0.000    0.000 
#
# Total GULP energy -496085.525174 kJ/mol
# GULP energy per Si atom -12402.138129 kJ/mol
# Density = 2.269010 g / cm^3
# Si number density = 22.741859 Si / 1000 Ang^3
#
#
#
# Elastic Constant Matrix: (Units=GPa)
#
#
# Indices 1 2 3 4 5 6 
#
# 1 122.6789 47.5771 67.7693 0.0000 0.0000 0.0000
# 2 47.5771 122.6789 67.7693 0.0000 0.0000 0.0000
# 3 67.7693 67.7693 165.0597 0.0000 0.0000 0.0000
# 4 0.0000 0.0000 0.0000 38.0640 0.0000 0.0000
# 5 0.0000 0.0000 0.0000 0.0000 38.0640 0.0000
# 6 0.0000 0.0000 0.0000 0.0000 0.0000 18.0606
#
#
#
# Elastic Compliance Matrix: (Units=1/GPa)
#
#
# Indices 1 2 3 4 5 6 
#
# 1 0.011020 -0.002295 -0.003582 0.000000 0.000000 0.000000
# 2 -0.002295 0.011020 -0.003582 0.000000 0.000000 0.000000
# 3 -0.003582 -0.003582 0.009000 0.000000 0.000000 0.000000
# 4 0.000000 0.000000 0.000000 0.026272 0.000000 0.000000
# 5 0.000000 0.000000 0.000000 0.000000 0.026272 0.000000
# 6 0.000000 0.000000 0.000000 0.000000 0.000000 0.055369
#
#
# Mechanical properties :
#
#
# Convention : Reuss Voigt Hill
#
# Bulk Modulus (GPa) = 82.49976 86.29431 84.39704
# Shear Modulus (GPa) = 30.88078 33.99118 32.43598
#
# Velocity S-wave (km/s) = 3.68894 3.87027 3.78069
# Velocity P-wave (km/s) = 7.38240 7.61574 7.49998
#
# Compressibility (1/GPa) = 0.01212125
#
# Stress axis : x y z
#
# Youngs Moduli (GPa) = 90.74119 90.74119 111.10947
#
# Poissons Ratio (x) = 0.20824 0.39804
# Poissons Ratio (y) = 0.20824 0.39804
# Poissons Ratio (z) = 0.32508 0.32508
#
# Static dielectric constant tensor:
#      x y z
#    x 4.016830 0.000000 0.000000 
#    y 0.000000 4.016830 0.000000 
#    z 0.000000 0.000000 4.218120 
# 
# 
# High freq. dielectric constant tensor:
#      x y z
#    x 1.895590 0.000000 0.000000 
#    y 0.000000 1.895590 0.000000 
#    z 0.000000 0.000000 1.907680 
# 
# From -- ./inp_files/5722.got.cif
#   From: 2010.03.12/outbox.cif.g09.slc.cpg/sg134_3_cif.got.tgz:5722.got - 2010.04.06 18:17:22.
