data_PCOD8317677
_publ_section_title
;
Structure prediction by ZEFSAII (Michael W. Deem and Ramdas Pophale) SiO2 
 PCOD8317677
Probable space group: P 42/M N M
;
_chemical_formula_sum "Si O2"
_cell_formula_units_Z 112
_cell_length_a 19.356140
_cell_length_b 19.356140
_cell_length_c 23.238512
_cell_angle_alpha 90.000000
_cell_angle_beta 90.000000
_cell_angle_gamma 90.000000
_cell_volume 8706.544524
_symmetry_space_group_name_H-M "P 42/M N M"
_symmetry_group_IT_number 136
_symmetry_cell_setting 'tetragonal'
loop_
_space_group_symop_operation_xyz
x,y,z
1/2-y,1/2+x,1/2+z
-x,-y,z
1/2+y,1/2-x,1/2+z
1/2+x,1/2-y,1/2-z
1/2-x,1/2+y,1/2-z
y,x,-z
-y,-x,-z
-x,-y,-z
1/2+y,1/2-x,1/2-z
x,y,-z
1/2-y,1/2+x,1/2-z
1/2-x,1/2+y,1/2+z
1/2+x,1/2-y,1/2+z
-y,-x,z
y,x,z
loop_
_atom_site_type_symbol
_atom_site_label
_atom_site_fract_x
_atom_site_fract_y
_atom_site_fract_z
Si Si1 0.600423 0.288883 0.432564
Si Si2 0.437776 0.851510 0.372713
Si Si3 0.088628 0.567484 0.748463
Si Si4 0.620598 0.097869 0.869568
Si Si5 0.744129 0.145110 0.934769
Si Si6 0.987112 0.418903 0.435197
Si Si7 0.642974 0.537648 0.568097
O O1 0.591287 0.270215 0.500000
O O2 0.673957 0.326044 0.421434
O O3 0.594945 0.219822 0.394950
O O4 0.540818 0.343043 0.412405
O O5 0.421618 0.859623 0.304843
O O6 0.519752 0.855129 0.383470
O O7 0.400757 0.913418 0.407112
O O8 0.088191 0.488573 0.770903
O O9 0.112024 0.615072 0.801511
O O10 0.677192 0.149734 0.894698
O O11 0.548176 0.116846 0.899443
O O12 0.780975 0.219026 0.932100
O O13 0.794255 0.085516 0.910250
O O14 0.721476 0.127508 0.000000
O O15 0.987635 0.390157 0.500000
O O16 0.000000 0.500000 0.433433
O O17 0.640307 0.542142 0.500000
O O18 0.570098 0.570098 0.591901
#
# Coordination Sequence:
#
# PCOD8317677 Si02
#       7
#    16  16  16  16  16  16  16
#     4  10  19  28  39  56  77 104 135 163 197 234
#     4  10  17  27  39  54  77 103 126 163 195 229
#     4   9  16  27  40  56  77  98 129 158 193 228
#     4  10  16  25  41  58  74 100 129 161 192 232
#     4   9  16  25  38  57  80 102 124 154 194 231
#     4   9  16  23  35  57  77  95 122 158 196 231
#     4   8  14  25  38  52  72  98 128 160 190 220
#
# _framework density 12.863887
#
# number of rings (size 3 to 8) (size 9 to 14) (size 15 to 20)
#    0.000    2.714    2.857    1.714    0.000    1.429 
#    0.000    2.143    0.000    0.000    0.000    0.000 
#    0.000    0.000    0.000    0.000    0.000    0.714 
#
# Total GULP energy -1388145.162965 kJ/mol
# GULP energy per Si atom -12394.153241 kJ/mol
# Density = 1.283461 g / cm^3
# Si number density = 12.863887 Si / 1000 Ang^3
#
#
#
# Elastic Constant Matrix: (Units=GPa)
#
#
# Indices 1 2 3 4 5 6 
#
# 1 61.4185 30.6785 32.7693 0.0000 0.0000 0.0000
# 2 30.6785 61.4185 32.7693 0.0000 0.0000 0.0000
# 3 32.7693 32.7693 67.0653 0.0000 0.0000 0.0000
# 4 0.0000 0.0000 0.0000 14.1784 0.0000 0.0000
# 5 0.0000 0.0000 0.0000 0.0000 14.1784 0.0000
# 6 0.0000 0.0000 0.0000 0.0000 0.0000 11.7702
#
#
#
# Elastic Compliance Matrix: (Units=1/GPa)
#
#
# Indices 1 2 3 4 5 6 
#
# 1 0.024589 -0.007942 -0.008134 0.000000 0.000000 0.000000
# 2 -0.007942 0.024589 -0.008134 0.000000 0.000000 0.000000
# 3 -0.008134 -0.008134 0.022859 0.000000 0.000000 0.000000
# 4 0.000000 0.000000 0.000000 0.070530 0.000000 0.000000
# 5 0.000000 0.000000 0.000000 0.000000 0.070530 0.000000
# 6 0.000000 0.000000 0.000000 0.000000 0.000000 0.084961
#
#
# Mechanical properties :
#
#
# Convention : Reuss Voigt Hill
#
# Bulk Modulus (GPa) = 42.34200 42.48182 42.41191
# Shear Modulus (GPa) = 14.11042 14.27109 14.19076
#
# Velocity S-wave (km/s) = 3.31554 3.33437 3.32497
# Velocity P-wave (km/s) = 6.90246 6.92241 6.91244
#
# Compressibility (1/GPa) = 0.02361721
#
# Stress axis : x y z
#
# Youngs Moduli (GPa) = 40.66934 40.66934 43.74587
#
# Poissons Ratio (x) = 0.32301 0.35581
# Poissons Ratio (y) = 0.32301 0.35581
# Poissons Ratio (z) = 0.33079 0.33079
#
# Static dielectric constant tensor:
#      x y z
#    x 2.470110 0.000000 0.000000 
#    y 0.000000 2.470110 0.000000 
#    z 0.000000 0.000000 2.491580 
# 
# 
# High freq. dielectric constant tensor:
#      x y z
#    x 1.465190 0.000000 0.000000 
#    y 0.000000 1.465190 0.000000 
#    z 0.000000 0.000000 1.474470 
# 
# From -- ./inp_files/7828.got.cif
#   From: 2010.03.12/outbox.cif.g09.slc.cpg/sg136_4_cif.got.tgz:7828.got - 2010.04.06 18:39:43.
