data_PCOD8317092
_publ_section_title
;
Structure prediction by ZEFSAII (Michael W. Deem and Ramdas Pophale) SiO2 
 PCOD8317092
Probable space group: P 42/N N M
;
_chemical_formula_sum "Si O2"
_cell_formula_units_Z 96
_cell_length_a 20.550095
_cell_length_b 20.550095
_cell_length_c 13.499838
_cell_angle_alpha 90.000000
_cell_angle_beta 90.000000
_cell_angle_gamma 90.000000
_cell_volume 5701.068047
_symmetry_space_group_name_H-M "P 42/N N M"
_symmetry_group_IT_number 134
_space_group.IT_coordinate_system_code '2'
_symmetry_cell_setting 'tetragonal'
loop_
_space_group_symop_operation_xyz
x,y,z
1/2-y,x,1/2+z
1/2-x,1/2-y,z
y,1/2-x,1/2+z
x,1/2-y,1/2-z
1/2-x,y,1/2-z
y,x,-z
1/2-y,1/2-x,-z
-x,-y,-z
1/2+y,-x,1/2-z
1/2+x,1/2+y,-z
-y,1/2+x,1/2-z
-x,1/2+y,1/2+z
1/2+x,-y,1/2+z
-y,-x,z
1/2+y,1/2+x,z
loop_
_atom_site_type_symbol
_atom_site_label
_atom_site_fract_x
_atom_site_fract_y
_atom_site_fract_z
Si Si1 0.007490 0.398029 0.456914
Si Si2 0.691200 0.084117 0.172237
Si Si3 0.912709 0.306538 0.945307
Si Si4 0.005558 0.613421 0.187786
Si Si5 0.438597 0.829751 0.376647
Si Si6 0.985392 0.594175 0.763339
O O1 0.074588 0.425413 0.500000
O O2 0.023302 0.374865 0.345888
O O3 0.953488 0.453488 0.458166
O O4 0.982445 0.338732 0.524585
O O5 0.750000 0.085031 0.250000
O O6 0.643771 0.143771 0.201501
O O7 0.652039 0.015960 0.172142
O O8 0.715308 0.089658 0.059705
O O9 0.849940 0.349940 0.918743
O O10 0.977780 0.347771 0.914100
O O11 0.909316 0.242550 0.878067
O O12 0.053783 0.553783 0.201874
O O13 0.015207 0.661353 0.281274
O O14 0.932226 0.582854 0.189571
O O15 0.378970 0.878970 0.373380
O O16 0.034186 0.534186 0.756552
#
# Coordination Sequence:
#
# PCOD8317092 Si02
#       6
#    16  16  16  16  16  16
#     4   9  14  23  42  68  89 109 144 193 245 283
#     4  10  21  35  49  67  93 128 163 197 232 272
#     4  10  21  33  44  64  96 132 167 191 223 283
#     4   9  17  30  47  67  90 120 156 197 244 288
#     4  10  18  29  47  68  95 128 161 202 239 269
#     4   9  16  28  47  68  91 118 153 194 240 284
#
# _framework density 16.838951000000002
#
# number of rings (size 3 to 8) (size 9 to 14) (size 15 to 20)
#    0.000    2.500    1.667    1.500    0.000    3.167 
#    0.000    5.000    0.000    3.000    0.000    0.000 
#    0.000    2.667    1.000    0.000    0.000    0.000 
#
# Total GULP energy -1189548.654702 kJ/mol
# GULP energy per Si atom -12391.131820 kJ/mol
# Density = 1.680062 g / cm^3
# Si number density = 16.838951 Si / 1000 Ang^3
#
#
#
# Elastic Constant Matrix: (Units=GPa)
#
#
# Indices 1 2 3 4 5 6 
#
# 1 54.6020 52.0869 27.0018 0.0000 0.0000 0.0000
# 2 52.0869 54.6017 27.0022 0.0000 0.0000 0.0000
# 3 27.0018 27.0022 59.4649 0.0000 0.0000 0.0000
# 4 0.0000 0.0000 0.0000 23.3963 0.0000 0.0000
# 5 0.0000 0.0000 0.0000 0.0000 23.3963 0.0000
# 6 0.0000 0.0000 0.0000 0.0000 0.0000 17.2728
#
#
#
# Elastic Compliance Matrix: (Units=1/GPa)
#
#
# Indices 1 2 3 4 5 6 
#
# 1 0.204893 -0.192724 -0.005524 0.000000 0.000000 0.000000
# 2 -0.192724 0.204896 -0.005528 0.000000 0.000000 0.000000
# 3 -0.005524 -0.005528 0.021835 0.000000 0.000000 0.000000
# 4 0.000000 0.000000 0.000000 0.042742 0.000000 0.000000
# 5 0.000000 0.000000 0.000000 0.000000 0.042742 0.000000
# 6 0.000000 0.000000 0.000000 0.000000 0.000000 0.057895
#
#
# Mechanical properties :
#
#
# Convention : Reuss Voigt Hill
#
# Bulk Modulus (GPa) = 41.54404 42.31669 41.93037
# Shear Modulus (GPa) = 5.04755 16.98492 11.01624
#
# Velocity S-wave (km/s) = 1.73322 3.17940 2.56053
# Velocity P-wave (km/s) = 5.36007 6.21795 5.80488
#
# Compressibility (1/GPa) = 0.02407084
#
# Stress axis : x y z
#
# Youngs Moduli (GPa) = 4.88061 4.88053 45.79700
#
# Poissons Ratio (x) = 0.94059 0.25300
# Poissons Ratio (y) = 0.94061 0.25318
# Poissons Ratio (z) = 0.02696 0.02698
#
# Static dielectric constant tensor:
#      x y z
#    x 2.994810 0.000000 0.000000 
#    y 0.000000 2.994810 0.000000 
#    z 0.000000 0.000000 3.307040 
# 
# 
# High freq. dielectric constant tensor:
#      x y z
#    x 1.615840 0.000000 0.000000 
#    y 0.000000 1.615840 0.000000 
#    z 0.000000 0.000000 1.661530 
# 
# From -- ./inp_files/5055.got.cif
#   From: 2010.03.12/outbox.cif.g09.slc.cpg/sg134_3_cif.got.tgz:5055.got - 2010.04.06 18:17:22.
