data_PCOD8317240
_publ_section_title
;
Structure prediction by ZEFSAII (Michael W. Deem and Ramdas Pophale) SiO2 
 PCOD8317240
Probable space group: P 42/N N M
;
_chemical_formula_sum "Si O2"
_cell_formula_units_Z 56
_cell_length_a 17.536728
_cell_length_b 17.536728
_cell_length_c 8.472756
_cell_angle_alpha 90.000000
_cell_angle_beta 90.000000
_cell_angle_gamma 90.000000
_cell_volume 2605.684513
_symmetry_space_group_name_H-M "P 42/N N M"
_symmetry_group_IT_number 134
_space_group.IT_coordinate_system_code '2'
_symmetry_cell_setting 'tetragonal'
loop_
_space_group_symop_operation_xyz
x,y,z
1/2-y,x,1/2+z
1/2-x,1/2-y,z
y,1/2-x,1/2+z
x,1/2-y,1/2-z
1/2-x,y,1/2-z
y,x,-z
1/2-y,1/2-x,-z
-x,-y,-z
1/2+y,-x,1/2-z
1/2+x,1/2+y,-z
-y,1/2+x,1/2-z
-x,1/2+y,1/2+z
1/2+x,-y,1/2+z
-y,-x,z
1/2+y,1/2+x,z
loop_
_atom_site_type_symbol
_atom_site_label
_atom_site_fract_x
_atom_site_fract_y
_atom_site_fract_z
Si Si1 0.581490 0.963369 0.755695
Si Si2 0.787472 0.890026 0.914507
Si Si3 0.995731 0.830511 0.564049
Si Si4 0.872624 0.250000 0.250000
O O1 0.641719 0.945978 0.619405
O O2 0.536294 0.886369 0.801614
O O3 0.521816 0.021816 0.680972
O O4 0.621719 0.005727 0.903731
O O5 0.750000 0.866496 0.750000
O O6 0.813052 0.813052 0.000000
O O7 0.732125 0.931155 0.036217
O O8 0.074201 0.788610 0.614989
O O9 0.817524 0.182477 0.180912
#
# Coordination Sequence:
#
# PCOD8317240 Si02
#       4
#    16  16  16   8
#     4  10  20  37  61  82 106 149 197 242 293 347
#     4  10  22  38  56  84 115 146 187 235 290 351
#     4  10  20  37  56  81 115 146 191 247 296 355
#     4  11  22  34  54  84 117 156 196 240 303 370
#
# _framework density 21.491474
#
# number of rings (size 3 to 8) (size 9 to 14) (size 15 to 20)
#    0.000    1.857    0.000    5.143    0.000    1.714 
#    0.000   21.429    0.000    0.000    0.000   14.000 
#    0.000    0.000    0.000    0.000    0.000    0.000 
#
# Total GULP energy -694232.742690 kJ/mol
# GULP energy per Si atom -12397.013262 kJ/mol
# Density = 2.144256 g / cm^3
# Si number density = 21.491474 Si / 1000 Ang^3
#
#
#
# Elastic Constant Matrix: (Units=GPa)
#
#
# Indices 1 2 3 4 5 6 
#
# 1 125.4825 73.4073 34.0488 0.0000 0.0000 0.0000
# 2 73.4073 125.4825 34.0488 0.0000 0.0000 0.0000
# 3 34.0488 34.0488 41.8508 0.0000 0.0000 0.0000
# 4 0.0000 0.0000 0.0000 -7.1236 0.0000 0.0000
# 5 0.0000 0.0000 0.0000 0.0000 -7.1236 0.0000
# 6 0.0000 0.0000 0.0000 0.0000 0.0000 54.9877
#
#
#
# Elastic Compliance Matrix: (Units=1/GPa)
#
#
# Indices 1 2 3 4 5 6 
#
# 1 0.013086 -0.006117 -0.005670 0.000000 0.000000 0.000000
# 2 -0.006117 0.013086 -0.005670 0.000000 0.000000 0.000000
# 3 -0.005670 -0.005670 0.033120 0.000000 0.000000 0.000000
# 4 0.000000 0.000000 0.000000 -0.140377 0.000000 0.000000
# 5 0.000000 0.000000 0.000000 0.000000 -0.140377 0.000000
# 6 0.000000 0.000000 0.000000 0.000000 0.000000 0.018186
#
#
# Mechanical properties :
#
#
# Convention : Reuss Voigt Hill
#
# Bulk Modulus (GPa) = 41.01917 63.98062 52.49990
# Shear Modulus (GPa) = -31.20392 18.23547 -6.48422
#
# Velocity S-wave (km/s) = -3.81454 2.91606 -1.73887
# Velocity P-wave (km/s) = 0.52277 6.41660 4.52214
#
# Compressibility (1/GPa) = 0.02437885
#
# Stress axis : x y z
#
# Youngs Moduli (GPa) = 76.41683 76.41683 30.19283
#
# Poissons Ratio (x) = 0.46743 0.17119
# Poissons Ratio (y) = 0.46743 0.17119
# Poissons Ratio (z) = 0.43329 0.43329
#
# Static dielectric constant tensor:
#      x y z
#    x 4.090400 0.000000 0.000000 
#    y 0.000000 4.090400 0.000000 
#    z 0.000000 0.000000 3.692290 
# 
# 
# High freq. dielectric constant tensor:
#      x y z
#    x 1.854480 0.000000 0.000000 
#    y 0.000000 1.854480 0.000000 
#    z 0.000000 0.000000 1.821390 
# 
# From -- ./inp_files/2371.got.cif
#   From: 2010.03.12/outbox.cif.g09.slc.cpg/sg134_2_cif.got.tgz:2371.got - 2010.04.06 18:17:22.
