data_PCOD8317388
_publ_section_title
;
Structure prediction by ZEFSAII (Michael W. Deem and Ramdas Pophale) SiO2 
 PCOD8317388
Probable space group: P 42/M B C
;
_chemical_formula_sum "Si O2"
_cell_formula_units_Z 120
_cell_length_a 14.848657
_cell_length_b 14.848657
_cell_length_c 28.673238
_cell_angle_alpha 90.000000
_cell_angle_beta 90.000000
_cell_angle_gamma 90.000000
_cell_volume 6321.950486
_symmetry_space_group_name_H-M "P 42/M B C"
_symmetry_group_IT_number 135
_symmetry_cell_setting 'tetragonal'
loop_
_space_group_symop_operation_xyz
x,y,z
-y,x,1/2+z
-x,-y,z
y,-x,1/2+z
1/2+x,1/2-y,-z
1/2-x,1/2+y,-z
1/2+y,1/2+x,1/2-z
1/2-y,1/2-x,1/2-z
-x,-y,-z
y,-x,1/2-z
x,y,-z
-y,x,1/2-z
1/2-x,1/2+y,z
1/2+x,1/2-y,z
1/2-y,1/2-x,1/2+z
1/2+y,1/2+x,1/2+z
loop_
_atom_site_type_symbol
_atom_site_label
_atom_site_fract_x
_atom_site_fract_y
_atom_site_fract_z
Si Si1 0.904513 0.602249 0.323022
Si Si2 0.308257 0.834931 0.594617
Si Si3 0.903845 0.967358 0.121202
Si Si4 0.201976 0.298025 0.250000
Si Si5 0.316422 0.468047 0.447705
Si Si6 0.593257 0.889903 0.802865
Si Si7 0.336051 0.282631 0.671775
Si Si8 0.841350 0.119606 0.053156
O O1 0.895386 0.632220 0.376719
O O2 0.872639 0.684574 0.289830
O O3 0.849372 0.507104 0.313601
O O4 0.006311 0.584108 0.313146
O O5 0.278074 0.920463 0.563852
O O6 0.234076 0.809759 0.632631
O O7 0.328139 0.751664 0.560948
O O8 0.925007 0.892451 0.083630
O O9 0.838823 0.928505 0.162226
O O10 0.850602 0.043944 0.092861
O O11 0.000000 0.000000 0.142874
O O12 0.298879 0.307355 0.276181
O O13 0.344847 0.445067 0.500000
O O14 0.310103 0.575960 0.440636
O O15 0.623710 0.876291 0.750000
O O16 0.674379 0.848012 0.833349
O O17 0.841639 0.080595 0.000000
#
# Coordination Sequence:
#
# PCOD8317388 Si02
#       8
#    16  16  16   8  16  16  16  16
#     4  10  20  34  55  75 104 137 186 231 275 328
#     4  10  21  33  51  80 113 141 178 236 281 340
#     4   9  18  35  55  81 112 143 186 233 281 338
#     4  10  18  35  50  79 108 138 178 228 282 332
#     4   9  18  33  53  78 109 143 182 227 276 340
#     4  11  19  35  56  77  98 144 187 233 269 329
#     4  10  21  33  55  81 109 146 185 229 285 342
#     4  10  19  33  56  82 108 147 189 229 288 347
#
# _framework density 18.981483000000001
#
# number of rings (size 3 to 8) (size 9 to 14) (size 15 to 20)
#    0.000    2.133    2.000    2.000    1.867    1.600 
#    0.000    0.000    2.933    0.000    0.000    4.667 
#    0.000    0.000    0.000    0.000    0.000    0.000 
#
# Total GULP energy -1486777.103896 kJ/mol
# GULP energy per Si atom -12389.809199 kJ/mol
# Density = 1.893828 g / cm^3
# Si number density = 18.981483 Si / 1000 Ang^3
#
#
#
# Elastic Constant Matrix: (Units=GPa)
#
#
# Indices 1 2 3 4 5 6 
#
# 1 75.5345 44.0607 42.5192 0.0000 0.0000 0.0000
# 2 44.0607 75.5342 42.5193 0.0000 0.0000 0.0000
# 3 42.5192 42.5193 80.0732 0.0000 0.0000 0.0000
# 4 0.0000 0.0000 0.0000 -11.9743 0.0000 0.0000
# 5 0.0000 0.0000 0.0000 0.0000 -11.9816 0.0000
# 6 0.0000 0.0000 0.0000 0.0000 0.0000 29.1777
#
#
#
# Elastic Compliance Matrix: (Units=1/GPa)
#
#
# Indices 1 2 3 4 5 6 
#
# 1 0.022603 -0.009169 -0.007133 0.000000 0.000000 0.000000
# 2 -0.009169 0.022603 -0.007133 0.000000 0.000000 0.000000
# 3 -0.007133 -0.007133 0.020064 0.000000 0.000000 0.000000
# 4 0.000000 0.000000 0.000000 -0.083512 0.000000 0.000000
# 5 0.000000 0.000000 0.000000 0.000000 -0.083461 0.000000
# 6 0.000000 0.000000 0.000000 0.000000 0.000000 0.034273
#
#
# Mechanical properties :
#
#
# Convention : Reuss Voigt Hill
#
# Bulk Modulus (GPa) = 54.35295 54.37116 54.36205
# Shear Modulus (GPa) = -346.62799 7.84720 -169.39039
#
# Velocity S-wave (km/s) = -13.52813 2.03546 -9.45693
# Velocity P-wave (km/s) = 14.67367 5.85070 9.51541
#
# Compressibility (1/GPa) = 0.01839826
#
# Stress axis : x y z
#
# Youngs Moduli (GPa) = 44.24168 44.24127 49.83971
#
# Poissons Ratio (x) = 0.40567 0.35552
# Poissons Ratio (y) = 0.40567 0.35553
# Poissons Ratio (z) = 0.31559 0.31559
#
# Static dielectric constant tensor:
#      x y z
#    x 4.156790 0.000000 0.000000 
#    y 0.000000 4.156710 0.000000 
#    z 0.000000 0.000000 3.661040 
# 
# 
# High freq. dielectric constant tensor:
#      x y z
#    x 1.730560 0.000000 0.000000 
#    y 0.000000 1.730560 0.000000 
#    z 0.000000 0.000000 1.731020 
# 
# From -- ./inp_files/6914.got.cif
#   From: 2010.03.12/outbox.cif.g09.slc.cpg/sg135_4_cif.got.tgz:6914.got - 2010.04.06 18:31:24.
