data_PCOD8317363
_publ_section_title
;
Structure prediction by ZEFSAII (Michael W. Deem and Ramdas Pophale) SiO2 
 PCOD8317363
Probable space group: P 42/M B C
;
_chemical_formula_sum "Si O2"
_cell_formula_units_Z 96
_cell_length_a 16.616258
_cell_length_b 16.616258
_cell_length_c 18.985982
_cell_angle_alpha 90.000000
_cell_angle_beta 90.000000
_cell_angle_gamma 90.000000
_cell_volume 5242.030198
_symmetry_space_group_name_H-M "P 42/M B C"
_symmetry_group_IT_number 135
_symmetry_cell_setting 'tetragonal'
loop_
_space_group_symop_operation_xyz
x,y,z
-y,x,1/2+z
-x,-y,z
y,-x,1/2+z
1/2+x,1/2-y,-z
1/2-x,1/2+y,-z
1/2+y,1/2+x,1/2-z
1/2-y,1/2-x,1/2-z
-x,-y,-z
y,-x,1/2-z
x,y,-z
-y,x,1/2-z
1/2-x,1/2+y,z
1/2+x,1/2-y,z
1/2-y,1/2-x,1/2+z
1/2+y,1/2+x,1/2+z
loop_
_atom_site_type_symbol
_atom_site_label
_atom_site_fract_x
_atom_site_fract_y
_atom_site_fract_z
Si Si1 0.573905 0.441055 0.176222
Si Si2 0.656733 0.471834 0.578799
Si Si3 0.979045 0.660828 0.921127
Si Si4 0.554829 0.922265 0.674995
Si Si5 0.656598 0.593137 0.817240
Si Si6 0.100394 0.342035 0.325117
O O1 0.500000 0.500000 0.198618
O O2 0.548009 0.394530 0.106038
O O3 0.597874 0.377441 0.237312
O O4 0.649986 0.498949 0.159699
O O5 0.628057 0.448616 0.500000
O O6 0.746627 0.501463 0.578031
O O7 0.648427 0.395682 0.630564
O O8 0.893079 0.649644 0.882689
O O9 0.056947 0.619460 0.884873
O O10 0.970864 0.626048 0.000000
O O11 0.597377 0.902623 0.750000
O O12 0.495091 0.848420 0.656349
O O13 0.500000 0.000000 0.682757
O O14 0.748108 0.624343 0.823113
O O15 0.117537 0.382464 0.250000
#
# Coordination Sequence:
#
# PCOD8317363 Si02
#       6
#    16  16  16  16  16  16
#     4  10  17  34  57  82 111 146 188 234 282 342
#     4  10  21  38  60  83 114 154 193 233 290 350
#     4  10  21  38  59  83 115 156 193 233 290 345
#     4   9  16  32  54  80 106 144 187 227 268 335
#     4  11  20  34  58  85 113 148 192 243 285 343
#     4  11  21  34  57  85 116 148 192 242 288 341
#
# _framework density 18.313514999999999
#
# number of rings (size 3 to 8) (size 9 to 14) (size 15 to 20)
#    0.000    1.833    6.667    1.000    0.000    6.667 
#    0.000    4.167    0.000    2.000    0.000    0.000 
#    0.000    0.000    0.000    0.000    0.000    0.000 
#
# Total GULP energy -1189307.192839 kJ/mol
# GULP energy per Si atom -12388.616592 kJ/mol
# Density = 1.827183 g / cm^3
# Si number density = 18.313515 Si / 1000 Ang^3
#
#
#
# Elastic Constant Matrix: (Units=GPa)
#
#
# Indices 1 2 3 4 5 6 
#
# 1 72.9065 24.0306 38.6706 0.0000 0.0000 0.0000
# 2 24.0306 72.9061 38.6705 0.0000 0.0000 0.0000
# 3 38.6706 38.6705 130.2426 0.0000 0.0000 0.0000
# 4 0.0000 0.0000 0.0000 19.0885 0.0000 0.0000
# 5 0.0000 0.0000 0.0000 0.0000 19.0886 0.0000
# 6 0.0000 0.0000 0.0000 0.0000 0.0000 16.4472
#
#
#
# Elastic Compliance Matrix: (Units=1/GPa)
#
#
# Indices 1 2 3 4 5 6 
#
# 1 0.016989 -0.003471 -0.004014 0.000000 0.000000 0.000000
# 2 -0.003471 0.016989 -0.004014 0.000000 0.000000 0.000000
# 3 -0.004014 -0.004014 0.010061 0.000000 0.000000 0.000000
# 4 0.000000 0.000000 0.000000 0.052388 0.000000 0.000000
# 5 0.000000 0.000000 0.000000 0.000000 0.052387 0.000000
# 6 0.000000 0.000000 0.000000 0.000000 0.000000 0.060801
#
#
# Mechanical properties :
#
#
# Convention : Reuss Voigt Hill
#
# Bulk Modulus (GPa) = 47.52144 53.19983 50.36064
# Shear Modulus (GPa) = 20.86580 22.57042 21.71811
#
# Velocity S-wave (km/s) = 3.37911 3.51443 3.44743
# Velocity P-wave (km/s) = 6.42104 6.75136 6.58827
#
# Compressibility (1/GPa) = 0.02104313
#
# Stress axis : x y z
#
# Youngs Moduli (GPa) = 58.86106 58.86073 99.38938
#
# Poissons Ratio (x) = 0.20430 0.39892
# Poissons Ratio (y) = 0.20430 0.39893
# Poissons Ratio (z) = 0.23625 0.23625
#
# Static dielectric constant tensor:
#      x y z
#    x 3.649220 0.000000 0.000000 
#    y 0.000000 3.649200 0.000000 
#    z 0.000000 0.000000 3.692630 
# 
# 
# High freq. dielectric constant tensor:
#      x y z
#    x 1.691200 0.000000 0.000000 
#    y 0.000000 1.691200 0.000000 
#    z 0.000000 0.000000 1.715090 
# 
# From -- ./inp_files/4445.got.cif
#   From: 2010.03.12/outbox.cif.g09.slc.cpg/sg135_3_cif.got.tgz:4445.got - 2010.04.06 18:31:24.
