data_PCOD8317203
_publ_section_title
;
Structure prediction by ZEFSAII (Michael W. Deem and Ramdas Pophale) SiO2 
 PCOD8317203
Probable space group: P 42/N N M
;
_chemical_formula_sum "Si O2"
_cell_formula_units_Z 120
_cell_length_a 13.898763
_cell_length_b 13.898763
_cell_length_c 31.368603
_cell_angle_alpha 90.000000
_cell_angle_beta 90.000000
_cell_angle_gamma 90.000000
_cell_volume 6059.649111
_symmetry_space_group_name_H-M "P 42/N N M"
_symmetry_group_IT_number 134
_space_group.IT_coordinate_system_code '2'
_symmetry_cell_setting 'tetragonal'
loop_
_space_group_symop_operation_xyz
x,y,z
1/2-y,x,1/2+z
1/2-x,1/2-y,z
y,1/2-x,1/2+z
x,1/2-y,1/2-z
1/2-x,y,1/2-z
y,x,-z
1/2-y,1/2-x,-z
-x,-y,-z
1/2+y,-x,1/2-z
1/2+x,1/2+y,-z
-y,1/2+x,1/2-z
-x,1/2+y,1/2+z
1/2+x,-y,1/2+z
-y,-x,z
1/2+y,1/2+x,z
loop_
_atom_site_type_symbol
_atom_site_label
_atom_site_fract_x
_atom_site_fract_y
_atom_site_fract_z
Si Si1 0.111059 0.458773 0.697052
Si Si2 0.157910 0.003911 0.008704
Si Si3 0.248960 0.910467 0.412173
Si Si4 0.102614 0.750000 0.250000
Si Si5 0.252315 0.594796 0.564965
Si Si6 0.572500 0.577798 0.708482
Si Si7 0.271523 0.472380 0.173941
Si Si8 0.938766 0.211148 0.341458
O O1 0.132626 0.433779 0.746321
O O2 0.103074 0.360548 0.668733
O O3 0.189892 0.536098 0.681849
O O4 0.008617 0.508617 0.691490
O O5 0.229668 0.986739 0.969428
O O6 0.108943 0.108943 0.000000
O O7 0.075110 0.924891 0.010050
O O8 0.223930 0.989022 0.051044
O O9 0.147178 0.852823 0.420137
O O10 0.332823 0.832823 0.408709
O O11 0.245145 0.970612 0.368688
O O12 0.168291 0.831710 0.271894
O O13 0.042399 0.698651 0.287211
O O14 0.339312 0.660689 0.547439
O O15 0.159149 0.659149 0.574346
O O16 0.278938 0.542055 0.608457
O O17 0.531662 0.468339 0.712806
O O18 0.679460 0.584014 0.690985
O O19 0.511101 0.630898 0.673470
O O20 0.828449 0.171552 0.333245
#
# Coordination Sequence:
#
# PCOD8317203 Si02
#       8
#    16  16  16   8  16  16  16  16
#     4  11  22  36  58  85 117 152 192 245 300 355
#     4   9  18  31  51  80 115 148 183 233 300 368
#     4  10  20  33  51  80 117 154 194 241 295 358
#     4  11  20  32  52  79 114 156 200 241 282 335
#     4   9  17  32  55  81 109 143 184 236 298 362
#     4  10  21  39  57  79 114 157 200 245 294 346
#     4  12  22  35  55  83 117 157 198 239 287 349
#     4  10  22  38  58  82 110 150 200 250 301 354
#
# _framework density 19.803125999999999
#
# number of rings (size 3 to 8) (size 9 to 14) (size 15 to 20)
#    0.000    1.800    1.333    3.600    1.867    4.000 
#    0.000    2.000    0.000    5.600    0.000    4.667 
#    0.000    0.000    0.000    0.000    0.000    0.000 
#
# Total GULP energy -1486862.653263 kJ/mol
# GULP energy per Si atom -12390.522111 kJ/mol
# Density = 1.975805 g / cm^3
# Si number density = 19.803126 Si / 1000 Ang^3
#
#
#
# Elastic Constant Matrix: (Units=GPa)
#
#
# Indices 1 2 3 4 5 6 
#
# 1 82.2230 48.8569 53.7933 0.0000 0.0000 0.0000
# 2 48.8569 82.2230 53.7933 0.0000 0.0000 0.0000
# 3 53.7933 53.7933 139.0428 0.0000 0.0000 0.0000
# 4 0.0000 0.0000 0.0000 27.2065 0.0000 0.0000
# 5 0.0000 0.0000 0.0000 0.0000 27.2065 0.0000
# 6 0.0000 0.0000 0.0000 0.0000 0.0000 38.8969
#
#
#
# Elastic Compliance Matrix: (Units=1/GPa)
#
#
# Indices 1 2 3 4 5 6 
#
# 1 0.020575 -0.009396 -0.004325 0.000000 0.000000 0.000000
# 2 -0.009396 0.020575 -0.004325 0.000000 0.000000 0.000000
# 3 -0.004325 -0.004325 0.010538 0.000000 0.000000 0.000000
# 4 0.000000 0.000000 0.000000 0.036756 0.000000 0.000000
# 5 0.000000 0.000000 0.000000 0.000000 0.036756 0.000000
# 6 0.000000 0.000000 0.000000 0.000000 0.000000 0.025709
#
#
# Mechanical properties :
#
#
# Convention : Reuss Voigt Hill
#
# Bulk Modulus (GPa) = 64.11736 68.48619 66.30177
# Shear Modulus (GPa) = 26.01478 28.46499 27.23989
#
# Velocity S-wave (km/s) = 3.62839 3.79542 3.71284
# Velocity P-wave (km/s) = 7.07116 7.33931 7.20648
#
# Compressibility (1/GPa) = 0.01559640
#
# Stress axis : x y z
#
# Youngs Moduli (GPa) = 48.60368 48.60368 94.89083
#
# Poissons Ratio (x) = 0.45668 0.41039
# Poissons Ratio (y) = 0.45668 0.41039
# Poissons Ratio (z) = 0.21020 0.21020
#
# Static dielectric constant tensor:
#      x y z
#    x 3.599110 0.000000 0.000000 
#    y 0.000000 3.599110 0.000000 
#    z 0.000000 0.000000 3.679060 
# 
# 
# High freq. dielectric constant tensor:
#      x y z
#    x 1.759790 0.000000 0.000000 
#    y 0.000000 1.759790 0.000000 
#    z 0.000000 0.000000 1.770050 
# 
# From -- ./inp_files/11735.got.cif
#   From: 2010.03.12/outbox.cif.g09.slc.cpg/sg134_6_cif.got.tgz:11735.got - 2010.04.06 18:17:22.
