data_PCOD8317146
_publ_section_title
;
Structure prediction by ZEFSAII (Michael W. Deem and Ramdas Pophale) SiO2 
 PCOD8317146
Probable space group: P 42/N N M
;
_chemical_formula_sum "Si O2"
_cell_formula_units_Z 56
_cell_length_a 12.617113
_cell_length_b 12.617113
_cell_length_c 17.689354
_cell_angle_alpha 90.000000
_cell_angle_beta 90.000000
_cell_angle_gamma 90.000000
_cell_volume 2815.995513
_symmetry_space_group_name_H-M "P 42/N N M"
_symmetry_group_IT_number 134
_space_group.IT_coordinate_system_code '2'
_symmetry_cell_setting 'tetragonal'
loop_
_space_group_symop_operation_xyz
x,y,z
1/2-y,x,1/2+z
1/2-x,1/2-y,z
y,1/2-x,1/2+z
x,1/2-y,1/2-z
1/2-x,y,1/2-z
y,x,-z
1/2-y,1/2-x,-z
-x,-y,-z
1/2+y,-x,1/2-z
1/2+x,1/2+y,-z
-y,1/2+x,1/2-z
-x,1/2+y,1/2+z
1/2+x,-y,1/2+z
-y,-x,z
1/2+y,1/2+x,z
loop_
_atom_site_type_symbol
_atom_site_label
_atom_site_fract_x
_atom_site_fract_y
_atom_site_fract_z
Si Si1 0.252979 0.577598 0.105421
Si Si2 0.997339 0.836042 0.964006
Si Si3 0.065024 0.250000 0.750000
Si Si4 0.347001 0.026865 0.703622
O O1 0.371520 0.628481 0.112289
O O2 0.168241 0.668241 0.104826
O O3 0.230530 0.504554 0.176235
O O4 0.242679 0.512206 0.026221
O O5 0.956029 0.802046 0.881604
O O6 0.917034 0.917034 0.000000
O O7 0.112042 0.887959 0.950430
O O8 0.132381 0.356698 0.738162
O O9 0.250000 0.974468 0.750000
O O10 0.451556 0.951556 0.707174
#
# Coordination Sequence:
#
# PCOD8317146 Si02
#       4
#    16  16   8  16
#     4  10  19  31  56  92 123 155 201 257 310 360
#     4   9  17  35  59  83 113 157 205 248 300 360
#     4  12  21  37  60  90 126 161 198 248 313 372
#     4  11  24  41  64  90 122 164 209 254 301 364
#
# _framework density 19.886396999999999
#
# number of rings (size 3 to 8) (size 9 to 14) (size 15 to 20)
#    0.000    1.714    2.857    3.000    0.000    2.571 
#    0.000    4.286    0.000    3.429    0.000    0.000 
#    0.000    0.000    0.000    0.000    0.000    0.000 
#
# Total GULP energy -693931.827826 kJ/mol
# GULP energy per Si atom -12391.639783 kJ/mol
# Density = 1.984113 g / cm^3
# Si number density = 19.886397 Si / 1000 Ang^3
#
#
#
# Elastic Constant Matrix: (Units=GPa)
#
#
# Indices 1 2 3 4 5 6 
#
# 1 70.9351 16.8957 49.3975 0.0000 0.0000 0.0000
# 2 16.8957 70.9351 49.3975 0.0000 0.0000 0.0000
# 3 49.3975 49.3975 196.5101 0.0000 0.0000 0.0000
# 4 0.0000 0.0000 0.0000 30.1770 0.0000 0.0000
# 5 0.0000 0.0000 0.0000 0.0000 30.1770 0.0000
# 6 0.0000 0.0000 0.0000 0.0000 0.0000 12.7286
#
#
#
# Elastic Compliance Matrix: (Units=1/GPa)
#
#
# Indices 1 2 3 4 5 6 
#
# 1 0.017189 -0.001316 -0.003990 0.000000 0.000000 0.000000
# 2 -0.001316 0.017189 -0.003990 0.000000 0.000000 0.000000
# 3 -0.003990 -0.003990 0.007095 0.000000 0.000000 0.000000
# 4 0.000000 0.000000 0.000000 0.033138 0.000000 0.000000
# 5 0.000000 0.000000 0.000000 0.000000 0.033138 0.000000
# 6 0.000000 0.000000 0.000000 0.000000 0.000000 0.078563
#
#
# Mechanical properties :
#
#
# Convention : Reuss Voigt Hill
#
# Bulk Modulus (GPa) = 43.70316 63.30682 53.50499
# Shear Modulus (GPa) = 23.52583 29.46249 26.49416
#
# Velocity S-wave (km/s) = 3.44322 3.85325 3.65399
# Velocity P-wave (km/s) = 6.15076 7.19028 6.69074
#
# Compressibility (1/GPa) = 0.02288164
#
# Stress axis : x y z
#
# Youngs Moduli (GPa) = 58.17510 58.17510 140.94619
#
# Poissons Ratio (x) = 0.07653 0.56242
# Poissons Ratio (y) = 0.07653 0.56242
# Poissons Ratio (z) = 0.23214 0.23214
#
# Static dielectric constant tensor:
#      x y z
#    x 3.622710 0.000000 0.000000 
#    y 0.000000 3.622710 0.000000 
#    z 0.000000 0.000000 4.009580 
# 
# 
# High freq. dielectric constant tensor:
#      x y z
#    x 1.753950 0.000000 0.000000 
#    y 0.000000 1.753950 0.000000 
#    z 0.000000 0.000000 1.802070 
# 
# From -- ./inp_files/8594.got.cif
#   From: 2010.03.12/outbox.cif.g09.slc.cpg/sg134_5_cif.got.tgz:8594.got - 2010.04.06 18:17:22.
