data_PCOD8317863
_publ_section_title
;
Structure prediction by ZEFSAII (Michael W. Deem and Ramdas Pophale) SiO2 
 PCOD8317863
Probable space group: P 42/M N M
;
_chemical_formula_sum "Si O2"
_cell_formula_units_Z 88
_cell_length_a 17.472780
_cell_length_b 17.472780
_cell_length_c 15.885053
_cell_angle_alpha 90.000000
_cell_angle_beta 90.000000
_cell_angle_gamma 90.000000
_cell_volume 4849.675561
_symmetry_space_group_name_H-M "P 42/M N M"
_symmetry_group_IT_number 136
_symmetry_cell_setting 'tetragonal'
loop_
_space_group_symop_operation_xyz
x,y,z
1/2-y,1/2+x,1/2+z
-x,-y,z
1/2+y,1/2-x,1/2+z
1/2+x,1/2-y,1/2-z
1/2-x,1/2+y,1/2-z
y,x,-z
-y,-x,-z
-x,-y,-z
1/2+y,1/2-x,1/2-z
x,y,-z
1/2-y,1/2+x,1/2-z
1/2-x,1/2+y,1/2+z
1/2+x,1/2-y,1/2+z
-y,-x,z
y,x,z
loop_
_atom_site_type_symbol
_atom_site_label
_atom_site_fract_x
_atom_site_fract_y
_atom_site_fract_z
Si Si1 0.540390 0.766926 0.096303
Si Si2 0.875523 0.001195 0.672859
Si Si3 0.002935 0.871809 0.000000
Si Si4 0.526001 0.281336 0.336267
Si Si5 0.815802 0.815802 0.905037
Si Si6 0.873379 0.504274 0.242603
Si Si7 0.690664 0.690664 0.907003
O O1 0.484422 0.693830 0.107208
O O2 0.512304 0.839368 0.148845
O O3 0.618816 0.732134 0.137865
O O4 0.548703 0.793740 0.000000
O O5 0.936006 0.936006 0.656487
O O6 0.842818 0.997443 0.766606
O O7 0.915922 0.084079 0.658165
O O8 0.009534 0.814163 0.921536
O O9 0.928465 0.928465 0.000000
O O10 0.078707 0.921294 0.000000
O O11 0.616810 0.278880 0.350127
O O12 0.498712 0.195185 0.311627
O O13 0.753528 0.753528 0.918677
O O14 0.842709 0.842709 0.000000
O O15 0.922470 0.426543 0.240269
O O16 0.662892 0.662892 0.000000
#
# Coordination Sequence:
#
# PCOD8317863 Si02
#       7
#    16  16   8  16   8  16   8
#     4  10  20  37  57  83 111 144 186 231 283 334
#     4  10  19  31  52  81 114 148 183 222 272 336
#     4  11  20  34  58  91 128 158 190 235 290 358
#     4  11  19  34  56  82 115 152 192 235 288 343
#     4  11  18  30  50  83 113 143 190 237 288 340
#     4  10  23  43  60  83 112 149 197 246 291 339
#     4   9  18  30  51  78 107 138 182 238 280 325
#
# _framework density 18.145544000000001
#
# number of rings (size 3 to 8) (size 9 to 14) (size 15 to 20)
#    0.000    1.727    3.636    1.636    0.000    1.818 
#    3.273    1.818    0.000    0.000    0.000    0.000 
#    0.000    0.000    0.000    0.000    0.000    0.000 
#
# Total GULP energy -1090377.950477 kJ/mol
# GULP energy per Si atom -12390.658528 kJ/mol
# Density = 1.810424 g / cm^3
# Si number density = 18.145544 Si / 1000 Ang^3
#
#
#
# Elastic Constant Matrix: (Units=GPa)
#
#
# Indices 1 2 3 4 5 6 
#
# 1 95.3162 57.7451 45.3974 0.0000 0.0000 0.0000
# 2 57.7451 95.3161 45.3974 0.0000 0.0000 0.0000
# 3 45.3974 45.3974 96.0790 0.0000 0.0000 0.0000
# 4 0.0000 0.0000 0.0000 21.5481 0.0000 0.0000
# 5 0.0000 0.0000 0.0000 0.0000 21.5475 0.0000
# 6 0.0000 0.0000 0.0000 0.0000 0.0000 25.7573
#
#
#
# Elastic Compliance Matrix: (Units=1/GPa)
#
#
# Indices 1 2 3 4 5 6 
#
# 1 0.017847 -0.008769 -0.004289 0.000000 0.000000 0.000000
# 2 -0.008769 0.017847 -0.004289 0.000000 0.000000 0.000000
# 3 -0.004289 -0.004289 0.014461 0.000000 0.000000 0.000000
# 4 0.000000 0.000000 0.000000 0.046408 0.000000 0.000000
# 5 0.000000 0.000000 0.000000 0.000000 0.046409 0.000000
# 6 0.000000 0.000000 0.000000 0.000000 0.000000 0.038824
#
#
# Mechanical properties :
#
#
# Convention : Reuss Voigt Hill
#
# Bulk Modulus (GPa) = 64.68341 64.86567 64.77454
# Shear Modulus (GPa) = 22.55864 22.98203 22.77033
#
# Velocity S-wave (km/s) = 3.52974 3.56271 3.54626
# Velocity P-wave (km/s) = 7.23439 7.26284 7.24863
#
# Compressibility (1/GPa) = 0.01545992
#
# Stress axis : x y z
#
# Youngs Moduli (GPa) = 56.03206 56.03198 69.14959
#
# Poissons Ratio (x) = 0.49136 0.29660
# Poissons Ratio (y) = 0.49136 0.29660
# Poissons Ratio (z) = 0.24033 0.24033
#
# Static dielectric constant tensor:
#      x y z
#    x 3.463010 0.000000 0.000000 
#    y 0.000000 3.463010 0.000000 
#    z 0.000000 0.000000 3.408980 
# 
# 
# High freq. dielectric constant tensor:
#      x y z
#    x 1.706570 0.000000 0.000000 
#    y 0.000000 1.706570 0.000000 
#    z 0.000000 0.000000 1.693240 
# 
# From -- ./inp_files/5081.got.cif
#   From: 2010.03.12/outbox.cif.g09.slc.cpg/sg136_3_cif.got.tgz:5081.got - 2010.04.06 18:39:43.
