data_PCOD8317113
_publ_section_title
;
Structure prediction by ZEFSAII (Michael W. Deem and Ramdas Pophale) SiO2 
 PCOD8317113
Probable space group: P 42/N N M
;
_chemical_formula_sum "Si O2"
_cell_formula_units_Z 128
_cell_length_a 16.717124
_cell_length_b 16.717124
_cell_length_c 24.870361
_cell_angle_alpha 90.000000
_cell_angle_beta 90.000000
_cell_angle_gamma 90.000000
_cell_volume 6950.326666
_symmetry_space_group_name_H-M "P 42/N N M"
_symmetry_group_IT_number 134
_space_group.IT_coordinate_system_code '2'
_symmetry_cell_setting 'tetragonal'
loop_
_space_group_symop_operation_xyz
x,y,z
1/2-y,x,1/2+z
1/2-x,1/2-y,z
y,1/2-x,1/2+z
x,1/2-y,1/2-z
1/2-x,y,1/2-z
y,x,-z
1/2-y,1/2-x,-z
-x,-y,-z
1/2+y,-x,1/2-z
1/2+x,1/2+y,-z
-y,1/2+x,1/2-z
-x,1/2+y,1/2+z
1/2+x,-y,1/2+z
-y,-x,z
1/2+y,1/2+x,z
loop_
_atom_site_type_symbol
_atom_site_label
_atom_site_fract_x
_atom_site_fract_y
_atom_site_fract_z
Si Si1 0.650728 0.478042 0.898751
Si Si2 0.705723 0.825899 0.134686
Si Si3 0.043861 0.829503 0.366302
Si Si4 0.145900 0.079747 0.452604
Si Si5 0.077445 0.173016 0.720074
Si Si6 0.478393 0.108126 0.390269
Si Si7 0.813371 0.946596 0.003650
Si Si8 0.064675 0.314595 0.292365
O O1 0.596276 0.403725 0.882953
O O2 0.733122 0.462774 0.866207
O O3 0.607353 0.561952 0.883294
O O4 0.665818 0.480544 0.962959
O O5 0.750000 0.750000 0.108842
O O6 0.654972 0.867798 0.087561
O O7 0.646327 0.794372 0.180747
O O8 0.770955 0.881327 0.162958
O O9 0.134184 0.865817 0.364590
O O10 0.002695 0.862048 0.420616
O O11 0.995811 0.863589 0.314508
O O12 0.079774 0.079774 0.500000
O O13 0.228920 0.088839 0.485205
O O14 0.042811 0.250000 0.750000
O O15 0.114264 0.107832 0.760178
O O16 0.476749 0.179889 0.434505
O O17 0.501370 0.144614 0.331324
O O18 0.545148 0.045148 0.408952
O O19 0.877600 0.877600 0.000000
O O20 0.028834 0.250000 0.250000
#
# Coordination Sequence:
#
# PCOD8317113 Si02
#       8
#    16  16  16  16  16  16  16  16
#     4   9  18  33  52  73  96 124 162 207 258 306
#     4  10  19  27  47  74 104 132 160 193 242 303
#     4  10  22  37  51  68  92 129 177 217 248 288
#     4  10  21  31  47  75 105 137 164 196 244 298
#     4  10  18  32  48  68  94 127 163 202 251 296
#     4  10  19  32  51  75 105 137 165 203 258 314
#     4   9  18  29  47  74 107 133 156 191 243 313
#     4  10  20  30  47  72 102 135 168 204 241 297
#
# _framework density 18.416401
#
# number of rings (size 3 to 8) (size 9 to 14) (size 15 to 20)
#    0.000    2.250    1.250    1.875    7.000    2.500 
#    0.000    0.625    0.000    0.000    0.000    0.875 
#    0.000    4.250    0.000    0.000    0.000    0.000 
#
# Total GULP energy -1585678.018024 kJ/mol
# GULP energy per Si atom -12388.109516 kJ/mol
# Density = 1.837448 g / cm^3
# Si number density = 18.416401 Si / 1000 Ang^3
#
#
#
# Elastic Constant Matrix: (Units=GPa)
#
#
# Indices 1 2 3 4 5 6 
#
# 1 50.0102 19.2589 24.3591 0.0000 0.0000 0.0000
# 2 19.2589 50.0102 24.3591 0.0000 0.0000 0.0000
# 3 24.3591 24.3591 115.5303 0.0000 0.0000 0.0000
# 4 0.0000 0.0000 0.0000 16.1899 0.0000 0.0000
# 5 0.0000 0.0000 0.0000 0.0000 16.1899 0.0000
# 6 0.0000 0.0000 0.0000 0.0000 0.0000 17.1356
#
#
#
# Elastic Compliance Matrix: (Units=1/GPa)
#
#
# Indices 1 2 3 4 5 6 
#
# 1 0.024734 -0.007784 -0.003574 0.000000 0.000000 0.000000
# 2 -0.007784 0.024734 -0.003574 0.000000 0.000000 0.000000
# 3 -0.003574 -0.003574 0.010163 0.000000 0.000000 0.000000
# 4 0.000000 0.000000 0.000000 0.061767 0.000000 0.000000
# 5 0.000000 0.000000 0.000000 0.000000 0.061767 0.000000
# 6 0.000000 0.000000 0.000000 0.000000 0.000000 0.058358
#
#
# Mechanical properties :
#
#
# Convention : Reuss Voigt Hill
#
# Bulk Modulus (GPa) = 33.59374 39.05607 36.32490
# Shear Modulus (GPa) = 17.77397 19.74133 18.75765
#
# Velocity S-wave (km/s) = 3.11000 3.27761 3.19490
# Velocity P-wave (km/s) = 5.58363 5.96463 5.77728
#
# Compressibility (1/GPa) = 0.02976745
#
# Stress axis : x y z
#
# Youngs Moduli (GPa) = 40.42941 40.42941 98.39815
#
# Poissons Ratio (x) = 0.31472 0.35166
# Poissons Ratio (y) = 0.31472 0.35166
# Poissons Ratio (z) = 0.14449 0.14449
#
# Static dielectric constant tensor:
#      x y z
#    x 3.135090 0.000000 0.000000 
#    y 0.000000 3.135090 0.000000 
#    z 0.000000 0.000000 3.756830 
# 
# 
# High freq. dielectric constant tensor:
#      x y z
#    x 1.678510 0.000000 0.000000 
#    y 0.000000 1.678510 0.000000 
#    z 0.000000 0.000000 1.736000 
# 
# From -- ./inp_files/10300.got.cif
#   From: 2010.03.12/outbox.cif.g09.slc.cpg/sg134_6_cif.got.tgz:10300.got - 2010.04.06 18:17:22.
