data_PCOD8317040
_publ_section_title
;
Structure prediction by ZEFSAII (Michael W. Deem and Ramdas Pophale) SiO2 
 PCOD8317040
Probable space group: P 42/N B C
;
_chemical_formula_sum "Si O2"
_cell_formula_units_Z 84
_cell_length_a 13.814107
_cell_length_b 13.814107
_cell_length_c 22.300039
_cell_angle_alpha 90.000000
_cell_angle_beta 90.000000
_cell_angle_gamma 90.000000
_cell_volume 4255.506457
_symmetry_space_group_name_H-M "P 42/N B C"
_symmetry_group_IT_number 133
_space_group.IT_coordinate_system_code '2'
_symmetry_cell_setting 'tetragonal'
loop_
_space_group_symop_operation_xyz
x,y,z
1/2-y,x,1/2+z
1/2-x,1/2-y,z
y,1/2-x,1/2+z
x,1/2-y,-z
1/2-x,y,-z
y,x,1/2-z
1/2-y,1/2-x,1/2-z
-x,-y,-z
1/2+y,-x,1/2-z
1/2+x,1/2+y,-z
-y,1/2+x,1/2-z
-x,1/2+y,z
1/2+x,-y,z
-y,-x,1/2+z
1/2+y,1/2+x,1/2+z
loop_
_atom_site_type_symbol
_atom_site_label
_atom_site_fract_x
_atom_site_fract_y
_atom_site_fract_z
Si Si1 0.096313 0.027630 0.070488
Si Si2 0.417327 0.559174 0.863114
Si Si3 0.750000 0.750000 0.750000
Si Si4 0.060411 0.260152 0.668783
Si Si5 0.933610 0.362482 0.985128
Si Si6 0.105956 0.689233 0.246065
O O1 0.190390 0.073471 0.103019
O O2 0.019239 0.007489 0.123640
O O3 0.047124 0.103933 0.023067
O O4 0.117959 0.925994 0.037192
O O5 0.348732 0.473648 0.841633
O O6 0.377440 0.614472 0.922838
O O7 0.434778 0.641302 0.813816
O O8 0.753997 0.842036 0.793336
O O9 0.976683 0.318002 0.703819
O O10 0.926714 0.250000 0.000000
O O11 0.132152 0.800022 0.230316
#
# Coordination Sequence:
#
# PCOD8317040 Si02
#       6
#    16  16   4  16  16  16
#     4   9  21  39  58  89 121 158 201 250 308 358
#     4   9  20  38  60  90 118 161 195 254 303 354
#     4  12  28  40  52  94 116 180 204 240 310 388
#     4  11  23  39  60  85 128 151 214 244 297 383
#     4   9  20  40  63  90 118 158 207 250 310 360
#     4   9  19  35  59  91 118 151 196 251 317 360
#
# _framework density 19.739132000000001
#
# number of rings (size 3 to 8) (size 9 to 14) (size 15 to 20)
#    1.143    1.333    0.000    1.143    2.667    5.333 
#    0.000    0.952    0.000    0.000    0.000    0.000 
#    0.000    0.000    0.000    0.000    0.000    0.000 
#
# Total GULP energy -1040796.497045 kJ/mol
# GULP energy per Si atom -12390.434489 kJ/mol
# Density = 1.969420 g / cm^3
# Si number density = 19.739132 Si / 1000 Ang^3
#
#
#
# Elastic Constant Matrix: (Units=GPa)
#
#
# Indices 1 2 3 4 5 6 
#
# 1 56.8073 8.4230 8.4319 0.0000 0.0000 0.0000
# 2 8.4230 56.8073 8.4319 0.0000 0.0000 0.0000
# 3 8.4319 8.4319 52.5725 0.0000 0.0000 0.0000
# 4 0.0000 0.0000 0.0000 34.7659 0.0000 0.0000
# 5 0.0000 0.0000 0.0000 0.0000 34.7659 0.0000
# 6 0.0000 0.0000 0.0000 0.0000 0.0000 17.7114
#
#
#
# Elastic Compliance Matrix: (Units=1/GPa)
#
#
# Indices 1 2 3 4 5 6 
#
# 1 0.018331 -0.002337 -0.002565 0.000000 0.000000 0.000000
# 2 -0.002337 0.018331 -0.002565 0.000000 0.000000 0.000000
# 3 -0.002565 -0.002565 0.019844 0.000000 0.000000 0.000000
# 4 0.000000 0.000000 0.000000 0.028764 0.000000 0.000000
# 5 0.000000 0.000000 0.000000 0.000000 0.028764 0.000000
# 6 0.000000 0.000000 0.000000 0.000000 0.000000 0.056461
#
#
# Mechanical properties :
#
#
# Convention : Reuss Voigt Hill
#
# Bulk Modulus (GPa) = 24.05548 24.08453 24.07000
# Shear Modulus (GPa) = 25.08961 26.84200 25.96580
#
# Velocity S-wave (km/s) = 3.56906 3.69160 3.63085
# Velocity P-wave (km/s) = 5.40346 5.51348 5.45875
#
# Compressibility (1/GPa) = 0.04157056
#
# Stress axis : x y z
#
# Youngs Moduli (GPa) = 54.55346 54.55346 50.39265
#
# Poissons Ratio (x) = 0.12750 0.12926
# Poissons Ratio (y) = 0.12750 0.12926
# Poissons Ratio (z) = 0.13994 0.13994
#
# Static dielectric constant tensor:
#      x y z
#    x 3.386000 0.000000 0.000000 
#    y 0.000000 3.386000 0.000000 
#    z 0.000000 0.000000 3.653930 
# 
# 
# High freq. dielectric constant tensor:
#      x y z
#    x 1.755560 0.000000 0.000000 
#    y 0.000000 1.755560 0.000000 
#    z 0.000000 0.000000 1.775890 
# 
# From -- ./inp_files/6398.got.cif
#   From: 2010.03.12/outbox.cif.g09.slc.cpg/sg133_4_cif.got.tgz:6398.got - 2010.04.06 18:08:06.
