data_PCOD8317722
_publ_section_title
;
Structure prediction by ZEFSAII (Michael W. Deem and Ramdas Pophale) SiO2 
 PCOD8317722
Probable space group: P 42/M N M
;
_chemical_formula_sum "Si O2"
_cell_formula_units_Z 88
_cell_length_a 20.503576
_cell_length_b 20.503576
_cell_length_c 13.367057
_cell_angle_alpha 90.000000
_cell_angle_beta 90.000000
_cell_angle_gamma 90.000000
_cell_volume 5619.465700
_symmetry_space_group_name_H-M "P 42/M N M"
_symmetry_group_IT_number 136
_symmetry_cell_setting 'tetragonal'
loop_
_space_group_symop_operation_xyz
x,y,z
1/2-y,1/2+x,1/2+z
-x,-y,z
1/2+y,1/2-x,1/2+z
1/2+x,1/2-y,1/2-z
1/2-x,1/2+y,1/2-z
y,x,-z
-y,-x,-z
-x,-y,-z
1/2+y,1/2-x,1/2-z
x,y,-z
1/2-y,1/2+x,1/2-z
1/2-x,1/2+y,1/2+z
1/2+x,1/2-y,1/2+z
-y,-x,z
y,x,z
loop_
_atom_site_type_symbol
_atom_site_label
_atom_site_fract_x
_atom_site_fract_y
_atom_site_fract_z
Si Si1 0.265434 0.627703 0.702226
Si Si2 0.948970 0.948970 0.881161
Si Si3 0.816040 0.073974 0.299091
Si Si4 0.503667 0.309546 0.614236
Si Si5 0.279122 0.829770 0.388378
Si Si6 0.066865 0.171880 0.386167
O O1 0.324664 0.675337 0.668701
O O2 0.261136 0.564595 0.629281
O O3 0.196771 0.664934 0.686893
O O4 0.274460 0.603335 0.816447
O O5 0.968426 0.877964 0.843290
O O6 0.950101 0.950101 0.000000
O O7 0.000000 0.000000 0.835482
O O8 0.876173 0.123828 0.302624
O O9 0.750399 0.102753 0.347954
O O10 0.795122 0.058351 0.184230
O O11 0.836089 0.008746 0.357912
O O12 0.479687 0.310703 0.500000
O O13 0.307947 0.840336 0.500000
O O14 0.221023 0.778978 0.392900
O O15 0.073270 0.196786 0.500000
O O16 0.101533 0.101533 0.372842
#
# Coordination Sequence:
#
# PCOD8317722 Si02
#       6
#    16   8  16  16  16  16
#     4   9  16  28  46  65  81 105 149 195 231 262
#     4   9  16  24  36  56  83 117 149 175 211 255
#     4  10  20  30  41  61  91 124 156 183 214 261
#     4  10  18  28  42  61  87 116 149 189 226 263
#     4   9  17  29  45  62  82 110 146 189 229 262
#     4   9  18  31  45  62  87 118 151 185 218 259
#
# _framework density 15.659852000000001
#
# number of rings (size 3 to 8) (size 9 to 14) (size 15 to 20)
#    0.000    2.636    0.909    1.636    1.273    3.273 
#    0.000    1.818    0.000    3.273    0.000    0.000 
#    0.000   11.636    0.000   42.182    0.000    2.909 
#
# Total GULP energy -1090722.789992 kJ/mol
# GULP energy per Si atom -12394.577159 kJ/mol
# Density = 1.562421 g / cm^3
# Si number density = 15.659852 Si / 1000 Ang^3
#
#
#
# Elastic Constant Matrix: (Units=GPa)
#
#
# Indices 1 2 3 4 5 6 
#
# 1 63.5247 51.2222 41.3960 0.0000 0.0000 0.0000
# 2 51.2222 63.5247 41.3960 0.0000 0.0000 0.0000
# 3 41.3960 41.3960 108.6766 0.0000 0.0000 0.0000
# 4 0.0000 0.0000 0.0000 20.1859 0.0000 0.0000
# 5 0.0000 0.0000 0.0000 0.0000 20.1859 0.0000
# 6 0.0000 0.0000 0.0000 0.0000 0.0000 25.9230
#
#
#
# Elastic Compliance Matrix: (Units=1/GPa)
#
#
# Indices 1 2 3 4 5 6 
#
# 1 0.046651 -0.034633 -0.004578 0.000000 0.000000 0.000000
# 2 -0.034633 0.046651 -0.004578 0.000000 0.000000 0.000000
# 3 -0.004578 -0.004578 0.012689 0.000000 0.000000 0.000000
# 4 0.000000 0.000000 0.000000 0.049539 0.000000 0.000000
# 5 0.000000 0.000000 0.000000 0.000000 0.049539 0.000000
# 6 0.000000 0.000000 0.000000 0.000000 0.000000 0.038576
#
#
# Mechanical properties :
#
#
# Convention : Reuss Voigt Hill
#
# Bulk Modulus (GPa) = 54.30734 55.97273 55.14003
# Shear Modulus (GPa) = 14.82093 20.03975 17.43034
#
# Velocity S-wave (km/s) = 3.07975 3.58116 3.33987
# Velocity P-wave (km/s) = 6.88484 7.27461 7.08241
#
# Compressibility (1/GPa) = 0.01841372
#
# Stress axis : x y z
#
# Youngs Moduli (GPa) = 21.43577 21.43577 78.80859
#
# Poissons Ratio (x) = 0.74239 0.36076
# Poissons Ratio (y) = 0.74239 0.36076
# Poissons Ratio (z) = 0.09813 0.09813
#
# Static dielectric constant tensor:
#      x y z
#    x 2.874940 0.000000 0.000000 
#    y 0.000000 2.874940 0.000000 
#    z 0.000000 0.000000 3.125710 
# 
# 
# High freq. dielectric constant tensor:
#      x y z
#    x 1.570570 0.000000 0.000000 
#    y 0.000000 1.570570 0.000000 
#    z 0.000000 0.000000 1.612080 
# 
# From -- ./inp_files/5027.got.cif
#   From: 2010.03.12/outbox.cif.g09.slc.cpg/sg136_3_cif.got.tgz:5027.got - 2010.04.06 18:39:43.
