data_PCOD8317357
_publ_section_title
;
Structure prediction by ZEFSAII (Michael W. Deem and Ramdas Pophale) SiO2 
 PCOD8317357
Probable space group: P 42/M B C
;
_chemical_formula_sum "Si O2"
_cell_formula_units_Z 96
_cell_length_a 28.983874
_cell_length_b 28.983874
_cell_length_c 9.085558
_cell_angle_alpha 90.000000
_cell_angle_beta 90.000000
_cell_angle_gamma 90.000000
_cell_volume 7632.458846
_symmetry_space_group_name_H-M "P 42/M B C"
_symmetry_group_IT_number 135
_symmetry_cell_setting 'tetragonal'
loop_
_space_group_symop_operation_xyz
x,y,z
-y,x,1/2+z
-x,-y,z
y,-x,1/2+z
1/2+x,1/2-y,-z
1/2-x,1/2+y,-z
1/2+y,1/2+x,1/2-z
1/2-y,1/2-x,1/2-z
-x,-y,-z
y,-x,1/2-z
x,y,-z
-y,x,1/2-z
1/2-x,1/2+y,z
1/2+x,1/2-y,z
1/2-y,1/2-x,1/2+z
1/2+y,1/2+x,1/2+z
loop_
_atom_site_type_symbol
_atom_site_label
_atom_site_fract_x
_atom_site_fract_y
_atom_site_fract_z
Si Si1 0.748286 0.312233 0.331660
Si Si2 0.811017 0.113396 0.170306
Si Si3 0.878531 0.038413 0.833717
Si Si4 0.172160 0.267511 0.337971
Si Si5 0.317228 0.624171 0.825830
Si Si6 0.123583 0.054640 0.329089
O O1 0.794269 0.294269 0.250000
O O2 0.760398 0.324184 0.500000
O O3 0.709475 0.272953 0.321874
O O4 0.730242 0.358271 0.249203
O O5 0.756577 0.122953 0.206658
O O6 0.840482 0.142322 0.286055
O O7 0.826809 0.060197 0.185534
O O8 0.820983 0.130019 0.000000
O O9 0.885945 0.997461 0.719971
O O10 0.916063 0.077607 0.797892
O O11 0.884962 0.019961 0.000000
O O12 0.186864 0.313137 0.250000
O O13 0.168949 0.287292 0.500000
O O14 0.332668 0.574486 0.761669
O O15 0.310222 0.621054 0.000000
O O16 0.136489 0.055809 0.500000
#
# Coordination Sequence:
#
# PCOD8317357 Si02
#       6
#    16  16  16  16  16  16
#     4   9  15  23  34  50  71  91 110 130 154 186
#     4   8  15  27  38  49  68  89 106 130 164 199
#     4   9  18  31  43  53  65  83 108 138 176 220
#     4   8  13  20  31  47  67  88 106 124 148 181
#     4  10  17  25  38  53  68  87 109 131 160 200
#     4  10  20  32  43  54  68  84 105 139 180 218
#
# _framework density 12.577859999999999
#
# number of rings (size 3 to 8) (size 9 to 14) (size 15 to 20)
#    0.000    3.000    0.000    4.500    0.000    7.667 
#    0.000    1.667    0.000    0.000    0.000    0.000 
#    0.000    0.000    0.000    0.000    0.000    0.000 
#
# Total GULP energy -1189262.969504 kJ/mol
# GULP energy per Si atom -12388.155932 kJ/mol
# Density = 1.254923 g / cm^3
# Si number density = 12.577860 Si / 1000 Ang^3
#
#
#
# Elastic Constant Matrix: (Units=GPa)
#
#
# Indices 1 2 3 4 5 6 
#
# 1 41.4006 41.1025 34.7037 0.0000 0.0000 0.0000
# 2 41.1025 41.3999 34.7036 0.0000 0.0000 0.0000
# 3 34.7037 34.7036 88.7930 0.0000 0.0000 0.0000
# 4 0.0000 0.0000 0.0000 18.1394 0.0000 0.0000
# 5 0.0000 0.0000 0.0000 0.0000 18.1396 0.0000
# 6 0.0000 0.0000 0.0000 0.0000 0.0000 13.3813
#
#
#
# Elastic Compliance Matrix: (Units=1/GPa)
#
#
# Indices 1 2 3 4 5 6 
#
# 1 1.688262 -1.670220 -0.007054 0.000000 0.000000 0.000000
# 2 -1.670220 1.688294 -0.007061 0.000000 0.000000 0.000000
# 3 -0.007054 -0.007061 0.016779 0.000000 0.000000 0.000000
# 4 0.000000 0.000000 0.000000 0.055129 0.000000 0.000000
# 5 0.000000 0.000000 0.000000 0.000000 0.055128 0.000000
# 6 0.000000 0.000000 0.000000 0.000000 0.000000 0.074731
#
#
# Mechanical properties :
#
#
# Convention : Reuss Voigt Hill
#
# Bulk Modulus (GPa) = 40.54434 43.62368 42.08401
# Shear Modulus (GPa) = 0.71889 14.00432 7.36160
#
# Velocity S-wave (km/s) = 0.75683 3.34040 2.42189
# Velocity P-wave (km/s) = 5.75051 7.04528 6.43056
#
# Compressibility (1/GPa) = 0.02466435
#
# Stress axis : x y z
#
# Youngs Moduli (GPa) = 0.59233 0.59231 59.59781
#
# Poissons Ratio (x) = 0.98929 0.42043
# Poissons Ratio (y) = 0.98931 0.42085
# Poissons Ratio (z) = 0.00418 0.00418
#
# Static dielectric constant tensor:
#      x y z
#    x 2.488620 0.000000 0.000000 
#    y 0.000000 2.488630 0.000000 
#    z 0.000000 0.000000 2.630420 
# 
# 
# High freq. dielectric constant tensor:
#      x y z
#    x 1.440620 0.000000 0.000000 
#    y 0.000000 1.440620 0.000000 
#    z 0.000000 0.000000 1.490880 
# 
# From -- ./inp_files/1337.got.cif
#   From: 2010.03.12/outbox.cif.g09.slc.cpg/sg135_1_cif.got.tgz:1337.got - 2010.04.06 18:31:24.
