data_PCOD8317953
_publ_section_title
;
Structure prediction by ZEFSAII (Michael W. Deem and Ramdas Pophale) SiO2 
 PCOD8317953
Probable space group: P 42/M N M
;
_chemical_formula_sum "Si O2"
_cell_formula_units_Z 68
_cell_length_a 12.207690
_cell_length_b 12.207690
_cell_length_c 23.938652
_cell_angle_alpha 90.000000
_cell_angle_beta 90.000000
_cell_angle_gamma 90.000000
_cell_volume 3567.522132
_symmetry_space_group_name_H-M "P 42/M N M"
_symmetry_group_IT_number 136
_symmetry_cell_setting 'tetragonal'
loop_
_space_group_symop_operation_xyz
x,y,z
1/2-y,1/2+x,1/2+z
-x,-y,z
1/2+y,1/2-x,1/2+z
1/2+x,1/2-y,1/2-z
1/2-x,1/2+y,1/2-z
y,x,-z
-y,-x,-z
-x,-y,-z
1/2+y,1/2-x,1/2-z
x,y,-z
1/2-y,1/2+x,1/2-z
1/2-x,1/2+y,1/2+z
1/2+x,1/2-y,1/2+z
-y,-x,z
y,x,z
loop_
_atom_site_type_symbol
_atom_site_label
_atom_site_fract_x
_atom_site_fract_y
_atom_site_fract_z
Si Si1 0.194048 0.629661 0.303270
Si Si2 0.627107 0.967154 0.500000
Si Si3 0.086788 0.086788 0.398498
Si Si4 0.808546 0.493599 0.878801
Si Si5 0.703508 0.296493 0.000000
Si Si6 0.616592 0.793966 0.315884
O O1 0.286636 0.713365 0.323220
O O2 0.160284 0.648073 0.239699
O O3 0.243145 0.508322 0.308829
O O4 0.090398 0.641799 0.342949
O O5 0.678275 0.022126 0.555493
O O6 0.667016 0.835595 0.500000
O O7 0.500000 0.000000 0.500000
O O8 0.023976 0.180089 0.362487
O O9 0.148919 0.148919 0.446884
O O10 0.000000 0.000000 0.421714
O O11 0.874584 0.381972 0.865753
O O12 0.686699 0.686699 0.330927
#
# Coordination Sequence:
#
# PCOD8317953 Si02
#       6
#    16   8   8  16   4  16
#     4  11  23  38  58  84 115 156 196 239 291 345
#     4  10  20  35  57  84 117 152 190 249 291 343
#     4  10  19  34  56  84 121 151 182 236 289 348
#     4  11  21  38  58  88 116 151 197 236 294 351
#     4   8  19  32  52  82 116 152 195 224 295 356
#     4  11  22  38  59  84 116 153 196 241 288 344
#
# _framework density 19.060848
#
# number of rings (size 3 to 8) (size 9 to 14) (size 15 to 20)
#    0.000    1.412    3.529    3.000    0.000    0.471 
#    0.000    1.765    0.000    0.000    0.000    0.000 
#    0.000    5.647    0.000    0.000    0.000    0.000 
#
# Total GULP energy -842818.575898 kJ/mol
# GULP energy per Si atom -12394.390822 kJ/mol
# Density = 1.901746 g / cm^3
# Si number density = 19.060848 Si / 1000 Ang^3
#
#
#
# Elastic Constant Matrix: (Units=GPa)
#
#
# Indices 1 2 3 4 5 6 
#
# 1 107.5317 58.5716 8.3125 0.0000 0.0000 0.0000
# 2 58.5716 107.5318 8.3125 0.0000 0.0000 0.0000
# 3 8.3125 8.3125 66.8785 0.0000 0.0000 0.0000
# 4 0.0000 0.0000 0.0000 30.2329 0.0000 0.0000
# 5 0.0000 0.0000 0.0000 0.0000 30.2323 0.0000
# 6 0.0000 0.0000 0.0000 0.0000 0.0000 25.0770
#
#
#
# Elastic Compliance Matrix: (Units=1/GPa)
#
#
# Indices 1 2 3 4 5 6 
#
# 1 0.013260 -0.007164 -0.000758 0.000000 0.000000 0.000000
# 2 -0.007164 0.013260 -0.000758 0.000000 0.000000 0.000000
# 3 -0.000758 -0.000758 0.015141 0.000000 0.000000 0.000000
# 4 0.000000 0.000000 0.000000 0.033077 0.000000 0.000000
# 5 0.000000 0.000000 0.000000 0.000000 0.033077 0.000000
# 6 0.000000 0.000000 0.000000 0.000000 0.000000 0.039877
#
#
# Mechanical properties :
#
#
# Convention : Reuss Voigt Hill
#
# Bulk Modulus (GPa) = 41.14824 48.03724 44.59274
# Shear Modulus (GPa) = 28.87621 30.89148 29.88385
#
# Velocity S-wave (km/s) = 3.89646 4.03013 3.96386
# Velocity P-wave (km/s) = 6.47131 6.84928 6.66298
#
# Compressibility (1/GPa) = 0.02430238
#
# Stress axis : x y z
#
# Youngs Moduli (GPa) = 75.41201 75.41206 66.04653
#
# Poissons Ratio (x) = 0.54027 0.05004
# Poissons Ratio (y) = 0.54027 0.05004
# Poissons Ratio (z) = 0.05714 0.05714
#
# Static dielectric constant tensor:
#      x y z
#    x 3.636510 0.000000 0.000000 
#    y 0.000000 3.636520 0.000000 
#    z 0.000000 0.000000 3.569760 
# 
# 
# High freq. dielectric constant tensor:
#      x y z
#    x 1.734310 0.000000 0.000000 
#    y 0.000000 1.734310 0.000000 
#    z 0.000000 0.000000 1.741470 
# 
# From -- ./inp_files/8998.got.cif
#   From: 2010.03.12/outbox.cif.g09.slc.cpg/sg136_5_cif.got.tgz:8998.got - 2010.04.06 18:39:43.
