data_PCOD8317265
_publ_section_title
;
Structure prediction by ZEFSAII (Michael W. Deem and Ramdas Pophale) SiO2 
 PCOD8317265
Probable space group: P 42/N N M
;
_chemical_formula_sum "Si O2"
_cell_formula_units_Z 64
_cell_length_a 13.867957
_cell_length_b 13.867957
_cell_length_c 16.538402
_cell_angle_alpha 90.000000
_cell_angle_beta 90.000000
_cell_angle_gamma 90.000000
_cell_volume 3180.669299
_symmetry_space_group_name_H-M "P 42/N N M"
_symmetry_group_IT_number 134
_space_group.IT_coordinate_system_code '2'
_symmetry_cell_setting 'tetragonal'
loop_
_space_group_symop_operation_xyz
x,y,z
1/2-y,x,1/2+z
1/2-x,1/2-y,z
y,1/2-x,1/2+z
x,1/2-y,1/2-z
1/2-x,y,1/2-z
y,x,-z
1/2-y,1/2-x,-z
-x,-y,-z
1/2+y,-x,1/2-z
1/2+x,1/2+y,-z
-y,1/2+x,1/2-z
-x,1/2+y,1/2+z
1/2+x,-y,1/2+z
-y,-x,z
1/2+y,1/2+x,z
loop_
_atom_site_type_symbol
_atom_site_label
_atom_site_fract_x
_atom_site_fract_y
_atom_site_fract_z
Si Si1 0.960009 0.884506 0.418625
Si Si2 0.557530 0.592456 0.906790
Si Si3 0.729579 0.854738 0.157393
Si Si4 0.948709 0.291735 0.659070
O O1 0.894707 0.894707 0.500000
O O2 0.882619 0.880035 0.347493
O O3 0.032597 0.792768 0.408091
O O4 0.018381 0.981620 0.407281
O O5 0.450391 0.549610 0.891287
O O6 0.562539 0.704931 0.884216
O O7 0.633457 0.536049 0.850151
O O8 0.583025 0.583025 0.000000
O O9 0.750000 0.750000 0.116654
O O10 0.750000 0.849750 0.250000
O O11 0.946923 0.250000 0.750000
O O12 0.847005 0.347005 0.641081
#
# Coordination Sequence:
#
# PCOD8317265 Si02
#       4
#    16  16  16  16
#     4  11  24  40  59  87 123 162 200 246 305 365
#     4  10  21  37  60  88 117 156 204 251 299 357
#     4  11  22  36  58  87 116 153 196 239 296 354
#     4  11  22  38  62  93 126 160 199 250 317 382
#
# _framework density 20.121551
#
# number of rings (size 3 to 8) (size 9 to 14) (size 15 to 20)
#    0.000    1.250    2.500    3.750    0.000    4.750 
#    0.000    0.000    0.000    2.250    0.000    1.750 
#    0.000    0.000    0.000    0.000    0.000    0.000 
#
# Total GULP energy -793171.202758 kJ/mol
# GULP energy per Si atom -12393.300043 kJ/mol
# Density = 2.007575 g / cm^3
# Si number density = 20.121551 Si / 1000 Ang^3
#
#
#
# Elastic Constant Matrix: (Units=GPa)
#
#
# Indices 1 2 3 4 5 6 
#
# 1 101.8805 53.9386 38.6453 0.0000 0.0000 0.0000
# 2 53.9386 101.8805 38.6453 0.0000 0.0000 0.0000
# 3 38.6453 38.6453 76.4896 0.0000 0.0000 0.0000
# 4 0.0000 0.0000 0.0000 30.1046 0.0000 0.0000
# 5 0.0000 0.0000 0.0000 0.0000 30.1046 0.0000
# 6 0.0000 0.0000 0.0000 0.0000 0.0000 21.2817
#
#
#
# Elastic Compliance Matrix: (Units=1/GPa)
#
#
# Indices 1 2 3 4 5 6 
#
# 1 0.014711 -0.006147 -0.004327 0.000000 0.000000 0.000000
# 2 -0.006147 0.014711 -0.004327 0.000000 0.000000 0.000000
# 3 -0.004327 -0.004327 0.017446 0.000000 0.000000 0.000000
# 4 0.000000 0.000000 0.000000 0.033218 0.000000 0.000000
# 5 0.000000 0.000000 0.000000 0.000000 0.033218 0.000000
# 6 0.000000 0.000000 0.000000 0.000000 0.000000 0.046989
#
#
# Mechanical properties :
#
#
# Convention : Reuss Voigt Hill
#
# Bulk Modulus (GPa) = 57.91590 60.30101 59.10846
# Shear Modulus (GPa) = 25.55590 26.23292 25.89441
#
# Velocity S-wave (km/s) = 3.56768 3.61463 3.59123
# Velocity P-wave (km/s) = 6.76880 6.88870 6.82901
#
# Compressibility (1/GPa) = 0.01726641
#
# Stress axis : x y z
#
# Youngs Moduli (GPa) = 67.97523 67.97523 57.32042
#
# Poissons Ratio (x) = 0.41787 0.24801
# Poissons Ratio (y) = 0.41787 0.24801
# Poissons Ratio (z) = 0.29412 0.29412
#
# Static dielectric constant tensor:
#      x y z
#    x 3.926710 0.000000 0.000000 
#    y 0.000000 3.926710 0.000000 
#    z 0.000000 0.000000 3.642440 
# 
# 
# High freq. dielectric constant tensor:
#      x y z
#    x 1.781940 0.000000 0.000000 
#    y 0.000000 1.781940 0.000000 
#    z 0.000000 0.000000 1.783880 
# 
# From -- ./inp_files/6091.got.cif
#   From: 2010.03.12/outbox.cif.g09.slc.cpg/sg134_4_cif.got.tgz:6091.got - 2010.04.06 18:17:22.
