data_PCOD8317365
_publ_section_title
;
Structure prediction by ZEFSAII (Michael W. Deem and Ramdas Pophale) SiO2 
 PCOD8317365
Probable space group: P 42/M B C
;
_chemical_formula_sum "Si O2"
_cell_formula_units_Z 112
_cell_length_a 20.778303
_cell_length_b 20.778303
_cell_length_c 16.757664
_cell_angle_alpha 90.000000
_cell_angle_beta 90.000000
_cell_angle_gamma 90.000000
_cell_volume 7234.918255
_symmetry_space_group_name_H-M "P 42/M B C"
_symmetry_group_IT_number 135
_symmetry_cell_setting 'tetragonal'
loop_
_space_group_symop_operation_xyz
x,y,z
-y,x,1/2+z
-x,-y,z
y,-x,1/2+z
1/2+x,1/2-y,-z
1/2-x,1/2+y,-z
1/2+y,1/2+x,1/2-z
1/2-y,1/2-x,1/2-z
-x,-y,-z
y,-x,1/2-z
x,y,-z
-y,x,1/2-z
1/2-x,1/2+y,z
1/2+x,1/2-y,z
1/2-y,1/2-x,1/2+z
1/2+y,1/2+x,1/2+z
loop_
_atom_site_type_symbol
_atom_site_label
_atom_site_fract_x
_atom_site_fract_y
_atom_site_fract_z
Si Si1 0.205148 0.623284 0.406286
Si Si2 0.725381 0.117408 0.236037
Si Si3 0.559212 0.046702 0.411257
Si Si4 0.503941 0.825377 0.816646
Si Si5 0.720129 0.324975 0.732244
Si Si6 0.960601 0.694064 0.411087
Si Si7 0.799841 0.413568 0.831832
O O1 0.213170 0.636947 0.500000
O O2 0.202868 0.546509 0.389483
O O3 0.266798 0.651889 0.358948
O O4 0.138930 0.654446 0.373389
O O5 0.667794 0.167794 0.250000
O O6 0.796324 0.148919 0.245697
O O7 0.723173 0.093985 0.144950
O O8 0.721651 0.055766 0.294717
O O9 0.590392 0.041216 0.500000
O O10 0.533759 0.118073 0.396178
O O11 0.500000 0.000000 0.403734
O O12 0.608356 0.028252 0.342390
O O13 0.550614 0.837233 0.740756
O O14 0.768198 0.268198 0.750000
O O15 0.734865 0.381919 0.795298
O O16 0.939653 0.712238 0.500000
O O17 0.032165 0.722163 0.394712
#
# Coordination Sequence:
#
# PCOD8317365 Si02
#       7
#    16  16  16  16  16  16  16
#     4  10  18  30  47  66  88 117 152 194 231 260
#     4  10  18  32  45  63  89 122 155 188 224 266
#     4  10  19  28  39  62  94 128 158 184 214 254
#     4  10  18  29  44  64  90 122 153 188 221 263
#     4   8  17  31  47  62  83 113 158 195 224 265
#     4  10  19  29  44  65  92 121 152 188 224 262
#     4   9  18  31  45  65  85 116 157 195 224 256
#
# _framework density 15.480479000000001
#
# number of rings (size 3 to 8) (size 9 to 14) (size 15 to 20)
#    0.000    2.429    1.429    3.000    0.000    2.857 
#    0.000    1.429    0.000    2.571    0.000    0.000 
#    0.000   46.286    0.000   23.143    0.000    0.000 
#
# Total GULP energy -1388001.213503 kJ/mol
# GULP energy per Si atom -12392.867978 kJ/mol
# Density = 1.544524 g / cm^3
# Si number density = 15.480479 Si / 1000 Ang^3
#
#
#
# Elastic Constant Matrix: (Units=GPa)
#
#
# Indices 1 2 3 4 5 6 
#
# 1 66.5366 50.4006 40.5351 0.0000 0.0000 0.0000
# 2 50.4006 66.5366 40.5351 0.0000 0.0000 0.0000
# 3 40.5351 40.5351 86.7603 0.0000 0.0000 0.0000
# 4 0.0000 0.0000 0.0000 16.6380 0.0000 0.0000
# 5 0.0000 0.0000 0.0000 0.0000 16.6380 0.0000
# 6 0.0000 0.0000 0.0000 0.0000 0.0000 23.5935
#
#
#
# Elastic Compliance Matrix: (Units=1/GPa)
#
#
# Indices 1 2 3 4 5 6 
#
# 1 0.037311 -0.024662 -0.005909 0.000000 0.000000 0.000000
# 2 -0.024662 0.037311 -0.005909 0.000000 0.000000 0.000000
# 3 -0.005909 -0.005909 0.017048 0.000000 0.000000 0.000000
# 4 0.000000 0.000000 0.000000 0.060103 0.000000 0.000000
# 5 0.000000 0.000000 0.000000 0.000000 0.060103 0.000000
# 6 0.000000 0.000000 0.000000 0.000000 0.000000 0.042385
#
#
# Mechanical properties :
#
#
# Convention : Reuss Voigt Hill
#
# Bulk Modulus (GPa) = 53.45585 53.64166 53.54876
# Shear Modulus (GPa) = 14.99435 17.26475 16.12955
#
# Velocity S-wave (km/s) = 3.11561 3.34317 3.23139
# Velocity P-wave (km/s) = 6.89556 7.04477 6.97057
#
# Compressibility (1/GPa) = 0.01870702
#
# Stress axis : x y z
#
# Youngs Moduli (GPa) = 26.80188 26.80188 58.65814
#
# Poissons Ratio (x) = 0.66100 0.34664
# Poissons Ratio (y) = 0.66100 0.34664
# Poissons Ratio (z) = 0.15839 0.15839
#
# Static dielectric constant tensor:
#      x y z
#    x 2.964940 0.000000 0.000000 
#    y 0.000000 2.964940 0.000000 
#    z 0.000000 0.000000 3.160900 
# 
# 
# High freq. dielectric constant tensor:
#      x y z
#    x 1.567600 0.000000 0.000000 
#    y 0.000000 1.567600 0.000000 
#    z 0.000000 0.000000 1.603140 
# 
# From -- ./inp_files/4687.got.cif
#   From: 2010.03.12/outbox.cif.g09.slc.cpg/sg135_3_cif.got.tgz:4687.got - 2010.04.06 18:31:24.
