data_PCOD8317251
_publ_section_title
;
Structure prediction by ZEFSAII (Michael W. Deem and Ramdas Pophale) SiO2 
 PCOD8317251
Probable space group: P 42/N N M
;
_chemical_formula_sum "Si O2"
_cell_formula_units_Z 56
_cell_length_a 25.292181
_cell_length_b 25.292181
_cell_length_c 4.975458
_cell_angle_alpha 90.000000
_cell_angle_beta 90.000000
_cell_angle_gamma 90.000000
_cell_volume 3182.772718
_symmetry_space_group_name_H-M "P 42/N N M"
_symmetry_group_IT_number 134
_space_group.IT_coordinate_system_code '2'
_symmetry_cell_setting 'tetragonal'
loop_
_space_group_symop_operation_xyz
x,y,z
1/2-y,x,1/2+z
1/2-x,1/2-y,z
y,1/2-x,1/2+z
x,1/2-y,1/2-z
1/2-x,y,1/2-z
y,x,-z
1/2-y,1/2-x,-z
-x,-y,-z
1/2+y,-x,1/2-z
1/2+x,1/2+y,-z
-y,1/2+x,1/2-z
-x,1/2+y,1/2+z
1/2+x,-y,1/2+z
-y,-x,z
1/2+y,1/2+x,z
loop_
_atom_site_type_symbol
_atom_site_label
_atom_site_fract_x
_atom_site_fract_y
_atom_site_fract_z
Si Si1 0.466135 0.750000 0.250000
Si Si2 0.304861 0.611764 0.853776
Si Si3 0.979009 0.346976 0.033643
Si Si4 0.999578 0.413789 0.515152
O O1 0.430842 0.792011 0.416189
O O2 0.501560 0.710880 0.436892
O O3 0.250000 0.637049 0.750000
O O4 0.341570 0.658431 0.969674
O O5 0.335545 0.582519 0.608842
O O6 0.007817 0.366096 0.304823
O O7 0.987658 0.392141 0.811738
O O8 0.053119 0.446881 0.500000
O O9 0.949958 0.449958 0.424267
#
# Coordination Sequence:
#
# PCOD8317251 Si02
#       4
#     8  16  16  16
#     4  10  22  36  54  77  92 140 182 221 268 328
#     4  10  21  35  51  70  95 131 177 229 279 319
#     4  11  21  36  55  73 104 133 174 221 261 319
#     4  11  22  34  53  80 106 135 169 215 276 324
#
# _framework density 17.594722999999998
#
# number of rings (size 3 to 8) (size 9 to 14) (size 15 to 20)
#    0.000    1.429    2.857    3.429    0.000    8.286 
#    0.000    0.000    0.000    0.000    0.000    0.000 
#    0.000    0.000    0.000    0.000    0.000   20.000 
#
# Total GULP energy -693815.530770 kJ/mol
# GULP energy per Si atom -12389.563049 kJ/mol
# Density = 1.755468 g / cm^3
# Si number density = 17.594723 Si / 1000 Ang^3
#
#
#
# Elastic Constant Matrix: (Units=GPa)
#
#
# Indices 1 2 3 4 5 6 
#
# 1 71.7045 48.1644 33.1224 0.0000 0.0000 0.0000
# 2 48.1644 71.7063 33.1238 0.0000 0.0000 0.0000
# 3 33.1224 33.1238 101.2897 0.0000 0.0000 0.0000
# 4 0.0000 0.0000 0.0000 25.8620 0.0000 0.0000
# 5 0.0000 0.0000 0.0000 0.0000 25.8646 0.0000
# 6 0.0000 0.0000 0.0000 0.0000 0.0000 33.0627
#
#
#
# Elastic Compliance Matrix: (Units=1/GPa)
#
#
# Indices 1 2 3 4 5 6 
#
# 1 0.026331 -0.016148 -0.003330 0.000000 0.000000 0.000000
# 2 -0.016148 0.026331 -0.003330 0.000000 0.000000 0.000000
# 3 -0.003330 -0.003330 0.012050 0.000000 0.000000 0.000000
# 4 0.000000 0.000000 0.000000 0.038667 0.000000 0.000000
# 5 0.000000 0.000000 0.000000 0.000000 0.038663 0.000000
# 6 0.000000 0.000000 0.000000 0.000000 0.000000 0.030246
#
#
# Mechanical properties :
#
#
# Convention : Reuss Voigt Hill
#
# Bulk Modulus (GPa) = 52.36611 52.61353 52.48982
# Shear Modulus (GPa) = 22.29470 25.64384 23.96927
#
# Velocity S-wave (km/s) = 3.56353 3.82183 3.69494
# Velocity P-wave (km/s) = 6.83803 7.03158 6.93548
#
# Compressibility (1/GPa) = 0.01909632
#
# Stress axis : x y z
#
# Youngs Moduli (GPa) = 37.97807 37.97861 82.98415
#
# Poissons Ratio (x) = 0.61328 0.27631
# Poissons Ratio (y) = 0.61328 0.27635
# Poissons Ratio (z) = 0.12645 0.12647
#
# Static dielectric constant tensor:
#      x y z
#    x 3.207790 0.000000 0.000000 
#    y 0.000000 3.207780 0.000000 
#    z 0.000000 0.000000 3.528310 
# 
# 
# High freq. dielectric constant tensor:
#      x y z
#    x 1.646250 0.000000 0.000000 
#    y 0.000000 1.646250 0.000000 
#    z 0.000000 0.000000 1.707960 
# 
# From -- ./inp_files/861.got.cif
#   From: 2010.03.12/outbox.cif.g09.slc.cpg/sg134_1_cif.got.tgz:861.got - 2010.04.06 18:17:22.
