data_PCOD8317199
_publ_section_title
;
Structure prediction by ZEFSAII (Michael W. Deem and Ramdas Pophale) SiO2 
 PCOD8317199
Probable space group: P 42/N N M
;
_chemical_formula_sum "Si O2"
_cell_formula_units_Z 84
_cell_length_a 14.641324
_cell_length_b 14.641324
_cell_length_c 20.639790
_cell_angle_alpha 90.000000
_cell_angle_beta 90.000000
_cell_angle_gamma 90.000000
_cell_volume 4424.518108
_symmetry_space_group_name_H-M "P 42/N N M"
_symmetry_group_IT_number 134
_space_group.IT_coordinate_system_code '2'
_symmetry_cell_setting 'tetragonal'
loop_
_space_group_symop_operation_xyz
x,y,z
1/2-y,x,1/2+z
1/2-x,1/2-y,z
y,1/2-x,1/2+z
x,1/2-y,1/2-z
1/2-x,y,1/2-z
y,x,-z
1/2-y,1/2-x,-z
-x,-y,-z
1/2+y,-x,1/2-z
1/2+x,1/2+y,-z
-y,1/2+x,1/2-z
-x,1/2+y,1/2+z
1/2+x,-y,1/2+z
-y,-x,z
1/2+y,1/2+x,z
loop_
_atom_site_type_symbol
_atom_site_label
_atom_site_fract_x
_atom_site_fract_y
_atom_site_fract_z
Si Si1 0.034571 0.683164 0.309578
Si Si2 0.916847 0.808305 0.671444
Si Si3 0.468222 0.389580 0.205102
Si Si4 0.136145 0.492638 0.959676
Si Si5 0.099790 0.751852 0.056115
Si Si6 0.250000 0.250000 0.250000
O O1 0.017954 0.750000 0.250000
O O2 0.125272 0.625272 0.294469
O O3 0.045375 0.737432 0.376760
O O4 0.947070 0.619027 0.317582
O O5 0.972094 0.878924 0.716714
O O6 0.962420 0.708778 0.672874
O O7 0.923638 0.837039 0.597535
O O8 0.813992 0.809002 0.701539
O O9 0.560704 0.439297 0.182185
O O10 0.082811 0.582811 0.933990
O O11 0.066945 0.433056 0.000000
O O12 0.225053 0.526620 0.000271
O O13 0.155037 0.844963 0.037609
O O14 0.169031 0.669031 0.066406
#
# Coordination Sequence:
#
# PCOD8317199 Si02
#       6
#    16  16  16  16  16   4
#     4  10  20  32  54  83 112 147 186 229 285 341
#     4  10  21  37  57  77 109 146 179 229 275 336
#     4   9  20  35  55  81 106 139 182 230 279 327
#     4  10  22  37  57  83 110 144 188 233 283 340
#     4   9  19  36  55  80 114 148 185 233 286 343
#     4   8  20  36  54  80 104 142 176 224 272 316
#
# _framework density 18.985119000000001
#
# number of rings (size 3 to 8) (size 9 to 14) (size 15 to 20)
#    0.000    2.667    0.000    1.143    8.000    1.714 
#    0.000    3.333    0.000   12.571    0.000    0.000 
#    0.000    0.000    0.000    0.000    0.000    0.000 
#
# Total GULP energy -1041022.451241 kJ/mol
# GULP energy per Si atom -12393.124420 kJ/mol
# Density = 1.894191 g / cm^3
# Si number density = 18.985119 Si / 1000 Ang^3
#
#
#
# Elastic Constant Matrix: (Units=GPa)
#
#
# Indices 1 2 3 4 5 6 
#
# 1 71.5020 36.1893 39.5373 0.0000 0.0000 0.0000
# 2 36.1893 71.5031 39.5370 0.0000 0.0000 0.0000
# 3 39.5373 39.5370 119.4157 0.0000 0.0000 0.0000
# 4 0.0000 0.0000 0.0000 23.5776 0.0000 0.0000
# 5 0.0000 0.0000 0.0000 0.0000 23.5777 0.0000
# 6 0.0000 0.0000 0.0000 0.0000 0.0000 16.4562
#
#
#
# Elastic Compliance Matrix: (Units=1/GPa)
#
#
# Indices 1 2 3 4 5 6 
#
# 1 0.020293 -0.008025 -0.004062 0.000000 0.000000 0.000000
# 2 -0.008025 0.020293 -0.004062 0.000000 0.000000 0.000000
# 3 -0.004062 -0.004062 0.011064 0.000000 0.000000 0.000000
# 4 0.000000 0.000000 0.000000 0.042413 0.000000 0.000000
# 5 0.000000 0.000000 0.000000 0.000000 0.042413 0.000000
# 6 0.000000 0.000000 0.000000 0.000000 0.000000 0.060767
#
#
# Mechanical properties :
#
#
# Convention : Reuss Voigt Hill
#
# Bulk Modulus (GPa) = 51.67215 54.77199 53.22207
# Shear Modulus (GPa) = 21.18722 22.53280 21.86001
#
# Velocity S-wave (km/s) = 3.34427 3.44883 3.39695
# Velocity P-wave (km/s) = 6.49526 6.69118 6.59395
#
# Compressibility (1/GPa) = 0.01935278
#
# Stress axis : x y z
#
# Youngs Moduli (GPa) = 49.27725 49.27835 90.38491
#
# Poissons Ratio (x) = 0.39545 0.36714
# Poissons Ratio (y) = 0.39544 0.36712
# Poissons Ratio (z) = 0.20016 0.20016
#
# Static dielectric constant tensor:
#      x y z
#    x 3.531230 0.000000 0.000000 
#    y 0.000000 3.531230 0.000000 
#    z 0.000000 0.000000 3.345150 
# 
# 
# High freq. dielectric constant tensor:
#      x y z
#    x 1.738370 0.000000 0.000000 
#    y 0.000000 1.738370 0.000000 
#    z 0.000000 0.000000 1.723990 
# 
# From -- ./inp_files/9042.got.cif
#   From: 2010.03.12/outbox.cif.g09.slc.cpg/sg134_5_cif.got.tgz:9042.got - 2010.04.06 18:17:22.
