data_PCOD8317750
_publ_section_title
;
Structure prediction by ZEFSAII (Michael W. Deem and Ramdas Pophale) SiO2 
 PCOD8317750
Probable space group: P 42/M N M
;
_chemical_formula_sum "Si O2"
_cell_formula_units_Z 72
_cell_length_a 22.978617
_cell_length_b 22.978617
_cell_length_c 9.432142
_cell_angle_alpha 90.000000
_cell_angle_beta 90.000000
_cell_angle_gamma 90.000000
_cell_volume 4980.329806
_symmetry_space_group_name_H-M "P 42/M N M"
_symmetry_group_IT_number 136
_symmetry_cell_setting 'tetragonal'
loop_
_space_group_symop_operation_xyz
x,y,z
1/2-y,1/2+x,1/2+z
-x,-y,z
1/2+y,1/2-x,1/2+z
1/2+x,1/2-y,1/2-z
1/2-x,1/2+y,1/2-z
y,x,-z
-y,-x,-z
-x,-y,-z
1/2+y,1/2-x,1/2-z
x,y,-z
1/2-y,1/2+x,1/2-z
1/2-x,1/2+y,1/2+z
1/2+x,1/2-y,1/2+z
-y,-x,z
y,x,z
loop_
_atom_site_type_symbol
_atom_site_label
_atom_site_fract_x
_atom_site_fract_y
_atom_site_fract_z
Si Si1 0.548696 0.451305 0.834540
Si Si2 0.728295 0.366512 0.336972
Si Si3 0.835984 0.981894 0.166999
Si Si4 0.699750 0.608431 0.331758
Si Si5 0.207347 0.305517 0.657990
O O1 0.500000 0.500000 0.815366
O O2 0.526528 0.393366 0.758767
O O3 0.561277 0.438724 0.000000
O O4 0.744483 0.359595 0.500000
O O5 0.673111 0.326890 0.295996
O O6 0.711151 0.432283 0.298576
O O7 0.786051 0.347617 0.252086
O O8 0.805909 0.041843 0.216163
O O9 0.852789 0.981520 0.000000
O O10 0.699067 0.613826 0.500000
O O11 0.645105 0.645105 0.269730
O O12 0.761214 0.636355 0.279231
O O13 0.183572 0.316763 0.500000
O O14 0.255231 0.255231 0.657458
#
# Coordination Sequence:
#
# PCOD8317750 Si02
#       5
#     8  16  16  16  16
#     4  11  23  33  39  55  85 117 147 179 211 244
#     4   9  16  26  39  59  82 102 131 167 204 245
#     4  10  18  30  46  61  79 108 146 180 205 238
#     4   8  14  25  42  62  79 100 137 177 204 235
#     4   8  14  25  41  59  77 100 130 163 205 250
#
# _framework density 14.456873999999999
#
# number of rings (size 3 to 8) (size 9 to 14) (size 15 to 20)
#    0.000    3.000    1.111    2.333    0.000    2.667 
#    0.000    1.111    0.000    4.000    0.000    0.000 
#    0.000    0.889    0.000   11.111    0.000    0.000 
#
# Total GULP energy -892344.382813 kJ/mol
# GULP energy per Si atom -12393.671984 kJ/mol
# Density = 1.442397 g / cm^3
# Si number density = 14.456874 Si / 1000 Ang^3
#
#
#
# Elastic Constant Matrix: (Units=GPa)
#
#
# Indices 1 2 3 4 5 6 
#
# 1 87.8752 79.8090 42.2959 0.0000 0.0000 0.0000
# 2 79.8090 87.8757 42.2959 0.0000 0.0000 0.0000
# 3 42.2959 42.2959 52.1837 0.0000 0.0000 0.0000
# 4 0.0000 0.0000 0.0000 16.2336 0.0000 0.0000
# 5 0.0000 0.0000 0.0000 0.0000 16.2337 0.0000
# 6 0.0000 0.0000 0.0000 0.0000 0.0000 24.9576
#
#
#
# Elastic Compliance Matrix: (Units=1/GPa)
#
#
# Indices 1 2 3 4 5 6 
#
# 1 0.067030 -0.056941 -0.008177 0.000000 0.000000 0.000000
# 2 -0.056941 0.067029 -0.008177 0.000000 0.000000 0.000000
# 3 -0.008177 -0.008177 0.032418 0.000000 0.000000 0.000000
# 4 0.000000 0.000000 0.000000 0.061600 0.000000 0.000000
# 5 0.000000 0.000000 0.000000 0.000000 0.061600 0.000000
# 6 0.000000 0.000000 0.000000 0.000000 0.000000 0.040068
#
#
# Mechanical properties :
#
#
# Convention : Reuss Voigt Hill
#
# Bulk Modulus (GPa) = 50.28289 61.85959 56.07124
# Shear Modulus (GPa) = 10.35272 15.72056 13.03664
#
# Velocity S-wave (km/s) = 2.67893 3.30117 3.00619
# Velocity P-wave (km/s) = 6.66526 7.57709 7.13575
#
# Compressibility (1/GPa) = 0.01988748
#
# Stress axis : x y z
#
# Youngs Moduli (GPa) = 14.91878 14.91889 30.84669
#
# Poissons Ratio (x) = 0.84949 0.25224
# Poissons Ratio (y) = 0.84949 0.25223
# Poissons Ratio (z) = 0.12199 0.12199
#
# Static dielectric constant tensor:
#      x y z
#    x 2.908850 0.000000 0.000000 
#    y 0.000000 2.908850 0.000000 
#    z 0.000000 0.000000 2.759650 
# 
# 
# High freq. dielectric constant tensor:
#      x y z
#    x 1.534590 0.000000 0.000000 
#    y 0.000000 1.534590 0.000000 
#    z 0.000000 0.000000 1.536000 
# 
# From -- ./inp_files/1710.got.cif
#   From: 2010.03.12/outbox.cif.g09.slc.cpg/sg136_1_cif.got.tgz:1710.got - 2010.04.06 18:39:43.
