data_PCOD8317496
_publ_section_title
;
Structure prediction by ZEFSAII (Michael W. Deem and Ramdas Pophale) SiO2 
 PCOD8317496
Probable space group: P 42/M B C
;
_chemical_formula_sum "Si O2"
_cell_formula_units_Z 48
_cell_length_a 14.518702
_cell_length_b 14.518702
_cell_length_c 10.311534
_cell_angle_alpha 90.000000
_cell_angle_beta 90.000000
_cell_angle_gamma 90.000000
_cell_volume 2173.596173
_symmetry_space_group_name_H-M "P 42/M B C"
_symmetry_group_IT_number 135
_symmetry_cell_setting 'tetragonal'
loop_
_space_group_symop_operation_xyz
x,y,z
-y,x,1/2+z
-x,-y,z
y,-x,1/2+z
1/2+x,1/2-y,-z
1/2-x,1/2+y,-z
1/2+y,1/2+x,1/2-z
1/2-y,1/2-x,1/2-z
-x,-y,-z
y,-x,1/2-z
x,y,-z
-y,x,1/2-z
1/2-x,1/2+y,z
1/2+x,1/2-y,z
1/2-y,1/2-x,1/2+z
1/2+y,1/2+x,1/2+z
loop_
_atom_site_type_symbol
_atom_site_label
_atom_site_fract_x
_atom_site_fract_y
_atom_site_fract_z
Si Si1 0.136926 0.075362 0.500000
Si Si2 0.062596 0.873127 0.500000
Si Si3 0.385853 0.256270 0.261983
Si Si4 0.892686 0.528747 0.141513
O O1 0.201144 0.085393 0.375022
O O2 0.048743 0.145020 0.500000
O O3 0.088053 0.978403 0.500000
O O4 0.109142 0.833319 0.628670
O O5 0.281595 0.218406 0.250000
O O6 0.447197 0.170486 0.307352
O O7 0.889272 0.610729 0.250000
O O8 0.000000 0.500000 0.129411
O O9 0.857717 0.562182 0.000000
#
# Coordination Sequence:
#
# PCOD8317496 Si02
#       4
#     8   8  16  16
#     4  11  27  46  77  96 135 201 237 284 354 418
#     4  11  25  52  69  98 139 193 247 280 348 426
#     4  12  23  42  75 104 140 176 236 306 353 409
#     4  10  20  35  61  97 133 187 220 258 347 444
#
# _framework density 22.083217999999999
#
# number of rings (size 3 to 8) (size 9 to 14) (size 15 to 20)
#    0.000    1.000    5.000    3.000    2.333    2.667 
#    0.000   10.000    0.000    0.000    0.000    0.000 
#    0.000    0.000    0.000    0.000    0.000    0.000 
#
# Total GULP energy -594669.252244 kJ/mol
# GULP energy per Si atom -12388.942755 kJ/mol
# Density = 2.203296 g / cm^3
# Si number density = 22.083218 Si / 1000 Ang^3
#
#
#
# Elastic Constant Matrix: (Units=GPa)
#
#
# Indices 1 2 3 4 5 6 
#
# 1 82.9483 33.1443 51.2759 0.0000 0.0000 0.0000
# 2 33.1443 82.9466 51.2753 0.0000 0.0000 0.0000
# 3 51.2759 51.2753 250.7123 0.0000 0.0000 0.0000
# 4 0.0000 0.0000 0.0000 39.3188 0.0000 0.0000
# 5 0.0000 0.0000 0.0000 0.0000 39.3156 0.0000
# 6 0.0000 0.0000 0.0000 0.0000 0.0000 39.1012
#
#
#
# Elastic Compliance Matrix: (Units=1/GPa)
#
#
# Indices 1 2 3 4 5 6 
#
# 1 0.015296 -0.004783 -0.002150 0.000000 0.000000 0.000000
# 2 -0.004783 0.015296 -0.002150 0.000000 0.000000 0.000000
# 3 -0.002150 -0.002150 0.004868 0.000000 0.000000 0.000000
# 4 0.000000 0.000000 0.000000 0.025433 0.000000 0.000000
# 5 0.000000 0.000000 0.000000 0.000000 0.025435 0.000000
# 6 0.000000 0.000000 0.000000 0.000000 0.000000 0.025575
#
#
# Mechanical properties :
#
#
# Convention : Reuss Voigt Hill
#
# Bulk Modulus (GPa) = 57.82360 76.44425 67.13393
# Shear Modulus (GPa) = 36.80950 42.27458 39.54204
#
# Velocity S-wave (km/s) = 4.08714 4.38005 4.23613
# Velocity P-wave (km/s) = 6.96522 7.76347 7.37515
#
# Compressibility (1/GPa) = 0.01729398
#
# Stress axis : x y z
#
# Youngs Moduli (GPa) = 65.37660 65.37532 205.41733
#
# Poissons Ratio (x) = 0.31268 0.44168
# Poissons Ratio (y) = 0.31269 0.44168
# Poissons Ratio (z) = 0.14057 0.14057
#
# Static dielectric constant tensor:
#      x y z
#    x 4.029880 0.000000 0.000000 
#    y 0.000000 4.029890 0.000000 
#    z 0.000000 0.000000 4.608120 
# 
# 
# High freq. dielectric constant tensor:
#      x y z
#    x 1.857880 0.000000 0.000000 
#    y 0.000000 1.857880 0.000000 
#    z 0.000000 0.000000 1.903160 
# 
# From -- ./inp_files/2010.got.cif
#   From: 2010.03.12/outbox.cif.g09.slc.cpg/sg135_2_cif.got.tgz:2010.got - 2010.04.06 18:31:24.
