data_PCOD8317077
_publ_section_title
;
Structure prediction by ZEFSAII (Michael W. Deem and Ramdas Pophale) SiO2 
 PCOD8317077
Probable space group: P 42/N N M
;
_chemical_formula_sum "Si O2"
_cell_formula_units_Z 96
_cell_length_a 18.881230
_cell_length_b 18.881230
_cell_length_c 15.923731
_cell_angle_alpha 90.000000
_cell_angle_beta 90.000000
_cell_angle_gamma 90.000000
_cell_volume 5676.823578
_symmetry_space_group_name_H-M "P 42/N N M"
_symmetry_group_IT_number 134
_space_group.IT_coordinate_system_code '2'
_symmetry_cell_setting 'tetragonal'
loop_
_space_group_symop_operation_xyz
x,y,z
1/2-y,x,1/2+z
1/2-x,1/2-y,z
y,1/2-x,1/2+z
x,1/2-y,1/2-z
1/2-x,y,1/2-z
y,x,-z
1/2-y,1/2-x,-z
-x,-y,-z
1/2+y,-x,1/2-z
1/2+x,1/2+y,-z
-y,1/2+x,1/2-z
-x,1/2+y,1/2+z
1/2+x,-y,1/2+z
-y,-x,z
1/2+y,1/2+x,z
loop_
_atom_site_type_symbol
_atom_site_label
_atom_site_fract_x
_atom_site_fract_y
_atom_site_fract_z
Si Si1 0.793294 0.678203 0.908049
Si Si2 0.954564 0.775755 0.161164
Si Si3 0.845216 0.047147 0.625165
Si Si4 0.533465 0.920419 0.268716
Si Si5 0.606302 0.505858 0.455433
Si Si6 0.179291 0.068873 0.698267
O O1 0.750000 0.750000 0.898587
O O2 0.743572 0.608103 0.903476
O O3 0.850608 0.680821 0.833859
O O4 0.827743 0.672258 0.000000
O O5 0.923806 0.750000 0.250000
O O6 0.973237 0.858762 0.161253
O O7 0.030328 0.736564 0.144707
O O8 0.873645 0.126356 0.650832
O O9 0.854273 0.039031 0.526201
O O10 0.892906 0.989816 0.676167
O O11 0.615250 0.942643 0.263602
O O12 0.486163 0.986163 0.299378
O O13 0.577494 0.577494 0.500000
O O14 0.539738 0.460263 0.418938
O O15 0.663983 0.519296 0.382475
O O16 0.250000 0.048342 0.750000
#
# Coordination Sequence:
#
# PCOD8317077 Si02
#       6
#    16  16  16  16  16  16
#     4  11  22  32  44  67  98 139 179 210 241 296
#     4  10  17  30  47  67 101 134 165 206 258 312
#     4   9  16  27  49  74  95 126 166 212 260 307
#     4  10  19  31  48  71  99 136 175 206 255 318
#     4  10  17  30  51  73  99 126 163 217 263 299
#     4  12  21  29  45  71 105 139 168 208 256 305
#
# _framework density 16.910865000000001
#
# number of rings (size 3 to 8) (size 9 to 14) (size 15 to 20)
#    0.000    1.667    5.000    3.000    0.000    0.000 
#    0.000    0.000    0.000    0.500    0.000   29.167 
#    0.000    8.000    0.000    0.000    0.000    0.000 
#
# Total GULP energy -1189596.792170 kJ/mol
# GULP energy per Si atom -12391.633252 kJ/mol
# Density = 1.687238 g / cm^3
# Si number density = 16.910865 Si / 1000 Ang^3
#
#
#
# Elastic Constant Matrix: (Units=GPa)
#
#
# Indices 1 2 3 4 5 6 
#
# 1 95.2594 62.6443 39.8706 0.0000 0.0000 0.0000
# 2 62.6443 95.2597 39.8706 0.0000 0.0000 0.0000
# 3 39.8706 39.8706 66.7333 0.0000 0.0000 0.0000
# 4 0.0000 0.0000 0.0000 21.3523 0.0000 0.0000
# 5 0.0000 0.0000 0.0000 0.0000 21.3521 0.0000
# 6 0.0000 0.0000 0.0000 0.0000 0.0000 27.5557
#
#
#
# Elastic Compliance Matrix: (Units=1/GPa)
#
#
# Indices 1 2 3 4 5 6 
#
# 1 0.019865 -0.010796 -0.005419 0.000000 0.000000 0.000000
# 2 -0.010796 0.019865 -0.005419 0.000000 0.000000 0.000000
# 3 -0.005419 -0.005419 0.021460 0.000000 0.000000 0.000000
# 4 0.000000 0.000000 0.000000 0.046833 0.000000 0.000000
# 5 0.000000 0.000000 0.000000 0.000000 0.046834 0.000000
# 6 0.000000 0.000000 0.000000 0.000000 0.000000 0.036290
#
#
# Mechanical properties :
#
#
# Convention : Reuss Voigt Hill
#
# Bulk Modulus (GPa) = 55.79065 60.22484 58.00774
# Shear Modulus (GPa) = 20.79978 21.70981 21.25479
#
# Velocity S-wave (km/s) = 3.51089 3.58687 3.54909
# Velocity P-wave (km/s) = 7.03546 7.26943 7.15340
#
# Compressibility (1/GPa) = 0.01792415
#
# Stress axis : x y z
#
# Youngs Moduli (GPa) = 50.33983 50.34010 46.59872
#
# Poissons Ratio (x) = 0.54345 0.25250
# Poissons Ratio (y) = 0.54345 0.25250
# Poissons Ratio (z) = 0.27277 0.27277
#
# Static dielectric constant tensor:
#      x y z
#    x 3.149710 0.000000 0.000000 
#    y 0.000000 3.149710 0.000000 
#    z 0.000000 0.000000 3.073610 
# 
# 
# High freq. dielectric constant tensor:
#      x y z
#    x 1.631390 0.000000 0.000000 
#    y 0.000000 1.631390 0.000000 
#    z 0.000000 0.000000 1.634140 
# 
# From -- ./inp_files/6611.got.cif
#   From: 2010.03.12/outbox.cif.g09.slc.cpg/sg134_4_cif.got.tgz:6611.got - 2010.04.06 18:17:22.
