data_PCOD8317761
_publ_section_title
;
Structure prediction by ZEFSAII (Michael W. Deem and Ramdas Pophale) SiO2 
 PCOD8317761
Probable space group: P 42/M N M
;
_chemical_formula_sum "Si O2"
_cell_formula_units_Z 40
_cell_length_a 9.277038
_cell_length_b 9.277038
_cell_length_c 26.188878
_cell_angle_alpha 90.000000
_cell_angle_beta 90.000000
_cell_angle_gamma 90.000000
_cell_volume 2253.904775
_symmetry_space_group_name_H-M "P 42/M N M"
_symmetry_group_IT_number 136
_symmetry_cell_setting 'tetragonal'
loop_
_space_group_symop_operation_xyz
x,y,z
1/2-y,1/2+x,1/2+z
-x,-y,z
1/2+y,1/2-x,1/2+z
1/2+x,1/2-y,1/2-z
1/2-x,1/2+y,1/2-z
y,x,-z
-y,-x,-z
-x,-y,-z
1/2+y,1/2-x,1/2-z
x,y,-z
1/2-y,1/2+x,1/2-z
1/2-x,1/2+y,1/2+z
1/2+x,1/2-y,1/2+z
-y,-x,z
y,x,z
loop_
_atom_site_type_symbol
_atom_site_label
_atom_site_fract_x
_atom_site_fract_y
_atom_site_fract_z
Si Si1 0.500000 0.000000 0.869754
Si Si2 0.319931 0.914177 0.721356
Si Si3 0.505664 0.265382 0.442285
O O1 0.529692 0.858683 0.835215
O O2 0.363263 0.969075 0.904595
O O3 0.449226 0.808926 0.740504
O O4 0.168579 0.831422 0.720832
O O5 0.519963 0.206308 0.500000
O O6 0.654064 0.345937 0.426454
O O7 0.375491 0.375491 0.438600
#
# Coordination Sequence:
#
# PCOD8317761 Si02
#       3
#     8  16  16
#     4  10  18  30  52  76  98 124 162 204 242 280
#     4   9  20  35  50  71  97 125 160 200 242 289
#     4   9  18  32  50  73 100 130 163 197 236 284
#
# _framework density 17.746979
#
# number of rings (size 3 to 8) (size 9 to 14) (size 15 to 20)
#    0.000    3.200    0.000    3.000    0.000    7.200 
#    0.000    0.000    0.000    3.600    0.000   14.000 
#    0.000    0.000    0.000    0.000    0.000    0.000 
#
# Total GULP energy -495839.914362 kJ/mol
# GULP energy per Si atom -12395.997859 kJ/mol
# Density = 1.770659 g / cm^3
# Si number density = 17.746979 Si / 1000 Ang^3
#
#
#
# Elastic Constant Matrix: (Units=GPa)
#
#
# Indices 1 2 3 4 5 6 
#
# 1 69.4533 25.4697 46.9155 0.0000 0.0000 0.0000
# 2 25.4697 69.4533 46.9155 0.0000 0.0000 0.0000
# 3 46.9155 46.9155 115.0685 0.0000 0.0000 0.0000
# 4 0.0000 0.0000 0.0000 2.1044 0.0000 0.0000
# 5 0.0000 0.0000 0.0000 0.0000 2.1044 0.0000
# 6 0.0000 0.0000 0.0000 0.0000 0.0000 34.9232
#
#
#
# Elastic Compliance Matrix: (Units=1/GPa)
#
#
# Indices 1 2 3 4 5 6 
#
# 1 0.020191 -0.002544 -0.007195 0.000000 0.000000 0.000000
# 2 -0.002544 0.020191 -0.007195 0.000000 0.000000 0.000000
# 3 -0.007195 -0.007195 0.014558 0.000000 0.000000 0.000000
# 4 0.000000 0.000000 0.000000 0.475193 0.000000 0.000000
# 5 0.000000 0.000000 0.000000 0.000000 0.475193 0.000000
# 6 0.000000 0.000000 0.000000 0.000000 0.000000 0.028634
#
#
# Mechanical properties :
#
#
# Convention : Reuss Voigt Hill
#
# Bulk Modulus (GPa) = 47.45715 54.73070 51.09392
# Shear Modulus (GPa) = 4.65180 16.80469 10.72825
#
# Velocity S-wave (km/s) = 1.62076 3.08052 2.46135
# Velocity P-wave (km/s) = 5.50468 6.59994 6.07704
#
# Compressibility (1/GPa) = 0.02107164
#
# Stress axis : x y z
#
# Youngs Moduli (GPa) = 49.52596 49.52596 68.69274
#
# Poissons Ratio (x) = 0.12601 0.49425
# Poissons Ratio (y) = 0.12601 0.49425
# Poissons Ratio (z) = 0.35634 0.35634
#
# Static dielectric constant tensor:
#      x y z
#    x 3.142500 0.000000 0.000000 
#    y 0.000000 3.142500 0.000000 
#    z 0.000000 0.000000 3.454850 
# 
# 
# High freq. dielectric constant tensor:
#      x y z
#    x 1.670730 0.000000 0.000000 
#    y 0.000000 1.670730 0.000000 
#    z 0.000000 0.000000 1.698250 
# 
# From -- ./inp_files/7930.got.cif
#   From: 2010.03.12/outbox.cif.g09.slc.cpg/sg136_4_cif.got.tgz:7930.got - 2010.04.06 18:39:43.
