data_PCOD8317690
_publ_section_title
;
Structure prediction by ZEFSAII (Michael W. Deem and Ramdas Pophale) SiO2 
 PCOD8317690
Probable space group: P 42/M N M
;
_chemical_formula_sum "Si O2"
_cell_formula_units_Z 128
_cell_length_a 20.354266
_cell_length_b 20.354266
_cell_length_c 23.450492
_cell_angle_alpha 90.000000
_cell_angle_beta 90.000000
_cell_angle_gamma 90.000000
_cell_volume 9715.448420
_symmetry_space_group_name_H-M "P 42/M N M"
_symmetry_group_IT_number 136
_symmetry_cell_setting 'tetragonal'
loop_
_space_group_symop_operation_xyz
x,y,z
1/2-y,1/2+x,1/2+z
-x,-y,z
1/2+y,1/2-x,1/2+z
1/2+x,1/2-y,1/2-z
1/2-x,1/2+y,1/2-z
y,x,-z
-y,-x,-z
-x,-y,-z
1/2+y,1/2-x,1/2-z
x,y,-z
1/2-y,1/2+x,1/2-z
1/2-x,1/2+y,1/2+z
1/2+x,1/2-y,1/2+z
-y,-x,z
y,x,z
loop_
_atom_site_type_symbol
_atom_site_label
_atom_site_fract_x
_atom_site_fract_y
_atom_site_fract_z
Si Si1 0.665719 0.775565 0.837119
Si Si2 0.772977 0.337643 0.436552
Si Si3 0.754986 0.135301 0.835461
Si Si4 0.931736 0.824457 0.251419
Si Si5 0.674708 0.432385 0.383615
Si Si6 0.331320 0.779271 0.770513
Si Si7 0.427767 0.318215 0.565002
Si Si8 0.186225 0.922745 0.273439
O O1 0.726149 0.726149 0.835136
O O2 0.665384 0.812823 0.898084
O O3 0.678066 0.829122 0.787511
O O4 0.599072 0.734405 0.825439
O O5 0.799463 0.352955 0.500000
O O6 0.717730 0.282271 0.438585
O O7 0.742171 0.403140 0.409015
O O8 0.808377 0.191624 0.833475
O O9 0.684398 0.170385 0.823077
O O10 0.757179 0.098884 0.896583
O O11 0.773444 0.084234 0.785512
O O12 0.886883 0.886883 0.267459
O O13 0.939402 0.818058 0.183808
O O14 0.901361 0.756576 0.276569
O O15 0.001806 0.834403 0.281556
O O16 0.613916 0.386085 0.399839
O O17 0.659450 0.501492 0.413020
O O18 0.276886 0.723115 0.766680
O O19 0.430496 0.293458 0.500000
O O20 0.381229 0.381229 0.571817
O O21 0.120127 0.879874 0.272909
#
# Coordination Sequence:
#
# PCOD8317690 Si02
#       8
#    16  16  16  16  16  16  16  16
#     4   8  13  23  37  52  70  94 124 157 195 231
#     4   9  15  23  36  53  73  97 124 155 193 230
#     4   8  14  25  38  50  66  93 130 169 205 224
#     4  10  17  24  37  56  78 105 135 158 182 225
#     4  10  18  26  34  49  78 110 139 165 186 210
#     4   8  13  23  38  52  68  91 122 161 200 234
#     4  10  19  28  36  48  71 107 148 175 186 206
#     4   9  16  25  37  52  75 104 131 159 189 221
#
# _framework density 13.174894
#
# number of rings (size 3 to 8) (size 9 to 14) (size 15 to 20)
#    0.000    3.000    2.500    1.875    0.000    1.250 
#    0.000    1.875    0.000    0.000    0.000    0.875 
#    0.000   18.500    0.000    7.250    0.000    0.250 
#
# Total GULP energy -1585923.496259 kJ/mol
# GULP energy per Si atom -12390.027315 kJ/mol
# Density = 1.314491 g / cm^3
# Si number density = 13.174894 Si / 1000 Ang^3
#
#
#
# Elastic Constant Matrix: (Units=GPa)
#
#
# Indices 1 2 3 4 5 6 
#
# 1 51.2467 47.1312 32.1426 0.0000 0.0000 0.0000
# 2 47.1312 51.2467 32.1426 0.0000 0.0000 0.0000
# 3 32.1426 32.1426 62.3413 0.0000 0.0000 0.0000
# 4 0.0000 0.0000 0.0000 15.8713 0.0000 0.0000
# 5 0.0000 0.0000 0.0000 0.0000 15.8713 0.0000
# 6 0.0000 0.0000 0.0000 0.0000 0.0000 12.2089
#
#
#
# Elastic Compliance Matrix: (Units=1/GPa)
#
#
# Indices 1 2 3 4 5 6 
#
# 1 0.129157 -0.113827 -0.007904 0.000000 0.000000 0.000000
# 2 -0.113827 0.129157 -0.007904 0.000000 0.000000 0.000000
# 3 -0.007904 -0.007904 0.024191 0.000000 0.000000 0.000000
# 4 0.000000 0.000000 0.000000 0.063007 0.000000 0.000000
# 5 0.000000 0.000000 0.000000 0.000000 0.063007 0.000000
# 6 0.000000 0.000000 0.000000 0.000000 0.000000 0.081908
#
#
# Mechanical properties :
#
#
# Convention : Reuss Voigt Hill
#
# Bulk Modulus (GPa) = 43.03851 43.07417 43.05634
# Shear Modulus (GPa) = 6.60118 12.35149 9.47634
#
# Velocity S-wave (km/s) = 2.24083 3.06519 2.68483
# Velocity P-wave (km/s) = 6.27957 6.72995 6.50866
#
# Compressibility (1/GPa) = 0.02323500
#
# Stress axis : x y z
#
# Youngs Moduli (GPa) = 7.74254 7.74254 41.33762
#
# Poissons Ratio (x) = 0.88131 0.32673
# Poissons Ratio (y) = 0.88131 0.32673
# Poissons Ratio (z) = 0.06120 0.06120
#
# Static dielectric constant tensor:
#      x y z
#    x 2.553840 0.000000 0.000000 
#    y 0.000000 2.553840 0.000000 
#    z 0.000000 0.000000 2.853830 
# 
# 
# High freq. dielectric constant tensor:
#      x y z
#    x 1.474740 0.000000 0.000000 
#    y 0.000000 1.474740 0.000000 
#    z 0.000000 0.000000 1.488470 
# 
# From -- ./inp_files/8682.got.cif
#   From: 2010.03.12/outbox.cif.g09.slc.cpg/sg136_5_cif.got.tgz:8682.got - 2010.04.06 18:39:43.
