data_PCOD8317260
_publ_section_title
;
Structure prediction by ZEFSAII (Michael W. Deem and Ramdas Pophale) SiO2 
 PCOD8317260
Probable space group: P 42/N N M
;
_chemical_formula_sum "Si O2"
_cell_formula_units_Z 96
_cell_length_a 15.031645
_cell_length_b 15.031645
_cell_length_c 21.585709
_cell_angle_alpha 90.000000
_cell_angle_beta 90.000000
_cell_angle_gamma 90.000000
_cell_volume 4877.298534
_symmetry_space_group_name_H-M "P 42/N N M"
_symmetry_group_IT_number 134
_space_group.IT_coordinate_system_code '2'
_symmetry_cell_setting 'tetragonal'
loop_
_space_group_symop_operation_xyz
x,y,z
1/2-y,x,1/2+z
1/2-x,1/2-y,z
y,1/2-x,1/2+z
x,1/2-y,1/2-z
1/2-x,y,1/2-z
y,x,-z
1/2-y,1/2-x,-z
-x,-y,-z
1/2+y,-x,1/2-z
1/2+x,1/2+y,-z
-y,1/2+x,1/2-z
-x,1/2+y,1/2+z
1/2+x,-y,1/2+z
-y,-x,z
1/2+y,1/2+x,z
loop_
_atom_site_type_symbol
_atom_site_label
_atom_site_fract_x
_atom_site_fract_y
_atom_site_fract_z
Si Si1 0.321695 0.678306 0.951763
Si Si2 0.499852 0.851115 0.251385
Si Si3 0.925503 0.928551 0.373097
Si Si4 0.779876 0.898950 0.535825
Si Si5 0.239770 0.002263 0.914172
Si Si6 0.127773 0.090677 0.122626
Si Si7 0.438065 0.561936 0.042683
O O1 0.250000 0.750000 0.977015
O O2 0.268965 0.604727 0.910846
O O3 0.372596 0.627405 0.006472
O O4 0.463333 0.750000 0.250000
O O5 0.554143 0.876618 0.190015
O O6 0.572716 0.857011 0.305397
O O7 0.416295 0.916295 0.261821
O O8 0.945861 0.862958 0.430112
O O9 0.823984 0.962863 0.375437
O O10 0.986379 0.013622 0.381627
O O11 0.811088 0.811088 0.500000
O O12 0.710832 0.863087 0.587669
O O13 0.739960 0.968767 0.486508
O O14 0.151225 0.040889 0.882690
O O15 0.120962 0.997504 0.087578
O O16 0.500000 0.500000 0.000000
#
# Coordination Sequence:
#
# PCOD8317260 Si02
#       7
#     8  16  16  16  16  16   8
#     4  12  24  38  62  98 136 168 214 268 330 400
#     4  11  24  44  68  94 127 174 217 264 320 389
#     4  10  23  42  60  89 133 173 214 264 328 398
#     4  10  21  36  60  93 127 165 206 264 328 386
#     4  11  23  38  63  92 126 171 213 270 330 390
#     4  12  21  39  66  94 128 167 220 266 326 391
#     4  12  20  40  64  98 130 166 215 268 325 392
#
# _framework density 19.683026000000002
#
# number of rings (size 3 to 8) (size 9 to 14) (size 15 to 20)
#    0.000    1.000    5.833    1.000    0.000    9.167 
#    0.000    1.667    0.000    0.000    0.000    0.000 
#    0.000    0.000    0.000    0.000    0.000    0.000 
#
# Total GULP energy -1190360.878722 kJ/mol
# GULP energy per Si atom -12399.592487 kJ/mol
# Density = 1.963823 g / cm^3
# Si number density = 19.683026 Si / 1000 Ang^3
#
#
#
# Elastic Constant Matrix: (Units=GPa)
#
#
# Indices 1 2 3 4 5 6 
#
# 1 104.8729 50.2324 38.7522 0.0000 0.0000 0.0000
# 2 50.2324 104.8729 38.7522 0.0000 0.0000 0.0000
# 3 38.7522 38.7522 102.2483 0.0000 0.0000 0.0000
# 4 0.0000 0.0000 0.0000 31.1375 0.0000 0.0000
# 5 0.0000 0.0000 0.0000 0.0000 31.1375 0.0000
# 6 0.0000 0.0000 0.0000 0.0000 0.0000 33.2842
#
#
#
# Elastic Compliance Matrix: (Units=1/GPa)
#
#
# Indices 1 2 3 4 5 6 
#
# 1 0.013127 -0.005174 -0.003014 0.000000 0.000000 0.000000
# 2 -0.005174 0.013127 -0.003014 0.000000 0.000000 0.000000
# 3 -0.003014 -0.003014 0.012065 0.000000 0.000000 0.000000
# 4 0.000000 0.000000 0.000000 0.032116 0.000000 0.000000
# 5 0.000000 0.000000 0.000000 0.000000 0.032116 0.000000
# 6 0.000000 0.000000 0.000000 0.000000 0.000000 0.030044
#
#
# Mechanical properties :
#
#
# Convention : Reuss Voigt Hill
#
# Bulk Modulus (GPa) = 62.83588 63.05197 62.94393
# Shear Modulus (GPa) = 31.19041 31.39567 31.29304
#
# Velocity S-wave (km/s) = 3.98507 3.99816 3.99162
# Velocity P-wave (km/s) = 7.29161 7.30869 7.30015
#
# Compressibility (1/GPa) = 0.01591447
#
# Stress axis : x y z
#
# Youngs Moduli (GPa) = 76.17622 76.17622 82.88428
#
# Poissons Ratio (x) = 0.39413 0.24984
# Poissons Ratio (y) = 0.39413 0.24984
# Poissons Ratio (z) = 0.22962 0.22962
#
# Static dielectric constant tensor:
#      x y z
#    x 3.657360 0.000000 0.000000 
#    y 0.000000 3.657360 0.000000 
#    z 0.000000 0.000000 3.598580 
# 
# 
# High freq. dielectric constant tensor:
#      x y z
#    x 1.772290 0.000000 0.000000 
#    y 0.000000 1.772290 0.000000 
#    z 0.000000 0.000000 1.757590 
# 
# From -- ./inp_files/9180.got.cif
#   From: 2010.03.12/outbox.cif.g09.slc.cpg/sg134_5_cif.got.tgz:9180.got - 2010.04.06 18:17:22.
