data_PCOD8317838
_publ_section_title
;
Structure prediction by ZEFSAII (Michael W. Deem and Ramdas Pophale) SiO2 
 PCOD8317838
Probable space group: P 42/M N M
;
_chemical_formula_sum "Si O2"
_cell_formula_units_Z 72
_cell_length_a 22.755441
_cell_length_b 22.755441
_cell_length_c 8.973917
_cell_angle_alpha 90.000000
_cell_angle_beta 90.000000
_cell_angle_gamma 90.000000
_cell_volume 4646.784815
_symmetry_space_group_name_H-M "P 42/M N M"
_symmetry_group_IT_number 136
_symmetry_cell_setting 'tetragonal'
loop_
_space_group_symop_operation_xyz
x,y,z
1/2-y,1/2+x,1/2+z
-x,-y,z
1/2+y,1/2-x,1/2+z
1/2+x,1/2-y,1/2-z
1/2-x,1/2+y,1/2-z
y,x,-z
-y,-x,-z
-x,-y,-z
1/2+y,1/2-x,1/2-z
x,y,-z
1/2-y,1/2+x,1/2-z
1/2-x,1/2+y,1/2+z
1/2+x,1/2-y,1/2+z
-y,-x,z
y,x,z
loop_
_atom_site_type_symbol
_atom_site_label
_atom_site_fract_x
_atom_site_fract_y
_atom_site_fract_z
Si Si1 0.611179 0.706399 0.326550
Si Si2 0.049137 0.049137 0.329940
Si Si3 0.808317 0.290425 0.332403
Si Si4 0.872885 0.775174 0.673407
Si Si5 0.330610 0.519134 0.324273
O O1 0.618563 0.719914 0.500000
O O2 0.649359 0.649359 0.281096
O O3 0.632363 0.764353 0.238857
O O4 0.544286 0.694772 0.282096
O O5 0.065395 0.065395 0.500000
O O6 0.106155 0.024817 0.249237
O O7 0.000000 0.000000 0.321831
O O8 0.821428 0.311685 0.500000
O O9 0.759724 0.240277 0.329674
O O10 0.784919 0.345143 0.236222
O O11 0.885633 0.766667 0.500000
O O12 0.830519 0.830519 0.703212
O O13 0.933212 0.785699 0.760128
O O14 0.337408 0.527726 0.500000
#
# Coordination Sequence:
#
# PCOD8317838 Si02
#       5
#    16   8  16  16  16
#     4   9  18  32  47  65  90 121 155 191 235 279
#     4  11  23  35  45  61  89 127 167 203 237 274
#     4   9  17  29  47  68  88 113 149 190 234 281
#     4  10  19  31  47  66  91 120 152 192 238 282
#     4  11  21  32  48  67  91 122 160 200 234 277
#
# _framework density 15.494585000000001
#
# number of rings (size 3 to 8) (size 9 to 14) (size 15 to 20)
#    0.000    2.111    1.111    3.000    0.000    7.111 
#    0.000    2.222    0.000    0.000    0.000    0.000 
#    0.000    0.889    0.000    9.333    0.000    4.000 
#
# Total GULP energy -892974.893693 kJ/mol
# GULP energy per Si atom -12402.429079 kJ/mol
# Density = 1.545932 g / cm^3
# Si number density = 15.494585 Si / 1000 Ang^3
#
#
#
# Elastic Constant Matrix: (Units=GPa)
#
#
# Indices 1 2 3 4 5 6 
#
# 1 39.0612 109.8874 57.2478 0.0000 0.0000 0.0000
# 2 109.8874 39.0612 57.2478 0.0000 0.0000 0.0000
# 3 57.2478 57.2478 104.8794 0.0000 0.0000 0.0000
# 4 0.0000 0.0000 0.0000 24.8729 0.0000 0.0000
# 5 0.0000 0.0000 0.0000 0.0000 24.8729 0.0000
# 6 0.0000 0.0000 0.0000 0.0000 0.0000 24.1594
#
#
#
# Elastic Compliance Matrix: (Units=1/GPa)
#
#
# Indices 1 2 3 4 5 6 
#
# 1 -0.001276 0.012843 -0.006314 0.000000 0.000000 0.000000
# 2 0.012843 -0.001276 -0.006314 0.000000 0.000000 0.000000
# 3 -0.006314 -0.006314 0.016428 0.000000 0.000000 0.000000
# 4 0.000000 0.000000 0.000000 0.040204 0.000000 0.000000
# 5 0.000000 0.000000 0.000000 0.000000 0.040204 0.000000
# 6 0.000000 0.000000 0.000000 0.000000 0.000000 0.041392
#
#
# Mechanical properties :
#
#
# Convention : Reuss Voigt Hill
#
# Bulk Modulus (GPa) = 69.89887 70.19640 70.04763
# Shear Modulus (GPa) = 35.71068 12.02229 23.86649
#
# Velocity S-wave (km/s) = 4.80596 2.78853 3.92894
# Velocity P-wave (km/s) = 8.71814 7.46793 8.11714
#
# Compressibility (1/GPa) = 0.01430638
#
# Stress axis : x y z
#
# Youngs Moduli (GPa) = -783.72134 -783.72134 60.87346
#
# Poissons Ratio (x) = 10.06541 0.38435
# Poissons Ratio (y) = 10.06541 0.38435
# Poissons Ratio (z) = -4.94830 -4.94830
#
# Static dielectric constant tensor:
#      x y z
#    x 2.895650 0.000000 0.000000 
#    y 0.000000 2.895650 0.000000 
#    z 0.000000 0.000000 3.155340 
# 
# 
# High freq. dielectric constant tensor:
#      x y z
#    x 1.573310 0.000000 0.000000 
#    y 0.000000 1.573310 0.000000 
#    z 0.000000 0.000000 1.613030 
# 
# From -- ./inp_files/1560.got.cif
#   From: 2010.03.12/outbox.cif.g09.slc.cpg/sg136_1_cif.got.tgz:1560.got - 2010.04.06 18:39:43.
