data_PCOD8317725
_publ_section_title
;
Structure prediction by ZEFSAII (Michael W. Deem and Ramdas Pophale) SiO2 
 PCOD8317725
Probable space group: P 42/M N M
;
_chemical_formula_sum "Si O2"
_cell_formula_units_Z 72
_cell_length_a 22.863368
_cell_length_b 22.863368
_cell_length_c 9.061813
_cell_angle_alpha 90.000000
_cell_angle_beta 90.000000
_cell_angle_gamma 90.000000
_cell_volume 4736.914099
_symmetry_space_group_name_H-M "P 42/M N M"
_symmetry_group_IT_number 136
_symmetry_cell_setting 'tetragonal'
loop_
_space_group_symop_operation_xyz
x,y,z
1/2-y,1/2+x,1/2+z
-x,-y,z
1/2+y,1/2-x,1/2+z
1/2+x,1/2-y,1/2-z
1/2-x,1/2+y,1/2-z
y,x,-z
-y,-x,-z
-x,-y,-z
1/2+y,1/2-x,1/2-z
x,y,-z
1/2-y,1/2+x,1/2-z
1/2-x,1/2+y,1/2+z
1/2+x,1/2-y,1/2+z
-y,-x,z
y,x,z
loop_
_atom_site_type_symbol
_atom_site_label
_atom_site_fract_x
_atom_site_fract_y
_atom_site_fract_z
Si Si1 0.111332 0.793559 0.672090
Si Si2 0.308746 0.210525 0.333893
Si Si3 0.953976 0.953976 0.324763
Si Si4 0.725399 0.370581 0.326206
Si Si5 0.979858 0.824005 0.674124
O O1 0.117555 0.779962 0.500000
O O2 0.149072 0.850929 0.714063
O O3 0.132902 0.736256 0.759263
O O4 0.044761 0.804658 0.718003
O O5 0.323151 0.190275 0.500000
O O6 0.260463 0.260463 0.332025
O O7 0.284963 0.155568 0.241530
O O8 0.956625 0.956625 0.500000
O O9 0.889845 0.970875 0.268136
O O10 0.000000 0.000000 0.256829
O O11 0.733404 0.375276 0.500000
O O12 0.669901 0.330100 0.283827
O O13 0.717558 0.434519 0.257594
O O14 0.968529 0.819443 0.500000
#
# Coordination Sequence:
#
# PCOD8317725 Si02
#       5
#    16  16   8  16  16
#     4   9  17  29  44  64  89 117 149 185 225 264
#     4   9  17  29  46  64  82 108 144 184 228 275
#     4   9  16  26  41  61  85 119 161 195 217 244
#     4  10  19  30  44  62  86 114 146 187 232 271
#     4  10  18  28  44  64  88 118 154 190 220 260
#
# _framework density 15.199769
#
# number of rings (size 3 to 8) (size 9 to 14) (size 15 to 20)
#    0.000    2.556    1.111    2.000    0.000    7.111 
#    0.000    0.000    0.000    2.667    0.000    0.000 
#    0.000    0.889    0.000    9.333    0.000    4.000 
#
# Total GULP energy -892857.265503 kJ/mol
# GULP energy per Si atom -12400.795354 kJ/mol
# Density = 1.516517 g / cm^3
# Si number density = 15.199769 Si / 1000 Ang^3
#
#
#
# Elastic Constant Matrix: (Units=GPa)
#
#
# Indices 1 2 3 4 5 6 
#
# 1 91.1434 75.0166 47.7709 0.0000 0.0000 0.0000
# 2 75.0166 91.1434 47.7709 0.0000 0.0000 0.0000
# 3 47.7709 47.7709 67.7312 0.0000 0.0000 0.0000
# 4 0.0000 0.0000 0.0000 23.4189 0.0000 0.0000
# 5 0.0000 0.0000 0.0000 0.0000 23.4189 0.0000
# 6 0.0000 0.0000 0.0000 0.0000 0.0000 28.5927
#
#
#
# Elastic Compliance Matrix: (Units=1/GPa)
#
#
# Indices 1 2 3 4 5 6 
#
# 1 0.036066 -0.025942 -0.007141 0.000000 0.000000 0.000000
# 2 -0.025942 0.036066 -0.007141 0.000000 0.000000 0.000000
# 3 -0.007141 -0.007141 0.024837 0.000000 0.000000 0.000000
# 4 0.000000 0.000000 0.000000 0.042700 0.000000 0.000000
# 5 0.000000 0.000000 0.000000 0.000000 0.042700 0.000000
# 6 0.000000 0.000000 0.000000 0.000000 0.000000 0.034974
#
#
# Mechanical properties :
#
#
# Convention : Reuss Voigt Hill
#
# Bulk Modulus (GPa) = 60.52261 65.68165 63.10213
# Shear Modulus (GPa) = 16.48541 20.38343 18.43442
#
# Velocity S-wave (km/s) = 3.29687 3.66599 3.48632
# Velocity P-wave (km/s) = 7.37544 7.82466 7.60337
#
# Compressibility (1/GPa) = 0.01652275
#
# Stress axis : x y z
#
# Youngs Moduli (GPa) = 27.72670 27.72670 40.26299
#
# Poissons Ratio (x) = 0.71929 0.28750
# Poissons Ratio (y) = 0.71929 0.28750
# Poissons Ratio (z) = 0.19798 0.19798
#
# Static dielectric constant tensor:
#      x y z
#    x 2.830510 0.000000 0.000000 
#    y 0.000000 2.830510 0.000000 
#    z 0.000000 0.000000 2.874770 
# 
# 
# High freq. dielectric constant tensor:
#      x y z
#    x 1.562100 0.000000 0.000000 
#    y 0.000000 1.562100 0.000000 
#    z 0.000000 0.000000 1.580140 
# 
# From -- ./inp_files/1567.got.cif
#   From: 2010.03.12/outbox.cif.g09.slc.cpg/sg136_1_cif.got.tgz:1567.got - 2010.04.06 18:39:43.
