data_PCOD8317586
_publ_section_title
;
Structure prediction by ZEFSAII (Michael W. Deem and Ramdas Pophale) SiO2 
 PCOD8317586
Probable space group: P 42/M B C
;
_chemical_formula_sum "Si O2"
_cell_formula_units_Z 112
_cell_length_a 14.395550
_cell_length_b 14.395550
_cell_length_c 27.127582
_cell_angle_alpha 90.000000
_cell_angle_beta 90.000000
_cell_angle_gamma 90.000000
_cell_volume 5621.699270
_symmetry_space_group_name_H-M "P 42/M B C"
_symmetry_group_IT_number 135
_symmetry_cell_setting 'tetragonal'
loop_
_space_group_symop_operation_xyz
x,y,z
-y,x,1/2+z
-x,-y,z
y,-x,1/2+z
1/2+x,1/2-y,-z
1/2-x,1/2+y,-z
1/2+y,1/2+x,1/2-z
1/2-y,1/2-x,1/2-z
-x,-y,-z
y,-x,1/2-z
x,y,-z
-y,x,1/2-z
1/2-x,1/2+y,z
1/2+x,1/2-y,z
1/2-y,1/2-x,1/2+z
1/2+y,1/2+x,1/2+z
loop_
_atom_site_type_symbol
_atom_site_label
_atom_site_fract_x
_atom_site_fract_y
_atom_site_fract_z
Si Si1 0.447195 0.414583 0.653287
Si Si2 0.395611 0.684118 0.298989
Si Si3 0.828649 0.703158 0.382787
Si Si4 0.986922 0.606682 0.442049
Si Si5 0.188491 0.623179 0.299560
Si Si6 0.749644 0.567508 0.695677
Si Si7 0.366892 0.237476 0.608313
O O1 0.500000 0.500000 0.625300
O O2 0.515363 0.382878 0.697728
O O3 0.355944 0.453665 0.680091
O O4 0.420855 0.335267 0.613308
O O5 0.394931 0.723463 0.355503
O O6 0.296725 0.638554 0.287318
O O7 0.413508 0.756513 0.254421
O O8 0.785658 0.653756 0.334968
O O9 0.739301 0.746822 0.412091
O O10 0.889957 0.641055 0.418886
O O11 0.975575 0.615658 0.500000
O O12 0.075941 0.668163 0.426675
O O13 0.000000 0.500000 0.425701
O O14 0.130164 0.630164 0.250000
O O15 0.182950 0.517818 0.318985
O O16 0.141846 0.693027 0.337685
#
# Coordination Sequence:
#
# PCOD8317586 Si02
#       7
#    16  16  16  16  16  16  16
#     4  11  21  34  57  87 118 162 211 252 300 364
#     4  11  19  34  53  82 121 159 201 242 297 357
#     4  10  22  39  63  86 119 162 201 256 311 375
#     4  11  24  44  69  94 121 159 208 265 324 388
#     4  11  21  34  51  82 126 163 199 250 300 362
#     4  11  21  33  53  86 121 162 208 247 294 362
#     4  10  22  41  62  88 122 161 203 257 315 374
#
# _framework density 19.922801
#
# number of rings (size 3 to 8) (size 9 to 14) (size 15 to 20)
#    0.000    1.286    2.857    5.571    0.000    0.571 
#    0.000    0.000    0.000    0.429    0.000    0.000 
#    0.000    0.000    0.000    0.000    0.000    0.000 
#
# Total GULP energy -1388161.003753 kJ/mol
# GULP energy per Si atom -12394.294676 kJ/mol
# Density = 1.987746 g / cm^3
# Si number density = 19.922801 Si / 1000 Ang^3
#
#
#
# Elastic Constant Matrix: (Units=GPa)
#
#
# Indices 1 2 3 4 5 6 
#
# 1 96.7941 34.6766 30.3326 0.0000 0.0000 0.0000
# 2 34.6766 96.7941 30.3326 0.0000 0.0000 0.0000
# 3 30.3326 30.3326 61.7725 0.0000 0.0000 0.0000
# 4 0.0000 0.0000 0.0000 23.7513 0.0000 0.0000
# 5 0.0000 0.0000 0.0000 0.0000 23.7513 0.0000
# 6 0.0000 0.0000 0.0000 0.0000 0.0000 38.9130
#
#
#
# Elastic Compliance Matrix: (Units=1/GPa)
#
#
# Indices 1 2 3 4 5 6 
#
# 1 0.012967 -0.003132 -0.004829 0.000000 0.000000 0.000000
# 2 -0.003132 0.012967 -0.004829 0.000000 0.000000 0.000000
# 3 -0.004829 -0.004829 0.020931 0.000000 0.000000 0.000000
# 4 0.000000 0.000000 0.000000 0.042103 0.000000 0.000000
# 5 0.000000 0.000000 0.000000 0.000000 0.042103 0.000000
# 6 0.000000 0.000000 0.000000 0.000000 0.000000 0.025698
#
#
# Mechanical properties :
#
#
# Convention : Reuss Voigt Hill
#
# Bulk Modulus (GPa) = 46.98454 49.56049 48.27252
# Shear Modulus (GPa) = 26.39308 27.95105 27.17207
#
# Velocity S-wave (km/s) = 3.64368 3.74968 3.69706
# Velocity P-wave (km/s) = 6.42934 6.60887 6.51972
#
# Compressibility (1/GPa) = 0.02128360
#
# Stress axis : x y z
#
# Youngs Moduli (GPa) = 77.12147 77.12147 47.77596
#
# Poissons Ratio (x) = 0.24154 0.23072
# Poissons Ratio (y) = 0.24154 0.23072
# Poissons Ratio (z) = 0.37243 0.37243
#
# Static dielectric constant tensor:
#      x y z
#    x 3.868200 0.000000 0.000000 
#    y 0.000000 3.868200 0.000000 
#    z 0.000000 0.000000 3.125130 
# 
# 
# High freq. dielectric constant tensor:
#      x y z
#    x 1.790960 0.000000 0.000000 
#    y 0.000000 1.790960 0.000000 
#    z 0.000000 0.000000 1.726100 
# 
# From -- ./inp_files/6534.got.cif
#   From: 2010.03.12/outbox.cif.g09.slc.cpg/sg135_4_cif.got.tgz:6534.got - 2010.04.06 18:31:24.
