data_PCOD8317652
_publ_section_title
;
Structure prediction by ZEFSAII (Michael W. Deem and Ramdas Pophale) SiO2 
 PCOD8317652
Probable space group: P 42/M B C
;
_chemical_formula_sum "Si O2"
_cell_formula_units_Z 48
_cell_length_a 9.172850
_cell_length_b 9.172850
_cell_length_c 21.822252
_cell_angle_alpha 90.000000
_cell_angle_beta 90.000000
_cell_angle_gamma 90.000000
_cell_volume 1836.149971
_symmetry_space_group_name_H-M "P 42/M B C"
_symmetry_group_IT_number 135
_symmetry_cell_setting 'tetragonal'
loop_
_space_group_symop_operation_xyz
x,y,z
-y,x,1/2+z
-x,-y,z
y,-x,1/2+z
1/2+x,1/2-y,-z
1/2-x,1/2+y,-z
1/2+y,1/2+x,1/2-z
1/2-y,1/2-x,1/2-z
-x,-y,-z
y,-x,1/2-z
x,y,-z
-y,x,1/2-z
1/2-x,1/2+y,z
1/2+x,1/2-y,z
1/2-y,1/2-x,1/2+z
1/2+y,1/2+x,1/2+z
loop_
_atom_site_type_symbol
_atom_site_label
_atom_site_fract_x
_atom_site_fract_y
_atom_site_fract_z
Si Si1 0.444939 0.838043 0.069613
Si Si2 0.342976 0.667380 0.358914
Si Si3 0.646361 0.374184 0.213185
O O1 0.273347 0.829341 0.082689
O O2 0.516197 0.727284 0.118309
O O3 0.500000 0.000000 0.082997
O O4 0.475283 0.790052 0.000000
O O5 0.260831 0.744111 0.299435
O O6 0.515343 0.656583 0.343931
O O7 0.475306 0.321609 0.223712
#
# Coordination Sequence:
#
# PCOD8317652 Si02
#       3
#    16  16  16
#     4  11  24  45  73 109 143 186 235 289 354 419
#     4  12  24  48  72 104 146 186 232 298 348 418
#     4  11  24  43  69 103 138 184 236 285 350 417
#
# _framework density 26.141656000000001
#
# number of rings (size 3 to 8) (size 9 to 14) (size 15 to 20)
#    0.000    0.667    3.333    6.000    0.000    0.000 
#    0.000    1.667    0.000    0.000    0.000    0.000 
#    0.000    0.000    0.000    0.000    0.000    0.000 
#
# Total GULP energy -595391.648111 kJ/mol
# GULP energy per Si atom -12403.992669 kJ/mol
# Density = 2.608216 g / cm^3
# Si number density = 26.141656 Si / 1000 Ang^3
#
#
#
# Elastic Constant Matrix: (Units=GPa)
#
#
# Indices 1 2 3 4 5 6 
#
# 1 143.0481 48.2501 27.6320 0.0000 0.0000 0.0000
# 2 48.2501 143.0481 27.6320 0.0000 0.0000 0.0000
# 3 27.6320 27.6320 136.9127 0.0000 0.0000 0.0000
# 4 0.0000 0.0000 0.0000 38.5018 0.0000 0.0000
# 5 0.0000 0.0000 0.0000 0.0000 38.5018 0.0000
# 6 0.0000 0.0000 0.0000 0.0000 0.0000 51.8490
#
#
#
# Elastic Compliance Matrix: (Units=1/GPa)
#
#
# Indices 1 2 3 4 5 6 
#
# 1 0.008050 -0.002499 -0.001120 0.000000 0.000000 0.000000
# 2 -0.002499 0.008050 -0.001120 0.000000 0.000000 0.000000
# 3 -0.001120 -0.001120 0.007756 0.000000 0.000000 0.000000
# 4 0.000000 0.000000 0.000000 0.025973 0.000000 0.000000
# 5 0.000000 0.000000 0.000000 0.000000 0.025973 0.000000
# 6 0.000000 0.000000 0.000000 0.000000 0.000000 0.019287
#
#
# Mechanical properties :
#
#
# Convention : Reuss Voigt Hill
#
# Bulk Modulus (GPa) = 69.55557 70.00412 69.77985
# Shear Modulus (GPa) = 45.72065 47.07014 46.39540
#
# Velocity S-wave (km/s) = 4.18659 4.24793 4.21737
# Velocity P-wave (km/s) = 7.07354 7.13420 7.10393
#
# Compressibility (1/GPa) = 0.01437699
#
# Stress axis : x y z
#
# Youngs Moduli (GPa) = 124.22481 124.22481 128.93010
#
# Poissons Ratio (x) = 0.31042 0.14444
# Poissons Ratio (y) = 0.31042 0.14444
# Poissons Ratio (z) = 0.13917 0.13917
#
# Static dielectric constant tensor:
#      x y z
#    x 4.835570 0.000000 0.000000 
#    y 0.000000 4.835570 0.000000 
#    z 0.000000 0.000000 4.796690 
# 
# 
# High freq. dielectric constant tensor:
#      x y z
#    x 2.067250 0.000000 0.000000 
#    y 0.000000 2.067250 0.000000 
#    z 0.000000 0.000000 2.087250 
# 
# From -- ./inp_files/4019.got.cif
#   From: 2010.03.12/outbox.cif.g09.slc.cpg/sg135_3_cif.got.tgz:4019.got - 2010.04.06 18:31:24.
