data_PCOD8317487
_publ_section_title
;
Structure prediction by ZEFSAII (Michael W. Deem and Ramdas Pophale) SiO2 
 PCOD8317487
Probable space group: P 42/M B C
;
_chemical_formula_sum "Si O2"
_cell_formula_units_Z 112
_cell_length_a 14.456408
_cell_length_b 14.456408
_cell_length_c 25.619570
_cell_angle_alpha 90.000000
_cell_angle_beta 90.000000
_cell_angle_gamma 90.000000
_cell_volume 5354.175836
_symmetry_space_group_name_H-M "P 42/M B C"
_symmetry_group_IT_number 135
_symmetry_cell_setting 'tetragonal'
loop_
_space_group_symop_operation_xyz
x,y,z
-y,x,1/2+z
-x,-y,z
y,-x,1/2+z
1/2+x,1/2-y,-z
1/2-x,1/2+y,-z
1/2+y,1/2+x,1/2-z
1/2-y,1/2-x,1/2-z
-x,-y,-z
y,-x,1/2-z
x,y,-z
-y,x,1/2-z
1/2-x,1/2+y,z
1/2+x,1/2-y,z
1/2-y,1/2-x,1/2+z
1/2+y,1/2+x,1/2+z
loop_
_atom_site_type_symbol
_atom_site_label
_atom_site_fract_x
_atom_site_fract_y
_atom_site_fract_z
Si Si1 0.814726 0.922868 0.383769
Si Si2 0.673372 0.913923 0.703984
Si Si3 0.526204 0.894694 0.614879
Si Si4 0.957738 0.786637 0.650300
Si Si5 0.818803 0.299341 0.440550
Si Si6 0.342709 0.367222 0.368190
Si Si7 0.758211 0.597241 0.261193
O O1 0.770037 0.904818 0.326443
O O2 0.901935 0.855825 0.386714
O O3 0.746853 0.887133 0.428902
O O4 0.841501 0.030359 0.394625
O O5 0.662736 0.837265 0.750000
O O6 0.589893 0.902258 0.664962
O O7 0.667675 0.016200 0.728063
O O8 0.444380 0.822494 0.632545
O O9 0.578390 0.840931 0.568242
O O10 0.500000 0.000000 0.597794
O O11 0.931288 0.802181 0.710810
O O12 0.059865 0.821301 0.641011
O O13 0.808943 0.267097 0.500000
O O14 0.791601 0.209380 0.404847
O O15 0.302408 0.380425 0.311197
O O16 0.808521 0.691480 0.250000
#
# Coordination Sequence:
#
# PCOD8317487 Si02
#       7
#    16  16  16  16  16  16  16
#     4  10  23  40  61  88 123 162 216 260 319 380
#     4  10  20  35  55  85 126 168 197 246 304 372
#     4  10  21  38  61  91 129 158 205 268 321 387
#     4  11  22  38  60  88 131 173 208 257 317 397
#     4  10  23  44  68  89 117 163 214 272 336 382
#     4  10  24  42  59  92 129 166 209 274 321 382
#     4  11  22  34  59  88 124 172 211 249 308 387
#
# _framework density 20.918251999999999
#
# number of rings (size 3 to 8) (size 9 to 14) (size 15 to 20)
#    0.000    1.714    1.429    2.143    4.000    3.714 
#    0.000    2.857    0.000    4.286    0.000    0.000 
#    0.000    0.000    0.000    0.000    0.000    0.000 
#
# Total GULP energy -1387642.338908 kJ/mol
# GULP energy per Si atom -12389.663740 kJ/mol
# Density = 2.087064 g / cm^3
# Si number density = 20.918252 Si / 1000 Ang^3
#
#
#
# Elastic Constant Matrix: (Units=GPa)
#
#
# Indices 1 2 3 4 5 6 
#
# 1 62.9052 74.3225 21.5660 0.0000 0.0000 0.0000
# 2 74.3225 62.9123 21.5805 0.0000 0.0000 0.0000
# 3 21.5660 21.5805 81.3095 0.0000 0.0000 0.0000
# 4 0.0000 0.0000 0.0000 64.0345 0.0000 0.0000
# 5 0.0000 0.0000 0.0000 0.0000 64.0307 0.0000
# 6 0.0000 0.0000 0.0000 0.0000 0.0000 36.9025
#
#
#
# Elastic Compliance Matrix: (Units=1/GPa)
#
#
# Indices 1 2 3 4 5 6 
#
# 1 -0.039832 0.047782 -0.002117 0.000000 0.000000 0.000000
# 2 0.047782 -0.039832 -0.002102 0.000000 0.000000 0.000000
# 3 -0.002117 -0.002102 0.013418 0.000000 0.000000 0.000000
# 4 0.000000 0.000000 0.000000 0.015617 0.000000 0.000000
# 5 0.000000 0.000000 0.000000 0.000000 0.015618 0.000000
# 6 0.000000 0.000000 0.000000 0.000000 0.000000 0.027098
#
#
# Mechanical properties :
#
#
# Convention : Reuss Voigt Hill
#
# Bulk Modulus (GPa) = 47.89062 49.11831 48.50447
# Shear Modulus (GPa) = -56.76664 38.97073 -8.89795
#
# Velocity S-wave (km/s) = -5.21501 4.32093 -2.06468
# Velocity P-wave (km/s) = 3.64936 6.95888 4.18976
#
# Compressibility (1/GPa) = 0.02088091
#
# Stress axis : x y z
#
# Youngs Moduli (GPa) = -25.10558 -25.10535 74.52671
#
# Poissons Ratio (x) = 1.19959 0.15779
# Poissons Ratio (y) = 1.19960 0.15662
# Poissons Ratio (z) = -0.05315 -0.05276
#
# Static dielectric constant tensor:
#      x y z
#    x 4.505190 0.000000 0.000000 
#    y 0.000000 4.505480 0.000000 
#    z 0.000000 0.000000 4.267450 
# 
# 
# High freq. dielectric constant tensor:
#      x y z
#    x 1.822010 0.000000 0.000000 
#    y 0.000000 1.822010 0.000000 
#    z 0.000000 0.000000 1.790930 
# 
# From -- ./inp_files/6499.got.cif
#   From: 2010.03.12/outbox.cif.g09.slc.cpg/sg135_4_cif.got.tgz:6499.got - 2010.04.06 18:31:24.
