data_PCOD8317397
_publ_section_title
;
Structure prediction by ZEFSAII (Michael W. Deem and Ramdas Pophale) SiO2 
 PCOD8317397
Probable space group: P 42/M B C
;
_chemical_formula_sum "Si O2"
_cell_formula_units_Z 96
_cell_length_a 26.733597
_cell_length_b 26.733597
_cell_length_c 9.060341
_cell_angle_alpha 90.000000
_cell_angle_beta 90.000000
_cell_angle_gamma 90.000000
_cell_volume 6475.291697
_symmetry_space_group_name_H-M "P 42/M B C"
_symmetry_group_IT_number 135
_symmetry_cell_setting 'tetragonal'
loop_
_space_group_symop_operation_xyz
x,y,z
-y,x,1/2+z
-x,-y,z
y,-x,1/2+z
1/2+x,1/2-y,-z
1/2-x,1/2+y,-z
1/2+y,1/2+x,1/2-z
1/2-y,1/2-x,1/2-z
-x,-y,-z
y,-x,1/2-z
x,y,-z
-y,x,1/2-z
1/2-x,1/2+y,z
1/2+x,1/2-y,z
1/2-y,1/2-x,1/2+z
1/2+y,1/2+x,1/2+z
loop_
_atom_site_type_symbol
_atom_site_label
_atom_site_fract_x
_atom_site_fract_y
_atom_site_fract_z
Si Si1 0.014842 0.065552 0.336103
Si Si2 0.654791 0.222818 0.665655
Si Si3 0.806449 0.238652 0.165111
Si Si4 0.990161 0.175194 0.334896
Si Si5 0.665492 0.376204 0.174273
Si Si6 0.204531 0.916122 0.325839
O O1 0.023113 0.043127 0.500000
O O2 0.958468 0.052991 0.280807
O O3 0.021222 0.124145 0.341216
O O4 0.672734 0.172734 0.750000
O O5 0.637354 0.208907 0.500000
O O6 0.700313 0.261063 0.658255
O O7 0.609087 0.246973 0.754191
O O8 0.788688 0.288688 0.250000
O O9 0.852800 0.214308 0.250548
O O10 0.823546 0.253294 0.000000
O O11 0.987626 0.198673 0.500000
O O12 0.934257 0.165021 0.273166
O O13 0.025899 0.206911 0.227411
O O14 0.614988 0.345924 0.220862
O O15 0.672236 0.372616 0.000000
O O16 0.210656 0.915326 0.500000
#
# Coordination Sequence:
#
# PCOD8317397 Si02
#       6
#    16  16  16  16  16  16
#     4  10  19  30  42  54  68  90 124 165 207 245
#     4   9  16  27  43  62  82 101 124 156 195 238
#     4   9  16  26  42  62  80  98 122 154 193 236
#     4  10  20  31  41  54  75 102 130 163 203 242
#     4   9  18  31  43  56  77 103 131 165 204 242
#     4  10  19  30  44  60  78 102 133 168 205 244
#
# _framework density 14.825588
#
# number of rings (size 3 to 8) (size 9 to 14) (size 15 to 20)
#    0.000    2.500    0.000    3.500    0.000    8.000 
#    0.000    0.000    0.000    0.000    0.000    0.000 
#    0.000    0.000    0.000    0.000    0.000    0.833 
#
# Total GULP energy -1189566.403567 kJ/mol
# GULP energy per Si atom -12391.316704 kJ/mol
# Density = 1.479184 g / cm^3
# Si number density = 14.825588 Si / 1000 Ang^3
#
#
#
# Elastic Constant Matrix: (Units=GPa)
#
#
# Indices 1 2 3 4 5 6 
#
# 1 40.5800 23.4193 22.9765 0.0000 0.0000 0.0000
# 2 23.4193 40.5800 22.9765 0.0000 0.0000 0.0000
# 3 22.9765 22.9765 69.2035 0.0000 0.0000 0.0000
# 4 0.0000 0.0000 0.0000 20.7300 0.0000 0.0000
# 5 0.0000 0.0000 0.0000 0.0000 20.7300 0.0000
# 6 0.0000 0.0000 0.0000 0.0000 0.0000 12.5381
#
#
#
# Elastic Compliance Matrix: (Units=1/GPa)
#
#
# Indices 1 2 3 4 5 6 
#
# 1 0.039394 -0.018878 -0.006812 0.000000 0.000000 0.000000
# 2 -0.018878 0.039394 -0.006812 0.000000 0.000000 0.000000
# 3 -0.006812 -0.006812 0.018973 0.000000 0.000000 0.000000
# 4 0.000000 0.000000 0.000000 0.048239 0.000000 0.000000
# 5 0.000000 0.000000 0.000000 0.000000 0.048239 0.000000
# 6 0.000000 0.000000 0.000000 0.000000 0.000000 0.079757
#
#
# Mechanical properties :
#
#
# Convention : Reuss Voigt Hill
#
# Bulk Modulus (GPa) = 30.52603 32.12311 31.32457
# Shear Modulus (GPa) = 14.28896 16.19902 15.24399
#
# Velocity S-wave (km/s) = 3.10789 3.30910 3.21007
# Velocity P-wave (km/s) = 5.78908 6.02615 5.90880
#
# Compressibility (1/GPa) = 0.03275893
#
# Stress axis : x y z
#
# Youngs Moduli (GPa) = 25.38431 25.38431 52.70581
#
# Poissons Ratio (x) = 0.47921 0.35901
# Poissons Ratio (y) = 0.47921 0.35901
# Poissons Ratio (z) = 0.17291 0.17291
#
# Static dielectric constant tensor:
#      x y z
#    x 2.671380 0.000000 0.000000 
#    y 0.000000 2.671380 0.000000 
#    z 0.000000 0.000000 3.078050 
# 
# 
# High freq. dielectric constant tensor:
#      x y z
#    x 1.529430 0.000000 0.000000 
#    y 0.000000 1.529430 0.000000 
#    z 0.000000 0.000000 1.583900 
# 
# From -- ./inp_files/1345.got.cif
#   From: 2010.03.12/outbox.cif.g09.slc.cpg/sg135_1_cif.got.tgz:1345.got - 2010.04.06 18:31:24.
