data_PCOD8317525
_publ_section_title
;
Structure prediction by ZEFSAII (Michael W. Deem and Ramdas Pophale) SiO2 
 PCOD8317525
Probable space group: P 42/M B C
;
_chemical_formula_sum "Si O2"
_cell_formula_units_Z 64
_cell_length_a 14.519556
_cell_length_b 14.519556
_cell_length_c 15.561813
_cell_angle_alpha 90.000000
_cell_angle_beta 90.000000
_cell_angle_gamma 90.000000
_cell_volume 3280.702612
_symmetry_space_group_name_H-M "P 42/M B C"
_symmetry_group_IT_number 135
_symmetry_cell_setting 'tetragonal'
loop_
_space_group_symop_operation_xyz
x,y,z
-y,x,1/2+z
-x,-y,z
y,-x,1/2+z
1/2+x,1/2-y,-z
1/2-x,1/2+y,-z
1/2+y,1/2+x,1/2-z
1/2-y,1/2-x,1/2-z
-x,-y,-z
y,-x,1/2-z
x,y,-z
-y,x,1/2-z
1/2-x,1/2+y,z
1/2+x,1/2-y,z
1/2-y,1/2-x,1/2+z
1/2+y,1/2+x,1/2+z
loop_
_atom_site_type_symbol
_atom_site_label
_atom_site_fract_x
_atom_site_fract_y
_atom_site_fract_z
Si Si1 0.496128 0.897187 0.099250
Si Si2 0.104526 0.097812 0.243703
Si Si3 0.242981 0.857755 0.598461
Si Si4 0.727593 0.841044 0.340395
O O1 0.409933 0.835397 0.133632
O O2 0.591771 0.842909 0.111389
O O3 0.500000 0.000000 0.143101
O O4 0.477967 0.913306 0.000000
O O5 0.115205 0.159141 0.159285
O O6 0.175619 0.111546 0.321202
O O7 0.006615 0.115309 0.288579
O O8 0.222782 0.887771 0.500000
O O9 0.252528 0.747607 0.602290
O O10 0.683233 0.816768 0.250000
#
# Coordination Sequence:
#
# PCOD8317525 Si02
#       4
#    16  16  16  16
#     4  10  21  39  60  87 120 157 202 252 302 363
#     4  10  20  38  61  86 117 156 199 254 307 368
#     4  10  21  38  60  87 122 158 200 253 308 368
#     4  10  21  37  58  86 118 158 197 245 305 366
#
# _framework density 19.508018
#
# number of rings (size 3 to 8) (size 9 to 14) (size 15 to 20)
#    0.000    2.000    2.500    0.750    0.000    4.500 
#    4.500    7.500    0.000    0.000    0.000    0.000 
#    0.000    0.000    0.000    0.000    0.000    0.000 
#
# Total GULP energy -793172.230017 kJ/mol
# GULP energy per Si atom -12393.316094 kJ/mol
# Density = 1.946362 g / cm^3
# Si number density = 19.508018 Si / 1000 Ang^3
#
#
#
# Elastic Constant Matrix: (Units=GPa)
#
#
# Indices 1 2 3 4 5 6 
#
# 1 145.9837 74.0801 14.0557 0.0000 0.0000 0.0000
# 2 74.0801 145.9835 14.0559 0.0000 0.0000 0.0000
# 3 14.0557 14.0559 40.4748 0.0000 0.0000 0.0000
# 4 0.0000 0.0000 0.0000 20.6327 0.0000 0.0000
# 5 0.0000 0.0000 0.0000 0.0000 20.6320 0.0000
# 6 0.0000 0.0000 0.0000 0.0000 0.0000 31.0662
#
#
#
# Elastic Compliance Matrix: (Units=1/GPa)
#
#
# Indices 1 2 3 4 5 6 
#
# 1 0.009331 -0.004576 -0.001651 0.000000 0.000000 0.000000
# 2 -0.004576 0.009331 -0.001651 0.000000 0.000000 0.000000
# 3 -0.001651 -0.001651 0.025854 0.000000 0.000000 0.000000
# 4 0.000000 0.000000 0.000000 0.048467 0.000000 0.000000
# 5 0.000000 0.000000 0.000000 0.000000 0.048468 0.000000
# 6 0.000000 0.000000 0.000000 0.000000 0.000000 0.032189
#
#
# Mechanical properties :
#
#
# Convention : Reuss Voigt Hill
#
# Bulk Modulus (GPa) = 34.77227 59.64727 47.20977
# Shear Modulus (GPa) = 25.12757 29.81620 27.47189
#
# Velocity S-wave (km/s) = 3.59285 3.91373 3.75672
# Velocity P-wave (km/s) = 5.92240 7.14599 6.56277
#
# Compressibility (1/GPa) = 0.02875855
#
# Stress axis : x y z
#
# Youngs Moduli (GPa) = 107.16628 107.16597 38.67930
#
# Poissons Ratio (x) = 0.49042 0.06387
# Poissons Ratio (y) = 0.49042 0.06387
# Poissons Ratio (z) = 0.17696 0.17697
#
# Static dielectric constant tensor:
#      x y z
#    x 3.917020 0.000000 0.000000 
#    y 0.000000 3.917010 0.000000 
#    z 0.000000 0.000000 3.266650 
# 
# 
# High freq. dielectric constant tensor:
#      x y z
#    x 1.772250 0.000000 0.000000 
#    y 0.000000 1.772250 0.000000 
#    z 0.000000 0.000000 1.737570 
# 
# From -- ./inp_files/3119.got.cif
#   From: 2010.03.12/outbox.cif.g09.slc.cpg/sg135_2_cif.got.tgz:3119.got - 2010.04.06 18:31:24.
