data_PCOD8317420
_publ_section_title
;
Structure prediction by ZEFSAII (Michael W. Deem and Ramdas Pophale) SiO2 
 PCOD8317420
Probable space group: P 42/M B C
;
_chemical_formula_sum "Si O2"
_cell_formula_units_Z 96
_cell_length_a 25.174560
_cell_length_b 25.174560
_cell_length_c 8.681264
_cell_angle_alpha 90.000000
_cell_angle_beta 90.000000
_cell_angle_gamma 90.000000
_cell_volume 5501.824601
_symmetry_space_group_name_H-M "P 42/M B C"
_symmetry_group_IT_number 135
_symmetry_cell_setting 'tetragonal'
loop_
_space_group_symop_operation_xyz
x,y,z
-y,x,1/2+z
-x,-y,z
y,-x,1/2+z
1/2+x,1/2-y,-z
1/2-x,1/2+y,-z
1/2+y,1/2+x,1/2-z
1/2-y,1/2-x,1/2-z
-x,-y,-z
y,-x,1/2-z
x,y,-z
-y,x,1/2-z
1/2-x,1/2+y,z
1/2+x,1/2-y,z
1/2-y,1/2-x,1/2+z
1/2+y,1/2+x,1/2+z
loop_
_atom_site_type_symbol
_atom_site_label
_atom_site_fract_x
_atom_site_fract_y
_atom_site_fract_z
Si Si1 0.738658 0.678848 0.815199
Si Si2 0.442160 0.619519 0.334150
Si Si3 0.243856 0.940776 0.829594
Si Si4 0.554016 0.636699 0.673095
Si Si5 0.241538 0.659547 0.182719
Si Si6 0.548460 0.745870 0.822164
O O1 0.786624 0.713377 0.750000
O O2 0.750447 0.618444 0.757302
O O3 0.682742 0.702437 0.750236
O O4 0.735816 0.680721 0.000000
O O5 0.420299 0.599424 0.500000
O O6 0.451302 0.681934 0.340156
O O7 0.401704 0.603844 0.201299
O O8 0.502237 0.598777 0.306830
O O9 0.268450 0.990520 0.733444
O O10 0.269714 0.942217 0.000000
O O11 0.559243 0.660455 0.500000
O O12 0.552572 0.682939 0.798384
O O13 0.193493 0.693493 0.250000
O O14 0.229979 0.598528 0.229354
O O15 0.243253 0.665141 0.000000
O O16 0.554683 0.760571 0.000000
#
# Coordination Sequence:
#
# PCOD8317420 Si02
#       6
#    16  16  16  16  16  16
#     4  10  19  32  51  75 104 134 166 203 245 292
#     4   9  18  31  44  59  81 110 148 192 236 280
#     4   9  19  34  49  67  93 125 158 195 237 282
#     4  10  20  32  45  61  82 111 148 190 236 282
#     4  11  21  34  52  74 102 132 165 202 244 293
#     4  11  21  33  50  70  93 122 157 196 239 287
#
# _framework density 17.448757000000001
#
# number of rings (size 3 to 8) (size 9 to 14) (size 15 to 20)
#    0.000    2.000    0.000    7.000    0.000    6.333 
#    0.000    1.667    0.000    0.000    0.000    0.000 
#    0.000    0.667    0.000    7.000    0.000    3.833 
#
# Total GULP energy -1189384.924965 kJ/mol
# GULP energy per Si atom -12389.426302 kJ/mol
# Density = 1.740904 g / cm^3
# Si number density = 17.448757 Si / 1000 Ang^3
#
#
#
# Elastic Constant Matrix: (Units=GPa)
#
#
# Indices 1 2 3 4 5 6 
#
# 1 73.0011 14.1288 24.5098 0.0000 0.0000 0.0000
# 2 14.1288 73.0010 24.5070 0.0000 0.0000 0.0000
# 3 24.5098 24.5070 93.2744 0.0000 0.0000 0.0000
# 4 0.0000 0.0000 0.0000 20.2848 0.0000 0.0000
# 5 0.0000 0.0000 0.0000 0.0000 20.2845 0.0000
# 6 0.0000 0.0000 0.0000 0.0000 0.0000 19.2752
#
#
#
# Elastic Compliance Matrix: (Units=1/GPa)
#
#
# Indices 1 2 3 4 5 6 
#
# 1 0.015227 -0.001759 -0.003539 0.000000 0.000000 0.000000
# 2 -0.001759 0.015227 -0.003538 0.000000 0.000000 0.000000
# 3 -0.003539 -0.003538 0.012581 0.000000 0.000000 0.000000
# 4 0.000000 0.000000 0.000000 0.049298 0.000000 0.000000
# 5 0.000000 0.000000 0.000000 0.000000 0.049299 0.000000
# 6 0.000000 0.000000 0.000000 0.000000 0.000000 0.051880
#
#
# Mechanical properties :
#
#
# Convention : Reuss Voigt Hill
#
# Bulk Modulus (GPa) = 39.42985 40.61862 40.02424
# Shear Modulus (GPa) = 22.76470 23.71097 23.23783
#
# Velocity S-wave (km/s) = 3.61593 3.69031 3.65331
# Velocity P-wave (km/s) = 6.33086 6.44106 6.38620
#
# Compressibility (1/GPa) = 0.02536149
#
# Stress axis : x y z
#
# Youngs Moduli (GPa) = 65.67245 65.67376 79.48669
#
# Poissons Ratio (x) = 0.11552 0.28131
# Poissons Ratio (y) = 0.11552 0.28126
# Poissons Ratio (z) = 0.23242 0.23239
#
# Static dielectric constant tensor:
#      x y z
#    x 3.261200 0.000000 0.000000 
#    y 0.000000 3.261180 0.000000 
#    z 0.000000 0.000000 3.360750 
# 
# 
# High freq. dielectric constant tensor:
#      x y z
#    x 1.649220 0.000000 0.000000 
#    y 0.000000 1.649220 0.000000 
#    z 0.000000 0.000000 1.683220 
# 
# From -- ./inp_files/1274.got.cif
#   From: 2010.03.12/outbox.cif.g09.slc.cpg/sg135_1_cif.got.tgz:1274.got - 2010.04.06 18:31:24.
