data_PCOD8317963
_publ_section_title
;
Structure prediction by ZEFSAII (Michael W. Deem and Ramdas Pophale) SiO2 
 PCOD8317963
Probable space group: P 42/M N M
;
_chemical_formula_sum "Si O2"
_cell_formula_units_Z 96
_cell_length_a 15.007371
_cell_length_b 15.007371
_cell_length_c 21.820766
_cell_angle_alpha 90.000000
_cell_angle_beta 90.000000
_cell_angle_gamma 90.000000
_cell_volume 4914.498762
_symmetry_space_group_name_H-M "P 42/M N M"
_symmetry_group_IT_number 136
_symmetry_cell_setting 'tetragonal'
loop_
_space_group_symop_operation_xyz
x,y,z
1/2-y,1/2+x,1/2+z
-x,-y,z
1/2+y,1/2-x,1/2+z
1/2+x,1/2-y,1/2-z
1/2-x,1/2+y,1/2-z
y,x,-z
-y,-x,-z
-x,-y,-z
1/2+y,1/2-x,1/2-z
x,y,-z
1/2-y,1/2+x,1/2-z
1/2-x,1/2+y,1/2+z
1/2+x,1/2-y,1/2+z
-y,-x,z
y,x,z
loop_
_atom_site_type_symbol
_atom_site_label
_atom_site_fract_x
_atom_site_fract_y
_atom_site_fract_z
Si Si1 0.242932 0.612881 0.852900
Si Si2 0.307916 0.453460 0.928405
Si Si3 0.177408 0.318124 0.872714
Si Si4 0.374045 0.064778 0.243272
Si Si5 0.314482 0.549378 0.429268
Si Si6 0.227323 0.374011 0.568261
O O1 0.301749 0.698252 0.835310
O O2 0.305874 0.544588 0.890016
O O3 0.208292 0.569594 0.790140
O O4 0.155571 0.641896 0.892088
O O5 0.397508 0.397508 0.913017
O O6 0.219896 0.399313 0.909921
O O7 0.304666 0.476840 0.000000
O O8 0.254775 0.254775 0.845024
O O9 0.115653 0.352435 0.818742
O O10 0.118730 0.265637 0.922039
O O11 0.461750 0.108887 0.273344
O O12 0.334036 0.531888 0.500000
O O13 0.405483 0.594518 0.400465
O O14 0.283642 0.455045 0.399826
O O15 0.194711 0.402881 0.500000
O O16 0.289151 0.289151 0.562585
#
# Coordination Sequence:
#
# PCOD8317963 Si02
#       6
#    16  16  16  16  16  16
#     4  11  22  38  58  82 114 153 194 236 289 350
#     4  10  21  38  61  88 118 151 191 242 296 349
#     4  10  19  35  56  79 109 145 187 233 284 342
#     4  11  22  37  57  81 112 145 189 239 284 337
#     4   9  17  30  51  78 107 141 183 231 285 346
#     4   9  18  32  50  75 109 146 184 230 283 344
#
# _framework density 19.534037000000001
#
# number of rings (size 3 to 8) (size 9 to 14) (size 15 to 20)
#    0.000    2.000    1.667    2.500    0.000    3.667 
#    0.000    2.500    0.000    4.000    0.000    2.333 
#    0.000    0.000    0.000    0.000    0.000    0.000 
#
# Total GULP energy -1189955.776257 kJ/mol
# GULP energy per Si atom -12395.372669 kJ/mol
# Density = 1.948958 g / cm^3
# Si number density = 19.534037 Si / 1000 Ang^3
#
#
#
# Elastic Constant Matrix: (Units=GPa)
#
#
# Indices 1 2 3 4 5 6 
#
# 1 80.4763 18.1516 25.0386 0.0000 0.0000 0.0000
# 2 18.1516 80.4763 25.0386 0.0000 0.0000 0.0000
# 3 25.0386 25.0386 52.5441 0.0000 0.0000 0.0000
# 4 0.0000 0.0000 0.0000 25.7573 0.0000 0.0000
# 5 0.0000 0.0000 0.0000 0.0000 25.7573 0.0000
# 6 0.0000 0.0000 0.0000 0.0000 0.0000 30.8921
#
#
#
# Elastic Compliance Matrix: (Units=1/GPa)
#
#
# Indices 1 2 3 4 5 6 
#
# 1 0.014710 -0.001335 -0.006374 0.000000 0.000000 0.000000
# 2 -0.001335 0.014710 -0.006374 0.000000 0.000000 0.000000
# 3 -0.006374 -0.006374 0.025106 0.000000 0.000000 0.000000
# 4 0.000000 0.000000 0.000000 0.038824 0.000000 0.000000
# 5 0.000000 0.000000 0.000000 0.000000 0.038824 0.000000
# 6 0.000000 0.000000 0.000000 0.000000 0.000000 0.032371
#
#
# Mechanical properties :
#
#
# Convention : Reuss Voigt Hill
#
# Bulk Modulus (GPa) = 37.93345 38.88383 38.40864
# Shear Modulus (GPa) = 24.81429 26.16584 25.49006
#
# Velocity S-wave (km/s) = 3.56801 3.66389 3.61627
# Velocity P-wave (km/s) = 6.03619 6.15205 6.09439
#
# Compressibility (1/GPa) = 0.02636196
#
# Stress axis : x y z
#
# Youngs Moduli (GPa) = 67.98031 67.98031 39.83101
#
# Poissons Ratio (x) = 0.09074 0.25387
# Poissons Ratio (y) = 0.09074 0.25387
# Poissons Ratio (z) = 0.43328 0.43328
#
# Static dielectric constant tensor:
#      x y z
#    x 3.674190 0.000000 0.000000 
#    y 0.000000 3.674190 0.000000 
#    z 0.000000 0.000000 3.351870 
# 
# 
# High freq. dielectric constant tensor:
#      x y z
#    x 1.763390 0.000000 0.000000 
#    y 0.000000 1.763390 0.000000 
#    z 0.000000 0.000000 1.737700 
# 
# From -- ./inp_files/7473.got.cif
#   From: 2010.03.12/outbox.cif.g09.slc.cpg/sg136_4_cif.got.tgz:7473.got - 2010.04.06 18:39:43.
