data_PCOD8317105
_publ_section_title
;
Structure prediction by ZEFSAII (Michael W. Deem and Ramdas Pophale) SiO2 
 PCOD8317105
Probable space group: P 42/N N M
;
_chemical_formula_sum "Si O2"
_cell_formula_units_Z 112
_cell_length_a 14.032341
_cell_length_b 14.032341
_cell_length_c 29.656627
_cell_angle_alpha 90.000000
_cell_angle_beta 90.000000
_cell_angle_gamma 90.000000
_cell_volume 5839.585410
_symmetry_space_group_name_H-M "P 42/N N M"
_symmetry_group_IT_number 134
_space_group.IT_coordinate_system_code '2'
_symmetry_cell_setting 'tetragonal'
loop_
_space_group_symop_operation_xyz
x,y,z
1/2-y,x,1/2+z
1/2-x,1/2-y,z
y,1/2-x,1/2+z
x,1/2-y,1/2-z
1/2-x,y,1/2-z
y,x,-z
1/2-y,1/2-x,-z
-x,-y,-z
1/2+y,-x,1/2-z
1/2+x,1/2+y,-z
-y,1/2+x,1/2-z
-x,1/2+y,1/2+z
1/2+x,-y,1/2+z
-y,-x,z
1/2+y,1/2+x,z
loop_
_atom_site_type_symbol
_atom_site_label
_atom_site_fract_x
_atom_site_fract_y
_atom_site_fract_z
Si Si1 0.099402 0.754013 0.869000
Si Si2 0.399157 0.750503 0.372122
Si Si3 0.182069 0.470193 0.449894
Si Si4 0.955885 0.889107 0.660752
Si Si5 0.325279 0.324668 0.417414
Si Si6 0.168411 0.987390 0.286013
Si Si7 0.027786 0.182410 0.050532
O O1 0.162443 0.837558 0.844612
O O2 0.168836 0.668836 0.884615
O O3 0.017663 0.709862 0.835636
O O4 0.055263 0.801246 0.913538
O O5 0.342949 0.657052 0.389715
O O6 0.325280 0.825280 0.350203
O O7 0.447548 0.802819 0.413957
O O8 0.473043 0.720965 0.333613
O O9 0.271442 0.398944 0.449156
O O10 0.175314 0.514756 0.500061
O O11 0.084411 0.414702 0.437686
O O12 0.876742 0.879982 0.622632
O O13 0.901696 0.920223 0.707216
O O14 0.025036 0.974965 0.646177
O O15 0.250000 0.250000 0.395782
O O16 0.400567 0.271333 0.448860
O O17 0.250000 0.010347 0.250000
O O18 0.106145 0.893856 0.272342
#
# Coordination Sequence:
#
# PCOD8317105 Si02
#       7
#    16  16  16  16  16  16  16
#     4   9  18  33  51  73 104 141 182 229 277 320
#     4  10  21  34  48  71 105 145 181 212 257 315
#     4  10  18  31  47  69 103 140 182 228 269 320
#     4   9  17  31  52  79 107 137 179 223 263 318
#     4   9  16  29  49  72 100 136 180 221 277 317
#     4  10  19  33  55  81 112 143 173 211 257 317
#     4   9  19  30  47  73 100 137 182 228 276 320
#
# _framework density 19.179442000000002
#
# number of rings (size 3 to 8) (size 9 to 14) (size 15 to 20)
#    0.000    2.571    1.429    0.857    0.000    4.143 
#    0.000    2.857    0.000    4.714    0.000    0.000 
#    0.000    1.143    0.000    5.286    0.000    1.714 
#
# Total GULP energy -1387749.291963 kJ/mol
# GULP energy per Si atom -12390.618678 kJ/mol
# Density = 1.913579 g / cm^3
# Si number density = 19.179442 Si / 1000 Ang^3
#
#
#
# Elastic Constant Matrix: (Units=GPa)
#
#
# Indices 1 2 3 4 5 6 
#
# 1 92.0838 50.2873 47.6698 0.0000 0.0000 0.0000
# 2 50.2873 92.0838 47.6698 0.0000 0.0000 0.0000
# 3 47.6698 47.6698 77.7823 0.0000 0.0000 0.0000
# 4 0.0000 0.0000 0.0000 18.8306 0.0000 0.0000
# 5 0.0000 0.0000 0.0000 0.0000 18.8306 0.0000
# 6 0.0000 0.0000 0.0000 0.0000 0.0000 32.4016
#
#
#
# Elastic Compliance Matrix: (Units=1/GPa)
#
#
# Indices 1 2 3 4 5 6 
#
# 1 0.017919 -0.006006 -0.007301 0.000000 0.000000 0.000000
# 2 -0.006006 0.017919 -0.007301 0.000000 0.000000 0.000000
# 3 -0.007301 -0.007301 0.021806 0.000000 0.000000 0.000000
# 4 0.000000 0.000000 0.000000 0.053105 0.000000 0.000000
# 5 0.000000 0.000000 0.000000 0.000000 0.053105 0.000000
# 6 0.000000 0.000000 0.000000 0.000000 0.000000 0.030863
#
#
# Mechanical properties :
#
#
# Convention : Reuss Voigt Hill
#
# Bulk Modulus (GPa) = 60.87400 61.46708 61.17054
# Shear Modulus (GPa) = 20.71169 21.76741 21.23955
#
# Velocity S-wave (km/s) = 3.28973 3.37253 3.33139
# Velocity P-wave (km/s) = 6.79984 6.87629 6.83817
#
# Compressibility (1/GPa) = 0.01642738
#
# Stress axis : x y z
#
# Youngs Moduli (GPa) = 55.80585 55.80585 45.85994
#
# Poissons Ratio (x) = 0.33518 0.33483
# Poissons Ratio (y) = 0.33518 0.33483
# Poissons Ratio (z) = 0.40744 0.40744
#
# Static dielectric constant tensor:
#      x y z
#    x 3.705860 0.000000 0.000000 
#    y 0.000000 3.705860 0.000000 
#    z 0.000000 0.000000 3.083690 
# 
# 
# High freq. dielectric constant tensor:
#      x y z
#    x 1.755540 0.000000 0.000000 
#    y 0.000000 1.755540 0.000000 
#    z 0.000000 0.000000 1.697010 
# 
# From -- ./inp_files/10111.got.cif
#   From: 2010.03.12/outbox.cif.g09.slc.cpg/sg134_6_cif.got.tgz:10111.got - 2010.04.06 18:17:22.
