data_PCOD8317638
_publ_section_title
;
Structure prediction by ZEFSAII (Michael W. Deem and Ramdas Pophale) SiO2 
 PCOD8317638
Probable space group: P 42/M B C
;
_chemical_formula_sum "Si O2"
_cell_formula_units_Z 96
_cell_length_a 14.851614
_cell_length_b 14.851614
_cell_length_c 20.388610
_cell_angle_alpha 90.000000
_cell_angle_beta 90.000000
_cell_angle_gamma 90.000000
_cell_volume 4497.124646
_symmetry_space_group_name_H-M "P 42/M B C"
_symmetry_group_IT_number 135
_symmetry_cell_setting 'tetragonal'
loop_
_space_group_symop_operation_xyz
x,y,z
-y,x,1/2+z
-x,-y,z
y,-x,1/2+z
1/2+x,1/2-y,-z
1/2-x,1/2+y,-z
1/2+y,1/2+x,1/2-z
1/2-y,1/2-x,1/2-z
-x,-y,-z
y,-x,1/2-z
x,y,-z
-y,x,1/2-z
1/2-x,1/2+y,z
1/2+x,1/2-y,z
1/2-y,1/2-x,1/2+z
1/2+y,1/2+x,1/2+z
loop_
_atom_site_type_symbol
_atom_site_label
_atom_site_fract_x
_atom_site_fract_y
_atom_site_fract_z
Si Si1 0.731890 0.037942 0.074047
Si Si2 0.320117 0.276860 0.927260
Si Si3 0.423199 0.926163 0.825664
Si Si4 0.047737 0.865810 0.249169
Si Si5 0.136901 0.813123 0.621133
Si Si6 0.739678 0.508863 0.374709
O O1 0.799281 0.119702 0.089778
O O2 0.659277 0.032886 0.132688
O O3 0.789223 0.946063 0.074109
O O4 0.690172 0.047715 0.000000
O O5 0.264125 0.212734 0.878964
O O6 0.427130 0.259575 0.925876
O O7 0.286309 0.253061 0.000000
O O8 0.399195 0.899195 0.750000
O O9 0.454184 0.839344 0.865474
O O10 0.500000 0.000000 0.825096
O O11 0.104954 0.816367 0.304191
O O12 0.034276 0.794432 0.192459
O O13 0.951937 0.897867 0.278630
O O14 0.176719 0.910094 0.599307
#
# Coordination Sequence:
#
# PCOD8317638 Si02
#       6
#    16  16  16  16  16  16
#     4  11  24  43  66  96 137 178 225 282 334 396
#     4  11  25  42  63  97 131 171 229 273 325 404
#     4  11  24  43  66  98 138 177 228 281 333 399
#     4   9  19  36  62  98 133 165 218 275 330 403
#     4  11  22  42  65  94 129 176 218 273 336 400
#     4  11  23  41  66  95 126 179 214 275 337 399
#
# _framework density 21.346973999999999
#
# number of rings (size 3 to 8) (size 9 to 14) (size 15 to 20)
#    0.000    1.333    1.667    3.500    0.000    7.667 
#    0.000    1.667    0.000    0.000    0.000    0.000 
#    0.000    0.000    0.000    0.000    0.000    0.000 
#
# Total GULP energy -1190499.886157 kJ/mol
# GULP energy per Si atom -12401.040481 kJ/mol
# Density = 2.129839 g / cm^3
# Si number density = 21.346974 Si / 1000 Ang^3
#
#
#
# Elastic Constant Matrix: (Units=GPa)
#
#
# Indices 1 2 3 4 5 6 
#
# 1 128.7616 51.4582 42.0905 0.0000 0.0000 0.0000
# 2 51.4582 128.7616 42.0905 0.0000 0.0000 0.0000
# 3 42.0905 42.0905 93.2277 0.0000 0.0000 0.0000
# 4 0.0000 0.0000 0.0000 32.7691 0.0000 0.0000
# 5 0.0000 0.0000 0.0000 0.0000 32.7691 0.0000
# 6 0.0000 0.0000 0.0000 0.0000 0.0000 39.7757
#
#
#
# Elastic Compliance Matrix: (Units=1/GPa)
#
#
# Indices 1 2 3 4 5 6 
#
# 1 0.009984 -0.002952 -0.003175 0.000000 0.000000 0.000000
# 2 -0.002952 0.009984 -0.003175 0.000000 0.000000 0.000000
# 3 -0.003175 -0.003175 0.013593 0.000000 0.000000 0.000000
# 4 0.000000 0.000000 0.000000 0.030517 0.000000 0.000000
# 5 0.000000 0.000000 0.000000 0.000000 0.030517 0.000000
# 6 0.000000 0.000000 0.000000 0.000000 0.000000 0.025141
#
#
# Mechanical properties :
#
#
# Convention : Reuss Voigt Hill
#
# Bulk Modulus (GPa) = 66.85514 69.11436 67.98475
# Shear Modulus (GPa) = 34.88606 35.40356 35.14481
#
# Velocity S-wave (km/s) = 4.04696 4.07686 4.06194
# Velocity P-wave (km/s) = 7.29544 7.38973 7.34273
#
# Compressibility (1/GPa) = 0.01495771
#
# Stress axis : x y z
#
# Youngs Moduli (GPa) = 100.16166 100.16166 73.56708
#
# Poissons Ratio (x) = 0.29570 0.23355
# Poissons Ratio (y) = 0.29570 0.23355
# Poissons Ratio (z) = 0.31798 0.31798
#
# Static dielectric constant tensor:
#      x y z
#    x 3.997120 0.000000 0.000000 
#    y 0.000000 3.997120 0.000000 
#    z 0.000000 0.000000 3.757170 
# 
# 
# High freq. dielectric constant tensor:
#      x y z
#    x 1.845110 0.000000 0.000000 
#    y 0.000000 1.845110 0.000000 
#    z 0.000000 0.000000 1.830790 
# 
# From -- ./inp_files/5460.got.cif
#   From: 2010.03.12/outbox.cif.g09.slc.cpg/sg135_3_cif.got.tgz:5460.got - 2010.04.06 18:31:24.
