data_PCOD8317010
_publ_section_title
;
Structure prediction by ZEFSAII (Michael W. Deem and Ramdas Pophale) SiO2 
 PCOD8317010
Probable space group: P 42/N B C
;
_chemical_formula_sum "Si O2"
_cell_formula_units_Z 72
_cell_length_a 19.496289
_cell_length_b 19.496289
_cell_length_c 9.051950
_cell_angle_alpha 90.000000
_cell_angle_beta 90.000000
_cell_angle_gamma 90.000000
_cell_volume 3440.694032
_symmetry_space_group_name_H-M "P 42/N B C"
_symmetry_group_IT_number 133
_space_group.IT_coordinate_system_code '2'
_symmetry_cell_setting 'tetragonal'
loop_
_space_group_symop_operation_xyz
x,y,z
1/2-y,x,1/2+z
1/2-x,1/2-y,z
y,1/2-x,1/2+z
x,1/2-y,-z
1/2-x,y,-z
y,x,1/2-z
1/2-y,1/2-x,1/2-z
-x,-y,-z
1/2+y,-x,1/2-z
1/2+x,1/2+y,-z
-y,1/2+x,1/2-z
-x,1/2+y,z
1/2+x,-y,z
-y,-x,1/2+z
1/2+y,1/2+x,1/2+z
loop_
_atom_site_type_symbol
_atom_site_label
_atom_site_fract_x
_atom_site_fract_y
_atom_site_fract_z
Si Si1 0.673826 0.673826 0.750000
Si Si2 0.626810 0.436221 0.923573
Si Si3 0.750000 0.750000 0.000000
Si Si4 0.235032 0.035476 0.170536
Si Si5 0.250000 0.750000 0.250000
Si Si6 0.999111 0.112341 0.721746
Si Si7 0.750000 0.147129 0.000000
O O1 0.702710 0.703545 0.599792
O O2 0.692932 0.594328 0.745894
O O3 0.681305 0.472880 0.813912
O O4 0.565792 0.402636 0.829332
O O5 0.677876 0.390897 0.026969
O O6 0.594161 0.484159 0.050079
O O7 0.307823 0.019540 0.248936
O O8 0.250000 0.053564 0.000000
O O9 0.313480 0.767603 0.351525
O O10 0.064801 0.064801 0.750000
#
# Coordination Sequence:
#
# PCOD8317010 Si02
#       7
#     8  16   4  16   4  16   8
#     4  11  22  42  66  96 134 168 226 271 336 388
#     4  11  23  45  65  93 133 177 215 280 331 402
#     4  10  24  36  68  96 124 174 212 286 320 398
#     4  10  23  44  69  94 134 177 220 275 335 395
#     4  10  24  34  68  98 120 174 208 282 328 398
#     4  11  24  43  68  96 131 175 226 277 336 397
#     4  11  20  41  66  93 134 163 226 270 340 387
#
# _framework density 20.926012
#
# number of rings (size 3 to 8) (size 9 to 14) (size 15 to 20)
#    0.000    1.333    4.444    2.000    4.667    0.000 
#    4.000    0.000    0.000    0.000    0.000    0.000 
#    0.000    0.000    0.000    0.000    0.000    0.000 
#
# Total GULP energy -891951.651084 kJ/mol
# GULP energy per Si atom -12388.217376 kJ/mol
# Density = 2.087838 g / cm^3
# Si number density = 20.926012 Si / 1000 Ang^3
#
#
#
# Elastic Constant Matrix: (Units=GPa)
#
#
# Indices 1 2 3 4 5 6 
#
# 1 128.4021 68.1937 37.6732 0.0000 0.0000 0.0000
# 2 68.1937 128.4021 37.6732 0.0000 0.0000 0.0000
# 3 37.6732 37.6732 76.3115 0.0000 0.0000 0.0000
# 4 0.0000 0.0000 0.0000 61.8652 0.0000 0.0000
# 5 0.0000 0.0000 0.0000 0.0000 61.8652 0.0000
# 6 0.0000 0.0000 0.0000 0.0000 0.0000 50.3818
#
#
#
# Elastic Compliance Matrix: (Units=1/GPa)
#
#
# Indices 1 2 3 4 5 6 
#
# 1 0.011441 -0.005168 -0.003097 0.000000 0.000000 0.000000
# 2 -0.005168 0.011441 -0.003097 0.000000 0.000000 0.000000
# 3 -0.003097 -0.003097 0.016162 0.000000 0.000000 0.000000
# 4 0.000000 0.000000 0.000000 0.016164 0.000000 0.000000
# 5 0.000000 0.000000 0.000000 0.000000 0.016164 0.000000
# 6 0.000000 0.000000 0.000000 0.000000 0.000000 0.019848
#
#
# Mechanical properties :
#
#
# Convention : Reuss Voigt Hill
#
# Bulk Modulus (GPa) = 61.27151 68.91069 65.09110
# Shear Modulus (GPa) = 41.88109 47.46080 44.67095
#
# Velocity S-wave (km/s) = 4.47854 4.76755 4.62530
# Velocity P-wave (km/s) = 7.48911 7.95664 7.72641
#
# Compressibility (1/GPa) = 0.01632080
#
# Stress axis : x y z
#
# Youngs Moduli (GPa) = 87.40283 87.40283 61.87306
#
# Poissons Ratio (x) = 0.45167 0.19163
# Poissons Ratio (y) = 0.45167 0.19163
# Poissons Ratio (z) = 0.27070 0.27070
#
# Static dielectric constant tensor:
#      x y z
#    x 3.840350 0.000000 0.000000 
#    y 0.000000 3.840350 0.000000 
#    z 0.000000 0.000000 3.687090 
# 
# 
# High freq. dielectric constant tensor:
#      x y z
#    x 1.828670 0.000000 0.000000 
#    y 0.000000 1.828670 0.000000 
#    z 0.000000 0.000000 1.811810 
# 
# From -- ./inp_files/1755.got.cif
#   From: 2010.03.12/outbox.cif.g09.slc.cpg/sg133_1_cif.got.tgz:1755.got - 2010.04.06 18:08:06.
