data_PCOD8317756
_publ_section_title
;
Structure prediction by ZEFSAII (Michael W. Deem and Ramdas Pophale) SiO2 
 PCOD8317756
Probable space group: P 42/M N M
;
_chemical_formula_sum "Si O2"
_cell_formula_units_Z 112
_cell_length_a 15.145793
_cell_length_b 15.145793
_cell_length_c 27.468679
_cell_angle_alpha 90.000000
_cell_angle_beta 90.000000
_cell_angle_gamma 90.000000
_cell_volume 6301.178872
_symmetry_space_group_name_H-M "P 42/M N M"
_symmetry_group_IT_number 136
_symmetry_cell_setting 'tetragonal'
loop_
_space_group_symop_operation_xyz
x,y,z
1/2-y,1/2+x,1/2+z
-x,-y,z
1/2+y,1/2-x,1/2+z
1/2+x,1/2-y,1/2-z
1/2-x,1/2+y,1/2-z
y,x,-z
-y,-x,-z
-x,-y,-z
1/2+y,1/2-x,1/2-z
x,y,-z
1/2-y,1/2+x,1/2-z
1/2-x,1/2+y,1/2+z
1/2+x,1/2-y,1/2+z
-y,-x,z
y,x,z
loop_
_atom_site_type_symbol
_atom_site_label
_atom_site_fract_x
_atom_site_fract_y
_atom_site_fract_z
Si Si1 0.254327 0.891452 0.110257
Si Si2 0.666680 0.806020 0.892754
Si Si3 0.709575 0.436295 0.442570
Si Si4 0.319855 0.454886 0.943581
Si Si5 0.129537 0.446956 0.805936
Si Si6 0.632298 0.063616 0.198015
Si Si7 0.271039 0.126429 0.446022
O O1 0.188197 0.811804 0.119793
O O2 0.284433 0.927522 0.162514
O O3 0.344465 0.858114 0.083676
O O4 0.201995 0.965197 0.078947
O O5 0.747565 0.747565 0.873127
O O6 0.705012 0.895673 0.915559
O O7 0.615680 0.757998 0.936523
O O8 0.599554 0.815935 0.848271
O O9 0.727066 0.440928 0.500000
O O10 0.620778 0.379223 0.432009
O O11 0.411508 0.411508 0.921478
O O12 0.287135 0.548115 0.920493
O O13 0.337197 0.471313 0.000000
O O14 0.132745 0.553128 0.813750
O O15 0.169432 0.423291 0.752832
O O16 0.031316 0.410669 0.807496
O O17 0.301676 0.095338 0.500000
O O18 0.212542 0.212542 0.450627
#
# Coordination Sequence:
#
# PCOD8317756 Si02
#       7
#    16  16  16  16  16  16  16
#     4  11  21  34  52  73 102 134 171 219 260 301
#     4  10  18  30  50  73  99 128 162 210 257 300
#     4  10  21  36  53  74 102 138 178 218 262 311
#     4   9  17  29  46  70  99 130 163 200 248 305
#     4   9  17  32  53  73 100 129 160 203 252 310
#     4   9  18  32  51  75  99 129 162 202 255 305
#     4   9  18  31  46  67  97 132 168 206 249 297
#
# _framework density 17.774452
#
# number of rings (size 3 to 8) (size 9 to 14) (size 15 to 20)
#    0.000    2.429    1.429    2.571    0.000    3.714 
#    0.000    2.143    0.000    3.429    0.000    0.000 
#    0.000    2.286    0.000    0.000    0.000    0.000 
#
# Total GULP energy -1387784.381315 kJ/mol
# GULP energy per Si atom -12390.931976 kJ/mol
# Density = 1.773400 g / cm^3
# Si number density = 17.774452 Si / 1000 Ang^3
#
#
#
# Elastic Constant Matrix: (Units=GPa)
#
#
# Indices 1 2 3 4 5 6 
#
# 1 65.8166 17.3717 30.9588 0.0000 0.0000 0.0000
# 2 17.3717 65.8166 30.9588 0.0000 0.0000 0.0000
# 3 30.9588 30.9588 84.6811 0.0000 0.0000 0.0000
# 4 0.0000 0.0000 0.0000 20.3674 0.0000 0.0000
# 5 0.0000 0.0000 0.0000 0.0000 20.3674 0.0000
# 6 0.0000 0.0000 0.0000 0.0000 0.0000 25.6385
#
#
#
# Elastic Compliance Matrix: (Units=1/GPa)
#
#
# Indices 1 2 3 4 5 6 
#
# 1 0.018578 -0.002064 -0.006038 0.000000 0.000000 0.000000
# 2 -0.002064 0.018578 -0.006038 0.000000 0.000000 0.000000
# 3 -0.006038 -0.006038 0.016224 0.000000 0.000000 0.000000
# 4 0.000000 0.000000 0.000000 0.049098 0.000000 0.000000
# 5 0.000000 0.000000 0.000000 0.000000 0.049098 0.000000
# 6 0.000000 0.000000 0.000000 0.000000 0.000000 0.039004
#
#
# Mechanical properties :
#
#
# Convention : Reuss Voigt Hill
#
# Bulk Modulus (GPa) = 39.83661 41.65477 40.74569
# Shear Modulus (GPa) = 22.00454 22.40968 22.20711
#
# Velocity S-wave (km/s) = 3.52232 3.55460 3.53850
# Velocity P-wave (km/s) = 6.24526 6.35082 6.29826
#
# Compressibility (1/GPa) = 0.02510253
#
# Stress axis : x y z
#
# Youngs Moduli (GPa) = 53.82586 53.82586 61.63825
#
# Poissons Ratio (x) = 0.11108 0.37215
# Poissons Ratio (y) = 0.11108 0.37215
# Poissons Ratio (z) = 0.32498 0.32498
#
# Static dielectric constant tensor:
#      x y z
#    x 3.318330 0.000000 0.000000 
#    y 0.000000 3.318330 0.000000 
#    z 0.000000 0.000000 3.387170 
# 
# 
# High freq. dielectric constant tensor:
#      x y z
#    x 1.678550 0.000000 0.000000 
#    y 0.000000 1.678550 0.000000 
#    z 0.000000 0.000000 1.675330 
# 
# From -- ./inp_files/8511.got.cif
#   From: 2010.03.12/outbox.cif.g09.slc.cpg/sg136_5_cif.got.tgz:8511.got - 2010.04.06 18:39:43.
