data_PCOD8317100
_publ_section_title
;
Structure prediction by ZEFSAII (Michael W. Deem and Ramdas Pophale) SiO2 
 PCOD8317100
Probable space group: P 42/N N M
;
_chemical_formula_sum "Si O2"
_cell_formula_units_Z 96
_cell_length_a 19.817092
_cell_length_b 19.817092
_cell_length_c 13.623715
_cell_angle_alpha 90.000000
_cell_angle_beta 90.000000
_cell_angle_gamma 90.000000
_cell_volume 5350.266327
_symmetry_space_group_name_H-M "P 42/N N M"
_symmetry_group_IT_number 134
_space_group.IT_coordinate_system_code '2'
_symmetry_cell_setting 'tetragonal'
loop_
_space_group_symop_operation_xyz
x,y,z
1/2-y,x,1/2+z
1/2-x,1/2-y,z
y,1/2-x,1/2+z
x,1/2-y,1/2-z
1/2-x,y,1/2-z
y,x,-z
1/2-y,1/2-x,-z
-x,-y,-z
1/2+y,-x,1/2-z
1/2+x,1/2+y,-z
-y,1/2+x,1/2-z
-x,1/2+y,1/2+z
1/2+x,-y,1/2+z
-y,-x,z
1/2+y,1/2+x,z
loop_
_atom_site_type_symbol
_atom_site_label
_atom_site_fract_x
_atom_site_fract_y
_atom_site_fract_z
Si Si1 0.782083 0.993898 0.850746
Si Si2 0.655466 0.936400 0.942002
Si Si3 0.202596 0.590382 0.524394
Si Si4 0.029914 0.419082 0.744879
Si Si5 0.636835 0.028024 0.301313
Si Si6 0.555505 0.336196 0.404889
O O1 0.750000 0.021084 0.750000
O O2 0.732413 0.935973 0.898235
O O3 0.855927 0.965585 0.828477
O O4 0.792195 0.059793 0.916568
O O5 0.601963 0.951342 0.855606
O O6 0.632485 0.867516 0.000000
O O7 0.653401 0.996699 0.018018
O O8 0.157022 0.657022 0.523527
O O9 0.178500 0.529698 0.597206
O O10 0.277959 0.607938 0.561466
O O11 0.085930 0.466239 0.697339
O O12 0.957202 0.457202 0.744897
O O13 0.599283 0.099283 0.299339
O O14 0.682209 0.024815 0.202462
O O15 0.592615 0.407386 0.398780
#
# Coordination Sequence:
#
# PCOD8317100 Si02
#       6
#    16  16  16  16  16  16
#     4   9  20  34  49  74 104 135 172 213 267 325
#     4  10  18  31  52  77 105 136 175 224 270 307
#     4  10  20  34  50  71 106 141 172 208 255 317
#     4  10  18  30  51  78 109 137 170 215 267 320
#     4   9  18  30  48  75 102 131 169 215 259 309
#     4  10  19  31  49  75 105 136 177 216 255 306
#
# _framework density 17.943031000000001
#
# number of rings (size 3 to 8) (size 9 to 14) (size 15 to 20)
#    0.000    2.333    1.667    1.500    0.000    1.667 
#    0.000    3.333    0.000    3.000    0.000    9.333 
#    0.000    0.000    0.000    0.000    0.000    0.000 
#
# Total GULP energy -1189357.531555 kJ/mol
# GULP energy per Si atom -12389.140954 kJ/mol
# Density = 1.790219 g / cm^3
# Si number density = 17.943031 Si / 1000 Ang^3
#
#
#
# Elastic Constant Matrix: (Units=GPa)
#
#
# Indices 1 2 3 4 5 6 
#
# 1 64.7122 23.3561 31.0092 0.0000 0.0000 0.0000
# 2 23.3561 64.7141 31.0094 0.0000 0.0000 0.0000
# 3 31.0092 31.0094 99.7687 0.0000 0.0000 0.0000
# 4 0.0000 0.0000 0.0000 24.1779 0.0000 0.0000
# 5 0.0000 0.0000 0.0000 0.0000 24.1775 0.0000
# 6 0.0000 0.0000 0.0000 0.0000 0.0000 25.1584
#
#
#
# Elastic Compliance Matrix: (Units=1/GPa)
#
#
# Indices 1 2 3 4 5 6 
#
# 1 0.019358 -0.004822 -0.004518 0.000000 0.000000 0.000000
# 2 -0.004822 0.019358 -0.004518 0.000000 0.000000 0.000000
# 3 -0.004518 -0.004518 0.012832 0.000000 0.000000 0.000000
# 4 0.000000 0.000000 0.000000 0.041360 0.000000 0.000000
# 5 0.000000 0.000000 0.000000 0.000000 0.041361 0.000000
# 6 0.000000 0.000000 0.000000 0.000000 0.000000 0.039748
#
#
# Mechanical properties :
#
#
# Convention : Reuss Voigt Hill
#
# Bulk Modulus (GPa) = 41.96017 44.43826 43.19921
# Shear Modulus (GPa) = 23.84626 24.29077 24.06851
#
# Velocity S-wave (km/s) = 3.64950 3.68336 3.66647
# Velocity P-wave (km/s) = 6.41829 6.55054 6.48475
#
# Compressibility (1/GPa) = 0.02383213
#
# Stress axis : x y z
#
# Youngs Moduli (GPa) = 51.65742 51.65901 77.93194
#
# Poissons Ratio (x) = 0.24908 0.35211
# Poissons Ratio (y) = 0.24908 0.35210
# Poissons Ratio (z) = 0.23339 0.23339
#
# Static dielectric constant tensor:
#      x y z
#    x 3.282640 0.000000 0.000000 
#    y 0.000000 3.282640 0.000000 
#    z 0.000000 0.000000 3.676360 
# 
# 
# High freq. dielectric constant tensor:
#      x y z
#    x 1.675680 0.000000 0.000000 
#    y 0.000000 1.675680 0.000000 
#    z 0.000000 0.000000 1.718070 
# 
# From -- ./inp_files/5061.got.cif
#   From: 2010.03.12/outbox.cif.g09.slc.cpg/sg134_3_cif.got.tgz:5061.got - 2010.04.06 18:17:22.
