data_PCOD8317835
_publ_section_title
;
Structure prediction by ZEFSAII (Michael W. Deem and Ramdas Pophale) SiO2 
 PCOD8317835
Probable space group: P 42/M N M
;
_chemical_formula_sum "Si O2"
_cell_formula_units_Z 112
_cell_length_a 30.739998
_cell_length_b 30.739998
_cell_length_c 8.822473
_cell_angle_alpha 90.000000
_cell_angle_beta 90.000000
_cell_angle_gamma 90.000000
_cell_volume 8336.773603
_symmetry_space_group_name_H-M "P 42/M N M"
_symmetry_group_IT_number 136
_symmetry_cell_setting 'tetragonal'
loop_
_space_group_symop_operation_xyz
x,y,z
1/2-y,1/2+x,1/2+z
-x,-y,z
1/2+y,1/2-x,1/2+z
1/2+x,1/2-y,1/2-z
1/2-x,1/2+y,1/2-z
y,x,-z
-y,-x,-z
-x,-y,-z
1/2+y,1/2-x,1/2-z
x,y,-z
1/2-y,1/2+x,1/2-z
1/2-x,1/2+y,1/2+z
1/2+x,1/2-y,1/2+z
-y,-x,z
y,x,z
loop_
_atom_site_type_symbol
_atom_site_label
_atom_site_fract_x
_atom_site_fract_y
_atom_site_fract_z
Si Si1 0.394916 0.147916 0.678514
Si Si2 0.200313 0.200313 0.328527
Si Si3 0.665798 0.786898 0.832121
Si Si4 0.824767 0.424007 0.821272
Si Si5 0.273815 0.273815 0.330250
Si Si6 0.495576 0.146026 0.678539
Si Si7 0.860076 0.737963 0.169809
Si Si8 0.939306 0.485645 0.175852
O O1 0.392425 0.151758 0.500000
O O2 0.374639 0.191739 0.745463
O O3 0.368177 0.104414 0.728436
O O4 0.445544 0.148974 0.731990
O O5 0.187909 0.187909 0.500000
O O6 0.237090 0.237090 0.327711
O O7 0.157100 0.217231 0.243211
O O8 0.682256 0.743195 0.749943
O O9 0.705160 0.820212 0.839239
O O10 0.650053 0.774292 0.000000
O O11 0.817050 0.469897 0.728740
O O12 0.781965 0.396915 0.777854
O O13 0.825263 0.432911 0.000000
O O14 0.286503 0.286503 0.500000
O O15 0.497712 0.136639 0.500000
O O16 0.519918 0.110112 0.781267
O O17 0.878050 0.746727 0.000000
O O18 0.952617 0.534527 0.218085
O O19 0.948067 0.474872 0.000000
#
# Coordination Sequence:
#
# PCOD8317835 Si02
#       8
#    16   8  16  16   8  16  16  16
#     4   9  19  32  43  54  71  93 117 146 183 224
#     4   9  15  23  37  57  77  97 117 137 165 206
#     4   9  16  25  39  57  75  92 114 141 169 204
#     4  10  19  31  44  57  73  94 120 151 186 225
#     4   9  15  23  37  55  77  99 115 131 161 204
#     4  11  21  32  44  57  72  92 118 148 183 224
#     4   9  16  26  39  56  76  96 116 141 173 211
#     4  11  21  33  46  58  70  84 106 140 182 226
#
# _framework density 13.434454000000001
#
# number of rings (size 3 to 8) (size 9 to 14) (size 15 to 20)
#    0.000    2.286    0.000    4.714    0.000    8.000 
#    0.000    0.000    0.000    0.000    0.000    0.000 
#    0.000    0.000    0.000    0.000    0.000    0.000 
#
# Total GULP energy -1387751.874360 kJ/mol
# GULP energy per Si atom -12390.641735 kJ/mol
# Density = 1.340388 g / cm^3
# Si number density = 13.434454 Si / 1000 Ang^3
#
#
#
# Elastic Constant Matrix: (Units=GPa)
#
#
# Indices 1 2 3 4 5 6 
#
# 1 50.4527 25.1607 20.6335 0.0000 0.0000 0.0000
# 2 25.1607 50.4527 20.6335 0.0000 0.0000 0.0000
# 3 20.6335 20.6335 61.6174 0.0000 0.0000 0.0000
# 4 0.0000 0.0000 0.0000 19.7193 0.0000 0.0000
# 5 0.0000 0.0000 0.0000 0.0000 19.7193 0.0000
# 6 0.0000 0.0000 0.0000 0.0000 0.0000 0.0383
#
#
#
# Elastic Compliance Matrix: (Units=1/GPa)
#
#
# Indices 1 2 3 4 5 6 
#
# 1 0.027860 -0.011678 -0.005419 0.000000 0.000000 0.000000
# 2 -0.011678 0.027860 -0.005419 0.000000 0.000000 0.000000
# 3 -0.005419 -0.005419 0.019858 0.000000 0.000000 0.000000
# 4 0.000000 0.000000 0.000000 0.050712 0.000000 0.000000
# 5 0.000000 0.000000 0.000000 0.000000 0.050712 0.000000
# 6 0.000000 0.000000 0.000000 0.000000 0.000000 26.110165
#
#
# Mechanical properties :
#
#
# Convention : Reuss Voigt Hill
#
# Bulk Modulus (GPa) = 32.73566 32.81983 32.77774
# Shear Modulus (GPa) = 0.18981 14.30170 7.24575
#
# Velocity S-wave (km/s) = 0.37629 3.26629 2.32489
# Velocity P-wave (km/s) = 4.96071 6.22153 5.62655
#
# Compressibility (1/GPa) = 0.03054773
#
# Stress axis : x y z
#
# Youngs Moduli (GPa) = 35.89320 35.89320 50.35633
#
# Poissons Ratio (x) = 0.41915 0.27288
# Poissons Ratio (y) = 0.41915 0.27288
# Poissons Ratio (z) = 0.19451 0.19451
#
# Static dielectric constant tensor:
#      x y z
#    x 2.575910 0.000000 0.000000 
#    y 0.000000 2.575910 0.000000 
#    z 0.000000 0.000000 2.878510 
# 
# 
# High freq. dielectric constant tensor:
#      x y z
#    x 1.474060 0.000000 0.000000 
#    y 0.000000 1.474060 0.000000 
#    z 0.000000 0.000000 1.530450 
# 
# From -- ./inp_files/2394.got.cif
#   From: 2010.03.12/outbox.cif.g09.slc.cpg/sg136_2_cif.got.tgz:2394.got - 2010.04.06 18:39:43.
