data_PCOD8317821
_publ_section_title
;
Structure prediction by ZEFSAII (Michael W. Deem and Ramdas Pophale) SiO2 
 PCOD8317821
Probable space group: P 42/M N M
;
_chemical_formula_sum "Si O2"
_cell_formula_units_Z 104
_cell_length_a 23.413281
_cell_length_b 23.413281
_cell_length_c 12.721386
_cell_angle_alpha 90.000000
_cell_angle_beta 90.000000
_cell_angle_gamma 90.000000
_cell_volume 6973.631350
_symmetry_space_group_name_H-M "P 42/M N M"
_symmetry_group_IT_number 136
_symmetry_cell_setting 'tetragonal'
loop_
_space_group_symop_operation_xyz
x,y,z
1/2-y,1/2+x,1/2+z
-x,-y,z
1/2+y,1/2-x,1/2+z
1/2+x,1/2-y,1/2-z
1/2-x,1/2+y,1/2-z
y,x,-z
-y,-x,-z
-x,-y,-z
1/2+y,1/2-x,1/2-z
x,y,-z
1/2-y,1/2+x,1/2-z
1/2-x,1/2+y,1/2+z
1/2+x,1/2-y,1/2+z
-y,-x,z
y,x,z
loop_
_atom_site_type_symbol
_atom_site_label
_atom_site_fract_x
_atom_site_fract_y
_atom_site_fract_z
Si Si1 0.324717 0.853978 0.623295
Si Si2 0.719462 0.719462 0.876021
Si Si3 0.953280 0.953280 0.625299
Si Si4 0.130907 0.869094 0.626049
Si Si5 0.788503 0.515810 0.876994
Si Si6 0.370308 0.061937 0.761499
Si Si7 0.937830 0.523461 0.619307
Si Si8 0.660572 0.508411 0.124274
O O1 0.339516 0.849746 0.500000
O O2 0.282510 0.801907 0.657946
O O3 0.380745 0.842070 0.693062
O O4 0.297444 0.916635 0.646744
O O5 0.675293 0.675293 0.825169
O O6 0.714705 0.714705 0.000000
O O7 0.955159 0.955159 0.500000
O O8 0.965984 0.888878 0.666963
O O9 0.000000 0.000000 0.666653
O O10 0.131722 0.868279 0.500000
O O11 0.069815 0.853141 0.672383
O O12 0.828960 0.476236 0.808557
O O13 0.725355 0.493734 0.843866
O O14 0.800509 0.504569 0.000000
O O15 0.423764 0.079669 0.690876
O O16 0.391892 0.026354 0.862108
O O17 0.935894 0.543966 0.500000
O O18 0.000000 0.500000 0.649940
O O19 0.656229 0.511598 0.000000
#
# Coordination Sequence:
#
# PCOD8317821 Si02
#       8
#    16   8   8   8  16  16  16  16
#     4  10  19  31  49  69  91 116 152 196 238 277
#     4   9  16  28  46  69  89 112 147 190 234 275
#     4   9  14  20  35  60  90 120 145 171 214 273
#     4   9  12  19  38  60  83 104 135 175 212 254
#     4  10  19  30  45  64  89 122 157 193 226 268
#     4  12  19  32  44  66  91 121 155 191 231 273
#     4  11  20  31  46  66  92 122 154 191 232 273
#     4   9  15  23  37  61  88 114 142 176 214 260
#
# _framework density 14.913320000000001
#
# number of rings (size 3 to 8) (size 9 to 14) (size 15 to 20)
#    0.000    1.923    5.385    0.923    0.000    2.462 
#    0.000    0.769    0.000    0.000    0.000    1.615 
#    0.000    0.000    0.000    0.000    0.000    3.077 
#
# Total GULP energy -1288607.940387 kJ/mol
# GULP energy per Si atom -12390.460965 kJ/mol
# Density = 1.487938 g / cm^3
# Si number density = 14.913320 Si / 1000 Ang^3
#
#
#
# Elastic Constant Matrix: (Units=GPa)
#
#
# Indices 1 2 3 4 5 6 
#
# 1 94.8568 41.7945 26.9348 0.0000 0.0000 0.0000
# 2 41.7945 94.8569 26.9348 0.0000 0.0000 0.0000
# 3 26.9348 26.9348 40.6562 0.0000 0.0000 0.0000
# 4 0.0000 0.0000 0.0000 9.3230 0.0000 0.0000
# 5 0.0000 0.0000 0.0000 0.0000 9.3231 0.0000
# 6 0.0000 0.0000 0.0000 0.0000 0.0000 29.8932
#
#
#
# Elastic Compliance Matrix: (Units=1/GPa)
#
#
# Indices 1 2 3 4 5 6 
#
# 1 0.014375 -0.004471 -0.006562 0.000000 0.000000 0.000000
# 2 -0.004471 0.014375 -0.006562 0.000000 0.000000 0.000000
# 3 -0.006562 -0.006562 0.033291 0.000000 0.000000 0.000000
# 4 0.000000 0.000000 0.000000 0.107261 0.000000 0.000000
# 5 0.000000 0.000000 0.000000 0.000000 0.107261 0.000000
# 6 0.000000 0.000000 0.000000 0.000000 0.000000 0.033452
#
#
# Mechanical properties :
#
#
# Convention : Reuss Voigt Hill
#
# Bulk Modulus (GPa) = 37.23993 46.85534 42.04763
# Shear Modulus (GPa) = 14.11810 18.68824 16.40317
#
# Velocity S-wave (km/s) = 3.08015 3.54379 3.32007
# Velocity P-wave (km/s) = 6.13799 6.94487 6.55386
#
# Compressibility (1/GPa) = 0.02685290
#
# Stress axis : x y z
#
# Youngs Moduli (GPa) = 69.56417 69.56430 30.03816
#
# Poissons Ratio (x) = 0.31099 0.19711
# Poissons Ratio (y) = 0.31099 0.19711
# Poissons Ratio (z) = 0.45647 0.45647
#
# Static dielectric constant tensor:
#      x y z
#    x 3.034540 0.000000 0.000000 
#    y 0.000000 3.034540 0.000000 
#    z 0.000000 0.000000 2.468290 
# 
# 
# High freq. dielectric constant tensor:
#      x y z
#    x 1.570460 0.000000 0.000000 
#    y 0.000000 1.570460 0.000000 
#    z 0.000000 0.000000 1.519090 
# 
# From -- ./inp_files/5377.got.cif
#   From: 2010.03.12/outbox.cif.g09.slc.cpg/sg136_3_cif.got.tgz:5377.got - 2010.04.06 18:39:43.
