data_PCOD8317416
_publ_section_title
;
Structure prediction by ZEFSAII (Michael W. Deem and Ramdas Pophale) SiO2 
 PCOD8317416
Probable space group: P 42/M B C
;
_chemical_formula_sum "Si O2"
_cell_formula_units_Z 96
_cell_length_a 18.499544
_cell_length_b 18.499544
_cell_length_c 15.935892
_cell_angle_alpha 90.000000
_cell_angle_beta 90.000000
_cell_angle_gamma 90.000000
_cell_volume 5453.790170
_symmetry_space_group_name_H-M "P 42/M B C"
_symmetry_group_IT_number 135
_symmetry_cell_setting 'tetragonal'
loop_
_space_group_symop_operation_xyz
x,y,z
-y,x,1/2+z
-x,-y,z
y,-x,1/2+z
1/2+x,1/2-y,-z
1/2-x,1/2+y,-z
1/2+y,1/2+x,1/2-z
1/2-y,1/2-x,1/2-z
-x,-y,-z
y,-x,1/2-z
x,y,-z
-y,x,1/2-z
1/2-x,1/2+y,z
1/2+x,1/2-y,z
1/2-y,1/2-x,1/2+z
1/2+y,1/2+x,1/2+z
loop_
_atom_site_type_symbol
_atom_site_label
_atom_site_fract_x
_atom_site_fract_y
_atom_site_fract_z
Si Si1 0.615985 0.498713 0.500000
Si Si2 0.330246 0.059014 0.215565
Si Si3 0.415916 0.829913 0.182899
Si Si4 0.621255 0.504613 0.000000
Si Si5 0.670318 0.557486 0.332705
Si Si6 0.925176 0.526662 0.095863
Si Si7 0.826403 0.955185 0.172948
O O1 0.555575 0.559849 0.500000
O O2 0.582398 0.418300 0.500000
O O3 0.663580 0.507394 0.415575
O O4 0.370605 0.129396 0.250000
O O5 0.250545 0.083042 0.187180
O O6 0.330364 0.998529 0.287090
O O7 0.363651 0.022930 0.133834
O O8 0.357034 0.857034 0.250000
O O9 0.399572 0.746842 0.158905
O O10 0.411757 0.887395 0.107060
O O11 0.670306 0.497665 0.916228
O O12 0.606835 0.614742 0.327260
O O13 0.661558 0.511150 0.248468
O O14 0.000000 0.500000 0.138928
O O15 0.926231 0.506834 0.000000
#
# Coordination Sequence:
#
# PCOD8317416 Si02
#       7
#     8  16  16   8  16  16  16
#     4   9  18  32  56  76 107 140 184 240 274 325
#     4  10  19  34  52  77 105 139 179 225 276 331
#     4   9  19  33  52  76 107 138 178 223 273 336
#     4   9  18  34  52  80 103 142 190 230 276 329
#     4  10  20  35  53  83 108 147 188 232 286 335
#     4  10  19  31  54  79 100 134 172 220 269 325
#     4  10  21  34  56  78 111 147 187 233 282 341
#
# _framework density 17.602436000000001
#
# number of rings (size 3 to 8) (size 9 to 14) (size 15 to 20)
#    0.000    2.333    1.667    1.000    2.333    2.333 
#    0.000    0.000    0.000    0.000    0.000    0.000 
#    0.000    0.000    0.000    0.000    0.000    0.000 
#
# Total GULP energy -1189840.621737 kJ/mol
# GULP energy per Si atom -12394.173143 kJ/mol
# Density = 1.756237 g / cm^3
# Si number density = 17.602436 Si / 1000 Ang^3
#
#
#
# Elastic Constant Matrix: (Units=GPa)
#
#
# Indices 1 2 3 4 5 6 
#
# 1 98.4823 38.7931 39.9359 0.0000 0.0000 0.0000
# 2 38.7931 98.4821 39.9360 0.0000 0.0000 0.0000
# 3 39.9359 39.9360 115.9919 0.0000 0.0000 0.0000
# 4 0.0000 0.0000 0.0000 9.6197 0.0000 0.0000
# 5 0.0000 0.0000 0.0000 0.0000 9.6122 0.0000
# 6 0.0000 0.0000 0.0000 0.0000 0.0000 18.0137
#
#
#
# Elastic Compliance Matrix: (Units=1/GPa)
#
#
# Indices 1 2 3 4 5 6 
#
# 1 0.012931 -0.003822 -0.003136 0.000000 0.000000 0.000000
# 2 -0.003822 0.012932 -0.003136 0.000000 0.000000 0.000000
# 3 -0.003136 -0.003136 0.010781 0.000000 0.000000 0.000000
# 4 0.000000 0.000000 0.000000 0.103953 0.000000 0.000000
# 5 0.000000 0.000000 0.000000 0.000000 0.104035 0.000000
# 6 0.000000 0.000000 0.000000 0.000000 0.000000 0.055513
#
#
# Mechanical properties :
#
#
# Convention : Reuss Voigt Hill
#
# Bulk Modulus (GPa) = 60.77390 61.14292 60.95841
# Shear Modulus (GPa) = 15.34592 20.40188 17.87390
#
# Velocity S-wave (km/s) = 2.95584 3.40816 3.19003
# Velocity P-wave (km/s) = 6.80074 7.09213 6.94796
#
# Compressibility (1/GPa) = 0.01645443
#
# Stress axis : x y z
#
# Youngs Moduli (GPa) = 77.33068 77.33046 92.75563
#
# Poissons Ratio (x) = 0.29556 0.29092
# Poissons Ratio (y) = 0.29556 0.29092
# Poissons Ratio (z) = 0.24254 0.24254
#
# Static dielectric constant tensor:
#      x y z
#    x 3.471090 0.000000 0.000000 
#    y 0.000000 3.471150 0.000000 
#    z 0.000000 0.000000 3.348690 
# 
# 
# High freq. dielectric constant tensor:
#      x y z
#    x 1.672220 0.000000 0.000000 
#    y 0.000000 1.672220 0.000000 
#    z 0.000000 0.000000 1.685750 
# 
# From -- ./inp_files/4529.got.cif
#   From: 2010.03.12/outbox.cif.g09.slc.cpg/sg135_3_cif.got.tgz:4529.got - 2010.04.06 18:31:24.
