data_PCOD8317825
_publ_section_title
;
Structure prediction by ZEFSAII (Michael W. Deem and Ramdas Pophale) SiO2 
 PCOD8317825
Probable space group: P 42/M N M
;
_chemical_formula_sum "Si O2"
_cell_formula_units_Z 128
_cell_length_a 17.463374
_cell_length_b 17.463374
_cell_length_c 25.026416
_cell_angle_alpha 90.000000
_cell_angle_beta 90.000000
_cell_angle_gamma 90.000000
_cell_volume 7632.291859
_symmetry_space_group_name_H-M "P 42/M N M"
_symmetry_group_IT_number 136
_symmetry_cell_setting 'tetragonal'
loop_
_space_group_symop_operation_xyz
x,y,z
1/2-y,1/2+x,1/2+z
-x,-y,z
1/2+y,1/2-x,1/2+z
1/2+x,1/2-y,1/2-z
1/2-x,1/2+y,1/2-z
y,x,-z
-y,-x,-z
-x,-y,-z
1/2+y,1/2-x,1/2-z
x,y,-z
1/2-y,1/2+x,1/2-z
1/2-x,1/2+y,1/2+z
1/2+x,1/2-y,1/2+z
-y,-x,z
y,x,z
loop_
_atom_site_type_symbol
_atom_site_label
_atom_site_fract_x
_atom_site_fract_y
_atom_site_fract_z
Si Si1 0.269150 0.607815 0.241613
Si Si2 0.583654 0.706874 0.340848
Si Si3 0.709887 0.416713 0.061616
Si Si4 0.329649 0.449016 0.776335
Si Si5 0.082723 0.793051 0.392555
Si Si6 0.283163 0.587750 0.358682
Si Si7 0.807626 0.320940 0.439982
Si Si8 0.828866 0.700113 0.355674
O O1 0.313436 0.686565 0.242021
O O2 0.328284 0.540820 0.224252
O O3 0.238625 0.593953 0.301755
O O4 0.201860 0.617029 0.197628
O O5 0.635990 0.635990 0.359886
O O6 0.582567 0.712722 0.276350
O O7 0.500416 0.692198 0.366653
O O8 0.617796 0.787932 0.361568
O O9 0.634961 0.365040 0.070701
O O10 0.688948 0.499795 0.083841
O O11 0.782715 0.381421 0.092872
O O12 0.733631 0.421119 0.000000
O O13 0.417414 0.417414 0.777451
O O14 0.284805 0.418434 0.828350
O O15 0.136977 0.863024 0.410636
O O16 0.113869 0.712858 0.415952
O O17 0.359259 0.640742 0.359805
O O18 0.222811 0.608804 0.404576
O O19 0.822147 0.350828 0.500000
O O20 0.744956 0.255045 0.438823
O O21 0.763678 0.763678 0.350372
#
# Coordination Sequence:
#
# PCOD8317825 Si02
#       8
#    16  16  16  16  16  16  16  16
#     4   9  16  27  44  68  96 127 161 192 231 282
#     4   9  18  31  49  74 102 128 154 194 248 299
#     4  10  20  33  48  68  96 133 174 208 237 272
#     4   9  17  27  42  70 101 127 157 193 236 284
#     4  10  19  30  47  72 101 132 166 199 237 282
#     4   9  18  31  50  75  98 123 157 196 243 298
#     4   9  18  32  49  69  95 126 160 199 240 284
#     4   9  17  30  47  66  93 128 165 203 238 277
#
# _framework density 16.770848000000001
#
# number of rings (size 3 to 8) (size 9 to 14) (size 15 to 20)
#    0.000    2.750    1.250    0.375    1.750    1.500 
#    0.000    5.000    0.000    1.875    0.000    3.500 
#    0.000    0.000    0.000    0.000    0.000    0.000 
#
# Total GULP energy -1586384.772684 kJ/mol
# GULP energy per Si atom -12393.631037 kJ/mol
# Density = 1.673268 g / cm^3
# Si number density = 16.770848 Si / 1000 Ang^3
#
#
#
# Elastic Constant Matrix: (Units=GPa)
#
#
# Indices 1 2 3 4 5 6 
#
# 1 61.1686 45.9690 39.1947 0.0000 0.0000 0.0000
# 2 45.9690 61.1686 39.1947 0.0000 0.0000 0.0000
# 3 39.1947 39.1947 103.9165 0.0000 0.0000 0.0000
# 4 0.0000 0.0000 0.0000 20.2519 0.0000 0.0000
# 5 0.0000 0.0000 0.0000 0.0000 20.2519 0.0000
# 6 0.0000 0.0000 0.0000 0.0000 0.0000 17.7740
#
#
#
# Elastic Compliance Matrix: (Units=1/GPa)
#
#
# Indices 1 2 3 4 5 6 
#
# 1 0.039341 -0.026450 -0.004862 0.000000 0.000000 0.000000
# 2 -0.026450 0.039341 -0.004862 0.000000 0.000000 0.000000
# 3 -0.004862 -0.004862 0.013291 0.000000 0.000000 0.000000
# 4 0.000000 0.000000 0.000000 0.049378 0.000000 0.000000
# 5 0.000000 0.000000 0.000000 0.000000 0.049378 0.000000
# 6 0.000000 0.000000 0.000000 0.000000 0.000000 0.056262
#
#
# Mechanical properties :
#
#
# Convention : Reuss Voigt Hill
#
# Bulk Modulus (GPa) = 50.95661 52.77450 51.86555
# Shear Modulus (GPa) = 15.34296 18.44859 16.89577
#
# Velocity S-wave (km/s) = 3.02795 3.32028 3.17748
# Velocity P-wave (km/s) = 6.53258 6.79966 6.66746
#
# Compressibility (1/GPa) = 0.01962454
#
# Stress axis : x y z
#
# Youngs Moduli (GPa) = 25.41856 25.41856 75.23889
#
# Poissons Ratio (x) = 0.67232 0.36583
# Poissons Ratio (y) = 0.67232 0.36583
# Poissons Ratio (z) = 0.12359 0.12359
#
# Static dielectric constant tensor:
#      x y z
#    x 3.021380 0.000000 0.000000 
#    y 0.000000 3.021380 0.000000 
#    z 0.000000 0.000000 3.351910 
# 
# 
# High freq. dielectric constant tensor:
#      x y z
#    x 1.620610 0.000000 0.000000 
#    y 0.000000 1.620610 0.000000 
#    z 0.000000 0.000000 1.651880 
# 
# From -- ./inp_files/8645.got.cif
#   From: 2010.03.12/outbox.cif.g09.slc.cpg/sg136_5_cif.got.tgz:8645.got - 2010.04.06 18:39:43.
