data_PCOD8317381
_publ_section_title
;
Structure prediction by ZEFSAII (Michael W. Deem and Ramdas Pophale) SiO2 
 PCOD8317381
Probable space group: P 42/M B C
;
_chemical_formula_sum "Si O2"
_cell_formula_units_Z 128
_cell_length_a 19.792877
_cell_length_b 19.792877
_cell_length_c 17.249293
_cell_angle_alpha 90.000000
_cell_angle_beta 90.000000
_cell_angle_gamma 90.000000
_cell_volume 6757.548181
_symmetry_space_group_name_H-M "P 42/M B C"
_symmetry_group_IT_number 135
_symmetry_cell_setting 'tetragonal'
loop_
_space_group_symop_operation_xyz
x,y,z
-y,x,1/2+z
-x,-y,z
y,-x,1/2+z
1/2+x,1/2-y,-z
1/2-x,1/2+y,-z
1/2+y,1/2+x,1/2-z
1/2-y,1/2-x,1/2-z
-x,-y,-z
y,-x,1/2-z
x,y,-z
-y,x,1/2-z
1/2-x,1/2+y,z
1/2+x,1/2-y,z
1/2-y,1/2-x,1/2+z
1/2+y,1/2+x,1/2+z
loop_
_atom_site_type_symbol
_atom_site_label
_atom_site_fract_x
_atom_site_fract_y
_atom_site_fract_z
Si Si1 0.938024 0.453283 0.409158
Si Si2 0.246509 0.706229 0.589401
Si Si3 0.598223 0.809552 0.648217
Si Si4 0.071745 0.830076 0.410628
Si Si5 0.098805 0.035143 0.773183
Si Si6 0.229503 0.095852 0.697911
Si Si7 0.723464 0.645348 0.409463
Si Si8 0.488212 0.794425 0.909173
O O1 0.943142 0.435270 0.500000
O O2 0.938414 0.382274 0.361610
O O3 0.872861 0.499399 0.390844
O O4 0.000000 0.500000 0.381709
O O5 0.264898 0.689613 0.500000
O O6 0.168910 0.684932 0.603367
O O7 0.289548 0.664493 0.651939
O O8 0.261109 0.784397 0.608798
O O9 0.556240 0.749025 0.606591
O O10 0.606009 0.790124 0.739433
O O11 0.060815 0.846058 0.500000
O O12 0.021832 0.879879 0.362916
O O13 0.146867 0.849038 0.377815
O O14 0.161388 0.072512 0.736058
O O15 0.034312 0.084036 0.770229
O O16 0.250626 0.044029 0.632354
O O17 0.715384 0.635596 0.500000
O O18 0.768898 0.584389 0.375678
O O19 0.493831 0.779829 0.000000
#
# Coordination Sequence:
#
# PCOD8317381 Si02
#       8
#    16  16  16  16  16  16  16  16
#     4  10  20  34  54  78 108 147 185 219 269 332
#     4  10  18  32  55  83 111 140 185 239 281 329
#     4  10  19  33  53  81 109 142 185 232 273 321
#     4   9  17  33  59  81 103 142 192 227 262 329
#     4  10  22  40  56  77 114 146 172 222 291 344
#     4  11  21  33  57  83 105 142 189 236 280 336
#     4   8  16  30  51  79 108 140 181 233 281 323
#     4  10  19  33  53  79 112 145 185 233 284 336
#
# _framework density 18.941780999999999
#
# number of rings (size 3 to 8) (size 9 to 14) (size 15 to 20)
#    0.000    2.250    1.250    3.375    0.000    0.000 
#    0.000    6.875    0.000    4.500    0.000    0.000 
#    0.000    0.000    0.000    0.000    0.000    0.000 
#
# Total GULP energy -1586428.847435 kJ/mol
# GULP energy per Si atom -12393.975371 kJ/mol
# Density = 1.889867 g / cm^3
# Si number density = 18.941781 Si / 1000 Ang^3
#
#
#
# Elastic Constant Matrix: (Units=GPa)
#
#
# Indices 1 2 3 4 5 6 
#
# 1 81.4848 37.8016 25.8697 0.0000 0.0000 0.0000
# 2 37.8016 81.4848 25.8697 0.0000 0.0000 0.0000
# 3 25.8697 25.8697 82.2800 0.0000 0.0000 0.0000
# 4 0.0000 0.0000 0.0000 17.3326 0.0000 0.0000
# 5 0.0000 0.0000 0.0000 0.0000 17.3326 0.0000
# 6 0.0000 0.0000 0.0000 0.0000 0.0000 23.9111
#
#
#
# Elastic Compliance Matrix: (Units=1/GPa)
#
#
# Indices 1 2 3 4 5 6 
#
# 1 0.016300 -0.006593 -0.003052 0.000000 0.000000 0.000000
# 2 -0.006593 0.016300 -0.003052 0.000000 0.000000 0.000000
# 3 -0.003052 -0.003052 0.014073 0.000000 0.000000 0.000000
# 4 0.000000 0.000000 0.000000 0.057695 0.000000 0.000000
# 5 0.000000 0.000000 0.000000 0.000000 0.057695 0.000000
# 6 0.000000 0.000000 0.000000 0.000000 0.000000 0.041822
#
#
# Mechanical properties :
#
#
# Convention : Reuss Voigt Hill
#
# Bulk Modulus (GPa) = 46.99515 47.14796 47.07156
# Shear Modulus (GPa) = 21.15339 22.09584 21.62462
#
# Velocity S-wave (km/s) = 3.34542 3.41913 3.38248
# Velocity P-wave (km/s) = 6.30766 6.36650 6.33715
#
# Compressibility (1/GPa) = 0.02127879
#
# Stress axis : x y z
#
# Youngs Moduli (GPa) = 61.35150 61.35150 71.05925
#
# Poissons Ratio (x) = 0.40446 0.21687
# Poissons Ratio (y) = 0.40446 0.21687
# Poissons Ratio (z) = 0.18724 0.18724
#
# Static dielectric constant tensor:
#      x y z
#    x 3.644840 0.000000 0.000000 
#    y 0.000000 3.644840 0.000000 
#    z 0.000000 0.000000 3.743740 
# 
# 
# High freq. dielectric constant tensor:
#      x y z
#    x 1.723540 0.000000 0.000000 
#    y 0.000000 1.723540 0.000000 
#    z 0.000000 0.000000 1.736270 
# 
# From -- ./inp_files/4751.got.cif
#   From: 2010.03.12/outbox.cif.g09.slc.cpg/sg135_3_cif.got.tgz:4751.got - 2010.04.06 18:31:24.
