data_PCOD8317332
_publ_section_title
;
Structure prediction by ZEFSAII (Michael W. Deem and Ramdas Pophale) SiO2 
 PCOD8317332
Probable space group: P 42/N N M
;
_chemical_formula_sum "Si O2"
_cell_formula_units_Z 112
_cell_length_a 15.115287
_cell_length_b 15.115287
_cell_length_c 27.329411
_cell_angle_alpha 90.000000
_cell_angle_beta 90.000000
_cell_angle_gamma 90.000000
_cell_volume 6244.002487
_symmetry_space_group_name_H-M "P 42/N N M"
_symmetry_group_IT_number 134
_space_group.IT_coordinate_system_code '2'
_symmetry_cell_setting 'tetragonal'
loop_
_space_group_symop_operation_xyz
x,y,z
1/2-y,x,1/2+z
1/2-x,1/2-y,z
y,1/2-x,1/2+z
x,1/2-y,1/2-z
1/2-x,y,1/2-z
y,x,-z
1/2-y,1/2-x,-z
-x,-y,-z
1/2+y,-x,1/2-z
1/2+x,1/2+y,-z
-y,1/2+x,1/2-z
-x,1/2+y,1/2+z
1/2+x,-y,1/2+z
-y,-x,z
1/2+y,1/2+x,z
loop_
_atom_site_type_symbol
_atom_site_label
_atom_site_fract_x
_atom_site_fract_y
_atom_site_fract_z
Si Si1 0.647023 0.852390 0.306458
Si Si2 0.568844 0.581325 0.901636
Si Si3 0.177326 0.677326 0.441903
Si Si4 0.243330 0.502431 0.942207
Si Si5 0.932323 0.922727 0.396886
Si Si6 0.757798 0.504378 0.557466
Si Si7 0.679148 0.320853 0.048996
Si Si8 0.852500 0.853436 0.304086
O O1 0.586590 0.908451 0.343887
O O2 0.749982 0.873058 0.315025
O O3 0.627635 0.749173 0.314298
O O4 0.621582 0.879578 0.251216
O O5 0.485024 0.514976 0.909780
O O6 0.558427 0.679553 0.922085
O O7 0.652187 0.556333 0.934328
O O8 0.250000 0.750000 0.441682
O O9 0.221337 0.590954 0.416918
O O10 0.144668 0.644668 0.496013
O O11 0.148763 0.472451 0.922581
O O12 0.272630 0.599730 0.922046
O O13 0.235221 0.503112 0.000498
O O14 0.946774 0.825140 0.418269
O O15 0.911555 0.913787 0.339417
O O16 0.020567 0.979434 0.404618
O O17 0.750000 0.250000 0.034791
#
# Coordination Sequence:
#
# PCOD8317332 Si02
#       8
#    16  16   8  16  16  16   8  16
#     4   9  18  36  61  84 109 139 183 235 288 346
#     4  12  22  36  60  87 113 146 190 238 287 337
#     4   9  18  35  55  73 105 156 199 227 265 321
#     4  11  23  37  55  82 116 153 192 235 279 331
#     4  12  24  38  58  85 115 151 194 237 283 338
#     4  11  23  37  55  82 116 153 192 235 279 331
#     4   9  18  35  55  73 105 156 199 227 265 321
#     4   9  18  36  61  84 107 143 183 230 290 348
#
# _framework density 17.937211999999999
#
# number of rings (size 3 to 8) (size 9 to 14) (size 15 to 20)
#    0.000    1.571    4.286    2.571    0.000    4.000 
#    0.000    1.429    0.000    0.000    0.000    0.000 
#    0.000    4.571    0.000    0.000    0.000    0.000 
#
# Total GULP energy -1387957.871843 kJ/mol
# GULP energy per Si atom -12392.480999 kJ/mol
# Density = 1.789639 g / cm^3
# Si number density = 17.937212 Si / 1000 Ang^3
#
#
#
# Elastic Constant Matrix: (Units=GPa)
#
#
# Indices 1 2 3 4 5 6 
#
# 1 68.5413 16.7881 17.8098 0.0000 0.0000 0.0000
# 2 16.7881 68.5413 17.8098 0.0000 0.0000 0.0000
# 3 17.8098 17.8098 70.5874 0.0000 0.0000 0.0000
# 4 0.0000 0.0000 0.0000 -1.0306 0.0000 0.0000
# 5 0.0000 0.0000 0.0000 0.0000 -1.0306 0.0000
# 6 0.0000 0.0000 0.0000 0.0000 0.0000 35.7054
#
#
#
# Elastic Compliance Matrix: (Units=1/GPa)
#
#
# Indices 1 2 3 4 5 6 
#
# 1 0.016211 -0.003112 -0.003305 0.000000 0.000000 0.000000
# 2 -0.003112 0.016211 -0.003305 0.000000 0.000000 0.000000
# 3 -0.003305 -0.003305 0.015835 0.000000 0.000000 0.000000
# 4 0.000000 0.000000 0.000000 -0.970269 0.000000 0.000000
# 5 0.000000 0.000000 0.000000 0.000000 -0.970269 0.000000
# 6 0.000000 0.000000 0.000000 0.000000 0.000000 0.028007
#
#
# Mechanical properties :
#
#
# Convention : Reuss Voigt Hill
#
# Bulk Modulus (GPa) = 34.70711 34.72058 34.71385
# Shear Modulus (GPa) = -2.72446 17.07966 7.17760
#
# Velocity S-wave (km/s) = -1.23377 3.08911 2.00255
# Velocity P-wave (km/s) = 4.16673 5.66765 4.97413
#
# Compressibility (1/GPa) = 0.02881254
#
# Stress axis : x y z
#
# Youngs Moduli (GPa) = 61.68771 61.68771 63.15301
#
# Poissons Ratio (x) = 0.19196 0.20872
# Poissons Ratio (y) = 0.19196 0.20872
# Poissons Ratio (z) = 0.20387 0.20387
#
# Static dielectric constant tensor:
#      x y z
#    x 3.323170 0.000000 0.000000 
#    y 0.000000 3.323170 0.000000 
#    z 0.000000 0.000000 3.284890 
# 
# 
# High freq. dielectric constant tensor:
#      x y z
#    x 1.696280 0.000000 0.000000 
#    y 0.000000 1.696280 0.000000 
#    z 0.000000 0.000000 1.680070 
# 
# From -- ./inp_files/10900.got.cif
#   From: 2010.03.12/outbox.cif.g09.slc.cpg/sg134_6_cif.got.tgz:10900.got - 2010.04.06 18:17:22.
