data_PCOD8317731
_publ_section_title
;
Structure prediction by ZEFSAII (Michael W. Deem and Ramdas Pophale) SiO2 
 PCOD8317731
Probable space group: P 42/M N M
;
_chemical_formula_sum "Si O2"
_cell_formula_units_Z 96
_cell_length_a 17.309449
_cell_length_b 17.309449
_cell_length_c 18.366101
_cell_angle_alpha 90.000000
_cell_angle_beta 90.000000
_cell_angle_gamma 90.000000
_cell_volume 5502.796537
_symmetry_space_group_name_H-M "P 42/M N M"
_symmetry_group_IT_number 136
_symmetry_cell_setting 'tetragonal'
loop_
_space_group_symop_operation_xyz
x,y,z
1/2-y,1/2+x,1/2+z
-x,-y,z
1/2+y,1/2-x,1/2+z
1/2+x,1/2-y,1/2-z
1/2-x,1/2+y,1/2-z
y,x,-z
-y,-x,-z
-x,-y,-z
1/2+y,1/2-x,1/2-z
x,y,-z
1/2-y,1/2+x,1/2-z
1/2-x,1/2+y,1/2+z
1/2+x,1/2-y,1/2+z
-y,-x,z
y,x,z
loop_
_atom_site_type_symbol
_atom_site_label
_atom_site_fract_x
_atom_site_fract_y
_atom_site_fract_z
Si Si1 0.081574 0.795689 0.280586
Si Si2 0.415431 0.714273 0.156466
Si Si3 0.891104 0.767765 0.079748
Si Si4 0.955692 0.165951 0.117030
Si Si5 0.245953 0.373871 0.500000
Si Si6 0.168385 0.298278 0.781721
Si Si7 0.755951 0.372763 0.000000
O O1 0.144094 0.855907 0.313303
O O2 0.060510 0.820006 0.200120
O O3 0.117747 0.709080 0.279468
O O4 0.004284 0.803244 0.327028
O O5 0.363046 0.636955 0.164547
O O6 0.383561 0.781914 0.209949
O O7 0.420658 0.743645 0.073609
O O8 0.809267 0.809267 0.073412
O O9 0.885130 0.705171 0.145178
O O10 0.953365 0.834301 0.100649
O O11 0.909953 0.729963 0.000000
O O12 0.914539 0.085461 0.091971
O O13 0.922651 0.238948 0.072653
O O14 0.300145 0.300145 0.500000
O O15 0.158091 0.344166 0.500000
O O16 0.233144 0.233144 0.784005
O O17 0.698116 0.301885 0.000000
#
# Coordination Sequence:
#
# PCOD8317731 Si02
#       7
#    16  16  16  16   8  16   8
#     4  10  20  33  52  78 103 132 170 209 252 300
#     4  10  19  34  55  77 102 132 167 210 258 303
#     4  10  19  31  47  70 102 138 169 195 236 300
#     4  10  18  28  46  75 104 128 159 202 253 301
#     4   9  16  28  47  74 101 124 159 208 253 295
#     4   9  18  34  52  72  99 134 173 206 241 297
#     4   9  18  32  51  74  95 124 167 210 255 300
#
# _framework density 17.445674
#
# number of rings (size 3 to 8) (size 9 to 14) (size 15 to 20)
#    0.000    2.333    2.500    1.000    0.000    4.667 
#    1.500    2.917    0.000    2.000    0.000    1.167 
#    0.000    0.000    0.000    0.000    0.000    0.000 
#
# Total GULP energy -1189468.406294 kJ/mol
# GULP energy per Si atom -12390.295899 kJ/mol
# Density = 1.740597 g / cm^3
# Si number density = 17.445674 Si / 1000 Ang^3
#
#
#
# Elastic Constant Matrix: (Units=GPa)
#
#
# Indices 1 2 3 4 5 6 
#
# 1 49.8026 35.9786 33.6190 0.0000 0.0000 0.0000
# 2 35.9786 49.8028 33.6187 0.0000 0.0000 0.0000
# 3 33.6190 33.6187 132.9903 0.0000 0.0000 0.0000
# 4 0.0000 0.0000 0.0000 5.9824 0.0000 0.0000
# 5 0.0000 0.0000 0.0000 0.0000 5.9843 0.0000
# 6 0.0000 0.0000 0.0000 0.0000 0.0000 17.6372
#
#
#
# Elastic Compliance Matrix: (Units=1/GPa)
#
#
# Indices 1 2 3 4 5 6 
#
# 1 0.043438 -0.028900 -0.003675 0.000000 0.000000 0.000000
# 2 -0.028900 0.043438 -0.003675 0.000000 0.000000 0.000000
# 3 -0.003675 -0.003675 0.009377 0.000000 0.000000 0.000000
# 4 0.000000 0.000000 0.000000 0.167158 0.000000 0.000000
# 5 0.000000 0.000000 0.000000 0.000000 0.167105 0.000000
# 6 0.000000 0.000000 0.000000 0.000000 0.000000 0.056698
#
#
# Mechanical properties :
#
#
# Convention : Reuss Voigt Hill
#
# Bulk Modulus (GPa) = 42.09939 48.78093 45.44016
# Shear Modulus (GPa) = 8.80853 14.54606 11.67730
#
# Velocity S-wave (km/s) = 2.24946 2.89068 2.58999
# Velocity P-wave (km/s) = 5.56155 6.25809 5.92007
#
# Compressibility (1/GPa) = 0.02375331
#
# Stress axis : x y z
#
# Youngs Moduli (GPa) = 23.02128 23.02148 106.63894
#
# Poissons Ratio (x) = 0.66531 0.39193
# Poissons Ratio (y) = 0.66531 0.39190
# Poissons Ratio (z) = 0.08461 0.08460
#
# Static dielectric constant tensor:
#      x y z
#    x 3.197520 0.000000 0.000000 
#    y 0.000000 3.197520 0.000000 
#    z 0.000000 0.000000 3.524400 
# 
# 
# High freq. dielectric constant tensor:
#      x y z
#    x 1.644140 0.000000 0.000000 
#    y 0.000000 1.644140 0.000000 
#    z 0.000000 0.000000 1.689620 
# 
# From -- ./inp_files/6371.got.cif
#   From: 2010.03.12/outbox.cif.g09.slc.cpg/sg136_4_cif.got.tgz:6371.got - 2010.04.06 18:39:43.
