data_PCOD8317059
_publ_section_title
;
Structure prediction by ZEFSAII (Michael W. Deem and Ramdas Pophale) SiO2 
 PCOD8317059
Probable space group: P 42/N B C
;
_chemical_formula_sum "Si O2"
_cell_formula_units_Z 56
_cell_length_a 16.185783
_cell_length_b 16.185783
_cell_length_c 9.181468
_cell_angle_alpha 90.000000
_cell_angle_beta 90.000000
_cell_angle_gamma 90.000000
_cell_volume 2405.357051
_symmetry_space_group_name_H-M "P 42/N B C"
_symmetry_group_IT_number 133
_space_group.IT_coordinate_system_code '2'
_symmetry_cell_setting 'tetragonal'
loop_
_space_group_symop_operation_xyz
x,y,z
1/2-y,x,1/2+z
1/2-x,1/2-y,z
y,1/2-x,1/2+z
x,1/2-y,-z
1/2-x,y,-z
y,x,1/2-z
1/2-y,1/2-x,1/2-z
-x,-y,-z
1/2+y,-x,1/2-z
1/2+x,1/2+y,-z
-y,1/2+x,1/2-z
-x,1/2+y,z
1/2+x,-y,z
-y,-x,1/2+z
1/2+y,1/2+x,1/2+z
loop_
_atom_site_type_symbol
_atom_site_label
_atom_site_fract_x
_atom_site_fract_y
_atom_site_fract_z
Si Si1 0.062754 0.425018 0.974147
Si Si2 0.459432 0.205299 0.724452
Si Si3 0.142763 0.142763 0.750000
Si Si4 0.867851 0.257705 0.327699
O O1 0.030845 0.355360 0.862206
O O2 0.149080 0.462410 0.919187
O O3 0.079722 0.378201 0.122139
O O4 0.000000 0.500000 0.000000
O O5 0.374716 0.259638 0.722351
O O6 0.535901 0.267916 0.709683
O O7 0.849177 0.250000 0.500000
O O8 0.836785 0.176357 0.242006
#
# Coordination Sequence:
#
# PCOD8317059 Si02
#       4
#    16  16   8  16
#     4  11  26  46  72 107 144 197 255 312 384 460
#     4  11  27  46  72 108 148 198 253 321 385 461
#     4  12  24  45  72 104 146 197 250 314 384 450
#     4  11  25  43  68 104 148 195 250 316 391 465
#
# _framework density 23.281365999999998
#
# number of rings (size 3 to 8) (size 9 to 14) (size 15 to 20)
#    0.000    0.857    0.000    6.857   12.000    4.571 
#    0.000    5.714    0.000    0.000    0.000    0.000 
#    0.000    0.000    0.000    0.000    0.000    0.000 
#
# Total GULP energy -694294.802020 kJ/mol
# GULP energy per Si atom -12398.121465 kJ/mol
# Density = 2.322838 g / cm^3
# Si number density = 23.281366 Si / 1000 Ang^3
#
#
#
# Elastic Constant Matrix: (Units=GPa)
#
#
# Indices 1 2 3 4 5 6 
#
# 1 123.4449 57.6950 29.8006 0.0000 0.0000 0.0000
# 2 57.6950 123.4449 29.8006 0.0000 0.0000 0.0000
# 3 29.8006 29.8006 132.0114 0.0000 0.0000 0.0000
# 4 0.0000 0.0000 0.0000 36.3113 0.0000 0.0000
# 5 0.0000 0.0000 0.0000 0.0000 36.3113 0.0000
# 6 0.0000 0.0000 0.0000 0.0000 0.0000 47.3461
#
#
#
# Elastic Compliance Matrix: (Units=1/GPa)
#
#
# Indices 1 2 3 4 5 6 
#
# 1 0.010586 -0.004623 -0.001346 0.000000 0.000000 0.000000
# 2 -0.004623 0.010586 -0.001346 0.000000 0.000000 0.000000
# 3 -0.001346 -0.001346 0.008183 0.000000 0.000000 0.000000
# 4 0.000000 0.000000 0.000000 0.027540 0.000000 0.000000
# 5 0.000000 0.000000 0.000000 0.000000 0.027540 0.000000
# 6 0.000000 0.000000 0.000000 0.000000 0.000000 0.021121
#
#
# Mechanical properties :
#
#
# Convention : Reuss Voigt Hill
#
# Bulk Modulus (GPa) = 67.91130 68.16598 68.03864
# Shear Modulus (GPa) = 39.96968 41.43407 40.70188
#
# Velocity S-wave (km/s) = 4.14794 4.22324 4.18576
# Velocity P-wave (km/s) = 7.22313 7.28860 7.25594
#
# Compressibility (1/GPa) = 0.01472509
#
# Stress axis : x y z
#
# Youngs Moduli (GPa) = 94.46128 94.46128 122.20599
#
# Poissons Ratio (x) = 0.43668 0.16452
# Poissons Ratio (y) = 0.43668 0.16452
# Poissons Ratio (z) = 0.12717 0.12717
#
# Static dielectric constant tensor:
#      x y z
#    x 4.126740 0.000000 0.000000 
#    y 0.000000 4.126740 0.000000 
#    z 0.000000 0.000000 3.998430 
# 
# 
# High freq. dielectric constant tensor:
#      x y z
#    x 1.923240 0.000000 0.000000 
#    y 0.000000 1.923240 0.000000 
#    z 0.000000 0.000000 1.939650 
# 
# From -- ./inp_files/1264.got.cif
#   From: 2010.03.12/outbox.cif.g09.slc.cpg/sg133_1_cif.got.tgz:1264.got - 2010.04.06 18:08:06.
