data_PCOD8317083
_publ_section_title
;
Structure prediction by ZEFSAII (Michael W. Deem and Ramdas Pophale) SiO2 
 PCOD8317083
Probable space group: P 42/N N M
;
_chemical_formula_sum "Si O2"
_cell_formula_units_Z 56
_cell_length_a 12.267469
_cell_length_b 12.267469
_cell_length_c 19.738602
_cell_angle_alpha 90.000000
_cell_angle_beta 90.000000
_cell_angle_gamma 90.000000
_cell_volume 2970.477920
_symmetry_space_group_name_H-M "P 42/N N M"
_symmetry_group_IT_number 134
_space_group.IT_coordinate_system_code '2'
_symmetry_cell_setting 'tetragonal'
loop_
_space_group_symop_operation_xyz
x,y,z
1/2-y,x,1/2+z
1/2-x,1/2-y,z
y,1/2-x,1/2+z
x,1/2-y,1/2-z
1/2-x,y,1/2-z
y,x,-z
1/2-y,1/2-x,-z
-x,-y,-z
1/2+y,-x,1/2-z
1/2+x,1/2+y,-z
-y,1/2+x,1/2-z
-x,1/2+y,1/2+z
1/2+x,-y,1/2+z
-y,-x,z
1/2+y,1/2+x,z
loop_
_atom_site_type_symbol
_atom_site_label
_atom_site_fract_x
_atom_site_fract_y
_atom_site_fract_z
Si Si1 0.646548 0.825991 0.075471
Si Si2 0.500018 0.750000 0.250000
Si Si3 0.079625 0.751434 0.106677
Si Si4 0.136738 0.045120 0.711031
O O1 0.750000 0.750000 0.083350
O O2 0.544253 0.746054 0.083769
O O3 0.652707 0.921813 0.131608
O O4 0.628792 0.871209 0.000000
O O5 0.418644 0.745540 0.187559
O O6 0.577427 0.643881 0.250855
O O7 0.142829 0.857172 0.077826
O O8 0.141590 0.641590 0.082504
O O9 0.250000 0.021625 0.750000
O O10 0.064129 0.935872 0.713966
#
# Coordination Sequence:
#
# PCOD8317083 Si02
#       4
#    16   8  16  16
#     4  10  21  38  58  81 110 149 195 239 287 344
#     4  10  17  31  54  80 106 135 175 224 278 328
#     4  10  19  31  51  80 110 136 170 223 282 335
#     4  11  22  36  57  82 112 149 187 232 282 342
#
# _framework density 18.852184000000001
#
# number of rings (size 3 to 8) (size 9 to 14) (size 15 to 20)
#    0.000    1.714    0.000    9.000    0.000    3.714 
#    0.000    4.286    0.000    0.000    0.000    0.000 
#    0.000    0.000    0.000    0.000    0.000    0.000 
#
# Total GULP energy -694041.487399 kJ/mol
# GULP energy per Si atom -12393.597989 kJ/mol
# Density = 1.880928 g / cm^3
# Si number density = 18.852184 Si / 1000 Ang^3
#
#
#
# Elastic Constant Matrix: (Units=GPa)
#
#
# Indices 1 2 3 4 5 6 
#
# 1 132.7272 70.3946 41.8116 0.0000 0.0000 0.0000
# 2 70.3946 132.7264 41.8115 0.0000 0.0000 0.0000
# 3 41.8116 41.8115 97.1377 0.0000 0.0000 0.0000
# 4 0.0000 0.0000 0.0000 1.9358 0.0000 0.0000
# 5 0.0000 0.0000 0.0000 0.0000 1.9377 0.0000
# 6 0.0000 0.0000 0.0000 0.0000 0.0000 27.5701
#
#
#
# Elastic Compliance Matrix: (Units=1/GPa)
#
#
# Indices 1 2 3 4 5 6 
#
# 1 0.011013 -0.005030 -0.002575 0.000000 0.000000 0.000000
# 2 -0.005030 0.011013 -0.002576 0.000000 0.000000 0.000000
# 3 -0.002575 -0.002576 0.012512 0.000000 0.000000 0.000000
# 4 0.000000 0.000000 0.000000 0.516576 0.000000 0.000000
# 5 0.000000 0.000000 0.000000 0.000000 0.516076 0.000000
# 6 0.000000 0.000000 0.000000 0.000000 0.000000 0.036271
#
#
# Mechanical properties :
#
#
# Convention : Reuss Voigt Hill
#
# Bulk Modulus (GPa) = 70.53786 74.51406 72.52596
# Shear Modulus (GPa) = 4.43047 20.19364 12.31206
#
# Velocity S-wave (km/s) = 1.53467 3.27640 2.55832
# Velocity P-wave (km/s) = 6.37478 7.34332 6.87612
#
# Compressibility (1/GPa) = 0.01417678
#
# Stress axis : x y z
#
# Youngs Moduli (GPa) = 90.79991 90.79933 79.92430
#
# Poissons Ratio (x) = 0.45670 0.20584
# Poissons Ratio (y) = 0.45670 0.20585
# Poissons Ratio (z) = 0.23385 0.23385
#
# Static dielectric constant tensor:
#      x y z
#    x 3.428090 0.000000 0.000000 
#    y 0.000000 3.428090 0.000000 
#    z 0.000000 0.000000 3.586490 
# 
# 
# High freq. dielectric constant tensor:
#      x y z
#    x 1.733600 0.000000 0.000000 
#    y 0.000000 1.733600 0.000000 
#    z 0.000000 0.000000 1.721740 
# 
# From -- ./inp_files/8583.got.cif
#   From: 2010.03.12/outbox.cif.g09.slc.cpg/sg134_5_cif.got.tgz:8583.got - 2010.04.06 18:17:22.
