data_PCOD8317668
_publ_section_title
;
Structure prediction by ZEFSAII (Michael W. Deem and Ramdas Pophale) SiO2 
 PCOD8317668
Probable space group: P 42/M N M
;
_chemical_formula_sum "Si O2"
_cell_formula_units_Z 112
_cell_length_a 20.970247
_cell_length_b 20.970247
_cell_length_c 17.266520
_cell_angle_alpha 90.000000
_cell_angle_beta 90.000000
_cell_angle_gamma 90.000000
_cell_volume 7592.973913
_symmetry_space_group_name_H-M "P 42/M N M"
_symmetry_group_IT_number 136
_symmetry_cell_setting 'tetragonal'
loop_
_space_group_symop_operation_xyz
x,y,z
1/2-y,1/2+x,1/2+z
-x,-y,z
1/2+y,1/2-x,1/2+z
1/2+x,1/2-y,1/2-z
1/2-x,1/2+y,1/2-z
y,x,-z
-y,-x,-z
-x,-y,-z
1/2+y,1/2-x,1/2-z
x,y,-z
1/2-y,1/2+x,1/2-z
1/2-x,1/2+y,1/2+z
1/2+x,1/2-y,1/2+z
-y,-x,z
y,x,z
loop_
_atom_site_type_symbol
_atom_site_label
_atom_site_fract_x
_atom_site_fract_y
_atom_site_fract_z
Si Si1 0.635027 0.741065 0.587890
Si Si2 0.201081 0.092485 0.275637
Si Si3 0.449488 0.449488 0.872114
Si Si4 0.812156 0.030795 0.818625
Si Si5 0.697855 0.803994 0.723369
Si Si6 0.221836 0.882138 0.677300
Si Si7 0.049752 0.950249 0.812868
Si Si8 0.688862 0.504373 0.912423
O O1 0.637564 0.764882 0.500000
O O2 0.676072 0.676072 0.599995
O O3 0.560853 0.730094 0.612140
O O4 0.663130 0.798123 0.640309
O O5 0.140489 0.140489 0.265698
O O6 0.269191 0.127556 0.270000
O O7 0.206380 0.040668 0.206936
O O8 0.196578 0.057820 0.358595
O O9 0.500000 0.500000 0.903668
O O10 0.448447 0.448447 0.779942
O O11 0.382052 0.469088 0.906306
O O12 0.810587 0.080936 0.748419
O O13 0.883874 0.027475 0.848713
O O14 0.751288 0.751288 0.728968
O O15 0.648551 0.789113 0.794040
O O16 0.172317 0.827684 0.648499
O O17 0.234820 0.935878 0.611687
O O18 0.000000 0.000000 0.845194
O O19 0.705108 0.483737 0.000000
#
# Coordination Sequence:
#
# PCOD8317668 Si02
#       8
#    16  16   8  16  16  16   8  16
#     4   9  16  27  45  64  80 103 139 185 225 250
#     4  10  19  29  40  60  87 121 148 168 208 254
#     4  11  19  26  35  55  88 126 159 173 190 230
#     4  10  15  26  41  59  82 109 147 182 204 241
#     4   8  16  28  44  60  78 105 144 183 216 253
#     4   9  14  27  43  56  74 105 150 192 210 227
#     4  11  16  23  39  57  79 117 155 181 197 223
#     4  11  20  27  38  59  89 119 147 176 204 242
#
# _framework density 14.750479
#
# number of rings (size 3 to 8) (size 9 to 14) (size 15 to 20)
#    0.000    2.286    5.000    1.929    0.000    2.000 
#    0.000    1.429    0.000    3.000    0.000    2.000 
#    0.000   46.286    0.000   23.143    0.000    0.000 
#
# Total GULP energy -1387727.400710 kJ/mol
# GULP energy per Si atom -12390.423221 kJ/mol
# Density = 1.471691 g / cm^3
# Si number density = 14.750479 Si / 1000 Ang^3
#
#
#
# Elastic Constant Matrix: (Units=GPa)
#
#
# Indices 1 2 3 4 5 6 
#
# 1 66.8834 58.7774 23.5627 0.0000 0.0000 0.0000
# 2 58.7774 66.8834 23.5627 0.0000 0.0000 0.0000
# 3 23.5627 23.5627 38.4369 0.0000 0.0000 0.0000
# 4 0.0000 0.0000 0.0000 -1.5636 0.0000 0.0000
# 5 0.0000 0.0000 0.0000 0.0000 -1.5636 0.0000
# 6 0.0000 0.0000 0.0000 0.0000 0.0000 31.2194
#
#
#
# Elastic Compliance Matrix: (Units=1/GPa)
#
#
# Indices 1 2 3 4 5 6 
#
# 1 0.066850 -0.056516 -0.006335 0.000000 0.000000 0.000000
# 2 -0.056516 0.066850 -0.006335 0.000000 0.000000 0.000000
# 3 -0.006335 -0.006335 0.033783 0.000000 0.000000 0.000000
# 4 0.000000 0.000000 0.000000 -0.639555 0.000000 0.000000
# 5 0.000000 0.000000 0.000000 0.000000 -0.639555 0.000000
# 6 0.000000 0.000000 0.000000 0.000000 0.000000 0.032031
#
#
# Mechanical properties :
#
#
# Convention : Reuss Voigt Hill
#
# Bulk Modulus (GPa) = 34.35056 42.66771 38.50913
# Shear Modulus (GPa) = -5.36757 10.03849 2.33546
#
# Velocity S-wave (km/s) = -1.90966 2.61157 1.25966
# Velocity P-wave (km/s) = 4.29836 6.17113 5.31784
#
# Compressibility (1/GPa) = 0.02911161
#
# Stress axis : x y z
#
# Youngs Moduli (GPa) = 14.95895 14.95895 29.60033
#
# Poissons Ratio (x) = 0.84542 0.18751
# Poissons Ratio (y) = 0.84542 0.18751
# Poissons Ratio (z) = 0.09476 0.09476
#
# Static dielectric constant tensor:
#      x y z
#    x 3.000030 0.000000 0.000000 
#    y 0.000000 3.000030 0.000000 
#    z 0.000000 0.000000 2.846610 
# 
# 
# High freq. dielectric constant tensor:
#      x y z
#    x 1.542470 0.000000 0.000000 
#    y 0.000000 1.542470 0.000000 
#    z 0.000000 0.000000 1.544230 
# 
# From -- ./inp_files/6609.got.cif
#   From: 2010.03.12/outbox.cif.g09.slc.cpg/sg136_4_cif.got.tgz:6609.got - 2010.04.06 18:39:43.
