data_PCOD8317335
_publ_section_title
;
Structure prediction by ZEFSAII (Michael W. Deem and Ramdas Pophale) SiO2 
 PCOD8317335
Probable space group: P 42/N N M
;
_chemical_formula_sum "Si O2"
_cell_formula_units_Z 56
_cell_length_a 12.752647
_cell_length_b 12.752647
_cell_length_c 17.019145
_cell_angle_alpha 90.000000
_cell_angle_beta 90.000000
_cell_angle_gamma 90.000000
_cell_volume 2767.823645
_symmetry_space_group_name_H-M "P 42/N N M"
_symmetry_group_IT_number 134
_space_group.IT_coordinate_system_code '2'
_symmetry_cell_setting 'tetragonal'
loop_
_space_group_symop_operation_xyz
x,y,z
1/2-y,x,1/2+z
1/2-x,1/2-y,z
y,1/2-x,1/2+z
x,1/2-y,1/2-z
1/2-x,y,1/2-z
y,x,-z
1/2-y,1/2-x,-z
-x,-y,-z
1/2+y,-x,1/2-z
1/2+x,1/2+y,-z
-y,1/2+x,1/2-z
-x,1/2+y,1/2+z
1/2+x,-y,1/2+z
-y,-x,z
1/2+y,1/2+x,z
loop_
_atom_site_type_symbol
_atom_site_label
_atom_site_fract_x
_atom_site_fract_y
_atom_site_fract_z
Si Si1 0.001747 0.164373 0.531890
Si Si2 0.578683 0.250000 0.250000
Si Si3 0.009665 0.165409 0.101006
Si Si4 0.130018 0.269447 0.657736
O O1 0.882401 0.117599 0.537294
O O2 0.011273 0.267810 0.478424
O O3 0.046163 0.192306 0.617831
O O4 0.073842 0.073842 0.500000
O O5 0.646318 0.353683 0.257713
O O6 0.507941 0.253738 0.172706
O O7 0.917387 0.082614 0.091432
O O8 0.114994 0.103217 0.124142
O O9 0.250000 0.250000 0.631207
O O10 0.115788 0.250000 0.750000
#
# Coordination Sequence:
#
# PCOD8317335 Si02
#       4
#    16   8  16  16
#     4  11  24  41  64  90 125 171 215 258 319 384
#     4   9  18  34  57  90 132 166 199 254 317 374
#     4  11  23  39  64  96 128 166 214 265 319 375
#     4  11  23  41  63  92 128 167 209 263 319 382
#
# _framework density 20.232503999999999
#
# number of rings (size 3 to 8) (size 9 to 14) (size 15 to 20)
#    0.000    1.286    2.857    3.429    0.000    5.143 
#    0.000    0.000    0.000    0.000    0.000    2.000 
#    0.000    0.000    0.000    0.000    0.000    0.000 
#
# Total GULP energy -694244.614659 kJ/mol
# GULP energy per Si atom -12397.225262 kJ/mol
# Density = 2.018645 g / cm^3
# Si number density = 20.232504 Si / 1000 Ang^3
#
#
#
# Elastic Constant Matrix: (Units=GPa)
#
#
# Indices 1 2 3 4 5 6 
#
# 1 79.1120 37.6649 51.2305 0.0000 0.0000 0.0000
# 2 37.6649 79.1120 51.2305 0.0000 0.0000 0.0000
# 3 51.2305 51.2305 131.3853 0.0000 0.0000 0.0000
# 4 0.0000 0.0000 0.0000 41.8301 0.0000 0.0000
# 5 0.0000 0.0000 0.0000 0.0000 41.8301 0.0000
# 6 0.0000 0.0000 0.0000 0.0000 0.0000 57.5391
#
#
#
# Elastic Compliance Matrix: (Units=1/GPa)
#
#
# Indices 1 2 3 4 5 6 
#
# 1 0.018572 -0.005555 -0.005076 0.000000 0.000000 0.000000
# 2 -0.005555 0.018572 -0.005076 0.000000 0.000000 0.000000
# 3 -0.005076 -0.005076 0.011569 0.000000 0.000000 0.000000
# 4 0.000000 0.000000 0.000000 0.023906 0.000000 0.000000
# 5 0.000000 0.000000 0.000000 0.000000 0.023906 0.000000
# 6 0.000000 0.000000 0.000000 0.000000 0.000000 0.017379
#
#
# Mechanical properties :
#
#
# Convention : Reuss Voigt Hill
#
# Bulk Modulus (GPa) = 57.80165 63.31789 60.55977
# Shear Modulus (GPa) = 33.09407 38.20542 35.64975
#
# Velocity S-wave (km/s) = 4.04875 4.35019 4.20218
# Velocity P-wave (km/s) = 7.10544 7.52299 7.31719
#
# Compressibility (1/GPa) = 0.01730055
#
# Stress axis : x y z
#
# Youngs Moduli (GPa) = 53.84487 53.84487 86.43527
#
# Poissons Ratio (x) = 0.29912 0.43870
# Poissons Ratio (y) = 0.29912 0.43870
# Poissons Ratio (z) = 0.27329 0.27329
#
# Static dielectric constant tensor:
#      x y z
#    x 3.788740 0.000000 0.000000 
#    y 0.000000 3.788740 0.000000 
#    z 0.000000 0.000000 3.808150 
# 
# 
# High freq. dielectric constant tensor:
#      x y z
#    x 1.786450 0.000000 0.000000 
#    y 0.000000 1.786450 0.000000 
#    z 0.000000 0.000000 1.799250 
# 
# From -- ./inp_files/8587.got.cif
#   From: 2010.03.12/outbox.cif.g09.slc.cpg/sg134_5_cif.got.tgz:8587.got - 2010.04.06 18:17:22.
