data_PCOD8317202
_publ_section_title
;
Structure prediction by ZEFSAII (Michael W. Deem and Ramdas Pophale) SiO2 
 PCOD8317202
Probable space group: P 42/N N M
;
_chemical_formula_sum "Si O2"
_cell_formula_units_Z 128
_cell_length_a 16.949245
_cell_length_b 16.949245
_cell_length_c 23.776699
_cell_angle_alpha 90.000000
_cell_angle_beta 90.000000
_cell_angle_gamma 90.000000
_cell_volume 6830.496525
_symmetry_space_group_name_H-M "P 42/N N M"
_symmetry_group_IT_number 134
_space_group.IT_coordinate_system_code '2'
_symmetry_cell_setting 'tetragonal'
loop_
_space_group_symop_operation_xyz
x,y,z
1/2-y,x,1/2+z
1/2-x,1/2-y,z
y,1/2-x,1/2+z
x,1/2-y,1/2-z
1/2-x,y,1/2-z
y,x,-z
1/2-y,1/2-x,-z
-x,-y,-z
1/2+y,-x,1/2-z
1/2+x,1/2+y,-z
-y,1/2+x,1/2-z
-x,1/2+y,1/2+z
1/2+x,-y,1/2+z
-y,-x,z
1/2+y,1/2+x,z
loop_
_atom_site_type_symbol
_atom_site_label
_atom_site_fract_x
_atom_site_fract_y
_atom_site_fract_z
Si Si1 0.936417 0.568741 0.676416
Si Si2 0.664893 0.466734 0.259982
Si Si3 0.952724 0.585783 0.059431
Si Si4 0.441606 0.810418 0.301599
Si Si5 0.908038 0.534689 0.446141
Si Si6 0.292687 0.923260 0.087493
Si Si7 0.904473 0.221286 0.034490
Si Si8 0.348495 0.523500 0.617144
O O1 0.857907 0.524198 0.697278
O O2 0.921746 0.605355 0.613862
O O3 0.008809 0.508809 0.673378
O O4 0.960492 0.638560 0.719759
O O5 0.750000 0.429078 0.250000
O O6 0.602828 0.397173 0.255419
O O7 0.683137 0.498622 0.322159
O O8 0.877559 0.561503 0.096250
O O9 0.022858 0.522858 0.057972
O O10 0.990268 0.668285 0.079513
O O11 0.909795 0.590206 0.000000
O O12 0.445503 0.750000 0.250000
O O13 0.369249 0.869249 0.290489
O O14 0.428039 0.768351 0.361349
O O15 0.906262 0.593739 0.500000
O O16 0.840560 0.472836 0.457372
O O17 0.993843 0.493843 0.443491
O O18 0.357473 0.857473 0.102737
O O19 0.249653 0.899420 0.029796
O O20 0.820425 0.179576 0.049688
O O21 0.925245 0.292008 0.076657
O O22 0.426502 0.573499 0.625368
#
# Coordination Sequence:
#
# PCOD8317202 Si02
#       8
#    16  16  16  16  16  16  16  16
#     4   9  19  37  57  79 109 148 198 241 275 333
#     4  10  21  36  57  84 114 149 188 233 288 343
#     4   9  17  33  54  76 104 139 189 237 270 317
#     4  11  24  39  57  84 117 154 195 240 293 348
#     4   9  17  31  52  75 102 136 178 228 274 323
#     4  11  22  35  55  82 115 154 190 232 290 353
#     4  11  21  32  51  82 115 144 176 219 284 355
#     4  10  20  33  51  77 107 142 182 224 268 324
#
# _framework density 18.739485999999999
#
# number of rings (size 3 to 8) (size 9 to 14) (size 15 to 20)
#    0.000    2.000    1.250    2.625    1.750    6.000 
#    0.000    1.250    0.000    0.375    0.000    5.250 
#    0.000    0.000    0.000    0.000    0.000    0.000 
#
# Total GULP energy -1585693.372984 kJ/mol
# GULP energy per Si atom -12388.229476 kJ/mol
# Density = 1.869683 g / cm^3
# Si number density = 18.739486 Si / 1000 Ang^3
#
#
#
# Elastic Constant Matrix: (Units=GPa)
#
#
# Indices 1 2 3 4 5 6 
#
# 1 54.7474 53.8863 36.5815 0.0000 0.0000 0.0000
# 2 53.8863 54.7469 36.5814 0.0000 0.0000 0.0000
# 3 36.5815 36.5814 150.4642 0.0000 0.0000 0.0000
# 4 0.0000 0.0000 0.0000 19.7181 0.0000 0.0000
# 5 0.0000 0.0000 0.0000 0.0000 19.7196 0.0000
# 6 0.0000 0.0000 0.0000 0.0000 0.0000 22.8148
#
#
#
# Elastic Compliance Matrix: (Units=1/GPa)
#
#
# Indices 1 2 3 4 5 6 
#
# 1 0.586322 -0.575316 -0.002676 0.000000 0.000000 0.000000
# 2 -0.575316 0.586326 -0.002676 0.000000 0.000000 0.000000
# 3 -0.002676 -0.002676 0.007947 0.000000 0.000000 0.000000
# 4 0.000000 0.000000 0.000000 0.050715 0.000000 0.000000
# 5 0.000000 0.000000 0.000000 0.000000 0.050711 0.000000
# 6 0.000000 0.000000 0.000000 0.000000 0.000000 0.043831
#
#
# Mechanical properties :
#
#
# Convention : Reuss Voigt Hill
#
# Bulk Modulus (GPa) = 51.92695 57.11745 54.52220
# Shear Modulus (GPa) = 2.00513 21.31112 11.65813
#
# Velocity S-wave (km/s) = 1.03553 3.37594 2.49693
# Velocity P-wave (km/s) = 5.40369 6.76328 6.12135
#
# Compressibility (1/GPa) = 0.01925782
#
# Stress axis : x y z
#
# Youngs Moduli (GPa) = 1.70555 1.70553 125.82722
#
# Poissons Ratio (x) = 0.98122 0.33676
# Poissons Ratio (y) = 0.98123 0.33672
# Poissons Ratio (z) = 0.00456 0.00456
#
# Static dielectric constant tensor:
#      x y z
#    x 3.306060 0.000000 0.000000 
#    y 0.000000 3.306060 0.000000 
#    z 0.000000 0.000000 3.167490 
# 
# 
# High freq. dielectric constant tensor:
#      x y z
#    x 1.706950 0.000000 0.000000 
#    y 0.000000 1.706950 0.000000 
#    z 0.000000 0.000000 1.749330 
# 
# From -- ./inp_files/10292.got.cif
#   From: 2010.03.12/outbox.cif.g09.slc.cpg/sg134_6_cif.got.tgz:10292.got - 2010.04.06 18:17:22.
