data_PCOD8317351
_publ_section_title
;
Structure prediction by ZEFSAII (Michael W. Deem and Ramdas Pophale) SiO2 
 PCOD8317351
Probable space group: P 42/N N M
;
_chemical_formula_sum "Si O2"
_cell_formula_units_Z 34
_cell_length_a 11.222770
_cell_length_b 11.222770
_cell_length_c 13.496471
_cell_angle_alpha 90.000000
_cell_angle_beta 90.000000
_cell_angle_gamma 90.000000
_cell_volume 1699.888168
_symmetry_space_group_name_H-M "P 42/N N M"
_symmetry_group_IT_number 134
_space_group.IT_coordinate_system_code '2'
_symmetry_cell_setting 'tetragonal'
loop_
_space_group_symop_operation_xyz
x,y,z
1/2-y,x,1/2+z
1/2-x,1/2-y,z
y,1/2-x,1/2+z
x,1/2-y,1/2-z
1/2-x,y,1/2-z
y,x,-z
1/2-y,1/2-x,-z
-x,-y,-z
1/2+y,-x,1/2-z
1/2+x,1/2+y,-z
-y,1/2+x,1/2-z
-x,1/2+y,1/2+z
1/2+x,-y,1/2+z
-y,-x,z
1/2+y,1/2+x,z
loop_
_atom_site_type_symbol
_atom_site_label
_atom_site_fract_x
_atom_site_fract_y
_atom_site_fract_z
Si Si1 0.556182 0.250000 0.750000
Si Si2 0.686691 0.986753 0.541020
Si Si3 0.156328 0.843673 0.560470
Si Si4 0.750000 0.250000 0.250000
O O1 0.638224 0.361777 0.719835
O O2 0.472794 0.280350 0.843426
O O3 0.640014 0.859986 0.500000
O O4 0.584835 0.084835 0.525460
O O5 0.804256 0.025552 0.477797
O O6 0.250000 0.750000 0.510999
O O7 0.166099 0.833902 0.680756
#
# Coordination Sequence:
#
# PCOD8317351 Si02
#       4
#     8  16   8   2
#     4   9  14  22  38  62  98 133 166 201 264 309
#     4   9  15  23  39  65  99 131 167 215 258 318
#     4   8  14  26  37  61  92 130 165 201 259 315
#     4   8  16  24  40  54  92 132 156 204 252 318
#
# _framework density 20.001314000000001
#
# number of rings (size 3 to 8) (size 9 to 14) (size 15 to 20)
#    0.706    2.588    2.353    0.000    0.000    0.000 
#    0.000    0.000    0.000    0.000    0.000    6.588 
#    0.000    9.412    0.000    0.471    0.000    0.000 
#
# Total GULP energy -421240.156714 kJ/mol
# GULP energy per Si atom -12389.416374 kJ/mol
# Density = 1.995579 g / cm^3
# Si number density = 20.001314 Si / 1000 Ang^3
#
#
#
# Elastic Constant Matrix: (Units=GPa)
#
#
# Indices 1 2 3 4 5 6 
#
# 1 55.6976 52.2212 60.2077 0.0000 0.0000 0.0000
# 2 52.2212 55.6990 60.2084 0.0000 0.0000 0.0000
# 3 60.2077 60.2084 166.4548 0.0000 0.0000 0.0000
# 4 0.0000 0.0000 0.0000 16.9159 0.0000 0.0000
# 5 0.0000 0.0000 0.0000 0.0000 16.9155 0.0000
# 6 0.0000 0.0000 0.0000 0.0000 0.0000 34.0548
#
#
#
# Elastic Compliance Matrix: (Units=1/GPa)
#
#
# Indices 1 2 3 4 5 6 
#
# 1 0.151568 -0.136030 -0.005620 0.000000 0.000000 0.000000
# 2 -0.136030 0.151565 -0.005620 0.000000 0.000000 0.000000
# 3 -0.005620 -0.005620 0.010073 0.000000 0.000000 0.000000
# 4 0.000000 0.000000 0.000000 0.059116 0.000000 0.000000
# 5 0.000000 0.000000 0.000000 0.000000 0.059117 0.000000
# 6 0.000000 0.000000 0.000000 0.000000 0.000000 0.029364
#
#
# Mechanical properties :
#
#
# Convention : Reuss Voigt Hill
#
# Bulk Modulus (GPa) = 53.56929 69.23622 61.40276
# Shear Modulus (GPa) = 6.56543 20.59153 13.57848
#
# Velocity S-wave (km/s) = 1.81373 3.21208 2.60836
# Velocity P-wave (km/s) = 5.58813 6.96043 6.31169
#
# Compressibility (1/GPa) = 0.01866741
#
# Stress axis : x y z
#
# Youngs Moduli (GPa) = 6.59768 6.59785 99.27482
#
# Poissons Ratio (x) = 0.89750 0.55791
# Poissons Ratio (y) = 0.89748 0.55789
# Poissons Ratio (z) = 0.03708 0.03708
#
# Static dielectric constant tensor:
#      x y z
#    x 3.323970 0.000000 0.000000 
#    y 0.000000 3.323960 0.000000 
#    z 0.000000 0.000000 3.527210 
# 
# 
# High freq. dielectric constant tensor:
#      x y z
#    x 1.733660 0.000000 0.000000 
#    y 0.000000 1.733660 0.000000 
#    z 0.000000 0.000000 1.785570 
# 
# From -- ./inp_files/3803.got.cif
#   From: 2010.03.12/outbox.cif.g09.slc.cpg/sg134_2_cif.got.tgz:3803.got - 2010.04.06 18:17:22.
