data_PCOD8317670
_publ_section_title
;
Structure prediction by ZEFSAII (Michael W. Deem and Ramdas Pophale) SiO2 
 PCOD8317670
Probable space group: P 42/M N M
;
_chemical_formula_sum "Si O2"
_cell_formula_units_Z 80
_cell_length_a 25.091951
_cell_length_b 25.091951
_cell_length_c 9.016884
_cell_angle_alpha 90.000000
_cell_angle_beta 90.000000
_cell_angle_gamma 90.000000
_cell_volume 5677.084313
_symmetry_space_group_name_H-M "P 42/M N M"
_symmetry_group_IT_number 136
_symmetry_cell_setting 'tetragonal'
loop_
_space_group_symop_operation_xyz
x,y,z
1/2-y,1/2+x,1/2+z
-x,-y,z
1/2+y,1/2-x,1/2+z
1/2+x,1/2-y,1/2-z
1/2-x,1/2+y,1/2-z
y,x,-z
-y,-x,-z
-x,-y,-z
1/2+y,1/2-x,1/2-z
x,y,-z
1/2-y,1/2+x,1/2-z
1/2-x,1/2+y,1/2+z
1/2+x,1/2-y,1/2+z
-y,-x,z
y,x,z
loop_
_atom_site_type_symbol
_atom_site_label
_atom_site_fract_x
_atom_site_fract_y
_atom_site_fract_z
Si Si1 0.711533 0.288468 0.827674
Si Si2 0.710312 0.710312 0.175130
Si Si3 0.218940 0.367577 0.332396
Si Si4 0.376612 0.783844 0.836029
Si Si5 0.642053 0.947949 0.828912
Si Si6 0.057589 0.643708 0.327282
O O1 0.745519 0.254482 0.711399
O O2 0.648608 0.274905 0.800851
O O3 0.726578 0.273423 0.000000
O O4 0.728951 0.653937 0.245568
O O5 0.703855 0.703855 0.000000
O O6 0.235261 0.382195 0.500000
O O7 0.173668 0.322945 0.328990
O O8 0.196571 0.420452 0.253016
O O9 0.421629 0.801459 0.719503
O O10 0.402511 0.785067 0.000000
O O11 0.594820 0.906898 0.794900
O O12 0.629170 0.999829 0.734213
O O13 0.645885 0.963574 0.000000
O O14 0.054334 0.656258 0.500000
#
# Coordination Sequence:
#
# PCOD8317670 Si02
#       6
#     8   8  16  16  16  16
#     4   8  14  24  38  56  76  98 120 145 184 229
#     4  10  16  22  36  58  80  98 118 145 180 225
#     4   9  16  27  41  56  75  97 121 151 189 230
#     4   8  14  25  40  56  74  95 119 149 186 229
#     4  10  20  31  42  56  73  96 128 165 204 240
#     4  10  20  32  44  57  73  96 129 167 204 239
#
# _framework density 14.091741000000001
#
# number of rings (size 3 to 8) (size 9 to 14) (size 15 to 20)
#    0.000    2.800    0.000    3.900    0.000    7.600 
#    0.000    2.000    0.000    0.000    0.000    0.000 
#    0.000    0.000    0.000    0.000    0.000    1.000 
#
# Total GULP energy -991497.141315 kJ/mol
# GULP energy per Si atom -12393.714266 kJ/mol
# Density = 1.405967 g / cm^3
# Si number density = 14.091741 Si / 1000 Ang^3
#
#
#
# Elastic Constant Matrix: (Units=GPa)
#
#
# Indices 1 2 3 4 5 6 
#
# 1 45.2097 44.1449 42.0110 0.0000 0.0000 0.0000
# 2 44.1449 45.2099 42.0109 0.0000 0.0000 0.0000
# 3 42.0110 42.0109 103.7042 0.0000 0.0000 0.0000
# 4 0.0000 0.0000 0.0000 21.2163 0.0000 0.0000
# 5 0.0000 0.0000 0.0000 0.0000 21.2162 0.0000
# 6 0.0000 0.0000 0.0000 0.0000 0.0000 11.8526
#
#
#
# Elastic Compliance Matrix: (Units=1/GPa)
#
#
# Indices 1 2 3 4 5 6 
#
# 1 0.478559 -0.460480 -0.007324 0.000000 0.000000 0.000000
# 2 -0.460480 0.478556 -0.007323 0.000000 0.000000 0.000000
# 3 -0.007324 -0.007323 0.015576 0.000000 0.000000 0.000000
# 4 0.000000 0.000000 0.000000 0.047134 0.000000 0.000000
# 5 0.000000 0.000000 0.000000 0.000000 0.047134 0.000000
# 6 0.000000 0.000000 0.000000 0.000000 0.000000 0.084370
#
#
# Mechanical properties :
#
#
# Convention : Reuss Voigt Hill
#
# Bulk Modulus (GPa) = 44.56687 50.05082 47.30884
# Shear Modulus (GPa) = 2.37072 15.25416 8.81244
#
# Velocity S-wave (km/s) = 1.29846 3.29369 2.50344
# Velocity P-wave (km/s) = 5.82605 7.07527 6.48083
#
# Compressibility (1/GPa) = 0.02243819
#
# Stress axis : x y z
#
# Youngs Moduli (GPa) = 2.08961 2.08962 64.20053
#
# Poissons Ratio (x) = 0.96223 0.47020
# Poissons Ratio (y) = 0.96222 0.47012
# Poissons Ratio (z) = 0.01530 0.01530
#
# Static dielectric constant tensor:
#      x y z
#    x 2.702800 0.000000 0.000000 
#    y 0.000000 2.702800 0.000000 
#    z 0.000000 0.000000 2.897350 
# 
# 
# High freq. dielectric constant tensor:
#      x y z
#    x 1.503090 0.000000 0.000000 
#    y 0.000000 1.503090 0.000000 
#    z 0.000000 0.000000 1.554080 
# 
# From -- ./inp_files/1826.got.cif
#   From: 2010.03.12/outbox.cif.g09.slc.cpg/sg136_1_cif.got.tgz:1826.got - 2010.04.06 18:39:43.
