data_PCOD8317252
_publ_section_title
;
Structure prediction by ZEFSAII (Michael W. Deem and Ramdas Pophale) SiO2 
 PCOD8317252
Probable space group: P 42/N N M
;
_chemical_formula_sum "Si O2"
_cell_formula_units_Z 96
_cell_length_a 14.741389
_cell_length_b 14.741389
_cell_length_c 25.412647
_cell_angle_alpha 90.000000
_cell_angle_beta 90.000000
_cell_angle_gamma 90.000000
_cell_volume 5522.385462
_symmetry_space_group_name_H-M "P 42/N N M"
_symmetry_group_IT_number 134
_space_group.IT_coordinate_system_code '2'
_symmetry_cell_setting 'tetragonal'
loop_
_space_group_symop_operation_xyz
x,y,z
1/2-y,x,1/2+z
1/2-x,1/2-y,z
y,1/2-x,1/2+z
x,1/2-y,1/2-z
1/2-x,y,1/2-z
y,x,-z
1/2-y,1/2-x,-z
-x,-y,-z
1/2+y,-x,1/2-z
1/2+x,1/2+y,-z
-y,1/2+x,1/2-z
-x,1/2+y,1/2+z
1/2+x,-y,1/2+z
-y,-x,z
1/2+y,1/2+x,z
loop_
_atom_site_type_symbol
_atom_site_label
_atom_site_fract_x
_atom_site_fract_y
_atom_site_fract_z
Si Si1 0.421089 0.429967 0.379151
Si Si2 0.633167 0.895967 0.602228
Si Si3 0.413088 0.211782 0.968555
Si Si4 0.239270 0.357151 0.189407
Si Si5 0.941135 0.058866 0.959244
Si Si6 0.178533 0.678533 0.535954
Si Si7 0.004585 0.747343 0.926795
O O1 0.486071 0.513930 0.362021
O O2 0.357552 0.461754 0.427705
O O3 0.357941 0.395225 0.331049
O O4 0.484154 0.347387 0.398762
O O5 0.710637 0.858696 0.563003
O O6 0.676075 0.904989 0.660240
O O7 0.548550 0.828358 0.602360
O O8 0.613316 0.995431 0.580520
O O9 0.334547 0.165454 0.000000
O O10 0.485178 0.249340 0.010360
O O11 0.250000 0.250000 0.179189
O O12 0.250000 0.382601 0.250000
O O13 0.873763 0.126238 0.989380
O O14 0.000000 0.000000 0.000000
O O15 0.250000 0.750000 0.511258
O O16 0.231319 0.610783 0.575525
#
# Coordination Sequence:
#
# PCOD8317252 Si02
#       7
#    16  16  16  16   8   8  16
#     4  10  21  35  53  81 113 145 178 226 287 342
#     4  11  19  34  55  81 107 145 190 239 281 330
#     4   9  19  28  49  78 111 141 180 220 271 329
#     4  10  21  40  62  83 107 139 189 248 299 339
#     4  12  20  36  54  78 118 152 194 232 271 343
#     4  12  24  34  48  78 122 162 190 222 270 341
#     4  11  19  33  51  77 112 151 186 219 271 336
#
# _framework density 17.383792
#
# number of rings (size 3 to 8) (size 9 to 14) (size 15 to 20)
#    0.000    1.500    5.000    1.000    0.000    5.667 
#    1.500    0.000    0.000    0.000    0.000    0.000 
#    0.000    0.000    0.000    0.000    0.000    0.000 
#
# Total GULP energy -1189918.627901 kJ/mol
# GULP energy per Si atom -12394.985707 kJ/mol
# Density = 1.734423 g / cm^3
# Si number density = 17.383792 Si / 1000 Ang^3
#
#
#
# Elastic Constant Matrix: (Units=GPa)
#
#
# Indices 1 2 3 4 5 6 
#
# 1 70.5703 66.4909 41.4960 0.0000 0.0000 0.0000
# 2 66.4909 70.5688 41.5015 0.0000 0.0000 0.0000
# 3 41.4960 41.5015 113.0549 0.0000 0.0000 0.0000
# 4 0.0000 0.0000 0.0000 19.6629 0.0000 0.0000
# 5 0.0000 0.0000 0.0000 0.0000 19.6625 0.0000
# 6 0.0000 0.0000 0.0000 0.0000 0.0000 35.0696
#
#
#
# Elastic Compliance Matrix: (Units=1/GPa)
#
#
# Indices 1 2 3 4 5 6 
#
# 1 0.127272 -0.117897 -0.003435 0.000000 0.000000 0.000000
# 2 -0.117897 0.127284 -0.003452 0.000000 0.000000 0.000000
# 3 -0.003435 -0.003452 0.011373 0.000000 0.000000 0.000000
# 4 0.000000 0.000000 0.000000 0.050857 0.000000 0.000000
# 5 0.000000 0.000000 0.000000 0.000000 0.050858 0.000000
# 6 0.000000 0.000000 0.000000 0.000000 0.000000 0.028515
#
#
# Mechanical properties :
#
#
# Convention : Reuss Voigt Hill
#
# Bulk Modulus (GPa) = 61.11853 61.46342 61.29097
# Shear Modulus (GPa) = 7.67835 21.85940 14.76888
#
# Velocity S-wave (km/s) = 2.10394 3.54991 2.91791
# Velocity P-wave (km/s) = 6.41379 7.22745 6.83274
#
# Compressibility (1/GPa) = 0.01636165
#
# Stress axis : x y z
#
# Youngs Moduli (GPa) = 7.85720 7.85642 87.92522
#
# Poissons Ratio (x) = 0.92625 0.30205
# Poissons Ratio (y) = 0.92634 0.30350
# Poissons Ratio (z) = 0.02699 0.02712
#
# Static dielectric constant tensor:
#      x y z
#    x 3.134240 0.000000 0.000000 
#    y 0.000000 3.134260 0.000000 
#    z 0.000000 0.000000 3.170280 
# 
# 
# High freq. dielectric constant tensor:
#      x y z
#    x 1.672250 0.000000 0.000000 
#    y 0.000000 1.672250 0.000000 
#    z 0.000000 0.000000 1.640520 
# 
# From -- ./inp_files/10047.got.cif
#   From: 2010.03.12/outbox.cif.g09.slc.cpg/sg134_6_cif.got.tgz:10047.got - 2010.04.06 18:17:22.
