data_PCOD8317088
_publ_section_title
;
Structure prediction by ZEFSAII (Michael W. Deem and Ramdas Pophale) SiO2 
 PCOD8317088
Probable space group: P 42/N N M
;
_chemical_formula_sum "Si O2"
_cell_formula_units_Z 96
_cell_length_a 20.492538
_cell_length_b 20.492538
_cell_length_c 13.804774
_cell_angle_alpha 90.000000
_cell_angle_beta 90.000000
_cell_angle_gamma 90.000000
_cell_volume 5797.233582
_symmetry_space_group_name_H-M "P 42/N N M"
_symmetry_group_IT_number 134
_space_group.IT_coordinate_system_code '2'
_symmetry_cell_setting 'tetragonal'
loop_
_space_group_symop_operation_xyz
x,y,z
1/2-y,x,1/2+z
1/2-x,1/2-y,z
y,1/2-x,1/2+z
x,1/2-y,1/2-z
1/2-x,y,1/2-z
y,x,-z
1/2-y,1/2-x,-z
-x,-y,-z
1/2+y,-x,1/2-z
1/2+x,1/2+y,-z
-y,1/2+x,1/2-z
-x,1/2+y,1/2+z
1/2+x,-y,1/2+z
-y,-x,z
1/2+y,1/2+x,z
loop_
_atom_site_type_symbol
_atom_site_label
_atom_site_fract_x
_atom_site_fract_y
_atom_site_fract_z
Si Si1 0.410272 0.020155 0.201492
Si Si2 0.006407 0.884152 0.630774
Si Si3 0.479015 0.415021 0.915642
Si Si4 0.186752 0.580979 0.488220
Si Si5 0.424429 0.816691 0.708558
Si Si6 0.941267 0.331525 0.940151
O O1 0.436418 0.079618 0.134665
O O2 0.397783 0.049606 0.309213
O O3 0.464304 0.964304 0.208761
O O4 0.346263 0.987526 0.152750
O O5 0.062350 0.937651 0.628602
O O6 0.013700 0.839648 0.727240
O O7 0.013128 0.840871 0.534545
O O8 0.515901 0.484099 0.909611
O O9 0.527876 0.356435 0.935247
O O10 0.423483 0.423483 0.000000
O O11 0.152284 0.652284 0.482438
O O12 0.192494 0.555329 0.597775
O O13 0.257307 0.584717 0.436977
O O14 0.395739 0.750000 0.750000
O O15 0.367552 0.867552 0.720433
O O16 0.878427 0.378427 0.942102
#
# Coordination Sequence:
#
# PCOD8317088 Si02
#       6
#    16  16  16  16  16  16
#     4   9  17  29  47  66  86 116 155 197 241 285
#     4   9  16  28  45  65  89 118 154 197 244 285
#     4   9  17  31  49  67  86 114 152 195 242 283
#     4  10  20  31  45  66  95 130 164 194 227 272
#     4  10  18  28  42  62  89 124 160 196 236 280
#     4  10  19  30  44  66  96 130 162 192 230 276
#
# _framework density 16.559622000000001
#
# number of rings (size 3 to 8) (size 9 to 14) (size 15 to 20)
#    0.000    2.500    1.667    1.500    0.000    7.167 
#    0.000    1.667    0.000    0.000    0.000    4.667 
#    0.000    2.667    1.000    0.000    0.000    0.000 
#
# Total GULP energy -1189613.906095 kJ/mol
# GULP energy per Si atom -12391.811522 kJ/mol
# Density = 1.652193 g / cm^3
# Si number density = 16.559622 Si / 1000 Ang^3
#
#
#
# Elastic Constant Matrix: (Units=GPa)
#
#
# Indices 1 2 3 4 5 6 
#
# 1 42.9787 35.9649 31.8149 0.0000 0.0000 0.0000
# 2 35.9649 42.9787 31.8149 0.0000 0.0000 0.0000
# 3 31.8149 31.8149 98.5866 0.0000 0.0000 0.0000
# 4 0.0000 0.0000 0.0000 18.9962 0.0000 0.0000
# 5 0.0000 0.0000 0.0000 0.0000 18.9962 0.0000
# 6 0.0000 0.0000 0.0000 0.0000 0.0000 76.2637
#
#
#
# Elastic Compliance Matrix: (Units=1/GPa)
#
#
# Indices 1 2 3 4 5 6 
#
# 1 0.079849 -0.062729 -0.005525 0.000000 0.000000 0.000000
# 2 -0.062729 0.079849 -0.005525 0.000000 0.000000 0.000000
# 3 -0.005525 -0.005525 0.013709 0.000000 0.000000 0.000000
# 4 0.000000 0.000000 0.000000 0.052642 0.000000 0.000000
# 5 0.000000 0.000000 0.000000 0.000000 0.052642 0.000000
# 6 0.000000 0.000000 0.000000 0.000000 0.000000 0.013112
#
#
# Mechanical properties :
#
#
# Convention : Reuss Voigt Hill
#
# Bulk Modulus (GPa) = 38.68409 42.63703 40.66056
# Shear Modulus (GPa) = 11.16126 28.51450 19.83788
#
# Velocity S-wave (km/s) = 2.59898 4.15412 3.46492
# Velocity P-wave (km/s) = 5.69363 6.98659 6.37298
#
# Compressibility (1/GPa) = 0.02585042
#
# Stress axis : x y z
#
# Youngs Moduli (GPa) = 12.52363 12.52363 72.94326
#
# Poissons Ratio (x) = 0.78559 0.40301
# Poissons Ratio (y) = 0.78559 0.40301
# Poissons Ratio (z) = 0.06919 0.06919
#
# Static dielectric constant tensor:
#      x y z
#    x 2.938270 0.000000 0.000000 
#    y 0.000000 2.938270 0.000000 
#    z 0.000000 0.000000 3.489000 
# 
# 
# High freq. dielectric constant tensor:
#      x y z
#    x 1.600770 0.000000 0.000000 
#    y 0.000000 1.600770 0.000000 
#    z 0.000000 0.000000 1.656420 
# 
# From -- ./inp_files/5049.got.cif
#   From: 2010.03.12/outbox.cif.g09.slc.cpg/sg134_3_cif.got.tgz:5049.got - 2010.04.06 18:17:22.
