data_PCOD8317198
_publ_section_title
;
Structure prediction by ZEFSAII (Michael W. Deem and Ramdas Pophale) SiO2 
 PCOD8317198
Probable space group: P 42/N N M
;
_chemical_formula_sum "Si O2"
_cell_formula_units_Z 80
_cell_length_a 29.473073
_cell_length_b 29.473073
_cell_length_c 4.937023
_cell_angle_alpha 90.000000
_cell_angle_beta 90.000000
_cell_angle_gamma 90.000000
_cell_volume 4288.604432
_symmetry_space_group_name_H-M "P 42/N N M"
_symmetry_group_IT_number 134
_space_group.IT_coordinate_system_code '2'
_symmetry_cell_setting 'tetragonal'
loop_
_space_group_symop_operation_xyz
x,y,z
1/2-y,x,1/2+z
1/2-x,1/2-y,z
y,1/2-x,1/2+z
x,1/2-y,1/2-z
1/2-x,y,1/2-z
y,x,-z
1/2-y,1/2-x,-z
-x,-y,-z
1/2+y,-x,1/2-z
1/2+x,1/2+y,-z
-y,1/2+x,1/2-z
-x,1/2+y,1/2+z
1/2+x,-y,1/2+z
-y,-x,z
1/2+y,1/2+x,z
loop_
_atom_site_type_symbol
_atom_site_label
_atom_site_fract_x
_atom_site_fract_y
_atom_site_fract_z
Si Si1 0.909910 0.985712 0.018046
Si Si2 0.096921 0.135468 0.251765
Si Si3 0.530542 0.218821 0.986654
Si Si4 0.456505 0.615111 0.492390
Si Si5 0.221659 0.070467 0.490842
O O1 0.869663 0.951736 0.109893
O O2 0.908986 0.026392 0.231954
O O3 0.957833 0.957833 0.000000
O O4 0.896727 0.005469 0.728715
O O5 0.099471 0.099471 0.500000
O O6 0.104137 0.182271 0.412076
O O7 0.132277 0.132277 0.000000
O O8 0.552606 0.250000 0.750000
O O9 0.553805 0.169209 0.021380
O O10 0.479163 0.205206 0.894749
O O11 0.535207 0.250000 0.250000
O O12 0.408731 0.591270 0.417493
O O13 0.250000 0.094591 0.250000
O O14 0.250000 0.058996 0.750000
#
# Coordination Sequence:
#
# PCOD8317198 Si02
#       5
#    16  16  16  16  16
#     4  11  23  36  53  74 110 154 192 227 262 308
#     4  11  21  34  54  76 108 147 185 227 277 328
#     4  10  21  36  56  76 104 138 178 227 284 328
#     4  12  24  38  56  79 109 143 194 235 265 320
#     4  10  20  32  53  78 101 134 182 229 276 331
#
# _framework density 18.654087000000001
#
# number of rings (size 3 to 8) (size 9 to 14) (size 15 to 20)
#    0.000    1.200    2.000    6.000    5.600    2.400 
#    0.000    0.000    0.000    0.000    0.000    0.000 
#    0.000   13.600    0.000    0.000    0.000    0.000 
#
# Total GULP energy -991045.086058 kJ/mol
# GULP energy per Si atom -12388.063576 kJ/mol
# Density = 1.861163 g / cm^3
# Si number density = 18.654087 Si / 1000 Ang^3
#
#
#
# Elastic Constant Matrix: (Units=GPa)
#
#
# Indices 1 2 3 4 5 6 
#
# 1 81.5139 62.1535 37.8830 0.0000 0.0000 0.0000
# 2 62.1535 81.5139 37.8830 0.0000 0.0000 0.0000
# 3 37.8830 37.8830 116.8467 0.0000 0.0000 0.0000
# 4 0.0000 0.0000 0.0000 22.5644 0.0000 0.0000
# 5 0.0000 0.0000 0.0000 0.0000 22.5644 0.0000
# 6 0.0000 0.0000 0.0000 0.0000 0.0000 12.5499
#
#
#
# Elastic Compliance Matrix: (Units=1/GPa)
#
#
# Indices 1 2 3 4 5 6 
#
# 1 0.030024 -0.021628 -0.002722 0.000000 0.000000 0.000000
# 2 -0.021628 0.030024 -0.002722 0.000000 0.000000 0.000000
# 3 -0.002722 -0.002722 0.010323 0.000000 0.000000 0.000000
# 4 0.000000 0.000000 0.000000 0.044318 0.000000 0.000000
# 5 0.000000 0.000000 0.000000 0.000000 0.044318 0.000000
# 6 0.000000 0.000000 0.000000 0.000000 0.000000 0.079682
#
#
# Mechanical properties :
#
#
# Convention : Reuss Voigt Hill
#
# Bulk Modulus (GPa) = 61.62553 61.74595 61.68574
# Shear Modulus (GPa) = 16.76493 20.99940 18.88216
#
# Velocity S-wave (km/s) = 3.00113 3.35882 3.18500
# Velocity P-wave (km/s) = 6.71690 6.94367 6.83123
#
# Compressibility (1/GPa) = 0.01622704
#
# Stress axis : x y z
#
# Youngs Moduli (GPa) = 33.30676 33.30676 96.86829
#
# Poissons Ratio (x) = 0.72035 0.26369
# Poissons Ratio (y) = 0.72035 0.26369
# Poissons Ratio (z) = 0.09066 0.09066
#
# Static dielectric constant tensor:
#      x y z
#    x 3.220560 0.000000 0.000000 
#    y 0.000000 3.220560 0.000000 
#    z 0.000000 0.000000 3.773650 
# 
# 
# High freq. dielectric constant tensor:
#      x y z
#    x 1.685600 0.000000 0.000000 
#    y 0.000000 1.685600 0.000000 
#    z 0.000000 0.000000 1.758960 
# 
# From -- ./inp_files/1153.got.cif
#   From: 2010.03.12/outbox.cif.g09.slc.cpg/sg134_1_cif.got.tgz:1153.got - 2010.04.06 18:17:22.
