data_PCOD8317032
_publ_section_title
;
Structure prediction by ZEFSAII (Michael W. Deem and Ramdas Pophale) SiO2 
 PCOD8317032
Probable space group: P 42/N B C
;
_chemical_formula_sum "Si O2"
_cell_formula_units_Z 40
_cell_length_a 15.500524
_cell_length_b 15.500524
_cell_length_c 7.213771
_cell_angle_alpha 90.000000
_cell_angle_beta 90.000000
_cell_angle_gamma 90.000000
_cell_volume 1733.225665
_symmetry_space_group_name_H-M "P 42/N B C"
_symmetry_group_IT_number 133
_space_group.IT_coordinate_system_code '2'
_symmetry_cell_setting 'tetragonal'
loop_
_space_group_symop_operation_xyz
x,y,z
1/2-y,x,1/2+z
1/2-x,1/2-y,z
y,1/2-x,1/2+z
x,1/2-y,-z
1/2-x,y,-z
y,x,1/2-z
1/2-y,1/2-x,1/2-z
-x,-y,-z
1/2+y,-x,1/2-z
1/2+x,1/2+y,-z
-y,1/2+x,1/2-z
-x,1/2+y,z
1/2+x,-y,z
-y,-x,1/2+z
1/2+y,1/2+x,1/2+z
loop_
_atom_site_type_symbol
_atom_site_label
_atom_site_fract_x
_atom_site_fract_y
_atom_site_fract_z
Si Si1 0.266540 0.886168 0.291892
Si Si2 0.046957 0.046957 0.250000
Si Si3 0.378467 0.019345 0.115443
O O1 0.250000 0.917264 0.500000
O O2 0.343965 0.816290 0.305874
O O3 0.290945 0.970932 0.173054
O O4 0.051761 0.124598 0.400764
O O5 0.051550 0.956341 0.363823
O O6 0.398852 0.101149 0.250000
#
# Coordination Sequence:
#
# PCOD8317032 Si02
#       3
#    16   8  16
#     4  11  22  34  47  76 116 152 182 233 317 398
#     4   8  16  28  52  66  86 128 190 246 262 306
#     4   9  17  33  51  68  94 142 198 236 275 341
#
# _framework density 23.078357
#
# number of rings (size 3 to 8) (size 9 to 14) (size 15 to 20)
#    1.200    1.200    0.000    4.800    0.000    0.000 
#    0.000    0.000    0.000    0.000    0.000    0.000 
#    0.000    1.600    0.000    8.800    0.800    0.000 
#
# Total GULP energy -495725.905827 kJ/mol
# GULP energy per Si atom -12393.147646 kJ/mol
# Density = 2.302583 g / cm^3
# Si number density = 23.078357 Si / 1000 Ang^3
#
#
#
# Elastic Constant Matrix: (Units=GPa)
#
#
# Indices 1 2 3 4 5 6 
#
# 1 51.0544 43.9369 43.9402 0.0000 0.0000 0.0000
# 2 43.9369 51.0539 43.9400 0.0000 0.0000 0.0000
# 3 43.9402 43.9400 211.7854 0.0000 0.0000 0.0000
# 4 0.0000 0.0000 0.0000 23.3000 0.0000 0.0000
# 5 0.0000 0.0000 0.0000 0.0000 23.3002 0.0000
# 6 0.0000 0.0000 0.0000 0.0000 0.0000 29.0959
#
#
#
# Elastic Compliance Matrix: (Units=1/GPa)
#
#
# Indices 1 2 3 4 5 6 
#
# 1 0.076765 -0.063738 -0.002703 0.000000 0.000000 0.000000
# 2 -0.063738 0.076766 -0.002703 0.000000 0.000000 0.000000
# 3 -0.002703 -0.002703 0.005843 0.000000 0.000000 0.000000
# 4 0.000000 0.000000 0.000000 0.042919 0.000000 0.000000
# 5 0.000000 0.000000 0.000000 0.000000 0.042918 0.000000
# 6 0.000000 0.000000 0.000000 0.000000 0.000000 0.034369
#
#
# Mechanical properties :
#
#
# Convention : Reuss Voigt Hill
#
# Bulk Modulus (GPa) = 47.42175 64.16975 55.79575
# Shear Modulus (GPa) = 11.76755 27.27765 19.52260
#
# Velocity S-wave (km/s) = 2.26054 3.44169 2.91164
# Velocity P-wave (km/s) = 5.23509 6.60751 5.96093
#
# Compressibility (1/GPa) = 0.02108737
#
# Stress axis : x y z
#
# Youngs Moduli (GPa) = 13.02671 13.02657 171.13454
#
# Poissons Ratio (x) = 0.83029 0.46256
# Poissons Ratio (y) = 0.83029 0.46258
# Poissons Ratio (z) = 0.03521 0.03521
#
# Static dielectric constant tensor:
#      x y z
#    x 3.636490 0.000000 0.000000 
#    y 0.000000 3.636500 0.000000 
#    z 0.000000 0.000000 4.231690 
# 
# 
# High freq. dielectric constant tensor:
#      x y z
#    x 1.853560 0.000000 0.000000 
#    y 0.000000 1.853560 0.000000 
#    z 0.000000 0.000000 1.937350 
# 
# From -- ./inp_files/951.got.cif
#   From: 2010.03.12/outbox.cif.g09.slc.cpg/sg133_1_cif.got.tgz:951.got - 2010.04.06 18:08:06.
