data_PCOD8317121
_publ_section_title
;
Structure prediction by ZEFSAII (Michael W. Deem and Ramdas Pophale) SiO2 
 PCOD8317121
Probable space group: P 42/N N M
;
_chemical_formula_sum "Si O2"
_cell_formula_units_Z 80
_cell_length_a 13.356805
_cell_length_b 13.356805
_cell_length_c 25.573003
_cell_angle_alpha 90.000000
_cell_angle_beta 90.000000
_cell_angle_gamma 90.000000
_cell_volume 4562.332160
_symmetry_space_group_name_H-M "P 42/N N M"
_symmetry_group_IT_number 134
_space_group.IT_coordinate_system_code '2'
_symmetry_cell_setting 'tetragonal'
loop_
_space_group_symop_operation_xyz
x,y,z
1/2-y,x,1/2+z
1/2-x,1/2-y,z
y,1/2-x,1/2+z
x,1/2-y,1/2-z
1/2-x,y,1/2-z
y,x,-z
1/2-y,1/2-x,-z
-x,-y,-z
1/2+y,-x,1/2-z
1/2+x,1/2+y,-z
-y,1/2+x,1/2-z
-x,1/2+y,1/2+z
1/2+x,-y,1/2+z
-y,-x,z
1/2+y,1/2+x,z
loop_
_atom_site_type_symbol
_atom_site_label
_atom_site_fract_x
_atom_site_fract_y
_atom_site_fract_z
Si Si1 0.413732 0.745208 0.015983
Si Si2 0.524820 0.312866 0.297751
Si Si3 0.355262 0.199437 0.801567
Si Si4 0.976830 0.642685 0.103119
Si Si5 0.978924 0.185039 0.412154
O O1 0.361603 0.638398 0.027930
O O2 0.331172 0.831172 0.013608
O O3 0.492848 0.773768 0.060853
O O4 0.473301 0.737291 0.960496
O O5 0.573513 0.250000 0.250000
O O6 0.583725 0.416276 0.304271
O O7 0.412864 0.337789 0.282530
O O8 0.524265 0.259057 0.355290
O O9 0.250000 0.250000 0.819250
O O10 0.400744 0.250000 0.750000
O O11 0.438988 0.204663 0.846610
O O12 0.883475 0.577750 0.081992
O O13 0.069966 0.569966 0.117336
O O14 0.881020 0.118981 0.417235
#
# Coordination Sequence:
#
# PCOD8317121 Si02
#       5
#    16  16  16  16  16
#     4   9  16  27  45  71 103 134 165 203 250 301
#     4  10  19  32  50  78 105 131 167 211 260 308
#     4  10  18  33  54  73  95 129 172 210 245 300
#     4   9  17  30  50  75  98 123 166 216 252 290
#     4   8  15  27  46  69  97 130 166 203 246 299
#
# _framework density 17.534891999999999
#
# number of rings (size 3 to 8) (size 9 to 14) (size 15 to 20)
#    0.000    2.800    2.000    2.400    0.000    3.400 
#    0.000    4.000    0.000    9.600    0.000    5.600 
#    0.000    0.000    0.000    0.000    0.000    0.000 
#
# Total GULP energy -991129.121970 kJ/mol
# GULP energy per Si atom -12389.114025 kJ/mol
# Density = 1.749498 g / cm^3
# Si number density = 17.534892 Si / 1000 Ang^3
#
#
#
# Elastic Constant Matrix: (Units=GPa)
#
#
# Indices 1 2 3 4 5 6 
#
# 1 57.7958 23.1711 54.8940 0.0000 0.0000 0.0000
# 2 23.1711 57.7958 54.8940 0.0000 0.0000 0.0000
# 3 54.8940 54.8940 175.5277 0.0000 0.0000 0.0000
# 4 0.0000 0.0000 0.0000 29.5711 0.0000 0.0000
# 5 0.0000 0.0000 0.0000 0.0000 29.5711 0.0000
# 6 0.0000 0.0000 0.0000 0.0000 0.0000 20.9831
#
#
#
# Elastic Compliance Matrix: (Units=1/GPa)
#
#
# Indices 1 2 3 4 5 6 
#
# 1 0.025163 -0.003718 -0.006706 0.000000 0.000000 0.000000
# 2 -0.003718 0.025163 -0.006706 0.000000 0.000000 0.000000
# 3 -0.006706 -0.006706 0.009892 0.000000 0.000000 0.000000
# 4 0.000000 0.000000 0.000000 0.033817 0.000000 0.000000
# 5 0.000000 0.000000 0.000000 0.000000 0.033817 0.000000
# 6 0.000000 0.000000 0.000000 0.000000 0.000000 0.047658
#
#
# Mechanical properties :
#
#
# Convention : Reuss Voigt Hill
#
# Bulk Modulus (GPa) = 38.52845 61.89307 50.21076
# Shear Modulus (GPa) = 22.89139 26.56906 24.73022
#
# Velocity S-wave (km/s) = 3.61706 3.89679 3.75953
# Velocity P-wave (km/s) = 6.28206 7.45791 6.89510
#
# Compressibility (1/GPa) = 0.02595485
#
# Stress axis : x y z
#
# Youngs Moduli (GPa) = 39.74118 39.74118 101.09341
#
# Poissons Ratio (x) = 0.14777 0.67798
# Poissons Ratio (y) = 0.14777 0.67798
# Poissons Ratio (z) = 0.26652 0.26652
#
# Static dielectric constant tensor:
#      x y z
#    x 3.117390 0.000000 0.000000 
#    y 0.000000 3.117390 0.000000 
#    z 0.000000 0.000000 3.685760 
# 
# 
# High freq. dielectric constant tensor:
#      x y z
#    x 1.646720 0.000000 0.000000 
#    y 0.000000 1.646720 0.000000 
#    z 0.000000 0.000000 1.694420 
# 
# From -- ./inp_files/9925.got.cif
#   From: 2010.03.12/outbox.cif.g09.slc.cpg/sg134_5_cif.got.tgz:9925.got - 2010.04.06 18:17:22.
