data_PCOD8317033
_publ_section_title
;
Structure prediction by ZEFSAII (Michael W. Deem and Ramdas Pophale) SiO2 
 PCOD8317033
Probable space group: P 42/N B C
;
_chemical_formula_sum "Si O2"
_cell_formula_units_Z 112
_cell_length_a 14.472995
_cell_length_b 14.472995
_cell_length_c 25.636231
_cell_angle_alpha 90.000000
_cell_angle_beta 90.000000
_cell_angle_gamma 90.000000
_cell_volume 5369.959377
_symmetry_space_group_name_H-M "P 42/N B C"
_symmetry_group_IT_number 133
_space_group.IT_coordinate_system_code '2'
_symmetry_cell_setting 'tetragonal'
loop_
_space_group_symop_operation_xyz
x,y,z
1/2-y,x,1/2+z
1/2-x,1/2-y,z
y,1/2-x,1/2+z
x,1/2-y,-z
1/2-x,y,-z
y,x,1/2-z
1/2-y,1/2-x,1/2-z
-x,-y,-z
1/2+y,-x,1/2-z
1/2+x,1/2+y,-z
-y,1/2+x,1/2-z
-x,1/2+y,z
1/2+x,-y,z
-y,-x,1/2+z
1/2+y,1/2+x,1/2+z
loop_
_atom_site_type_symbol
_atom_site_label
_atom_site_fract_x
_atom_site_fract_y
_atom_site_fract_z
Si Si1 0.410808 0.573787 0.358182
Si Si2 0.247107 0.466504 0.609728
Si Si3 0.803475 0.829032 0.054977
Si Si4 0.329976 0.321741 0.307489
Si Si5 0.838664 0.126261 0.748450
Si Si6 0.745507 0.510192 0.877595
Si Si7 0.433472 0.574599 0.146489
O O1 0.342505 0.531040 0.403287
O O2 0.359175 0.566007 0.302824
O O3 0.429301 0.681508 0.367782
O O4 0.507582 0.520816 0.356048
O O5 0.291682 0.409916 0.560137
O O6 0.206993 0.402827 0.655642
O O7 0.324658 0.535489 0.630014
O O8 0.750000 0.750000 0.089658
O O9 0.789354 0.931470 0.075144
O O10 0.750000 0.827107 0.000000
O O11 0.250000 0.250000 0.299491
O O12 0.358969 0.358969 0.250000
O O13 0.420852 0.270421 0.329411
O O14 0.730010 0.124511 0.759926
O O15 0.891122 0.077167 0.795901
O O16 0.647523 0.462788 0.892254
#
# Coordination Sequence:
#
# PCOD8317033 Si02
#       7
#    16  16  16  16  16  16  16
#     4  12  24  38  64  90 142 180 237 284 334 409
#     4  12  23  42  63 100 130 177 231 285 338 416
#     4  11  22  45  76  96 123 165 227 300 365 411
#     4  11  22  37  58  87 132 174 221 276 321 385
#     4  11  23  38  54  87 136 199 239 264 329 402
#     4  12  23  42  63  99 131 182 226 280 344 402
#     4  12  24  38  63  90 138 180 238 280 333 398
#
# _framework density 20.856770000000001
#
# number of rings (size 3 to 8) (size 9 to 14) (size 15 to 20)
#    0.000    0.429    8.571    0.429    4.000    0.571 
#    0.000    0.714    3.143    0.000    0.000    1.000 
#    0.000    0.000    0.000    0.000    0.000    0.000 
#
# Total GULP energy -1387536.297913 kJ/mol
# GULP energy per Si atom -12388.716946 kJ/mol
# Density = 2.080930 g / cm^3
# Si number density = 20.856770 Si / 1000 Ang^3
#
#
#
# Elastic Constant Matrix: (Units=GPa)
#
#
# Indices 1 2 3 4 5 6 
#
# 1 102.3261 35.7703 23.5916 0.0000 0.0000 0.0000
# 2 35.7703 102.3261 23.5916 0.0000 0.0000 0.0000
# 3 23.5916 23.5916 66.3921 0.0000 0.0000 0.0000
# 4 0.0000 0.0000 0.0000 29.3479 0.0000 0.0000
# 5 0.0000 0.0000 0.0000 0.0000 29.3479 0.0000
# 6 0.0000 0.0000 0.0000 0.0000 0.0000 59.9619
#
#
#
# Elastic Compliance Matrix: (Units=1/GPa)
#
#
# Indices 1 2 3 4 5 6 
#
# 1 0.011633 -0.003392 -0.002929 0.000000 0.000000 0.000000
# 2 -0.003392 0.011633 -0.002929 0.000000 0.000000 0.000000
# 3 -0.002929 -0.002929 0.017143 0.000000 0.000000 0.000000
# 4 0.000000 0.000000 0.000000 0.034074 0.000000 0.000000
# 5 0.000000 0.000000 0.000000 0.000000 0.034074 0.000000
# 6 0.000000 0.000000 0.000000 0.000000 0.000000 0.016677
#
#
# Mechanical properties :
#
#
# Convention : Reuss Voigt Hill
#
# Bulk Modulus (GPa) = 45.63590 48.55016 47.09303
# Shear Modulus (GPa) = 33.10438 36.27094 34.68766
#
# Velocity S-wave (km/s) = 3.98832 4.17471 4.08258
# Velocity P-wave (km/s) = 6.56788 6.82393 6.69713
#
# Compressibility (1/GPa) = 0.02191257
#
# Stress axis : x y z
#
# Youngs Moduli (GPa) = 85.95888 85.95888 58.33153
#
# Poissons Ratio (x) = 0.29153 0.17083
# Poissons Ratio (y) = 0.29153 0.17083
# Poissons Ratio (z) = 0.25175 0.25175
#
# Static dielectric constant tensor:
#      x y z
#    x 4.800220 0.000000 0.000000 
#    y 0.000000 4.800220 0.000000 
#    z 0.000000 0.000000 3.501200 
# 
# 
# High freq. dielectric constant tensor:
#      x y z
#    x 1.834170 0.000000 0.000000 
#    y 0.000000 1.834170 0.000000 
#    z 0.000000 0.000000 1.767050 
# 
# From -- ./inp_files/8074.got.cif
#   From: 2010.03.12/outbox.cif.g09.slc.cpg/sg133_5_cif.got.tgz:8074.got - 2010.04.06 18:08:06.
