data_PCOD8317884
_publ_section_title
;
Structure prediction by ZEFSAII (Michael W. Deem and Ramdas Pophale) SiO2 
 PCOD8317884
Probable space group: P 42/M N M
;
_chemical_formula_sum "Si O2"
_cell_formula_units_Z 112
_cell_length_a 14.294514
_cell_length_b 14.294514
_cell_length_c 27.117461
_cell_angle_alpha 90.000000
_cell_angle_beta 90.000000
_cell_angle_gamma 90.000000
_cell_volume 5540.995697
_symmetry_space_group_name_H-M "P 42/M N M"
_symmetry_group_IT_number 136
_symmetry_cell_setting 'tetragonal'
loop_
_space_group_symop_operation_xyz
x,y,z
1/2-y,1/2+x,1/2+z
-x,-y,z
1/2+y,1/2-x,1/2+z
1/2+x,1/2-y,1/2-z
1/2-x,1/2+y,1/2-z
y,x,-z
-y,-x,-z
-x,-y,-z
1/2+y,1/2-x,1/2-z
x,y,-z
1/2-y,1/2+x,1/2-z
1/2-x,1/2+y,1/2+z
1/2+x,1/2-y,1/2+z
-y,-x,z
y,x,z
loop_
_atom_site_type_symbol
_atom_site_label
_atom_site_fract_x
_atom_site_fract_y
_atom_site_fract_z
Si Si1 0.800443 0.564902 0.864480
Si Si2 0.301664 0.031537 0.123153
Si Si3 0.716387 0.437536 0.057127
Si Si4 0.427128 0.921686 0.804454
Si Si5 0.864531 0.280077 0.943171
Si Si6 0.765493 0.621656 0.238739
Si Si7 0.001855 0.147422 0.194430
O O1 0.878986 0.633104 0.888954
O O2 0.728425 0.528278 0.906817
O O3 0.841178 0.476141 0.835469
O O4 0.752129 0.623057 0.820585
O O5 0.202437 0.052286 0.149074
O O6 0.348018 0.960630 0.160918
O O7 0.286179 0.971700 0.073924
O O8 0.623415 0.376586 0.070167
O O9 0.809579 0.376954 0.065605
O O10 0.709868 0.470896 0.000000
O O11 0.375234 0.881256 0.755044
O O12 0.500000 0.000000 0.787683
O O13 0.804918 0.195083 0.917982
O O14 0.870183 0.258045 0.000000
O O15 0.717151 0.717151 0.258243
O O16 0.713979 0.531287 0.261217
O O17 0.080614 0.080614 0.217653
O O18 0.914607 0.085394 0.174152
#
# Coordination Sequence:
#
# PCOD8317884 Si02
#       7
#    16  16  16  16  16  16  16
#     4  11  22  33  52  82 112 151 188 235 292 347
#     4  10  19  32  50  79 113 144 183 230 288 345
#     4   9  19  36  56  80 110 145 190 242 297 356
#     4   9  20  33  52  76 111 152 186 225 278 343
#     4   9  17  31  52  78 109 144 183 231 286 346
#     4  10  23  38  54  80 113 149 191 237 282 341
#     4   9  19  37  58  78 106 149 194 233 277 337
#
# _framework density 20.212973999999999
#
# number of rings (size 3 to 8) (size 9 to 14) (size 15 to 20)
#    0.000    2.429    1.429    1.286    6.000    2.857 
#    0.000    1.429    0.000    0.857    0.000    5.000 
#    0.000    0.000    0.000    0.000    0.000    0.000 
#
# Total GULP energy -1387551.916691 kJ/mol
# GULP energy per Si atom -12388.856399 kJ/mol
# Density = 2.016697 g / cm^3
# Si number density = 20.212974 Si / 1000 Ang^3
#
#
#
# Elastic Constant Matrix: (Units=GPa)
#
#
# Indices 1 2 3 4 5 6 
#
# 1 75.9276 41.0771 29.2714 0.0000 0.0000 0.0000
# 2 41.0771 75.9276 29.2714 0.0000 0.0000 0.0000
# 3 29.2714 29.2714 77.6832 0.0000 0.0000 0.0000
# 4 0.0000 0.0000 0.0000 48.5542 0.0000 0.0000
# 5 0.0000 0.0000 0.0000 0.0000 48.5542 0.0000
# 6 0.0000 0.0000 0.0000 0.0000 0.0000 27.0818
#
#
#
# Elastic Compliance Matrix: (Units=1/GPa)
#
#
# Indices 1 2 3 4 5 6 
#
# 1 0.019613 -0.009081 -0.003969 0.000000 0.000000 0.000000
# 2 -0.009081 0.019613 -0.003969 0.000000 0.000000 0.000000
# 3 -0.003969 -0.003969 0.015864 0.000000 0.000000 0.000000
# 4 0.000000 0.000000 0.000000 0.020596 0.000000 0.000000
# 5 0.000000 0.000000 0.000000 0.000000 0.020596 0.000000
# 6 0.000000 0.000000 0.000000 0.000000 0.000000 0.036925
#
#
# Mechanical properties :
#
#
# Convention : Reuss Voigt Hill
#
# Bulk Modulus (GPa) = 47.49745 47.64199 47.56972
# Shear Modulus (GPa) = 28.69270 33.49927 31.09599
#
# Velocity S-wave (km/s) = 3.77174 4.07543 3.92652
# Velocity P-wave (km/s) = 6.52055 6.76511 6.64395
#
# Compressibility (1/GPa) = 0.02105376
#
# Stress axis : x y z
#
# Youngs Moduli (GPa) = 50.98610 50.98610 63.03737
#
# Poissons Ratio (x) = 0.46300 0.25017
# Poissons Ratio (y) = 0.46300 0.25017
# Poissons Ratio (z) = 0.20235 0.20235
#
# Static dielectric constant tensor:
#      x y z
#    x 3.547610 0.000000 0.000000 
#    y 0.000000 3.547610 0.000000 
#    z 0.000000 0.000000 3.553080 
# 
# 
# High freq. dielectric constant tensor:
#      x y z
#    x 1.779650 0.000000 0.000000 
#    y 0.000000 1.779650 0.000000 
#    z 0.000000 0.000000 1.773400 
# 
# From -- ./inp_files/9200.got.cif
#   From: 2010.03.12/outbox.cif.g09.slc.cpg/sg136_5_cif.got.tgz:9200.got - 2010.04.06 18:39:43.
