data_PCOD8317237
_publ_section_title
;
Structure prediction by ZEFSAII (Michael W. Deem and Ramdas Pophale) SiO2 
 PCOD8317237
Probable space group: P 42/N N M
;
_chemical_formula_sum "Si O2"
_cell_formula_units_Z 80
_cell_length_a 14.230656
_cell_length_b 14.230656
_cell_length_c 19.959367
_cell_angle_alpha 90.000000
_cell_angle_beta 90.000000
_cell_angle_gamma 90.000000
_cell_volume 4042.002751
_symmetry_space_group_name_H-M "P 42/N N M"
_symmetry_group_IT_number 134
_space_group.IT_coordinate_system_code '2'
_symmetry_cell_setting 'tetragonal'
loop_
_space_group_symop_operation_xyz
x,y,z
1/2-y,x,1/2+z
1/2-x,1/2-y,z
y,1/2-x,1/2+z
x,1/2-y,1/2-z
1/2-x,y,1/2-z
y,x,-z
1/2-y,1/2-x,-z
-x,-y,-z
1/2+y,-x,1/2-z
1/2+x,1/2+y,-z
-y,1/2+x,1/2-z
-x,1/2+y,1/2+z
1/2+x,-y,1/2+z
-y,-x,z
1/2+y,1/2+x,z
loop_
_atom_site_type_symbol
_atom_site_label
_atom_site_fract_x
_atom_site_fract_y
_atom_site_fract_z
Si Si1 0.976011 0.872897 0.559946
Si Si2 0.841632 0.809485 0.346273
Si Si3 0.672504 0.473404 0.036058
Si Si4 0.497309 0.648634 0.245414
Si Si5 0.063386 0.137278 0.900808
O O1 0.914635 0.914635 0.500000
O O2 0.908143 0.828387 0.616263
O O3 0.039042 0.784898 0.536006
O O4 0.046170 0.953831 0.588024
O O5 0.750000 0.750000 0.323130
O O6 0.902697 0.837227 0.281482
O O7 0.893815 0.741673 0.398643
O O8 0.622246 0.377755 0.061563
O O9 0.642880 0.559697 0.084244
O O10 0.636435 0.488925 0.960455
O O11 0.444924 0.750000 0.250000
O O12 0.429731 0.570270 0.279663
O O13 0.514559 0.615042 0.169723
#
# Coordination Sequence:
#
# PCOD8317237 Si02
#       5
#    16  16  16  16  16
#     4  11  23  39  59  85 122 161 197 246 305 358
#     4  11  21  38  63  88 115 155 204 250 302 354
#     4  11  21  36  60  87 118 158 201 245 301 358
#     4  10  22  38  58  87 123 157 196 245 298 361
#     4  10  20  36  61  86 117 153 198 246 296 350
#
# _framework density 19.792168
#
# number of rings (size 3 to 8) (size 9 to 14) (size 15 to 20)
#    0.000    1.400    4.000    3.000    0.000    4.600 
#    0.000    0.000    0.000    2.400    0.000    0.000 
#    0.000    4.800    0.000    0.000    0.000    0.400 
#
# Total GULP energy -991203.793695 kJ/mol
# GULP energy per Si atom -12390.047421 kJ/mol
# Density = 1.974712 g / cm^3
# Si number density = 19.792168 Si / 1000 Ang^3
#
#
#
# Elastic Constant Matrix: (Units=GPa)
#
#
# Indices 1 2 3 4 5 6 
#
# 1 103.6287 83.9385 40.0332 0.0000 0.0000 0.0000
# 2 83.9385 103.6287 40.0332 0.0000 0.0000 0.0000
# 3 40.0332 40.0332 87.9042 0.0000 0.0000 0.0000
# 4 0.0000 0.0000 0.0000 14.5583 0.0000 0.0000
# 5 0.0000 0.0000 0.0000 0.0000 14.5583 0.0000
# 6 0.0000 0.0000 0.0000 0.0000 0.0000 39.9116
#
#
#
# Elastic Compliance Matrix: (Units=1/GPa)
#
#
# Indices 1 2 3 4 5 6 
#
# 1 0.028702 -0.022084 -0.003014 0.000000 0.000000 0.000000
# 2 -0.022084 0.028702 -0.003014 0.000000 0.000000 0.000000
# 3 -0.003014 -0.003014 0.014121 0.000000 0.000000 0.000000
# 4 0.000000 0.000000 0.000000 0.068689 0.000000 0.000000
# 5 0.000000 0.000000 0.000000 0.000000 0.068689 0.000000
# 6 0.000000 0.000000 0.000000 0.000000 0.000000 0.025055
#
#
# Mechanical properties :
#
#
# Convention : Reuss Voigt Hill
#
# Bulk Modulus (GPa) = 65.35354 69.24130 67.29742
# Shear Modulus (GPa) = 16.93277 22.54940 19.74109
#
# Velocity S-wave (km/s) = 2.92812 3.37903 3.16162
# Velocity P-wave (km/s) = 6.67259 7.09111 6.88503
#
# Compressibility (1/GPa) = 0.01530139
#
# Stress axis : x y z
#
# Youngs Moduli (GPa) = 34.84034 34.84034 70.81527
#
# Poissons Ratio (x) = 0.76943 0.21343
# Poissons Ratio (y) = 0.76943 0.21343
# Poissons Ratio (z) = 0.10501 0.10501
#
# Static dielectric constant tensor:
#      x y z
#    x 3.663110 0.000000 0.000000 
#    y 0.000000 3.663110 0.000000 
#    z 0.000000 0.000000 3.416980 
# 
# 
# High freq. dielectric constant tensor:
#      x y z
#    x 1.768990 0.000000 0.000000 
#    y 0.000000 1.768990 0.000000 
#    z 0.000000 0.000000 1.760120 
# 
# From -- ./inp_files/8869.got.cif
#   From: 2010.03.12/outbox.cif.g09.slc.cpg/sg134_5_cif.got.tgz:8869.got - 2010.04.06 18:17:22.
