data_PCOD8317419
_publ_section_title
;
Structure prediction by ZEFSAII (Michael W. Deem and Ramdas Pophale) SiO2 
 PCOD8317419
Probable space group: P 42/M B C
;
_chemical_formula_sum "Si O2"
_cell_formula_units_Z 96
_cell_length_a 25.153884
_cell_length_b 25.153884
_cell_length_c 9.085021
_cell_angle_alpha 90.000000
_cell_angle_beta 90.000000
_cell_angle_gamma 90.000000
_cell_volume 5748.255229
_symmetry_space_group_name_H-M "P 42/M B C"
_symmetry_group_IT_number 135
_symmetry_cell_setting 'tetragonal'
loop_
_space_group_symop_operation_xyz
x,y,z
-y,x,1/2+z
-x,-y,z
y,-x,1/2+z
1/2+x,1/2-y,-z
1/2-x,1/2+y,-z
1/2+y,1/2+x,1/2-z
1/2-y,1/2-x,1/2-z
-x,-y,-z
y,-x,1/2-z
x,y,-z
-y,x,1/2-z
1/2-x,1/2+y,z
1/2+x,1/2-y,z
1/2-y,1/2-x,1/2+z
1/2+y,1/2+x,1/2+z
loop_
_atom_site_type_symbol
_atom_site_label
_atom_site_fract_x
_atom_site_fract_y
_atom_site_fract_z
Si Si1 0.057464 0.362654 0.673612
Si Si2 0.358102 0.436465 0.329429
Si Si3 0.060584 0.865195 0.166213
Si Si4 0.555757 0.865581 0.830288
Si Si5 0.750857 0.952952 0.665126
Si Si6 0.441641 0.744347 0.331622
O O1 0.097410 0.402590 0.750000
O O2 0.051405 0.374720 0.500000
O O3 0.081651 0.303326 0.698891
O O4 0.000793 0.370096 0.751116
O O5 0.354065 0.426031 0.500000
O O6 0.365989 0.498368 0.290605
O O7 0.408547 0.404424 0.271982
O O8 0.302976 0.413976 0.260374
O O9 0.082622 0.804236 0.184256
O O10 0.068611 0.885427 0.000000
O O11 0.597436 0.902565 0.750000
O O12 0.578518 0.804852 0.820089
O O13 0.549526 0.883245 0.000000
O O14 0.753706 0.979326 0.500000
O O15 0.751959 0.996687 0.791207
O O16 0.435575 0.728073 0.500000
#
# Coordination Sequence:
#
# PCOD8317419 Si02
#       6
#    16  16  16  16  16  16
#     4  10  20  33  50  73  98 126 159 194 236 283
#     4  10  20  32  48  71  97 126 159 194 235 281
#     4   9  18  32  48  68  95 125 158 195 236 281
#     4  10  19  32  50  72  99 128 159 196 237 282
#     4   8  16  31  49  68  92 124 159 195 234 277
#     4   9  17  30  49  70  92 121 158 196 232 276
#
# _framework density 16.70072
#
# number of rings (size 3 to 8) (size 9 to 14) (size 15 to 20)
#    0.000    2.667    0.000    3.000    0.000    6.667 
#    0.000    3.333    0.000    1.000    0.000    2.333 
#    0.000    0.000    0.000    0.000    0.000    0.000 
#
# Total GULP energy -1189485.372169 kJ/mol
# GULP energy per Si atom -12390.472627 kJ/mol
# Density = 1.666271 g / cm^3
# Si number density = 16.700720 Si / 1000 Ang^3
#
#
#
# Elastic Constant Matrix: (Units=GPa)
#
#
# Indices 1 2 3 4 5 6 
#
# 1 92.3771 60.0043 62.9444 0.0000 0.0000 0.0000
# 2 60.0043 92.3769 62.9430 0.0000 0.0000 0.0000
# 3 62.9444 62.9430 113.9216 0.0000 0.0000 0.0000
# 4 0.0000 0.0000 0.0000 27.2694 0.0000 0.0000
# 5 0.0000 0.0000 0.0000 0.0000 27.2697 0.0000
# 6 0.0000 0.0000 0.0000 0.0000 0.0000 -4.6092
#
#
#
# Elastic Compliance Matrix: (Units=1/GPa)
#
#
# Indices 1 2 3 4 5 6 
#
# 1 0.021482 -0.009408 -0.006671 0.000000 0.000000 0.000000
# 2 -0.009408 0.021482 -0.006670 0.000000 0.000000 0.000000
# 3 -0.006671 -0.006670 0.016149 0.000000 0.000000 0.000000
# 4 0.000000 0.000000 0.000000 0.036671 0.000000 0.000000
# 5 0.000000 0.000000 0.000000 0.000000 0.036671 0.000000
# 6 0.000000 0.000000 0.000000 0.000000 0.000000 -0.216959
#
#
# Mechanical properties :
#
#
# Convention : Reuss Voigt Hill
#
# Bulk Modulus (GPa) = 73.45833 74.49543 73.97688
# Shear Modulus (GPa) = -145.06770 17.50491 -63.78139
#
# Velocity S-wave (km/s) = -9.33015 3.24103 -6.18658
# Velocity P-wave (km/s) = 8.48459 7.66216 2.57679
#
# Compressibility (1/GPa) = 0.01361316
#
# Stress axis : x y z
#
# Youngs Moduli (GPa) = 46.55037 46.55151 61.92171
#
# Poissons Ratio (x) = 0.43797 0.41309
# Poissons Ratio (y) = 0.43796 0.41305
# Poissons Ratio (z) = 0.31054 0.31052
#
# Static dielectric constant tensor:
#      x y z
#    x 3.133830 0.000000 0.000000 
#    y 0.000000 3.133840 0.000000 
#    z 0.000000 0.000000 3.279220 
# 
# 
# High freq. dielectric constant tensor:
#      x y z
#    x 1.625350 0.000000 0.000000 
#    y 0.000000 1.625350 0.000000 
#    z 0.000000 0.000000 1.661210 
# 
# From -- ./inp_files/1209.got.cif
#   From: 2010.03.12/outbox.cif.g09.slc.cpg/sg135_1_cif.got.tgz:1209.got - 2010.04.06 18:31:24.
