data_PCOD8317624
_publ_section_title
;
Structure prediction by ZEFSAII (Michael W. Deem and Ramdas Pophale) SiO2 
 PCOD8317624
Probable space group: P 42/M B C
;
_chemical_formula_sum "Si O2"
_cell_formula_units_Z 84
_cell_length_a 22.254481
_cell_length_b 22.254481
_cell_length_c 9.380226
_cell_angle_alpha 90.000000
_cell_angle_beta 90.000000
_cell_angle_gamma 90.000000
_cell_volume 4645.668782
_symmetry_space_group_name_H-M "P 42/M B C"
_symmetry_group_IT_number 135
_symmetry_cell_setting 'tetragonal'
loop_
_space_group_symop_operation_xyz
x,y,z
-y,x,1/2+z
-x,-y,z
y,-x,1/2+z
1/2+x,1/2-y,-z
1/2-x,1/2+y,-z
1/2+y,1/2+x,1/2-z
1/2-y,1/2-x,1/2-z
-x,-y,-z
y,-x,1/2-z
x,y,-z
-y,x,1/2-z
1/2-x,1/2+y,z
1/2+x,1/2-y,z
1/2-y,1/2-x,1/2+z
1/2+y,1/2+x,1/2+z
loop_
_atom_site_type_symbol
_atom_site_label
_atom_site_fract_x
_atom_site_fract_y
_atom_site_fract_z
Si Si1 0.634868 0.217960 0.170534
Si Si2 0.994739 0.755829 0.169384
Si Si3 0.671604 0.676022 0.162402
Si Si4 0.624967 0.450053 0.661419
Si Si5 0.195414 0.613471 0.660447
Si Si6 0.500000 0.500000 0.750000
O O1 0.658244 0.158244 0.250000
O O2 0.567334 0.229034 0.226005
O O3 0.672778 0.274346 0.226295
O O4 0.641208 0.211878 0.000000
O O5 0.005779 0.824350 0.230141
O O6 0.047540 0.711594 0.222025
O O7 0.992622 0.758177 0.000000
O O8 0.617650 0.632453 0.223019
O O9 0.652784 0.744899 0.166477
O O10 0.690781 0.658219 0.000000
O O11 0.645471 0.441883 0.500000
O O12 0.557513 0.476665 0.662623
O O13 0.141798 0.641798 0.750000
O O14 0.171410 0.608353 0.500000
#
# Coordination Sequence:
#
# PCOD8317624 Si02
#       6
#    16  16  16  16  16   4
#     4  11  21  33  51  73  98 128 162 197 236 286
#     4   8  17  34  50  65  93 131 161 190 239 295
#     4   9  18  33  50  70  99 131 163 202 245 282
#     4   9  18  31  46  66  95 131 169 207 243 281
#     4   9  17  31  52  74  95 121 155 196 242 289
#     4  12  18  24  44  70  96 132 178 212 240 278
#
# _framework density 18.081358999999999
#
# number of rings (size 3 to 8) (size 9 to 14) (size 15 to 20)
#    0.000    2.667    0.000    4.857    0.000    2.286 
#    0.000    2.857    0.000    5.143    0.000    4.000 
#    0.000    0.000    0.000    0.000    0.000    0.000 
#
# Total GULP energy -1040674.135968 kJ/mol
# GULP energy per Si atom -12388.977809 kJ/mol
# Density = 1.804020 g / cm^3
# Si number density = 18.081359 Si / 1000 Ang^3
#
#
#
# Elastic Constant Matrix: (Units=GPa)
#
#
# Indices 1 2 3 4 5 6 
#
# 1 81.3610 38.6005 21.2994 0.0000 0.0000 0.0000
# 2 38.6005 81.3610 21.2994 0.0000 0.0000 0.0000
# 3 21.2994 21.2994 51.6952 0.0000 0.0000 0.0000
# 4 0.0000 0.0000 0.0000 21.6112 0.0000 0.0000
# 5 0.0000 0.0000 0.0000 0.0000 21.6112 0.0000
# 6 0.0000 0.0000 0.0000 0.0000 0.0000 30.8207
#
#
#
# Elastic Compliance Matrix: (Units=1/GPa)
#
#
# Indices 1 2 3 4 5 6 
#
# 1 0.016575 -0.006811 -0.004023 0.000000 0.000000 0.000000
# 2 -0.006811 0.016575 -0.004023 0.000000 0.000000 0.000000
# 3 -0.004023 -0.004023 0.022659 0.000000 0.000000 0.000000
# 4 0.000000 0.000000 0.000000 0.046272 0.000000 0.000000
# 5 0.000000 0.000000 0.000000 0.000000 0.046272 0.000000
# 6 0.000000 0.000000 0.000000 0.000000 0.000000 0.032446
#
#
# Mechanical properties :
#
#
# Convention : Reuss Voigt Hill
#
# Bulk Modulus (GPa) = 38.32021 41.86840 40.09431
# Shear Modulus (GPa) = 22.80880 23.68979 23.24929
#
# Velocity S-wave (km/s) = 3.55555 3.62356 3.58972
# Velocity P-wave (km/s) = 6.17212 6.38066 6.27726
#
# Compressibility (1/GPa) = 0.02609589
#
# Stress axis : x y z
#
# Youngs Moduli (GPa) = 60.33045 60.33045 44.13168
#
# Poissons Ratio (x) = 0.41089 0.17755
# Poissons Ratio (y) = 0.41089 0.17755
# Poissons Ratio (z) = 0.24272 0.24272
#
# Static dielectric constant tensor:
#      x y z
#    x 3.455010 0.000000 0.000000 
#    y 0.000000 3.455010 0.000000 
#    z 0.000000 0.000000 3.052620 
# 
# 
# High freq. dielectric constant tensor:
#      x y z
#    x 1.696740 0.000000 0.000000 
#    y 0.000000 1.696740 0.000000 
#    z 0.000000 0.000000 1.668550 
# 
# From -- ./inp_files/2497.got.cif
#   From: 2010.03.12/outbox.cif.g09.slc.cpg/sg135_2_cif.got.tgz:2497.got - 2010.04.06 18:31:24.
