data_PCOD8317264
_publ_section_title
;
Structure prediction by ZEFSAII (Michael W. Deem and Ramdas Pophale) SiO2 
 PCOD8317264
Probable space group: P 42/N N M
;
_chemical_formula_sum "Si O2"
_cell_formula_units_Z 112
_cell_length_a 15.068836
_cell_length_b 15.068836
_cell_length_c 23.951621
_cell_angle_alpha 90.000000
_cell_angle_beta 90.000000
_cell_angle_gamma 90.000000
_cell_volume 5438.690231
_symmetry_space_group_name_H-M "P 42/N N M"
_symmetry_group_IT_number 134
_space_group.IT_coordinate_system_code '2'
_symmetry_cell_setting 'tetragonal'
loop_
_space_group_symop_operation_xyz
x,y,z
1/2-y,x,1/2+z
1/2-x,1/2-y,z
y,1/2-x,1/2+z
x,1/2-y,1/2-z
1/2-x,y,1/2-z
y,x,-z
1/2-y,1/2-x,-z
-x,-y,-z
1/2+y,-x,1/2-z
1/2+x,1/2+y,-z
-y,1/2+x,1/2-z
-x,1/2+y,1/2+z
1/2+x,-y,1/2+z
-y,-x,z
1/2+y,1/2+x,z
loop_
_atom_site_type_symbol
_atom_site_label
_atom_site_fract_x
_atom_site_fract_y
_atom_site_fract_z
Si Si1 0.474406 0.671285 0.284611
Si Si2 0.780582 0.986988 0.890064
Si Si3 0.481260 0.664950 0.589531
Si Si4 0.563483 0.289474 0.189458
Si Si5 0.568918 0.576655 0.194398
Si Si6 0.173364 0.186490 0.565216
Si Si7 0.751640 0.109490 0.988033
O O1 0.426014 0.750000 0.250000
O O2 0.408978 0.591023 0.292470
O O3 0.501363 0.703595 0.344889
O O4 0.561202 0.641910 0.248171
O O5 0.873618 0.959850 0.862222
O O6 0.745482 0.912564 0.930129
O O7 0.791875 0.070695 0.930608
O O8 0.432455 0.567546 0.584886
O O9 0.439910 0.711110 0.644251
O O10 0.588809 0.660625 0.593532
O O11 0.461318 0.724891 0.535202
O O12 0.585220 0.250000 0.250000
O O13 0.640373 0.359628 0.173054
O O14 0.465217 0.333659 0.189415
O O15 0.502737 0.497263 0.205777
O O16 0.250000 0.250000 0.592097
O O17 0.181544 0.181544 0.500000
O O18 0.827215 0.172786 0.014245
O O19 0.665177 0.165177 0.970837
#
# Coordination Sequence:
#
# PCOD8317264 Si02
#       7
#    16  16  16  16  16  16  16
#     4   9  19  34  56  85 121 161 201 253 306 364
#     4  11  20  37  61  87 120 162 207 247 303 367
#     4  11  24  42  64  92 125 162 203 256 314 368
#     4  11  24  42  65  91 119 158 204 256 312 370
#     4   9  20  39  59  85 121 158 202 251 303 362
#     4  11  24  42  63  90 126 164 206 254 303 366
#     4  10  21  37  59  90 125 160 202 254 311 372
#
# _framework density 20.593194
#
# number of rings (size 3 to 8) (size 9 to 14) (size 15 to 20)
#    0.000    1.714    1.429    2.571    2.000    3.714 
#    0.000    0.000    0.000    3.429    0.000    0.000 
#    0.000    0.000    0.000    0.000    0.000    0.000 
#
# Total GULP energy -1388004.014844 kJ/mol
# GULP energy per Si atom -12392.892990 kJ/mol
# Density = 2.054632 g / cm^3
# Si number density = 20.593194 Si / 1000 Ang^3
#
#
#
# Elastic Constant Matrix: (Units=GPa)
#
#
# Indices 1 2 3 4 5 6 
#
# 1 79.3982 22.1092 9.0670 0.0000 0.0000 0.0000
# 2 22.1092 79.3982 9.0670 0.0000 0.0000 0.0000
# 3 9.0670 9.0670 80.8076 0.0000 0.0000 0.0000
# 4 0.0000 0.0000 0.0000 111.8574 0.0000 0.0000
# 5 0.0000 0.0000 0.0000 0.0000 111.8574 0.0000
# 6 0.0000 0.0000 0.0000 0.0000 0.0000 26.6231
#
#
#
# Elastic Compliance Matrix: (Units=1/GPa)
#
#
# Indices 1 2 3 4 5 6 
#
# 1 0.013754 -0.003701 -0.001128 0.000000 0.000000 0.000000
# 2 -0.003701 0.013754 -0.001128 0.000000 0.000000 0.000000
# 3 -0.001128 -0.001128 0.012628 0.000000 0.000000 0.000000
# 4 0.000000 0.000000 0.000000 0.008940 0.000000 0.000000
# 5 0.000000 0.000000 0.000000 0.000000 0.008940 0.000000
# 6 0.000000 0.000000 0.000000 0.000000 0.000000 0.037561
#
#
# Mechanical properties :
#
#
# Convention : Reuss Voigt Hill
#
# Bulk Modulus (GPa) = 35.43304 35.56560 35.49932
# Shear Modulus (GPa) = 42.77175 63.35830 53.06503
#
# Velocity S-wave (km/s) = 4.56234 5.55278 5.08175
# Velocity P-wave (km/s) = 6.70797 7.64325 7.19083
#
# Compressibility (1/GPa) = 0.02822224
#
# Stress axis : x y z
#
# Youngs Moduli (GPa) = 72.70513 72.70513 79.18783
#
# Poissons Ratio (x) = 0.26909 0.08932
# Poissons Ratio (y) = 0.26909 0.08932
# Poissons Ratio (z) = 0.08201 0.08201
#
# Static dielectric constant tensor:
#      x y z
#    x 4.154480 0.000000 0.000000 
#    y 0.000000 4.154480 0.000000 
#    z 0.000000 0.000000 3.661250 
# 
# 
# High freq. dielectric constant tensor:
#      x y z
#    x 1.804630 0.000000 0.000000 
#    y 0.000000 1.804630 0.000000 
#    z 0.000000 0.000000 1.809170 
# 
# From -- ./inp_files/10103.got.cif
#   From: 2010.03.12/outbox.cif.g09.slc.cpg/sg134_6_cif.got.tgz:10103.got - 2010.04.06 18:17:22.
