data_PCOD8317181
_publ_section_title
;
Structure prediction by ZEFSAII (Michael W. Deem and Ramdas Pophale) SiO2 
 PCOD8317181
Probable space group: P 42/N N M
;
_chemical_formula_sum "Si O2"
_cell_formula_units_Z 68
_cell_length_a 16.896510
_cell_length_b 16.896510
_cell_length_c 12.570446
_cell_angle_alpha 90.000000
_cell_angle_beta 90.000000
_cell_angle_gamma 90.000000
_cell_volume 3588.762400
_symmetry_space_group_name_H-M "P 42/N N M"
_symmetry_group_IT_number 134
_space_group.IT_coordinate_system_code '2'
_symmetry_cell_setting 'tetragonal'
loop_
_space_group_symop_operation_xyz
x,y,z
1/2-y,x,1/2+z
1/2-x,1/2-y,z
y,1/2-x,1/2+z
x,1/2-y,1/2-z
1/2-x,y,1/2-z
y,x,-z
1/2-y,1/2-x,-z
-x,-y,-z
1/2+y,-x,1/2-z
1/2+x,1/2+y,-z
-y,1/2+x,1/2-z
-x,1/2+y,1/2+z
1/2+x,-y,1/2+z
-y,-x,z
1/2+y,1/2+x,z
loop_
_atom_site_type_symbol
_atom_site_label
_atom_site_fract_x
_atom_site_fract_y
_atom_site_fract_z
Si Si1 0.833473 0.464244 0.687542
Si Si2 0.191305 0.120571 0.599091
Si Si3 0.750000 0.750000 0.250000
Si Si4 0.533998 0.843234 0.532531
Si Si5 0.411766 0.464488 0.753142
O O1 0.750000 0.458282 0.750000
O O2 0.885017 0.385017 0.709238
O O3 0.817580 0.471936 0.559538
O O4 0.881353 0.542802 0.723153
O O5 0.134963 0.134963 0.500000
O O6 0.194604 0.196883 0.675230
O O7 0.276799 0.099361 0.554327
O O8 0.155003 0.048183 0.664710
O O9 0.576267 0.923734 0.500000
O O10 0.495637 0.867416 0.645518
O O11 0.473596 0.526405 0.705691
#
# Coordination Sequence:
#
# PCOD8317181 Si02
#       5
#    16  16   4  16  16
#     4  10  21  36  58  81 107 144 190 242 290 337
#     4  12  23  33  55  84 117 153 188 235 289 350
#     4  12  22  36  52  86 120 156 190 228 306 356
#     4  10  19  36  56  81 111 150 188 227 284 349
#     4  10  21  37  55  79 112 151 191 231 280 346
#
# _framework density 18.948035000000001
#
# number of rings (size 3 to 8) (size 9 to 14) (size 15 to 20)
#    0.000    1.412    2.353    3.882    4.941    3.529 
#    0.000    1.176    0.000    0.000    0.000    0.000 
#    0.000    1.882    0.000    0.000    0.000    0.000 
#
# Total GULP energy -842853.710908 kJ/mol
# GULP energy per Si atom -12394.907513 kJ/mol
# Density = 1.890491 g / cm^3
# Si number density = 18.948035 Si / 1000 Ang^3
#
#
#
# Elastic Constant Matrix: (Units=GPa)
#
#
# Indices 1 2 3 4 5 6 
#
# 1 56.0517 27.5297 34.9726 0.0000 0.0000 0.0000
# 2 27.5297 56.0525 34.9732 0.0000 0.0000 0.0000
# 3 34.9726 34.9732 126.0024 0.0000 0.0000 0.0000
# 4 0.0000 0.0000 0.0000 3.7556 0.0000 0.0000
# 5 0.0000 0.0000 0.0000 0.0000 3.7546 0.0000
# 6 0.0000 0.0000 0.0000 0.0000 0.0000 28.1937
#
#
#
# Elastic Compliance Matrix: (Units=1/GPa)
#
#
# Indices 1 2 3 4 5 6 
#
# 1 0.025322 -0.009738 -0.004325 0.000000 0.000000 0.000000
# 2 -0.009738 0.025322 -0.004326 0.000000 0.000000 0.000000
# 3 -0.004325 -0.004326 0.010337 0.000000 0.000000 0.000000
# 4 0.000000 0.000000 0.000000 0.266271 0.000000 0.000000
# 5 0.000000 0.000000 0.000000 0.000000 0.266342 0.000000
# 6 0.000000 0.000000 0.000000 0.000000 0.000000 0.035469
#
#
# Mechanical properties :
#
#
# Convention : Reuss Voigt Hill
#
# Bulk Modulus (GPa) = 41.31583 48.11751 44.71667
# Shear Modulus (GPa) = 7.41939 16.51618 11.96778
#
# Velocity S-wave (km/s) = 1.98095 2.95559 2.51591
# Velocity P-wave (km/s) = 5.20426 6.09072 5.66486
#
# Compressibility (1/GPa) = 0.02420380
#
# Stress axis : x y z
#
# Youngs Moduli (GPa) = 39.49087 39.49135 96.73523
#
# Poissons Ratio (x) = 0.38457 0.41842
# Poissons Ratio (y) = 0.38456 0.41843
# Poissons Ratio (z) = 0.17082 0.17082
#
# Static dielectric constant tensor:
#      x y z
#    x 3.332460 0.000000 0.000000 
#    y 0.000000 3.332470 0.000000 
#    z 0.000000 0.000000 3.828960 
# 
# 
# High freq. dielectric constant tensor:
#      x y z
#    x 1.712540 0.000000 0.000000 
#    y 0.000000 1.712540 0.000000 
#    z 0.000000 0.000000 1.752660 
# 
# From -- ./inp_files/4701.got.cif
#   From: 2010.03.12/outbox.cif.g09.slc.cpg/sg134_3_cif.got.tgz:4701.got - 2010.04.06 18:17:22.
