data_PCOD8317609
_publ_section_title
;
Structure prediction by ZEFSAII (Michael W. Deem and Ramdas Pophale) SiO2 
 PCOD8317609
Probable space group: P 42/M B C
;
_chemical_formula_sum "Si O2"
_cell_formula_units_Z 96
_cell_length_a 14.276790
_cell_length_b 14.276790
_cell_length_c 22.922153
_cell_angle_alpha 90.000000
_cell_angle_beta 90.000000
_cell_angle_gamma 90.000000
_cell_volume 4672.147553
_symmetry_space_group_name_H-M "P 42/M B C"
_symmetry_group_IT_number 135
_symmetry_cell_setting 'tetragonal'
loop_
_space_group_symop_operation_xyz
x,y,z
-y,x,1/2+z
-x,-y,z
y,-x,1/2+z
1/2+x,1/2-y,-z
1/2-x,1/2+y,-z
1/2+y,1/2+x,1/2-z
1/2-y,1/2-x,1/2-z
-x,-y,-z
y,-x,1/2-z
x,y,-z
-y,x,1/2-z
1/2-x,1/2+y,z
1/2+x,1/2-y,z
1/2-y,1/2-x,1/2+z
1/2+y,1/2+x,1/2+z
loop_
_atom_site_type_symbol
_atom_site_label
_atom_site_fract_x
_atom_site_fract_y
_atom_site_fract_z
Si Si1 0.337456 0.242008 0.431076
Si Si2 0.487358 0.757379 0.352247
Si Si3 0.719722 0.927528 0.733110
Si Si4 0.901561 0.547319 0.650662
Si Si5 0.768269 0.055276 0.432318
Si Si6 0.120783 0.828352 0.878635
O O1 0.354313 0.232090 0.500000
O O2 0.432130 0.212277 0.397796
O O3 0.312102 0.347098 0.411824
O O4 0.252435 0.177393 0.411591
O O5 0.531634 0.728881 0.290174
O O6 0.416893 0.842821 0.340182
O O7 0.427516 0.673062 0.379476
O O8 0.667649 0.832352 0.750000
O O9 0.800449 0.901971 0.687662
O O10 0.643524 0.001392 0.708419
O O11 0.830692 0.531666 0.597469
O O12 0.000000 0.500000 0.635249
O O13 0.747327 0.056076 0.500000
O O14 0.842807 0.975522 0.414253
#
# Coordination Sequence:
#
# PCOD8317609 Si02
#       6
#    16  16  16  16  16  16
#     4  11  24  43  66  95 131 175 223 270 329 395
#     4  12  24  40  66  97 130 171 221 272 324 396
#     4  11  22  39  64  95 130 167 210 266 337 392
#     4  11  21  37  65 100 126 164 213 269 333 390
#     4  10  23  43  64  91 133 173 215 272 325 385
#     4  11  24  43  66  95 131 176 217 273 329 393
#
# _framework density 20.547294999999998
#
# number of rings (size 3 to 8) (size 9 to 14) (size 15 to 20)
#    0.000    1.000    5.000    2.000    0.000    7.000 
#    0.000    1.667    0.000    0.000    0.000    0.000 
#    0.000    0.000    0.000    0.000    0.000    0.000 
#
# Total GULP energy -1190813.243747 kJ/mol
# GULP energy per Si atom -12404.304622 kJ/mol
# Density = 2.050053 g / cm^3
# Si number density = 20.547295 Si / 1000 Ang^3
#
#
#
# Elastic Constant Matrix: (Units=GPa)
#
#
# Indices 1 2 3 4 5 6 
#
# 1 66.1420 -1.8040 17.0491 0.0000 0.0000 0.0000
# 2 -1.8040 66.1429 17.0498 0.0000 0.0000 0.0000
# 3 17.0491 17.0498 85.8643 0.0000 0.0000 0.0000
# 4 0.0000 0.0000 0.0000 19.7015 0.0000 0.0000
# 5 0.0000 0.0000 0.0000 0.0000 19.7008 0.0000
# 6 0.0000 0.0000 0.0000 0.0000 0.0000 27.3482
#
#
#
# Elastic Compliance Matrix: (Units=1/GPa)
#
#
# Indices 1 2 3 4 5 6 
#
# 1 0.016044 0.001327 -0.003449 0.000000 0.000000 0.000000
# 2 0.001327 0.016044 -0.003449 0.000000 0.000000 0.000000
# 3 -0.003449 -0.003449 0.013016 0.000000 0.000000 0.000000
# 4 0.000000 0.000000 0.000000 0.050758 0.000000 0.000000
# 5 0.000000 0.000000 0.000000 0.000000 0.050759 0.000000
# 6 0.000000 0.000000 0.000000 0.000000 0.000000 0.036565
#
#
# Mechanical properties :
#
#
# Convention : Reuss Voigt Hill
#
# Bulk Modulus (GPa) = 29.44558 31.41543 30.43050
# Shear Modulus (GPa) = 24.31308 25.74038 25.02673
#
# Velocity S-wave (km/s) = 3.44361 3.54324 3.49378
# Velocity P-wave (km/s) = 5.49299 5.66233 5.57830
#
# Compressibility (1/GPa) = 0.03396096
#
# Stress axis : x y z
#
# Youngs Moduli (GPa) = 62.32765 62.32823 76.82822
#
# Poissons Ratio (x) = -0.08269 0.26499
# Poissons Ratio (y) = -0.08269 0.26500
# Poissons Ratio (z) = 0.21498 0.21499
#
# Static dielectric constant tensor:
#      x y z
#    x 3.796690 0.000000 0.000000 
#    y 0.000000 3.796680 0.000000 
#    z 0.000000 0.000000 3.767050 
# 
# 
# High freq. dielectric constant tensor:
#      x y z
#    x 1.802300 0.000000 0.000000 
#    y 0.000000 1.802300 0.000000 
#    z 0.000000 0.000000 1.811180 
# 
# From -- ./inp_files/5423.got.cif
#   From: 2010.03.12/outbox.cif.g09.slc.cpg/sg135_3_cif.got.tgz:5423.got - 2010.04.06 18:31:24.
