data_PCOD8317778
_publ_section_title
;
Structure prediction by ZEFSAII (Michael W. Deem and Ramdas Pophale) SiO2 
 PCOD8317778
Probable space group: P 42/M N M
;
_chemical_formula_sum "Si O2"
_cell_formula_units_Z 96
_cell_length_a 24.393441
_cell_length_b 24.393441
_cell_length_c 8.895599
_cell_angle_alpha 90.000000
_cell_angle_beta 90.000000
_cell_angle_gamma 90.000000
_cell_volume 5293.236907
_symmetry_space_group_name_H-M "P 42/M N M"
_symmetry_group_IT_number 136
_symmetry_cell_setting 'tetragonal'
loop_
_space_group_symop_operation_xyz
x,y,z
1/2-y,1/2+x,1/2+z
-x,-y,z
1/2+y,1/2-x,1/2+z
1/2+x,1/2-y,1/2-z
1/2-x,1/2+y,1/2-z
y,x,-z
-y,-x,-z
-x,-y,-z
1/2+y,1/2-x,1/2-z
x,y,-z
1/2-y,1/2+x,1/2-z
1/2-x,1/2+y,1/2+z
1/2+x,1/2-y,1/2+z
-y,-x,z
y,x,z
loop_
_atom_site_type_symbol
_atom_site_label
_atom_site_fract_x
_atom_site_fract_y
_atom_site_fract_z
Si Si1 0.294355 0.294355 0.675446
Si Si2 0.919526 0.694967 0.821152
Si Si3 0.377565 0.377565 0.179370
Si Si4 0.684657 0.144101 0.177288
Si Si5 0.970084 0.291993 0.669822
Si Si6 0.835910 0.008744 0.667366
Si Si7 0.817811 0.902926 0.823325
O O1 0.304120 0.304120 0.500000
O O2 0.334119 0.334119 0.763681
O O3 0.310652 0.231649 0.719121
O O4 0.871787 0.655960 0.762480
O O5 0.902315 0.755646 0.765604
O O6 0.977870 0.677843 0.747847
O O7 0.924870 0.690561 0.000000
O O8 0.437847 0.363569 0.241205
O O9 0.374957 0.374957 0.000000
O O10 0.701418 0.083805 0.230033
O O11 0.674279 0.143810 0.000000
O O12 0.961628 0.314951 0.500000
O O13 0.982703 0.228499 0.664347
O O14 0.858794 0.999627 0.500000
O O15 0.850955 0.955564 0.763652
O O16 0.848004 0.848004 0.764916
O O17 0.819253 0.906456 0.000000
#
# Coordination Sequence:
#
# PCOD8317778 Si02
#       7
#     8  16   8  16  16  16  16
#     4  10  22  34  50  79 115 146 176 218 271 318
#     4  10  21  36  56  81 109 143 181 222 269 320
#     4  10  18  32  51  75 104 135 176 222 269 325
#     4  11  22  36  54  82 116 146 180 222 267 320
#     4  10  19  35  57  79 106 142 182 221 267 321
#     4   9  18  31  50  74  99 133 176 221 268 320
#     4   9  19  35  52  71  99 137 180 223 266 318
#
# _framework density 18.136351000000001
#
# number of rings (size 3 to 8) (size 9 to 14) (size 15 to 20)
#    0.000    2.167    1.667    1.500    1.167    3.000 
#    0.000    0.417    0.000    3.000    0.000    3.500 
#    0.000    0.000    0.000    0.000    0.000    0.000 
#
# Total GULP energy -1190110.009753 kJ/mol
# GULP energy per Si atom -12396.979268 kJ/mol
# Density = 1.809507 g / cm^3
# Si number density = 18.136351 Si / 1000 Ang^3
#
#
#
# Elastic Constant Matrix: (Units=GPa)
#
#
# Indices 1 2 3 4 5 6 
#
# 1 64.6319 24.2182 24.1848 0.0000 0.0000 0.0000
# 2 24.2182 64.6319 24.1848 0.0000 0.0000 0.0000
# 3 24.1848 24.1848 39.6483 0.0000 0.0000 0.0000
# 4 0.0000 0.0000 0.0000 29.4440 0.0000 0.0000
# 5 0.0000 0.0000 0.0000 0.0000 29.4440 0.0000
# 6 0.0000 0.0000 0.0000 0.0000 0.0000 24.1960
#
#
#
# Elastic Compliance Matrix: (Units=1/GPa)
#
#
# Indices 1 2 3 4 5 6 
#
# 1 0.020797 -0.003947 -0.010279 0.000000 0.000000 0.000000
# 2 -0.003947 0.020797 -0.010279 0.000000 0.000000 0.000000
# 3 -0.010279 -0.010279 0.037761 0.000000 0.000000 0.000000
# 4 0.000000 0.000000 0.000000 0.033963 0.000000 0.000000
# 5 0.000000 0.000000 0.000000 0.000000 0.033963 0.000000
# 6 0.000000 0.000000 0.000000 0.000000 0.000000 0.041329
#
#
# Mechanical properties :
#
#
# Convention : Reuss Voigt Hill
#
# Bulk Modulus (GPa) = 32.95095 34.89862 33.92478
# Shear Modulus (GPa) = 20.18291 23.03842 21.61066
#
# Velocity S-wave (km/s) = 3.33955 3.56798 3.45565
# Velocity P-wave (km/s) = 5.75135 6.02147 5.88796
#
# Compressibility (1/GPa) = 0.03034814
#
# Stress axis : x y z
#
# Youngs Moduli (GPa) = 48.08315 48.08315 26.48217
#
# Poissons Ratio (x) = 0.18977 0.27220
# Poissons Ratio (y) = 0.18977 0.27220
# Poissons Ratio (z) = 0.49422 0.49422
#
# Static dielectric constant tensor:
#      x y z
#    x 3.444480 0.000000 0.000000 
#    y 0.000000 3.444480 0.000000 
#    z 0.000000 0.000000 3.444400 
# 
# 
# High freq. dielectric constant tensor:
#      x y z
#    x 1.692530 0.000000 0.000000 
#    y 0.000000 1.692530 0.000000 
#    z 0.000000 0.000000 1.705880 
# 
# From -- ./inp_files/2065.got.cif
#   From: 2010.03.12/outbox.cif.g09.slc.cpg/sg136_2_cif.got.tgz:2065.got - 2010.04.06 18:39:43.
