data_PCOD8317214
_publ_section_title
;
Structure prediction by ZEFSAII (Michael W. Deem and Ramdas Pophale) SiO2 
 PCOD8317214
Probable space group: P 42/N N M
;
_chemical_formula_sum "Si O2"
_cell_formula_units_Z 72
_cell_length_a 15.937891
_cell_length_b 15.937891
_cell_length_c 15.815762
_cell_angle_alpha 90.000000
_cell_angle_beta 90.000000
_cell_angle_gamma 90.000000
_cell_volume 4017.462445
_symmetry_space_group_name_H-M "P 42/N N M"
_symmetry_group_IT_number 134
_space_group.IT_coordinate_system_code '2'
_symmetry_cell_setting 'tetragonal'
loop_
_space_group_symop_operation_xyz
x,y,z
1/2-y,x,1/2+z
1/2-x,1/2-y,z
y,1/2-x,1/2+z
x,1/2-y,1/2-z
1/2-x,y,1/2-z
y,x,-z
1/2-y,1/2-x,-z
-x,-y,-z
1/2+y,-x,1/2-z
1/2+x,1/2+y,-z
-y,1/2+x,1/2-z
-x,1/2+y,1/2+z
1/2+x,-y,1/2+z
-y,-x,z
1/2+y,1/2+x,z
loop_
_atom_site_type_symbol
_atom_site_label
_atom_site_fract_x
_atom_site_fract_y
_atom_site_fract_z
Si Si1 0.028278 0.267985 0.871086
Si Si2 0.055119 0.417482 0.177565
Si Si3 0.153454 0.326103 0.310840
Si Si4 0.386519 0.750000 0.250000
Si Si5 0.215030 0.409669 0.955031
O O1 0.025462 0.367207 0.852445
O O2 0.112302 0.232176 0.826576
O O3 0.944926 0.227635 0.830701
O O4 0.028163 0.250995 0.971730
O O5 0.075867 0.375384 0.268002
O O6 0.038645 0.346497 0.106789
O O7 0.972167 0.472167 0.187852
O O8 0.182168 0.250000 0.250000
O O9 0.125437 0.293381 0.402539
O O10 0.330431 0.669570 0.270710
O O11 0.167605 0.332395 0.000000
#
# Coordination Sequence:
#
# PCOD8317214 Si02
#       5
#    16  16  16   8  16
#     4  11  20  33  53  77 104 140 179 225 267 320
#     4  10  20  34  52  75 107 144 179 218 264 321
#     4  10  20  34  52  82 113 143 176 216 278 334
#     4  11  24  40  55  72 100 144 193 232 268 315
#     4   9  21  33  52  81 112 142 174 219 272 335
#
# _framework density 17.921759999999999
#
# number of rings (size 3 to 8) (size 9 to 14) (size 15 to 20)
#    0.000    1.889    2.222    1.333    0.000   20.000 
#    0.000    1.111    0.000    2.667    0.000    0.000 
#    0.000   21.778    0.000    0.000    0.000    0.000 
#
# Total GULP energy -892748.894021 kJ/mol
# GULP energy per Si atom -12399.290195 kJ/mol
# Density = 1.788097 g / cm^3
# Si number density = 17.921760 Si / 1000 Ang^3
#
#
#
# Elastic Constant Matrix: (Units=GPa)
#
#
# Indices 1 2 3 4 5 6 
#
# 1 81.1550 40.4313 34.7802 0.0000 0.0000 0.0000
# 2 40.4313 81.1550 34.7802 0.0000 0.0000 0.0000
# 3 34.7802 34.7802 132.4302 0.0000 0.0000 0.0000
# 4 0.0000 0.0000 0.0000 21.0717 0.0000 0.0000
# 5 0.0000 0.0000 0.0000 0.0000 21.0717 0.0000
# 6 0.0000 0.0000 0.0000 0.0000 0.0000 27.4420
#
#
#
# Elastic Compliance Matrix: (Units=1/GPa)
#
#
# Indices 1 2 3 4 5 6 
#
# 1 0.017117 -0.007438 -0.002542 0.000000 0.000000 0.000000
# 2 -0.007438 0.017117 -0.002542 0.000000 0.000000 0.000000
# 3 -0.002542 -0.002542 0.008886 0.000000 0.000000 0.000000
# 4 0.000000 0.000000 0.000000 0.047457 0.000000 0.000000
# 5 0.000000 0.000000 0.000000 0.000000 0.047457 0.000000
# 6 0.000000 0.000000 0.000000 0.000000 0.000000 0.036441
#
#
# Mechanical properties :
#
#
# Convention : Reuss Voigt Hill
#
# Bulk Modulus (GPa) = 55.32121 57.19149 56.25635
# Shear Modulus (GPa) = 24.32548 26.23363 25.27956
#
# Velocity S-wave (km/s) = 3.68817 3.83010 3.75980
# Velocity P-wave (km/s) = 7.00514 7.17918 7.09269
#
# Compressibility (1/GPa) = 0.01807625
#
# Stress axis : x y z
#
# Youngs Moduli (GPa) = 58.42036 58.42036 112.53221
#
# Poissons Ratio (x) = 0.43456 0.28605
# Poissons Ratio (y) = 0.43456 0.28605
# Poissons Ratio (z) = 0.14850 0.14850
#
# Static dielectric constant tensor:
#      x y z
#    x 3.096210 0.000000 0.000000 
#    y 0.000000 3.096210 0.000000 
#    z 0.000000 0.000000 3.812810 
# 
# 
# High freq. dielectric constant tensor:
#      x y z
#    x 1.668580 0.000000 0.000000 
#    y 0.000000 1.668580 0.000000 
#    z 0.000000 0.000000 1.710070 
# 
# From -- ./inp_files/7647.got.cif
#   From: 2010.03.12/outbox.cif.g09.slc.cpg/sg134_4_cif.got.tgz:7647.got - 2010.04.06 18:17:22.
