data_PCOD8317866
_publ_section_title
;
Structure prediction by ZEFSAII (Michael W. Deem and Ramdas Pophale) SiO2 
 PCOD8317866
Probable space group: P 42/M N M
;
_chemical_formula_sum "Si O2"
_cell_formula_units_Z 88
_cell_length_a 14.964435
_cell_length_b 14.964435
_cell_length_c 19.773082
_cell_angle_alpha 90.000000
_cell_angle_beta 90.000000
_cell_angle_gamma 90.000000
_cell_volume 4427.871571
_symmetry_space_group_name_H-M "P 42/M N M"
_symmetry_group_IT_number 136
_symmetry_cell_setting 'tetragonal'
loop_
_space_group_symop_operation_xyz
x,y,z
1/2-y,1/2+x,1/2+z
-x,-y,z
1/2+y,1/2-x,1/2+z
1/2+x,1/2-y,1/2-z
1/2-x,1/2+y,1/2-z
y,x,-z
-y,-x,-z
-x,-y,-z
1/2+y,1/2-x,1/2-z
x,y,-z
1/2-y,1/2+x,1/2-z
1/2-x,1/2+y,1/2+z
1/2+x,1/2-y,1/2+z
-y,-x,z
y,x,z
loop_
_atom_site_type_symbol
_atom_site_label
_atom_site_fract_x
_atom_site_fract_y
_atom_site_fract_z
Si Si1 0.120167 0.735253 0.718546
Si Si2 0.762220 0.382582 0.639723
Si Si3 0.017574 0.246384 0.500000
Si Si4 0.696871 0.156424 0.000000
Si Si5 0.583348 0.727081 0.635198
Si Si6 0.823938 0.318629 0.500000
Si Si7 0.145463 0.003903 0.638687
O O1 0.192756 0.807245 0.694159
O O2 0.149815 0.640412 0.685487
O O3 0.122665 0.721957 0.799311
O O4 0.025075 0.774168 0.690171
O O5 0.683568 0.316433 0.659679
O O6 0.719591 0.479190 0.650589
O O7 0.792402 0.376357 0.562818
O O8 0.093563 0.321167 0.500000
O O9 0.928676 0.304694 0.500000
O O10 0.026010 0.185295 0.434298
O O11 0.717577 0.099905 0.932774
O O12 0.752363 0.247638 0.000000
O O13 0.628457 0.628457 0.629583
O O14 0.779372 0.220629 0.500000
O O15 0.075840 0.924161 0.630034
O O16 0.093132 0.093132 0.665350
#
# Coordination Sequence:
#
# PCOD8317866 Si02
#       7
#    16  16   8   8  16   8  16
#     4   9  19  36  57  83 118 157 187 230 299 365
#     4  10  20  37  63  89 115 151 194 238 297 361
#     4  12  20  33  59  85 119 159 195 232 283 359
#     4  10  23  41  57  79 112 155 199 244 300 350
#     4  10  22  41  62  83 116 153 198 255 302 347
#     4  10  19  35  61  88 119 157 193 238 295 357
#     4  10  19  31  53  89 124 150 186 236 288 352
#
# _framework density 19.874109000000001
#
# number of rings (size 3 to 8) (size 9 to 14) (size 15 to 20)
#    0.000    2.000    1.818    2.182    0.000    3.273 
#    0.000    5.455    0.000    3.273    0.000    0.000 
#    0.000    0.000    0.000    0.000    0.000    0.000 
#
# Total GULP energy -1090782.460485 kJ/mol
# GULP energy per Si atom -12395.255233 kJ/mol
# Density = 1.982887 g / cm^3
# Si number density = 19.874109 Si / 1000 Ang^3
#
#
#
# Elastic Constant Matrix: (Units=GPa)
#
#
# Indices 1 2 3 4 5 6 
#
# 1 102.6063 48.3338 36.0264 0.0000 0.0000 0.0000
# 2 48.3338 102.6066 36.0264 0.0000 0.0000 0.0000
# 3 36.0264 36.0264 134.8752 0.0000 0.0000 0.0000
# 4 0.0000 0.0000 0.0000 3.4412 0.0000 0.0000
# 5 0.0000 0.0000 0.0000 0.0000 3.4421 0.0000
# 6 0.0000 0.0000 0.0000 0.0000 0.0000 25.4490
#
#
#
# Elastic Compliance Matrix: (Units=1/GPa)
#
#
# Indices 1 2 3 4 5 6 
#
# 1 0.013009 -0.005416 -0.002028 0.000000 0.000000 0.000000
# 2 -0.005416 0.013009 -0.002028 0.000000 0.000000 0.000000
# 3 -0.002028 -0.002028 0.008498 0.000000 0.000000 0.000000
# 4 0.000000 0.000000 0.000000 0.290596 0.000000 0.000000
# 5 0.000000 0.000000 0.000000 0.000000 0.290521 0.000000
# 6 0.000000 0.000000 0.000000 0.000000 0.000000 0.039294
#
#
# Mechanical properties :
#
#
# Convention : Reuss Voigt Hill
#
# Bulk Modulus (GPa) = 64.22001 64.54015 64.38008
# Shear Modulus (GPa) = 7.36308 21.11323 14.23816
#
# Velocity S-wave (km/s) = 1.92689 3.26290 2.67950
# Velocity P-wave (km/s) = 6.11016 6.83669 6.48361
#
# Compressibility (1/GPa) = 0.01557147
#
# Stress axis : x y z
#
# Youngs Moduli (GPa) = 76.86726 76.86749 117.67764
#
# Poissons Ratio (x) = 0.41632 0.23868
# Poissons Ratio (y) = 0.41632 0.23868
# Poissons Ratio (z) = 0.15591 0.15591
#
# Static dielectric constant tensor:
#      x y z
#    x 3.510670 0.000000 0.000000 
#    y 0.000000 3.510670 0.000000 
#    z 0.000000 0.000000 3.738170 
# 
# 
# High freq. dielectric constant tensor:
#      x y z
#    x 1.756950 0.000000 0.000000 
#    y 0.000000 1.756950 0.000000 
#    z 0.000000 0.000000 1.790080 
# 
# From -- ./inp_files/7442.got.cif
#   From: 2010.03.12/outbox.cif.g09.slc.cpg/sg136_4_cif.got.tgz:7442.got - 2010.04.06 18:39:43.
