data_PCOD8317082
_publ_section_title
;
Structure prediction by ZEFSAII (Michael W. Deem and Ramdas Pophale) SiO2 
 PCOD8317082
Probable space group: P 42/N N M
;
_chemical_formula_sum "Si O2"
_cell_formula_units_Z 112
_cell_length_a 14.806965
_cell_length_b 14.806965
_cell_length_c 28.594287
_cell_angle_alpha 90.000000
_cell_angle_beta 90.000000
_cell_angle_gamma 90.000000
_cell_volume 6269.189124
_symmetry_space_group_name_H-M "P 42/N N M"
_symmetry_group_IT_number 134
_space_group.IT_coordinate_system_code '2'
_symmetry_cell_setting 'tetragonal'
loop_
_space_group_symop_operation_xyz
x,y,z
1/2-y,x,1/2+z
1/2-x,1/2-y,z
y,1/2-x,1/2+z
x,1/2-y,1/2-z
1/2-x,y,1/2-z
y,x,-z
1/2-y,1/2-x,-z
-x,-y,-z
1/2+y,-x,1/2-z
1/2+x,1/2+y,-z
-y,1/2+x,1/2-z
-x,1/2+y,1/2+z
1/2+x,-y,1/2+z
-y,-x,z
1/2+y,1/2+x,z
loop_
_atom_site_type_symbol
_atom_site_label
_atom_site_fract_x
_atom_site_fract_y
_atom_site_fract_z
Si Si1 0.327061 0.972516 0.284696
Si Si2 0.820247 0.676243 0.865336
Si Si3 0.079670 0.920331 0.949223
Si Si4 0.677460 0.548541 0.882040
Si Si5 0.690381 0.974733 0.379341
Si Si6 0.572184 0.571899 0.709114
Si Si7 0.071741 0.928260 0.052983
Si Si8 0.924315 0.214816 0.298716
O O1 0.250000 0.936828 0.250000
O O2 0.389506 0.889506 0.297886
O O3 0.286900 0.007386 0.333428
O O4 0.381202 0.052058 0.258572
O O5 0.750000 0.750000 0.843386
O O6 0.757388 0.616018 0.900821
O O7 0.907102 0.724478 0.889656
O O8 0.852778 0.604587 0.827176
O O9 0.039851 0.831087 0.923395
O O10 0.106036 0.893965 0.002326
O O11 0.003795 0.996206 0.952105
O O12 0.584833 0.601715 0.869759
O O13 0.657771 0.470539 0.919833
O O14 0.710147 0.040101 0.335169
O O15 0.516854 0.483146 0.690845
O O16 0.506730 0.654397 0.718481
O O17 0.883452 0.250000 0.250000
O O18 0.845748 0.154253 0.323298
#
# Coordination Sequence:
#
# PCOD8317082 Si02
#       8
#    16  16   8  16  16  16   8  16
#     4  11  20  30  46  69  98 135 173 205 245 300
#     4   9  17  30  48  74 102 128 166 213 259 297
#     4   9  18  34  53  74 102 132 175 208 259 324
#     4  10  17  31  50  74 103 129 165 214 261 306
#     4   9  19  32  50  72 100 135 166 211 258 300
#     4   9  18  31  45  65  97 136 171 199 240 303
#     4   9  18  32  54  78  98 134 170 212 265 320
#     4  10  20  32  45  66  98 134 171 204 243 297
#
# _framework density 17.865148999999999
#
# number of rings (size 3 to 8) (size 9 to 14) (size 15 to 20)
#    0.000    2.429    2.143    0.857    1.000    0.286 
#    0.000    2.857    0.000    4.286    0.000    4.000 
#    0.000    4.571    0.000    0.000    0.000    0.000 
#
# Total GULP energy -1387483.956522 kJ/mol
# GULP energy per Si atom -12388.249612 kJ/mol
# Density = 1.782449 g / cm^3
# Si number density = 17.865149 Si / 1000 Ang^3
#
#
#
# Elastic Constant Matrix: (Units=GPa)
#
#
# Indices 1 2 3 4 5 6 
#
# 1 68.8024 35.4770 42.2477 0.0000 0.0000 0.0000
# 2 35.4770 68.8024 42.2477 0.0000 0.0000 0.0000
# 3 42.2477 42.2477 107.7853 0.0000 0.0000 0.0000
# 4 0.0000 0.0000 0.0000 16.4767 0.0000 0.0000
# 5 0.0000 0.0000 0.0000 0.0000 16.4767 0.0000
# 6 0.0000 0.0000 0.0000 0.0000 0.0000 26.9310
#
#
#
# Elastic Compliance Matrix: (Units=1/GPa)
#
#
# Indices 1 2 3 4 5 6 
#
# 1 0.022030 -0.007977 -0.005508 0.000000 0.000000 0.000000
# 2 -0.007977 0.022030 -0.005508 0.000000 0.000000 0.000000
# 3 -0.005508 -0.005508 0.013596 0.000000 0.000000 0.000000
# 4 0.000000 0.000000 0.000000 0.060692 0.000000 0.000000
# 5 0.000000 0.000000 0.000000 0.000000 0.060692 0.000000
# 6 0.000000 0.000000 0.000000 0.000000 0.000000 0.037132
#
#
# Mechanical properties :
#
#
# Convention : Reuss Voigt Hill
#
# Bulk Modulus (GPa) = 50.84244 53.92609 52.38427
# Shear Modulus (GPa) = 19.17807 20.33804 19.75805
#
# Velocity S-wave (km/s) = 3.27997 3.37771 3.32920
# Velocity P-wave (km/s) = 6.54714 6.74259 6.64558
#
# Compressibility (1/GPa) = 0.01966861
#
# Stress axis : x y z
#
# Youngs Moduli (GPa) = 45.39276 45.39276 73.55288
#
# Poissons Ratio (x) = 0.36211 0.40514
# Poissons Ratio (y) = 0.36211 0.40514
# Poissons Ratio (z) = 0.25003 0.25003
#
# Static dielectric constant tensor:
#      x y z
#    x 3.395720 0.000000 0.000000 
#    y 0.000000 3.395720 0.000000 
#    z 0.000000 0.000000 3.088230 
# 
# 
# High freq. dielectric constant tensor:
#      x y z
#    x 1.691040 0.000000 0.000000 
#    y 0.000000 1.691040 0.000000 
#    z 0.000000 0.000000 1.644440 
# 
# From -- ./inp_files/10909.got.cif
#   From: 2010.03.12/outbox.cif.g09.slc.cpg/sg134_6_cif.got.tgz:10909.got - 2010.04.06 18:17:22.
