data_PCOD8317646
_publ_section_title
;
Structure prediction by ZEFSAII (Michael W. Deem and Ramdas Pophale) SiO2 
 PCOD8317646
Probable space group: P 42/M B C
;
_chemical_formula_sum "Si O2"
_cell_formula_units_Z 96
_cell_length_a 14.446271
_cell_length_b 14.446271
_cell_length_c 20.300377
_cell_angle_alpha 90.000000
_cell_angle_beta 90.000000
_cell_angle_gamma 90.000000
_cell_volume 4236.582018
_symmetry_space_group_name_H-M "P 42/M B C"
_symmetry_group_IT_number 135
_symmetry_cell_setting 'tetragonal'
loop_
_space_group_symop_operation_xyz
x,y,z
-y,x,1/2+z
-x,-y,z
y,-x,1/2+z
1/2+x,1/2-y,-z
1/2-x,1/2+y,-z
1/2+y,1/2+x,1/2-z
1/2-y,1/2-x,1/2-z
-x,-y,-z
y,-x,1/2-z
x,y,-z
-y,x,1/2-z
1/2-x,1/2+y,z
1/2+x,1/2-y,z
1/2-y,1/2-x,1/2+z
1/2+y,1/2+x,1/2+z
loop_
_atom_site_type_symbol
_atom_site_label
_atom_site_fract_x
_atom_site_fract_y
_atom_site_fract_z
Si Si1 0.380505 0.085505 0.571888
Si Si2 0.370272 0.412406 0.000000
Si Si3 0.881580 0.089257 0.250398
Si Si4 0.290942 0.659235 0.624555
Si Si5 0.730013 0.649923 0.626549
Si Si6 0.375377 0.923532 0.072869
Si Si7 0.380316 0.412538 0.500000
O O1 0.356203 0.129485 0.500000
O O2 0.284433 0.077916 0.613363
O O3 0.471266 0.140964 0.601212
O O4 0.411871 0.982610 0.560728
O O5 0.327627 0.365763 0.065786
O O6 0.479523 0.398857 0.000000
O O7 0.353900 0.523789 0.000000
O O8 0.853029 0.154924 0.191474
O O9 0.808285 0.098226 0.309301
O O10 0.983743 0.117671 0.275611
O O11 0.213254 0.740513 0.629567
O O12 0.843302 0.653649 0.623852
O O13 0.681514 0.607613 0.563331
O O14 0.326051 0.913911 0.000000
#
# Coordination Sequence:
#
# PCOD8317646 Si02
#       7
#    16   8  16  16  16  16   8
#     4   9  18  34  59  90 125 167 208 253 316 388
#     4  11  23  40  65  95 129 171 222 281 340 400
#     4  11  25  46  70  92 125 177 232 286 344 403
#     4  12  24  40  61  97 132 170 217 272 340 402
#     4  12  24  40  61  97 132 170 217 272 340 402
#     4   9  18  34  59  90 125 167 208 253 316 388
#     4  11  23  40  65  95 129 171 222 281 340 400
#
# _framework density 22.659776999999998
#
# number of rings (size 3 to 8) (size 9 to 14) (size 15 to 20)
#    0.000    1.333    1.667    6.000    0.000    5.333 
#    0.000    0.000    0.000    0.000    0.000    4.667 
#    0.000    0.000    0.000    0.000    0.000    0.000 
#
# Total GULP energy -1189332.104410 kJ/mol
# GULP energy per Si atom -12388.876088 kJ/mol
# Density = 2.260820 g / cm^3
# Si number density = 22.659777 Si / 1000 Ang^3
#
#
#
# Elastic Constant Matrix: (Units=GPa)
#
#
# Indices 1 2 3 4 5 6 
#
# 1 87.5869 5.6425 45.6233 0.0000 0.0000 0.0000
# 2 5.6425 87.5869 45.6233 0.0000 0.0000 0.0000
# 3 45.6233 45.6233 136.8572 0.0000 0.0000 0.0000
# 4 0.0000 0.0000 0.0000 31.8154 0.0000 0.0000
# 5 0.0000 0.0000 0.0000 0.0000 31.8154 0.0000
# 6 0.0000 0.0000 0.0000 0.0000 0.0000 32.1460
#
#
#
# Elastic Compliance Matrix: (Units=1/GPa)
#
#
# Indices 1 2 3 4 5 6 
#
# 1 0.014062 0.001859 -0.005307 0.000000 0.000000 0.000000
# 2 0.001859 0.014062 -0.005307 0.000000 0.000000 0.000000
# 3 -0.005307 -0.005307 0.010845 0.000000 0.000000 0.000000
# 4 0.000000 0.000000 0.000000 0.031431 0.000000 0.000000
# 5 0.000000 0.000000 0.000000 0.000000 0.031431 0.000000
# 6 0.000000 0.000000 0.000000 0.000000 0.000000 0.031108
#
#
# Mechanical properties :
#
#
# Convention : Reuss Voigt Hill
#
# Bulk Modulus (GPa) = 46.60403 56.20100 51.40252
# Shear Modulus (GPa) = 31.72487 33.49817 32.61152
#
# Velocity S-wave (km/s) = 3.74579 3.84905 3.79777
# Velocity P-wave (km/s) = 6.27052 6.67904 6.47800
#
# Compressibility (1/GPa) = 0.02145737
#
# Stress axis : x y z
#
# Youngs Moduli (GPa) = 71.11323 71.11323 92.20428
#
# Poissons Ratio (x) = -0.13218 0.48937
# Poissons Ratio (y) = -0.13218 0.48937
# Poissons Ratio (z) = 0.37743 0.37743
#
# Static dielectric constant tensor:
#      x y z
#    x 4.750930 0.000000 0.000000 
#    y 0.000000 4.750930 0.000000 
#    z 0.000000 0.000000 3.868520 
# 
# 
# High freq. dielectric constant tensor:
#      x y z
#    x 1.913150 0.000000 0.000000 
#    y 0.000000 1.913150 0.000000 
#    z 0.000000 0.000000 1.853380 
# 
# From -- ./inp_files/5498.got.cif
#   From: 2010.03.12/outbox.cif.g09.slc.cpg/sg135_3_cif.got.tgz:5498.got - 2010.04.06 18:31:24.
