data_PCOD8317557
_publ_section_title
;
Structure prediction by ZEFSAII (Michael W. Deem and Ramdas Pophale) SiO2 
 PCOD8317557
Probable space group: P 42/M B C
;
_chemical_formula_sum "Si O2"
_cell_formula_units_Z 64
_cell_length_a 14.055217
_cell_length_b 14.055217
_cell_length_c 16.899740
_cell_angle_alpha 90.000000
_cell_angle_beta 90.000000
_cell_angle_gamma 90.000000
_cell_volume 3338.528848
_symmetry_space_group_name_H-M "P 42/M B C"
_symmetry_group_IT_number 135
_symmetry_cell_setting 'tetragonal'
loop_
_space_group_symop_operation_xyz
x,y,z
-y,x,1/2+z
-x,-y,z
y,-x,1/2+z
1/2+x,1/2-y,-z
1/2-x,1/2+y,-z
1/2+y,1/2+x,1/2-z
1/2-y,1/2-x,1/2-z
-x,-y,-z
y,-x,1/2-z
x,y,-z
-y,x,1/2-z
1/2-x,1/2+y,z
1/2+x,1/2-y,z
1/2-y,1/2-x,1/2+z
1/2+y,1/2+x,1/2+z
loop_
_atom_site_type_symbol
_atom_site_label
_atom_site_fract_x
_atom_site_fract_y
_atom_site_fract_z
Si Si1 0.035322 0.599607 0.590396
Si Si2 0.769860 0.347157 0.325038
Si Si3 0.723432 0.587307 0.910442
Si Si4 0.517888 0.647094 0.265810
O O1 0.068703 0.586358 0.500000
O O2 0.126488 0.640007 0.636828
O O3 0.000000 0.500000 0.627126
O O4 0.941747 0.666050 0.595628
O O5 0.777295 0.277295 0.250000
O O6 0.696005 0.296892 0.384833
O O7 0.732933 0.448675 0.291287
O O8 0.671706 0.511334 0.854835
O O9 0.685932 0.574634 0.000000
O O10 0.602780 0.572473 0.278546
#
# Coordination Sequence:
#
# PCOD8317557 Si02
#       4
#    16  16  16  16
#     4  10  22  40  58  84 119 153 193 244 298 357
#     4  11  21  37  59  88 115 157 199 247 292 356
#     4  10  21  39  61  85 118 157 194 244 300 356
#     4   9  19  37  57  83 117 151 196 244 290 349
#
# _framework density 19.170119
#
# number of rings (size 3 to 8) (size 9 to 14) (size 15 to 20)
#    0.000    2.000    2.500    0.750    0.000    4.500 
#    0.000   11.250    0.000    0.000    0.000    0.000 
#    0.000    0.000    0.000    0.000    0.000    0.000 
#
# Total GULP energy -793202.701720 kJ/mol
# GULP energy per Si atom -12393.792214 kJ/mol
# Density = 1.912649 g / cm^3
# Si number density = 19.170119 Si / 1000 Ang^3
#
#
#
# Elastic Constant Matrix: (Units=GPa)
#
#
# Indices 1 2 3 4 5 6 
#
# 1 96.4339 50.4912 51.8030 0.0000 0.0000 0.0000
# 2 50.4912 96.4339 51.8030 0.0000 0.0000 0.0000
# 3 51.8030 51.8030 120.0114 0.0000 0.0000 0.0000
# 4 0.0000 0.0000 0.0000 29.9686 0.0000 0.0000
# 5 0.0000 0.0000 0.0000 0.0000 29.9686 0.0000
# 6 0.0000 0.0000 0.0000 0.0000 0.0000 34.3247
#
#
#
# Elastic Compliance Matrix: (Units=1/GPa)
#
#
# Indices 1 2 3 4 5 6 
#
# 1 0.015775 -0.005991 -0.004223 0.000000 0.000000 0.000000
# 2 -0.005991 0.015775 -0.004223 0.000000 0.000000 0.000000
# 3 -0.004223 -0.004223 0.011979 0.000000 0.000000 0.000000
# 4 0.000000 0.000000 0.000000 0.033368 0.000000 0.000000
# 5 0.000000 0.000000 0.000000 0.000000 0.033368 0.000000
# 6 0.000000 0.000000 0.000000 0.000000 0.000000 0.029134
#
#
# Mechanical properties :
#
#
# Convention : Reuss Voigt Hill
#
# Bulk Modulus (GPa) = 68.24227 69.00818 68.62523
# Shear Modulus (GPa) = 28.87510 29.43784 29.15647
#
# Velocity S-wave (km/s) = 3.88526 3.92294 3.90415
# Velocity P-wave (km/s) = 7.47011 7.52298 7.49659
#
# Compressibility (1/GPa) = 0.01465368
#
# Stress axis : x y z
#
# Youngs Moduli (GPa) = 63.39010 63.39010 83.48189
#
# Poissons Ratio (x) = 0.37977 0.35258
# Poissons Ratio (y) = 0.37977 0.35258
# Poissons Ratio (z) = 0.26772 0.26772
#
# Static dielectric constant tensor:
#      x y z
#    x 3.588080 0.000000 0.000000 
#    y 0.000000 3.588080 0.000000 
#    z 0.000000 0.000000 3.613620 
# 
# 
# High freq. dielectric constant tensor:
#      x y z
#    x 1.745990 0.000000 0.000000 
#    y 0.000000 1.745990 0.000000 
#    z 0.000000 0.000000 1.747150 
# 
# From -- ./inp_files/3115.got.cif
#   From: 2010.03.12/outbox.cif.g09.slc.cpg/sg135_2_cif.got.tgz:3115.got - 2010.04.06 18:31:24.
