data_PCOD8317326
_publ_section_title
;
Structure prediction by ZEFSAII (Michael W. Deem and Ramdas Pophale) SiO2 
 PCOD8317326
Probable space group: P 42/N N M
;
_chemical_formula_sum "Si O2"
_cell_formula_units_Z 50
_cell_length_a 15.803275
_cell_length_b 15.803275
_cell_length_c 10.123828
_cell_angle_alpha 90.000000
_cell_angle_beta 90.000000
_cell_angle_gamma 90.000000
_cell_volume 2528.360245
_symmetry_space_group_name_H-M "P 42/N N M"
_symmetry_group_IT_number 134
_space_group.IT_coordinate_system_code '2'
_symmetry_cell_setting 'tetragonal'
loop_
_space_group_symop_operation_xyz
x,y,z
1/2-y,x,1/2+z
1/2-x,1/2-y,z
y,1/2-x,1/2+z
x,1/2-y,1/2-z
1/2-x,y,1/2-z
y,x,-z
1/2-y,1/2-x,-z
-x,-y,-z
1/2+y,-x,1/2-z
1/2+x,1/2+y,-z
-y,1/2+x,1/2-z
-x,1/2+y,1/2+z
1/2+x,-y,1/2+z
-y,-x,z
1/2+y,1/2+x,z
loop_
_atom_site_type_symbol
_atom_site_label
_atom_site_fract_x
_atom_site_fract_y
_atom_site_fract_z
Si Si1 0.250000 0.750000 0.250000
Si Si2 0.601479 0.750000 0.750000
Si Si3 0.750000 0.877898 0.750000
Si Si4 0.750882 0.499413 0.987025
Si Si5 0.931341 0.431341 0.935449
Si Si6 0.118948 0.881053 0.142046
O O1 0.189326 0.810675 0.168522
O O2 0.662258 0.829493 0.746968
O O3 0.539825 0.760246 0.628167
O O4 0.737792 0.928589 0.881515
O O5 0.837565 0.447077 0.989084
O O6 0.665845 0.449439 0.948682
O O7 0.924898 0.424898 0.772785
O O8 0.000000 0.500000 0.000000
#
# Coordination Sequence:
#
# PCOD8317326 Si02
#       6
#     2   8   8  16   8   8
#     4  12  16  44  64  94 116 184 236 266 300 432
#     4  11  26  40  66  99 138 170 218 285 348 396
#     4  11  21  46  67  91 132 186 222 263 333 432
#     4  12  24  42  67  99 131 177 228 281 338 412
#     4  12  22  39  68  96 131 177 229 283 334 404
#     4  12  22  41  71  98 129 182 233 276 339 409
#
# _framework density 19.775662000000001
#
# number of rings (size 3 to 8) (size 9 to 14) (size 15 to 20)
#    0.000    0.320    6.400    3.840    0.000    3.840 
#    0.000    4.800    0.000    1.920    0.000    0.000 
#    0.000    0.000    0.000    0.000    0.000    0.000 
#
# Total GULP energy -619459.157470 kJ/mol
# GULP energy per Si atom -12389.183149 kJ/mol
# Density = 1.973065 g / cm^3
# Si number density = 19.775662 Si / 1000 Ang^3
#
#
#
# Elastic Constant Matrix: (Units=GPa)
#
#
# Indices 1 2 3 4 5 6 
#
# 1 130.0211 55.3760 70.2531 0.0000 0.0000 0.0000
# 2 55.3760 130.0211 70.2531 0.0000 0.0000 0.0000
# 3 70.2531 70.2531 175.4752 0.0000 0.0000 0.0000
# 4 0.0000 0.0000 0.0000 58.3286 0.0000 0.0000
# 5 0.0000 0.0000 0.0000 0.0000 58.3286 0.0000
# 6 0.0000 0.0000 0.0000 0.0000 0.0000 89.0532
#
#
#
# Elastic Compliance Matrix: (Units=1/GPa)
#
#
# Indices 1 2 3 4 5 6 
#
# 1 0.010570 -0.002827 -0.003100 0.000000 0.000000 0.000000
# 2 -0.002827 0.010570 -0.003100 0.000000 0.000000 0.000000
# 3 -0.003100 -0.003100 0.008181 0.000000 0.000000 0.000000
# 4 0.000000 0.000000 0.000000 0.017144 0.000000 0.000000
# 5 0.000000 0.000000 0.000000 0.000000 0.017144 0.000000
# 6 0.000000 0.000000 0.000000 0.000000 0.000000 0.011229
#
#
# Mechanical properties :
#
#
# Convention : Reuss Voigt Hill
#
# Bulk Modulus (GPa) = 88.75240 91.92022 90.33631
# Shear Modulus (GPa) = 51.73390 57.11778 54.42584
#
# Velocity S-wave (km/s) = 5.12027 5.38011 5.25180
# Velocity P-wave (km/s) = 8.94054 9.22911 9.08597
#
# Compressibility (1/GPa) = 0.01126730
#
# Stress axis : x y z
#
# Youngs Moduli (GPa) = 94.60736 94.60736 122.23275
#
# Poissons Ratio (x) = 0.26743 0.37893
# Poissons Ratio (y) = 0.26743 0.37893
# Poissons Ratio (z) = 0.29329 0.29329
#
# Static dielectric constant tensor:
#      x y z
#    x 3.541080 0.000000 0.000000 
#    y 0.000000 3.541080 0.000000 
#    z 0.000000 0.000000 3.689340 
# 
# 
# High freq. dielectric constant tensor:
#      x y z
#    x 1.789230 0.000000 0.000000 
#    y 0.000000 1.789230 0.000000 
#    z 0.000000 0.000000 1.771810 
# 
# From -- ./inp_files/4277.got.cif
#   From: 2010.03.12/outbox.cif.g09.slc.cpg/sg134_3_cif.got.tgz:4277.got - 2010.04.06 18:17:22.
