data_PCOD8317974
_publ_section_title
;
Structure prediction by ZEFSAII (Michael W. Deem and Ramdas Pophale) SiO2 
 PCOD8317974
Probable space group: P 42/M N M
;
_chemical_formula_sum "Si O2"
_cell_formula_units_Z 64
_cell_length_a 14.269628
_cell_length_b 14.269628
_cell_length_c 15.528238
_cell_angle_alpha 90.000000
_cell_angle_beta 90.000000
_cell_angle_gamma 90.000000
_cell_volume 3161.895277
_symmetry_space_group_name_H-M "P 42/M N M"
_symmetry_group_IT_number 136
_symmetry_cell_setting 'tetragonal'
loop_
_space_group_symop_operation_xyz
x,y,z
1/2-y,1/2+x,1/2+z
-x,-y,z
1/2+y,1/2-x,1/2+z
1/2+x,1/2-y,1/2-z
1/2-x,1/2+y,1/2-z
y,x,-z
-y,-x,-z
-x,-y,-z
1/2+y,1/2-x,1/2-z
x,y,-z
1/2-y,1/2+x,1/2-z
1/2-x,1/2+y,1/2+z
1/2+x,1/2-y,1/2+z
-y,-x,z
y,x,z
loop_
_atom_site_type_symbol
_atom_site_label
_atom_site_fract_x
_atom_site_fract_y
_atom_site_fract_z
Si Si1 0.806301 0.044622 0.900046
Si Si2 0.686484 0.842137 0.348138
Si Si3 0.216363 0.633506 0.337753
Si Si4 0.709958 0.137467 0.500000
Si Si5 0.439679 0.717129 0.000000
O O1 0.893000 0.107001 0.862059
O O2 0.706615 0.094597 0.886078
O O3 0.796596 0.944960 0.853813
O O4 0.824767 0.028248 0.000000
O O5 0.766896 0.766896 0.338815
O O6 0.665842 0.887537 0.254091
O O7 0.722321 0.918599 0.415439
O O8 0.266909 0.733092 0.329945
O O9 0.139757 0.642080 0.415168
O O10 0.765867 0.234134 0.500000
O O11 0.786367 0.052845 0.500000
O O12 0.384067 0.615934 0.000000
#
# Coordination Sequence:
#
# PCOD8317974 Si02
#       5
#    16  16  16   8   8
#     4  10  19  35  60  84 108 144 192 236 275 334
#     4   9  19  36  57  78 107 146 187 229 280 333
#     4  10  21  37  55  81 117 153 182 224 290 347
#     4  10  22  38  56  81 117 151 179 223 289 346
#     4  10  20  38  61  82 105 145 197 239 272 322
#
# _framework density 20.241023999999999
#
# number of rings (size 3 to 8) (size 9 to 14) (size 15 to 20)
#    0.000    2.250    2.500    0.000    3.500    0.750 
#    0.000    3.750    0.000    4.500    0.000    0.000 
#    0.000    0.000    0.000    0.000    0.000    0.000 
#
# Total GULP energy -792943.083481 kJ/mol
# GULP energy per Si atom -12389.735679 kJ/mol
# Density = 2.019495 g / cm^3
# Si number density = 20.241024 Si / 1000 Ang^3
#
#
#
# Elastic Constant Matrix: (Units=GPa)
#
#
# Indices 1 2 3 4 5 6 
#
# 1 49.8173 10.1954 15.7576 0.0000 0.0000 0.0000
# 2 10.1954 49.8185 15.7580 0.0000 0.0000 0.0000
# 3 15.7576 15.7580 138.9512 0.0000 0.0000 0.0000
# 4 0.0000 0.0000 0.0000 18.4952 0.0000 0.0000
# 5 0.0000 0.0000 0.0000 0.0000 18.4951 0.0000
# 6 0.0000 0.0000 0.0000 0.0000 0.0000 26.5801
#
#
#
# Elastic Compliance Matrix: (Units=1/GPa)
#
#
# Indices 1 2 3 4 5 6 
#
# 1 0.021478 -0.003760 -0.002009 0.000000 0.000000 0.000000
# 2 -0.003760 0.021478 -0.002009 0.000000 0.000000 0.000000
# 3 -0.002009 -0.002009 0.007653 0.000000 0.000000 0.000000
# 4 0.000000 0.000000 0.000000 0.054068 0.000000 0.000000
# 5 0.000000 0.000000 0.000000 0.000000 0.054069 0.000000
# 6 0.000000 0.000000 0.000000 0.000000 0.000000 0.037622
#
#
# Mechanical properties :
#
#
# Convention : Reuss Voigt Hill
#
# Bulk Modulus (GPa) = 28.52945 35.77878 32.15411
# Shear Modulus (GPa) = 22.36048 25.83914 24.09981
#
# Velocity S-wave (km/s) = 3.32732 3.57679 3.45431
# Velocity P-wave (km/s) = 5.37466 5.89683 5.64179
#
# Compressibility (1/GPa) = 0.03505150
#
# Stress axis : x y z
#
# Youngs Moduli (GPa) = 46.55835 46.55938 130.67604
#
# Poissons Ratio (x) = 0.17506 0.26257
# Poissons Ratio (y) = 0.17506 0.26257
# Poissons Ratio (z) = 0.09355 0.09355
#
# Static dielectric constant tensor:
#      x y z
#    x 3.513060 0.000000 0.000000 
#    y 0.000000 3.513060 0.000000 
#    z 0.000000 0.000000 4.392340 
# 
# 
# High freq. dielectric constant tensor:
#      x y z
#    x 1.763020 0.000000 0.000000 
#    y 0.000000 1.763020 0.000000 
#    z 0.000000 0.000000 1.805790 
# 
# From -- ./inp_files/5985.got.cif
#   From: 2010.03.12/outbox.cif.g09.slc.cpg/sg136_3_cif.got.tgz:5985.got - 2010.04.06 18:39:43.
