data_PCOD8317325
_publ_section_title
;
Structure prediction by ZEFSAII (Michael W. Deem and Ramdas Pophale) SiO2 
 PCOD8317325
Probable space group: P 42/N N M
;
_chemical_formula_sum "Si O2"
_cell_formula_units_Z 68
_cell_length_a 16.303138
_cell_length_b 16.303138
_cell_length_c 13.043219
_cell_angle_alpha 90.000000
_cell_angle_beta 90.000000
_cell_angle_gamma 90.000000
_cell_volume 3466.787290
_symmetry_space_group_name_H-M "P 42/N N M"
_symmetry_group_IT_number 134
_space_group.IT_coordinate_system_code '2'
_symmetry_cell_setting 'tetragonal'
loop_
_space_group_symop_operation_xyz
x,y,z
1/2-y,x,1/2+z
1/2-x,1/2-y,z
y,1/2-x,1/2+z
x,1/2-y,1/2-z
1/2-x,y,1/2-z
y,x,-z
1/2-y,1/2-x,-z
-x,-y,-z
1/2+y,-x,1/2-z
1/2+x,1/2+y,-z
-y,1/2+x,1/2-z
-x,1/2+y,1/2+z
1/2+x,-y,1/2+z
-y,-x,z
1/2+y,1/2+x,z
loop_
_atom_site_type_symbol
_atom_site_label
_atom_site_fract_x
_atom_site_fract_y
_atom_site_fract_z
Si Si1 0.437077 0.562924 0.692481
Si Si2 0.562925 0.437076 0.807524
Si Si3 0.974095 0.841258 0.017532
Si Si4 0.250000 0.750000 0.000002
Si Si5 0.128402 0.628402 0.611136
Si Si6 0.158741 0.025906 0.517536
Si Si7 0.128401 0.871600 0.388864
O O1 0.500000 0.500001 0.750005
O O2 0.381155 0.618846 0.766845
O O3 0.369693 0.513924 0.625227
O O4 0.630310 0.486074 0.874777
O O5 0.618844 0.381157 0.733153
O O6 0.896766 0.896766 0.000000
O O7 0.940901 0.750000 0.999996
O O8 0.039413 0.848721 0.927967
O O9 0.195132 0.695132 0.075873
O O10 0.195133 0.804868 0.924129
O O11 0.103234 0.103234 0.500000
O O12 0.151279 0.960588 0.427971
#
# Coordination Sequence:
#
# PCOD8317325 Si02
#       7
#     8   8  16   4   8  16   8
#     4  11  21  43  71  95 123 186 228 265 345 425
#     4  11  21  43  71  95 123 186 228 265 345 425
#     4  11  23  42  65  97 136 174 223 279 336 398
#     4  12  24  44  62 104 138 164 212 298 348 380
#     4  11  22  44  66  95 135 170 225 271 340 410
#     4  11  23  42  65  97 136 174 223 279 336 398
#     4  11  22  44  66  95 135 170 225 271 340 410
#
# _framework density 19.614702000000001
#
# number of rings (size 3 to 8) (size 9 to 14) (size 15 to 20)
#    0.000    0.941    7.059    1.412    0.000    2.353 
#    0.000    7.059    0.000    0.000    0.000    0.000 
#    0.000    0.000    0.000    0.000    0.000    0.000 
#
# Total GULP energy -842476.287717 kJ/mol
# GULP energy per Si atom -12389.357172 kJ/mol
# Density = 1.957006 g / cm^3
# Si number density = 19.614702 Si / 1000 Ang^3
#
#
#
# Elastic Constant Matrix: (Units=GPa)
#
#
# Indices 1 2 3 4 5 6 
#
# 1 168.1588 79.7362 68.0368 0.0000 0.0000 0.0000
# 2 79.7362 168.1588 68.0368 0.0000 0.0000 0.0000
# 3 68.0368 68.0368 149.1876 0.0000 0.0000 0.0000
# 4 0.0000 0.0000 0.0000 21.3203 0.0000 0.0000
# 5 0.0000 0.0000 0.0000 0.0000 21.3203 0.0000
# 6 0.0000 0.0000 0.0000 0.0000 0.0000 45.1042
#
#
#
# Elastic Compliance Matrix: (Units=1/GPa)
#
#
# Indices 1 2 3 4 5 6 
#
# 1 0.008345 -0.002964 -0.002454 0.000000 0.000000 0.000000
# 2 -0.002964 0.008345 -0.002454 0.000000 0.000000 0.000000
# 3 -0.002454 -0.002454 0.008941 0.000000 0.000000 0.000000
# 4 0.000000 0.000000 0.000000 0.046904 0.000000 0.000000
# 5 0.000000 0.000000 0.000000 0.000000 0.046904 0.000000
# 6 0.000000 0.000000 0.000000 0.000000 0.000000 0.022171
#
#
# Mechanical properties :
#
#
# Convention : Reuss Voigt Hill
#
# Bulk Modulus (GPa) = 101.14019 101.90278 101.52148
# Shear Modulus (GPa) = 31.12358 35.52865 33.32611
#
# Velocity S-wave (km/s) = 3.98772 4.26059 4.12641
# Velocity P-wave (km/s) = 8.53686 8.73318 8.63558
#
# Compressibility (1/GPa) = 0.00988727
#
# Stress axis : x y z
#
# Youngs Moduli (GPa) = 119.82986 119.82986 111.84107
#
# Poissons Ratio (x) = 0.35519 0.27446
# Poissons Ratio (y) = 0.35519 0.27446
# Poissons Ratio (z) = 0.29406 0.29406
#
# Static dielectric constant tensor:
#      x y z
#    x 3.648350 0.000000 0.000000 
#    y 0.000000 3.648350 0.000000 
#    z 0.000000 0.000000 3.712240 
# 
# 
# High freq. dielectric constant tensor:
#      x y z
#    x 1.767480 0.000000 0.000000 
#    y 0.000000 1.767480 0.000000 
#    z 0.000000 0.000000 1.767380 
# 
# From -- ./inp_files/4803.got.cif
#   From: 2010.03.12/outbox.cif.g09.slc.cpg/sg134_3_cif.got.tgz:4803.got - 2010.04.06 18:17:22.
