data_PCOD8317096
_publ_section_title
;
Structure prediction by ZEFSAII (Michael W. Deem and Ramdas Pophale) SiO2 
 PCOD8317096
Probable space group: P 42/N N M
;
_chemical_formula_sum "Si O2"
_cell_formula_units_Z 42
_cell_length_a 9.926947
_cell_length_b 9.926947
_cell_length_c 24.802844
_cell_angle_alpha 90.000000
_cell_angle_beta 90.000000
_cell_angle_gamma 90.000000
_cell_volume 2444.178323
_symmetry_space_group_name_H-M "P 42/N N M"
_symmetry_group_IT_number 134
_space_group.IT_coordinate_system_code '2'
_symmetry_cell_setting 'tetragonal'
loop_
_space_group_symop_operation_xyz
x,y,z
1/2-y,x,1/2+z
1/2-x,1/2-y,z
y,1/2-x,1/2+z
x,1/2-y,1/2-z
1/2-x,y,1/2-z
y,x,-z
1/2-y,1/2-x,-z
-x,-y,-z
1/2+y,-x,1/2-z
1/2+x,1/2+y,-z
-y,1/2+x,1/2-z
-x,1/2+y,1/2+z
1/2+x,-y,1/2+z
-y,-x,z
1/2+y,1/2+x,z
loop_
_atom_site_type_symbol
_atom_site_label
_atom_site_fract_x
_atom_site_fract_y
_atom_site_fract_z
Si Si1 0.143006 0.643006 0.352906
Si Si2 0.376444 0.322837 0.914650
Si Si3 0.250000 0.750000 0.250000
Si Si4 0.464686 0.749454 0.986470
O O1 0.250000 0.750000 0.379449
O O2 0.172973 0.490651 0.369734
O O3 0.155593 0.655593 0.287889
O O4 0.250000 0.250000 0.887230
O O5 0.322889 0.468512 0.934616
O O6 0.426649 0.231512 0.965602
O O7 0.355143 0.644858 0.010355
O O8 0.390896 0.890896 0.971328
#
# Coordination Sequence:
#
# PCOD8317096 Si02
#       4
#     8  16   2  16
#     4  10  20  41  60  81 104 137 193 238 299 339
#     4  11  20  31  53  82 114 152 190 228 267 333
#     4   8  24  40  72  76 100 136 192 248 312 344
#     4  10  18  30  48  78 123 165 187 212 261 330
#
# _framework density 17.183689999999999
#
# number of rings (size 3 to 8) (size 9 to 14) (size 15 to 20)
#    0.571    1.143    3.810    4.571    0.000    4.571 
#    0.000    0.952    0.000    0.000    0.000    0.000 
#    0.000    0.000    0.000    0.000    0.000    0.000 
#
# Total GULP energy -520435.647387 kJ/mol
# GULP energy per Si atom -12391.324938 kJ/mol
# Density = 1.714458 g / cm^3
# Si number density = 17.183690 Si / 1000 Ang^3
#
#
#
# Elastic Constant Matrix: (Units=GPa)
#
#
# Indices 1 2 3 4 5 6 
#
# 1 98.4570 77.7372 46.4418 0.0000 0.0000 0.0000
# 2 77.7372 98.4570 46.4418 0.0000 0.0000 0.0000
# 3 46.4418 46.4418 91.7633 0.0000 0.0000 0.0000
# 4 0.0000 0.0000 0.0000 40.1367 0.0000 0.0000
# 5 0.0000 0.0000 0.0000 0.0000 40.1367 0.0000
# 6 0.0000 0.0000 0.0000 0.0000 0.0000 46.5487
#
#
#
# Elastic Compliance Matrix: (Units=1/GPa)
#
#
# Indices 1 2 3 4 5 6 
#
# 1 0.028002 -0.020261 -0.003918 0.000000 0.000000 0.000000
# 2 -0.020261 0.028002 -0.003918 0.000000 0.000000 0.000000
# 3 -0.003918 -0.003918 0.014863 0.000000 0.000000 0.000000
# 4 0.000000 0.000000 0.000000 0.024915 0.000000 0.000000
# 5 0.000000 0.000000 0.000000 0.000000 0.024915 0.000000
# 6 0.000000 0.000000 0.000000 0.000000 0.000000 0.021483
#
#
# Mechanical properties :
#
#
# Convention : Reuss Voigt Hill
#
# Bulk Modulus (GPa) = 68.14740 69.99101 69.06920
# Shear Modulus (GPa) = 24.59855 33.23483 28.91669
#
# Velocity S-wave (km/s) = 3.78763 4.40260 4.10664
# Velocity P-wave (km/s) = 7.67284 8.16476 7.92262
#
# Compressibility (1/GPa) = 0.01467408
#
# Stress axis : x y z
#
# Youngs Moduli (GPa) = 35.71175 35.71175 67.28075
#
# Poissons Ratio (x) = 0.72356 0.26358
# Poissons Ratio (y) = 0.72356 0.26358
# Poissons Ratio (z) = 0.13991 0.13991
#
# Static dielectric constant tensor:
#      x y z
#    x 3.360260 0.000000 0.000000 
#    y 0.000000 3.360260 0.000000 
#    z 0.000000 0.000000 2.624690 
# 
# 
# High freq. dielectric constant tensor:
#      x y z
#    x 1.677040 0.000000 0.000000 
#    y 0.000000 1.677040 0.000000 
#    z 0.000000 0.000000 1.590340 
# 
# From -- ./inp_files/9628.got.cif
#   From: 2010.03.12/outbox.cif.g09.slc.cpg/sg134_5_cif.got.tgz:9628.got - 2010.04.06 18:17:22.
