data_PCOD8317796
_publ_section_title
;
Structure prediction by ZEFSAII (Michael W. Deem and Ramdas Pophale) SiO2 
 PCOD8317796
Probable space group: P 42/M N M
;
_chemical_formula_sum "Si O2"
_cell_formula_units_Z 96
_cell_length_a 23.057741
_cell_length_b 23.057741
_cell_length_c 9.119170
_cell_angle_alpha 90.000000
_cell_angle_beta 90.000000
_cell_angle_gamma 90.000000
_cell_volume 4848.292633
_symmetry_space_group_name_H-M "P 42/M N M"
_symmetry_group_IT_number 136
_symmetry_cell_setting 'tetragonal'
loop_
_space_group_symop_operation_xyz
x,y,z
1/2-y,1/2+x,1/2+z
-x,-y,z
1/2+y,1/2-x,1/2+z
1/2+x,1/2-y,1/2-z
1/2-x,1/2+y,1/2-z
y,x,-z
-y,-x,-z
-x,-y,-z
1/2+y,1/2-x,1/2-z
x,y,-z
1/2-y,1/2+x,1/2-z
1/2-x,1/2+y,1/2+z
1/2+x,1/2-y,1/2+z
-y,-x,z
y,x,z
loop_
_atom_site_type_symbol
_atom_site_label
_atom_site_fract_x
_atom_site_fract_y
_atom_site_fract_z
Si Si1 0.424724 0.424724 0.837274
Si Si2 0.173562 0.611652 0.163944
Si Si3 0.458077 0.633712 0.833961
Si Si4 0.250480 0.526617 0.327297
Si Si5 0.658167 0.658167 0.326670
Si Si6 0.072809 0.526540 0.162817
Si Si7 0.602670 0.777530 0.325326
O O1 0.492740 0.414805 0.816113
O O2 0.388692 0.388692 0.719654
O O3 0.404695 0.404695 0.000000
O O4 0.225250 0.587267 0.263336
O O5 0.134594 0.554867 0.155733
O O6 0.138039 0.665919 0.233404
O O7 0.195853 0.627965 0.000000
O O8 0.396538 0.603463 0.799571
O O9 0.472119 0.682697 0.716333
O O10 0.457884 0.659270 0.000000
O O11 0.243390 0.529644 0.500000
O O12 0.223731 0.464690 0.269478
O O13 0.659944 0.659944 0.500000
O O14 0.638463 0.721490 0.267318
O O15 0.073801 0.472955 0.275242
O O16 0.053885 0.506465 0.000000
O O17 0.601404 0.779578 0.500000
#
# Coordination Sequence:
#
# PCOD8317796 Si02
#       7
#     8  16  16  16   8  16  16
#     4  10  19  34  60  92 122 148 184 236 283 333
#     4  10  21  37  54  78 110 148 193 237 282 342
#     4  10  21  38  60  87 120 157 191 227 280 346
#     4  11  22  38  60  86 117 152 191 243 295 342
#     4  10  18  35  61  85 110 150 196 235 283 340
#     4  10  19  31  50  74 106 142 181 234 290 345
#     4   9  19  36  59  82 110 148 194 239 282 340
#
# _framework density 19.800782999999999
#
# number of rings (size 3 to 8) (size 9 to 14) (size 15 to 20)
#    0.000    2.000    1.667    2.750    0.000    4.000 
#    1.500    2.500    0.000    1.500    0.000    0.000 
#    0.000    0.000    0.000    0.000    0.000    0.000 
#
# Total GULP energy -1189577.601910 kJ/mol
# GULP energy per Si atom -12391.433353 kJ/mol
# Density = 1.975572 g / cm^3
# Si number density = 19.800783 Si / 1000 Ang^3
#
#
#
# Elastic Constant Matrix: (Units=GPa)
#
#
# Indices 1 2 3 4 5 6 
#
# 1 82.0587 44.4075 21.2740 0.0000 0.0000 0.0000
# 2 44.4075 82.0587 21.2740 0.0000 0.0000 0.0000
# 3 21.2740 21.2740 56.1099 0.0000 0.0000 0.0000
# 4 0.0000 0.0000 0.0000 24.3961 0.0000 0.0000
# 5 0.0000 0.0000 0.0000 0.0000 24.3961 0.0000
# 6 0.0000 0.0000 0.0000 0.0000 0.0000 38.1931
#
#
#
# Elastic Compliance Matrix: (Units=1/GPa)
#
#
# Indices 1 2 3 4 5 6 
#
# 1 0.017811 -0.008748 -0.003436 0.000000 0.000000 0.000000
# 2 -0.008748 0.017811 -0.003436 0.000000 0.000000 0.000000
# 3 -0.003436 -0.003436 0.020428 0.000000 0.000000 0.000000
# 4 0.000000 0.000000 0.000000 0.040990 0.000000 0.000000
# 5 0.000000 0.000000 0.000000 0.000000 0.040990 0.000000
# 6 0.000000 0.000000 0.000000 0.000000 0.000000 0.026183
#
#
# Mechanical properties :
#
#
# Convention : Reuss Voigt Hill
#
# Bulk Modulus (GPa) = 40.30755 43.79314 42.05035
# Shear Modulus (GPa) = 24.54284 26.28185 25.41235
#
# Velocity S-wave (km/s) = 3.52446 3.64718 3.58635
# Velocity P-wave (km/s) = 6.07973 6.31671 6.19935
#
# Compressibility (1/GPa) = 0.02480925
#
# Stress axis : x y z
#
# Youngs Moduli (GPa) = 56.14359 56.14359 48.95254
#
# Poissons Ratio (x) = 0.49115 0.16822
# Poissons Ratio (y) = 0.49115 0.16822
# Poissons Ratio (z) = 0.19293 0.19293
#
# Static dielectric constant tensor:
#      x y z
#    x 3.640900 0.000000 0.000000 
#    y 0.000000 3.640900 0.000000 
#    z 0.000000 0.000000 3.512580 
# 
# 
# High freq. dielectric constant tensor:
#      x y z
#    x 1.769910 0.000000 0.000000 
#    y 0.000000 1.769910 0.000000 
#    z 0.000000 0.000000 1.748200 
# 
# From -- ./inp_files/2070.got.cif
#   From: 2010.03.12/outbox.cif.g09.slc.cpg/sg136_2_cif.got.tgz:2070.got - 2010.04.06 18:39:43.
