data_PCOD8317162
_publ_section_title
;
Structure prediction by ZEFSAII (Michael W. Deem and Ramdas Pophale) SiO2 
 PCOD8317162
Probable space group: P 42/N N M
;
_chemical_formula_sum "Si O2"
_cell_formula_units_Z 80
_cell_length_a 28.392673
_cell_length_b 28.392673
_cell_length_c 5.007539
_cell_angle_alpha 90.000000
_cell_angle_beta 90.000000
_cell_angle_gamma 90.000000
_cell_volume 4036.796919
_symmetry_space_group_name_H-M "P 42/N N M"
_symmetry_group_IT_number 134
_space_group.IT_coordinate_system_code '2'
_symmetry_cell_setting 'tetragonal'
loop_
_space_group_symop_operation_xyz
x,y,z
1/2-y,x,1/2+z
1/2-x,1/2-y,z
y,1/2-x,1/2+z
x,1/2-y,1/2-z
1/2-x,y,1/2-z
y,x,-z
1/2-y,1/2-x,-z
-x,-y,-z
1/2+y,-x,1/2-z
1/2+x,1/2+y,-z
-y,1/2+x,1/2-z
-x,1/2+y,1/2+z
1/2+x,-y,1/2+z
-y,-x,z
1/2+y,1/2+x,z
loop_
_atom_site_type_symbol
_atom_site_label
_atom_site_fract_x
_atom_site_fract_y
_atom_site_fract_z
Si Si1 0.153670 0.055566 0.610505
Si Si2 0.901596 0.968935 0.885130
Si Si3 0.282646 0.357681 0.501407
Si Si4 0.198820 0.957918 0.626727
Si Si5 0.432719 0.857179 0.374773
O O1 0.109256 0.049567 0.411635
O O2 0.177141 0.103626 0.522746
O O3 0.191942 0.013745 0.590036
O O4 0.135693 0.055837 0.914343
O O5 0.895529 0.025087 0.865011
O O6 0.953303 0.953303 0.000000
O O7 0.250000 0.362445 0.750000
O O8 0.306348 0.306348 0.500000
O O9 0.250000 0.366344 0.250000
O O10 0.250000 0.947190 0.750000
O O11 0.186508 0.936469 0.334570
O O12 0.162346 0.933550 0.826500
O O13 0.383960 0.883960 0.321413
#
# Coordination Sequence:
#
# PCOD8317162 Si02
#       5
#    16  16  16  16  16
#     4  10  21  36  55  78 102 130 174 228 275 314
#     4  10  19  33  54  78 108 145 180 215 257 314
#     4  12  25  39  55  72  95 129 171 224 284 344
#     4  10  20  36  58  82 110 142 180 223 267 314
#     4  10  21  35  53  81 117 150 179 219 263 313
#
# _framework density 19.817693999999999
#
# number of rings (size 3 to 8) (size 9 to 14) (size 15 to 20)
#    0.000    1.600    0.000    5.400    0.000    4.800 
#    0.000    0.000    0.000    7.200    0.000    0.000 
#    0.000   28.000    0.000    0.000    0.000    0.000 
#
# Total GULP energy -991577.646568 kJ/mol
# GULP energy per Si atom -12394.720582 kJ/mol
# Density = 1.977259 g / cm^3
# Si number density = 19.817694 Si / 1000 Ang^3
#
#
#
# Elastic Constant Matrix: (Units=GPa)
#
#
# Indices 1 2 3 4 5 6 
#
# 1 53.1664 30.8583 13.2925 0.0000 0.0000 0.0000
# 2 30.8583 53.1664 13.2925 0.0000 0.0000 0.0000
# 3 13.2925 13.2925 103.6061 0.0000 0.0000 0.0000
# 4 0.0000 0.0000 0.0000 25.3861 0.0000 0.0000
# 5 0.0000 0.0000 0.0000 0.0000 25.3861 0.0000
# 6 0.0000 0.0000 0.0000 0.0000 0.0000 26.3753
#
#
#
# Elastic Compliance Matrix: (Units=1/GPa)
#
#
# Indices 1 2 3 4 5 6 
#
# 1 0.028616 -0.016211 -0.001592 0.000000 0.000000 0.000000
# 2 -0.016211 0.028616 -0.001592 0.000000 0.000000 0.000000
# 3 -0.001592 -0.001592 0.010060 0.000000 0.000000 0.000000
# 4 0.000000 0.000000 0.000000 0.039392 0.000000 0.000000
# 5 0.000000 0.000000 0.000000 0.000000 0.039392 0.000000
# 6 0.000000 0.000000 0.000000 0.000000 0.000000 0.037914
#
#
# Mechanical properties :
#
#
# Convention : Reuss Voigt Hill
#
# Bulk Modulus (GPa) = 35.08294 36.09171 35.58732
# Shear Modulus (GPa) = 21.52582 25.59585 23.56084
#
# Velocity S-wave (km/s) = 3.29932 3.59773 3.45175
# Velocity P-wave (km/s) = 5.67937 5.95900 5.82086
#
# Compressibility (1/GPa) = 0.02850388
#
# Stress axis : x y z
#
# Youngs Moduli (GPa) = 34.94564 34.94564 99.40042
#
# Poissons Ratio (x) = 0.56651 0.15820
# Poissons Ratio (y) = 0.56651 0.15820
# Poissons Ratio (z) = 0.05562 0.05562
#
# Static dielectric constant tensor:
#      x y z
#    x 3.319960 0.000000 0.000000 
#    y 0.000000 3.319960 0.000000 
#    z 0.000000 0.000000 3.806980 
# 
# 
# High freq. dielectric constant tensor:
#      x y z
#    x 1.749180 0.000000 0.000000 
#    y 0.000000 1.749180 0.000000 
#    z 0.000000 0.000000 1.798550 
# 
# From -- ./inp_files/1132.got.cif
#   From: 2010.03.12/outbox.cif.g09.slc.cpg/sg134_1_cif.got.tgz:1132.got - 2010.04.06 18:17:22.
