data_PCOD8317076
_publ_section_title
;
Structure prediction by ZEFSAII (Michael W. Deem and Ramdas Pophale) SiO2 
 PCOD8317076
Probable space group: P 42/N N M
;
_chemical_formula_sum "Si O2"
_cell_formula_units_Z 96
_cell_length_a 21.290121
_cell_length_b 21.290121
_cell_length_c 12.164831
_cell_angle_alpha 90.000000
_cell_angle_beta 90.000000
_cell_angle_gamma 90.000000
_cell_volume 5513.943850
_symmetry_space_group_name_H-M "P 42/N N M"
_symmetry_group_IT_number 134
_space_group.IT_coordinate_system_code '2'
_symmetry_cell_setting 'tetragonal'
loop_
_space_group_symop_operation_xyz
x,y,z
1/2-y,x,1/2+z
1/2-x,1/2-y,z
y,1/2-x,1/2+z
x,1/2-y,1/2-z
1/2-x,y,1/2-z
y,x,-z
1/2-y,1/2-x,-z
-x,-y,-z
1/2+y,-x,1/2-z
1/2+x,1/2+y,-z
-y,1/2+x,1/2-z
-x,1/2+y,1/2+z
1/2+x,-y,1/2+z
-y,-x,z
1/2+y,1/2+x,z
loop_
_atom_site_type_symbol
_atom_site_label
_atom_site_fract_x
_atom_site_fract_y
_atom_site_fract_z
Si Si1 0.250000 0.647107 0.750000
Si Si2 0.580105 0.519748 0.393628
Si Si3 0.859422 0.889233 0.690744
Si Si4 0.081120 0.816779 0.552467
Si Si5 0.683882 0.683882 0.500000
Si Si6 0.307736 0.119086 0.424100
Si Si7 0.233254 0.496277 0.128471
O O1 0.190744 0.690744 0.715975
O O2 0.231368 0.602684 0.852372
O O3 0.561304 0.561304 0.500000
O O4 0.521880 0.478121 0.356020
O O5 0.593271 0.567434 0.292643
O O6 0.641240 0.477222 0.409405
O O7 0.859729 0.832050 0.604232
O O8 0.825282 0.864744 0.799083
O O9 0.825839 0.950011 0.638303
O O10 0.139538 0.860463 0.517067
O O11 0.057598 0.778482 0.445876
O O12 0.754882 0.668528 0.536202
O O13 0.368920 0.131081 0.500000
O O14 0.288279 0.045778 0.428144
O O15 0.250000 0.521334 0.250000
#
# Coordination Sequence:
#
# PCOD8317076 Si02
#       7
#     8  16  16  16   8  16  16
#     4   9  20  38  56  76 106 138 167 210 264 314
#     4  10  17  28  52  83 106 126 165 219 262 310
#     4  10  18  32  49  70 103 135 167 218 270 310
#     4  10  19  33  57  84 104 131 172 214 264 317
#     4  10  17  32  49  66  92 130 179 224 260 294
#     4  10  21  32  46  68  98 140 180 214 257 309
#     4   9  18  33  49  70 103 138 168 210 260 311
#
# _framework density 17.410405999999998
#
# number of rings (size 3 to 8) (size 9 to 14) (size 15 to 20)
#    0.000    2.250    2.500    2.750    0.000    2.000 
#    0.000    5.833    0.000    1.500    0.000    0.000 
#    0.000    0.000    0.000    0.000    0.000    0.000 
#
# Total GULP energy -1189602.387831 kJ/mol
# GULP energy per Si atom -12391.691540 kJ/mol
# Density = 1.737078 g / cm^3
# Si number density = 17.410406 Si / 1000 Ang^3
#
#
#
# Elastic Constant Matrix: (Units=GPa)
#
#
# Indices 1 2 3 4 5 6 
#
# 1 85.7886 50.6829 66.6235 0.0000 0.0000 0.0000
# 2 50.6829 85.7895 66.6227 0.0000 0.0000 0.0000
# 3 66.6235 66.6227 123.7738 0.0000 0.0000 0.0000
# 4 0.0000 0.0000 0.0000 32.7655 0.0000 0.0000
# 5 0.0000 0.0000 0.0000 0.0000 32.7655 0.0000
# 6 0.0000 0.0000 0.0000 0.0000 0.0000 24.7180
#
#
#
# Elastic Compliance Matrix: (Units=1/GPa)
#
#
# Indices 1 2 3 4 5 6 
#
# 1 0.021965 -0.006521 -0.008313 0.000000 0.000000 0.000000
# 2 -0.006521 0.021964 -0.008313 0.000000 0.000000 0.000000
# 3 -0.008313 -0.008313 0.017028 0.000000 0.000000 0.000000
# 4 0.000000 0.000000 0.000000 0.030520 0.000000 0.000000
# 5 0.000000 0.000000 0.000000 0.000000 0.030520 0.000000
# 6 0.000000 0.000000 0.000000 0.000000 0.000000 0.040456
#
#
# Mechanical properties :
#
#
# Convention : Reuss Voigt Hill
#
# Bulk Modulus (GPa) = 68.19169 73.69001 70.94085
# Shear Modulus (GPa) = 23.40445 25.47798 24.44121
#
# Velocity S-wave (km/s) = 3.67042 3.82956 3.75083
# Velocity P-wave (km/s) = 7.56405 7.87218 7.71965
#
# Compressibility (1/GPa) = 0.01466454
#
# Stress axis : x y z
#
# Youngs Moduli (GPa) = 45.52724 45.52881 58.72545
#
# Poissons Ratio (x) = 0.29687 0.48820
# Poissons Ratio (y) = 0.29686 0.48816
# Poissons Ratio (z) = 0.37848 0.37847
#
# Static dielectric constant tensor:
#      x y z
#    x 3.278060 0.000000 0.000000 
#    y 0.000000 3.278060 0.000000 
#    z 0.000000 0.000000 3.153540 
# 
# 
# High freq. dielectric constant tensor:
#      x y z
#    x 1.664420 0.000000 0.000000 
#    y 0.000000 1.664420 0.000000 
#    z 0.000000 0.000000 1.656890 
# 
# From -- ./inp_files/3266.got.cif
#   From: 2010.03.12/outbox.cif.g09.slc.cpg/sg134_2_cif.got.tgz:3266.got - 2010.04.06 18:17:22.
