data_PCOD8317453
_publ_section_title
;
Structure prediction by ZEFSAII (Michael W. Deem and Ramdas Pophale) SiO2 
 PCOD8317453
Probable space group: P 42/M B C
;
_chemical_formula_sum "Si O2"
_cell_formula_units_Z 96
_cell_length_a 18.040426
_cell_length_b 18.040426
_cell_length_c 15.491393
_cell_angle_alpha 90.000000
_cell_angle_beta 90.000000
_cell_angle_gamma 90.000000
_cell_volume 5041.781831
_symmetry_space_group_name_H-M "P 42/M B C"
_symmetry_group_IT_number 135
_symmetry_cell_setting 'tetragonal'
loop_
_space_group_symop_operation_xyz
x,y,z
-y,x,1/2+z
-x,-y,z
y,-x,1/2+z
1/2+x,1/2-y,-z
1/2-x,1/2+y,-z
1/2+y,1/2+x,1/2-z
1/2-y,1/2-x,1/2-z
-x,-y,-z
y,-x,1/2-z
x,y,-z
-y,x,1/2-z
1/2-x,1/2+y,z
1/2+x,1/2-y,z
1/2-y,1/2-x,1/2+z
1/2+y,1/2+x,1/2+z
loop_
_atom_site_type_symbol
_atom_site_label
_atom_site_fract_x
_atom_site_fract_y
_atom_site_fract_z
Si Si1 0.468478 0.925767 0.345807
Si Si2 0.920368 0.909429 0.751563
Si Si3 0.832014 0.836926 0.901098
Si Si4 0.210930 0.553300 0.098746
Si Si5 0.413149 0.691973 0.403270
Si Si6 0.667093 0.168985 0.853240
O O1 0.449796 0.949796 0.250000
O O2 0.532398 0.861786 0.345200
O O3 0.391588 0.893928 0.386814
O O4 0.500000 0.000000 0.394149
O O5 0.888415 0.878537 0.839878
O O6 0.890440 0.869753 0.665728
O O7 0.006943 0.896903 0.759731
O O8 0.747438 0.865917 0.879457
O O9 0.847593 0.750425 0.888521
O O10 0.849362 0.858919 0.000000
O O11 0.275816 0.494270 0.117683
O O12 0.184401 0.548744 0.000000
O O13 0.410270 0.658461 0.500000
O O14 0.352144 0.755304 0.394718
O O15 0.669464 0.169464 0.750000
#
# Coordination Sequence:
#
# PCOD8317453 Si02
#       6
#    16  16  16  16  16  16
#     4   9  19  36  58  88 120 158 201 252 309 377
#     4  11  23  37  58  86 115 152 199 248 299 355
#     4  11  22  39  60  88 122 160 204 255 308 368
#     4   9  19  36  59  81 112 158 198 237 302 372
#     4  10  19  36  58  82 112 150 193 238 295 366
#     4  10  19  35  61  87 116 157 205 255 306 365
#
# _framework density 19.040887000000001
#
# number of rings (size 3 to 8) (size 9 to 14) (size 15 to 20)
#    0.000    2.000    3.333    0.500    0.000    1.667 
#    3.000    3.333    0.000    2.000    0.000    0.000 
#    0.000    0.000    0.000    0.000    0.000    0.000 
#
# Total GULP energy -1189649.039156 kJ/mol
# GULP energy per Si atom -12392.177491 kJ/mol
# Density = 1.899755 g / cm^3
# Si number density = 19.040887 Si / 1000 Ang^3
#
#
#
# Elastic Constant Matrix: (Units=GPa)
#
#
# Indices 1 2 3 4 5 6 
#
# 1 136.4442 50.4971 45.8781 0.0000 0.0000 0.0000
# 2 50.4971 136.4442 45.8781 0.0000 0.0000 0.0000
# 3 45.8781 45.8781 105.6580 0.0000 0.0000 0.0000
# 4 0.0000 0.0000 0.0000 22.1165 0.0000 0.0000
# 5 0.0000 0.0000 0.0000 0.0000 22.1165 0.0000
# 6 0.0000 0.0000 0.0000 0.0000 0.0000 26.6124
#
#
#
# Elastic Compliance Matrix: (Units=1/GPa)
#
#
# Indices 1 2 3 4 5 6 
#
# 1 0.009217 -0.002418 -0.002952 0.000000 0.000000 0.000000
# 2 -0.002418 0.009217 -0.002952 0.000000 0.000000 0.000000
# 3 -0.002952 -0.002952 0.012028 0.000000 0.000000 0.000000
# 4 0.000000 0.000000 0.000000 0.045215 0.000000 0.000000
# 5 0.000000 0.000000 0.000000 0.000000 0.045215 0.000000
# 6 0.000000 0.000000 0.000000 0.000000 0.000000 0.037577
#
#
# Mechanical properties :
#
#
# Convention : Reuss Voigt Hill
#
# Bulk Modulus (GPa) = 72.37539 73.67256 73.02398
# Shear Modulus (GPa) = 27.82142 29.92195 28.87169
#
# Velocity S-wave (km/s) = 3.82663 3.96846 3.89819
# Velocity P-wave (km/s) = 7.59060 7.73137 7.66131
#
# Compressibility (1/GPa) = 0.01381685
#
# Stress axis : x y z
#
# Youngs Moduli (GPa) = 108.49993 108.49993 83.13965
#
# Poissons Ratio (x) = 0.26240 0.24541
# Poissons Ratio (y) = 0.26240 0.24541
# Poissons Ratio (z) = 0.32027 0.32027
#
# Static dielectric constant tensor:
#      x y z
#    x 3.789650 0.000000 0.000000 
#    y 0.000000 3.789650 0.000000 
#    z 0.000000 0.000000 3.432510 
# 
# 
# High freq. dielectric constant tensor:
#      x y z
#    x 1.734950 0.000000 0.000000 
#    y 0.000000 1.734950 0.000000 
#    z 0.000000 0.000000 1.738040 
# 
# From -- ./inp_files/4485.got.cif
#   From: 2010.03.12/outbox.cif.g09.slc.cpg/sg135_3_cif.got.tgz:4485.got - 2010.04.06 18:31:24.
