data_PCOD8317262
_publ_section_title
;
Structure prediction by ZEFSAII (Michael W. Deem and Ramdas Pophale) SiO2 
 PCOD8317262
Probable space group: P 42/N N M
;
_chemical_formula_sum "Si O2"
_cell_formula_units_Z 80
_cell_length_a 12.695988
_cell_length_b 12.695988
_cell_length_c 27.603144
_cell_angle_alpha 90.000000
_cell_angle_beta 90.000000
_cell_angle_gamma 90.000000
_cell_volume 4449.298647
_symmetry_space_group_name_H-M "P 42/N N M"
_symmetry_group_IT_number 134
_space_group.IT_coordinate_system_code '2'
_symmetry_cell_setting 'tetragonal'
loop_
_space_group_symop_operation_xyz
x,y,z
1/2-y,x,1/2+z
1/2-x,1/2-y,z
y,1/2-x,1/2+z
x,1/2-y,1/2-z
1/2-x,y,1/2-z
y,x,-z
1/2-y,1/2-x,-z
-x,-y,-z
1/2+y,-x,1/2-z
1/2+x,1/2+y,-z
-y,1/2+x,1/2-z
-x,1/2+y,1/2+z
1/2+x,-y,1/2+z
-y,-x,z
1/2+y,1/2+x,z
loop_
_atom_site_type_symbol
_atom_site_label
_atom_site_fract_x
_atom_site_fract_y
_atom_site_fract_z
Si Si1 0.365491 0.462063 0.767051
Si Si2 0.248720 0.919517 0.109871
Si Si3 0.060539 0.109578 0.669777
Si Si4 0.219166 0.130850 0.860515
Si Si5 0.065485 0.105082 0.946170
O O1 0.250000 0.496742 0.750000
O O2 0.432505 0.567495 0.772484
O O3 0.416908 0.382311 0.727469
O O4 0.361582 0.404437 0.818673
O O5 0.156353 0.843648 0.131184
O O6 0.347441 0.847441 0.092502
O O7 0.282681 0.004454 0.150950
O O8 0.202864 0.986163 0.064495
O O9 0.167005 0.075128 0.641613
O O10 0.985285 0.014716 0.656978
O O11 0.250000 0.250000 0.850210
O O12 0.166768 0.108937 0.911869
O O13 0.111990 0.111990 0.000000
O O14 0.005264 0.994737 0.938445
#
# Coordination Sequence:
#
# PCOD8317262 Si02
#       5
#    16  16  16  16  16
#     4   9  19  33  53  77 107 141 179 217 262 317
#     4   9  17  33  56  79 108 144 177 214 267 323
#     4   9  18  34  52  77 109 138 173 217 260 316
#     4  11  20  34  54  78 106 142 177 220 270 319
#     4  10  21  37  56  79 106 137 180 227 269 320
#
# _framework density 17.980360999999998
#
# number of rings (size 3 to 8) (size 9 to 14) (size 15 to 20)
#    0.000    2.400    2.000    0.600    0.000    4.200 
#    0.000    1.000    0.000    6.600    0.000    5.600 
#    0.000    0.000    0.000    0.000    0.000    0.000 
#
# Total GULP energy -991488.383010 kJ/mol
# GULP energy per Si atom -12393.604788 kJ/mol
# Density = 1.793944 g / cm^3
# Si number density = 17.980361 Si / 1000 Ang^3
#
#
#
# Elastic Constant Matrix: (Units=GPa)
#
#
# Indices 1 2 3 4 5 6 
#
# 1 93.2284 41.8958 70.2841 0.0000 0.0000 0.0000
# 2 41.8958 93.2284 70.2841 0.0000 0.0000 0.0000
# 3 70.2841 70.2841 139.7146 0.0000 0.0000 0.0000
# 4 0.0000 0.0000 0.0000 27.4923 0.0000 0.0000
# 5 0.0000 0.0000 0.0000 0.0000 27.4923 0.0000
# 6 0.0000 0.0000 0.0000 0.0000 0.0000 21.4880
#
#
#
# Elastic Compliance Matrix: (Units=1/GPa)
#
#
# Indices 1 2 3 4 5 6 
#
# 1 0.017503 -0.001978 -0.007810 0.000000 0.000000 0.000000
# 2 -0.001978 0.017503 -0.007810 0.000000 0.000000 0.000000
# 3 -0.007810 -0.007810 0.015015 0.000000 0.000000 0.000000
# 4 0.000000 0.000000 0.000000 0.036374 0.000000 0.000000
# 5 0.000000 0.000000 0.000000 0.000000 0.036374 0.000000
# 6 0.000000 0.000000 0.000000 0.000000 0.000000 0.046538
#
#
# Mechanical properties :
#
#
# Convention : Reuss Voigt Hill
#
# Bulk Modulus (GPa) = 67.45104 76.78884 72.11994
# Shear Modulus (GPa) = 23.87269 24.87503 24.37386
#
# Velocity S-wave (km/s) = 3.64773 3.72352 3.68582
# Velocity P-wave (km/s) = 7.43884 7.82853 7.63617
#
# Compressibility (1/GPa) = 0.01482557
#
# Stress axis : x y z
#
# Youngs Moduli (GPa) = 57.13275 57.13275 66.59880
#
# Poissons Ratio (x) = 0.11299 0.52014
# Poissons Ratio (y) = 0.11299 0.52014
# Poissons Ratio (z) = 0.44621 0.44621
#
# Static dielectric constant tensor:
#      x y z
#    x 3.765110 0.000000 0.000000 
#    y 0.000000 3.765110 0.000000 
#    z 0.000000 0.000000 3.208450 
# 
# 
# High freq. dielectric constant tensor:
#      x y z
#    x 1.702760 0.000000 0.000000 
#    y 0.000000 1.702760 0.000000 
#    z 0.000000 0.000000 1.674000 
# 
# From -- ./inp_files/11249.got.cif
#   From: 2010.03.12/outbox.cif.g09.slc.cpg/sg134_6_cif.got.tgz:11249.got - 2010.04.06 18:17:22.
