data_PCOD8317106
_publ_section_title
;
Structure prediction by ZEFSAII (Michael W. Deem and Ramdas Pophale) SiO2 
 PCOD8317106
Probable space group: P 42/N N M
;
_chemical_formula_sum "Si O2"
_cell_formula_units_Z 112
_cell_length_a 14.004510
_cell_length_b 14.004510
_cell_length_c 30.384277
_cell_angle_alpha 90.000000
_cell_angle_beta 90.000000
_cell_angle_gamma 90.000000
_cell_volume 5959.155837
_symmetry_space_group_name_H-M "P 42/N N M"
_symmetry_group_IT_number 134
_space_group.IT_coordinate_system_code '2'
_symmetry_cell_setting 'tetragonal'
loop_
_space_group_symop_operation_xyz
x,y,z
1/2-y,x,1/2+z
1/2-x,1/2-y,z
y,1/2-x,1/2+z
x,1/2-y,1/2-z
1/2-x,y,1/2-z
y,x,-z
1/2-y,1/2-x,-z
-x,-y,-z
1/2+y,-x,1/2-z
1/2+x,1/2+y,-z
-y,1/2+x,1/2-z
-x,1/2+y,1/2+z
1/2+x,-y,1/2+z
-y,-x,z
1/2+y,1/2+x,z
loop_
_atom_site_type_symbol
_atom_site_label
_atom_site_fract_x
_atom_site_fract_y
_atom_site_fract_z
Si Si1 0.472877 0.122392 0.837381
Si Si2 0.972598 0.879555 0.854706
Si Si3 0.417821 0.072561 0.935810
Si Si4 0.642702 0.729286 0.698976
Si Si5 0.219931 0.445717 0.458745
Si Si6 0.534294 0.183034 0.631615
Si Si7 0.561208 0.803262 0.554369
O O1 0.442209 0.098344 0.886313
O O2 0.382476 0.123853 0.805753
O O3 0.527820 0.222928 0.838782
O O4 0.543944 0.043944 0.817475
O O5 0.939419 0.786878 0.827386
O O6 0.993613 0.856195 0.906120
O O7 0.887462 0.954200 0.850278
O O8 0.070679 0.929322 0.836731
O O9 0.433850 0.166097 0.966106
O O10 0.307413 0.048572 0.935839
O O11 0.484338 0.984338 0.952306
O O12 0.750000 0.750000 0.680937
O O13 0.633605 0.750000 0.750000
O O14 0.200691 0.522330 0.420696
O O15 0.170904 0.343564 0.445784
O O16 0.177092 0.482781 0.505573
O O17 0.638995 0.138995 0.638495
#
# Coordination Sequence:
#
# PCOD8317106 Si02
#       7
#    16  16  16  16  16  16  16
#     4  10  20  35  57  84 112 147 186 228 278 334
#     4  10  20  35  58  84 111 146 184 228 284 336
#     4  10  19  30  48  74 105 143 189 235 280 327
#     4  11  22  38  62  88 112 139 178 230 283 337
#     4   9  19  29  46  76 106 147 191 233 276 326
#     4   9  18  33  53  79 116 154 186 225 272 327
#     4  10  18  31  49  72 108 145 187 235 281 325
#
# _framework density 18.794606999999999
#
# number of rings (size 3 to 8) (size 9 to 14) (size 15 to 20)
#    0.000    2.143    2.857    0.857    0.000    3.714 
#    0.000    2.857    0.000    1.714    0.000    3.000 
#    0.000    0.000    0.000    0.000    0.000    0.000 
#
# Total GULP energy -1387918.644013 kJ/mol
# GULP energy per Si atom -12392.130750 kJ/mol
# Density = 1.875183 g / cm^3
# Si number density = 18.794607 Si / 1000 Ang^3
#
#
#
# Elastic Constant Matrix: (Units=GPa)
#
#
# Indices 1 2 3 4 5 6 
#
# 1 104.5936 74.9607 34.2983 0.0000 0.0000 0.0000
# 2 74.9607 104.5936 34.2983 0.0000 0.0000 0.0000
# 3 34.2983 34.2983 66.3731 0.0000 0.0000 0.0000
# 4 0.0000 0.0000 0.0000 16.0797 0.0000 0.0000
# 5 0.0000 0.0000 0.0000 0.0000 16.0797 0.0000
# 6 0.0000 0.0000 0.0000 0.0000 0.0000 32.5231
#
#
#
# Elastic Compliance Matrix: (Units=1/GPa)
#
#
# Indices 1 2 3 4 5 6 
#
# 1 0.020343 -0.013403 -0.003586 0.000000 0.000000 0.000000
# 2 -0.013403 0.020343 -0.003586 0.000000 0.000000 0.000000
# 3 -0.003586 -0.003586 0.018772 0.000000 0.000000 0.000000
# 4 0.000000 0.000000 0.000000 0.062190 0.000000 0.000000
# 5 0.000000 0.000000 0.000000 0.000000 0.062190 0.000000
# 6 0.000000 0.000000 0.000000 0.000000 0.000000 0.030747
#
#
# Mechanical properties :
#
#
# Convention : Reuss Voigt Hill
#
# Bulk Modulus (GPa) = 54.62267 62.51942 58.57105
# Shear Modulus (GPa) = 19.09573 21.73669 20.41621
#
# Velocity S-wave (km/s) = 3.19097 3.40448 3.29945
# Velocity P-wave (km/s) = 6.53471 6.98504 6.76362
#
# Compressibility (1/GPa) = 0.01830742
#
# Stress axis : x y z
#
# Youngs Moduli (GPa) = 49.15750 49.15750 53.26985
#
# Poissons Ratio (x) = 0.65888 0.19102
# Poissons Ratio (y) = 0.65888 0.19102
# Poissons Ratio (z) = 0.17627 0.17627
#
# Static dielectric constant tensor:
#      x y z
#    x 3.476870 0.000000 0.000000 
#    y 0.000000 3.476870 0.000000 
#    z 0.000000 0.000000 3.351240 
# 
# 
# High freq. dielectric constant tensor:
#      x y z
#    x 1.714720 0.000000 0.000000 
#    y 0.000000 1.714720 0.000000 
#    z 0.000000 0.000000 1.722340 
# 
# From -- ./inp_files/11673.got.cif
#   From: 2010.03.12/outbox.cif.g09.slc.cpg/sg134_6_cif.got.tgz:11673.got - 2010.04.06 18:17:22.
