data_PCOD8317176
_publ_section_title
;
Structure prediction by ZEFSAII (Michael W. Deem and Ramdas Pophale) SiO2 
 PCOD8317176
Probable space group: P 42/N N M
;
_chemical_formula_sum "Si O2"
_cell_formula_units_Z 72
_cell_length_a 13.543032
_cell_length_b 13.543032
_cell_length_c 20.527918
_cell_angle_alpha 90.000000
_cell_angle_beta 90.000000
_cell_angle_gamma 90.000000
_cell_volume 3765.101717
_symmetry_space_group_name_H-M "P 42/N N M"
_symmetry_group_IT_number 134
_space_group.IT_coordinate_system_code '2'
_symmetry_cell_setting 'tetragonal'
loop_
_space_group_symop_operation_xyz
x,y,z
1/2-y,x,1/2+z
1/2-x,1/2-y,z
y,1/2-x,1/2+z
x,1/2-y,1/2-z
1/2-x,y,1/2-z
y,x,-z
1/2-y,1/2-x,-z
-x,-y,-z
1/2+y,-x,1/2-z
1/2+x,1/2+y,-z
-y,1/2+x,1/2-z
-x,1/2+y,1/2+z
1/2+x,-y,1/2+z
-y,-x,z
1/2+y,1/2+x,z
loop_
_atom_site_type_symbol
_atom_site_label
_atom_site_fract_x
_atom_site_fract_y
_atom_site_fract_z
Si Si1 0.026322 0.362729 0.831404
Si Si2 0.199148 0.144593 0.570374
Si Si3 0.008931 0.356513 0.684741
Si Si4 0.089884 0.750000 0.750000
Si Si5 0.501356 0.342488 0.124103
O O1 0.939307 0.439307 0.848187
O O2 0.120174 0.385688 0.875557
O O3 0.059456 0.365146 0.755981
O O4 0.992370 0.251178 0.845241
O O5 0.250000 0.250000 0.587714
O O6 0.148850 0.148850 0.500000
O O7 0.274964 0.051467 0.569504
O O8 0.074934 0.420045 0.636942
O O9 0.898891 0.398891 0.690161
O O10 0.156917 0.843084 0.729057
O O11 0.022730 0.778213 0.811467
O O12 0.602766 0.397235 0.099833
#
# Coordination Sequence:
#
# PCOD8317176 Si02
#       5
#    16  16  16   8  16
#     4  10  20  35  56  82 112 147 183 227 282 336
#     4  11  23  39  55  79 114 150 196 240 274 323
#     4   9  18  33  55  86 114 139 180 227 282 347
#     4   9  18  32  55  90 126 152 181 230 287 342
#     4  10  19  35  58  83 112 148 185 228 286 341
#
# _framework density 19.122990999999999
#
# number of rings (size 3 to 8) (size 9 to 14) (size 15 to 20)
#    0.000    2.111    2.222    1.333    0.000    3.556 
#    0.000    5.556    0.000    0.000    0.000    0.000 
#    0.000    0.000    0.000    0.000    0.000    0.000 
#
# Total GULP energy -892312.425067 kJ/mol
# GULP energy per Si atom -12393.228126 kJ/mol
# Density = 1.907947 g / cm^3
# Si number density = 19.122991 Si / 1000 Ang^3
#
#
#
# Elastic Constant Matrix: (Units=GPa)
#
#
# Indices 1 2 3 4 5 6 
#
# 1 100.3159 45.4876 39.5046 0.0000 0.0000 0.0000
# 2 45.4876 100.3159 39.5046 0.0000 0.0000 0.0000
# 3 39.5046 39.5046 55.2962 0.0000 0.0000 0.0000
# 4 0.0000 0.0000 0.0000 23.7745 0.0000 0.0000
# 5 0.0000 0.0000 0.0000 0.0000 23.7745 0.0000
# 6 0.0000 0.0000 0.0000 0.0000 0.0000 40.2694
#
#
#
# Elastic Compliance Matrix: (Units=1/GPa)
#
#
# Indices 1 2 3 4 5 6 
#
# 1 0.014715 -0.003524 -0.007995 0.000000 0.000000 0.000000
# 2 -0.003524 0.014715 -0.007995 0.000000 0.000000 0.000000
# 3 -0.007995 -0.007995 0.029508 0.000000 0.000000 0.000000
# 4 0.000000 0.000000 0.000000 0.042062 0.000000 0.000000
# 5 0.000000 0.000000 0.000000 0.000000 0.042062 0.000000
# 6 0.000000 0.000000 0.000000 0.000000 0.000000 0.024833
#
#
# Mechanical properties :
#
#
# Convention : Reuss Voigt Hill
#
# Bulk Modulus (GPa) = 50.22646 56.10238 53.16442
# Shear Modulus (GPa) = 23.41277 26.32575 24.86926
#
# Velocity S-wave (km/s) = 3.50283 3.71435 3.61014
# Velocity P-wave (km/s) = 6.53313 6.91351 6.72601
#
# Compressibility (1/GPa) = 0.01990983
#
# Stress axis : x y z
#
# Youngs Moduli (GPa) = 67.95858 67.95858 33.88919
#
# Poissons Ratio (x) = 0.23948 0.27094
# Poissons Ratio (y) = 0.23948 0.27094
# Poissons Ratio (z) = 0.54333 0.54333
#
# Static dielectric constant tensor:
#      x y z
#    x 3.667770 0.000000 0.000000 
#    y 0.000000 3.667770 0.000000 
#    z 0.000000 0.000000 3.159640 
# 
# 
# High freq. dielectric constant tensor:
#      x y z
#    x 1.749910 0.000000 0.000000 
#    y 0.000000 1.749910 0.000000 
#    z 0.000000 0.000000 1.707920 
# 
# From -- ./inp_files/7603.got.cif
#   From: 2010.03.12/outbox.cif.g09.slc.cpg/sg134_4_cif.got.tgz:7603.got - 2010.04.06 18:17:22.
