data_PCOD8317792
_publ_section_title
;
Structure prediction by ZEFSAII (Michael W. Deem and Ramdas Pophale) SiO2 
 PCOD8317792
Probable space group: P 42/M N M
;
_chemical_formula_sum "Si O2"
_cell_formula_units_Z 64
_cell_length_a 12.374234
_cell_length_b 12.374234
_cell_length_c 23.603739
_cell_angle_alpha 90.000000
_cell_angle_beta 90.000000
_cell_angle_gamma 90.000000
_cell_volume 3614.243865
_symmetry_space_group_name_H-M "P 42/M N M"
_symmetry_group_IT_number 136
_symmetry_cell_setting 'tetragonal'
loop_
_space_group_symop_operation_xyz
x,y,z
1/2-y,1/2+x,1/2+z
-x,-y,z
1/2+y,1/2-x,1/2+z
1/2+x,1/2-y,1/2-z
1/2-x,1/2+y,1/2-z
y,x,-z
-y,-x,-z
-x,-y,-z
1/2+y,1/2-x,1/2-z
x,y,-z
1/2-y,1/2+x,1/2-z
1/2-x,1/2+y,1/2+z
1/2+x,1/2-y,1/2+z
-y,-x,z
y,x,z
loop_
_atom_site_type_symbol
_atom_site_label
_atom_site_fract_x
_atom_site_fract_y
_atom_site_fract_z
Si Si1 0.720657 0.888040 0.897146
Si Si2 0.725153 0.547878 0.114807
Si Si3 0.481645 0.127894 0.500000
Si Si4 0.090686 0.090686 0.308521
Si Si5 0.250500 0.074209 0.500000
Si Si6 0.908866 0.908866 0.820549
O O1 0.792912 0.792912 0.926501
O O2 0.619225 0.828768 0.865851
O O3 0.796369 0.948102 0.850308
O O4 0.682075 0.971635 0.943830
O O5 0.617669 0.617669 0.107685
O O6 0.698923 0.453078 0.160047
O O7 0.756455 0.501025 0.054333
O O8 0.354180 0.152746 0.500000
O O9 0.500000 0.000000 0.500000
O O10 0.119270 0.119270 0.244135
O O11 0.000000 0.000000 0.307947
O O12 0.141079 0.141079 0.500000
O O13 0.000000 0.000000 0.827892
#
# Coordination Sequence:
#
# PCOD8317792 Si02
#       6
#    16  16   8   8   8   8
#     4   9  20  37  61  78 105 154 195 226 278 351
#     4  10  18  33  57  85 113 145 187 224 287 354
#     4  12  21  35  56  81 121 150 180 235 291 351
#     4   9  18  33  59  83 114 144 185 247 277 327
#     4  12  23  32  51  89 121 147 180 234 301 351
#     4   9  20  39  61  84 107 150 212 243 269 322
#
# _framework density 17.707713999999999
#
# number of rings (size 3 to 8) (size 9 to 14) (size 15 to 20)
#    0.750    1.250    3.750    0.750    0.000    3.500 
#    0.000    3.125    0.000    0.000    0.000    0.000 
#    0.000    0.000    0.000    0.000    0.000    0.000 
#
# Total GULP energy -793062.999051 kJ/mol
# GULP energy per Si atom -12391.609360 kJ/mol
# Density = 1.766741 g / cm^3
# Si number density = 17.707714 Si / 1000 Ang^3
#
#
#
# Elastic Constant Matrix: (Units=GPa)
#
#
# Indices 1 2 3 4 5 6 
#
# 1 81.1799 31.1101 51.8156 0.0000 0.0000 0.0000
# 2 31.1101 81.1799 51.8156 0.0000 0.0000 0.0000
# 3 51.8156 51.8156 143.7562 0.0000 0.0000 0.0000
# 4 0.0000 0.0000 0.0000 109.6148 0.0000 0.0000
# 5 0.0000 0.0000 0.0000 0.0000 109.6148 0.0000
# 6 0.0000 0.0000 0.0000 0.0000 0.0000 32.8190
#
#
#
# Elastic Compliance Matrix: (Units=1/GPa)
#
#
# Indices 1 2 3 4 5 6 
#
# 1 0.016658 -0.003314 -0.004810 0.000000 0.000000 0.000000
# 2 -0.003314 0.016658 -0.004810 0.000000 0.000000 0.000000
# 3 -0.004810 -0.004810 0.010424 0.000000 0.000000 0.000000
# 4 0.000000 0.000000 0.000000 0.009123 0.000000 0.000000
# 5 0.000000 0.000000 0.000000 0.000000 0.009123 0.000000
# 6 0.000000 0.000000 0.000000 0.000000 0.000000 0.030470
#
#
# Mechanical properties :
#
#
# Convention : Reuss Voigt Hill
#
# Bulk Modulus (GPa) = 55.95028 63.95539 59.95283
# Shear Modulus (GPa) = 40.23141 61.83469 51.03305
#
# Velocity S-wave (km/s) = 4.77169 5.91569 5.37422
# Velocity P-wave (km/s) = 7.87552 9.10254 8.51117
#
# Compressibility (1/GPa) = 0.01787301
#
# Stress axis : x y z
#
# Youngs Moduli (GPa) = 60.03005 60.03005 95.93616
#
# Poissons Ratio (x) = 0.19893 0.46144
# Poissons Ratio (y) = 0.19893 0.46144
# Poissons Ratio (z) = 0.28874 0.28874
#
# Static dielectric constant tensor:
#      x y z
#    x 3.334440 0.000000 0.000000 
#    y 0.000000 3.334440 0.000000 
#    z 0.000000 0.000000 3.220870 
# 
# 
# High freq. dielectric constant tensor:
#      x y z
#    x 1.678060 0.000000 0.000000 
#    y 0.000000 1.678060 0.000000 
#    z 0.000000 0.000000 1.670670 
# 
# From -- ./inp_files/8875.got.cif
#   From: 2010.03.12/outbox.cif.g09.slc.cpg/sg136_5_cif.got.tgz:8875.got - 2010.04.06 18:39:43.
