data_PCOD8317189
_publ_section_title
;
Structure prediction by ZEFSAII (Michael W. Deem and Ramdas Pophale) SiO2 
 PCOD8317189
Probable space group: P 42/N N M
;
_chemical_formula_sum "Si O2"
_cell_formula_units_Z 72
_cell_length_a 26.272061
_cell_length_b 26.272061
_cell_length_c 7.721664
_cell_angle_alpha 90.000000
_cell_angle_beta 90.000000
_cell_angle_gamma 90.000000
_cell_volume 5329.656109
_symmetry_space_group_name_H-M "P 42/N N M"
_symmetry_group_IT_number 134
_space_group.IT_coordinate_system_code '2'
_symmetry_cell_setting 'tetragonal'
loop_
_space_group_symop_operation_xyz
x,y,z
1/2-y,x,1/2+z
1/2-x,1/2-y,z
y,1/2-x,1/2+z
x,1/2-y,1/2-z
1/2-x,y,1/2-z
y,x,-z
1/2-y,1/2-x,-z
-x,-y,-z
1/2+y,-x,1/2-z
1/2+x,1/2+y,-z
-y,1/2+x,1/2-z
-x,1/2+y,1/2+z
1/2+x,-y,1/2+z
-y,-x,z
1/2+y,1/2+x,z
loop_
_atom_site_type_symbol
_atom_site_label
_atom_site_fract_x
_atom_site_fract_y
_atom_site_fract_z
Si Si1 0.750000 0.332850 0.750000
Si Si2 0.045109 0.630757 0.505606
Si Si3 0.579229 0.993540 0.199121
Si Si4 0.501569 0.412895 0.682644
Si Si5 0.374584 0.711131 0.908088
O O1 0.799742 0.299742 0.781942
O O2 0.755845 0.366498 0.579811
O O3 0.086912 0.586912 0.502829
O O4 0.002480 0.620125 0.650558
O O5 0.072000 0.683228 0.557456
O O6 0.016533 0.631958 0.318269
O O7 0.536786 0.036786 0.202487
O O8 0.552200 0.939233 0.232350
O O9 0.608273 0.996240 0.013324
O O10 0.544745 0.455255 0.689907
O O11 0.379338 0.750000 0.750000
O O12 0.328122 0.671879 0.873181
#
# Coordination Sequence:
#
# PCOD8317189 Si02
#       5
#     8  16  16  16  16
#     4   9  18  32  46  54  60  76 106 148 198 244
#     4   9  16  24  35  51  68  85 105 131 164 204
#     4   8  13  21  34  51  70  90 106 121 146 188
#     4   8  13  21  33  50  71  91 107 121 144 187
#     4  10  20  31  42  54  66  83 110 147 190 232
#
# _framework density 13.509315000000001
#
# number of rings (size 3 to 8) (size 9 to 14) (size 15 to 20)
#    0.000    3.222    0.000    2.667    0.000    5.556 
#    0.000    6.667    0.000    0.000    0.000    0.000 
#    0.000    0.000    0.000    0.000    0.000    0.000 
#
# Total GULP energy -892092.095596 kJ/mol
# GULP energy per Si atom -12390.167994 kJ/mol
# Density = 1.347857 g / cm^3
# Si number density = 13.509315 Si / 1000 Ang^3
#
#
#
# Elastic Constant Matrix: (Units=GPa)
#
#
# Indices 1 2 3 4 5 6 
#
# 1 32.4923 26.3245 38.7592 0.0000 0.0000 0.0000
# 2 26.3245 32.4923 38.7592 0.0000 0.0000 0.0000
# 3 38.7592 38.7592 115.2104 0.0000 0.0000 0.0000
# 4 0.0000 0.0000 0.0000 7.3214 0.0000 0.0000
# 5 0.0000 0.0000 0.0000 0.0000 7.3214 0.0000
# 6 0.0000 0.0000 0.0000 0.0000 0.0000 18.3538
#
#
#
# Elastic Compliance Matrix: (Units=1/GPa)
#
#
# Indices 1 2 3 4 5 6 
#
# 1 0.096340 -0.065794 -0.010276 0.000000 0.000000 0.000000
# 2 -0.065794 0.096340 -0.010276 0.000000 0.000000 0.000000
# 3 -0.010276 -0.010276 0.015594 0.000000 0.000000 0.000000
# 4 0.000000 0.000000 0.000000 0.136586 0.000000 0.000000
# 5 0.000000 0.000000 0.000000 0.000000 0.136586 0.000000
# 6 0.000000 0.000000 0.000000 0.000000 0.000000 0.054485
#
#
# Mechanical properties :
#
#
# Convention : Reuss Voigt Hill
#
# Bulk Modulus (GPa) = 28.10530 43.09785 35.60157
# Shear Modulus (GPa) = 6.93979 11.68946 9.31462
#
# Velocity S-wave (km/s) = 2.26896 2.94477 2.62867
# Velocity P-wave (km/s) = 5.26439 6.59802 5.96857
#
# Compressibility (1/GPa) = 0.03558048
#
# Stress axis : x y z
#
# Youngs Moduli (GPa) = 10.37995 10.37995 64.12729
#
# Poissons Ratio (x) = 0.68294 0.65898
# Poissons Ratio (y) = 0.68294 0.65898
# Poissons Ratio (z) = 0.10667 0.10667
#
# Static dielectric constant tensor:
#      x y z
#    x 2.455110 0.000000 0.000000 
#    y 0.000000 2.455110 0.000000 
#    z 0.000000 0.000000 3.010310 
# 
# 
# High freq. dielectric constant tensor:
#      x y z
#    x 1.466730 0.000000 0.000000 
#    y 0.000000 1.466730 0.000000 
#    z 0.000000 0.000000 1.539530 
# 
# From -- ./inp_files/3053.got.cif
#   From: 2010.03.12/outbox.cif.g09.slc.cpg/sg134_2_cif.got.tgz:3053.got - 2010.04.06 18:17:22.
