data_PCOD8317369
_publ_section_title
;
Structure prediction by ZEFSAII (Michael W. Deem and Ramdas Pophale) SiO2 
 PCOD8317369
Probable space group: P 42/M B C
;
_chemical_formula_sum "Si O2"
_cell_formula_units_Z 64
_cell_length_a 21.050780
_cell_length_b 21.050780
_cell_length_c 8.677748
_cell_angle_alpha 90.000000
_cell_angle_beta 90.000000
_cell_angle_gamma 90.000000
_cell_volume 3845.416798
_symmetry_space_group_name_H-M "P 42/M B C"
_symmetry_group_IT_number 135
_symmetry_cell_setting 'tetragonal'
loop_
_space_group_symop_operation_xyz
x,y,z
-y,x,1/2+z
-x,-y,z
y,-x,1/2+z
1/2+x,1/2-y,-z
1/2-x,1/2+y,-z
1/2+y,1/2+x,1/2-z
1/2-y,1/2-x,1/2-z
-x,-y,-z
y,-x,1/2-z
x,y,-z
-y,x,1/2-z
1/2-x,1/2+y,z
1/2+x,1/2-y,z
1/2-y,1/2-x,1/2+z
1/2+y,1/2+x,1/2+z
loop_
_atom_site_type_symbol
_atom_site_label
_atom_site_fract_x
_atom_site_fract_y
_atom_site_fract_z
Si Si1 0.855881 0.551802 0.325497
Si Si2 0.498499 0.272993 0.174769
Si Si3 0.426928 0.167053 0.681787
Si Si4 0.094097 0.987710 0.819163
O O1 0.885591 0.614410 0.250000
O O2 0.880399 0.545060 0.500000
O O3 0.778559 0.556423 0.321197
O O4 0.876123 0.487851 0.232537
O O5 0.436148 0.238041 0.246860
O O6 0.518598 0.332303 0.277576
O O7 0.483589 0.294599 0.000000
O O8 0.362855 0.137146 0.750000
O O9 0.421692 0.171433 0.500000
O O10 0.068030 0.056234 0.767463
O O11 0.084336 0.979225 0.000000
#
# Coordination Sequence:
#
# PCOD8317369 Si02
#       4
#    16  16  16  16
#     4   9  18  30  47  70 100 134 172 212 250 294
#     4   9  19  34  50  73 103 134 167 208 254 299
#     4  10  18  30  47  70 100 135 174 211 253 296
#     4  11  21  35  57  82 106 130 160 203 253 303
#
# _framework density 16.643190000000001
#
# number of rings (size 3 to 8) (size 9 to 14) (size 15 to 20)
#    1.500    0.750    0.000    6.000    0.000    0.500 
#    0.000    2.500    0.000    1.500    0.000    7.000 
#    0.000    0.000    0.000    0.000    0.000    0.000 
#
# Total GULP energy -792991.547861 kJ/mol
# GULP energy per Si atom -12390.492935 kJ/mol
# Density = 1.660531 g / cm^3
# Si number density = 16.643190 Si / 1000 Ang^3
#
#
#
# Elastic Constant Matrix: (Units=GPa)
#
#
# Indices 1 2 3 4 5 6 
#
# 1 54.6018 8.1995 13.9555 0.0000 0.0000 0.0000
# 2 8.1995 54.5997 13.9572 0.0000 0.0000 0.0000
# 3 13.9555 13.9572 109.8328 0.0000 0.0000 0.0000
# 4 0.0000 0.0000 0.0000 28.2427 0.0000 0.0000
# 5 0.0000 0.0000 0.0000 0.0000 28.2431 0.0000
# 6 0.0000 0.0000 0.0000 0.0000 0.0000 8.9906
#
#
#
# Elastic Compliance Matrix: (Units=1/GPa)
#
#
# Indices 1 2 3 4 5 6 
#
# 1 0.019213 -0.002337 -0.002144 0.000000 0.000000 0.000000
# 2 -0.002337 0.019214 -0.002145 0.000000 0.000000 0.000000
# 3 -0.002144 -0.002145 0.009650 0.000000 0.000000 0.000000
# 4 0.000000 0.000000 0.000000 0.035407 0.000000 0.000000
# 5 0.000000 0.000000 0.000000 0.000000 0.035407 0.000000
# 6 0.000000 0.000000 0.000000 0.000000 0.000000 0.111227
#
#
# Mechanical properties :
#
#
# Convention : Reuss Voigt Hill
#
# Bulk Modulus (GPa) = 28.71495 32.36207 30.53851
# Shear Modulus (GPa) = 19.60938 25.29009 22.44973
#
# Velocity S-wave (km/s) = 3.43625 3.90236 3.67670
# Velocity P-wave (km/s) = 5.74756 6.30805 6.03431
#
# Compressibility (1/GPa) = 0.03482507
#
# Stress axis : x y z
#
# Youngs Moduli (GPa) = 52.04690 52.04435 103.62962
#
# Poissons Ratio (x) = 0.12164 0.22221
# Poissons Ratio (y) = 0.12165 0.22226
# Poissons Ratio (z) = 0.11160 0.11162
#
# Static dielectric constant tensor:
#      x y z
#    x 2.897800 0.000000 0.000000 
#    y 0.000000 2.897810 0.000000 
#    z 0.000000 0.000000 3.244810 
# 
# 
# High freq. dielectric constant tensor:
#      x y z
#    x 1.613890 0.000000 0.000000 
#    y 0.000000 1.613890 0.000000 
#    z 0.000000 0.000000 1.666260 
# 
# From -- ./inp_files/946.got.cif
#   From: 2010.03.12/outbox.cif.g09.slc.cpg/sg135_1_cif.got.tgz:946.got - 2010.04.06 18:31:24.
