data_PCOD8317969
_publ_section_title
;
Structure prediction by ZEFSAII (Michael W. Deem and Ramdas Pophale) SiO2 
 PCOD8317969
Probable space group: P 42/M N M
;
_chemical_formula_sum "Si O2"
_cell_formula_units_Z 120
_cell_length_a 26.968077
_cell_length_b 26.968077
_cell_length_c 7.861746
_cell_angle_alpha 90.000000
_cell_angle_beta 90.000000
_cell_angle_gamma 90.000000
_cell_volume 5717.668438
_symmetry_space_group_name_H-M "P 42/M N M"
_symmetry_group_IT_number 136
_symmetry_cell_setting 'tetragonal'
loop_
_space_group_symop_operation_xyz
x,y,z
1/2-y,1/2+x,1/2+z
-x,-y,z
1/2+y,1/2-x,1/2+z
1/2+x,1/2-y,1/2-z
1/2-x,1/2+y,1/2-z
y,x,-z
-y,-x,-z
-x,-y,-z
1/2+y,1/2-x,1/2-z
x,y,-z
1/2-y,1/2+x,1/2-z
1/2-x,1/2+y,1/2+z
1/2+x,1/2-y,1/2+z
-y,-x,z
y,x,z
loop_
_atom_site_type_symbol
_atom_site_label
_atom_site_fract_x
_atom_site_fract_y
_atom_site_fract_z
Si Si1 0.249372 0.672632 0.798198
Si Si2 0.357444 0.026048 0.701632
Si Si3 0.582119 0.500955 0.000000
Si Si4 0.684826 0.605731 0.193815
Si Si5 0.249554 0.060679 0.702056
Si Si6 0.356370 0.211402 0.701988
Si Si7 0.582573 0.880863 0.696398
Si Si8 0.842973 0.002380 0.810722
O O1 0.296122 0.703879 0.727028
O O2 0.251011 0.616827 0.727770
O O3 0.199152 0.699105 0.738556
O O4 0.250616 0.670854 0.000000
O O5 0.360026 0.022903 0.500000
O O6 0.300682 0.034513 0.761495
O O7 0.392248 0.069961 0.775949
O O8 0.379874 0.975956 0.777281
O O9 0.614553 0.495303 0.170253
O O10 0.554083 0.554083 0.000000
O O11 0.543294 0.456707 0.000000
O O12 0.646904 0.646904 0.261686
O O13 0.739453 0.627383 0.203115
O O14 0.679184 0.557472 0.308440
O O15 0.672930 0.590528 0.000000
O O16 0.245049 0.058719 0.500000
O O17 0.202573 0.034409 0.783115
O O18 0.360360 0.218783 0.500000
O O19 0.392263 0.168253 0.773147
O O20 0.596612 0.881840 0.500000
O O21 0.865108 0.992821 0.000000
#
# Coordination Sequence:
#
# PCOD8317969 Si02
#       8
#    16  16   8  16  16  16  16  16
#     4   9  17  31  57  89 121 165 213 256 314 386
#     4  10  21  37  58  82 117 163 209 266 327 382
#     4  11  26  50  76 102 138 180 224 281 344 404
#     4  11  23  39  60  90 130 171 210 260 324 394
#     4  10  19  38  62  90 129 171 217 267 325 392
#     4  10  19  35  58  89 125 162 209 262 316 386
#     4  10  21  37  56  81 115 154 207 266 318 382
#     4  12  25  43  70 103 135 174 226 279 333 397
#
# _framework density 20.987576000000001
#
# number of rings (size 3 to 8) (size 9 to 14) (size 15 to 20)
#    0.000    1.667    2.667    2.000    0.000    7.200 
#    0.000    2.667    0.000    0.800    0.000    0.000 
#    0.000    0.000    0.000    0.000    0.000    0.000 
#
# Total GULP energy -1488165.369824 kJ/mol
# GULP energy per Si atom -12401.378082 kJ/mol
# Density = 2.093981 g / cm^3
# Si number density = 20.987576 Si / 1000 Ang^3
#
#
#
# Elastic Constant Matrix: (Units=GPa)
#
#
# Indices 1 2 3 4 5 6 
#
# 1 135.3035 49.8445 25.6511 0.0000 0.0000 0.0000
# 2 49.8445 135.2998 25.6503 0.0000 0.0000 0.0000
# 3 25.6511 25.6503 68.4381 0.0000 0.0000 0.0000
# 4 0.0000 0.0000 0.0000 20.6091 0.0000 0.0000
# 5 0.0000 0.0000 0.0000 0.0000 20.6087 0.0000
# 6 0.0000 0.0000 0.0000 0.0000 0.0000 36.1209
#
#
#
# Elastic Compliance Matrix: (Units=1/GPa)
#
#
# Indices 1 2 3 4 5 6 
#
# 1 0.008864 -0.002837 -0.002259 0.000000 0.000000 0.000000
# 2 -0.002837 0.008865 -0.002259 0.000000 0.000000 0.000000
# 3 -0.002259 -0.002259 0.016305 0.000000 0.000000 0.000000
# 4 0.000000 0.000000 0.000000 0.048522 0.000000 0.000000
# 5 0.000000 0.000000 0.000000 0.000000 0.048523 0.000000
# 6 0.000000 0.000000 0.000000 0.000000 0.000000 0.027685
#
#
# Mechanical properties :
#
#
# Convention : Reuss Voigt Hill
#
# Bulk Modulus (GPa) = 51.75080 60.14815 55.94948
# Shear Modulus (GPa) = 27.79079 31.32744 29.55912
#
# Velocity S-wave (km/s) = 3.64284 3.86770 3.75695
# Velocity P-wave (km/s) = 6.51192 6.97614 6.74802
#
# Compressibility (1/GPa) = 0.01932337
#
# Stress axis : x y z
#
# Youngs Moduli (GPa) = 112.81200 112.80917 61.33068
#
# Poissons Ratio (x) = 0.32008 0.13854
# Poissons Ratio (y) = 0.32009 0.13854
# Poissons Ratio (z) = 0.25484 0.25483
#
# Static dielectric constant tensor:
#      x y z
#    x 3.941790 0.000000 0.000000 
#    y 0.000000 3.941790 0.000000 
#    z 0.000000 0.000000 3.502420 
# 
# 
# High freq. dielectric constant tensor:
#      x y z
#    x 1.831890 0.000000 0.000000 
#    y 0.000000 1.831890 0.000000 
#    z 0.000000 0.000000 1.800560 
# 
# From -- ./inp_files/2331.got.cif
#   From: 2010.03.12/outbox.cif.g09.slc.cpg/sg136_2_cif.got.tgz:2331.got - 2010.04.06 18:39:43.
