data_PCOD8317209
_publ_section_title
;
Structure prediction by ZEFSAII (Michael W. Deem and Ramdas Pophale) SiO2 
 PCOD8317209
Probable space group: P 42/N N M
;
_chemical_formula_sum "Si O2"
_cell_formula_units_Z 80
_cell_length_a 11.244603
_cell_length_b 11.244603
_cell_length_c 30.428852
_cell_angle_alpha 90.000000
_cell_angle_beta 90.000000
_cell_angle_gamma 90.000000
_cell_volume 3847.457416
_symmetry_space_group_name_H-M "P 42/N N M"
_symmetry_group_IT_number 134
_space_group.IT_coordinate_system_code '2'
_symmetry_cell_setting 'tetragonal'
loop_
_space_group_symop_operation_xyz
x,y,z
1/2-y,x,1/2+z
1/2-x,1/2-y,z
y,1/2-x,1/2+z
x,1/2-y,1/2-z
1/2-x,y,1/2-z
y,x,-z
1/2-y,1/2-x,-z
-x,-y,-z
1/2+y,-x,1/2-z
1/2+x,1/2+y,-z
-y,1/2+x,1/2-z
-x,1/2+y,1/2+z
1/2+x,-y,1/2+z
-y,-x,z
1/2+y,1/2+x,z
loop_
_atom_site_type_symbol
_atom_site_label
_atom_site_fract_x
_atom_site_fract_y
_atom_site_fract_z
Si Si1 0.746702 0.061755 0.984013
Si Si2 0.983816 0.828296 0.108067
Si Si3 0.942372 0.245360 0.199585
Si Si4 0.603961 0.589799 0.361727
Si Si5 0.261323 0.388425 0.939281
O O1 0.849817 0.150184 0.999268
O O2 0.618820 0.118820 0.993878
O O3 0.762626 0.943940 0.012500
O O4 0.753365 0.036714 0.932442
O O5 0.087044 0.912957 0.129005
O O6 0.933191 0.730165 0.142908
O O7 0.880850 0.914090 0.088837
O O8 0.983411 0.250000 0.250000
O O9 0.886582 0.113419 0.188385
O O10 0.838636 0.338636 0.190271
O O11 0.056830 0.284960 0.170662
O O12 0.489196 0.510805 0.350788
O O13 0.649571 0.563662 0.411157
O O14 0.250000 0.250000 0.946357
#
# Coordination Sequence:
#
# PCOD8317209 Si02
#       5
#    16  16  16  16  16
#     4  10  20  34  52  72  96 134 185 233 274 314
#     4  10  21  36  51  70 106 153 190 220 260 314
#     4   8  15  30  53  82 115 143 165 204 272 342
#     4  10  20  33  53  81 109 139 178 220 264 320
#     4  10  21  34  49  72 103 139 180 228 277 320
#
# _framework density 20.792952
#
# number of rings (size 3 to 8) (size 9 to 14) (size 15 to 20)
#    0.000    2.400    0.000    3.000    0.000   10.000 
#    0.000    7.000    0.000    5.400    0.000    0.000 
#    0.000    8.000    0.000   28.000    0.000    0.400 
#
# Total GULP energy -991366.310229 kJ/mol
# GULP energy per Si atom -12392.078878 kJ/mol
# Density = 2.074563 g / cm^3
# Si number density = 20.792952 Si / 1000 Ang^3
#
#
#
# Elastic Constant Matrix: (Units=GPa)
#
#
# Indices 1 2 3 4 5 6 
#
# 1 93.0727 46.7823 33.1027 0.0000 0.0000 0.0000
# 2 46.7823 93.0727 33.1027 0.0000 0.0000 0.0000
# 3 33.1027 33.1027 53.0389 0.0000 0.0000 0.0000
# 4 0.0000 0.0000 0.0000 24.3896 0.0000 0.0000
# 5 0.0000 0.0000 0.0000 0.0000 24.3896 0.0000
# 6 0.0000 0.0000 0.0000 0.0000 0.0000 35.9605
#
#
#
# Elastic Compliance Matrix: (Units=1/GPa)
#
#
# Indices 1 2 3 4 5 6 
#
# 1 0.015876 -0.005727 -0.006334 0.000000 0.000000 0.000000
# 2 -0.005727 0.015876 -0.006334 0.000000 0.000000 0.000000
# 3 -0.006334 -0.006334 0.026760 0.000000 0.000000 0.000000
# 4 0.000000 0.000000 0.000000 0.041001 0.000000 0.000000
# 5 0.000000 0.000000 0.000000 0.000000 0.041001 0.000000
# 6 0.000000 0.000000 0.000000 0.000000 0.000000 0.027808
#
#
# Mechanical properties :
#
#
# Convention : Reuss Voigt Hill
#
# Bulk Modulus (GPa) = 46.03671 51.68442 48.86057
# Shear Modulus (GPa) = 23.54567 25.36104 24.45335
#
# Velocity S-wave (km/s) = 3.36875 3.49620 3.43307
# Velocity P-wave (km/s) = 6.10900 6.41939 6.26612
#
# Compressibility (1/GPa) = 0.02172179
#
# Stress axis : x y z
#
# Youngs Moduli (GPa) = 62.98927 62.98927 37.36851
#
# Poissons Ratio (x) = 0.36074 0.23669
# Poissons Ratio (y) = 0.36074 0.23669
# Poissons Ratio (z) = 0.39898 0.39898
#
# Static dielectric constant tensor:
#      x y z
#    x 4.034160 0.000000 0.000000 
#    y 0.000000 4.034160 0.000000 
#    z 0.000000 0.000000 3.488820 
# 
# 
# High freq. dielectric constant tensor:
#      x y z
#    x 1.815150 0.000000 0.000000 
#    y 0.000000 1.815150 0.000000 
#    z 0.000000 0.000000 1.768160 
# 
# From -- ./inp_files/11273.got.cif
#   From: 2010.03.12/outbox.cif.g09.slc.cpg/sg134_6_cif.got.tgz:11273.got - 2010.04.06 18:17:22.
