data_PCOD8317598
_publ_section_title
;
Structure prediction by ZEFSAII (Michael W. Deem and Ramdas Pophale) SiO2 
 PCOD8317598
Probable space group: P 42/M B C
;
_chemical_formula_sum "Si O2"
_cell_formula_units_Z 52
_cell_length_a 13.359843
_cell_length_b 13.359843
_cell_length_c 14.415635
_cell_angle_alpha 90.000000
_cell_angle_beta 90.000000
_cell_angle_gamma 90.000000
_cell_volume 2572.980451
_symmetry_space_group_name_H-M "P 42/M B C"
_symmetry_group_IT_number 135
_symmetry_cell_setting 'tetragonal'
loop_
_space_group_symop_operation_xyz
x,y,z
-y,x,1/2+z
-x,-y,z
y,-x,1/2+z
1/2+x,1/2-y,-z
1/2-x,1/2+y,-z
1/2+y,1/2+x,1/2-z
1/2-y,1/2-x,1/2-z
-x,-y,-z
y,-x,1/2-z
x,y,-z
-y,x,1/2-z
1/2-x,1/2+y,z
1/2+x,1/2-y,z
1/2-y,1/2-x,1/2+z
1/2+y,1/2+x,1/2+z
loop_
_atom_site_type_symbol
_atom_site_label
_atom_site_fract_x
_atom_site_fract_y
_atom_site_fract_z
Si Si1 0.076205 0.803588 0.181800
Si Si2 0.724140 0.087628 0.803534
Si Si3 0.352941 0.955773 0.000000
Si Si4 0.000000 0.000000 0.250000
Si Si5 0.443923 0.168208 0.000000
O O1 0.188890 0.830232 0.211266
O O2 0.069750 0.740091 0.088012
O O3 0.023626 0.742189 0.264328
O O4 0.015395 0.908482 0.177770
O O5 0.626370 0.126370 0.750000
O O6 0.711094 0.076144 0.912300
O O7 0.450690 0.887305 0.000000
O O8 0.366221 0.076036 0.000000
#
# Coordination Sequence:
#
# PCOD8317598 Si02
#       5
#    16  16   8   4   8
#     4  10  22  42  66  96 125 174 213 268 321 389
#     4  11  23  43  66  94 131 169 222 266 324 388
#     4  11  25  42  60  98 134 168 207 277 322 391
#     4   8  20  42  64  92 136 162 220 262 324 368
#     4  11  23  41  64  95 133 168 215 257 337 381
#
# _framework density 20.210025000000002
#
# number of rings (size 3 to 8) (size 9 to 14) (size 15 to 20)
#    0.000    1.538    3.077    0.923    4.308    0.615 
#    0.000    9.231    0.000    0.000    0.000    0.000 
#    0.000    0.000    0.000    0.000    0.000    0.000 
#
# Total GULP energy -644424.637287 kJ/mol
# GULP energy per Si atom -12392.781486 kJ/mol
# Density = 2.016403 g / cm^3
# Si number density = 20.210025 Si / 1000 Ang^3
#
#
#
# Elastic Constant Matrix: (Units=GPa)
#
#
# Indices 1 2 3 4 5 6 
#
# 1 96.8995 41.0783 46.6052 0.0000 0.0000 0.0000
# 2 41.0783 96.8995 46.6052 0.0000 0.0000 0.0000
# 3 46.6052 46.6052 145.8219 0.0000 0.0000 0.0000
# 4 0.0000 0.0000 0.0000 34.7675 0.0000 0.0000
# 5 0.0000 0.0000 0.0000 0.0000 34.7675 0.0000
# 6 0.0000 0.0000 0.0000 0.0000 0.0000 27.9019
#
#
#
# Elastic Compliance Matrix: (Units=1/GPa)
#
#
# Indices 1 2 3 4 5 6 
#
# 1 0.013579 -0.004336 -0.002954 0.000000 0.000000 0.000000
# 2 -0.004336 0.013579 -0.002954 0.000000 0.000000 0.000000
# 3 -0.002954 -0.002954 0.008746 0.000000 0.000000 0.000000
# 4 0.000000 0.000000 0.000000 0.028762 0.000000 0.000000
# 5 0.000000 0.000000 0.000000 0.000000 0.028762 0.000000
# 6 0.000000 0.000000 0.000000 0.000000 0.000000 0.035840
#
#
# Mechanical properties :
#
#
# Convention : Reuss Voigt Hill
#
# Bulk Modulus (GPa) = 64.86862 67.57760 66.22311
# Shear Modulus (GPa) = 32.27998 33.17620 32.72809
#
# Velocity S-wave (km/s) = 4.00087 4.05603 4.02854
# Velocity P-wave (km/s) = 7.31502 7.44617 7.38088
#
# Compressibility (1/GPa) = 0.01541577
#
# Stress axis : x y z
#
# Youngs Moduli (GPa) = 73.64431 73.64431 114.33799
#
# Poissons Ratio (x) = 0.31929 0.33777
# Poissons Ratio (y) = 0.31929 0.33777
# Poissons Ratio (z) = 0.21756 0.21756
#
# Static dielectric constant tensor:
#      x y z
#    x 3.816220 0.000000 0.000000 
#    y 0.000000 3.816220 0.000000 
#    z 0.000000 0.000000 3.683340 
# 
# 
# High freq. dielectric constant tensor:
#      x y z
#    x 1.799530 0.000000 0.000000 
#    y 0.000000 1.799530 0.000000 
#    z 0.000000 0.000000 1.783040 
# 
# From -- ./inp_files/2116.got.cif
#   From: 2010.03.12/outbox.cif.g09.slc.cpg/sg135_2_cif.got.tgz:2116.got - 2010.04.06 18:31:24.
