data_PCOD8317062
_publ_section_title
;
Structure prediction by ZEFSAII (Michael W. Deem and Ramdas Pophale) SiO2 
 PCOD8317062
Probable space group: P 42/N B C
;
_chemical_formula_sum "Si O2"
_cell_formula_units_Z 64
_cell_length_a 11.641669
_cell_length_b 11.641669
_cell_length_c 20.296042
_cell_angle_alpha 90.000000
_cell_angle_beta 90.000000
_cell_angle_gamma 90.000000
_cell_volume 2750.691258
_symmetry_space_group_name_H-M "P 42/N B C"
_symmetry_group_IT_number 133
_space_group.IT_coordinate_system_code '2'
_symmetry_cell_setting 'tetragonal'
loop_
_space_group_symop_operation_xyz
x,y,z
1/2-y,x,1/2+z
1/2-x,1/2-y,z
y,1/2-x,1/2+z
x,1/2-y,-z
1/2-x,y,-z
y,x,1/2-z
1/2-y,1/2-x,1/2-z
-x,-y,-z
1/2+y,-x,1/2-z
1/2+x,1/2+y,-z
-y,1/2+x,1/2-z
-x,1/2+y,z
1/2+x,-y,z
-y,-x,1/2+z
1/2+y,1/2+x,1/2+z
loop_
_atom_site_type_symbol
_atom_site_label
_atom_site_fract_x
_atom_site_fract_y
_atom_site_fract_z
Si Si1 0.643028 0.821881 0.592569
Si Si2 0.948260 0.312311 0.166335
Si Si3 0.750000 0.250000 0.907732
Si Si4 0.026633 0.188139 0.291304
Si Si5 0.250000 0.546731 0.000000
O O1 0.750000 0.750000 0.561903
O O2 0.604524 0.752565 0.656531
O O3 0.539699 0.836678 0.538648
O O4 0.682940 0.946567 0.615745
O O5 0.859780 0.215810 0.137369
O O6 0.881241 0.432196 0.168157
O O7 0.977700 0.282276 0.241152
O O8 0.700298 0.361230 0.947364
O O9 0.100158 0.100158 0.250000
#
# Coordination Sequence:
#
# PCOD8317062 Si02
#       5
#    16  16   8  16   8
#     4  12  26  49  72 109 147 196 244 303 367 439
#     4  12  26  45  79 106 151 188 243 309 378 435
#     4  11  26  53  70 108 141 193 250 300 358 441
#     4  12  24  44  73 112 146 188 243 306 376 447
#     4  11  27  52  70 100 149 191 256 290 350 435
#
# _framework density 23.266878999999999
#
# number of rings (size 3 to 8) (size 9 to 14) (size 15 to 20)
#    0.000    0.250    5.000    4.125    3.500    1.000 
#    9.000    0.000    0.000    0.000    0.000    0.000 
#    0.000    0.000    0.000    0.000    0.000    0.000 
#
# Total GULP energy -793047.860006 kJ/mol
# GULP energy per Si atom -12391.372813 kJ/mol
# Density = 2.321392 g / cm^3
# Si number density = 23.266879 Si / 1000 Ang^3
#
#
#
# Elastic Constant Matrix: (Units=GPa)
#
#
# Indices 1 2 3 4 5 6 
#
# 1 123.2606 38.2894 38.6397 0.0000 0.0000 0.0000
# 2 38.2894 123.2606 38.6397 0.0000 0.0000 0.0000
# 3 38.6397 38.6397 98.5991 0.0000 0.0000 0.0000
# 4 0.0000 0.0000 0.0000 312.9309 0.0000 0.0000
# 5 0.0000 0.0000 0.0000 0.0000 312.9309 0.0000
# 6 0.0000 0.0000 0.0000 0.0000 0.0000 31.8251
#
#
#
# Elastic Compliance Matrix: (Units=1/GPa)
#
#
# Indices 1 2 3 4 5 6 
#
# 1 0.009693 -0.002075 -0.002985 0.000000 0.000000 0.000000
# 2 -0.002075 0.009693 -0.002985 0.000000 0.000000 0.000000
# 3 -0.002985 -0.002985 0.012482 0.000000 0.000000 0.000000
# 4 0.000000 0.000000 0.000000 0.003196 0.000000 0.000000
# 5 0.000000 0.000000 0.000000 0.000000 0.003196 0.000000
# 6 0.000000 0.000000 0.000000 0.000000 0.000000 0.031422
#
#
# Mechanical properties :
#
#
# Convention : Reuss Voigt Hill
#
# Bulk Modulus (GPa) = 63.38543 64.02866 63.70704
# Shear Modulus (GPa) = 54.92514 146.84080 100.88297
#
# Velocity S-wave (km/s) = 4.86393 7.95289 6.59190
# Velocity P-wave (km/s) = 7.67109 10.57877 9.24002
#
# Compressibility (1/GPa) = 0.01577650
#
# Stress axis : x y z
#
# Youngs Moduli (GPa) = 103.16266 103.16266 80.11531
#
# Poissons Ratio (x) = 0.21409 0.23918
# Poissons Ratio (y) = 0.21409 0.23918
# Poissons Ratio (z) = 0.30799 0.30799
#
# Static dielectric constant tensor:
#      x y z
#    x 4.274570 0.000000 0.000000 
#    y 0.000000 4.274570 0.000000 
#    z 0.000000 0.000000 4.759560 
# 
# 
# High freq. dielectric constant tensor:
#      x y z
#    x 1.915660 0.000000 0.000000 
#    y 0.000000 1.915660 0.000000 
#    z 0.000000 0.000000 1.945950 
# 
# From -- ./inp_files/7024.got.cif
#   From: 2010.03.12/outbox.cif.g09.slc.cpg/sg133_4_cif.got.tgz:7024.got - 2010.04.06 18:08:06.
