data_PCOD8317247
_publ_section_title
;
Structure prediction by ZEFSAII (Michael W. Deem and Ramdas Pophale) SiO2 
 PCOD8317247
Probable space group: P 42/N N M
;
_chemical_formula_sum "Si O2"
_cell_formula_units_Z 96
_cell_length_a 22.465335
_cell_length_b 22.465335
_cell_length_c 9.400362
_cell_angle_alpha 90.000000
_cell_angle_beta 90.000000
_cell_angle_gamma 90.000000
_cell_volume 4744.280699
_symmetry_space_group_name_H-M "P 42/N N M"
_symmetry_group_IT_number 134
_space_group.IT_coordinate_system_code '2'
_symmetry_cell_setting 'tetragonal'
loop_
_space_group_symop_operation_xyz
x,y,z
1/2-y,x,1/2+z
1/2-x,1/2-y,z
y,1/2-x,1/2+z
x,1/2-y,1/2-z
1/2-x,y,1/2-z
y,x,-z
1/2-y,1/2-x,-z
-x,-y,-z
1/2+y,-x,1/2-z
1/2+x,1/2+y,-z
-y,1/2+x,1/2-z
-x,1/2+y,1/2+z
1/2+x,-y,1/2+z
-y,-x,z
1/2+y,1/2+x,z
loop_
_atom_site_type_symbol
_atom_site_label
_atom_site_fract_x
_atom_site_fract_y
_atom_site_fract_z
Si Si1 0.926082 0.326602 0.027523
Si Si2 0.188894 0.310296 0.173137
Si Si3 0.475184 0.878727 0.698445
Si Si4 0.387542 0.398335 0.159853
Si Si5 0.507820 0.184377 0.751488
Si Si6 0.193244 0.902703 0.019291
O O1 0.873242 0.373242 0.009031
O O2 0.963244 0.335474 0.170045
O O3 0.896350 0.261221 0.030534
O O4 0.977229 0.335736 0.910361
O O5 0.167044 0.250000 0.250000
O O6 0.250000 0.329162 0.250000
O O7 0.140903 0.359668 0.213693
O O8 0.195406 0.304595 0.000000
O O9 0.439704 0.939704 0.716077
O O10 0.542640 0.898480 0.684020
O O11 0.454172 0.841300 0.564048
O O12 0.363123 0.465252 0.175534
O O13 0.373875 0.373875 0.000000
O O14 0.476954 0.250000 0.750000
O O15 0.573007 0.189833 0.679304
O O16 0.161442 0.838559 0.003341
#
# Coordination Sequence:
#
# PCOD8317247 Si02
#       6
#    16  16  16  16  16  16
#     4  10  22  39  60  90 126 162 200 257 325 384
#     4  11  24  43  67  95 132 168 208 261 315 363
#     4  10  23  40  60  88 124 161 206 259 315 372
#     4  12  24  41  64  93 120 167 219 258 311 381
#     4  10  22  39  61  88 126 159 204 262 316 369
#     4  10  20  39  63  89 121 163 207 256 311 377
#
# _framework density 20.234891999999999
#
# number of rings (size 3 to 8) (size 9 to 14) (size 15 to 20)
#    0.000    1.500    1.667    3.500    2.333    3.333 
#    0.000    1.667    0.000    6.000    0.000    0.000 
#    0.000    0.000    0.000    0.000    0.000    0.000 
#
# Total GULP energy -1190157.778328 kJ/mol
# GULP energy per Si atom -12397.476858 kJ/mol
# Density = 2.018884 g / cm^3
# Si number density = 20.234892 Si / 1000 Ang^3
#
#
#
# Elastic Constant Matrix: (Units=GPa)
#
#
# Indices 1 2 3 4 5 6 
#
# 1 78.2500 54.0792 35.3261 0.0000 0.0000 0.0000
# 2 54.0792 78.2493 35.3252 0.0000 0.0000 0.0000
# 3 35.3261 35.3252 115.2932 0.0000 0.0000 0.0000
# 4 0.0000 0.0000 0.0000 17.1181 0.0000 0.0000
# 5 0.0000 0.0000 0.0000 0.0000 17.1175 0.0000
# 6 0.0000 0.0000 0.0000 0.0000 0.0000 17.0369
#
#
#
# Elastic Compliance Matrix: (Units=1/GPa)
#
#
# Indices 1 2 3 4 5 6 
#
# 1 0.025204 -0.016169 -0.002768 0.000000 0.000000 0.000000
# 2 -0.016169 0.025204 -0.002768 0.000000 0.000000 0.000000
# 3 -0.002768 -0.002768 0.010370 0.000000 0.000000 0.000000
# 4 0.000000 0.000000 0.000000 0.058418 0.000000 0.000000
# 5 0.000000 0.000000 0.000000 0.000000 0.058420 0.000000
# 6 0.000000 0.000000 0.000000 0.000000 0.000000 0.058696
#
#
# Mechanical properties :
#
#
# Convention : Reuss Voigt Hill
#
# Bulk Modulus (GPa) = 57.58161 57.91705 57.74933
# Shear Modulus (GPa) = 17.51245 20.05863 18.78554
#
# Velocity S-wave (km/s) = 2.94506 3.15189 3.05023
# Velocity P-wave (km/s) = 6.33110 6.47537 6.40364
#
# Compressibility (1/GPa) = 0.01736666
#
# Stress axis : x y z
#
# Youngs Moduli (GPa) = 39.67651 39.67643 96.43259
#
# Poissons Ratio (x) = 0.64152 0.26697
# Poissons Ratio (y) = 0.64153 0.26694
# Poissons Ratio (z) = 0.10984 0.10983
#
# Static dielectric constant tensor:
#      x y z
#    x 3.559190 0.000000 0.000000 
#    y 0.000000 3.559190 0.000000 
#    z 0.000000 0.000000 4.042980 
# 
# 
# High freq. dielectric constant tensor:
#      x y z
#    x 1.787840 0.000000 0.000000 
#    y 0.000000 1.787840 0.000000 
#    z 0.000000 0.000000 1.808210 
# 
# From -- ./inp_files/3176.got.cif
#   From: 2010.03.12/outbox.cif.g09.slc.cpg/sg134_2_cif.got.tgz:3176.got - 2010.04.06 18:17:22.
