data_PCOD8317535
_publ_section_title
;
Structure prediction by ZEFSAII (Michael W. Deem and Ramdas Pophale) SiO2 
 PCOD8317535
Probable space group: P 42/M B C
;
_chemical_formula_sum "Si O2"
_cell_formula_units_Z 60
_cell_length_a 14.387513
_cell_length_b 14.387513
_cell_length_c 13.822101
_cell_angle_alpha 90.000000
_cell_angle_beta 90.000000
_cell_angle_gamma 90.000000
_cell_volume 2861.182237
_symmetry_space_group_name_H-M "P 42/M B C"
_symmetry_group_IT_number 135
_symmetry_cell_setting 'tetragonal'
loop_
_space_group_symop_operation_xyz
x,y,z
-y,x,1/2+z
-x,-y,z
y,-x,1/2+z
1/2+x,1/2-y,-z
1/2-x,1/2+y,-z
1/2+y,1/2+x,1/2-z
1/2-y,1/2-x,1/2-z
-x,-y,-z
y,-x,1/2-z
x,y,-z
-y,x,1/2-z
1/2-x,1/2+y,z
1/2+x,1/2-y,z
1/2-y,1/2-x,1/2+z
1/2+y,1/2+x,1/2+z
loop_
_atom_site_type_symbol
_atom_site_label
_atom_site_fract_x
_atom_site_fract_y
_atom_site_fract_z
Si Si1 0.242363 0.873215 0.000000
Si Si2 0.691613 0.986481 0.152008
Si Si3 0.643107 0.497647 0.287668
Si Si4 0.187723 0.672829 0.000000
Si Si5 0.500000 0.000000 0.250000
Si Si6 0.043865 0.824120 0.000000
O O1 0.285107 0.920131 0.905797
O O2 0.131981 0.893836 0.000000
O O3 0.260038 0.760758 0.000000
O O4 0.754109 0.981287 0.247526
O O5 0.586011 0.998463 0.178953
O O6 0.705251 0.890756 0.093431
O O7 0.584909 0.404739 0.264058
O O8 0.652667 0.515015 0.403307
O O9 0.083022 0.717276 0.000000
#
# Coordination Sequence:
#
# PCOD8317535 Si02
#       6
#     8  16  16   8   4   8
#     4   9  21  43  66  93 129 171 216 274 320 398
#     4  11  23  44  63  97 133 169 228 266 324 388
#     4  11  23  39  68  98 130 165 203 273 336 399
#     4   9  21  41  70  90 129 175 208 281 323 373
#     4  12  28  38  64  92 132 194 220 274 312 388
#     4  10  20  41  61  97 130 165 210 254 329 391
#
# _framework density 20.970351000000001
#
# number of rings (size 3 to 8) (size 9 to 14) (size 15 to 20)
#    0.800    0.800    2.667    1.600    0.000    8.533 
#    0.000    5.333    0.000    0.000    0.000    0.000 
#    0.000    0.000    0.000    0.000    0.000    0.000 
#
# Total GULP energy -743792.109746 kJ/mol
# GULP energy per Si atom -12396.535162 kJ/mol
# Density = 2.092262 g / cm^3
# Si number density = 20.970351 Si / 1000 Ang^3
#
#
#
# Elastic Constant Matrix: (Units=GPa)
#
#
# Indices 1 2 3 4 5 6 
#
# 1 129.4754 23.0558 49.0215 0.0000 0.0000 0.0000
# 2 23.0558 129.4754 49.0215 0.0000 0.0000 0.0000
# 3 49.0215 49.0215 167.8914 0.0000 0.0000 0.0000
# 4 0.0000 0.0000 0.0000 3.3877 0.0000 0.0000
# 5 0.0000 0.0000 0.0000 0.0000 3.3877 0.0000
# 6 0.0000 0.0000 0.0000 0.0000 0.0000 19.5941
#
#
#
# Elastic Compliance Matrix: (Units=1/GPa)
#
#
# Indices 1 2 3 4 5 6 
#
# 1 0.008734 -0.000663 -0.002357 0.000000 0.000000 0.000000
# 2 -0.000663 0.008734 -0.002357 0.000000 0.000000 0.000000
# 3 -0.002357 -0.002357 0.007332 0.000000 0.000000 0.000000
# 4 0.000000 0.000000 0.000000 0.295187 0.000000 0.000000
# 5 0.000000 0.000000 0.000000 0.000000 0.295187 0.000000
# 6 0.000000 0.000000 0.000000 0.000000 0.000000 0.051036
#
#
# Mechanical properties :
#
#
# Convention : Reuss Voigt Hill
#
# Bulk Modulus (GPa) = 71.18572 74.33775 72.76173
# Shear Modulus (GPa) = 7.33520 25.65678 16.49599
#
# Velocity S-wave (km/s) = 1.87229 3.50162 2.80774
# Velocity P-wave (km/s) = 6.22041 7.20239 6.72934
#
# Compressibility (1/GPa) = 0.01404776
#
# Stress axis : x y z
#
# Youngs Moduli (GPa) = 114.49830 114.49830 136.38167
#
# Poissons Ratio (x) = 0.07591 0.32139
# Poissons Ratio (y) = 0.07591 0.32139
# Poissons Ratio (z) = 0.26982 0.26982
#
# Static dielectric constant tensor:
#      x y z
#    x 3.694320 0.000000 0.000000 
#    y 0.000000 3.694320 0.000000 
#    z 0.000000 0.000000 3.604440 
# 
# 
# High freq. dielectric constant tensor:
#      x y z
#    x 1.814690 0.000000 0.000000 
#    y 0.000000 1.814690 0.000000 
#    z 0.000000 0.000000 1.829790 
# 
# From -- ./inp_files/3246.got.cif
#   From: 2010.03.12/outbox.cif.g09.slc.cpg/sg135_2_cif.got.tgz:3246.got - 2010.04.06 18:31:24.
