data_PCOD8317882
_publ_section_title
;
Structure prediction by ZEFSAII (Michael W. Deem and Ramdas Pophale) SiO2 
 PCOD8317882
Probable space group: P 42/M N M
;
_chemical_formula_sum "Si O2"
_cell_formula_units_Z 96
_cell_length_a 24.599528
_cell_length_b 24.599528
_cell_length_c 8.844031
_cell_angle_alpha 90.000000
_cell_angle_beta 90.000000
_cell_angle_gamma 90.000000
_cell_volume 5351.848422
_symmetry_space_group_name_H-M "P 42/M N M"
_symmetry_group_IT_number 136
_symmetry_cell_setting 'tetragonal'
loop_
_space_group_symop_operation_xyz
x,y,z
1/2-y,1/2+x,1/2+z
-x,-y,z
1/2+y,1/2-x,1/2+z
1/2+x,1/2-y,1/2-z
1/2-x,1/2+y,1/2-z
y,x,-z
-y,-x,-z
-x,-y,-z
1/2+y,1/2-x,1/2-z
x,y,-z
1/2-y,1/2+x,1/2-z
1/2-x,1/2+y,1/2+z
1/2+x,1/2-y,1/2+z
-y,-x,z
y,x,z
loop_
_atom_site_type_symbol
_atom_site_label
_atom_site_fract_x
_atom_site_fract_y
_atom_site_fract_z
Si Si1 0.582530 0.417471 0.824566
Si Si2 0.835077 0.835077 0.178154
Si Si3 0.875720 0.036283 0.323437
Si Si4 0.231699 0.991314 0.824377
Si Si5 0.413594 0.867922 0.325486
Si Si6 0.462330 0.148072 0.672297
Si Si7 0.242402 0.603600 0.822297
O O1 0.620507 0.379494 0.725092
O O2 0.520137 0.405429 0.783650
O O3 0.594701 0.405300 0.000000
O O4 0.848866 0.776089 0.243524
O O5 0.832229 0.832229 0.000000
O O6 0.862176 0.039723 0.500000
O O7 0.915184 0.084817 0.272468
O O8 0.819705 0.043671 0.230815
O O9 0.287271 0.957914 0.797082
O O10 0.232649 0.046338 0.728792
O O11 0.226184 0.006941 0.000000
O O12 0.404330 0.853107 0.500000
O O13 0.383418 0.923402 0.286052
O O14 0.477453 0.873630 0.291887
O O15 0.388798 0.819985 0.224724
O O16 0.445988 0.134730 0.500000
O O17 0.248451 0.608596 0.000000
#
# Coordination Sequence:
#
# PCOD8317882 Si02
#       7
#     8   8  16  16  16  16  16
#     4  10  19  32  50  76 109 145 182 226 282 332
#     4  12  22  33  53  81 111 141 182 234 278 326
#     4  10  20  33  51  76 108 146 187 231 278 331
#     4  10  20  35  54  78 108 143 183 228 271 320
#     4  10  21  37  58  86 115 145 182 225 269 322
#     4   9  20  37  56  81 113 145 179 220 274 332
#     4  11  21  35  56  80 108 143 181 222 275 330
#
# _framework density 17.937726999999999
#
# number of rings (size 3 to 8) (size 9 to 14) (size 15 to 20)
#    0.000    1.833    1.667    4.500    0.000    5.667 
#    0.000    1.667    1.833    1.500    0.000    0.000 
#    0.000    0.000    0.000    0.000    0.000    0.000 
#
# Total GULP energy -1190775.658358 kJ/mol
# GULP energy per Si atom -12403.913108 kJ/mol
# Density = 1.789690 g / cm^3
# Si number density = 17.937727 Si / 1000 Ang^3
#
#
#
# Elastic Constant Matrix: (Units=GPa)
#
#
# Indices 1 2 3 4 5 6 
#
# 1 96.6946 60.6791 49.3492 0.0000 0.0000 0.0000
# 2 60.6791 96.6946 49.3489 0.0000 0.0000 0.0000
# 3 49.3492 49.3489 112.8999 0.0000 0.0000 0.0000
# 4 0.0000 0.0000 0.0000 29.5090 0.0000 0.0000
# 5 0.0000 0.0000 0.0000 0.0000 29.5089 0.0000
# 6 0.0000 0.0000 0.0000 0.0000 0.0000 28.7351
#
#
#
# Elastic Compliance Matrix: (Units=1/GPa)
#
#
# Indices 1 2 3 4 5 6 
#
# 1 0.018260 -0.009506 -0.003827 0.000000 0.000000 0.000000
# 2 -0.009506 0.018260 -0.003826 0.000000 0.000000 0.000000
# 3 -0.003827 -0.003826 0.012203 0.000000 0.000000 0.000000
# 4 0.000000 0.000000 0.000000 0.033888 0.000000 0.000000
# 5 0.000000 0.000000 0.000000 0.000000 0.033888 0.000000
# 6 0.000000 0.000000 0.000000 0.000000 0.000000 0.034801
#
#
# Mechanical properties :
#
#
# Convention : Reuss Voigt Hill
#
# Bulk Modulus (GPa) = 69.42084 69.44927 69.43505
# Shear Modulus (GPa) = 26.25799 27.34473 26.80136
#
# Velocity S-wave (km/s) = 3.83017 3.90863 3.86960
# Velocity P-wave (km/s) = 7.63841 7.69225 7.66538
#
# Compressibility (1/GPa) = 0.01440490
#
# Stress axis : x y z
#
# Youngs Moduli (GPa) = 54.76454 54.76478 81.95021
#
# Poissons Ratio (x) = 0.52059 0.31358
# Poissons Ratio (y) = 0.52058 0.31357
# Poissons Ratio (z) = 0.20956 0.20955
#
# Static dielectric constant tensor:
#      x y z
#    x 3.311420 0.000000 0.000000 
#    y 0.000000 3.311430 0.000000 
#    z 0.000000 0.000000 3.310390 
# 
# 
# High freq. dielectric constant tensor:
#      x y z
#    x 1.686020 0.000000 0.000000 
#    y 0.000000 1.686020 0.000000 
#    z 0.000000 0.000000 1.702910 
# 
# From -- ./inp_files/2081.got.cif
#   From: 2010.03.12/outbox.cif.g09.slc.cpg/sg136_2_cif.got.tgz:2081.got - 2010.04.06 18:39:43.
