data_PCOD8317960
_publ_section_title
;
Structure prediction by ZEFSAII (Michael W. Deem and Ramdas Pophale) SiO2 
 PCOD8317960
Probable space group: P 42/M N M
;
_chemical_formula_sum "Si O2"
_cell_formula_units_Z 56
_cell_length_a 17.280784
_cell_length_b 17.280784
_cell_length_c 8.091896
_cell_angle_alpha 90.000000
_cell_angle_beta 90.000000
_cell_angle_gamma 90.000000
_cell_volume 2416.446454
_symmetry_space_group_name_H-M "P 42/M N M"
_symmetry_group_IT_number 136
_symmetry_cell_setting 'tetragonal'
loop_
_space_group_symop_operation_xyz
x,y,z
1/2-y,1/2+x,1/2+z
-x,-y,z
1/2+y,1/2-x,1/2+z
1/2+x,1/2-y,1/2-z
1/2-x,1/2+y,1/2-z
y,x,-z
-y,-x,-z
-x,-y,-z
1/2+y,1/2-x,1/2-z
x,y,-z
1/2-y,1/2+x,1/2-z
1/2-x,1/2+y,1/2+z
1/2+x,1/2-y,1/2+z
-y,-x,z
y,x,z
loop_
_atom_site_type_symbol
_atom_site_label
_atom_site_fract_x
_atom_site_fract_y
_atom_site_fract_z
Si Si1 0.680780 0.198166 0.690938
Si Si2 0.559199 0.314443 0.819882
Si Si3 0.372114 0.497582 0.500000
Si Si4 0.395840 0.943887 0.810796
O O1 0.659242 0.208772 0.500000
O O2 0.766410 0.233591 0.726629
O O3 0.617662 0.243518 0.797540
O O4 0.675508 0.108213 0.744053
O O5 0.605527 0.394474 0.823707
O O6 0.499450 0.318846 0.665835
O O7 0.517471 0.304072 0.000000
O O8 0.417542 0.417542 0.500000
O O9 0.428547 0.571454 0.500000
O O10 0.476583 0.897464 0.791159
O O11 0.382308 0.965399 0.000000
#
# Coordination Sequence:
#
# PCOD8317960 Si02
#       4
#    16  16   8  16
#     4  10  19  34  58  87 119 155 197 248 305 364
#     4   9  16  27  44  69 100 136 183 235 287 342
#     4   9  16  26  40  62  96 135 178 234 291 346
#     4  11  22  38  60  89 125 162 203 250 310 372
#
# _framework density 23.174526
#
# number of rings (size 3 to 8) (size 9 to 14) (size 15 to 20)
#    0.000    2.143    1.429    4.286    0.000    2.286 
#    0.000    2.857    0.000    1.714    0.000    0.000 
#    0.000    0.000    0.000    0.000    0.000    0.000 
#
# Total GULP energy -694169.949160 kJ/mol
# GULP energy per Si atom -12395.891949 kJ/mol
# Density = 2.312178 g / cm^3
# Si number density = 23.174526 Si / 1000 Ang^3
#
#
#
# Elastic Constant Matrix: (Units=GPa)
#
#
# Indices 1 2 3 4 5 6 
#
# 1 43.1053 25.0856 9.8064 0.0000 0.0000 0.0000
# 2 25.0856 43.1051 9.8062 0.0000 0.0000 0.0000
# 3 9.8064 9.8062 160.8237 0.0000 0.0000 0.0000
# 4 0.0000 0.0000 0.0000 23.7216 0.0000 0.0000
# 5 0.0000 0.0000 0.0000 0.0000 23.7216 0.0000
# 6 0.0000 0.0000 0.0000 0.0000 0.0000 26.3141
#
#
#
# Elastic Compliance Matrix: (Units=1/GPa)
#
#
# Indices 1 2 3 4 5 6 
#
# 1 0.035211 -0.020284 -0.000910 0.000000 0.000000 0.000000
# 2 -0.020284 0.035211 -0.000910 0.000000 0.000000 0.000000
# 3 -0.000910 -0.000910 0.006329 0.000000 0.000000 0.000000
# 4 0.000000 0.000000 0.000000 0.042156 0.000000 0.000000
# 5 0.000000 0.000000 0.000000 0.000000 0.042156 0.000000
# 6 0.000000 0.000000 0.000000 0.000000 0.000000 0.038002
#
#
# Mechanical properties :
#
#
# Convention : Reuss Voigt Hill
#
# Bulk Modulus (GPa) = 30.73007 37.38116 34.05561
# Shear Modulus (GPa) = 19.67570 28.24054 23.95812
#
# Velocity S-wave (km/s) = 2.91696 3.49464 3.21878
# Velocity P-wave (km/s) = 4.96326 5.69637 5.34240
#
# Compressibility (1/GPa) = 0.03254142
#
# Stress axis : x y z
#
# Youngs Moduli (GPa) = 28.40043 28.40031 158.00331
#
# Poissons Ratio (x) = 0.57608 0.14381
# Poissons Ratio (y) = 0.57608 0.14380
# Poissons Ratio (z) = 0.02585 0.02585
#
# Static dielectric constant tensor:
#      x y z
#    x 3.892690 0.000000 0.000000 
#    y 0.000000 3.892690 0.000000 
#    z 0.000000 0.000000 4.475590 
# 
# 
# High freq. dielectric constant tensor:
#      x y z
#    x 1.884310 0.000000 0.000000 
#    y 0.000000 1.884310 0.000000 
#    z 0.000000 0.000000 1.934340 
# 
# From -- ./inp_files/1123.got.cif
#   From: 2010.03.12/outbox.cif.g09.slc.cpg/sg136_1_cif.got.tgz:1123.got - 2010.04.06 18:39:43.
