data_PCOD8317637
_publ_section_title
;
Structure prediction by ZEFSAII (Michael W. Deem and Ramdas Pophale) SiO2 
 PCOD8317637
Probable space group: P 42/M B C
;
_chemical_formula_sum "Si O2"
_cell_formula_units_Z 64
_cell_length_a 12.768217
_cell_length_b 12.768217
_cell_length_c 17.766301
_cell_angle_alpha 90.000000
_cell_angle_beta 90.000000
_cell_angle_gamma 90.000000
_cell_volume 2896.393244
_symmetry_space_group_name_H-M "P 42/M B C"
_symmetry_group_IT_number 135
_symmetry_cell_setting 'tetragonal'
loop_
_space_group_symop_operation_xyz
x,y,z
-y,x,1/2+z
-x,-y,z
y,-x,1/2+z
1/2+x,1/2-y,-z
1/2-x,1/2+y,-z
1/2+y,1/2+x,1/2-z
1/2-y,1/2-x,1/2-z
-x,-y,-z
y,-x,1/2-z
x,y,-z
-y,x,1/2-z
1/2-x,1/2+y,z
1/2+x,1/2-y,z
1/2-y,1/2-x,1/2+z
1/2+y,1/2+x,1/2+z
loop_
_atom_site_type_symbol
_atom_site_label
_atom_site_fract_x
_atom_site_fract_y
_atom_site_fract_z
Si Si1 0.072206 0.765524 0.335166
Si Si2 0.925540 0.903721 0.580258
Si Si3 0.467686 0.716795 0.820618
Si Si4 0.111456 0.552085 0.586455
O O1 0.001621 0.745114 0.261668
O O2 0.124367 0.658045 0.363761
O O3 0.992802 0.801489 0.400083
O O4 0.159417 0.855264 0.319729
O O5 0.866717 0.881348 0.500000
O O6 0.852499 0.934713 0.649702
O O7 0.000000 0.000000 0.565882
O O8 0.462775 0.813295 0.878611
O O9 0.140861 0.576138 0.500000
O O10 0.000000 0.500000 0.593372
#
# Coordination Sequence:
#
# PCOD8317637 Si02
#       4
#    16  16  16  16
#     4  11  22  41  70 102 136 178 226 290 354 420
#     4   9  18  33  60  96 130 168 218 278 337 400
#     4  11  22  41  70  99 137 177 230 287 347 420
#     4  11  27  48  66  95 142 189 236 289 349 420
#
# _framework density 22.096446
#
# number of rings (size 3 to 8) (size 9 to 14) (size 15 to 20)
#    0.000    1.500    2.500    2.250    0.000    7.000 
#    4.500    2.500    0.000    0.000    0.000    0.000 
#    0.000    0.000    0.000    0.000    0.000    0.000 
#
# Total GULP energy -793152.892801 kJ/mol
# GULP energy per Si atom -12393.013950 kJ/mol
# Density = 2.204615 g / cm^3
# Si number density = 22.096446 Si / 1000 Ang^3
#
#
#
# Elastic Constant Matrix: (Units=GPa)
#
#
# Indices 1 2 3 4 5 6 
#
# 1 86.6975 21.6837 37.8262 0.0000 0.0000 0.0000
# 2 21.6837 86.6975 37.8262 0.0000 0.0000 0.0000
# 3 37.8262 37.8262 148.9300 0.0000 0.0000 0.0000
# 4 0.0000 0.0000 0.0000 28.3453 0.0000 0.0000
# 5 0.0000 0.0000 0.0000 0.0000 28.3453 0.0000
# 6 0.0000 0.0000 0.0000 0.0000 0.0000 25.6586
#
#
#
# Elastic Compliance Matrix: (Units=1/GPa)
#
#
# Indices 1 2 3 4 5 6 
#
# 1 0.013298 -0.002083 -0.002848 0.000000 0.000000 0.000000
# 2 -0.002083 0.013298 -0.002848 0.000000 0.000000 0.000000
# 3 -0.002848 -0.002848 0.008161 0.000000 0.000000 0.000000
# 4 0.000000 0.000000 0.000000 0.035279 0.000000 0.000000
# 5 0.000000 0.000000 0.000000 0.000000 0.035279 0.000000
# 6 0.000000 0.000000 0.000000 0.000000 0.000000 0.038973
#
#
# Mechanical properties :
#
#
# Convention : Reuss Voigt Hill
#
# Bulk Modulus (GPa) = 52.08972 57.44412 54.76692
# Shear Modulus (GPa) = 30.07538 31.46910 30.77224
#
# Velocity S-wave (km/s) = 3.69331 3.77791 3.73585
# Velocity P-wave (km/s) = 6.46624 6.71443 6.59151
#
# Compressibility (1/GPa) = 0.01919764
#
# Stress axis : x y z
#
# Youngs Moduli (GPa) = 75.19833 75.19833 122.52658
#
# Poissons Ratio (x) = 0.15665 0.34901
# Poissons Ratio (y) = 0.15665 0.34901
# Poissons Ratio (z) = 0.21420 0.21420
#
# Static dielectric constant tensor:
#      x y z
#    x 4.509700 0.000000 0.000000 
#    y 0.000000 4.509700 0.000000 
#    z 0.000000 0.000000 4.406370 
# 
# 
# High freq. dielectric constant tensor:
#      x y z
#    x 1.856720 0.000000 0.000000 
#    y 0.000000 1.856720 0.000000 
#    z 0.000000 0.000000 1.892830 
# 
# From -- ./inp_files/3161.got.cif
#   From: 2010.03.12/outbox.cif.g09.slc.cpg/sg135_2_cif.got.tgz:3161.got - 2010.04.06 18:31:24.
