data_PCOD8317885
_publ_section_title
;
Structure prediction by ZEFSAII (Michael W. Deem and Ramdas Pophale) SiO2 
 PCOD8317885
Probable space group: P 42/M N M
;
_chemical_formula_sum "Si O2"
_cell_formula_units_Z 96
_cell_length_a 24.441782
_cell_length_b 24.441782
_cell_length_c 9.158135
_cell_angle_alpha 90.000000
_cell_angle_beta 90.000000
_cell_angle_gamma 90.000000
_cell_volume 5471.076327
_symmetry_space_group_name_H-M "P 42/M N M"
_symmetry_group_IT_number 136
_symmetry_cell_setting 'tetragonal'
loop_
_space_group_symop_operation_xyz
x,y,z
1/2-y,1/2+x,1/2+z
-x,-y,z
1/2+y,1/2-x,1/2+z
1/2+x,1/2-y,1/2-z
1/2-x,1/2+y,1/2-z
y,x,-z
-y,-x,-z
-x,-y,-z
1/2+y,1/2-x,1/2-z
x,y,-z
1/2-y,1/2+x,1/2-z
1/2-x,1/2+y,1/2+z
1/2+x,1/2-y,1/2+z
-y,-x,z
y,x,z
loop_
_atom_site_type_symbol
_atom_site_label
_atom_site_fract_x
_atom_site_fract_y
_atom_site_fract_z
Si Si1 0.298067 0.922602 0.669389
Si Si2 0.620654 0.379347 0.171827
Si Si3 0.471738 0.789653 0.336732
Si Si4 0.309008 0.150300 0.173673
Si Si5 0.210322 0.210322 0.674134
Si Si6 0.826324 0.086724 0.332590
Si Si7 0.016294 0.160618 0.164111
O O1 0.303622 0.935179 0.500000
O O2 0.334772 0.871132 0.715697
O O3 0.236496 0.906221 0.713116
O O4 0.317598 0.978464 0.748350
O O5 0.665352 0.334648 0.218212
O O6 0.562567 0.364002 0.235463
O O7 0.615868 0.384133 0.000000
O O8 0.474471 0.813372 0.500000
O O9 0.411958 0.802096 0.269577
O O10 0.479238 0.725321 0.333932
O O11 0.267780 0.191090 0.256889
O O12 0.297830 0.155532 0.000000
O O13 0.216569 0.216569 0.500000
O O14 0.831294 0.067444 0.500000
O O15 0.855083 0.144918 0.306835
O O16 0.856360 0.041820 0.232455
O O17 0.021149 0.137452 0.000000
#
# Coordination Sequence:
#
# PCOD8317885 Si02
#       7
#    16   8  16  16   8  16  16
#     4   9  19  33  54  79 102 135 175 211 249 305
#     4  11  21  33  50  74 103 133 167 212 257 305
#     4   9  18  33  52  74 103 137 171 210 256 306
#     4  10  20  35  55  78 108 142 175 211 257 314
#     4  11  23  33  49  80 112 139 169 212 263 306
#     4   9  18  33  51  72  99 133 171 211 255 302
#     4  10  19  32  51  73  97 132 172 211 257 306
#
# _framework density 17.54682
#
# number of rings (size 3 to 8) (size 9 to 14) (size 15 to 20)
#    0.000    2.333    1.667    1.000    1.167    3.000 
#    0.000    0.417    0.000    3.000    0.000    3.500 
#    0.000    0.000    0.000    0.000    0.000    0.000 
#
# Total GULP energy -1190271.927742 kJ/mol
# GULP energy per Si atom -12398.665914 kJ/mol
# Density = 1.750688 g / cm^3
# Si number density = 17.546820 Si / 1000 Ang^3
#
#
#
# Elastic Constant Matrix: (Units=GPa)
#
#
# Indices 1 2 3 4 5 6 
#
# 1 96.0329 33.8863 36.5406 0.0000 0.0000 0.0000
# 2 33.8863 96.0337 36.5424 0.0000 0.0000 0.0000
# 3 36.5406 36.5424 62.7171 0.0000 0.0000 0.0000
# 4 0.0000 0.0000 0.0000 26.2303 0.0000 0.0000
# 5 0.0000 0.0000 0.0000 0.0000 26.2303 0.0000
# 6 0.0000 0.0000 0.0000 0.0000 0.0000 23.0476
#
#
#
# Elastic Compliance Matrix: (Units=1/GPa)
#
#
# Indices 1 2 3 4 5 6 
#
# 1 0.013770 -0.002321 -0.006671 0.000000 0.000000 0.000000
# 2 -0.002321 0.013770 -0.006671 0.000000 0.000000 0.000000
# 3 -0.006671 -0.006671 0.023718 0.000000 0.000000 0.000000
# 4 0.000000 0.000000 0.000000 0.038124 0.000000 0.000000
# 5 0.000000 0.000000 0.000000 0.000000 0.038124 0.000000
# 6 0.000000 0.000000 0.000000 0.000000 0.000000 0.043389
#
#
# Mechanical properties :
#
#
# Convention : Reuss Voigt Hill
#
# Bulk Modulus (GPa) = 50.16693 52.08025 51.12359
# Shear Modulus (GPa) = 23.93891 24.95592 24.44742
#
# Velocity S-wave (km/s) = 3.69763 3.77536 3.73670
# Velocity P-wave (km/s) = 6.84707 6.98209 6.91491
#
# Compressibility (1/GPa) = 0.01993345
#
# Stress axis : x y z
#
# Youngs Moduli (GPa) = 72.62072 72.61944 42.16155
#
# Poissons Ratio (x) = 0.16852 0.28125
# Poissons Ratio (y) = 0.16852 0.28128
# Poissons Ratio (z) = 0.48444 0.48447
#
# Static dielectric constant tensor:
#      x y z
#    x 3.097570 0.000000 0.000000 
#    y 0.000000 3.097550 0.000000 
#    z 0.000000 0.000000 3.380700 
# 
# 
# High freq. dielectric constant tensor:
#      x y z
#    x 1.667720 0.000000 0.000000 
#    y 0.000000 1.667720 0.000000 
#    z 0.000000 0.000000 1.678400 
# 
# From -- ./inp_files/2044.got.cif
#   From: 2010.03.12/outbox.cif.g09.slc.cpg/sg136_2_cif.got.tgz:2044.got - 2010.04.06 18:39:43.
