data_PCOD8317422
_publ_section_title
;
Structure prediction by ZEFSAII (Michael W. Deem and Ramdas Pophale) SiO2 
 PCOD8317422
Probable space group: P 42/M B C
;
_chemical_formula_sum "Si O2"
_cell_formula_units_Z 80
_cell_length_a 13.336366
_cell_length_b 13.336366
_cell_length_c 25.180660
_cell_angle_alpha 90.000000
_cell_angle_beta 90.000000
_cell_angle_gamma 90.000000
_cell_volume 4478.598397
_symmetry_space_group_name_H-M "P 42/M B C"
_symmetry_group_IT_number 135
_symmetry_cell_setting 'tetragonal'
loop_
_space_group_symop_operation_xyz
x,y,z
-y,x,1/2+z
-x,-y,z
y,-x,1/2+z
1/2+x,1/2-y,-z
1/2-x,1/2+y,-z
1/2+y,1/2+x,1/2-z
1/2-y,1/2-x,1/2-z
-x,-y,-z
y,-x,1/2-z
x,y,-z
-y,x,1/2-z
1/2-x,1/2+y,z
1/2+x,1/2-y,z
1/2-y,1/2-x,1/2+z
1/2+y,1/2+x,1/2+z
loop_
_atom_site_type_symbol
_atom_site_label
_atom_site_fract_x
_atom_site_fract_y
_atom_site_fract_z
Si Si1 0.231878 0.574623 0.062051
Si Si2 0.220276 0.365040 0.116425
Si Si3 0.283523 0.410001 0.559215
Si Si4 0.772738 0.403336 0.374024
Si Si5 0.042042 0.400266 0.809566
O O1 0.244158 0.473555 0.094716
O O2 0.343482 0.618088 0.068523
O O3 0.144758 0.641595 0.088622
O O4 0.204146 0.559272 0.000000
O O5 0.166316 0.308311 0.068209
O O6 0.319853 0.310446 0.138721
O O7 0.145415 0.364089 0.165786
O O8 0.277406 0.451904 0.500000
O O9 0.283326 0.506481 0.596315
O O10 0.818428 0.452648 0.319589
O O11 0.069951 0.430050 0.750000
O O12 0.000000 0.500000 0.838593
#
# Coordination Sequence:
#
# PCOD8317422 Si02
#       5
#    16  16  16  16  16
#     4  10  19  32  52  79 111 149 186 222 266 324
#     4  10  20  35  54  80 108 141 179 224 276 323
#     4   9  19  32  50  78 111 148 186 219 265 326
#     4  10  20  36  54  80 111 143 179 229 272 323
#     4  10  20  39  60  79 102 135 182 229 274 324
#
# _framework density 17.862731
#
# number of rings (size 3 to 8) (size 9 to 14) (size 15 to 20)
#    0.000    2.200    2.000    1.200    0.000    3.200 
#    3.600    5.000    0.000    0.000    0.000    0.000 
#    0.000    0.000    0.000    0.000    0.000    0.000 
#
# Total GULP energy -991263.494392 kJ/mol
# GULP energy per Si atom -12390.793680 kJ/mol
# Density = 1.782208 g / cm^3
# Si number density = 17.862731 Si / 1000 Ang^3
#
#
#
# Elastic Constant Matrix: (Units=GPa)
#
#
# Indices 1 2 3 4 5 6 
#
# 1 102.9209 46.7366 38.1539 0.0000 0.0000 0.0000
# 2 46.7366 102.9209 38.1538 0.0000 0.0000 0.0000
# 3 38.1539 38.1538 74.5749 0.0000 0.0000 0.0000
# 4 0.0000 0.0000 0.0000 19.9051 0.0000 0.0000
# 5 0.0000 0.0000 0.0000 0.0000 19.9053 0.0000
# 6 0.0000 0.0000 0.0000 0.0000 0.0000 32.7398
#
#
#
# Elastic Compliance Matrix: (Units=1/GPa)
#
#
# Indices 1 2 3 4 5 6 
#
# 1 0.013419 -0.004379 -0.004625 0.000000 0.000000 0.000000
# 2 -0.004379 0.013419 -0.004625 0.000000 0.000000 0.000000
# 3 -0.004625 -0.004625 0.018142 0.000000 0.000000 0.000000
# 4 0.000000 0.000000 0.000000 0.050238 0.000000 0.000000
# 5 0.000000 0.000000 0.000000 0.000000 0.050238 0.000000
# 6 0.000000 0.000000 0.000000 0.000000 0.000000 0.030544
#
#
# Mechanical properties :
#
#
# Convention : Reuss Voigt Hill
#
# Bulk Modulus (GPa) = 56.42762 58.50060 57.46411
# Shear Modulus (GPa) = 23.90434 25.00152 24.45293
#
# Velocity S-wave (km/s) = 3.66214 3.74524 3.70393
# Velocity P-wave (km/s) = 7.03846 7.17800 7.10857
#
# Compressibility (1/GPa) = 0.01772182
#
# Stress axis : x y z
#
# Youngs Moduli (GPa) = 74.51906 74.51918 55.12088
#
# Poissons Ratio (x) = 0.32633 0.25494
# Poissons Ratio (y) = 0.32633 0.25494
# Poissons Ratio (z) = 0.34466 0.34466
#
# Static dielectric constant tensor:
#      x y z
#    x 3.499710 0.000000 0.000000 
#    y 0.000000 3.499700 0.000000 
#    z 0.000000 0.000000 3.104260 
# 
# 
# High freq. dielectric constant tensor:
#      x y z
#    x 1.698660 0.000000 0.000000 
#    y 0.000000 1.698660 0.000000 
#    z 0.000000 0.000000 1.670620 
# 
# From -- ./inp_files/6666.got.cif
#   From: 2010.03.12/outbox.cif.g09.slc.cpg/sg135_4_cif.got.tgz:6666.got - 2010.04.06 18:31:24.
