data_PCOD8317523
_publ_section_title
;
Structure prediction by ZEFSAII (Michael W. Deem and Ramdas Pophale) SiO2 
 PCOD8317523
Probable space group: P 42/M B C
;
_chemical_formula_sum "Si O2"
_cell_formula_units_Z 56
_cell_length_a 16.958890
_cell_length_b 16.958890
_cell_length_c 9.725382
_cell_angle_alpha 90.000000
_cell_angle_beta 90.000000
_cell_angle_gamma 90.000000
_cell_volume 2797.058279
_symmetry_space_group_name_H-M "P 42/M B C"
_symmetry_group_IT_number 135
_symmetry_cell_setting 'tetragonal'
loop_
_space_group_symop_operation_xyz
x,y,z
-y,x,1/2+z
-x,-y,z
y,-x,1/2+z
1/2+x,1/2-y,-z
1/2-x,1/2+y,-z
1/2+y,1/2+x,1/2-z
1/2-y,1/2-x,1/2-z
-x,-y,-z
y,-x,1/2-z
x,y,-z
-y,x,1/2-z
1/2-x,1/2+y,z
1/2+x,1/2-y,z
1/2-y,1/2-x,1/2+z
1/2+y,1/2+x,1/2+z
loop_
_atom_site_type_symbol
_atom_site_label
_atom_site_fract_x
_atom_site_fract_y
_atom_site_fract_z
Si Si1 0.729341 0.009182 0.710654
Si Si2 0.408312 0.315303 0.000000
Si Si3 0.856117 0.714173 0.000000
Si Si4 0.627597 0.872404 0.750000
Si Si5 0.074681 0.230112 0.500000
Si Si6 0.782894 0.319697 0.000000
O O1 0.711545 0.092063 0.637881
O O2 0.800391 0.962301 0.634409
O O3 0.645980 0.960115 0.693045
O O4 0.755693 0.021124 0.866776
O O5 0.362630 0.399070 0.000000
O O6 0.335356 0.257369 0.000000
O O7 0.794937 0.643103 0.000000
O O8 0.809002 0.796902 0.000000
O O9 0.632307 0.803108 0.636916
#
# Coordination Sequence:
#
# PCOD8317523 Si02
#       6
#    16   8   8   8   8   8
#     4  10  21  37  57  87 122 150 193 239 296 340
#     4   8  20  38  54  85 117 145 191 258 276 335
#     4  10  22  35  54  91 119 146 189 252 281 340
#     4  10  20  38  57  88 114 157 190 238 282 356
#     4  11  21  37  63  87 113 156 206 230 298 348
#     4   9  19  32  61  81 109 145 202 238 285 313
#
# _framework density 20.021034
#
# number of rings (size 3 to 8) (size 9 to 14) (size 15 to 20)
#    0.000    2.286    0.000    2.571   12.000    0.000 
#    0.000    4.286    0.000    2.571    0.000    0.000 
#    0.000    0.000    0.000    0.000    0.000    0.000 
#
# Total GULP energy -693966.932250 kJ/mol
# GULP energy per Si atom -12392.266647 kJ/mol
# Density = 1.997547 g / cm^3
# Si number density = 20.021034 Si / 1000 Ang^3
#
#
#
# Elastic Constant Matrix: (Units=GPa)
#
#
# Indices 1 2 3 4 5 6 
#
# 1 79.6674 56.1700 42.9348 0.0000 0.0000 0.0000
# 2 56.1700 79.6689 42.9353 0.0000 0.0000 0.0000
# 3 42.9348 42.9353 159.8019 0.0000 0.0000 0.0000
# 4 0.0000 0.0000 0.0000 23.6492 0.0000 0.0000
# 5 0.0000 0.0000 0.0000 0.0000 23.6483 0.0000
# 6 0.0000 0.0000 0.0000 0.0000 0.0000 29.7077
#
#
#
# Elastic Compliance Matrix: (Units=1/GPa)
#
#
# Indices 1 2 3 4 5 6 
#
# 1 0.025712 -0.016844 -0.002383 0.000000 0.000000 0.000000
# 2 -0.016844 0.025712 -0.002383 0.000000 0.000000 0.000000
# 3 -0.002383 -0.002383 0.007538 0.000000 0.000000 0.000000
# 4 0.000000 0.000000 0.000000 0.042285 0.000000 0.000000
# 5 0.000000 0.000000 0.000000 0.000000 0.042286 0.000000
# 6 0.000000 0.000000 0.000000 0.000000 0.000000 0.033661
#
#
# Mechanical properties :
#
#
# Convention : Reuss Voigt Hill
#
# Bulk Modulus (GPa) = 63.51865 67.02426 65.27145
# Shear Modulus (GPa) = 22.15707 27.20758 24.68233
#
# Velocity S-wave (km/s) = 3.33030 3.69039 3.51496
# Velocity P-wave (km/s) = 6.82515 7.19085 7.01038
#
# Compressibility (1/GPa) = 0.01574341
#
# Stress axis : x y z
#
# Youngs Moduli (GPa) = 38.89169 38.89242 132.66054
#
# Poissons Ratio (x) = 0.65512 0.31607
# Poissons Ratio (y) = 0.65510 0.31608
# Poissons Ratio (z) = 0.09266 0.09266
#
# Static dielectric constant tensor:
#      x y z
#    x 3.632810 0.000000 0.000000 
#    y 0.000000 3.632800 0.000000 
#    z 0.000000 0.000000 3.786120 
# 
# 
# High freq. dielectric constant tensor:
#      x y z
#    x 1.763580 0.000000 0.000000 
#    y 0.000000 1.763580 0.000000 
#    z 0.000000 0.000000 1.799280 
# 
# From -- ./inp_files/817.got.cif
#   From: 2010.03.12/outbox.cif.g09.slc.cpg/sg135_1_cif.got.tgz:817.got - 2010.04.06 18:31:24.
